MODEL 1
USER: ADFR SOLUTION from run 50
USER: SCORE 12.419927 LL:  -2.399 LR: -10.919 RR:   0.000 FEB:  -6.742
USER: RMSD 7.834879
USER: SEED 49
USER: STATUS no improvement in best in 13 clusters for 5 generations
USER: GENES 16
USER: genes 0 Translation |==|  0.49973 0.48317 0.34281
USER: genes 1 Rotation |==|  0.75488 0.27653 0.86677 0.52403
USER: genes 2 Torsion [C]-N--CA-[CB] |==|  0.52778
USER: genes 3 Torsion [N]-CA--CB-[CG] |==|  0.65852
USER: genes 4 Torsion [CA]-CB--CG-[CD2] |==|  0.58768
USER: genes 5 Torsion [CE2]-CZ--OH-[HH] |==|  0.26156
USER: genes 6 Torsion [N]-CA--C-[N] |==|  0.31708
USER: genes 7 Torsion [C]-N--CA-[C] |==|  0.46433
USER: genes 8 Torsion [N]-CA--C-[O] |==|  0.79646
USER: genes 9 Torsion [N]-C--CA-[N] |==|  0.51407
USER: genes 10 Torsion [C]-CA--N-[C] |==|  0.76660
USER: genes 11 Torsion [N]-C--CA-[N] |==|  0.51760
USER: genes 12 Torsion [C]-CA--CB-[CG] |==|  0.37570
USER: genes 13 Torsion [CA]-CB--CG-[OD1] |==|  0.90247
USER: genes 14 Torsion [C]-CA--CB-[CG] |==|  0.78255
USER: genes 15 Torsion [CA]-CB--CG-[CD2] |==|  0.72771
ROOT
ATOM      1  C   LEU F 804      11.842 -11.897  29.806  1.00 42.60 LIG 0.24  C 
ATOM      2 O    LEU F 804      11.598 -12.652  30.753  1.00 42.72 LIG-0.27  OA
ATOM      3  N   TYR F 805      11.674 -12.252  28.530  1.00 41.09 LIG-0.35  N 
ATOM      4 H    TYR F 805      12.005 -11.815  27.867  1.00 41.09 LIG 0.16  HD
ENDROOT
BRANCH 3 5
ATOM      5  CA  TYR F 805      10.895 -13.441  28.137  1.00 40.08 LIG 0.18  C 
BRANCH 5 6
ATOM      6  CB  TYR F 805      11.096 -13.717  26.641  1.00 38.23 LIG 0.07  C 
BRANCH 6 7
ATOM      7  CG  TYR F 805       9.802 -13.740  25.865  1.00 36.43 LIG-0.06  A 
ATOM      8  CD2 TYR F 805       9.657 -14.558  24.750  1.00 35.39 LIG 0.01  A 
ATOM      9  CE2 TYR F 805       8.472 -14.575  24.014  1.00 33.62 LIG 0.04  A 
ATOM     10  CZ  TYR F 805       7.417 -13.771  24.400  1.00 33.40 LIG 0.07  A 
ATOM     11  CE1 TYR F 805       7.531 -12.946  25.514  1.00 31.77 LIG 0.04  A 
ATOM     12  CD1 TYR F 805       8.722 -12.933  26.240  1.00 33.46 LIG 0.01  A 
BRANCH 10 13
ATOM     13 OH   TYR F 805       6.250 -13.806  23.670  1.00 32.97 LIG-0.36  OA
ATOM     14 HH   TYR F 805       5.717 -14.353  24.020  1.00 32.97 LIG 0.22  HD
ENDBRANCH 10 13
ENDBRANCH 6 7
ENDBRANCH 5 6
BRANCH 5 15
ATOM     15  C   TYR F 805      11.221 -14.709  28.948  1.00 40.65 LIG 0.24  C 
ATOM     16 O    TYR F 805      12.341 -15.220  28.861  1.00 41.05 LIG-0.27  OA
ATOM     17  N   GLY F 806      10.267 -15.217  29.743  1.00 41.21 LIG-0.35  N 
ATOM     18 H    GLY F 806      10.359 -15.965  30.156  1.00 41.21 LIG 0.16  HD
BRANCH 17 19
ATOM     19  CA  GLY F 806       8.963 -14.569  30.004  1.00 41.66 LIG 0.21  C 
BRANCH 19 20
ATOM     20  C   GLY F 806       7.915 -15.441  30.681  1.00 41.93 LIG 0.21  C 
ATOM     21 O    GLY F 806       7.334 -16.349  30.066  1.00 42.62 LIG-0.29  OA
ENDBRANCH 19 20
ENDBRANCH 17 19
ENDBRANCH 5 15
ENDBRANCH 3 5
BRANCH 1 22
ATOM     22  CA  LEU F 804      12.368 -10.475  30.076  1.00 43.64 LIG 0.18  C 
BRANCH 22 23
ATOM     23  N   LEU F 804      12.649 -10.160  31.476  1.00 45.07 LIG-0.35  N 
ATOM     24  C   ASP F 803      11.701  -9.751  32.313  1.00 46.18 LIG 0.26  C 
ATOM     25 O    ASP F 803      10.507  -9.689  31.993  1.00 46.48 LIG-0.27  OA
ATOM     26 H    LEU F 804      13.472 -10.263  31.702  1.00 45.07 LIG 0.16  HD
BRANCH 24 27
ATOM     27  CA  ASP F 803      12.165  -9.359  33.728  1.00 46.88 LIG 0.41  C 
ATOM     28  N   ASP F 803      11.025  -9.060  34.638  1.00 47.04 LIG 0.61  N 
BRANCH 27 29
ATOM     29  CB  ASP F 803      13.030 -10.470  34.332  1.00 47.42 LIG 0.16  C 
BRANCH 29 30
ATOM     30  CG  ASP F 803      14.289  -9.935  35.017  1.00 48.96 LIG 0.17  C 
ATOM     31 OD1  ASP F 803      14.846  -8.933  34.510  1.00 50.04 LIG-0.65  OA
ATOM     32 OD2  ASP F 803      14.723 -10.507  36.048  1.00 49.91 LIG-0.65  OA
ENDBRANCH 29 30
ENDBRANCH 27 29
ENDBRANCH 24 27
ENDBRANCH 22 23
BRANCH 22 33
ATOM     33  CB  LEU F 804      13.614 -10.200  29.224  1.00 43.69 LIG 0.04  C 
BRANCH 33 34
ATOM     34  CG  LEU F 804      14.999 -10.751  29.608  1.00 43.67 LIG-0.02  C 
ATOM     35  CD2 LEU F 804      15.796  -9.681  30.327  1.00 43.56 LIG 0.01  C 
ATOM     36  CD1 LEU F 804      15.787 -11.324  28.431  1.00 44.06 LIG 0.01  C 
ENDBRANCH 33 34
ENDBRANCH 22 33
ENDBRANCH 1 22
TORSDOF 14
ENDMDL
MODEL 2
USER: ADFR SOLUTION from run 145
USER: SCORE 11.968378 LL:  -2.447 LR: -10.267 RR:   0.000 FEB:  -6.090
USER: RMSD 8.671127
USER: SEED 144
USER: STATUS no improvement in best in 15 clusters for 5 generations
USER: GENES 16
USER: genes 0 Translation |==|  0.75383 0.75548 0.60669
USER: genes 1 Rotation |==|  0.85379 0.27085 0.76809 0.52126
USER: genes 2 Torsion [C]-N--CA-[CB] |==|  0.73041
USER: genes 3 Torsion [N]-CA--CB-[CG] |==|  0.60333
USER: genes 4 Torsion [CA]-CB--CG-[CD2] |==|  0.91550
USER: genes 5 Torsion [CE2]-CZ--OH-[HH] |==|  0.49525
USER: genes 6 Torsion [N]-CA--C-[N] |==|  0.25556
USER: genes 7 Torsion [C]-N--CA-[C] |==|  0.78379
USER: genes 8 Torsion [N]-CA--C-[O] |==|  0.46404
USER: genes 9 Torsion [N]-C--CA-[N] |==|  0.52768
USER: genes 10 Torsion [C]-CA--N-[C] |==|  0.68822
USER: genes 11 Torsion [N]-C--CA-[N] |==|  0.47011
USER: genes 12 Torsion [C]-CA--CB-[CG] |==|  0.90544
USER: genes 13 Torsion [CA]-CB--CG-[OD1] |==|  0.29593
USER: genes 14 Torsion [C]-CA--CB-[CG] |==|  0.23022
USER: genes 15 Torsion [CA]-CB--CG-[CD2] |==|  0.36262
ROOT
ATOM      1  C   LEU F 804      15.653  -6.383  34.556  1.00 42.60 LIG 0.24  C 
ATOM      2 O    LEU F 804      15.971  -7.323  35.292  1.00 42.72 LIG-0.27  OA
ATOM      3  N   TYR F 805      14.925  -6.540  33.448  1.00 41.09 LIG-0.35  N 
ATOM      4 H    TYR F 805      14.851  -5.938  32.838  1.00 41.09 LIG 0.16  HD
ENDROOT
BRANCH 3 5
ATOM      5  CA  TYR F 805      14.171  -7.776  33.168  1.00 40.08 LIG 0.18  C 
BRANCH 5 6
ATOM      6  CB  TYR F 805      14.993  -8.682  32.243  1.00 38.23 LIG 0.07  C 
BRANCH 6 7
ATOM      7  CG  TYR F 805      14.149  -9.417  31.231  1.00 36.43 LIG-0.06  A 
ATOM      8  CD2 TYR F 805      12.837  -9.774  31.526  1.00 35.39 LIG 0.01  A 
ATOM      9  CE2 TYR F 805      12.052 -10.469  30.605  1.00 33.62 LIG 0.04  A 
ATOM     10  CZ  TYR F 805      12.581 -10.806  29.375  1.00 33.40 LIG 0.07  A 
ATOM     11  CE1 TYR F 805      13.888 -10.459  29.050  1.00 31.77 LIG 0.04  A 
ATOM     12  CD1 TYR F 805      14.666  -9.769  29.979  1.00 33.46 LIG 0.01  A 
BRANCH 10 13
ATOM     13 OH   TYR F 805      11.791 -11.483  28.472  1.00 32.97 LIG-0.36  OA
ATOM     14 HH   TYR F 805      12.220 -11.606  27.760  1.00 32.97 LIG 0.22  HD
ENDBRANCH 10 13
ENDBRANCH 6 7
ENDBRANCH 5 6
BRANCH 5 15
ATOM     15  C   TYR F 805      13.750  -8.561  34.425  1.00 40.65 LIG 0.24  C 
ATOM     16 O    TYR F 805      14.521  -9.390  34.914  1.00 41.05 LIG-0.27  OA
ATOM     17  N   GLY F 806      12.547  -8.304  34.960  1.00 41.21 LIG-0.35  N 
ATOM     18 H    GLY F 806      12.222  -8.764  35.610  1.00 41.21 LIG 0.16  HD
BRANCH 17 19
ATOM     19  CA  GLY F 806      11.645  -7.220  34.510  1.00 41.66 LIG 0.21  C 
BRANCH 19 20
ATOM     20  C   GLY F 806      12.004  -5.820  34.987  1.00 41.93 LIG 0.21  C 
ATOM     21 O    GLY F 806      11.476  -4.813  34.492  1.00 42.62 LIG-0.29  OA
ENDBRANCH 19 20
ENDBRANCH 17 19
ENDBRANCH 5 15
ENDBRANCH 3 5
BRANCH 1 22
ATOM     22  CA  LEU F 804      16.106  -4.952  34.902  1.00 43.64 LIG 0.18  C 
BRANCH 22 23
ATOM     23  N   LEU F 804      17.084  -4.842  35.984  1.00 45.07 LIG-0.35  N 
ATOM     24  C   ASP F 803      16.785  -4.288  37.154  1.00 46.18 LIG 0.26  C 
ATOM     25 O    ASP F 803      15.643  -3.904  37.440  1.00 46.48 LIG-0.27  OA
ATOM     26 H    LEU F 804      17.858  -5.165  35.794  1.00 45.07 LIG 0.16  HD
BRANCH 24 27
ATOM     27  CA  ASP F 803      17.943  -4.151  38.158  1.00 46.88 LIG 0.41  C 
ATOM     28  N   ASP F 803      17.585  -3.298  39.327  1.00 47.04 LIG 0.61  N 
BRANCH 27 29
ATOM     29  CB  ASP F 803      18.393  -5.532  38.645  1.00 47.42 LIG 0.16  C 
BRANCH 29 30
ATOM     30  CG  ASP F 803      17.238  -6.528  38.752  1.00 48.96 LIG 0.17  C 
ATOM     31 OD1  ASP F 803      17.166  -7.431  37.885  1.00 50.04 LIG-0.65  OA
ATOM     32 OD2  ASP F 803      16.406  -6.414  39.687  1.00 49.91 LIG-0.65  OA
ENDBRANCH 29 30
ENDBRANCH 27 29
ENDBRANCH 24 27
ENDBRANCH 22 23
BRANCH 22 33
ATOM     33  CB  LEU F 804      16.641  -4.247  33.649  1.00 43.69 LIG 0.04  C 
BRANCH 33 34
ATOM     34  CG  LEU F 804      15.702  -3.566  32.636  1.00 43.67 LIG-0.02  C 
ATOM     35  CD2 LEU F 804      16.196  -2.164  32.340  1.00 43.56 LIG 0.01  C 
ATOM     36  CD1 LEU F 804      14.235  -3.552  33.063  1.00 44.06 LIG 0.01  C 
ENDBRANCH 33 34
ENDBRANCH 22 33
ENDBRANCH 1 22
TORSDOF 14
ENDMDL
MODEL 3
USER: ADFR SOLUTION from run 193
USER: SCORE 12.401274 LL:  -3.194 LR: -10.240 RR:   0.000 FEB:  -6.064
USER: RMSD 7.441294
USER: SEED 192
USER: STATUS no improvement in best in 6 clusters for 5 generations
USER: GENES 16
USER: genes 0 Translation |==|  0.55976 0.51482 0.35222
USER: genes 1 Rotation |==|  0.85333 0.32842 0.80759 0.53325
USER: genes 2 Torsion [C]-N--CA-[CB] |==|  0.47778
USER: genes 3 Torsion [N]-CA--CB-[CG] |==|  0.84356
USER: genes 4 Torsion [CA]-CB--CG-[CD2] |==|  0.39053
USER: genes 5 Torsion [CE2]-CZ--OH-[HH] |==|  0.33544
USER: genes 6 Torsion [N]-CA--C-[N] |==|  0.37390
USER: genes 7 Torsion [C]-N--CA-[C] |==|  0.22364
USER: genes 8 Torsion [N]-CA--C-[O] |==|  0.76268
USER: genes 9 Torsion [N]-C--CA-[N] |==|  0.43881
USER: genes 10 Torsion [C]-CA--N-[C] |==|  0.82637
USER: genes 11 Torsion [N]-C--CA-[N] |==|  0.59956
USER: genes 12 Torsion [C]-CA--CB-[CG] |==|  0.65526
USER: genes 13 Torsion [CA]-CB--CG-[OD1] |==|  0.69193
USER: genes 14 Torsion [C]-CA--CB-[CG] |==|  0.83514
USER: genes 15 Torsion [CA]-CB--CG-[CD2] |==|  0.25685
ROOT
ATOM      1  C   LEU F 804      12.742 -11.256  29.975  1.00 42.60 LIG 0.24  C 
ATOM      2 O    LEU F 804      13.109 -11.951  30.929  1.00 42.72 LIG-0.27  OA
ATOM      3  N   TYR F 805      12.151 -11.763  28.891  1.00 41.09 LIG-0.35  N 
ATOM      4 H    TYR F 805      12.058 -11.330  28.154  1.00 41.09 LIG 0.16  HD
ENDROOT
BRANCH 3 5
ATOM      5  CA  TYR F 805      11.598 -13.130  28.859  1.00 40.08 LIG 0.18  C 
BRANCH 5 6
ATOM      6  CB  TYR F 805      10.818 -13.339  27.555  1.00 38.23 LIG 0.07  C 
BRANCH 6 7
ATOM      7  CG  TYR F 805       9.722 -12.321  27.352  1.00 36.43 LIG-0.06  A 
ATOM      8  CD2 TYR F 805       9.470 -11.791  26.091  1.00 35.39 LIG 0.01  A 
ATOM      9  CE2 TYR F 805       8.471 -10.836  25.895  1.00 33.62 LIG 0.04  A 
ATOM     10  CZ  TYR F 805       7.713 -10.411  26.968  1.00 33.40 LIG 0.07  A 
ATOM     11  CE1 TYR F 805       7.940 -10.926  28.240  1.00 31.77 LIG 0.04  A 
ATOM     12  CD1 TYR F 805       8.943 -11.877  28.426  1.00 33.46 LIG 0.01  A 
BRANCH 10 13
ATOM     13 OH   TYR F 805       6.724  -9.476  26.757  1.00 32.97 LIG-0.36  OA
ATOM     14 HH   TYR F 805       5.982  -9.794  26.990  1.00 32.97 LIG 0.22  HD
ENDBRANCH 10 13
ENDBRANCH 6 7
ENDBRANCH 5 6
BRANCH 5 15
ATOM     15  C   TYR F 805      12.650 -14.244  29.021  1.00 40.65 LIG 0.24  C 
ATOM     16 O    TYR F 805      13.708 -14.181  28.389  1.00 41.05 LIG-0.27  OA
ATOM     17  N   GLY F 806      12.381 -15.252  29.863  1.00 41.21 LIG-0.35  N 
ATOM     18 H    GLY F 806      12.889 -15.942  29.935  1.00 41.21 LIG 0.16  HD
BRANCH 17 19
ATOM     19  CA  GLY F 806      11.203 -15.306  30.757  1.00 41.66 LIG 0.21  C 
BRANCH 19 20
ATOM     20  C   GLY F 806       9.900 -15.751  30.107  1.00 41.93 LIG 0.21  C 
ATOM     21 O    GLY F 806       9.162 -14.946  29.520  1.00 42.62 LIG-0.29  OA
ENDBRANCH 19 20
ENDBRANCH 17 19
ENDBRANCH 5 15
ENDBRANCH 3 5
BRANCH 1 22
ATOM     22  CA  LEU F 804      12.966  -9.733  30.006  1.00 43.64 LIG 0.18  C 
BRANCH 22 23
ATOM     23  N   LEU F 804      13.133  -9.144  31.335  1.00 45.07 LIG-0.35  N 
ATOM     24  C   ASP F 803      12.172  -9.185  32.252  1.00 46.18 LIG 0.26  C 
ATOM     25 O    ASP F 803      11.108  -9.793  32.080  1.00 46.48 LIG-0.27  OA
ATOM     26 H    LEU F 804      13.899  -8.776  31.463  1.00 45.07 LIG 0.16  HD
BRANCH 24 27
ATOM     27  CA  ASP F 803      12.455  -8.436  33.566  1.00 46.88 LIG 0.41  C 
ATOM     28  N   ASP F 803      11.885  -9.134  34.753  1.00 47.04 LIG 0.61  N 
BRANCH 27 29
ATOM     29  CB  ASP F 803      13.962  -8.242  33.757  1.00 47.42 LIG 0.16  C 
BRANCH 29 30
ATOM     30  CG  ASP F 803      14.471  -8.811  35.082  1.00 48.96 LIG 0.17  C 
ATOM     31 OD1  ASP F 803      14.856  -7.998  35.955  1.00 50.04 LIG-0.65  OA
ATOM     32 OD2  ASP F 803      14.492 -10.056  35.254  1.00 49.91 LIG-0.65  OA
ENDBRANCH 29 30
ENDBRANCH 27 29
ENDBRANCH 24 27
ENDBRANCH 22 23
BRANCH 22 33
ATOM     33  CB  LEU F 804      14.160  -9.354  29.119  1.00 43.69 LIG 0.04  C 
BRANCH 33 34
ATOM     34  CG  LEU F 804      15.571  -9.915  29.373  1.00 43.67 LIG-0.02  C 
ATOM     35  CD2 LEU F 804      15.778 -11.173  28.554  1.00 43.56 LIG 0.01  C 
ATOM     36  CD1 LEU F 804      15.885 -10.161  30.847  1.00 44.06 LIG 0.01  C 
ENDBRANCH 33 34
ENDBRANCH 22 33
ENDBRANCH 1 22
TORSDOF 14
ENDMDL
MODEL 4
USER: ADFR SOLUTION from run 194
USER: SCORE 12.734725 LL:  -2.634 LR: -10.110 RR:   0.000 FEB:  -5.934
USER: RMSD 8.512115
USER: SEED 193
USER: STATUS no improvement in best in 10 clusters for 5 generations
USER: GENES 16
USER: genes 0 Translation |==|  0.55430 0.35965 0.38465
USER: genes 1 Rotation |==|  0.64322 0.61535 0.94989 0.61739
USER: genes 2 Torsion [C]-N--CA-[CB] |==|  0.82074
USER: genes 3 Torsion [N]-CA--CB-[CG] |==|  0.74270
USER: genes 4 Torsion [CA]-CB--CG-[CD2] |==|  0.31793
USER: genes 5 Torsion [CE2]-CZ--OH-[HH] |==|  0.11233
USER: genes 6 Torsion [N]-CA--C-[N] |==|  0.39994
USER: genes 7 Torsion [C]-N--CA-[C] |==|  0.46690
USER: genes 8 Torsion [N]-CA--C-[O] |==|  0.07322
USER: genes 9 Torsion [N]-C--CA-[N] |==|  0.38055
USER: genes 10 Torsion [C]-CA--N-[C] |==|  0.84369
USER: genes 11 Torsion [N]-C--CA-[N] |==|  0.10149
USER: genes 12 Torsion [C]-CA--CB-[CG] |==|  0.73764
USER: genes 13 Torsion [CA]-CB--CG-[OD1] |==|  0.66915
USER: genes 14 Torsion [C]-CA--CB-[CG] |==|  0.71724
USER: genes 15 Torsion [CA]-CB--CG-[CD2] |==|  0.58372
ROOT
ATOM      1  C   LEU F 804      12.661 -14.398  30.559  1.00 42.60 LIG 0.24  C 
ATOM      2 O    LEU F 804      12.093 -13.637  31.350  1.00 42.72 LIG-0.27  OA
ATOM      3  N   TYR F 805      12.942 -15.671  30.848  1.00 41.09 LIG-0.35  N 
ATOM      4 H    TYR F 805      13.488 -16.153  30.391  1.00 41.09 LIG 0.16  HD
ENDROOT
BRANCH 3 5
ATOM      5  CA  TYR F 805      12.332 -16.374  31.992  1.00 40.08 LIG 0.18  C 
BRANCH 5 6
ATOM      6  CB  TYR F 805      12.785 -15.715  33.301  1.00 38.23 LIG 0.07  C 
BRANCH 6 7
ATOM      7  CG  TYR F 805      14.015 -16.359  33.893  1.00 36.43 LIG-0.06  A 
ATOM      8  CD2 TYR F 805      15.211 -15.656  33.984  1.00 35.39 LIG 0.01  A 
ATOM      9  CE2 TYR F 805      16.359 -16.247  34.513  1.00 33.62 LIG 0.04  A 
ATOM     10  CZ  TYR F 805      16.310 -17.553  34.960  1.00 33.40 LIG 0.07  A 
ATOM     11  CE1 TYR F 805      15.127 -18.280  34.885  1.00 31.77 LIG 0.04  A 
ATOM     12  CD1 TYR F 805      13.987 -17.682  34.351  1.00 33.46 LIG 0.01  A 
BRANCH 10 13
ATOM     13 OH   TYR F 805      17.449 -18.120  35.489  1.00 32.97 LIG-0.36  OA
ATOM     14 HH   TYR F 805      17.846 -17.556  35.969  1.00 32.97 LIG 0.22  HD
ENDBRANCH 10 13
ENDBRANCH 6 7
ENDBRANCH 5 6
BRANCH 5 15
ATOM     15  C   TYR F 805      10.794 -16.441  31.948  1.00 40.65 LIG 0.24  C 
ATOM     16 O    TYR F 805      10.153 -15.492  31.489  1.00 41.05 LIG-0.27  OA
ATOM     17  N   GLY F 806      10.194 -17.551  32.407  1.00 41.21 LIG-0.35  N 
ATOM     18 H    GLY F 806       9.340 -17.616  32.485  1.00 41.21 LIG 0.16  HD
BRANCH 17 19
ATOM     19  CA  GLY F 806      10.909 -18.776  32.827  1.00 41.66 LIG 0.21  C 
BRANCH 19 20
ATOM     20  C   GLY F 806      10.073 -19.806  33.574  1.00 41.93 LIG 0.21  C 
ATOM     21 O    GLY F 806       8.846 -19.886  33.408  1.00 42.62 LIG-0.29  OA
ENDBRANCH 19 20
ENDBRANCH 17 19
ENDBRANCH 5 15
ENDBRANCH 3 5
BRANCH 1 22
ATOM     22  CA  LEU F 804      13.078 -13.884  29.169  1.00 43.64 LIG 0.18  C 
BRANCH 22 23
ATOM     23  N   LEU F 804      12.091 -13.056  28.476  1.00 45.07 LIG-0.35  N 
ATOM     24  C   ASP F 803      10.856 -13.483  28.232  1.00 46.18 LIG 0.26  C 
ATOM     25 O    ASP F 803      10.431 -14.570  28.643  1.00 46.48 LIG-0.27  OA
ATOM     26 H    LEU F 804      12.381 -12.280  28.247  1.00 45.07 LIG 0.16  HD
BRANCH 24 27
ATOM     27  CA  ASP F 803       9.962 -12.541  27.407  1.00 46.88 LIG 0.41  C 
ATOM     28  N   ASP F 803      10.721 -11.821  26.346  1.00 47.04 LIG 0.61  N 
BRANCH 27 29
ATOM     29  CB  ASP F 803       8.805 -13.322  26.774  1.00 47.42 LIG 0.16  C 
BRANCH 29 30
ATOM     30  CG  ASP F 803       9.109 -13.779  25.347  1.00 48.96 LIG 0.17  C 
ATOM     31 OD1  ASP F 803       8.366 -13.356  24.430  1.00 50.04 LIG-0.65  OA
ATOM     32 OD2  ASP F 803      10.074 -14.556  25.137  1.00 49.91 LIG-0.65  OA
ENDBRANCH 29 30
ENDBRANCH 27 29
ENDBRANCH 24 27
ENDBRANCH 22 23
BRANCH 22 33
ATOM     33  CB  LEU F 804      14.411 -13.130  29.260  1.00 43.69 LIG 0.04  C 
BRANCH 33 34
ATOM     34  CG  LEU F 804      14.477 -11.592  29.260  1.00 43.67 LIG-0.02  C 
ATOM     35  CD2 LEU F 804      15.779 -11.134  28.633  1.00 43.56 LIG 0.01  C 
ATOM     36  CD1 LEU F 804      14.280 -10.962  30.638  1.00 44.06 LIG 0.01  C 
ENDBRANCH 33 34
ENDBRANCH 22 33
ENDBRANCH 1 22
TORSDOF 14
ENDMDL
MODEL 5
USER: ADFR SOLUTION from run 31
USER: SCORE 11.922432 LL:  -2.905 LR: -10.074 RR:   0.000 FEB:  -5.897
USER: RMSD 6.600199
USER: SEED 30
USER: STATUS no improvement in best in 9 clusters for 5 generations
USER: GENES 16
USER: genes 0 Translation |==|  0.63558 0.70195 0.50712
USER: genes 1 Rotation |==|  0.53450 0.02485 0.44270 0.64056
USER: genes 2 Torsion [C]-N--CA-[CB] |==|  0.16667
USER: genes 3 Torsion [N]-CA--CB-[CG] |==|  0.11815
USER: genes 4 Torsion [CA]-CB--CG-[CD2] |==|  0.10310
USER: genes 5 Torsion [CE2]-CZ--OH-[HH] |==|  0.01258
USER: genes 6 Torsion [N]-CA--C-[N] |==|  0.46633
USER: genes 7 Torsion [C]-N--CA-[C] |==|  0.68612
USER: genes 8 Torsion [N]-CA--C-[O] |==|  0.11626
USER: genes 9 Torsion [N]-C--CA-[N] |==|  0.45832
USER: genes 10 Torsion [C]-CA--N-[C] |==|  0.78973
USER: genes 11 Torsion [N]-C--CA-[N] |==|  0.10042
USER: genes 12 Torsion [C]-CA--CB-[CG] |==|  0.81964
USER: genes 13 Torsion [CA]-CB--CG-[OD1] |==|  0.42810
USER: genes 14 Torsion [C]-CA--CB-[CG] |==|  0.69053
USER: genes 15 Torsion [CA]-CB--CG-[CD2] |==|  0.58370
ROOT
ATOM      1  C   LEU F 804      13.880  -7.467  32.763  1.00 42.60 LIG 0.24  C 
ATOM      2 O    LEU F 804      12.677  -7.611  33.007  1.00 42.72 LIG-0.27  OA
ATOM      3  N   TYR F 805      14.451  -6.271  32.605  1.00 41.09 LIG-0.35  N 
ATOM      4 H    TYR F 805      15.231  -6.158  32.260  1.00 41.09 LIG 0.16  HD
ENDROOT
BRANCH 3 5
ATOM      5  CA  TYR F 805      13.788  -5.018  33.012  1.00 40.08 LIG 0.18  C 
BRANCH 5 6
ATOM      6  CB  TYR F 805      13.501  -5.054  34.518  1.00 38.23 LIG 0.07  C 
BRANCH 6 7
ATOM      7  CG  TYR F 805      14.648  -5.611  35.325  1.00 36.43 LIG-0.06  A 
ATOM      8  CD2 TYR F 805      15.965  -5.335  34.973  1.00 35.39 LIG 0.01  A 
ATOM      9  CE2 TYR F 805      17.033  -5.859  35.702  1.00 33.62 LIG 0.04  A 
ATOM     10  CZ  TYR F 805      16.784  -6.662  36.796  1.00 33.40 LIG 0.07  A 
ATOM     11  CE1 TYR F 805      15.478  -6.953  37.175  1.00 31.77 LIG 0.04  A 
ATOM     12  CD1 TYR F 805      14.417  -6.428  36.438  1.00 33.46 LIG 0.01  A 
BRANCH 10 13
ATOM     13 OH   TYR F 805      17.850  -7.164  37.511  1.00 32.97 LIG-0.36  OA
ATOM     14 HH   TYR F 805      18.566  -6.849  37.205  1.00 32.97 LIG 0.22  HD
ENDBRANCH 10 13
ENDBRANCH 6 7
ENDBRANCH 5 6
BRANCH 5 15
ATOM     15  C   TYR F 805      14.577  -3.741  32.663  1.00 40.65 LIG 0.24  C 
ATOM     16 O    TYR F 805      15.749  -3.830  32.290  1.00 41.05 LIG-0.27  OA
ATOM     17  N   GLY F 806      13.949  -2.560  32.768  1.00 41.21 LIG-0.35  N 
ATOM     18 H    GLY F 806      14.357  -1.810  32.667  1.00 41.21 LIG 0.16  HD
BRANCH 17 19
ATOM     19  CA  GLY F 806      12.509  -2.401  33.064  1.00 41.66 LIG 0.21  C 
BRANCH 19 20
ATOM     20  C   GLY F 806      11.662  -1.824  31.937  1.00 41.93 LIG 0.21  C 
ATOM     21 O    GLY F 806      11.822  -2.181  30.760  1.00 42.62 LIG-0.29  OA
ENDBRANCH 19 20
ENDBRANCH 17 19
ENDBRANCH 5 15
ENDBRANCH 3 5
BRANCH 1 22
ATOM     22  CA  LEU F 804      14.787  -8.703  32.627  1.00 43.64 LIG 0.18  C 
BRANCH 22 23
ATOM     23  N   LEU F 804      14.229  -9.957  33.133  1.00 45.07 LIG-0.35  N 
ATOM     24  C   ASP F 803      14.155 -10.224  34.433  1.00 46.18 LIG 0.26  C 
ATOM     25 O    ASP F 803      14.472  -9.404  35.304  1.00 46.48 LIG-0.27  OA
ATOM     26 H    LEU F 804      13.958 -10.495  32.520  1.00 45.07 LIG 0.16  HD
BRANCH 24 27
ATOM     27  CA  ASP F 803      13.638 -11.624  34.811  1.00 46.88 LIG 0.41  C 
ATOM     28  N   ASP F 803      14.093 -12.675  33.858  1.00 47.04 LIG 0.61  N 
BRANCH 27 29
ATOM     29  CB  ASP F 803      14.079 -11.989  36.232  1.00 47.42 LIG 0.16  C 
BRANCH 29 30
ATOM     30  CG  ASP F 803      15.596 -12.125  36.366  1.00 48.96 LIG 0.17  C 
ATOM     31 OD1  ASP F 803      16.101 -11.928  37.496  1.00 50.04 LIG-0.65  OA
ATOM     32 OD2  ASP F 803      16.283 -12.422  35.356  1.00 49.91 LIG-0.65  OA
ENDBRANCH 29 30
ENDBRANCH 27 29
ENDBRANCH 24 27
ENDBRANCH 22 23
BRANCH 22 33
ATOM     33  CB  LEU F 804      15.221  -8.884  31.166  1.00 43.69 LIG 0.04  C 
BRANCH 33 34
ATOM     34  CG  LEU F 804      14.723 -10.062  30.310  1.00 43.67 LIG-0.02  C 
ATOM     35  CD2 LEU F 804      15.775 -10.432  29.284  1.00 43.56 LIG 0.01  C 
ATOM     36  CD1 LEU F 804      13.370  -9.817  29.645  1.00 44.06 LIG 0.01  C 
ENDBRANCH 33 34
ENDBRANCH 22 33
ENDBRANCH 1 22
TORSDOF 14
ENDMDL
MODEL 6
USER: ADFR SOLUTION from run 181
USER: SCORE 11.050759 LL:  -2.742 LR: -10.055 RR:   0.000 FEB:  -5.879
USER: RMSD 8.091600
USER: SEED 180
USER: STATUS no improvement in best in 16 clusters for 5 generations
USER: GENES 16
USER: genes 0 Translation |==|  0.42495 0.45513 0.23098
USER: genes 1 Rotation |==|  0.87864 0.76728 0.66516 0.58898
USER: genes 2 Torsion [C]-N--CA-[CB] |==|  0.08297
USER: genes 3 Torsion [N]-CA--CB-[CG] |==|  0.65187
USER: genes 4 Torsion [CA]-CB--CG-[CD2] |==|  0.99282
USER: genes 5 Torsion [CE2]-CZ--OH-[HH] |==|  0.20299
USER: genes 6 Torsion [N]-CA--C-[N] |==|  0.85124
USER: genes 7 Torsion [C]-N--CA-[C] |==|  0.31751
USER: genes 8 Torsion [N]-CA--C-[O] |==|  0.77330
USER: genes 9 Torsion [N]-C--CA-[N] |==|  0.45000
USER: genes 10 Torsion [C]-CA--N-[C] |==|  0.79456
USER: genes 11 Torsion [N]-C--CA-[N] |==|  0.62643
USER: genes 12 Torsion [C]-CA--CB-[CG] |==|  0.50680
USER: genes 13 Torsion [CA]-CB--CG-[OD1] |==|  0.63345
USER: genes 14 Torsion [C]-CA--CB-[CG] |==|  0.49490
USER: genes 15 Torsion [CA]-CB--CG-[CD2] |==|  0.90764
ROOT
ATOM      1  C   LEU F 804      10.720 -12.465  27.793  1.00 42.60 LIG 0.24  C 
ATOM      2 O    LEU F 804      11.268 -11.358  27.840  1.00 42.72 LIG-0.27  OA
ATOM      3  N   TYR F 805      11.317 -13.589  28.195  1.00 41.09 LIG-0.35  N 
ATOM      4 H    TYR F 805      11.028 -14.376  28.004  1.00 41.09 LIG 0.16  HD
ENDROOT
BRANCH 3 5
ATOM      5  CA  TYR F 805      12.543 -13.582  29.016  1.00 40.08 LIG 0.18  C 
BRANCH 5 6
ATOM      6  CB  TYR F 805      12.566 -12.325  29.895  1.00 38.23 LIG 0.07  C 
BRANCH 6 7
ATOM      7  CG  TYR F 805      13.824 -11.509  29.726  1.00 36.43 LIG-0.06  A 
ATOM      8  CD2 TYR F 805      14.844 -11.942  28.885  1.00 35.39 LIG 0.01  A 
ATOM      9  CE2 TYR F 805      16.019 -11.205  28.735  1.00 33.62 LIG 0.04  A 
ATOM     10  CZ  TYR F 805      16.175 -10.020  29.427  1.00 33.40 LIG 0.07  A 
ATOM     11  CE1 TYR F 805      15.171  -9.560  30.272  1.00 31.77 LIG 0.04  A 
ATOM     12  CD1 TYR F 805      14.002 -10.306  30.419  1.00 33.46 LIG 0.01  A 
BRANCH 10 13
ATOM     13 OH   TYR F 805      17.336  -9.298  29.260  1.00 32.97 LIG-0.36  OA
ATOM     14 HH   TYR F 805      17.333  -8.933  28.504  1.00 32.97 LIG 0.22  HD
ENDBRANCH 10 13
ENDBRANCH 6 7
ENDBRANCH 5 6
BRANCH 5 15
ATOM     15  C   TYR F 805      12.723 -14.835  29.894  1.00 40.65 LIG 0.24  C 
ATOM     16 O    TYR F 805      13.776 -15.476  29.835  1.00 41.05 LIG-0.27  OA
ATOM     17  N   GLY F 806      11.720 -15.186  30.713  1.00 41.21 LIG-0.35  N 
ATOM     18 H    GLY F 806      11.727 -15.917  31.165  1.00 41.21 LIG 0.16  HD
BRANCH 17 19
ATOM     19  CA  GLY F 806      10.501 -14.378  30.936  1.00 41.66 LIG 0.21  C 
BRANCH 19 20
ATOM     20  C   GLY F 806       9.198 -14.998  30.450  1.00 41.93 LIG 0.21  C 
ATOM     21 O    GLY F 806       8.854 -14.929  29.260  1.00 42.62 LIG-0.29  OA
ENDBRANCH 19 20
ENDBRANCH 17 19
ENDBRANCH 5 15
ENDBRANCH 3 5
BRANCH 1 22
ATOM     22  CA  LEU F 804       9.286 -12.587  27.247  1.00 43.64 LIG 0.18  C 
BRANCH 22 23
ATOM     23  N   LEU F 804       8.517 -11.342  27.201  1.00 45.07 LIG-0.35  N 
ATOM     24  C   ASP F 803       8.025 -10.775  28.297  1.00 46.18 LIG 0.26  C 
ATOM     25 O    ASP F 803       8.250 -11.209  29.435  1.00 46.48 LIG-0.27  OA
ATOM     26 H    LEU F 804       8.417 -11.019  26.411  1.00 45.07 LIG 0.16  HD
BRANCH 24 27
ATOM     27  CA  ASP F 803       7.153  -9.525  28.083  1.00 46.88 LIG 0.41  C 
ATOM     28  N   ASP F 803       7.500  -8.421  29.022  1.00 47.04 LIG 0.61  N 
BRANCH 27 29
ATOM     29  CB  ASP F 803       7.275  -9.031  26.638  1.00 47.42 LIG 0.16  C 
BRANCH 29 30
ATOM     30  CG  ASP F 803       6.475  -7.753  26.378  1.00 48.96 LIG 0.17  C 
ATOM     31 OD1  ASP F 803       5.742  -7.722  25.362  1.00 50.04 LIG-0.65  OA
ATOM     32 OD2  ASP F 803       6.577  -6.786  27.174  1.00 49.91 LIG-0.65  OA
ENDBRANCH 29 30
ENDBRANCH 27 29
ENDBRANCH 24 27
ENDBRANCH 22 23
BRANCH 22 33
ATOM     33  CB  LEU F 804       9.300 -13.236  25.857  1.00 43.69 LIG 0.04  C 
BRANCH 33 34
ATOM     34  CG  LEU F 804       8.002 -13.525  25.082  1.00 43.67 LIG-0.02  C 
ATOM     35  CD2 LEU F 804       6.891 -13.873  26.052  1.00 43.56 LIG 0.01  C 
ATOM     36  CD1 LEU F 804       8.148 -14.599  24.006  1.00 44.06 LIG 0.01  C 
ENDBRANCH 33 34
ENDBRANCH 22 33
ENDBRANCH 1 22
TORSDOF 14
ENDMDL
MODEL 7
USER: ADFR SOLUTION from run 1
USER: SCORE 12.683247 LL:  -2.974 LR: -10.057 RR:   0.000 FEB:  -5.881
USER: RMSD 5.864761
USER: SEED 651346
USER: STATUS no improvement in best in 13 clusters for 5 generations
USER: GENES 16
USER: genes 0 Translation |==|  0.58290 0.59648 0.40453
USER: genes 1 Rotation |==|  0.48775 0.10373 0.19563 0.51327
USER: genes 2 Torsion [C]-N--CA-[CB] |==|  0.76402
USER: genes 3 Torsion [N]-CA--CB-[CG] |==|  0.72797
USER: genes 4 Torsion [CA]-CB--CG-[CD2] |==|  0.39972
USER: genes 5 Torsion [CE2]-CZ--OH-[HH] |==|  0.54530
USER: genes 6 Torsion [N]-CA--C-[N] |==|  0.17949
USER: genes 7 Torsion [C]-N--CA-[C] |==|  0.22226
USER: genes 8 Torsion [N]-CA--C-[O] |==|  0.88458
USER: genes 9 Torsion [N]-C--CA-[N] |==|  0.46111
USER: genes 10 Torsion [C]-CA--N-[C] |==|  0.81489
USER: genes 11 Torsion [N]-C--CA-[N] |==|  0.26255
USER: genes 12 Torsion [C]-CA--CB-[CG] |==|  0.68260
USER: genes 13 Torsion [CA]-CB--CG-[OD1] |==|  0.64975
USER: genes 14 Torsion [C]-CA--CB-[CG] |==|  0.35651
USER: genes 15 Torsion [CA]-CB--CG-[CD2] |==|  0.09413
ROOT
ATOM      1  C   LEU F 804      13.090  -9.602  30.917  1.00 42.60 LIG 0.24  C 
ATOM      2 O    LEU F 804      11.931  -9.172  30.891  1.00 42.72 LIG-0.27  OA
ATOM      3  N   TYR F 805      13.955  -9.303  31.887  1.00 41.09 LIG-0.35  N 
ATOM      4 H    TYR F 805      14.803  -9.440  31.828  1.00 41.09 LIG 0.16  HD
ENDROOT
BRANCH 3 5
ATOM      5  CA  TYR F 805      13.532  -8.701  33.166  1.00 40.08 LIG 0.18  C 
BRANCH 5 6
ATOM      6  CB  TYR F 805      13.438  -7.178  33.011  1.00 38.23 LIG 0.07  C 
BRANCH 6 7
ATOM      7  CG  TYR F 805      14.663  -6.456  33.514  1.00 36.43 LIG-0.06  A 
ATOM      8  CD2 TYR F 805      15.132  -5.317  32.868  1.00 35.39 LIG 0.01  A 
ATOM      9  CE2 TYR F 805      16.275  -4.651  33.313  1.00 33.62 LIG 0.04  A 
ATOM     10  CZ  TYR F 805      16.953  -5.124  34.418  1.00 33.40 LIG 0.07  A 
ATOM     11  CE1 TYR F 805      16.506  -6.258  35.088  1.00 31.77 LIG 0.04  A 
ATOM     12  CD1 TYR F 805      15.366  -6.919  34.633  1.00 33.46 LIG 0.01  A 
BRANCH 10 13
ATOM     13 OH   TYR F 805      18.073  -4.450  34.852  1.00 32.97 LIG-0.36  OA
ATOM     14 HH   TYR F 805      18.513  -4.943  35.372  1.00 32.97 LIG 0.22  HD
ENDBRANCH 10 13
ENDBRANCH 6 7
ENDBRANCH 5 6
BRANCH 5 15
ATOM     15  C   TYR F 805      12.203  -9.252  33.716  1.00 40.65 LIG 0.24  C 
ATOM     16 O    TYR F 805      11.223  -8.509  33.805  1.00 41.05 LIG-0.27  OA
ATOM     17  N   GLY F 806      12.152 -10.544  34.074  1.00 41.21 LIG-0.35  N 
ATOM     18 H    GLY F 806      11.467 -10.889  34.463  1.00 41.21 LIG 0.16  HD
BRANCH 17 19
ATOM     19  CA  GLY F 806      13.244 -11.518  33.853  1.00 41.66 LIG 0.21  C 
BRANCH 19 20
ATOM     20  C   GLY F 806      14.387 -11.470  34.856  1.00 41.93 LIG 0.21  C 
ATOM     21 O    GLY F 806      14.846 -10.391  35.262  1.00 42.62 LIG-0.29  OA
ENDBRANCH 19 20
ENDBRANCH 17 19
ENDBRANCH 5 15
ENDBRANCH 3 5
BRANCH 1 22
ATOM     22  CA  LEU F 804      13.588 -10.526  29.790  1.00 43.64 LIG 0.18  C 
BRANCH 22 23
ATOM     23  N   LEU F 804      12.550 -11.090  28.927  1.00 45.07 LIG-0.35  N 
ATOM     24  C   ASP F 803      11.652 -11.961  29.377  1.00 46.18 LIG 0.26  C 
ATOM     25 O    ASP F 803      11.579 -12.292  30.567  1.00 46.48 LIG-0.27  OA
ATOM     26 H    LEU F 804      12.575 -10.807  28.116  1.00 45.07 LIG 0.16  HD
BRANCH 24 27
ATOM     27  CA  ASP F 803      10.686 -12.543  28.330  1.00 46.88 LIG 0.41  C 
ATOM     28  N   ASP F 803      11.159 -13.845  27.780  1.00 47.04 LIG 0.61  N 
BRANCH 27 29
ATOM     29  CB  ASP F 803       9.288 -12.714  28.931  1.00 47.42 LIG 0.16  C 
BRANCH 29 30
ATOM     30  CG  ASP F 803       8.862 -14.180  29.036  1.00 48.96 LIG 0.17  C 
ATOM     31 OD1  ASP F 803       7.771 -14.507  28.514  1.00 50.04 LIG-0.65  OA
ATOM     32 OD2  ASP F 803       9.604 -14.999  29.635  1.00 49.91 LIG-0.65  OA
ENDBRANCH 29 30
ENDBRANCH 27 29
ENDBRANCH 24 27
ENDBRANCH 22 23
BRANCH 22 33
ATOM     33  CB  LEU F 804      14.635  -9.802  28.934  1.00 43.69 LIG 0.04  C 
BRANCH 33 34
ATOM     34  CG  LEU F 804      16.008 -10.426  28.629  1.00 43.67 LIG-0.02  C 
ATOM     35  CD2 LEU F 804      15.873 -11.931  28.507  1.00 43.56 LIG 0.01  C 
ATOM     36  CD1 LEU F 804      17.096 -10.054  29.635  1.00 44.06 LIG 0.01  C 
ENDBRANCH 33 34
ENDBRANCH 22 33
ENDBRANCH 1 22
TORSDOF 14
ENDMDL
MODEL 8
USER: ADFR SOLUTION from run 130
USER: SCORE 11.188998 LL:  -2.689 LR: -10.063 RR:   0.000 FEB:  -5.887
USER: RMSD 7.570301
USER: SEED 129
USER: STATUS no improvement in best in 11 clusters for 5 generations
USER: GENES 16
USER: genes 0 Translation |==|  0.60377 0.44311 0.36896
USER: genes 1 Rotation |==|  0.93133 0.52651 0.31316 0.66836
USER: genes 2 Torsion [C]-N--CA-[CB] |==|  0.50967
USER: genes 3 Torsion [N]-CA--CB-[CG] |==|  0.58587
USER: genes 4 Torsion [CA]-CB--CG-[CD2] |==|  0.62507
USER: genes 5 Torsion [CE2]-CZ--OH-[HH] |==|  0.54859
USER: genes 6 Torsion [N]-CA--C-[N] |==|  0.85807
USER: genes 7 Torsion [C]-N--CA-[C] |==|  0.33558
USER: genes 8 Torsion [N]-CA--C-[O] |==|  0.34349
USER: genes 9 Torsion [N]-C--CA-[N] |==|  0.09555
USER: genes 10 Torsion [C]-CA--N-[C] |==|  0.63334
USER: genes 11 Torsion [N]-C--CA-[N] |==|  0.74485
USER: genes 12 Torsion [C]-CA--CB-[CG] |==|  0.68188
USER: genes 13 Torsion [CA]-CB--CG-[OD1] |==|  0.75347
USER: genes 14 Torsion [C]-CA--CB-[CG] |==|  0.81277
USER: genes 15 Torsion [CA]-CB--CG-[CD2] |==|  0.26759
ROOT
ATOM      1  C   LEU F 804      13.403 -12.708  30.276  1.00 42.60 LIG 0.24  C 
ATOM      2 O    LEU F 804      13.965 -13.167  29.276  1.00 42.72 LIG-0.27  OA
ATOM      3  N   TYR F 805      13.187 -13.423  31.382  1.00 41.09 LIG-0.35  N 
ATOM      4 H    TYR F 805      12.646 -13.183  32.006  1.00 41.09 LIG 0.16  HD
ENDROOT
BRANCH 3 5
ATOM      5  CA  TYR F 805      13.867 -14.708  31.637  1.00 40.08 LIG 0.18  C 
BRANCH 5 6
ATOM      6  CB  TYR F 805      13.341 -15.317  32.944  1.00 38.23 LIG 0.07  C 
BRANCH 6 7
ATOM      7  CG  TYR F 805      14.375 -16.142  33.669  1.00 36.43 LIG-0.06  A 
ATOM      8  CD2 TYR F 805      14.048 -17.387  34.197  1.00 35.39 LIG 0.01  A 
ATOM      9  CE2 TYR F 805      14.991 -18.151  34.885  1.00 33.62 LIG 0.04  A 
ATOM     10  CZ  TYR F 805      16.276 -17.669  35.043  1.00 33.40 LIG 0.07  A 
ATOM     11  CE1 TYR F 805      16.633 -16.430  34.523  1.00 31.77 LIG 0.04  A 
ATOM     12  CD1 TYR F 805      15.682 -15.672  33.840  1.00 33.46 LIG 0.01  A 
BRANCH 10 13
ATOM     13 OH   TYR F 805      17.199 -18.440  35.716  1.00 32.97 LIG-0.36  OA
ATOM     14 HH   TYR F 805      17.846 -17.959  35.952  1.00 32.97 LIG 0.22  HD
ENDBRANCH 10 13
ENDBRANCH 6 7
ENDBRANCH 5 6
BRANCH 5 15
ATOM     15  C   TYR F 805      13.735 -15.732  30.495  1.00 40.65 LIG 0.24  C 
ATOM     16 O    TYR F 805      14.743 -16.288  30.053  1.00 41.05 LIG-0.27  OA
ATOM     17  N   GLY F 806      12.508 -15.998  30.020  1.00 41.21 LIG-0.35  N 
ATOM     18 H    GLY F 806      12.377 -16.496  29.331  1.00 41.21 LIG 0.16  HD
BRANCH 17 19
ATOM     19  CA  GLY F 806      11.253 -15.479  30.606  1.00 41.66 LIG 0.21  C 
BRANCH 19 20
ATOM     20  C   GLY F 806      10.388 -14.638  29.677  1.00 41.93 LIG 0.21  C 
ATOM     21 O    GLY F 806       9.205 -14.935  29.449  1.00 42.62 LIG-0.29  OA
ENDBRANCH 19 20
ENDBRANCH 17 19
ENDBRANCH 5 15
ENDBRANCH 3 5
BRANCH 1 22
ATOM     22  CA  LEU F 804      12.914 -11.248  30.277  1.00 43.64 LIG 0.18  C 
BRANCH 22 23
ATOM     23  N   LEU F 804      12.996 -10.553  31.562  1.00 45.07 LIG-0.35  N 
ATOM     24  C   ASP F 803      11.979  -9.856  32.055  1.00 46.18 LIG 0.26  C 
ATOM     25 O    ASP F 803      10.869  -9.813  31.509  1.00 46.48 LIG-0.27  OA
ATOM     26 H    LEU F 804      13.754 -10.638  31.960  1.00 45.07 LIG 0.16  HD
BRANCH 24 27
ATOM     27  CA  ASP F 803      12.247  -9.097  33.367  1.00 46.88 LIG 0.41  C 
ATOM     28  N   ASP F 803      11.899  -9.902  34.572  1.00 47.04 LIG 0.61  N 
BRANCH 27 29
ATOM     29  CB  ASP F 803      13.714  -8.663  33.442  1.00 47.42 LIG 0.16  C 
BRANCH 29 30
ATOM     30  CG  ASP F 803      14.480  -9.354  34.572  1.00 48.96 LIG 0.17  C 
ATOM     31 OD1  ASP F 803      14.472  -8.807  35.700  1.00 50.04 LIG-0.65  OA
ATOM     32 OD2  ASP F 803      15.087 -10.430  34.341  1.00 49.91 LIG-0.65  OA
ENDBRANCH 29 30
ENDBRANCH 27 29
ENDBRANCH 24 27
ENDBRANCH 22 23
BRANCH 22 33
ATOM     33  CB  LEU F 804      13.655 -10.440  29.204  1.00 43.69 LIG 0.04  C 
BRANCH 33 34
ATOM     34  CG  LEU F 804      15.161 -10.137  29.311  1.00 43.67 LIG-0.02  C 
ATOM     35  CD2 LEU F 804      15.947 -11.154  28.509  1.00 43.56 LIG 0.01  C 
ATOM     36  CD1 LEU F 804      15.676 -10.051  30.746  1.00 44.06 LIG 0.01  C 
ENDBRANCH 33 34
ENDBRANCH 22 33
ENDBRANCH 1 22
TORSDOF 14
ENDMDL
MODEL 9
USER: ADFR SOLUTION from run 80
USER: SCORE 12.039571 LL:  -2.484 LR: -10.033 RR:   0.000 FEB:  -5.856
USER: RMSD 6.750348
USER: SEED 79
USER: STATUS no improvement in best in 19 clusters for 5 generations
USER: GENES 16
USER: genes 0 Translation |==|  0.61540 0.62991 0.44179
USER: genes 1 Rotation |==|  0.08467 0.44544 0.77102 0.53266
USER: genes 2 Torsion [C]-N--CA-[CB] |==|  0.58067
USER: genes 3 Torsion [N]-CA--CB-[CG] |==|  0.53706
USER: genes 4 Torsion [CA]-CB--CG-[CD2] |==|  0.23279
USER: genes 5 Torsion [CE2]-CZ--OH-[HH] |==|  0.87555
USER: genes 6 Torsion [N]-CA--C-[N] |==|  0.29783
USER: genes 7 Torsion [C]-N--CA-[C] |==|  0.70724
USER: genes 8 Torsion [N]-CA--C-[O] |==|  0.20563
USER: genes 9 Torsion [N]-C--CA-[N] |==|  0.96082
USER: genes 10 Torsion [C]-CA--N-[C] |==|  0.82754
USER: genes 11 Torsion [N]-C--CA-[N] |==|  0.47301
USER: genes 12 Torsion [C]-CA--CB-[CG] |==|  0.18901
USER: genes 13 Torsion [CA]-CB--CG-[OD1] |==|  0.25661
USER: genes 14 Torsion [C]-CA--CB-[CG] |==|  0.41933
USER: genes 15 Torsion [CA]-CB--CG-[CD2] |==|  0.34050
ROOT
ATOM      1  C   LEU F 804      13.577  -8.925  31.587  1.00 42.60 LIG 0.24  C 
ATOM      2 O    LEU F 804      13.627  -8.642  30.385  1.00 42.72 LIG-0.27  OA
ATOM      3  N   TYR F 805      13.361 -10.165  32.034  1.00 41.09 LIG-0.35  N 
ATOM      4 H    TYR F 805      13.145 -10.347  32.846  1.00 41.09 LIG 0.16  HD
ENDROOT
BRANCH 3 5
ATOM      5  CA  TYR F 805      13.477 -11.350  31.163  1.00 40.08 LIG 0.18  C 
BRANCH 5 6
ATOM      6  CB  TYR F 805      12.534 -12.451  31.665  1.00 38.23 LIG 0.07  C 
BRANCH 6 7
ATOM      7  CG  TYR F 805      12.813 -13.797  31.042  1.00 36.43 LIG-0.06  A 
ATOM      8  CD2 TYR F 805      13.800 -14.629  31.559  1.00 35.39 LIG 0.01  A 
ATOM      9  CE2 TYR F 805      14.079 -15.867  30.981  1.00 33.62 LIG 0.04  A 
ATOM     10  CZ  TYR F 805      13.360 -16.282  29.877  1.00 33.40 LIG 0.07  A 
ATOM     11  CE1 TYR F 805      12.363 -15.474  29.340  1.00 31.77 LIG 0.04  A 
ATOM     12  CD1 TYR F 805      12.096 -14.236  29.923  1.00 33.46 LIG 0.01  A 
BRANCH 10 13
ATOM     13 OH   TYR F 805      13.639 -17.512  29.323  1.00 32.97 LIG-0.36  OA
ATOM     14 HH   TYR F 805      14.471 -17.610  29.263  1.00 32.97 LIG 0.22  HD
ENDBRANCH 10 13
ENDBRANCH 6 7
ENDBRANCH 5 6
BRANCH 5 15
ATOM     15  C   TYR F 805      13.205 -11.070  29.673  1.00 40.65 LIG 0.24  C 
ATOM     16 O    TYR F 805      12.053 -10.847  29.294  1.00 41.05 LIG-0.27  OA
ATOM     17  N   GLY F 806      14.247 -11.069  28.827  1.00 41.21 LIG-0.35  N 
ATOM     18 H    GLY F 806      14.150 -11.001  27.976  1.00 41.21 LIG 0.16  HD
BRANCH 17 19
ATOM     19  CA  GLY F 806      15.662 -11.181  29.243  1.00 41.66 LIG 0.21  C 
BRANCH 19 20
ATOM     20  C   GLY F 806      16.475  -9.895  29.176  1.00 41.93 LIG 0.21  C 
ATOM     21 O    GLY F 806      16.321  -8.989  30.010  1.00 42.62 LIG-0.29  OA
ENDBRANCH 19 20
ENDBRANCH 17 19
ENDBRANCH 5 15
ENDBRANCH 3 5
BRANCH 1 22
ATOM     22  CA  LEU F 804      13.765  -7.820  32.643  1.00 43.64 LIG 0.18  C 
BRANCH 22 23
ATOM     23  N   LEU F 804      13.373  -8.175  34.007  1.00 45.07 LIG-0.35  N 
ATOM     24  C   ASP F 803      12.124  -8.499  34.323  1.00 46.18 LIG 0.26  C 
ATOM     25 O    ASP F 803      11.226  -8.605  33.477  1.00 46.48 LIG-0.27  OA
ATOM     26 H    LEU F 804      14.018  -8.153  34.575  1.00 45.07 LIG 0.16  HD
BRANCH 24 27
ATOM     27  CA  ASP F 803      11.842  -8.748  35.815  1.00 46.88 LIG 0.41  C 
ATOM     28  N   ASP F 803      10.387  -8.876  36.106  1.00 47.04 LIG 0.61  N 
BRANCH 27 29
ATOM     29  CB  ASP F 803      12.576 -10.005  36.294  1.00 47.42 LIG 0.16  C 
BRANCH 29 30
ATOM     30  CG  ASP F 803      14.096  -9.833  36.313  1.00 48.96 LIG 0.17  C 
ATOM     31 OD1  ASP F 803      14.624  -9.445  37.381  1.00 50.04 LIG-0.65  OA
ATOM     32 OD2  ASP F 803      14.760 -10.078  35.274  1.00 49.91 LIG-0.65  OA
ENDBRANCH 29 30
ENDBRANCH 27 29
ENDBRANCH 24 27
ENDBRANCH 22 23
BRANCH 22 33
ATOM     33  CB  LEU F 804      15.215  -7.320  32.635  1.00 43.69 LIG 0.04  C 
BRANCH 33 34
ATOM     34  CG  LEU F 804      15.580  -5.879  33.036  1.00 43.67 LIG-0.02  C 
ATOM     35  CD2 LEU F 804      16.571  -5.901  34.183  1.00 43.56 LIG 0.01  C 
ATOM     36  CD1 LEU F 804      14.374  -5.004  33.369  1.00 44.06 LIG 0.01  C 
ENDBRANCH 33 34
ENDBRANCH 22 33
ENDBRANCH 1 22
TORSDOF 14
ENDMDL
MODEL 10
USER: ADFR SOLUTION from run 20
USER: SCORE 11.068130 LL:  -2.980 LR: -10.027 RR:   0.000 FEB:  -5.851
USER: RMSD 4.142478
USER: SEED 19
USER: STATUS no improvement in best in 12 clusters for 5 generations
USER: GENES 16
USER: genes 0 Translation |==|  0.66754 0.51447 0.58300
USER: genes 1 Rotation |==|  0.45312 0.30127 0.53295 0.95522
USER: genes 2 Torsion [C]-N--CA-[CB] |==|  0.41941
USER: genes 3 Torsion [N]-CA--CB-[CG] |==|  0.92056
USER: genes 4 Torsion [CA]-CB--CG-[CD2] |==|  0.82338
USER: genes 5 Torsion [CE2]-CZ--OH-[HH] |==|  0.45055
USER: genes 6 Torsion [N]-CA--C-[N] |==|  0.85573
USER: genes 7 Torsion [C]-N--CA-[C] |==|  0.52876
USER: genes 8 Torsion [N]-CA--C-[O] |==|  0.05265
USER: genes 9 Torsion [N]-C--CA-[N] |==|  0.54946
USER: genes 10 Torsion [C]-CA--N-[C] |==|  0.53494
USER: genes 11 Torsion [N]-C--CA-[N] |==|  0.12173
USER: genes 12 Torsion [C]-CA--CB-[CG] |==|  0.32522
USER: genes 13 Torsion [CA]-CB--CG-[OD1] |==|  0.05641
USER: genes 14 Torsion [C]-CA--CB-[CG] |==|  0.23644
USER: genes 15 Torsion [CA]-CB--CG-[CD2] |==|  0.61584
ROOT
ATOM      1  C   LEU F 804      14.359 -11.263  34.129  1.00 42.60 LIG 0.24  C 
ATOM      2 O    LEU F 804      14.818 -10.982  35.242  1.00 42.72 LIG-0.27  OA
ATOM      3  N   TYR F 805      13.754 -10.368  33.345  1.00 41.09 LIG-0.35  N 
ATOM      4 H    TYR F 805      13.276 -10.579  32.662  1.00 41.09 LIG 0.16  HD
ENDROOT
BRANCH 3 5
ATOM      5  CA  TYR F 805      13.853  -8.915  33.582  1.00 40.08 LIG 0.18  C 
BRANCH 5 6
ATOM      6  CB  TYR F 805      13.725  -8.167  32.249  1.00 38.23 LIG 0.07  C 
BRANCH 6 7
ATOM      7  CG  TYR F 805      14.211  -8.973  31.070  1.00 36.43 LIG-0.06  A 
ATOM      8  CD2 TYR F 805      15.545  -9.353  30.971  1.00 35.39 LIG 0.01  A 
ATOM      9  CE2 TYR F 805      16.010 -10.083  29.876  1.00 33.62 LIG 0.04  A 
ATOM     10  CZ  TYR F 805      15.132 -10.442  28.873  1.00 33.40 LIG 0.07  A 
ATOM     11  CE1 TYR F 805      13.791 -10.080  28.946  1.00 31.77 LIG 0.04  A 
ATOM     12  CD1 TYR F 805      13.337  -9.346  30.042  1.00 33.46 LIG 0.01  A 
BRANCH 10 13
ATOM     13 OH   TYR F 805      15.603 -11.172  27.803  1.00 32.97 LIG-0.36  OA
ATOM     14 HH   TYR F 805      14.957 -11.529  27.401  1.00 32.97 LIG 0.22  HD
ENDBRANCH 10 13
ENDBRANCH 6 7
ENDBRANCH 5 6
BRANCH 5 15
ATOM     15  C   TYR F 805      12.824  -8.366  34.589  1.00 40.65 LIG 0.24  C 
ATOM     16 O    TYR F 805      13.205  -7.672  35.535  1.00 41.05 LIG-0.27  OA
ATOM     17  N   GLY F 806      11.529  -8.656  34.393  1.00 41.21 LIG-0.35  N 
ATOM     18 H    GLY F 806      10.918  -8.449  34.962  1.00 41.21 LIG 0.16  HD
BRANCH 17 19
ATOM     19  CA  GLY F 806      10.998  -9.353  33.202  1.00 41.66 LIG 0.21  C 
BRANCH 19 20
ATOM     20  C   GLY F 806       9.482  -9.365  33.064  1.00 41.93 LIG 0.21  C 
ATOM     21 O    GLY F 806       8.770  -8.556  33.679  1.00 42.62 LIG-0.29  OA
ENDBRANCH 19 20
ENDBRANCH 17 19
ENDBRANCH 5 15
ENDBRANCH 3 5
BRANCH 1 22
ATOM     22  CA  LEU F 804      14.471 -12.703  33.595  1.00 43.64 LIG 0.18  C 
BRANCH 22 23
ATOM     23  N   LEU F 804      14.756 -13.730  34.597  1.00 45.07 LIG-0.35  N 
ATOM     24  C   ASP F 803      15.120 -14.963  34.263  1.00 46.18 LIG 0.26  C 
ATOM     25 O    ASP F 803      15.325 -15.306  33.091  1.00 46.48 LIG-0.27  OA
ATOM     26 H    LEU F 804      14.667 -13.463  35.410  1.00 45.07 LIG 0.16  HD
BRANCH 24 27
ATOM     27  CA  ASP F 803      15.287 -15.961  35.422  1.00 46.88 LIG 0.41  C 
ATOM     28  N   ASP F 803      14.182 -15.868  36.417  1.00 47.04 LIG 0.61  N 
BRANCH 27 29
ATOM     29  CB  ASP F 803      15.379 -17.393  34.885  1.00 47.42 LIG 0.16  C 
BRANCH 29 30
ATOM     30  CG  ASP F 803      16.722 -18.057  35.193  1.00 48.96 LIG 0.17  C 
ATOM     31 OD1  ASP F 803      17.408 -17.577  36.126  1.00 50.04 LIG-0.65  OA
ATOM     32 OD2  ASP F 803      17.096 -19.044  34.511  1.00 49.91 LIG-0.65  OA
ENDBRANCH 29 30
ENDBRANCH 27 29
ENDBRANCH 24 27
ENDBRANCH 22 23
BRANCH 22 33
ATOM     33  CB  LEU F 804      13.205 -13.080  32.815  1.00 43.69 LIG 0.04  C 
BRANCH 33 34
ATOM     34  CG  LEU F 804      13.035 -12.729  31.325  1.00 43.67 LIG-0.02  C 
ATOM     35  CD2 LEU F 804      11.622 -12.242  31.071  1.00 43.56 LIG 0.01  C 
ATOM     36  CD1 LEU F 804      13.402 -13.867  30.375  1.00 44.06 LIG 0.01  C 
ENDBRANCH 33 34
ENDBRANCH 22 33
ENDBRANCH 1 22
TORSDOF 14
ENDMDL
MODEL 11
USER: ADFR SOLUTION from run 85
USER: SCORE 11.054034 LL:  -2.878 LR: -10.019 RR:   0.000 FEB:  -5.843
USER: RMSD 8.248683
USER: SEED 84
USER: STATUS no improvement in best in 19 clusters for 5 generations
USER: GENES 16
USER: genes 0 Translation |==|  0.45288 0.39120 0.25874
USER: genes 1 Rotation |==|  0.66297 0.11649 0.75213 0.61309
USER: genes 2 Torsion [C]-N--CA-[CB] |==|  0.34022
USER: genes 3 Torsion [N]-CA--CB-[CG] |==|  0.78428
USER: genes 4 Torsion [CA]-CB--CG-[CD2] |==|  0.59305
USER: genes 5 Torsion [CE2]-CZ--OH-[HH] |==|  0.69724
USER: genes 6 Torsion [N]-CA--C-[N] |==|  0.48494
USER: genes 7 Torsion [C]-N--CA-[C] |==|  0.66926
USER: genes 8 Torsion [N]-CA--C-[O] |==|  0.00687
USER: genes 9 Torsion [N]-C--CA-[N] |==|  0.33260
USER: genes 10 Torsion [C]-CA--N-[C] |==|  0.73153
USER: genes 11 Torsion [N]-C--CA-[N] |==|  0.94901
USER: genes 12 Torsion [C]-CA--CB-[CG] |==|  0.65074
USER: genes 13 Torsion [CA]-CB--CG-[OD1] |==|  0.64898
USER: genes 14 Torsion [C]-CA--CB-[CG] |==|  0.77126
USER: genes 15 Torsion [CA]-CB--CG-[CD2] |==|  0.74807
ROOT
ATOM      1  C   LEU F 804      11.139 -13.759  28.292  1.00 42.60 LIG 0.24  C 
ATOM      2 O    LEU F 804      10.336 -14.475  28.901  1.00 42.72 LIG-0.27  OA
ATOM      3  N   TYR F 805      10.899 -13.271  27.074  1.00 41.09 LIG-0.35  N 
ATOM      4 H    TYR F 805      11.507 -12.931  26.569  1.00 41.09 LIG 0.16  HD
ENDROOT
BRANCH 3 5
ATOM      5  CA  TYR F 805       9.552 -13.270  26.474  1.00 40.08 LIG 0.18  C 
BRANCH 5 6
ATOM      6  CB  TYR F 805       9.153 -11.834  26.108  1.00 38.23 LIG 0.07  C 
BRANCH 6 7
ATOM      7  CG  TYR F 805       8.712 -11.021  27.300  1.00 36.43 LIG-0.06  A 
ATOM      8  CD2 TYR F 805       7.724 -10.050  27.173  1.00 35.39 LIG 0.01  A 
ATOM      9  CE2 TYR F 805       7.321  -9.280  28.264  1.00 33.62 LIG 0.04  A 
ATOM     10  CZ  TYR F 805       7.907  -9.486  29.498  1.00 33.40 LIG 0.07  A 
ATOM     11  CE1 TYR F 805       8.894 -10.452  29.657  1.00 31.77 LIG 0.04  A 
ATOM     12  CD1 TYR F 805       9.293 -11.214  28.559  1.00 33.46 LIG 0.01  A 
BRANCH 10 13
ATOM     13 OH   TYR F 805       7.491  -8.725  30.568  1.00 32.97 LIG-0.36  OA
ATOM     14 HH   TYR F 805       8.096  -8.181  30.777  1.00 32.97 LIG 0.22  HD
ENDBRANCH 10 13
ENDBRANCH 6 7
ENDBRANCH 5 6
BRANCH 5 15
ATOM     15  C   TYR F 805       9.406 -14.181  25.240  1.00 40.65 LIG 0.24  C 
ATOM     16 O    TYR F 805      10.397 -14.759  24.787  1.00 41.05 LIG-0.27  OA
ATOM     17  N   GLY F 806       8.187 -14.326  24.699  1.00 41.21 LIG-0.35  N 
ATOM     18 H    GLY F 806       8.055 -14.753  23.965  1.00 41.21 LIG 0.16  HD
BRANCH 17 19
ATOM     19  CA  GLY F 806       6.942 -13.781  25.284  1.00 41.66 LIG 0.21  C 
BRANCH 19 20
ATOM     20  C   GLY F 806       5.882 -14.809  25.657  1.00 41.93 LIG 0.21  C 
ATOM     21 O    GLY F 806       6.084 -16.025  25.518  1.00 42.62 LIG-0.29  OA
ENDBRANCH 19 20
ENDBRANCH 17 19
ENDBRANCH 5 15
ENDBRANCH 3 5
BRANCH 1 22
ATOM     22  CA  LEU F 804      12.488 -13.399  28.941  1.00 43.64 LIG 0.18  C 
BRANCH 22 23
ATOM     23  N   LEU F 804      12.408 -12.666  30.205  1.00 45.07 LIG-0.35  N 
ATOM     24  C   ASP F 803      12.510 -11.342  30.262  1.00 46.18 LIG 0.26  C 
ATOM     25 O    ASP F 803      12.595 -10.633  29.251  1.00 46.48 LIG-0.27  OA
ATOM     26 H    LEU F 804      12.290 -13.165  30.894  1.00 45.07 LIG 0.16  HD
BRANCH 24 27
ATOM     27  CA  ASP F 803      12.508 -10.720  31.670  1.00 46.88 LIG 0.41  C 
ATOM     28  N   ASP F 803      11.962 -11.648  32.700  1.00 47.04 LIG 0.61  N 
BRANCH 27 29
ATOM     29  CB  ASP F 803      13.923 -10.286  32.064  1.00 47.42 LIG 0.16  C 
BRANCH 29 30
ATOM     30  CG  ASP F 803      14.377 -10.882  33.397  1.00 48.96 LIG 0.17  C 
ATOM     31 OD1  ASP F 803      14.790 -10.091  34.277  1.00 50.04 LIG-0.65  OA
ATOM     32 OD2  ASP F 803      14.327 -12.126  33.569  1.00 49.91 LIG-0.65  OA
ENDBRANCH 29 30
ENDBRANCH 27 29
ENDBRANCH 24 27
ENDBRANCH 22 23
BRANCH 22 33
ATOM     33  CB  LEU F 804      13.340 -14.661  29.129  1.00 43.69 LIG 0.04  C 
BRANCH 33 34
ATOM     34  CG  LEU F 804      13.146 -15.600  30.333  1.00 43.67 LIG-0.02  C 
ATOM     35  CD2 LEU F 804      14.049 -15.168  31.472  1.00 43.56 LIG 0.01  C 
ATOM     36  CD1 LEU F 804      13.346 -17.078  30.005  1.00 44.06 LIG 0.01  C 
ENDBRANCH 33 34
ENDBRANCH 22 33
ENDBRANCH 1 22
TORSDOF 14
ENDMDL
MODEL 12
USER: ADFR SOLUTION from run 87
USER: SCORE 12.282569 LL:  -2.661 LR: -10.000 RR:   0.000 FEB:  -5.824
USER: RMSD 6.752761
USER: SEED 86
USER: STATUS no improvement in best in 14 clusters for 5 generations
USER: GENES 16
USER: genes 0 Translation |==|  0.54088 0.46918 0.35883
USER: genes 1 Rotation |==|  0.39610 0.19522 0.35891 0.85554
USER: genes 2 Torsion [C]-N--CA-[CB] |==|  0.81579
USER: genes 3 Torsion [N]-CA--CB-[CG] |==|  0.37704
USER: genes 4 Torsion [CA]-CB--CG-[CD2] |==|  0.20676
USER: genes 5 Torsion [CE2]-CZ--OH-[HH] |==|  0.21551
USER: genes 6 Torsion [N]-CA--C-[N] |==|  0.31730
USER: genes 7 Torsion [C]-N--CA-[C] |==|  0.83351
USER: genes 8 Torsion [N]-CA--C-[O] |==|  0.94626
USER: genes 9 Torsion [N]-C--CA-[N] |==|  0.90324
USER: genes 10 Torsion [C]-CA--N-[C] |==|  0.76667
USER: genes 11 Torsion [N]-C--CA-[N] |==|  0.08381
USER: genes 12 Torsion [C]-CA--CB-[CG] |==|  0.60854
USER: genes 13 Torsion [CA]-CB--CG-[OD1] |==|  0.67920
USER: genes 14 Torsion [C]-CA--CB-[CG] |==|  0.28308
USER: genes 15 Torsion [CA]-CB--CG-[CD2] |==|  0.70804
ROOT
ATOM      1  C   LEU F 804      12.459 -12.180  30.094  1.00 42.60 LIG 0.24  C 
ATOM      2 O    LEU F 804      12.247 -12.069  31.306  1.00 42.72 LIG-0.27  OA
ATOM      3  N   TYR F 805      13.063 -11.234  29.371  1.00 41.09 LIG-0.35  N 
ATOM      4 H    TYR F 805      13.055 -11.214  28.512  1.00 41.09 LIG 0.16  HD
ENDROOT
BRANCH 3 5
ATOM      5  CA  TYR F 805      13.809 -10.123  29.991  1.00 40.08 LIG 0.18  C 
BRANCH 5 6
ATOM      6  CB  TYR F 805      12.839  -9.218  30.761  1.00 38.23 LIG 0.07  C 
BRANCH 6 7
ATOM      7  CG  TYR F 805      13.357  -8.818  32.121  1.00 36.43 LIG-0.06  A 
ATOM      8  CD2 TYR F 805      14.367  -7.869  32.245  1.00 35.39 LIG 0.01  A 
ATOM      9  CE2 TYR F 805      14.866  -7.504  33.496  1.00 33.62 LIG 0.04  A 
ATOM     10  CZ  TYR F 805      14.348  -8.088  34.635  1.00 33.40 LIG 0.07  A 
ATOM     11  CE1 TYR F 805      13.335  -9.036  34.542  1.00 31.77 LIG 0.04  A 
ATOM     12  CD1 TYR F 805      12.846  -9.398  33.287  1.00 33.46 LIG 0.01  A 
BRANCH 10 13
ATOM     13 OH   TYR F 805      14.844  -7.710  35.863  1.00 32.97 LIG-0.36  OA
ATOM     14 HH   TYR F 805      14.519  -6.966  36.080  1.00 32.97 LIG 0.22  HD
ENDBRANCH 10 13
ENDBRANCH 6 7
ENDBRANCH 5 6
BRANCH 5 15
ATOM     15  C   TYR F 805      14.954 -10.568  30.920  1.00 40.65 LIG 0.24  C 
ATOM     16 O    TYR F 805      14.695 -11.182  31.958  1.00 41.05 LIG-0.27  OA
ATOM     17  N   GLY F 806      16.214 -10.279  30.558  1.00 41.21 LIG-0.35  N 
ATOM     18 H    GLY F 806      16.887 -10.428  31.071  1.00 41.21 LIG 0.16  HD
BRANCH 17 19
ATOM     19  CA  GLY F 806      16.595  -9.681  29.260  1.00 41.66 LIG 0.21  C 
BRANCH 19 20
ATOM     20  C   GLY F 806      16.221 -10.488  28.025  1.00 41.93 LIG 0.21  C 
ATOM     21 O    GLY F 806      15.966 -11.700  28.097  1.00 42.62 LIG-0.29  OA
ENDBRANCH 19 20
ENDBRANCH 17 19
ENDBRANCH 5 15
ENDBRANCH 3 5
BRANCH 1 22
ATOM     22  CA  LEU F 804      12.015 -13.455  29.353  1.00 43.64 LIG 0.18  C 
BRANCH 22 23
ATOM     23  N   LEU F 804      11.555 -13.260  27.978  1.00 45.07 LIG-0.35  N 
ATOM     24  C   ASP F 803      10.307 -12.903  27.694  1.00 46.18 LIG 0.26  C 
ATOM     25 O    ASP F 803       9.474 -12.628  28.567  1.00 46.48 LIG-0.27  OA
ATOM     26 H    LEU F 804      12.160 -13.397  27.382  1.00 45.07 LIG 0.16  HD
BRANCH 24 27
ATOM     27  CA  ASP F 803       9.943 -12.835  26.200  1.00 46.88 LIG 0.41  C 
ATOM     28  N   ASP F 803      10.721 -13.806  25.380  1.00 47.04 LIG 0.61  N 
BRANCH 27 29
ATOM     29  CB  ASP F 803       8.443 -13.080  26.005  1.00 47.42 LIG 0.16  C 
BRANCH 29 30
ATOM     30  CG  ASP F 803       8.137 -13.931  24.772  1.00 48.96 LIG 0.17  C 
ATOM     31 OD1  ASP F 803       7.490 -13.395  23.841  1.00 50.04 LIG-0.65  OA
ATOM     32 OD2  ASP F 803       8.532 -15.123  24.728  1.00 49.91 LIG-0.65  OA
ENDBRANCH 29 30
ENDBRANCH 27 29
ENDBRANCH 24 27
ENDBRANCH 22 23
BRANCH 22 33
ATOM     33  CB  LEU F 804      13.137 -14.501  29.379  1.00 43.69 LIG 0.04  C 
BRANCH 33 34
ATOM     34  CG  LEU F 804      13.108 -15.699  30.346  1.00 43.67 LIG-0.02  C 
ATOM     35  CD2 LEU F 804      14.096 -15.472  31.473  1.00 43.56 LIG 0.01  C 
ATOM     36  CD1 LEU F 804      13.347 -17.048  29.670  1.00 44.06 LIG 0.01  C 
ENDBRANCH 33 34
ENDBRANCH 22 33
ENDBRANCH 1 22
TORSDOF 14
ENDMDL
MODEL 13
USER: ADFR SOLUTION from run 132
USER: SCORE 12.371149 LL:  -3.238 LR:  -9.939 RR:   0.000 FEB:  -5.763
USER: RMSD 7.028085
USER: SEED 131
USER: STATUS no improvement in best in 18 clusters for 5 generations
USER: GENES 16
USER: genes 0 Translation |==|  0.47642 0.49449 0.32813
USER: genes 1 Rotation |==|  0.71108 0.23648 0.86765 0.52897
USER: genes 2 Torsion [C]-N--CA-[CB] |==|  0.73224
USER: genes 3 Torsion [N]-CA--CB-[CG] |==|  0.12876
USER: genes 4 Torsion [CA]-CB--CG-[CD2] |==|  0.28242
USER: genes 5 Torsion [CE2]-CZ--OH-[HH] |==|  0.41316
USER: genes 6 Torsion [N]-CA--C-[N] |==|  0.20556
USER: genes 7 Torsion [C]-N--CA-[C] |==|  0.22722
USER: genes 8 Torsion [N]-CA--C-[O] |==|  0.77955
USER: genes 9 Torsion [N]-C--CA-[N] |==|  0.53859
USER: genes 10 Torsion [C]-CA--N-[C] |==|  0.76713
USER: genes 11 Torsion [N]-C--CA-[N] |==|  0.81072
USER: genes 12 Torsion [C]-CA--CB-[CG] |==|  0.60460
USER: genes 13 Torsion [CA]-CB--CG-[OD1] |==|  0.22453
USER: genes 14 Torsion [C]-CA--CB-[CG] |==|  0.74402
USER: genes 15 Torsion [CA]-CB--CG-[CD2] |==|  0.73329
ROOT
ATOM      1  C   LEU F 804      11.492 -11.668  29.541  1.00 42.60 LIG 0.24  C 
ATOM      2 O    LEU F 804      10.999 -12.445  30.365  1.00 42.72 LIG-0.27  OA
ATOM      3  N   TYR F 805      11.443 -11.877  28.224  1.00 41.09 LIG-0.35  N 
ATOM      4 H    TYR F 805      11.930 -11.451  27.656  1.00 41.09 LIG 0.16  HD
ENDROOT
BRANCH 3 5
ATOM      5  CA  TYR F 805      10.538 -12.869  27.614  1.00 40.08 LIG 0.18  C 
BRANCH 5 6
ATOM      6  CB  TYR F 805      11.297 -14.181  27.378  1.00 38.23 LIG 0.07  C 
BRANCH 6 7
ATOM      7  CG  TYR F 805      12.117 -14.613  28.569  1.00 36.43 LIG-0.06  A 
ATOM      8  CD2 TYR F 805      11.661 -15.615  29.419  1.00 35.39 LIG 0.01  A 
ATOM      9  CE2 TYR F 805      12.402 -16.010  30.534  1.00 33.62 LIG 0.04  A 
ATOM     10  CZ  TYR F 805      13.613 -15.402  30.799  1.00 33.40 LIG 0.07  A 
ATOM     11  CE1 TYR F 805      14.096 -14.399  29.965  1.00 31.77 LIG 0.04  A 
ATOM     12  CD1 TYR F 805      13.346 -14.008  28.856  1.00 33.46 LIG 0.01  A 
BRANCH 10 13
ATOM     13 OH   TYR F 805      14.337 -15.809  31.898  1.00 32.97 LIG-0.36  OA
ATOM     14 HH   TYR F 805      15.158 -15.722  31.740  1.00 32.97 LIG 0.22  HD
ENDBRANCH 10 13
ENDBRANCH 6 7
ENDBRANCH 5 6
BRANCH 5 15
ATOM     15  C   TYR F 805       9.261 -13.146  28.430  1.00 40.65 LIG 0.24  C 
ATOM     16 O    TYR F 805       9.156 -14.200  29.062  1.00 41.05 LIG-0.27  OA
ATOM     17  N   GLY F 806       8.296 -12.214  28.434  1.00 41.21 LIG-0.35  N 
ATOM     18 H    GLY F 806       7.529 -12.344  28.801  1.00 41.21 LIG 0.16  HD
BRANCH 17 19
ATOM     19  CA  GLY F 806       8.425 -10.874  27.820  1.00 41.66 LIG 0.21  C 
BRANCH 19 20
ATOM     20  C   GLY F 806       8.186 -10.808  26.318  1.00 41.93 LIG 0.21  C 
ATOM     21 O    GLY F 806       9.063 -11.147  25.509  1.00 42.62 LIG-0.29  OA
ENDBRANCH 19 20
ENDBRANCH 17 19
ENDBRANCH 5 15
ENDBRANCH 3 5
BRANCH 1 22
ATOM     22  CA  LEU F 804      12.206 -10.392  30.025  1.00 43.64 LIG 0.18  C 
BRANCH 22 23
ATOM     23  N   LEU F 804      12.521 -10.345  31.453  1.00 45.07 LIG-0.35  N 
ATOM     24  C   ASP F 803      11.633  -9.954  32.360  1.00 46.18 LIG 0.26  C 
ATOM     25 O    ASP F 803      10.459  -9.684  32.075  1.00 46.48 LIG-0.27  OA
ATOM     26 H    LEU F 804      13.323 -10.590  31.644  1.00 45.07 LIG 0.16  HD
BRANCH 24 27
ATOM     27  CA  ASP F 803      12.140  -9.859  33.811  1.00 46.88 LIG 0.41  C 
ATOM     28  N   ASP F 803      12.457 -11.194  34.391  1.00 47.04 LIG 0.61  N 
BRANCH 27 29
ATOM     29  CB  ASP F 803      13.375  -8.957  33.887  1.00 47.42 LIG 0.16  C 
BRANCH 29 30
ATOM     30  CG  ASP F 803      14.418  -9.462  34.885  1.00 48.96 LIG 0.17  C 
ATOM     31 OD1  ASP F 803      15.187 -10.377  34.509  1.00 50.04 LIG-0.65  OA
ATOM     32 OD2  ASP F 803      14.471  -8.956  36.034  1.00 49.91 LIG-0.65  OA
ENDBRANCH 29 30
ENDBRANCH 27 29
ENDBRANCH 24 27
ENDBRANCH 22 23
BRANCH 22 33
ATOM     33  CB  LEU F 804      13.482 -10.155  29.206  1.00 43.69 LIG 0.04  C 
BRANCH 33 34
ATOM     34  CG  LEU F 804      14.850 -10.697  29.658  1.00 43.67 LIG-0.02  C 
ATOM     35  CD2 LEU F 804      15.608  -9.618  30.406  1.00 43.56 LIG 0.01  C 
ATOM     36  CD1 LEU F 804      15.694 -11.275  28.524  1.00 44.06 LIG 0.01  C 
ENDBRANCH 33 34
ENDBRANCH 22 33
ENDBRANCH 1 22
TORSDOF 14
ENDMDL
MODEL 14
USER: ADFR SOLUTION from run 58
USER: SCORE 11.565516 LL:  -2.604 LR:  -9.875 RR:   0.000 FEB:  -5.698
USER: RMSD 5.771247
USER: SEED 57
USER: STATUS no improvement in best in 16 clusters for 5 generations
USER: GENES 16
USER: genes 0 Translation |==|  0.61082 0.63576 0.48251
USER: genes 1 Rotation |==|  0.45627 0.10262 0.24936 0.66539
USER: genes 2 Torsion [C]-N--CA-[CB] |==|  0.82393
USER: genes 3 Torsion [N]-CA--CB-[CG] |==|  0.75519
USER: genes 4 Torsion [CA]-CB--CG-[CD2] |==|  0.97611
USER: genes 5 Torsion [CE2]-CZ--OH-[HH] |==|  0.21333
USER: genes 6 Torsion [N]-CA--C-[N] |==|  0.48475
USER: genes 7 Torsion [C]-N--CA-[C] |==|  0.70146
USER: genes 8 Torsion [N]-CA--C-[O] |==|  0.00088
USER: genes 9 Torsion [N]-C--CA-[N] |==|  0.52703
USER: genes 10 Torsion [C]-CA--N-[C] |==|  0.66348
USER: genes 11 Torsion [N]-C--CA-[N] |==|  0.21987
USER: genes 12 Torsion [C]-CA--CB-[CG] |==|  0.63261
USER: genes 13 Torsion [CA]-CB--CG-[OD1] |==|  0.27205
USER: genes 14 Torsion [C]-CA--CB-[CG] |==|  0.39827
USER: genes 15 Torsion [CA]-CB--CG-[CD2] |==|  0.09229
ROOT
ATOM      1  C   LEU F 804      13.508  -8.807  32.320  1.00 42.60 LIG 0.24  C 
ATOM      2 O    LEU F 804      12.433  -8.654  32.911  1.00 42.72 LIG-0.27  OA
ATOM      3  N   TYR F 805      14.608  -8.112  32.620  1.00 41.09 LIG-0.35  N 
ATOM      4 H    TYR F 805      15.300  -8.073  32.110  1.00 41.09 LIG 0.16  HD
ENDROOT
BRANCH 3 5
ATOM      5  CA  TYR F 805      14.737  -7.338  33.869  1.00 40.08 LIG 0.18  C 
BRANCH 5 6
ATOM      6  CB  TYR F 805      13.692  -6.214  33.888  1.00 38.23 LIG 0.07  C 
BRANCH 6 7
ATOM      7  CG  TYR F 805      14.177  -4.944  33.234  1.00 36.43 LIG-0.06  A 
ATOM      8  CD2 TYR F 805      15.507  -4.807  32.849  1.00 35.39 LIG 0.01  A 
ATOM      9  CE2 TYR F 805      15.971  -3.630  32.260  1.00 33.62 LIG 0.04  A 
ATOM     10  CZ  TYR F 805      15.097  -2.582  32.047  1.00 33.40 LIG 0.07  A 
ATOM     11  CE1 TYR F 805      13.761  -2.692  32.418  1.00 31.77 LIG 0.04  A 
ATOM     12  CD1 TYR F 805      13.308  -3.870  33.010  1.00 33.46 LIG 0.01  A 
BRANCH 10 13
ATOM     13 OH   TYR F 805      15.568  -1.431  31.455  1.00 32.97 LIG-0.36  OA
ATOM     14 HH   TYR F 805      15.655  -1.556  30.629  1.00 32.97 LIG 0.22  HD
ENDBRANCH 10 13
ENDBRANCH 6 7
ENDBRANCH 5 6
BRANCH 5 15
ATOM     15  C   TYR F 805      14.618  -8.181  35.152  1.00 40.65 LIG 0.24  C 
ATOM     16 O    TYR F 805      14.340  -9.380  35.072  1.00 41.05 LIG-0.27  OA
ATOM     17  N   GLY F 806      14.835  -7.577  36.330  1.00 41.21 LIG-0.35  N 
ATOM     18 H    GLY F 806      14.705  -7.971  37.083  1.00 41.21 LIG 0.16  HD
BRANCH 17 19
ATOM     19  CA  GLY F 806      15.316  -6.186  36.482  1.00 41.66 LIG 0.21  C 
BRANCH 19 20
ATOM     20  C   GLY F 806      16.757  -6.032  36.950  1.00 41.93 LIG 0.21  C 
ATOM     21 O    GLY F 806      17.471  -7.019  37.180  1.00 42.62 LIG-0.29  OA
ENDBRANCH 19 20
ENDBRANCH 17 19
ENDBRANCH 5 15
ENDBRANCH 3 5
BRANCH 1 22
ATOM     22  CA  LEU F 804      13.616  -9.836  31.180  1.00 43.64 LIG 0.18  C 
BRANCH 22 23
ATOM     23  N   LEU F 804      12.351 -10.417  30.730  1.00 45.07 LIG-0.35  N 
ATOM     24  C   ASP F 803      12.122 -11.726  30.767  1.00 46.18 LIG 0.26  C 
ATOM     25 O    ASP F 803      12.922 -12.532  31.259  1.00 46.48 LIG-0.27  OA
ATOM     26 H    LEU F 804      11.781  -9.841  30.444  1.00 45.07 LIG 0.16  HD
BRANCH 24 27
ATOM     27  CA  ASP F 803      10.786 -12.199  30.167  1.00 46.88 LIG 0.41  C 
ATOM     28  N   ASP F 803      10.824 -12.267  28.679  1.00 47.04 LIG 0.61  N 
BRANCH 27 29
ATOM     29  CB  ASP F 803      10.400 -13.568  30.736  1.00 47.42 LIG 0.16  C 
BRANCH 29 30
ATOM     30  CG  ASP F 803       9.977 -14.563  29.654  1.00 48.96 LIG 0.17  C 
ATOM     31 OD1  ASP F 803      10.835 -15.383  29.251  1.00 50.04 LIG-0.65  OA
ATOM     32 OD2  ASP F 803       8.804 -14.528  29.206  1.00 49.91 LIG-0.65  OA
ENDBRANCH 29 30
ENDBRANCH 27 29
ENDBRANCH 24 27
ENDBRANCH 22 23
BRANCH 22 33
ATOM     33  CB  LEU F 804      14.359  -9.226  29.984  1.00 43.69 LIG 0.04  C 
BRANCH 33 34
ATOM     34  CG  LEU F 804      15.321 -10.057  29.116  1.00 43.67 LIG-0.02  C 
ATOM     35  CD2 LEU F 804      14.832 -11.490  29.034  1.00 43.56 LIG 0.01  C 
ATOM     36  CD1 LEU F 804      16.777 -10.000  29.575  1.00 44.06 LIG 0.01  C 
ENDBRANCH 33 34
ENDBRANCH 22 33
ENDBRANCH 1 22
TORSDOF 14
ENDMDL
MODEL 15
USER: ADFR SOLUTION from run 39
USER: SCORE 11.804241 LL:  -2.714 LR:  -9.856 RR:   0.000 FEB:  -5.680
USER: RMSD 6.524364
USER: SEED 38
USER: STATUS no improvement in best in 20 clusters for 5 generations
USER: GENES 16
USER: genes 0 Translation |==|  0.57792 0.26525 0.40479
USER: genes 1 Rotation |==|  0.34555 0.86463 0.47132 0.80392
USER: genes 2 Torsion [C]-N--CA-[CB] |==|  0.79283
USER: genes 3 Torsion [N]-CA--CB-[CG] |==|  0.71787
USER: genes 4 Torsion [CA]-CB--CG-[CD2] |==|  0.52339
USER: genes 5 Torsion [CE2]-CZ--OH-[HH] |==|  0.10498
USER: genes 6 Torsion [N]-CA--C-[N] |==|  0.16325
USER: genes 7 Torsion [C]-N--CA-[C] |==|  0.56212
USER: genes 8 Torsion [N]-CA--C-[O] |==|  0.96369
USER: genes 9 Torsion [N]-C--CA-[N] |==|  0.88472
USER: genes 10 Torsion [C]-CA--N-[C] |==|  0.87658
USER: genes 11 Torsion [N]-C--CA-[N] |==|  0.04675
USER: genes 12 Torsion [C]-CA--CB-[CG] |==|  0.73449
USER: genes 13 Torsion [CA]-CB--CG-[OD1] |==|  0.72930
USER: genes 14 Torsion [C]-CA--CB-[CG] |==|  0.40503
USER: genes 15 Torsion [CA]-CB--CG-[CD2] |==|  0.91309
ROOT
ATOM      1  C   LEU F 804      13.015 -16.310  30.921  1.00 42.60 LIG 0.24  C 
ATOM      2 O    LEU F 804      13.335 -16.780  29.824  1.00 42.72 LIG-0.27  OA
ATOM      3  N   TYR F 805      12.688 -15.027  31.095  1.00 41.09 LIG-0.35  N 
ATOM      4 H    TYR F 805      12.642 -14.648  31.866  1.00 41.09 LIG 0.16  HD
ENDROOT
BRANCH 3 5
ATOM      5  CA  TYR F 805      12.372 -14.133  29.965  1.00 40.08 LIG 0.18  C 
BRANCH 5 6
ATOM      6  CB  TYR F 805      13.665 -13.755  29.231  1.00 38.23 LIG 0.07  C 
BRANCH 6 7
ATOM      7  CG  TYR F 805      14.164 -12.375  29.583  1.00 36.43 LIG-0.06  A 
ATOM      8  CD2 TYR F 805      15.221 -11.802  28.885  1.00 35.39 LIG 0.01  A 
ATOM      9  CE2 TYR F 805      15.702 -10.534  29.214  1.00 33.62 LIG 0.04  A 
ATOM     10  CZ  TYR F 805      15.117  -9.829  30.247  1.00 33.40 LIG 0.07  A 
ATOM     11  CE1 TYR F 805      14.055 -10.374  30.960  1.00 31.77 LIG 0.04  A 
ATOM     12  CD1 TYR F 805      13.585 -11.644  30.627  1.00 33.46 LIG 0.01  A 
BRANCH 10 13
ATOM     13 OH   TYR F 805      15.596  -8.574  30.553  1.00 32.97 LIG-0.36  OA
ATOM     14 HH   TYR F 805      15.802  -8.172  29.844  1.00 32.97 LIG 0.22  HD
ENDBRANCH 10 13
ENDBRANCH 6 7
ENDBRANCH 5 6
BRANCH 5 15
ATOM     15  C   TYR F 805      11.355 -14.712  28.964  1.00 40.65 LIG 0.24  C 
ATOM     16 O    TYR F 805      11.675 -14.855  27.782  1.00 41.05 LIG-0.27  OA
ATOM     17  N   GLY F 806      10.141 -15.055  29.421  1.00 41.21 LIG-0.35  N 
ATOM     18 H    GLY F 806       9.505 -15.306  28.899  1.00 41.21 LIG 0.16  HD
BRANCH 17 19
ATOM     19  CA  GLY F 806       9.750 -15.047  30.848  1.00 41.66 LIG 0.21  C 
BRANCH 19 20
ATOM     20  C   GLY F 806       8.571 -15.938  31.216  1.00 41.93 LIG 0.21  C 
ATOM     21 O    GLY F 806       7.838 -16.432  30.346  1.00 42.62 LIG-0.29  OA
ENDBRANCH 19 20
ENDBRANCH 17 19
ENDBRANCH 5 15
ENDBRANCH 3 5
BRANCH 1 22
ATOM     22  CA  LEU F 804      12.985 -17.217  32.165  1.00 43.64 LIG 0.18  C 
BRANCH 22 23
ATOM     23  N   LEU F 804      13.528 -16.631  33.390  1.00 45.07 LIG-0.35  N 
ATOM     24  C   ASP F 803      14.666 -15.944  33.401  1.00 46.18 LIG 0.26  C 
ATOM     25 O    ASP F 803      15.299 -15.681  32.370  1.00 46.48 LIG-0.27  OA
ATOM     26 H    LEU F 804      13.049 -16.771  34.090  1.00 45.07 LIG 0.16  HD
BRANCH 24 27
ATOM     27  CA  ASP F 803      15.163 -15.475  34.780  1.00 46.88 LIG 0.41  C 
ATOM     28  N   ASP F 803      14.504 -16.203  35.900  1.00 47.04 LIG 0.61  N 
BRANCH 27 29
ATOM     29  CB  ASP F 803      16.683 -15.638  34.882  1.00 47.42 LIG 0.16  C 
BRANCH 29 30
ATOM     30  CG  ASP F 803      17.096 -16.948  35.554  1.00 48.96 LIG 0.17  C 
ATOM     31 OD1  ASP F 803      17.379 -16.913  36.775  1.00 50.04 LIG-0.65  OA
ATOM     32 OD2  ASP F 803      17.143 -18.004  34.874  1.00 49.91 LIG-0.65  OA
ENDBRANCH 29 30
ENDBRANCH 27 29
ENDBRANCH 24 27
ENDBRANCH 22 23
BRANCH 22 33
ATOM     33  CB  LEU F 804      11.558 -17.719  32.421  1.00 43.69 LIG 0.04  C 
BRANCH 33 34
ATOM     34  CG  LEU F 804      11.280 -19.120  32.997  1.00 43.67 LIG-0.02  C 
ATOM     35  CD2 LEU F 804      12.360 -20.084  32.546  1.00 43.56 LIG 0.01  C 
ATOM     36  CD1 LEU F 804       9.890 -19.660  32.669  1.00 44.06 LIG 0.01  C 
ENDBRANCH 33 34
ENDBRANCH 22 33
ENDBRANCH 1 22
TORSDOF 14
ENDMDL
MODEL 16
USER: ADFR SOLUTION from run 156
USER: SCORE 11.821341 LL:  -2.824 LR:  -9.849 RR:   0.000 FEB:  -5.673
USER: RMSD 8.037380
USER: SEED 155
USER: STATUS no improvement in best in 14 clusters for 5 generations
USER: GENES 16
USER: genes 0 Translation |==|  0.61024 0.36961 0.42974
USER: genes 1 Rotation |==|  0.93475 0.47332 0.36296 0.70373
USER: genes 2 Torsion [C]-N--CA-[CB] |==|  0.83815
USER: genes 3 Torsion [N]-CA--CB-[CG] |==|  0.71537
USER: genes 4 Torsion [CA]-CB--CG-[CD2] |==|  0.14845
USER: genes 5 Torsion [CE2]-CZ--OH-[HH] |==|  0.49416
USER: genes 6 Torsion [N]-CA--C-[N] |==|  0.46488
USER: genes 7 Torsion [C]-N--CA-[C] |==|  0.39268
USER: genes 8 Torsion [N]-CA--C-[O] |==|  0.01747
USER: genes 9 Torsion [N]-C--CA-[N] |==|  0.11739
USER: genes 10 Torsion [C]-CA--N-[C] |==|  0.60751
USER: genes 11 Torsion [N]-C--CA-[N] |==|  0.80810
USER: genes 12 Torsion [C]-CA--CB-[CG] |==|  0.68593
USER: genes 13 Torsion [CA]-CB--CG-[OD1] |==|  0.22094
USER: genes 14 Torsion [C]-CA--CB-[CG] |==|  0.60921
USER: genes 15 Torsion [CA]-CB--CG-[CD2] |==|  0.76821
ROOT
ATOM      1  C   LEU F 804      13.500 -14.196  31.370  1.00 42.60 LIG 0.24  C 
ATOM      2 O    LEU F 804      14.249 -14.861  30.646  1.00 42.72 LIG-0.27  OA
ATOM      3  N   TYR F 805      12.956 -14.677  32.491  1.00 41.09 LIG-0.35  N 
ATOM      4 H    TYR F 805      12.301 -14.300  32.902  1.00 41.09 LIG 0.16  HD
ENDROOT
BRANCH 3 5
ATOM      5  CA  TYR F 805      13.437 -15.914  33.134  1.00 40.08 LIG 0.18  C 
BRANCH 5 6
ATOM      6  CB  TYR F 805      13.332 -17.082  32.146  1.00 38.23 LIG 0.07  C 
BRANCH 6 7
ATOM      7  CG  TYR F 805      12.147 -17.977  32.412  1.00 36.43 LIG-0.06  A 
ATOM      8  CD2 TYR F 805      10.864 -17.448  32.507  1.00 35.39 LIG 0.01  A 
ATOM      9  CE2 TYR F 805       9.763 -18.263  32.771  1.00 33.62 LIG 0.04  A 
ATOM     10  CZ  TYR F 805       9.944 -19.622  32.935  1.00 33.40 LIG 0.07  A 
ATOM     11  CE1 TYR F 805      11.214 -20.181  32.841  1.00 31.77 LIG 0.04  A 
ATOM     12  CD1 TYR F 805      12.309 -19.357  32.582  1.00 33.46 LIG 0.01  A 
BRANCH 10 13
ATOM     13 OH   TYR F 805       8.846 -20.416  33.185  1.00 32.97 LIG-0.36  OA
ATOM     14 HH   TYR F 805       9.086 -21.219  33.235  1.00 32.97 LIG 0.22  HD
ENDBRANCH 10 13
ENDBRANCH 6 7
ENDBRANCH 5 6
BRANCH 5 15
ATOM     15  C   TYR F 805      14.873 -15.825  33.685  1.00 40.65 LIG 0.24  C 
ATOM     16 O    TYR F 805      15.589 -14.870  33.373  1.00 41.05 LIG-0.27  OA
ATOM     17  N   GLY F 806      15.299 -16.798  34.505  1.00 41.21 LIG-0.35  N 
ATOM     18 H    GLY F 806      16.113 -16.848  34.779  1.00 41.21 LIG 0.16  HD
BRANCH 17 19
ATOM     19  CA  GLY F 806      14.443 -17.883  35.032  1.00 41.66 LIG 0.21  C 
BRANCH 19 20
ATOM     20  C   GLY F 806      15.096 -19.256  35.122  1.00 41.93 LIG 0.21  C 
ATOM     21 O    GLY F 806      16.303 -19.414  34.883  1.00 42.62 LIG-0.29  OA
ENDBRANCH 19 20
ENDBRANCH 17 19
ENDBRANCH 5 15
ENDBRANCH 3 5
BRANCH 1 22
ATOM     22  CA  LEU F 804      13.155 -12.745  30.988  1.00 43.64 LIG 0.18  C 
BRANCH 22 23
ATOM     23  N   LEU F 804      13.155 -11.783  32.090  1.00 45.07 LIG-0.35  N 
ATOM     24  C   ASP F 803      12.255 -10.809  32.178  1.00 46.18 LIG 0.26  C 
ATOM     25 O    ASP F 803      11.310 -10.697  31.386  1.00 46.48 LIG-0.27  OA
ATOM     26 H    LEU F 804      13.781 -11.907  32.666  1.00 45.07 LIG 0.16  HD
BRANCH 24 27
ATOM     27  CA  ASP F 803      12.441  -9.814  33.337  1.00 46.88 LIG 0.41  C 
ATOM     28  N   ASP F 803      12.180 -10.433  34.667  1.00 47.04 LIG 0.61  N 
BRANCH 27 29
ATOM     29  CB  ASP F 803      13.855  -9.223  33.312  1.00 47.42 LIG 0.16  C 
BRANCH 29 30
ATOM     30  CG  ASP F 803      14.701  -9.657  34.510  1.00 48.96 LIG 0.17  C 
ATOM     31 OD1  ASP F 803      15.219 -10.798  34.473  1.00 50.04 LIG-0.65  OA
ATOM     32 OD2  ASP F 803      14.846  -8.873  35.482  1.00 49.91 LIG-0.65  OA
ENDBRANCH 29 30
ENDBRANCH 27 29
ENDBRANCH 24 27
ENDBRANCH 22 23
BRANCH 22 33
ATOM     33  CB  LEU F 804      14.089 -12.254  29.874  1.00 43.69 LIG 0.04  C 
BRANCH 33 34
ATOM     34  CG  LEU F 804      14.649 -10.820  29.857  1.00 43.67 LIG-0.02  C 
ATOM     35  CD2 LEU F 804      13.635  -9.880  29.238  1.00 43.56 LIG 0.01  C 
ATOM     36  CD1 LEU F 804      16.007 -10.693  29.168  1.00 44.06 LIG 0.01  C 
ENDBRANCH 33 34
ENDBRANCH 22 33
ENDBRANCH 1 22
TORSDOF 14
ENDMDL
MODEL 17
USER: ADFR SOLUTION from run 150
USER: SCORE 12.602326 LL:  -2.926 LR:  -9.844 RR:   0.000 FEB:  -5.668
USER: RMSD 6.371005
USER: SEED 149
USER: STATUS searching
USER: GENES 16
USER: genes 0 Translation |==|  0.62106 0.33294 0.45890
USER: genes 1 Rotation |==|  0.22303 0.81720 0.42759 0.75966
USER: genes 2 Torsion [C]-N--CA-[CB] |==|  0.82182
USER: genes 3 Torsion [N]-CA--CB-[CG] |==|  0.80598
USER: genes 4 Torsion [CA]-CB--CG-[CD2] |==|  0.49709
USER: genes 5 Torsion [CE2]-CZ--OH-[HH] |==|  0.41129
USER: genes 6 Torsion [N]-CA--C-[N] |==|  0.45000
USER: genes 7 Torsion [C]-N--CA-[C] |==|  0.40558
USER: genes 8 Torsion [N]-CA--C-[O] |==|  0.96655
USER: genes 9 Torsion [N]-C--CA-[N] |==|  0.44549
USER: genes 10 Torsion [C]-CA--N-[C] |==|  0.62845
USER: genes 11 Torsion [N]-C--CA-[N] |==|  0.86100
USER: genes 12 Torsion [C]-CA--CB-[CG] |==|  0.70537
USER: genes 13 Torsion [CA]-CB--CG-[OD1] |==|  0.31598
USER: genes 14 Torsion [C]-CA--CB-[CG] |==|  0.27771
USER: genes 15 Torsion [CA]-CB--CG-[CD2] |==|  0.71469
ROOT
ATOM      1  C   LEU F 804      13.662 -14.939  31.895  1.00 42.60 LIG 0.24  C 
ATOM      2 O    LEU F 804      14.195 -15.753  31.133  1.00 42.72 LIG-0.27  OA
ATOM      3  N   TYR F 805      12.971 -13.882  31.463  1.00 41.09 LIG-0.35  N 
ATOM      4 H    TYR F 805      12.754 -13.218  31.964  1.00 41.09 LIG 0.16  HD
ENDROOT
BRANCH 3 5
ATOM      5  CA  TYR F 805      12.511 -13.756  30.067  1.00 40.08 LIG 0.18  C 
BRANCH 5 6
ATOM      6  CB  TYR F 805      13.725 -13.670  29.131  1.00 38.23 LIG 0.07  C 
BRANCH 6 7
ATOM      7  CG  TYR F 805      14.484 -12.373  29.266  1.00 36.43 LIG-0.06  A 
ATOM      8  CD2 TYR F 805      15.625 -12.136  28.507  1.00 35.39 LIG 0.01  A 
ATOM      9  CE2 TYR F 805      16.345 -10.948  28.636  1.00 33.62 LIG 0.04  A 
ATOM     10  CZ  TYR F 805      15.917  -9.983  29.527  1.00 33.40 LIG 0.07  A 
ATOM     11  CE1 TYR F 805      14.777 -10.190  30.296  1.00 31.77 LIG 0.04  A 
ATOM     12  CD1 TYR F 805      14.067 -11.383  30.163  1.00 33.46 LIG 0.01  A 
BRANCH 10 13
ATOM     13 OH   TYR F 805      16.633  -8.811  29.635  1.00 32.97 LIG-0.36  OA
ATOM     14 HH   TYR F 805      16.110  -8.181  29.824  1.00 32.97 LIG 0.22  HD
ENDBRANCH 10 13
ENDBRANCH 6 7
ENDBRANCH 5 6
BRANCH 5 15
ATOM     15  C   TYR F 805      11.576 -14.889  29.603  1.00 40.65 LIG 0.24  C 
ATOM     16 O    TYR F 805      11.528 -15.942  30.242  1.00 41.05 LIG-0.27  OA
ATOM     17  N   GLY F 806      10.825 -14.683  28.510  1.00 41.21 LIG-0.35  N 
ATOM     18 H    GLY F 806      10.347 -15.303  28.155  1.00 41.21 LIG 0.16  HD
BRANCH 17 19
ATOM     19  CA  GLY F 806      10.727 -13.394  27.792  1.00 41.66 LIG 0.21  C 
BRANCH 19 20
ATOM     20  C   GLY F 806      10.555 -13.489  26.282  1.00 41.93 LIG 0.21  C 
ATOM     21 O    GLY F 806      10.721 -14.560  25.679  1.00 42.62 LIG-0.29  OA
ENDBRANCH 19 20
ENDBRANCH 17 19
ENDBRANCH 5 15
ENDBRANCH 3 5
BRANCH 1 22
ATOM     22  CA  LEU F 804      13.785 -15.123  33.419  1.00 43.64 LIG 0.18  C 
BRANCH 22 23
ATOM     23  N   LEU F 804      14.136 -16.470  33.868  1.00 45.07 LIG-0.35  N 
ATOM     24  C   ASP F 803      13.497 -17.072  34.865  1.00 46.18 LIG 0.26  C 
ATOM     25 O    ASP F 803      12.511 -16.575  35.426  1.00 46.48 LIG-0.27  OA
ATOM     26 H    LEU F 804      14.785 -16.828  33.432  1.00 45.07 LIG 0.16  HD
BRANCH 24 27
ATOM     27  CA  ASP F 803      14.044 -18.446  35.293  1.00 46.88 LIG 0.41  C 
ATOM     28  N   ASP F 803      14.235 -19.367  34.137  1.00 47.04 LIG 0.61  N 
BRANCH 27 29
ATOM     29  CB  ASP F 803      15.367 -18.283  36.047  1.00 47.42 LIG 0.16  C 
BRANCH 29 30
ATOM     30  CG  ASP F 803      16.580 -18.700  35.214  1.00 48.96 LIG 0.17  C 
ATOM     31 OD1  ASP F 803      17.395 -17.806  34.885  1.00 50.04 LIG-0.65  OA
ATOM     32 OD2  ASP F 803      16.720 -19.905  34.885  1.00 49.91 LIG-0.65  OA
ENDBRANCH 29 30
ENDBRANCH 27 29
ENDBRANCH 24 27
ENDBRANCH 22 23
BRANCH 22 33
ATOM     33  CB  LEU F 804      14.781 -14.109  33.997  1.00 43.69 LIG 0.04  C 
BRANCH 33 34
ATOM     34  CG  LEU F 804      14.315 -12.816  34.689  1.00 43.67 LIG-0.02  C 
ATOM     35  CD2 LEU F 804      14.490 -11.639  33.750  1.00 43.56 LIG 0.01  C 
ATOM     36  CD1 LEU F 804      14.993 -12.552  36.032  1.00 44.06 LIG 0.01  C 
ENDBRANCH 33 34
ENDBRANCH 22 33
ENDBRANCH 1 22
TORSDOF 14
ENDMDL
MODEL 18
USER: ADFR SOLUTION from run 164
USER: SCORE 11.585153 LL:  -2.474 LR:  -9.781 RR:   0.000 FEB:  -5.605
USER: RMSD 3.691128
USER: SEED 163
USER: STATUS no improvement in best in 19 clusters for 5 generations
USER: GENES 16
USER: genes 0 Translation |==|  0.58629 0.46230 0.50285
USER: genes 1 Rotation |==|  0.50767 0.98061 0.63748 0.50742
USER: genes 2 Torsion [C]-N--CA-[CB] |==|  0.79705
USER: genes 3 Torsion [N]-CA--CB-[CG] |==|  0.94345
USER: genes 4 Torsion [CA]-CB--CG-[CD2] |==|  0.82239
USER: genes 5 Torsion [CE2]-CZ--OH-[HH] |==|  0.48857
USER: genes 6 Torsion [N]-CA--C-[N] |==|  0.47778
USER: genes 7 Torsion [C]-N--CA-[C] |==|  0.80409
USER: genes 8 Torsion [N]-CA--C-[O] |==|  0.12388
USER: genes 9 Torsion [N]-C--CA-[N] |==|  0.18724
USER: genes 10 Torsion [C]-CA--N-[C] |==|  0.58918
USER: genes 11 Torsion [N]-C--CA-[N] |==|  0.04702
USER: genes 12 Torsion [C]-CA--CB-[CG] |==|  0.25687
USER: genes 13 Torsion [CA]-CB--CG-[OD1] |==|  0.52076
USER: genes 14 Torsion [C]-CA--CB-[CG] |==|  0.28436
USER: genes 15 Torsion [CA]-CB--CG-[CD2] |==|  0.26599
ROOT
ATOM      1  C   LEU F 804      13.140 -12.319  32.686  1.00 42.60 LIG 0.24  C 
ATOM      2 O    LEU F 804      12.002 -12.042  32.294  1.00 42.72 LIG-0.27  OA
ATOM      3  N   TYR F 805      13.956 -11.423  33.246  1.00 41.09 LIG-0.35  N 
ATOM      4 H    TYR F 805      14.799 -11.550  33.355  1.00 41.09 LIG 0.16  HD
ENDROOT
BRANCH 3 5
ATOM      5  CA  TYR F 805      13.477 -10.116  33.735  1.00 40.08 LIG 0.18  C 
BRANCH 5 6
ATOM      6  CB  TYR F 805      13.161  -9.204  32.542  1.00 38.23 LIG 0.07  C 
BRANCH 6 7
ATOM      7  CG  TYR F 805      13.847  -9.637  31.270  1.00 36.43 LIG-0.06  A 
ATOM      8  CD2 TYR F 805      15.235  -9.629  31.173  1.00 35.39 LIG 0.01  A 
ATOM      9  CE2 TYR F 805      15.880 -10.010  29.996  1.00 33.62 LIG 0.04  A 
ATOM     10  CZ  TYR F 805      15.131 -10.409  28.906  1.00 33.40 LIG 0.07  A 
ATOM     11  CE1 TYR F 805      13.742 -10.431  28.974  1.00 31.77 LIG 0.04  A 
ATOM     12  CD1 TYR F 805      13.107 -10.044  30.154  1.00 33.46 LIG 0.01  A 
BRANCH 10 13
ATOM     13 OH   TYR F 805      15.783 -10.792  27.754  1.00 32.97 LIG-0.36  OA
ATOM     14 HH   TYR F 805      15.221 -11.063  27.191  1.00 32.97 LIG 0.22  HD
ENDBRANCH 10 13
ENDBRANCH 6 7
ENDBRANCH 5 6
BRANCH 5 15
ATOM     15  C   TYR F 805      12.252 -10.199  34.666  1.00 40.65 LIG 0.24  C 
ATOM     16 O    TYR F 805      11.679 -11.279  34.828  1.00 41.05 LIG-0.27  OA
ATOM     17  N   GLY F 806      11.850  -9.079  35.286  1.00 41.21 LIG-0.35  N 
ATOM     18 H    GLY F 806      11.128  -9.042  35.751  1.00 41.21 LIG 0.16  HD
BRANCH 17 19
ATOM     19  CA  GLY F 806      12.582  -7.793  35.250  1.00 41.66 LIG 0.21  C 
BRANCH 19 20
ATOM     20  C   GLY F 806      13.892  -7.756  36.024  1.00 41.93 LIG 0.21  C 
ATOM     21 O    GLY F 806      14.713  -8.684  35.952  1.00 42.62 LIG-0.29  OA
ENDBRANCH 19 20
ENDBRANCH 17 19
ENDBRANCH 5 15
ENDBRANCH 3 5
BRANCH 1 22
ATOM     22  CA  LEU F 804      13.674 -13.756  32.533  1.00 43.64 LIG 0.18  C 
BRANCH 22 23
ATOM     23  N   LEU F 804      13.888 -14.488  33.781  1.00 45.07 LIG-0.35  N 
ATOM     24  C   ASP F 803      14.851 -15.394  33.914  1.00 46.18 LIG 0.26  C 
ATOM     25 O    ASP F 803      15.684 -15.620  33.026  1.00 46.48 LIG-0.27  OA
ATOM     26 H    LEU F 804      13.339 -14.280  34.410  1.00 45.07 LIG 0.16  HD
BRANCH 24 27
ATOM     27  CA  ASP F 803      14.890 -16.155  35.251  1.00 46.88 LIG 0.41  C 
ATOM     28  N   ASP F 803      13.613 -16.037  36.010  1.00 47.04 LIG 0.61  N 
BRANCH 27 29
ATOM     29  CB  ASP F 803      15.215 -17.633  35.014  1.00 47.42 LIG 0.16  C 
BRANCH 29 30
ATOM     30  CG  ASP F 803      16.712 -17.933  35.104  1.00 48.96 LIG 0.17  C 
ATOM     31 OD1  ASP F 803      17.096 -19.083  34.785  1.00 50.04 LIG-0.65  OA
ATOM     32 OD2  ASP F 803      17.502 -17.035  35.491  1.00 49.91 LIG-0.65  OA
ENDBRANCH 29 30
ENDBRANCH 27 29
ENDBRANCH 24 27
ENDBRANCH 22 23
BRANCH 22 33
ATOM     33  CB  LEU F 804      12.757 -14.567  31.609  1.00 43.69 LIG 0.04  C 
BRANCH 33 34
ATOM     34  CG  LEU F 804      13.130 -14.855  30.143  1.00 43.67 LIG-0.02  C 
ATOM     35  CD2 LEU F 804      13.784 -16.218  30.039  1.00 43.56 LIG 0.01  C 
ATOM     36  CD1 LEU F 804      14.001 -13.777  29.501  1.00 44.06 LIG 0.01  C 
ENDBRANCH 33 34
ENDBRANCH 22 33
ENDBRANCH 1 22
TORSDOF 14
ENDMDL
MODEL 19
USER: ADFR SOLUTION from run 78
USER: SCORE 10.431734 LL:  -2.614 LR:  -9.778 RR:   0.000 FEB:  -5.602
USER: RMSD 5.787042
USER: SEED 77
USER: STATUS no improvement in best in 11 clusters for 5 generations
USER: GENES 16
USER: genes 0 Translation |==|  0.63229 0.53995 0.44954
USER: genes 1 Rotation |==|  0.57849 0.27687 0.34789 0.91341
USER: genes 2 Torsion [C]-N--CA-[CB] |==|  0.52291
USER: genes 3 Torsion [N]-CA--CB-[CG] |==|  0.59665
USER: genes 4 Torsion [CA]-CB--CG-[CD2] |==|  0.38534
USER: genes 5 Torsion [CE2]-CZ--OH-[HH] |==|  0.63373
USER: genes 6 Torsion [N]-CA--C-[N] |==|  0.85724
USER: genes 7 Torsion [C]-N--CA-[C] |==|  0.44919
USER: genes 8 Torsion [N]-CA--C-[O] |==|  0.45717
USER: genes 9 Torsion [N]-C--CA-[N] |==|  0.71537
USER: genes 10 Torsion [C]-CA--N-[C] |==|  0.14444
USER: genes 11 Torsion [N]-C--CA-[N] |==|  0.53684
USER: genes 12 Torsion [C]-CA--CB-[CG] |==|  0.37382
USER: genes 13 Torsion [CA]-CB--CG-[OD1] |==|  0.27131
USER: genes 14 Torsion [C]-CA--CB-[CG] |==|  0.24576
USER: genes 15 Torsion [CA]-CB--CG-[CD2] |==|  0.14586
ROOT
ATOM      1  C   LEU F 804      13.830 -10.747  31.727  1.00 42.60 LIG 0.24  C 
ATOM      2 O    LEU F 804      13.949 -11.482  32.713  1.00 42.72 LIG-0.27  OA
ATOM      3  N   TYR F 805      13.866  -9.415  31.804  1.00 41.09 LIG-0.35  N 
ATOM      4 H    TYR F 805      13.607  -8.894  31.171  1.00 41.09 LIG 0.16  HD
ENDROOT
BRANCH 3 5
ATOM      5  CA  TYR F 805      14.360  -8.706  33.000  1.00 40.08 LIG 0.18  C 
BRANCH 5 6
ATOM      6  CB  TYR F 805      14.082  -7.204  32.859  1.00 38.23 LIG 0.07  C 
BRANCH 6 7
ATOM      7  CG  TYR F 805      15.158  -6.343  33.473  1.00 36.43 LIG-0.06  A 
ATOM      8  CD2 TYR F 805      15.603  -5.193  32.830  1.00 35.39 LIG 0.01  A 
ATOM      9  CE2 TYR F 805      16.610  -4.399  33.380  1.00 33.62 LIG 0.04  A 
ATOM     10  CZ  TYR F 805      17.175  -4.755  34.588  1.00 33.40 LIG 0.07  A 
ATOM     11  CE1 TYR F 805      16.749  -5.897  35.257  1.00 31.77 LIG 0.04  A 
ATOM     12  CD1 TYR F 805      15.745  -6.686  34.697  1.00 33.46 LIG 0.01  A 
BRANCH 10 13
ATOM     13 OH   TYR F 805      18.161  -3.956  35.124  1.00 32.97 LIG-0.36  OA
ATOM     14 HH   TYR F 805      18.810  -4.433  35.363  1.00 32.97 LIG 0.22  HD
ENDBRANCH 10 13
ENDBRANCH 6 7
ENDBRANCH 5 6
BRANCH 5 15
ATOM     15  C   TYR F 805      13.775  -9.221  34.329  1.00 40.65 LIG 0.24  C 
ATOM     16 O    TYR F 805      14.533  -9.510  35.258  1.00 41.05 LIG-0.27  OA
ATOM     17  N   GLY F 806      12.442  -9.328  34.435  1.00 41.21 LIG-0.35  N 
ATOM     18 H    GLY F 806      12.061  -9.685  35.118  1.00 41.21 LIG 0.16  HD
BRANCH 17 19
ATOM     19  CA  GLY F 806      11.480  -8.858  33.414  1.00 41.66 LIG 0.21  C 
BRANCH 19 20
ATOM     20  C   GLY F 806      10.078  -9.443  33.508  1.00 41.93 LIG 0.21  C 
ATOM     21 O    GLY F 806       9.122  -8.931  32.906  1.00 42.62 LIG-0.29  OA
ENDBRANCH 19 20
ENDBRANCH 17 19
ENDBRANCH 5 15
ENDBRANCH 3 5
BRANCH 1 22
ATOM     22  CA  LEU F 804      13.627 -11.365  30.331  1.00 43.64 LIG 0.18  C 
BRANCH 22 23
ATOM     23  N   LEU F 804      12.279 -11.855  30.046  1.00 45.07 LIG-0.35  N 
ATOM     24  C   ASP F 803      11.200 -11.100  30.219  1.00 46.18 LIG 0.26  C 
ATOM     25 O    ASP F 803      11.263  -9.909  30.552  1.00 46.48 LIG-0.27  OA
ATOM     26 H    LEU F 804      12.253 -12.666  29.760  1.00 45.07 LIG 0.16  HD
BRANCH 24 27
ATOM     27  CA  ASP F 803       9.843 -11.784  29.975  1.00 46.88 LIG 0.41  C 
ATOM     28  N   ASP F 803       8.722 -10.808  29.881  1.00 47.04 LIG 0.61  N 
BRANCH 27 29
ATOM     29  CB  ASP F 803       9.896 -12.634  28.701  1.00 47.42 LIG 0.16  C 
BRANCH 29 30
ATOM     30  CG  ASP F 803       9.276 -14.019  28.886  1.00 48.96 LIG 0.17  C 
ATOM     31 OD1  ASP F 803       8.091 -14.181  28.509  1.00 50.04 LIG-0.65  OA
ATOM     32 OD2  ASP F 803       9.957 -14.939  29.404  1.00 49.91 LIG-0.65  OA
ENDBRANCH 29 30
ENDBRANCH 27 29
ENDBRANCH 24 27
ENDBRANCH 22 23
BRANCH 22 33
ATOM     33  CB  LEU F 804      14.056 -10.371  29.244  1.00 43.69 LIG 0.04  C 
BRANCH 33 34
ATOM     34  CG  LEU F 804      15.506 -10.305  28.729  1.00 43.67 LIG-0.02  C 
ATOM     35  CD2 LEU F 804      15.964 -11.686  28.306  1.00 43.56 LIG 0.01  C 
ATOM     36  CD1 LEU F 804      16.487  -9.681  29.719  1.00 44.06 LIG 0.01  C 
ENDBRANCH 33 34
ENDBRANCH 22 33
ENDBRANCH 1 22
TORSDOF 14
ENDMDL
MODEL 20
USER: ADFR SOLUTION from run 24
USER: SCORE 11.645051 LL:  -3.320 LR:  -9.747 RR:   0.000 FEB:  -5.571
USER: RMSD 8.084666
USER: SEED 23
USER: STATUS no improvement in best in 22 clusters for 5 generations
USER: GENES 16
USER: genes 0 Translation |==|  0.47387 0.47067 0.27218
USER: genes 1 Rotation |==|  0.83691 0.18119 0.68669 0.50018
USER: genes 2 Torsion [C]-N--CA-[CB] |==|  0.18924
USER: genes 3 Torsion [N]-CA--CB-[CG] |==|  0.08367
USER: genes 4 Torsion [CA]-CB--CG-[CD2] |==|  0.17585
USER: genes 5 Torsion [CE2]-CZ--OH-[HH] |==|  0.87517
USER: genes 6 Torsion [N]-CA--C-[N] |==|  0.43930
USER: genes 7 Torsion [C]-N--CA-[C] |==|  0.74081
USER: genes 8 Torsion [N]-CA--C-[O] |==|  0.26183
USER: genes 9 Torsion [N]-C--CA-[N] |==|  0.29446
USER: genes 10 Torsion [C]-CA--N-[C] |==|  0.56422
USER: genes 11 Torsion [N]-C--CA-[N] |==|  0.06098
USER: genes 12 Torsion [C]-CA--CB-[CG] |==|  0.74898
USER: genes 13 Torsion [CA]-CB--CG-[OD1] |==|  0.09185
USER: genes 14 Torsion [C]-CA--CB-[CG] |==|  0.39039
USER: genes 15 Torsion [CA]-CB--CG-[CD2] |==|  0.61397
ROOT
ATOM      1  C   LEU F 804      11.454 -12.150  28.534  1.00 42.60 LIG 0.24  C 
ATOM      2 O    LEU F 804      11.564 -13.352  28.799  1.00 42.72 LIG-0.27  OA
ATOM      3  N   TYR F 805      10.618 -11.684  27.604  1.00 41.09 LIG-0.35  N 
ATOM      4 H    TYR F 805      10.660 -10.887  27.283  1.00 41.09 LIG 0.16  HD
ENDROOT
BRANCH 3 5
ATOM      5  CA  TYR F 805       9.533 -12.505  27.034  1.00 40.08 LIG 0.18  C 
BRANCH 5 6
ATOM      6  CB  TYR F 805       8.473 -12.774  28.109  1.00 38.23 LIG 0.07  C 
BRANCH 6 7
ATOM      7  CG  TYR F 805       8.368 -11.664  29.126  1.00 36.43 LIG-0.06  A 
ATOM      8  CD2 TYR F 805       7.970 -10.387  28.745  1.00 35.39 LIG 0.01  A 
ATOM      9  CE2 TYR F 805       7.887  -9.348  29.673  1.00 33.62 LIG 0.04  A 
ATOM     10  CZ  TYR F 805       8.198  -9.589  30.996  1.00 33.40 LIG 0.07  A 
ATOM     11  CE1 TYR F 805       8.594 -10.857  31.408  1.00 31.77 LIG 0.04  A 
ATOM     12  CD1 TYR F 805       8.679 -11.887  30.472  1.00 33.46 LIG 0.01  A 
BRANCH 10 13
ATOM     13 OH   TYR F 805       8.101  -8.556  31.903  1.00 32.97 LIG-0.36  OA
ATOM     14 HH   TYR F 805       8.448  -7.864  31.577  1.00 32.97 LIG 0.22  HD
ENDBRANCH 10 13
ENDBRANCH 6 7
ENDBRANCH 5 6
BRANCH 5 15
ATOM     15  C   TYR F 805       8.867 -11.896  25.786  1.00 40.65 LIG 0.24  C 
ATOM     16 O    TYR F 805       8.955 -10.684  25.575  1.00 41.05 LIG-0.27  OA
ATOM     17  N   GLY F 806       8.213 -12.719  24.951  1.00 41.21 LIG-0.35  N 
ATOM     18 H    GLY F 806       7.753 -12.431  24.285  1.00 41.21 LIG 0.16  HD
BRANCH 17 19
ATOM     19  CA  GLY F 806       8.200 -14.194  25.069  1.00 41.66 LIG 0.21  C 
BRANCH 19 20
ATOM     20  C   GLY F 806       9.258 -14.931  24.260  1.00 41.93 LIG 0.21  C 
ATOM     21 O    GLY F 806      10.346 -15.253  24.760  1.00 42.62 LIG-0.29  OA
ENDBRANCH 19 20
ENDBRANCH 17 19
ENDBRANCH 5 15
ENDBRANCH 3 5
BRANCH 1 22
ATOM     22  CA  LEU F 804      12.309 -11.117  29.292  1.00 43.64 LIG 0.18  C 
BRANCH 22 23
ATOM     23  N   LEU F 804      11.902 -10.848  30.671  1.00 45.07 LIG-0.35  N 
ATOM     24  C   ASP F 803      12.215  -9.716  31.293  1.00 46.18 LIG 0.26  C 
ATOM     25 O    ASP F 803      12.796  -8.780  30.727  1.00 46.48 LIG-0.27  OA
ATOM     26 H    LEU F 804      11.448 -11.482  31.034  1.00 45.07 LIG 0.16  HD
BRANCH 24 27
ATOM     27  CA  ASP F 803      11.806  -9.617  32.773  1.00 46.88 LIG 0.41  C 
ATOM     28  N   ASP F 803      11.605 -10.955  33.398  1.00 47.04 LIG 0.61  N 
BRANCH 27 29
ATOM     29  CB  ASP F 803      12.854  -8.830  33.565  1.00 47.42 LIG 0.16  C 
BRANCH 29 30
ATOM     30  CG  ASP F 803      13.949  -9.722  34.151  1.00 48.96 LIG 0.17  C 
ATOM     31 OD1  ASP F 803      14.282 -10.739  33.497  1.00 50.04 LIG-0.65  OA
ATOM     32 OD2  ASP F 803      14.471  -9.420  35.253  1.00 49.91 LIG-0.65  OA
ENDBRANCH 29 30
ENDBRANCH 27 29
ENDBRANCH 24 27
ENDBRANCH 22 23
BRANCH 22 33
ATOM     33  CB  LEU F 804      13.787 -11.526  29.260  1.00 43.69 LIG 0.04  C 
BRANCH 33 34
ATOM     34  CG  LEU F 804      14.913 -10.492  29.077  1.00 43.67 LIG-0.02  C 
ATOM     35  CD2 LEU F 804      15.969 -11.044  28.141  1.00 43.56 LIG 0.01  C 
ATOM     36  CD1 LEU F 804      15.536 -10.015  30.387  1.00 44.06 LIG 0.01  C 
ENDBRANCH 33 34
ENDBRANCH 22 33
ENDBRANCH 1 22
TORSDOF 14
ENDMDL
MODEL 21
USER: ADFR SOLUTION from run 152
USER: SCORE 12.113621 LL:  -2.691 LR:  -9.730 RR:   0.000 FEB:  -5.554
USER: RMSD 7.783296
USER: SEED 151
USER: STATUS no improvement in best in 16 clusters for 5 generations
USER: GENES 16
USER: genes 0 Translation |==|  0.50423 0.49868 0.31811
USER: genes 1 Rotation |==|  0.72418 0.15217 0.76255 0.59911
USER: genes 2 Torsion [C]-N--CA-[CB] |==|  0.79885
USER: genes 3 Torsion [N]-CA--CB-[CG] |==|  0.56691
USER: genes 4 Torsion [CA]-CB--CG-[CD2] |==|  0.29822
USER: genes 5 Torsion [CE2]-CZ--OH-[HH] |==|  0.24987
USER: genes 6 Torsion [N]-CA--C-[N] |==|  0.36731
USER: genes 7 Torsion [C]-N--CA-[C] |==|  0.58401
USER: genes 8 Torsion [N]-CA--C-[O] |==|  0.39504
USER: genes 9 Torsion [N]-C--CA-[N] |==|  0.37724
USER: genes 10 Torsion [C]-CA--N-[C] |==|  0.87519
USER: genes 11 Torsion [N]-C--CA-[N] |==|  0.76685
USER: genes 12 Torsion [C]-CA--CB-[CG] |==|  0.69829
USER: genes 13 Torsion [CA]-CB--CG-[OD1] |==|  0.75065
USER: genes 14 Torsion [C]-CA--CB-[CG] |==|  0.40461
USER: genes 15 Torsion [CA]-CB--CG-[CD2] |==|  0.10759
ROOT
ATOM      1  C   LEU F 804      11.909 -11.583  29.361  1.00 42.60 LIG 0.24  C 
ATOM      2 O    LEU F 804      11.391 -12.460  30.060  1.00 42.72 LIG-0.27  OA
ATOM      3  N   TYR F 805      11.433 -11.230  28.165  1.00 41.09 LIG-0.35  N 
ATOM      4 H    TYR F 805      11.876 -10.762  27.596  1.00 41.09 LIG 0.16  HD
ENDROOT
BRANCH 3 5
ATOM      5  CA  TYR F 805      10.085 -11.616  27.707  1.00 40.08 LIG 0.18  C 
BRANCH 5 6
ATOM      6  CB  TYR F 805      10.063 -13.114  27.378  1.00 38.23 LIG 0.07  C 
BRANCH 6 7
ATOM      7  CG  TYR F 805       8.980 -13.487  26.395  1.00 36.43 LIG-0.06  A 
ATOM      8  CD2 TYR F 805       9.297 -13.825  25.083  1.00 35.39 LIG 0.01  A 
ATOM      9  CE2 TYR F 805       8.303 -14.154  24.161  1.00 33.62 LIG 0.04  A 
ATOM     10  CZ  TYR F 805       6.979 -14.153  24.554  1.00 33.40 LIG 0.07  A 
ATOM     11  CE1 TYR F 805       6.632 -13.823  25.860  1.00 31.77 LIG 0.04  A 
ATOM     12  CD1 TYR F 805       7.633 -13.491  26.773  1.00 33.46 LIG 0.01  A 
BRANCH 10 13
ATOM     13 OH   TYR F 805       6.010 -14.490  23.636  1.00 32.97 LIG-0.36  OA
ATOM     14 HH   TYR F 805       5.876 -15.319  23.661  1.00 32.97 LIG 0.22  HD
ENDBRANCH 10 13
ENDBRANCH 6 7
ENDBRANCH 5 6
BRANCH 5 15
ATOM     15  C   TYR F 805       8.958 -11.285  28.703  1.00 40.65 LIG 0.24  C 
ATOM     16 O    TYR F 805       9.088 -11.581  29.894  1.00 41.05 LIG-0.27  OA
ATOM     17  N   GLY F 806       7.861 -10.667  28.238  1.00 41.21 LIG-0.35  N 
ATOM     18 H    GLY F 806       7.166 -10.530  28.726  1.00 41.21 LIG 0.16  HD
BRANCH 17 19
ATOM     19  CA  GLY F 806       7.710 -10.156  26.858  1.00 41.66 LIG 0.21  C 
BRANCH 19 20
ATOM     20  C   GLY F 806       6.811  -8.938  26.700  1.00 41.93 LIG 0.21  C 
ATOM     21 O    GLY F 806       7.083  -8.032  25.897  1.00 42.62 LIG-0.29  OA
ENDBRANCH 19 20
ENDBRANCH 17 19
ENDBRANCH 5 15
ENDBRANCH 3 5
BRANCH 1 22
ATOM     22  CA  LEU F 804      13.166 -10.847  29.862  1.00 43.64 LIG 0.18  C 
BRANCH 22 23
ATOM     23  N   LEU F 804      13.134 -10.422  31.262  1.00 45.07 LIG-0.35  N 
ATOM     24  C   ASP F 803      12.071  -9.833  31.799  1.00 46.18 LIG 0.26  C 
ATOM     25 O    ASP F 803      11.008  -9.680  31.182  1.00 46.48 LIG-0.27  OA
ATOM     26 H    LEU F 804      13.858 -10.587  31.696  1.00 45.07 LIG 0.16  HD
BRANCH 24 27
ATOM     27  CA  ASP F 803      12.221  -9.351  33.253  1.00 46.88 LIG 0.41  C 
ATOM     28  N   ASP F 803      11.969 -10.437  34.241  1.00 47.04 LIG 0.61  N 
BRANCH 27 29
ATOM     29  CB  ASP F 803      13.618  -8.763  33.477  1.00 47.42 LIG 0.16  C 
BRANCH 29 30
ATOM     30  CG  ASP F 803      14.505  -9.655  34.347  1.00 48.96 LIG 0.17  C 
ATOM     31 OD1  ASP F 803      14.472  -9.476  35.587  1.00 50.04 LIG-0.65  OA
ATOM     32 OD2  ASP F 803      15.231 -10.525  33.803  1.00 49.91 LIG-0.65  OA
ENDBRANCH 29 30
ENDBRANCH 27 29
ENDBRANCH 24 27
ENDBRANCH 22 23
BRANCH 22 33
ATOM     33  CB  LEU F 804      14.416 -11.698  29.609  1.00 43.69 LIG 0.04  C 
BRANCH 33 34
ATOM     34  CG  LEU F 804      15.773 -11.064  29.252  1.00 43.67 LIG-0.02  C 
ATOM     35  CD2 LEU F 804      15.973  -9.795  30.057  1.00 43.56 LIG 0.01  C 
ATOM     36  CD1 LEU F 804      15.962 -10.803  27.759  1.00 44.06 LIG 0.01  C 
ENDBRANCH 33 34
ENDBRANCH 22 33
ENDBRANCH 1 22
TORSDOF 14
ENDMDL
MODEL 22
USER: ADFR SOLUTION from run 127
USER: SCORE 11.812157 LL:  -2.532 LR:  -9.691 RR:   0.000 FEB:  -5.515
USER: RMSD 4.315022
USER: SEED 126
USER: STATUS no improvement in best in 26 clusters for 5 generations
USER: GENES 16
USER: genes 0 Translation |==|  0.63177 0.42648 0.53958
USER: genes 1 Rotation |==|  0.47864 0.02725 0.36720 0.59175
USER: genes 2 Torsion [C]-N--CA-[CB] |==|  0.76651
USER: genes 3 Torsion [N]-CA--CB-[CG] |==|  0.93127
USER: genes 4 Torsion [CA]-CB--CG-[CD2] |==|  0.77826
USER: genes 5 Torsion [CE2]-CZ--OH-[HH] |==|  0.53501
USER: genes 6 Torsion [N]-CA--C-[N] |==|  0.18122
USER: genes 7 Torsion [C]-N--CA-[C] |==|  0.40213
USER: genes 8 Torsion [N]-CA--C-[O] |==|  0.72554
USER: genes 9 Torsion [N]-C--CA-[N] |==|  0.30158
USER: genes 10 Torsion [C]-CA--N-[C] |==|  0.74668
USER: genes 11 Torsion [N]-C--CA-[N] |==|  0.88157
USER: genes 12 Torsion [C]-CA--CB-[CG] |==|  0.20974
USER: genes 13 Torsion [CA]-CB--CG-[OD1] |==|  0.00995
USER: genes 14 Torsion [C]-CA--CB-[CG] |==|  0.58212
USER: genes 15 Torsion [CA]-CB--CG-[CD2] |==|  0.57778
ROOT
ATOM      1  C   LEU F 804      13.822 -13.045  33.347  1.00 42.60 LIG 0.24  C 
ATOM      2 O    LEU F 804      12.608 -12.834  33.431  1.00 42.72 LIG-0.27  OA
ATOM      3  N   TYR F 805      14.740 -12.098  33.554  1.00 41.09 LIG-0.35  N 
ATOM      4 H    TYR F 805      15.566 -12.177  33.326  1.00 41.09 LIG 0.16  HD
ENDROOT
BRANCH 3 5
ATOM      5  CA  TYR F 805      14.418 -10.813  34.203  1.00 40.08 LIG 0.18  C 
BRANCH 5 6
ATOM      6  CB  TYR F 805      13.861  -9.836  33.159  1.00 38.23 LIG 0.07  C 
BRANCH 6 7
ATOM      7  CG  TYR F 805      14.316 -10.150  31.754  1.00 36.43 LIG-0.06  A 
ATOM      8  CD2 TYR F 805      15.579  -9.769  31.314  1.00 35.39 LIG 0.01  A 
ATOM      9  CE2 TYR F 805      16.003 -10.038  30.013  1.00 33.62 LIG 0.04  A 
ATOM     10  CZ  TYR F 805      15.159 -10.699  29.143  1.00 33.40 LIG 0.07  A 
ATOM     11  CE1 TYR F 805      13.892 -11.096  29.555  1.00 31.77 LIG 0.04  A 
ATOM     12  CD1 TYR F 805      13.475 -10.818  30.857  1.00 33.46 LIG 0.01  A 
BRANCH 10 13
ATOM     13 OH   TYR F 805      15.596 -10.967  27.864  1.00 32.97 LIG-0.36  OA
ATOM     14 HH   TYR F 805      14.946 -11.210  27.391  1.00 32.97 LIG 0.22  HD
ENDBRANCH 10 13
ENDBRANCH 6 7
ENDBRANCH 5 6
BRANCH 5 15
ATOM     15  C   TYR F 805      13.435 -10.928  35.383  1.00 40.65 LIG 0.24  C 
ATOM     16 O    TYR F 805      12.315 -10.418  35.298  1.00 41.05 LIG-0.27  OA
ATOM     17  N   GLY F 806      13.832 -11.598  36.476  1.00 41.21 LIG-0.35  N 
ATOM     18 H    GLY F 806      13.363 -11.627  37.196  1.00 41.21 LIG 0.16  HD
BRANCH 17 19
ATOM     19  CA  GLY F 806      15.099 -12.355  36.579  1.00 41.66 LIG 0.21  C 
BRANCH 19 20
ATOM     20  C   GLY F 806      15.775 -12.330  37.942  1.00 41.93 LIG 0.21  C 
ATOM     21 O    GLY F 806      16.716 -11.557  38.184  1.00 42.62 LIG-0.29  OA
ENDBRANCH 19 20
ENDBRANCH 17 19
ENDBRANCH 5 15
ENDBRANCH 3 5
BRANCH 1 22
ATOM     22  CA  LEU F 804      14.333 -14.452  32.987  1.00 43.64 LIG 0.18  C 
BRANCH 22 23
ATOM     23  N   LEU F 804      14.181 -15.467  34.029  1.00 45.07 LIG-0.35  N 
ATOM     24  C   ASP F 803      15.133 -15.709  34.924  1.00 46.18 LIG 0.26  C 
ATOM     25 O    ASP F 803      16.173 -15.041  34.993  1.00 46.48 LIG-0.27  OA
ATOM     26 H    LEU F 804      13.430 -15.884  34.008  1.00 45.07 LIG 0.16  HD
BRANCH 24 27
ATOM     27  CA  ASP F 803      14.873 -16.874  35.896  1.00 46.88 LIG 0.41  C 
ATOM     28  N   ASP F 803      13.473 -16.888  36.405  1.00 47.04 LIG 0.61  N 
BRANCH 27 29
ATOM     29  CB  ASP F 803      15.190 -18.213  35.221  1.00 47.42 LIG 0.16  C 
BRANCH 29 30
ATOM     30  CG  ASP F 803      16.692 -18.479  35.109  1.00 48.96 LIG 0.17  C 
ATOM     31 OD1  ASP F 803      17.471 -17.642  35.623  1.00 50.04 LIG-0.65  OA
ATOM     32 OD2  ASP F 803      17.096 -19.508  34.512  1.00 49.91 LIG-0.65  OA
ENDBRANCH 29 30
ENDBRANCH 27 29
ENDBRANCH 24 27
ENDBRANCH 22 23
BRANCH 22 33
ATOM     33  CB  LEU F 804      13.673 -14.940  31.691  1.00 43.69 LIG 0.04  C 
BRANCH 33 34
ATOM     34  CG  LEU F 804      13.426 -16.435  31.417  1.00 43.67 LIG-0.02  C 
ATOM     35  CD2 LEU F 804      13.433 -16.691  29.923  1.00 43.56 LIG 0.01  C 
ATOM     36  CD1 LEU F 804      12.153 -16.981  32.062  1.00 44.06 LIG 0.01  C 
ENDBRANCH 33 34
ENDBRANCH 22 33
ENDBRANCH 1 22
TORSDOF 14
ENDMDL
MODEL 23
USER: ADFR SOLUTION from run 168
USER: SCORE 11.849816 LL:  -2.556 LR:  -9.685 RR:   0.000 FEB:  -5.509
USER: RMSD 6.174936
USER: SEED 167
USER: STATUS no improvement in best in 12 clusters for 5 generations
USER: GENES 16
USER: genes 0 Translation |==|  0.50434 0.58436 0.46225
USER: genes 1 Rotation |==|  0.42720 0.35649 0.26131 0.90882
USER: genes 2 Torsion [C]-N--CA-[CB] |==|  0.77712
USER: genes 3 Torsion [N]-CA--CB-[CG] |==|  0.54941
USER: genes 4 Torsion [CA]-CB--CG-[CD2] |==|  0.14843
USER: genes 5 Torsion [CE2]-CZ--OH-[HH] |==|  0.70866
USER: genes 6 Torsion [N]-CA--C-[N] |==|  0.18049
USER: genes 7 Torsion [C]-N--CA-[C] |==|  0.47776
USER: genes 8 Torsion [N]-CA--C-[O] |==|  0.78684
USER: genes 9 Torsion [N]-C--CA-[N] |==|  0.32779
USER: genes 10 Torsion [C]-CA--N-[C] |==|  0.76222
USER: genes 11 Torsion [N]-C--CA-[N] |==|  0.63127
USER: genes 12 Torsion [C]-CA--CB-[CG] |==|  0.29297
USER: genes 13 Torsion [CA]-CB--CG-[OD1] |==|  0.92899
USER: genes 14 Torsion [C]-CA--CB-[CG] |==|  0.44634
USER: genes 15 Torsion [CA]-CB--CG-[CD2] |==|  0.24630
ROOT
ATOM      1  C   LEU F 804      11.911  -9.848  31.956  1.00 42.60 LIG 0.24  C 
ATOM      2 O    LEU F 804      12.209 -10.428  33.005  1.00 42.72 LIG-0.27  OA
ATOM      3  N   TYR F 805      12.529  -8.742  31.535  1.00 41.09 LIG-0.35  N 
ATOM      4 H    TYR F 805      12.221  -8.231  30.916  1.00 41.09 LIG 0.16  HD
ENDROOT
BRANCH 3 5
ATOM      5  CA  TYR F 805      13.814  -8.290  32.103  1.00 40.08 LIG 0.18  C 
BRANCH 5 6
ATOM      6  CB  TYR F 805      13.562  -7.563  33.430  1.00 38.23 LIG 0.07  C 
BRANCH 6 7
ATOM      7  CG  TYR F 805      14.727  -6.709  33.866  1.00 36.43 LIG-0.06  A 
ATOM      8  CD2 TYR F 805      15.268  -5.755  33.010  1.00 35.39 LIG 0.01  A 
ATOM      9  CE2 TYR F 805      16.357  -4.972  33.396  1.00 33.62 LIG 0.04  A 
ATOM     10  CZ  TYR F 805      16.907  -5.139  34.651  1.00 33.40 LIG 0.07  A 
ATOM     11  CE1 TYR F 805      16.384  -6.081  35.531  1.00 31.77 LIG 0.04  A 
ATOM     12  CD1 TYR F 805      15.299  -6.862  35.134  1.00 33.46 LIG 0.01  A 
BRANCH 10 13
ATOM     13 OH   TYR F 805      17.975  -4.351  35.021  1.00 32.97 LIG-0.36  OA
ATOM     14 HH   TYR F 805      18.680  -4.806  34.997  1.00 32.97 LIG 0.22  HD
ENDBRANCH 10 13
ENDBRANCH 6 7
ENDBRANCH 5 6
BRANCH 5 15
ATOM     15  C   TYR F 805      14.844  -9.416  32.314  1.00 40.65 LIG 0.24  C 
ATOM     16 O    TYR F 805      15.197  -9.715  33.457  1.00 41.05 LIG-0.27  OA
ATOM     17  N   GLY F 806      15.321 -10.050  31.232  1.00 41.21 LIG-0.35  N 
ATOM     18 H    GLY F 806      15.956 -10.628  31.277  1.00 41.21 LIG 0.16  HD
BRANCH 17 19
ATOM     19  CA  GLY F 806      14.827  -9.839  29.853  1.00 41.66 LIG 0.21  C 
BRANCH 19 20
ATOM     20  C   GLY F 806      15.632 -10.517  28.752  1.00 41.93 LIG 0.21  C 
ATOM     21 O    GLY F 806      16.717 -10.056  28.367  1.00 42.62 LIG-0.29  OA
ENDBRANCH 19 20
ENDBRANCH 17 19
ENDBRANCH 5 15
ENDBRANCH 3 5
BRANCH 1 22
ATOM     22  CA  LEU F 804      10.778 -10.399  31.071  1.00 43.64 LIG 0.18  C 
BRANCH 22 23
ATOM     23  N   LEU F 804      10.993 -11.740  30.528  1.00 45.07 LIG-0.35  N 
ATOM     24  C   ASP F 803      11.664 -11.946  29.399  1.00 46.18 LIG 0.26  C 
ATOM     25 O    ASP F 803      12.222 -11.034  28.776  1.00 46.48 LIG-0.27  OA
ATOM     26 H    LEU F 804      10.650 -12.371  31.001  1.00 45.07 LIG 0.16  HD
BRANCH 24 27
ATOM     27  CA  ASP F 803      11.723 -13.401  28.899  1.00 46.88 LIG 0.41  C 
ATOM     28  N   ASP F 803      13.101 -13.813  28.510  1.00 47.04 LIG 0.61  N 
BRANCH 27 29
ATOM     29  CB  ASP F 803      11.181 -14.355  29.968  1.00 47.42 LIG 0.16  C 
BRANCH 29 30
ATOM     30  CG  ASP F 803       9.787 -14.888  29.635  1.00 48.96 LIG 0.17  C 
ATOM     31 OD1  ASP F 803       9.060 -14.190  28.889  1.00 50.04 LIG-0.65  OA
ATOM     32 OD2  ASP F 803       9.414 -15.989  30.113  1.00 49.91 LIG-0.65  OA
ENDBRANCH 29 30
ENDBRANCH 27 29
ENDBRANCH 24 27
ENDBRANCH 22 23
BRANCH 22 33
ATOM     33  CB  LEU F 804       9.445 -10.357  31.830  1.00 43.69 LIG 0.04  C 
BRANCH 33 34
ATOM     34  CG  LEU F 804       8.091 -10.420  31.099  1.00 43.67 LIG-0.02  C 
ATOM     35  CD2 LEU F 804       7.668 -11.865  30.926  1.00 43.56 LIG 0.01  C 
ATOM     36  CD1 LEU F 804       8.073  -9.679  29.763  1.00 44.06 LIG 0.01  C 
ENDBRANCH 33 34
ENDBRANCH 22 33
ENDBRANCH 1 22
TORSDOF 14
ENDMDL
MODEL 24
USER: ADFR SOLUTION from run 22
USER: SCORE 10.235825 LL:  -2.217 LR:  -9.658 RR:   0.000 FEB:  -5.482
USER: RMSD 7.710143
USER: SEED 21
USER: STATUS no improvement in best in 12 clusters for 5 generations
USER: GENES 16
USER: genes 0 Translation |==|  0.59911 0.42513 0.36419
USER: genes 1 Rotation |==|  0.94918 0.50601 0.32952 0.63835
USER: genes 2 Torsion [C]-N--CA-[CB] |==|  0.45367
USER: genes 3 Torsion [N]-CA--CB-[CG] |==|  0.34040
USER: genes 4 Torsion [CA]-CB--CG-[CD2] |==|  0.22700
USER: genes 5 Torsion [CE2]-CZ--OH-[HH] |==|  0.68175
USER: genes 6 Torsion [N]-CA--C-[N] |==|  0.90171
USER: genes 7 Torsion [C]-N--CA-[C] |==|  0.36633
USER: genes 8 Torsion [N]-CA--C-[O] |==|  0.30155
USER: genes 9 Torsion [N]-C--CA-[N] |==|  0.11622
USER: genes 10 Torsion [C]-CA--N-[C] |==|  0.64467
USER: genes 11 Torsion [N]-C--CA-[N] |==|  0.50213
USER: genes 12 Torsion [C]-CA--CB-[CG] |==|  0.36830
USER: genes 13 Torsion [CA]-CB--CG-[OD1] |==|  0.99292
USER: genes 14 Torsion [C]-CA--CB-[CG] |==|  0.81493
USER: genes 15 Torsion [CA]-CB--CG-[CD2] |==|  0.72994
ROOT
ATOM      1  C   LEU F 804      13.333 -13.072  30.190  1.00 42.60 LIG 0.24  C 
ATOM      2 O    LEU F 804      13.956 -13.489  29.208  1.00 42.72 LIG-0.27  OA
ATOM      3  N   TYR F 805      12.933 -13.864  31.188  1.00 41.09 LIG-0.35  N 
ATOM      4 H    TYR F 805      12.352 -13.630  31.777  1.00 41.09 LIG 0.16  HD
ENDROOT
BRANCH 3 5
ATOM      5  CA  TYR F 805      13.460 -15.229  31.373  1.00 40.08 LIG 0.18  C 
BRANCH 5 6
ATOM      6  CB  TYR F 805      13.143 -15.715  32.793  1.00 38.23 LIG 0.07  C 
BRANCH 6 7
ATOM      7  CG  TYR F 805      12.344 -16.994  32.815  1.00 36.43 LIG-0.06  A 
ATOM      8  CD2 TYR F 805      12.971 -18.227  32.664  1.00 35.39 LIG 0.01  A 
ATOM      9  CE2 TYR F 805      12.240 -19.415  32.664  1.00 33.62 LIG 0.04  A 
ATOM     10  CZ  TYR F 805      10.870 -19.373  32.824  1.00 33.40 LIG 0.07  A 
ATOM     11  CE1 TYR F 805      10.215 -18.157  32.982  1.00 31.77 LIG 0.04  A 
ATOM     12  CD1 TYR F 805      10.953 -16.974  32.976  1.00 33.46 LIG 0.01  A 
BRANCH 10 13
ATOM     13 OH   TYR F 805      10.163 -20.556  32.833  1.00 32.97 LIG-0.36  OA
ATOM     14 HH   TYR F 805       9.657 -20.585  32.164  1.00 32.97 LIG 0.22  HD
ENDBRANCH 10 13
ENDBRANCH 6 7
ENDBRANCH 5 6
BRANCH 5 15
ATOM     15  C   TYR F 805      12.943 -16.253  30.345  1.00 40.65 LIG 0.24  C 
ATOM     16 O    TYR F 805      13.686 -17.156  29.955  1.00 41.05 LIG-0.27  OA
ATOM     17  N   GLY F 806      11.679 -16.132  29.911  1.00 41.21 LIG-0.35  N 
ATOM     18 H    GLY F 806      11.358 -16.619  29.280  1.00 41.21 LIG 0.16  HD
BRANCH 17 19
ATOM     19  CA  GLY F 806      10.697 -15.165  30.451  1.00 41.66 LIG 0.21  C 
BRANCH 19 20
ATOM     20  C   GLY F 806       9.932 -14.352  29.416  1.00 41.93 LIG 0.21  C 
ATOM     21 O    GLY F 806       8.729 -14.556  29.194  1.00 42.62 LIG-0.29  OA
ENDBRANCH 19 20
ENDBRANCH 17 19
ENDBRANCH 5 15
ENDBRANCH 3 5
BRANCH 1 22
ATOM     22  CA  LEU F 804      12.983 -11.576  30.296  1.00 43.64 LIG 0.18  C 
BRANCH 22 23
ATOM     23  N   LEU F 804      13.152 -10.979  31.621  1.00 45.07 LIG-0.35  N 
ATOM     24  C   ASP F 803      12.183 -10.291  32.215  1.00 46.18 LIG 0.26  C 
ATOM     25 O    ASP F 803      11.049 -10.178  31.733  1.00 46.48 LIG-0.27  OA
ATOM     26 H    LEU F 804      13.926 -11.113  31.971  1.00 45.07 LIG 0.16  HD
BRANCH 24 27
ATOM     27  CA  ASP F 803      12.541  -9.636  33.561  1.00 46.88 LIG 0.41  C 
ATOM     28  N   ASP F 803      11.391  -8.903  34.161  1.00 47.04 LIG 0.61  N 
BRANCH 27 29
ATOM     29  CB  ASP F 803      13.053 -10.690  34.548  1.00 47.42 LIG 0.16  C 
BRANCH 29 30
ATOM     30  CG  ASP F 803      14.340 -10.263  35.257  1.00 48.96 LIG 0.17  C 
ATOM     31 OD1  ASP F 803      14.846  -9.163  34.931  1.00 50.04 LIG-0.65  OA
ATOM     32 OD2  ASP F 803      14.846 -11.015  36.127  1.00 49.91 LIG-0.65  OA
ENDBRANCH 29 30
ENDBRANCH 27 29
ENDBRANCH 24 27
ENDBRANCH 22 23
BRANCH 22 33
ATOM     33  CB  LEU F 804      13.778 -10.771  29.260  1.00 43.69 LIG 0.04  C 
BRANCH 33 34
ATOM     34  CG  LEU F 804      15.308 -10.630  29.341  1.00 43.67 LIG-0.02  C 
ATOM     35  CD2 LEU F 804      15.669  -9.319  30.010  1.00 43.56 LIG 0.01  C 
ATOM     36  CD1 LEU F 804      16.016 -10.772  27.994  1.00 44.06 LIG 0.01  C 
ENDBRANCH 33 34
ENDBRANCH 22 33
ENDBRANCH 1 22
TORSDOF 14
ENDMDL
MODEL 25
USER: ADFR SOLUTION from run 193
USER: SCORE 11.288620 LL:  -3.147 LR:  -9.643 RR:   0.000 FEB:  -5.466
USER: RMSD 5.607244
USER: SEED 192
USER: STATUS no improvement in best in 6 clusters for 5 generations
USER: GENES 16
USER: genes 0 Translation |==|  0.55584 0.40236 0.45304
USER: genes 1 Rotation |==|  0.55474 0.13328 0.65395 0.79803
USER: genes 2 Torsion [C]-N--CA-[CB] |==|  0.23563
USER: genes 3 Torsion [N]-CA--CB-[CG] |==|  0.09899
USER: genes 4 Torsion [CA]-CB--CG-[CD2] |==|  0.13541
USER: genes 5 Torsion [CE2]-CZ--OH-[HH] |==|  0.26331
USER: genes 6 Torsion [N]-CA--C-[N] |==|  0.30423
USER: genes 7 Torsion [C]-N--CA-[C] |==|  0.73593
USER: genes 8 Torsion [N]-CA--C-[O] |==|  0.96228
USER: genes 9 Torsion [N]-C--CA-[N] |==|  0.51845
USER: genes 10 Torsion [C]-CA--N-[C] |==|  0.78855
USER: genes 11 Torsion [N]-C--CA-[N] |==|  0.97714
USER: genes 12 Torsion [C]-CA--CB-[CG] |==|  0.67843
USER: genes 13 Torsion [CA]-CB--CG-[OD1] |==|  0.32081
USER: genes 14 Torsion [C]-CA--CB-[CG] |==|  0.86908
USER: genes 15 Torsion [CA]-CB--CG-[CD2] |==|  0.63191
ROOT
ATOM      1  C   LEU F 804      12.684 -13.533  31.790  1.00 42.60 LIG 0.24  C 
ATOM      2 O    LEU F 804      12.022 -13.546  32.833  1.00 42.72 LIG-0.27  OA
ATOM      3  N   TYR F 805      12.304 -12.869  30.696  1.00 41.09 LIG-0.35  N 
ATOM      4 H    TYR F 805      12.650 -12.995  29.919  1.00 41.09 LIG 0.16  HD
ENDROOT
BRANCH 3 5
ATOM      5  CA  TYR F 805      11.243 -11.845  30.722  1.00 40.08 LIG 0.18  C 
BRANCH 5 6
ATOM      6  CB  TYR F 805      11.843 -10.493  31.133  1.00 38.23 LIG 0.07  C 
BRANCH 6 7
ATOM      7  CG  TYR F 805      13.238 -10.280  30.600  1.00 36.43 LIG-0.06  A 
ATOM      8  CD2 TYR F 805      13.530 -10.511  29.259  1.00 35.39 LIG 0.01  A 
ATOM      9  CE2 TYR F 805      14.820 -10.334  28.759  1.00 33.62 LIG 0.04  A 
ATOM     10  CZ  TYR F 805      15.829  -9.918  29.605  1.00 33.40 LIG 0.07  A 
ATOM     11  CE1 TYR F 805      15.568  -9.676  30.949  1.00 31.77 LIG 0.04  A 
ATOM     12  CD1 TYR F 805      14.275  -9.859  31.440  1.00 33.46 LIG 0.01  A 
BRANCH 10 13
ATOM     13 OH   TYR F 805      17.096  -9.738  29.094  1.00 32.97 LIG-0.36  OA
ATOM     14 HH   TYR F 805      17.202  -8.931  28.886  1.00 32.97 LIG 0.22  HD
ENDBRANCH 10 13
ENDBRANCH 6 7
ENDBRANCH 5 6
BRANCH 5 15
ATOM     15  C   TYR F 805      10.476 -11.692  29.395  1.00 40.65 LIG 0.24  C 
ATOM     16 O    TYR F 805      11.042 -11.201  28.415  1.00 41.05 LIG-0.27  OA
ATOM     17  N   GLY F 806       9.204 -12.114  29.346  1.00 41.21 LIG-0.35  N 
ATOM     18 H    GLY F 806       8.699 -11.983  28.662  1.00 41.21 LIG 0.16  HD
BRANCH 17 19
ATOM     19  CA  GLY F 806       8.521 -12.844  30.437  1.00 41.66 LIG 0.21  C 
BRANCH 19 20
ATOM     20  C   GLY F 806       8.530 -14.362  30.323  1.00 41.93 LIG 0.21  C 
ATOM     21 O    GLY F 806       8.850 -14.930  29.268  1.00 42.62 LIG-0.29  OA
ENDBRANCH 19 20
ENDBRANCH 17 19
ENDBRANCH 5 15
ENDBRANCH 3 5
BRANCH 1 22
ATOM     22  CA  LEU F 804      14.010 -14.312  31.714  1.00 43.64 LIG 0.18  C 
BRANCH 22 23
ATOM     23  N   LEU F 804      14.320 -15.149  32.874  1.00 45.07 LIG-0.35  N 
ATOM     24  C   ASP F 803      14.759 -14.636  34.018  1.00 46.18 LIG 0.26  C 
ATOM     25 O    ASP F 803      14.857 -13.417  34.212  1.00 46.48 LIG-0.27  OA
ATOM     26 H    LEU F 804      14.192 -15.989  32.745  1.00 45.07 LIG 0.16  HD
BRANCH 24 27
ATOM     27  CA  ASP F 803      15.140 -15.647  35.115  1.00 46.88 LIG 0.41  C 
ATOM     28  N   ASP F 803      14.759 -17.043  34.758  1.00 47.04 LIG 0.61  N 
BRANCH 27 29
ATOM     29  CB  ASP F 803      16.642 -15.580  35.404  1.00 47.42 LIG 0.16  C 
BRANCH 29 30
ATOM     30  CG  ASP F 803      17.373 -16.876  35.052  1.00 48.96 LIG 0.17  C 
ATOM     31 OD1  ASP F 803      18.227 -16.832  34.135  1.00 50.04 LIG-0.65  OA
ATOM     32 OD2  ASP F 803      17.099 -17.931  35.677  1.00 49.91 LIG-0.65  OA
ENDBRANCH 29 30
ENDBRANCH 27 29
ENDBRANCH 24 27
ENDBRANCH 22 23
BRANCH 22 33
ATOM     33  CB  LEU F 804      14.054 -15.162  30.437  1.00 43.69 LIG 0.04  C 
BRANCH 33 34
ATOM     34  CG  LEU F 804      12.868 -16.044  30.007  1.00 43.67 LIG-0.02  C 
ATOM     35  CD2 LEU F 804      13.365 -17.427  29.635  1.00 43.56 LIG 0.01  C 
ATOM     36  CD1 LEU F 804      12.024 -15.445  28.885  1.00 44.06 LIG 0.01  C 
ENDBRANCH 33 34
ENDBRANCH 22 33
ENDBRANCH 1 22
TORSDOF 14
ENDMDL
MODEL 26
USER: ADFR SOLUTION from run 79
USER: SCORE 12.424410 LL:  -2.863 LR:  -9.633 RR:   0.000 FEB:  -5.456
USER: RMSD 6.332017
USER: SEED 78
USER: STATUS no improvement in best in 18 clusters for 5 generations
USER: GENES 16
USER: genes 0 Translation |==|  0.63817 0.31453 0.43579
USER: genes 1 Rotation |==|  0.21809 0.78364 0.44589 0.79520
USER: genes 2 Torsion [C]-N--CA-[CB] |==|  0.81606
USER: genes 3 Torsion [N]-CA--CB-[CG] |==|  0.81151
USER: genes 4 Torsion [CA]-CB--CG-[CD2] |==|  0.03037
USER: genes 5 Torsion [CE2]-CZ--OH-[HH] |==|  0.56184
USER: genes 6 Torsion [N]-CA--C-[N] |==|  0.44444
USER: genes 7 Torsion [C]-N--CA-[C] |==|  0.49378
USER: genes 8 Torsion [N]-CA--C-[O] |==|  0.92498
USER: genes 9 Torsion [N]-C--CA-[N] |==|  0.97620
USER: genes 10 Torsion [C]-CA--N-[C] |==|  0.78728
USER: genes 11 Torsion [N]-C--CA-[N] |==|  0.24593
USER: genes 12 Torsion [C]-CA--CB-[CG] |==|  0.78542
USER: genes 13 Torsion [CA]-CB--CG-[OD1] |==|  0.41982
USER: genes 14 Torsion [C]-CA--CB-[CG] |==|  0.93162
USER: genes 15 Torsion [CA]-CB--CG-[CD2] |==|  0.78625
ROOT
ATOM      1  C   LEU F 804      13.919 -15.312  31.479  1.00 42.60 LIG 0.24  C 
ATOM      2 O    LEU F 804      14.647 -15.960  30.721  1.00 42.72 LIG-0.27  OA
ATOM      3  N   TYR F 805      13.128 -14.322  31.058  1.00 41.09 LIG-0.35  N 
ATOM      4 H    TYR F 805      12.760 -13.750  31.585  1.00 41.09 LIG 0.16  HD
ENDROOT
BRANCH 3 5
ATOM      5  CA  TYR F 805      12.809 -14.118  29.632  1.00 40.08 LIG 0.18  C 
BRANCH 5 6
ATOM      6  CB  TYR F 805      14.081 -13.717  28.874  1.00 38.23 LIG 0.07  C 
BRANCH 6 7
ATOM      7  CG  TYR F 805      14.594 -12.352  29.260  1.00 36.43 LIG-0.06  A 
ATOM      8  CD2 TYR F 805      14.075 -11.684  30.364  1.00 35.39 LIG 0.01  A 
ATOM      9  CE2 TYR F 805      14.529 -10.413  30.720  1.00 33.62 LIG 0.04  A 
ATOM     10  CZ  TYR F 805      15.517  -9.806  29.970  1.00 33.40 LIG 0.07  A 
ATOM     11  CE1 TYR F 805      16.058 -10.451  28.863  1.00 31.77 LIG 0.04  A 
ATOM     12  CD1 TYR F 805      15.594 -11.718  28.512  1.00 33.46 LIG 0.01  A 
BRANCH 10 13
ATOM     13 OH   TYR F 805      15.962  -8.556  30.340  1.00 32.97 LIG-0.36  OA
ATOM     14 HH   TYR F 805      16.311  -8.175  29.677  1.00 32.97 LIG 0.22  HD
ENDBRANCH 10 13
ENDBRANCH 6 7
ENDBRANCH 5 6
BRANCH 5 15
ATOM     15  C   TYR F 805      12.156 -15.334  28.948  1.00 40.65 LIG 0.24  C 
ATOM     16 O    TYR F 805      12.266 -16.452  29.456  1.00 41.05 LIG-0.27  OA
ATOM     17  N   GLY F 806      11.471 -15.130  27.813  1.00 41.21 LIG-0.35  N 
ATOM     18 H    GLY F 806      11.154 -15.776  27.342  1.00 41.21 LIG 0.16  HD
BRANCH 17 19
ATOM     19  CA  GLY F 806      11.179 -13.798  27.239  1.00 41.66 LIG 0.21  C 
BRANCH 19 20
ATOM     20  C   GLY F 806      10.431 -13.799  25.913  1.00 41.93 LIG 0.21  C 
ATOM     21 O    GLY F 806      10.515 -14.753  25.124  1.00 42.62 LIG-0.29  OA
ENDBRANCH 19 20
ENDBRANCH 17 19
ENDBRANCH 5 15
ENDBRANCH 3 5
BRANCH 1 22
ATOM     22  CA  LEU F 804      13.901 -15.633  32.985  1.00 43.64 LIG 0.18  C 
BRANCH 22 23
ATOM     23  N   LEU F 804      13.164 -14.690  33.826  1.00 45.07 LIG-0.35  N 
ATOM     24  C   ASP F 803      13.659 -13.502  34.157  1.00 46.18 LIG 0.26  C 
ATOM     25 O    ASP F 803      14.734 -13.077  33.713  1.00 46.48 LIG-0.27  OA
ATOM     26 H    LEU F 804      12.393 -14.973  34.080  1.00 45.07 LIG 0.16  HD
BRANCH 24 27
ATOM     27  CA  ASP F 803      12.813 -12.660  35.129  1.00 46.88 LIG 0.41  C 
ATOM     28  N   ASP F 803      13.133 -12.946  36.556  1.00 47.04 LIG 0.61  N 
BRANCH 27 29
ATOM     29  CB  ASP F 803      13.004 -11.166  34.846  1.00 47.42 LIG 0.16  C 
BRANCH 29 30
ATOM     30  CG  ASP F 803      14.325 -10.624  35.392  1.00 48.96 LIG 0.17  C 
ATOM     31 OD1  ASP F 803      14.846  -9.652  34.794  1.00 50.04 LIG-0.65  OA
ATOM     32 OD2  ASP F 803      14.845 -11.159  36.403  1.00 49.91 LIG-0.65  OA
ENDBRANCH 29 30
ENDBRANCH 27 29
ENDBRANCH 24 27
ENDBRANCH 22 23
BRANCH 22 33
ATOM     33  CB  LEU F 804      13.373 -17.055  33.218  1.00 43.69 LIG 0.04  C 
BRANCH 33 34
ATOM     34  CG  LEU F 804      12.449 -17.755  32.205  1.00 43.67 LIG-0.02  C 
ATOM     35  CD2 LEU F 804      11.041 -17.208  32.331  1.00 43.56 LIG 0.01  C 
ATOM     36  CD1 LEU F 804      12.458 -19.279  32.307  1.00 44.06 LIG 0.01  C 
ENDBRANCH 33 34
ENDBRANCH 22 33
ENDBRANCH 1 22
TORSDOF 14
ENDMDL
MODEL 27
USER: ADFR SOLUTION from run 175
USER: SCORE 10.783469 LL:  -2.401 LR:  -9.619 RR:   0.000 FEB:  -5.442
USER: RMSD 8.248388
USER: SEED 174
USER: STATUS no improvement in best in 19 clusters for 5 generations
USER: GENES 16
USER: genes 0 Translation |==|  0.72722 0.71001 0.61966
USER: genes 1 Rotation |==|  0.79207 0.23843 0.80327 0.56560
USER: genes 2 Torsion [C]-N--CA-[CB] |==|  0.49444
USER: genes 3 Torsion [N]-CA--CB-[CG] |==|  0.26348
USER: genes 4 Torsion [CA]-CB--CG-[CD2] |==|  0.80253
USER: genes 5 Torsion [CE2]-CZ--OH-[HH] |==|  0.62944
USER: genes 6 Torsion [N]-CA--C-[N] |==|  0.45281
USER: genes 7 Torsion [C]-N--CA-[C] |==|  0.36475
USER: genes 8 Torsion [N]-CA--C-[O] |==|  0.53540
USER: genes 9 Torsion [N]-C--CA-[N] |==|  0.56503
USER: genes 10 Torsion [C]-CA--N-[C] |==|  0.73161
USER: genes 11 Torsion [N]-C--CA-[N] |==|  0.26981
USER: genes 12 Torsion [C]-CA--CB-[CG] |==|  0.17205
USER: genes 13 Torsion [CA]-CB--CG-[OD1] |==|  0.55559
USER: genes 14 Torsion [C]-CA--CB-[CG] |==|  0.27571
USER: genes 15 Torsion [CA]-CB--CG-[CD2] |==|  0.26442
ROOT
ATOM      1  C   LEU F 804      15.254  -7.303  34.789  1.00 42.60 LIG 0.24  C 
ATOM      2 O    LEU F 804      15.174  -8.172  35.664  1.00 42.72 LIG-0.27  OA
ATOM      3  N   TYR F 805      14.668  -7.417  33.595  1.00 41.09 LIG-0.35  N 
ATOM      4 H    TYR F 805      14.860  -6.919  32.921  1.00 41.09 LIG 0.16  HD
ENDROOT
BRANCH 3 5
ATOM      5  CA  TYR F 805      13.623  -8.422  33.321  1.00 40.08 LIG 0.18  C 
BRANCH 5 6
ATOM      6  CB  TYR F 805      13.120  -8.261  31.880  1.00 38.23 LIG 0.07  C 
BRANCH 6 7
ATOM      7  CG  TYR F 805      13.820  -9.176  30.906  1.00 36.43 LIG-0.06  A 
ATOM      8  CD2 TYR F 805      15.147  -8.956  30.551  1.00 35.39 LIG 0.01  A 
ATOM      9  CE2 TYR F 805      15.798  -9.785  29.637  1.00 33.62 LIG 0.04  A 
ATOM     10  CZ  TYR F 805      15.119 -10.848  29.076  1.00 33.40 LIG 0.07  A 
ATOM     11  CE1 TYR F 805      13.793 -11.096  29.414  1.00 31.77 LIG 0.04  A 
ATOM     12  CD1 TYR F 805      13.149 -10.259  30.325  1.00 33.46 LIG 0.01  A 
BRANCH 10 13
ATOM     13 OH   TYR F 805      15.779 -11.664  28.183  1.00 32.97 LIG-0.36  OA
ATOM     14 HH   TYR F 805      15.293 -11.793  27.509  1.00 32.97 LIG 0.22  HD
ENDBRANCH 10 13
ENDBRANCH 6 7
ENDBRANCH 5 6
BRANCH 5 15
ATOM     15  C   TYR F 805      14.065  -9.878  33.559  1.00 40.65 LIG 0.24  C 
ATOM     16 O    TYR F 805      15.266 -10.145  33.646  1.00 41.05 LIG-0.27  OA
ATOM     17  N   GLY F 806      13.115 -10.818  33.676  1.00 41.21 LIG-0.35  N 
ATOM     18 H    GLY F 806      13.299 -11.657  33.727  1.00 41.21 LIG 0.16  HD
BRANCH 17 19
ATOM     19  CA  GLY F 806      11.663 -10.539  33.729  1.00 41.66 LIG 0.21  C 
BRANCH 19 20
ATOM     20  C   GLY F 806      10.794 -11.375  32.800  1.00 41.93 LIG 0.21  C 
ATOM     21 O    GLY F 806       9.609 -11.081  32.583  1.00 42.62 LIG-0.29  OA
ENDBRANCH 19 20
ENDBRANCH 17 19
ENDBRANCH 5 15
ENDBRANCH 3 5
BRANCH 1 22
ATOM     22  CA  LEU F 804      16.064  -6.021  35.055  1.00 43.64 LIG 0.18  C 
BRANCH 22 23
ATOM     23  N   LEU F 804      17.098  -6.127  36.084  1.00 45.07 LIG-0.35  N 
ATOM     24  C   ASP F 803      16.887  -5.746  37.340  1.00 46.18 LIG 0.26  C 
ATOM     25 O    ASP F 803      15.784  -5.357  37.745  1.00 46.48 LIG-0.27  OA
ATOM     26 H    LEU F 804      17.842  -6.453  35.803  1.00 45.07 LIG 0.16  HD
BRANCH 24 27
ATOM     27  CA  ASP F 803      18.099  -5.822  38.286  1.00 46.88 LIG 0.41  C 
ATOM     28  N   ASP F 803      18.790  -4.510  38.432  1.00 47.04 LIG 0.61  N 
BRANCH 27 29
ATOM     29  CB  ASP F 803      17.669  -6.336  39.664  1.00 47.42 LIG 0.16  C 
BRANCH 29 30
ATOM     30  CG  ASP F 803      17.091  -7.751  39.615  1.00 48.96 LIG 0.17  C 
ATOM     31 OD1  ASP F 803      16.372  -8.119  40.574  1.00 50.04 LIG-0.65  OA
ATOM     32 OD2  ASP F 803      17.351  -8.493  38.635  1.00 49.91 LIG-0.65  OA
ENDBRANCH 29 30
ENDBRANCH 27 29
ENDBRANCH 24 27
ENDBRANCH 22 23
BRANCH 22 33
ATOM     33  CB  LEU F 804      16.685  -5.505  33.750  1.00 43.69 LIG 0.04  C 
BRANCH 33 34
ATOM     34  CG  LEU F 804      16.046  -4.360  32.943  1.00 43.67 LIG-0.02  C 
ATOM     35  CD2 LEU F 804      16.691  -3.042  33.323  1.00 43.56 LIG 0.01  C 
ATOM     36  CD1 LEU F 804      14.525  -4.285  33.071  1.00 44.06 LIG 0.01  C 
ENDBRANCH 33 34
ENDBRANCH 22 33
ENDBRANCH 1 22
TORSDOF 14
ENDMDL
MODEL 28
USER: ADFR SOLUTION from run 180
USER: SCORE 11.397691 LL:  -2.888 LR:  -9.591 RR:   0.000 FEB:  -5.415
USER: RMSD 5.495188
USER: SEED 179
USER: STATUS no improvement in best in 21 clusters for 5 generations
USER: GENES 16
USER: genes 0 Translation |==|  0.46842 0.51701 0.42057
USER: genes 1 Rotation |==|  0.64944 0.90727 0.72236 0.61116
USER: genes 2 Torsion [C]-N--CA-[CB] |==|  0.79400
USER: genes 3 Torsion [N]-CA--CB-[CG] |==|  0.93726
USER: genes 4 Torsion [CA]-CB--CG-[CD2] |==|  0.76223
USER: genes 5 Torsion [CE2]-CZ--OH-[HH] |==|  0.38275
USER: genes 6 Torsion [N]-CA--C-[N] |==|  0.48544
USER: genes 7 Torsion [C]-N--CA-[C] |==|  0.83064
USER: genes 8 Torsion [N]-CA--C-[O] |==|  0.32040
USER: genes 9 Torsion [N]-C--CA-[N] |==|  0.60556
USER: genes 10 Torsion [C]-CA--N-[C] |==|  0.57211
USER: genes 11 Torsion [N]-C--CA-[N] |==|  0.24667
USER: genes 12 Torsion [C]-CA--CB-[CG] |==|  0.58524
USER: genes 13 Torsion [CA]-CB--CG-[OD1] |==|  0.15046
USER: genes 14 Torsion [C]-CA--CB-[CG] |==|  0.67792
USER: genes 15 Torsion [CA]-CB--CG-[CD2] |==|  0.56357
ROOT
ATOM      1  C   LEU F 804      11.372 -11.212  31.205  1.00 42.60 LIG 0.24  C 
ATOM      2 O    LEU F 804      10.813 -10.160  30.876  1.00 42.72 LIG-0.27  OA
ATOM      3  N   TYR F 805      12.273 -11.279  32.188  1.00 41.09 LIG-0.35  N 
ATOM      4 H    TYR F 805      12.798 -11.951  32.307  1.00 41.09 LIG 0.16  HD
ENDROOT
BRANCH 3 5
ATOM      5  CA  TYR F 805      12.453 -10.195  33.171  1.00 40.08 LIG 0.18  C 
BRANCH 5 6
ATOM      6  CB  TYR F 805      13.177  -9.015  32.510  1.00 38.23 LIG 0.07  C 
BRANCH 6 7
ATOM      7  CG  TYR F 805      13.976  -9.419  31.295  1.00 36.43 LIG-0.06  A 
ATOM      8  CD2 TYR F 805      15.277  -9.893  31.425  1.00 35.39 LIG 0.01  A 
ATOM      9  CE2 TYR F 805      16.031 -10.252  30.307  1.00 33.62 LIG 0.04  A 
ATOM     10  CZ  TYR F 805      15.478 -10.142  29.046  1.00 33.40 LIG 0.07  A 
ATOM     11  CE1 TYR F 805      14.178  -9.675  28.885  1.00 31.77 LIG 0.04  A 
ATOM     12  CD1 TYR F 805      13.434  -9.314  30.008  1.00 33.46 LIG 0.01  A 
BRANCH 10 13
ATOM     13 OH   TYR F 805      16.231 -10.511  27.953  1.00 32.97 LIG-0.36  OA
ATOM     14 HH   TYR F 805      15.752 -10.942  27.415  1.00 32.97 LIG 0.22  HD
ENDBRANCH 10 13
ENDBRANCH 6 7
ENDBRANCH 5 6
BRANCH 5 15
ATOM     15  C   TYR F 805      11.144  -9.704  33.820  1.00 40.65 LIG 0.24  C 
ATOM     16 O    TYR F 805      10.064 -10.158  33.435  1.00 41.05 LIG-0.27  OA
ATOM     17  N   GLY F 806      11.226  -8.795  34.803  1.00 41.21 LIG-0.35  N 
ATOM     18 H    GLY F 806      10.531  -8.423  35.147  1.00 41.21 LIG 0.16  HD
BRANCH 17 19
ATOM     19  CA  GLY F 806      12.493  -8.327  35.407  1.00 41.66 LIG 0.21  C 
BRANCH 19 20
ATOM     20  C   GLY F 806      13.335  -9.397  36.088  1.00 41.93 LIG 0.21  C 
ATOM     21 O    GLY F 806      14.458  -9.705  35.660  1.00 42.62 LIG-0.29  OA
ENDBRANCH 19 20
ENDBRANCH 17 19
ENDBRANCH 5 15
ENDBRANCH 3 5
BRANCH 1 22
ATOM     22  CA  LEU F 804      11.039 -12.520  30.465  1.00 43.64 LIG 0.18  C 
BRANCH 22 23
ATOM     23  N   LEU F 804      10.822 -12.395  29.024  1.00 45.07 LIG-0.35  N 
ATOM     24  C   ASP F 803      10.067 -13.252  28.345  1.00 46.18 LIG 0.26  C 
ATOM     25 O    ASP F 803       9.429 -14.161  28.893  1.00 46.48 LIG-0.27  OA
ATOM     26 H    LEU F 804      11.224 -11.725  28.664  1.00 45.07 LIG 0.16  HD
BRANCH 24 27
ATOM     27  CA  ASP F 803      10.014 -13.052  26.820  1.00 46.88 LIG 0.41  C 
ATOM     28  N   ASP F 803      11.095 -13.793  26.111  1.00 47.04 LIG 0.61  N 
BRANCH 27 29
ATOM     29  CB  ASP F 803       8.649 -13.482  26.273  1.00 47.42 LIG 0.16  C 
BRANCH 29 30
ATOM     30  CG  ASP F 803       8.726 -14.022  24.844  1.00 48.96 LIG 0.17  C 
ATOM     31 OD1  ASP F 803       9.530 -14.957  24.618  1.00 50.04 LIG-0.65  OA
ATOM     32 OD2  ASP F 803       7.997 -13.520  23.952  1.00 49.91 LIG-0.65  OA
ENDBRANCH 29 30
ENDBRANCH 27 29
ENDBRANCH 24 27
ENDBRANCH 22 23
BRANCH 22 33
ATOM     33  CB  LEU F 804      12.122 -13.573  30.735  1.00 43.69 LIG 0.04  C 
BRANCH 33 34
ATOM     34  CG  LEU F 804      13.016 -14.126  29.611  1.00 43.67 LIG-0.02  C 
ATOM     35  CD2 LEU F 804      13.563 -15.482  30.010  1.00 43.56 LIG 0.01  C 
ATOM     36  CD1 LEU F 804      14.141 -13.182  29.191  1.00 44.06 LIG 0.01  C 
ENDBRANCH 33 34
ENDBRANCH 22 33
ENDBRANCH 1 22
TORSDOF 14
ENDMDL
MODEL 29
USER: ADFR SOLUTION from run 117
USER: SCORE 10.970274 LL:  -2.776 LR:  -9.590 RR:   0.000 FEB:  -5.414
USER: RMSD 5.511783
USER: SEED 116
USER: STATUS no improvement in best in 14 clusters for 5 generations
USER: GENES 16
USER: genes 0 Translation |==|  0.61597 0.61040 0.43947
USER: genes 1 Rotation |==|  0.52909 0.91043 0.75300 0.62918
USER: genes 2 Torsion [C]-N--CA-[CB] |==|  0.81597
USER: genes 3 Torsion [N]-CA--CB-[CG] |==|  0.73659
USER: genes 4 Torsion [CA]-CB--CG-[CD2] |==|  0.97842
USER: genes 5 Torsion [CE2]-CZ--OH-[HH] |==|  0.06978
USER: genes 6 Torsion [N]-CA--C-[N] |==|  0.48597
USER: genes 7 Torsion [C]-N--CA-[C] |==|  0.33987
USER: genes 8 Torsion [N]-CA--C-[O] |==|  0.95340
USER: genes 9 Torsion [N]-C--CA-[N] |==|  0.26281
USER: genes 10 Torsion [C]-CA--N-[C] |==|  0.19397
USER: genes 11 Torsion [N]-C--CA-[N] |==|  0.39495
USER: genes 12 Torsion [C]-CA--CB-[CG] |==|  0.60546
USER: genes 13 Torsion [CA]-CB--CG-[OD1] |==|  0.20461
USER: genes 14 Torsion [C]-CA--CB-[CG] |==|  0.30268
USER: genes 15 Torsion [CA]-CB--CG-[CD2] |==|  0.25109
ROOT
ATOM      1  C   LEU F 804      13.586  -9.320  31.545  1.00 42.60 LIG 0.24  C 
ATOM      2 O    LEU F 804      12.802  -8.556  30.972  1.00 42.72 LIG-0.27  OA
ATOM      3  N   TYR F 805      14.102  -9.063  32.749  1.00 41.09 LIG-0.35  N 
ATOM      4 H    TYR F 805      14.776  -9.485  33.077  1.00 41.09 LIG 0.16  HD
ENDROOT
BRANCH 3 5
ATOM      5  CA  TYR F 805      13.556  -8.020  33.637  1.00 40.08 LIG 0.18  C 
BRANCH 5 6
ATOM      6  CB  TYR F 805      13.779  -6.639  33.006  1.00 38.23 LIG 0.07  C 
BRANCH 6 7
ATOM      7  CG  TYR F 805      15.036  -5.962  33.495  1.00 36.43 LIG-0.06  A 
ATOM      8  CD2 TYR F 805      15.776  -6.508  34.539  1.00 35.39 LIG 0.01  A 
ATOM      9  CE2 TYR F 805      16.930  -5.881  35.012  1.00 33.62 LIG 0.04  A 
ATOM     10  CZ  TYR F 805      17.352  -4.701  34.433  1.00 33.40 LIG 0.07  A 
ATOM     11  CE1 TYR F 805      16.635  -4.134  33.385  1.00 31.77 LIG 0.04  A 
ATOM     12  CD1 TYR F 805      15.481  -4.765  32.922  1.00 33.46 LIG 0.01  A 
BRANCH 10 13
ATOM     13 OH   TYR F 805      18.499  -4.100  34.904  1.00 32.97 LIG-0.36  OA
ATOM     14 HH   TYR F 805      18.994  -4.679  35.257  1.00 32.97 LIG 0.22  HD
ENDBRANCH 10 13
ENDBRANCH 6 7
ENDBRANCH 5 6
BRANCH 5 15
ATOM     15  C   TYR F 805      12.065  -8.199  33.983  1.00 40.65 LIG 0.24  C 
ATOM     16 O    TYR F 805      11.421  -9.108  33.456  1.00 41.05 LIG-0.27  OA
ATOM     17  N   GLY F 806      11.514  -7.353  34.866  1.00 41.21 LIG-0.35  N 
ATOM     18 H    GLY F 806      10.671  -7.349  35.038  1.00 41.21 LIG 0.16  HD
BRANCH 17 19
ATOM     19  CA  GLY F 806      12.267  -6.342  35.640  1.00 41.66 LIG 0.21  C 
BRANCH 19 20
ATOM     20  C   GLY F 806      11.812  -4.900  35.463  1.00 41.93 LIG 0.21  C 
ATOM     21 O    GLY F 806      11.094  -4.561  34.510  1.00 42.62 LIG-0.29  OA
ENDBRANCH 19 20
ENDBRANCH 17 19
ENDBRANCH 5 15
ENDBRANCH 3 5
BRANCH 1 22
ATOM     22  CA  LEU F 804      14.007 -10.636  30.866  1.00 43.64 LIG 0.18  C 
BRANCH 22 23
ATOM     23  N   LEU F 804      13.107 -11.771  31.070  1.00 45.07 LIG-0.35  N 
ATOM     24  C   ASP F 803      11.899 -11.823  30.519  1.00 46.18 LIG 0.26  C 
ATOM     25 O    ASP F 803      11.484 -10.962  29.732  1.00 46.48 LIG-0.27  OA
ATOM     26 H    LEU F 804      13.429 -12.391  31.571  1.00 45.07 LIG 0.16  HD
BRANCH 24 27
ATOM     27  CA  ASP F 803      11.027 -13.031  30.905  1.00 46.88 LIG 0.41  C 
ATOM     28  N   ASP F 803       9.590 -12.669  31.062  1.00 47.04 LIG 0.61  N 
BRANCH 27 29
ATOM     29  CB  ASP F 803      11.167 -14.145  29.863  1.00 47.42 LIG 0.16  C 
BRANCH 29 30
ATOM     30  CG  ASP F 803       9.850 -14.872  29.590  1.00 48.96 LIG 0.17  C 
ATOM     31 OD1  ASP F 803       8.981 -14.267  28.918  1.00 50.04 LIG-0.65  OA
ATOM     32 OD2  ASP F 803       9.676 -16.032  30.042  1.00 49.91 LIG-0.65  OA
ENDBRANCH 29 30
ENDBRANCH 27 29
ENDBRANCH 24 27
ENDBRANCH 22 23
BRANCH 22 33
ATOM     33  CB  LEU F 804      14.224 -10.412  29.364  1.00 43.69 LIG 0.04  C 
BRANCH 33 34
ATOM     34  CG  LEU F 804      15.628 -10.432  28.733  1.00 43.67 LIG-0.02  C 
ATOM     35  CD2 LEU F 804      15.971 -11.839  28.287  1.00 43.56 LIG 0.01  C 
ATOM     36  CD1 LEU F 804      16.721  -9.860  29.635  1.00 44.06 LIG 0.01  C 
ENDBRANCH 33 34
ENDBRANCH 22 33
ENDBRANCH 1 22
TORSDOF 14
ENDMDL
MODEL 30
USER: ADFR SOLUTION from run 20
USER: SCORE 11.431904 LL:  -3.372 LR:  -9.581 RR:   0.000 FEB:  -5.405
USER: RMSD 3.909030
USER: SEED 19
USER: STATUS no improvement in best in 12 clusters for 5 generations
USER: GENES 16
USER: genes 0 Translation |==|  0.62222 0.45559 0.54370
USER: genes 1 Rotation |==|  0.50007 0.51350 0.45642 0.99791
USER: genes 2 Torsion [C]-N--CA-[CB] |==|  0.33921
USER: genes 3 Torsion [N]-CA--CB-[CG] |==|  0.81218
USER: genes 4 Torsion [CA]-CB--CG-[CD2] |==|  0.84860
USER: genes 5 Torsion [CE2]-CZ--OH-[HH] |==|  0.46224
USER: genes 6 Torsion [N]-CA--C-[N] |==|  0.86512
USER: genes 7 Torsion [C]-N--CA-[C] |==|  0.54595
USER: genes 8 Torsion [N]-CA--C-[O] |==|  0.41709
USER: genes 9 Torsion [N]-C--CA-[N] |==|  0.11049
USER: genes 10 Torsion [C]-CA--N-[C] |==|  0.17499
USER: genes 11 Torsion [N]-C--CA-[N] |==|  0.63148
USER: genes 12 Torsion [C]-CA--CB-[CG] |==|  0.75030
USER: genes 13 Torsion [CA]-CB--CG-[OD1] |==|  0.07320
USER: genes 14 Torsion [C]-CA--CB-[CG] |==|  0.56986
USER: genes 15 Torsion [CA]-CB--CG-[CD2] |==|  0.70264
ROOT
ATOM      1  C   LEU F 804      13.679 -12.455  33.422  1.00 42.60 LIG 0.24  C 
ATOM      2 O    LEU F 804      14.840 -12.654  33.796  1.00 42.72 LIG-0.27  OA
ATOM      3  N   TYR F 805      13.089 -11.260  33.488  1.00 41.09 LIG-0.35  N 
ATOM      4 H    TYR F 805      12.240 -11.144  33.406  1.00 41.09 LIG 0.16  HD
ENDROOT
BRANCH 3 5
ATOM      5  CA  TYR F 805      13.847 -10.015  33.711  1.00 40.08 LIG 0.18  C 
BRANCH 5 6
ATOM      6  CB  TYR F 805      13.593  -9.043  32.551  1.00 38.23 LIG 0.07  C 
BRANCH 6 7
ATOM      7  CG  TYR F 805      14.175  -9.520  31.243  1.00 36.43 LIG-0.06  A 
ATOM      8  CD2 TYR F 805      15.521  -9.854  31.144  1.00 35.39 LIG 0.01  A 
ATOM      9  CE2 TYR F 805      16.074 -10.279  29.936  1.00 33.62 LIG 0.04  A 
ATOM     10  CZ  TYR F 805      15.273 -10.376  28.815  1.00 33.40 LIG 0.07  A 
ATOM     11  CE1 TYR F 805      13.923 -10.052  28.884  1.00 31.77 LIG 0.04  A 
ATOM     12  CD1 TYR F 805      13.380  -9.624  30.095  1.00 33.46 LIG 0.01  A 
BRANCH 10 13
ATOM     13 OH   TYR F 805      15.831 -10.806  27.631  1.00 32.97 LIG-0.36  OA
ATOM     14 HH   TYR F 805      15.221 -10.998  27.087  1.00 32.97 LIG 0.22  HD
ENDBRANCH 10 13
ENDBRANCH 6 7
ENDBRANCH 5 6
BRANCH 5 15
ATOM     15  C   TYR F 805      13.542  -9.318  35.051  1.00 40.65 LIG 0.24  C 
ATOM     16 O    TYR F 805      14.471  -8.941  35.769  1.00 41.05 LIG-0.27  OA
ATOM     17  N   GLY F 806      12.257  -9.132  35.390  1.00 41.21 LIG-0.35  N 
ATOM     18 H    GLY F 806      12.022  -8.825  36.158  1.00 41.21 LIG 0.16  HD
BRANCH 17 19
ATOM     19  CA  GLY F 806      11.107  -9.426  34.507  1.00 41.66 LIG 0.21  C 
BRANCH 19 20
ATOM     20  C   GLY F 806       9.783  -8.793  34.914  1.00 41.93 LIG 0.21  C 
ATOM     21 O    GLY F 806       8.927  -8.485  34.070  1.00 42.62 LIG-0.29  OA
ENDBRANCH 19 20
ENDBRANCH 17 19
ENDBRANCH 5 15
ENDBRANCH 3 5
BRANCH 1 22
ATOM     22  CA  LEU F 804      12.849 -13.619  32.851  1.00 43.64 LIG 0.18  C 
BRANCH 22 23
ATOM     23  N   LEU F 804      12.001 -13.290  31.704  1.00 45.07 LIG-0.35  N 
ATOM     24  C   ASP F 803      12.506 -12.878  30.546  1.00 46.18 LIG 0.26  C 
ATOM     25 O    ASP F 803      13.724 -12.825  30.328  1.00 46.48 LIG-0.27  OA
ATOM     26 H    LEU F 804      11.159 -13.387  31.850  1.00 45.07 LIG 0.16  HD
BRANCH 24 27
ATOM     27  CA  ASP F 803      11.488 -12.473  29.466  1.00 46.88 LIG 0.41  C 
ATOM     28  N   ASP F 803      11.798 -13.074  28.138  1.00 47.04 LIG 0.61  N 
BRANCH 27 29
ATOM     29  CB  ASP F 803      10.071 -12.867  29.893  1.00 47.42 LIG 0.16  C 
BRANCH 29 30
ATOM     30  CG  ASP F 803       9.684 -14.275  29.438  1.00 48.96 LIG 0.17  C 
ATOM     31 OD1  ASP F 803      10.609 -15.103  29.260  1.00 50.04 LIG-0.65  OA
ATOM     32 OD2  ASP F 803       8.473 -14.556  29.255  1.00 49.91 LIG-0.65  OA
ENDBRANCH 29 30
ENDBRANCH 27 29
ENDBRANCH 24 27
ENDBRANCH 22 23
BRANCH 22 33
ATOM     33  CB  LEU F 804      13.763 -14.799  32.495  1.00 43.69 LIG 0.04  C 
BRANCH 33 34
ATOM     34  CG  LEU F 804      13.372 -15.837  31.428  1.00 43.67 LIG-0.02  C 
ATOM     35  CD2 LEU F 804      12.996 -17.144  32.097  1.00 43.56 LIG 0.01  C 
ATOM     36  CD1 LEU F 804      14.438 -16.056  30.356  1.00 44.06 LIG 0.01  C 
ENDBRANCH 33 34
ENDBRANCH 22 33
ENDBRANCH 1 22
TORSDOF 14
ENDMDL
MODEL 31
USER: ADFR SOLUTION from run 61
USER: SCORE 11.614178 LL:  -2.804 LR:  -9.553 RR:   0.000 FEB:  -5.377
USER: RMSD 8.556513
USER: SEED 60
USER: STATUS no improvement in best in 28 clusters for 5 generations
USER: GENES 16
USER: genes 0 Translation |==|  0.68798 0.70717 0.53751
USER: genes 1 Rotation |==|  0.87224 0.29609 0.72824 0.63329
USER: genes 2 Torsion [C]-N--CA-[CB] |==|  0.82000
USER: genes 3 Torsion [N]-CA--CB-[CG] |==|  0.85405
USER: genes 4 Torsion [CA]-CB--CG-[CD2] |==|  0.72631
USER: genes 5 Torsion [CE2]-CZ--OH-[HH] |==|  0.04619
USER: genes 6 Torsion [N]-CA--C-[N] |==|  0.44440
USER: genes 7 Torsion [C]-N--CA-[C] |==|  0.77112
USER: genes 8 Torsion [N]-CA--C-[O] |==|  0.85274
USER: genes 9 Torsion [N]-C--CA-[N] |==|  0.16202
USER: genes 10 Torsion [C]-CA--N-[C] |==|  0.55875
USER: genes 11 Torsion [N]-C--CA-[N] |==|  0.68326
USER: genes 12 Torsion [C]-CA--CB-[CG] |==|  0.65315
USER: genes 13 Torsion [CA]-CB--CG-[OD1] |==|  0.81088
USER: genes 14 Torsion [C]-CA--CB-[CG] |==|  0.71801
USER: genes 15 Torsion [CA]-CB--CG-[CD2] |==|  0.64148
ROOT
ATOM      1  C   LEU F 804      14.666  -7.361  33.310  1.00 42.60 LIG 0.24  C 
ATOM      2 O    LEU F 804      15.154  -8.120  34.155  1.00 42.72 LIG-0.27  OA
ATOM      3  N   TYR F 805      13.567  -7.659  32.613  1.00 41.09 LIG-0.35  N 
ATOM      4 H    TYR F 805      13.322  -7.234  31.906  1.00 41.09 LIG 0.16  HD
ENDROOT
BRANCH 3 5
ATOM      5  CA  TYR F 805      12.661  -8.758  32.998  1.00 40.08 LIG 0.18  C 
BRANCH 5 6
ATOM      6  CB  TYR F 805      13.399 -10.098  32.877  1.00 38.23 LIG 0.07  C 
BRANCH 6 7
ATOM      7  CG  TYR F 805      14.042 -10.299  31.527  1.00 36.43 LIG-0.06  A 
ATOM      8  CD2 TYR F 805      13.415 -11.061  30.547  1.00 35.39 LIG 0.01  A 
ATOM      9  CE2 TYR F 805      14.008 -11.268  29.302  1.00 33.62 LIG 0.04  A 
ATOM     10  CZ  TYR F 805      15.239 -10.704  29.030  1.00 33.40 LIG 0.07  A 
ATOM     11  CE1 TYR F 805      15.889  -9.933  29.988  1.00 31.77 LIG 0.04  A 
ATOM     12  CD1 TYR F 805      15.289  -9.736  31.231  1.00 33.46 LIG 0.01  A 
BRANCH 10 13
ATOM     13 OH   TYR F 805      15.807 -10.909  27.792  1.00 32.97 LIG-0.36  OA
ATOM     14 HH   TYR F 805      15.221 -11.181  27.255  1.00 32.97 LIG 0.22  HD
ENDBRANCH 10 13
ENDBRANCH 6 7
ENDBRANCH 5 6
BRANCH 5 15
ATOM     15  C   TYR F 805      12.061  -8.620  34.410  1.00 40.65 LIG 0.24  C 
ATOM     16 O    TYR F 805      12.603  -7.879  35.234  1.00 41.05 LIG-0.27  OA
ATOM     17  N   GLY F 806      10.948  -9.311  34.696  1.00 41.21 LIG-0.35  N 
ATOM     18 H    GLY F 806      10.612  -9.340  35.487  1.00 41.21 LIG 0.16  HD
BRANCH 17 19
ATOM     19  CA  GLY F 806      10.172 -10.095  33.709  1.00 41.66 LIG 0.21  C 
BRANCH 19 20
ATOM     20  C   GLY F 806       9.190  -9.300  32.859  1.00 41.93 LIG 0.21  C 
ATOM     21 O    GLY F 806       8.342  -8.557  33.375  1.00 42.62 LIG-0.29  OA
ENDBRANCH 19 20
ENDBRANCH 17 19
ENDBRANCH 5 15
ENDBRANCH 3 5
BRANCH 1 22
ATOM     22  CA  LEU F 804      15.333  -6.003  33.023  1.00 43.64 LIG 0.18  C 
BRANCH 22 23
ATOM     23  N   LEU F 804      14.488  -4.826  33.226  1.00 45.07 LIG-0.35  N 
ATOM     24  C   ASP F 803      14.753  -3.658  32.651  1.00 46.18 LIG 0.26  C 
ATOM     25 O    ASP F 803      15.678  -3.505  31.842  1.00 46.48 LIG-0.27  OA
ATOM     26 H    LEU F 804      13.816  -4.961  33.744  1.00 45.07 LIG 0.16  HD
BRANCH 24 27
ATOM     27  CA  ASP F 803      13.834  -2.486  33.037  1.00 46.88 LIG 0.41  C 
ATOM     28  N   ASP F 803      13.012  -2.006  31.891  1.00 47.04 LIG 0.61  N 
BRANCH 27 29
ATOM     29  CB  ASP F 803      12.918  -2.886  34.198  1.00 47.42 LIG 0.16  C 
BRANCH 29 30
ATOM     30  CG  ASP F 803      11.435  -2.681  33.881  1.00 48.96 LIG 0.17  C 
ATOM     31 OD1  ASP F 803      11.025  -1.503  33.756  1.00 50.04 LIG-0.65  OA
ATOM     32 OD2  ASP F 803      10.684  -3.681  33.760  1.00 49.91 LIG-0.65  OA
ENDBRANCH 29 30
ENDBRANCH 27 29
ENDBRANCH 24 27
ENDBRANCH 22 23
BRANCH 22 33
ATOM     33  CB  LEU F 804      16.622  -5.862  33.844  1.00 43.69 LIG 0.04  C 
BRANCH 33 34
ATOM     34  CG  LEU F 804      16.677  -5.020  35.132  1.00 43.67 LIG-0.02  C 
ATOM     35  CD2 LEU F 804      17.845  -4.056  35.066  1.00 43.56 LIG 0.01  C 
ATOM     36  CD1 LEU F 804      16.721  -5.849  36.414  1.00 44.06 LIG 0.01  C 
ENDBRANCH 33 34
ENDBRANCH 22 33
ENDBRANCH 1 22
TORSDOF 14
ENDMDL
MODEL 32
USER: ADFR SOLUTION from run 166
USER: SCORE 11.164679 LL:  -3.028 LR:  -9.532 RR:   0.000 FEB:  -5.356
USER: RMSD 8.502209
USER: SEED 165
USER: STATUS no improvement in best in 21 clusters for 5 generations
USER: GENES 16
USER: genes 0 Translation |==|  0.44583 0.39970 0.26385
USER: genes 1 Rotation |==|  0.71137 0.10469 0.69480 0.60538
USER: genes 2 Torsion [C]-N--CA-[CB] |==|  0.16667
USER: genes 3 Torsion [N]-CA--CB-[CG] |==|  0.68138
USER: genes 4 Torsion [CA]-CB--CG-[CD2] |==|  0.81701
USER: genes 5 Torsion [CE2]-CZ--OH-[HH] |==|  0.28078
USER: genes 6 Torsion [N]-CA--C-[N] |==|  0.35319
USER: genes 7 Torsion [C]-N--CA-[C] |==|  0.77757
USER: genes 8 Torsion [N]-CA--C-[O] |==|  0.15049
USER: genes 9 Torsion [N]-C--CA-[N] |==|  0.29236
USER: genes 10 Torsion [C]-CA--N-[C] |==|  0.72971
USER: genes 11 Torsion [N]-C--CA-[N] |==|  0.91750
USER: genes 12 Torsion [C]-CA--CB-[CG] |==|  0.61591
USER: genes 13 Torsion [CA]-CB--CG-[OD1] |==|  0.67397
USER: genes 14 Torsion [C]-CA--CB-[CG] |==|  0.77917
USER: genes 15 Torsion [CA]-CB--CG-[CD2] |==|  0.74886
ROOT
ATOM      1  C   LEU F 804      11.033 -13.587  28.384  1.00 42.60 LIG 0.24  C 
ATOM      2 O    LEU F 804      10.388 -14.516  28.883  1.00 42.72 LIG-0.27  OA
ATOM      3  N   TYR F 805      10.578 -12.847  27.372  1.00 41.09 LIG-0.35  N 
ATOM      4 H    TYR F 805      11.075 -12.327  26.900  1.00 41.09 LIG 0.16  HD
ENDROOT
BRANCH 3 5
ATOM      5  CA  TYR F 805       9.160 -12.852  26.965  1.00 40.08 LIG 0.18  C 
BRANCH 5 6
ATOM      6  CB  TYR F 805       8.286 -12.389  28.138  1.00 38.23 LIG 0.07  C 
BRANCH 6 7
ATOM      7  CG  TYR F 805       7.368 -13.469  28.653  1.00 36.43 LIG-0.06  A 
ATOM      8  CD2 TYR F 805       6.339 -13.966  27.859  1.00 35.39 LIG 0.01  A 
ATOM      9  CE2 TYR F 805       5.472 -14.952  28.331  1.00 33.62 LIG 0.04  A 
ATOM     10  CZ  TYR F 805       5.638 -15.452  29.608  1.00 33.40 LIG 0.07  A 
ATOM     11  CE1 TYR F 805       6.660 -14.978  30.424  1.00 31.77 LIG 0.04  A 
ATOM     12  CD1 TYR F 805       7.518 -13.989  29.944  1.00 33.46 LIG 0.01  A 
BRANCH 10 13
ATOM     13 OH   TYR F 805       4.781 -16.433  30.056  1.00 32.97 LIG-0.36  OA
ATOM     14 HH   TYR F 805       5.160 -17.181  30.005  1.00 32.97 LIG 0.22  HD
ENDBRANCH 10 13
ENDBRANCH 6 7
ENDBRANCH 5 6
BRANCH 5 15
ATOM     15  C   TYR F 805       8.855 -11.998  25.719  1.00 40.65 LIG 0.24  C 
ATOM     16 O    TYR F 805       9.221 -10.820  25.681  1.00 41.05 LIG-0.27  OA
ATOM     17  N   GLY F 806       8.201 -12.574  24.699  1.00 41.21 LIG-0.35  N 
ATOM     18 H    GLY F 806       7.931 -12.131  24.014  1.00 41.21 LIG 0.16  HD
BRANCH 17 19
ATOM     19  CA  GLY F 806       7.870 -14.014  24.625  1.00 41.66 LIG 0.21  C 
BRANCH 19 20
ATOM     20  C   GLY F 806       9.002 -14.931  24.182  1.00 41.93 LIG 0.21  C 
ATOM     21 O    GLY F 806      10.100 -14.929  24.760  1.00 42.62 LIG-0.29  OA
ENDBRANCH 19 20
ENDBRANCH 17 19
ENDBRANCH 5 15
ENDBRANCH 3 5
BRANCH 1 22
ATOM     22  CA  LEU F 804      12.432 -13.246  28.931  1.00 43.64 LIG 0.18  C 
BRANCH 22 23
ATOM     23  N   LEU F 804      12.456 -12.549  30.218  1.00 45.07 LIG-0.35  N 
ATOM     24  C   ASP F 803      12.578 -11.229  30.305  1.00 46.18 LIG 0.26  C 
ATOM     25 O    ASP F 803      12.596 -10.491  29.310  1.00 46.48 LIG-0.27  OA
ATOM     26 H    LEU F 804      12.384 -13.067  30.900  1.00 45.07 LIG 0.16  HD
BRANCH 24 27
ATOM     27  CA  ASP F 803      12.690 -10.648  31.726  1.00 46.88 LIG 0.41  C 
ATOM     28  N   ASP F 803      11.972 -11.475  32.736  1.00 47.04 LIG 0.61  N 
BRANCH 27 29
ATOM     29  CB  ASP F 803      14.161 -10.503  32.128  1.00 47.42 LIG 0.16  C 
BRANCH 29 30
ATOM     30  CG  ASP F 803      14.425 -10.929  33.573  1.00 48.96 LIG 0.17  C 
ATOM     31 OD1  ASP F 803      14.846 -10.056  34.369  1.00 50.04 LIG-0.65  OA
ATOM     32 OD2  ASP F 803      14.220 -12.120  33.915  1.00 49.91 LIG-0.65  OA
ENDBRANCH 29 30
ENDBRANCH 27 29
ENDBRANCH 24 27
ENDBRANCH 22 23
BRANCH 22 33
ATOM     33  CB  LEU F 804      13.293 -14.512  29.014  1.00 43.69 LIG 0.04  C 
BRANCH 33 34
ATOM     34  CG  LEU F 804      13.150 -15.519  30.169  1.00 43.67 LIG-0.02  C 
ATOM     35  CD2 LEU F 804      14.092 -15.144  31.296  1.00 43.56 LIG 0.01  C 
ATOM     36  CD1 LEU F 804      13.346 -16.975  29.752  1.00 44.06 LIG 0.01  C 
ENDBRANCH 33 34
ENDBRANCH 22 33
ENDBRANCH 1 22
TORSDOF 14
ENDMDL
MODEL 33
USER: ADFR SOLUTION from run 49
USER: SCORE 11.206294 LL:  -3.222 LR:  -9.531 RR:   0.000 FEB:  -5.355
USER: RMSD 7.334347
USER: SEED 48
USER: STATUS no improvement in best in 15 clusters for 5 generations
USER: GENES 16
USER: genes 0 Translation |==|  0.51132 0.49028 0.30577
USER: genes 1 Rotation |==|  0.18481 0.47123 0.86913 0.61647
USER: genes 2 Torsion [C]-N--CA-[CB] |==|  0.43644
USER: genes 3 Torsion [N]-CA--CB-[CG] |==|  0.01072
USER: genes 4 Torsion [CA]-CB--CG-[CD2] |==|  0.73611
USER: genes 5 Torsion [CE2]-CZ--OH-[HH] |==|  0.16211
USER: genes 6 Torsion [N]-CA--C-[N] |==|  0.32258
USER: genes 7 Torsion [C]-N--CA-[C] |==|  0.17074
USER: genes 8 Torsion [N]-CA--C-[O] |==|  0.22349
USER: genes 9 Torsion [N]-C--CA-[N] |==|  0.96122
USER: genes 10 Torsion [C]-CA--N-[C] |==|  0.76604
USER: genes 11 Torsion [N]-C--CA-[N] |==|  0.01745
USER: genes 12 Torsion [C]-CA--CB-[CG] |==|  0.69363
USER: genes 13 Torsion [CA]-CB--CG-[OD1] |==|  0.82198
USER: genes 14 Torsion [C]-CA--CB-[CG] |==|  0.45058
USER: genes 15 Torsion [CA]-CB--CG-[CD2] |==|  0.39927
ROOT
ATOM      1  C   LEU F 804      12.016 -11.753  29.139  1.00 42.60 LIG 0.24  C 
ATOM      2 O    LEU F 804      11.484 -11.184  28.179  1.00 42.72 LIG-0.27  OA
ATOM      3  N   TYR F 805      11.773 -13.027  29.454  1.00 41.09 LIG-0.35  N 
ATOM      4 H    TYR F 805      11.987 -13.379  30.209  1.00 41.09 LIG 0.16  HD
ENDROOT
BRANCH 3 5
ATOM      5  CA  TYR F 805      11.109 -13.958  28.523  1.00 40.08 LIG 0.18  C 
BRANCH 5 6
ATOM      6  CB  TYR F 805      11.471 -15.402  28.894  1.00 38.23 LIG 0.07  C 
BRANCH 6 7
ATOM      7  CG  TYR F 805      12.315 -15.498  30.141  1.00 36.43 LIG-0.06  A 
ATOM      8  CD2 TYR F 805      13.702 -15.569  30.057  1.00 35.39 LIG 0.01  A 
ATOM      9  CE2 TYR F 805      14.492 -15.675  31.202  1.00 33.62 LIG 0.04  A 
ATOM     10  CZ  TYR F 805      13.891 -15.705  32.445  1.00 33.40 LIG 0.07  A 
ATOM     11  CE1 TYR F 805      12.507 -15.632  32.561  1.00 31.77 LIG 0.04  A 
ATOM     12  CD1 TYR F 805      11.726 -15.530  31.410  1.00 33.46 LIG 0.01  A 
BRANCH 10 13
ATOM     13 OH   TYR F 805      14.685 -15.800  33.567  1.00 32.97 LIG-0.36  OA
ATOM     14 HH   TYR F 805      15.219 -15.152  33.588  1.00 32.97 LIG 0.22  HD
ENDBRANCH 10 13
ENDBRANCH 6 7
ENDBRANCH 5 6
BRANCH 5 15
ATOM     15  C   TYR F 805       9.577 -13.806  28.460  1.00 40.65 LIG 0.24  C 
ATOM     16 O    TYR F 805       8.899 -14.031  29.465  1.00 41.05 LIG-0.27  OA
ATOM     17  N   GLY F 806       9.026 -13.418  27.300  1.00 41.21 LIG-0.35  N 
ATOM     18 H    GLY F 806       8.175 -13.394  27.177  1.00 41.21 LIG 0.16  HD
BRANCH 17 19
ATOM     19  CA  GLY F 806       9.794 -12.991  26.109  1.00 41.66 LIG 0.21  C 
BRANCH 19 20
ATOM     20  C   GLY F 806      10.721 -14.040  25.510  1.00 41.93 LIG 0.21  C 
ATOM     21 O    GLY F 806      10.291 -14.931  24.761  1.00 42.62 LIG-0.29  OA
ENDBRANCH 19 20
ENDBRANCH 17 19
ENDBRANCH 5 15
ENDBRANCH 3 5
BRANCH 1 22
ATOM     22  CA  LEU F 804      13.005 -10.983  30.034  1.00 43.64 LIG 0.18  C 
BRANCH 22 23
ATOM     23  N   LEU F 804      13.332 -11.620  31.310  1.00 45.07 LIG-0.35  N 
ATOM     24  C   ASP F 803      12.566 -11.479  32.387  1.00 46.18 LIG 0.26  C 
ATOM     25 O    ASP F 803      11.486 -10.875  32.366  1.00 46.48 LIG-0.27  OA
ATOM     26 H    LEU F 804      14.054 -12.086  31.296  1.00 45.07 LIG 0.16  HD
BRANCH 24 27
ATOM     27  CA  ASP F 803      13.090 -12.124  33.682  1.00 46.88 LIG 0.41  C 
ATOM     28  N   ASP F 803      14.465 -12.678  33.527  1.00 47.04 LIG 0.61  N 
BRANCH 27 29
ATOM     29  CB  ASP F 803      13.070 -11.108  34.829  1.00 47.42 LIG 0.16  C 
BRANCH 29 30
ATOM     30  CG  ASP F 803      14.471 -10.679  35.266  1.00 48.96 LIG 0.17  C 
ATOM     31 OD1  ASP F 803      15.221 -11.554  35.758  1.00 50.04 LIG-0.65  OA
ATOM     32 OD2  ASP F 803      14.824  -9.481  35.125  1.00 49.91 LIG-0.65  OA
ENDBRANCH 29 30
ENDBRANCH 27 29
ENDBRANCH 24 27
ENDBRANCH 22 23
BRANCH 22 33
ATOM     33  CB  LEU F 804      14.296 -10.682  29.261  1.00 43.69 LIG 0.04  C 
BRANCH 33 34
ATOM     34  CG  LEU F 804      15.290  -9.604  29.728  1.00 43.67 LIG-0.02  C 
ATOM     35  CD2 LEU F 804      16.709 -10.056  29.444  1.00 43.56 LIG 0.01  C 
ATOM     36  CD1 LEU F 804      15.125  -9.201  31.192  1.00 44.06 LIG 0.01  C 
ENDBRANCH 33 34
ENDBRANCH 22 33
ENDBRANCH 1 22
TORSDOF 14
ENDMDL
MODEL 34
USER: ADFR SOLUTION from run 59
USER: SCORE 11.527801 LL:  -2.527 LR:  -9.517 RR:   0.000 FEB:  -5.340
USER: RMSD 7.800665
USER: SEED 58
USER: STATUS no improvement in best in 33 clusters for 5 generations
USER: GENES 16
USER: genes 0 Translation |==|  0.60847 0.35177 0.40414
USER: genes 1 Rotation |==|  0.92728 0.47733 0.42892 0.74873
USER: genes 2 Torsion [C]-N--CA-[CB] |==|  0.81226
USER: genes 3 Torsion [N]-CA--CB-[CG] |==|  0.73494
USER: genes 4 Torsion [CA]-CB--CG-[CD2] |==|  0.57097
USER: genes 5 Torsion [CE2]-CZ--OH-[HH] |==|  0.89048
USER: genes 6 Torsion [N]-CA--C-[N] |==|  0.49993
USER: genes 7 Torsion [C]-N--CA-[C] |==|  0.38221
USER: genes 8 Torsion [N]-CA--C-[O] |==|  0.00602
USER: genes 9 Torsion [N]-C--CA-[N] |==|  0.92001
USER: genes 10 Torsion [C]-CA--N-[C] |==|  0.77287
USER: genes 11 Torsion [N]-C--CA-[N] |==|  0.38944
USER: genes 12 Torsion [C]-CA--CB-[CG] |==|  0.80417
USER: genes 13 Torsion [CA]-CB--CG-[OD1] |==|  0.67709
USER: genes 14 Torsion [C]-CA--CB-[CG] |==|  0.39823
USER: genes 15 Torsion [CA]-CB--CG-[CD2] |==|  0.79336
ROOT
ATOM      1  C   LEU F 804      13.473 -14.558  30.910  1.00 42.60 LIG 0.24  C 
ATOM      2 O    LEU F 804      14.452 -15.179  30.481  1.00 42.72 LIG-0.27  OA
ATOM      3  N   TYR F 805      12.777 -14.947  31.980  1.00 41.09 LIG-0.35  N 
ATOM      4 H    TYR F 805      11.999 -14.637  32.180  1.00 41.09 LIG 0.16  HD
ENDROOT
BRANCH 3 5
ATOM      5  CA  TYR F 805      13.284 -15.955  32.929  1.00 40.08 LIG 0.18  C 
BRANCH 5 6
ATOM      6  CB  TYR F 805      13.352 -17.324  32.238  1.00 38.23 LIG 0.07  C 
BRANCH 6 7
ATOM      7  CG  TYR F 805      12.130 -18.173  32.490  1.00 36.43 LIG-0.06  A 
ATOM      8  CD2 TYR F 805      12.203 -19.560  32.422  1.00 35.39 LIG 0.01  A 
ATOM      9  CE2 TYR F 805      11.075 -20.355  32.635  1.00 33.62 LIG 0.04  A 
ATOM     10  CZ  TYR F 805       9.864 -19.758  32.924  1.00 33.40 LIG 0.07  A 
ATOM     11  CE1 TYR F 805       9.761 -18.373  33.002  1.00 31.77 LIG 0.04  A 
ATOM     12  CD1 TYR F 805      10.892 -17.588  32.783  1.00 33.46 LIG 0.01  A 
BRANCH 10 13
ATOM     13 OH   TYR F 805       8.763 -20.556  33.142  1.00 32.97 LIG-0.36  OA
ATOM     14 HH   TYR F 805       8.772 -21.200  32.602  1.00 32.97 LIG 0.22  HD
ENDBRANCH 10 13
ENDBRANCH 6 7
ENDBRANCH 5 6
BRANCH 5 15
ATOM     15  C   TYR F 805      14.655 -15.614  33.543  1.00 40.65 LIG 0.24  C 
ATOM     16 O    TYR F 805      15.221 -14.563  33.230  1.00 41.05 LIG-0.27  OA
ATOM     17  N   GLY F 806      15.191 -16.478  34.418  1.00 41.21 LIG-0.35  N 
ATOM     18 H    GLY F 806      15.986 -16.386  34.731  1.00 41.21 LIG 0.16  HD
BRANCH 17 19
ATOM     19  CA  GLY F 806      14.497 -17.675  34.944  1.00 41.66 LIG 0.21  C 
BRANCH 19 20
ATOM     20  C   GLY F 806      15.338 -18.941  35.033  1.00 41.93 LIG 0.21  C 
ATOM     21 O    GLY F 806      16.539 -18.943  34.719  1.00 42.62 LIG-0.29  OA
ENDBRANCH 19 20
ENDBRANCH 17 19
ENDBRANCH 5 15
ENDBRANCH 3 5
BRANCH 1 22
ATOM     22  CA  LEU F 804      13.008 -13.275  30.196  1.00 43.64 LIG 0.18  C 
BRANCH 22 23
ATOM     23  N   LEU F 804      11.579 -12.977  30.297  1.00 45.07 LIG-0.35  N 
ATOM     24  C   ASP F 803      10.680 -13.550  29.504  1.00 46.18 LIG 0.26  C 
ATOM     25 O    ASP F 803      10.974 -14.433  28.687  1.00 46.48 LIG-0.27  OA
ATOM     26 H    LEU F 804      11.381 -12.405  30.907  1.00 45.07 LIG 0.16  HD
BRANCH 24 27
ATOM     27  CA  ASP F 803       9.229 -13.062  29.658  1.00 46.88 LIG 0.41  C 
ATOM     28  N   ASP F 803       8.529 -12.937  28.349  1.00 47.04 LIG 0.61  N 
BRANCH 27 29
ATOM     29  CB  ASP F 803       8.443 -14.006  30.575  1.00 47.42 LIG 0.16  C 
BRANCH 29 30
ATOM     30  CG  ASP F 803       8.167 -15.365  29.931  1.00 48.96 LIG 0.17  C 
ATOM     31 OD1  ASP F 803       6.971 -15.676  29.719  1.00 50.04 LIG-0.65  OA
ATOM     32 OD2  ASP F 803       9.128 -16.120  29.640  1.00 49.91 LIG-0.65  OA
ENDBRANCH 29 30
ENDBRANCH 27 29
ENDBRANCH 24 27
ENDBRANCH 22 23
BRANCH 22 33
ATOM     33  CB  LEU F 804      13.823 -12.071  30.686  1.00 43.69 LIG 0.04  C 
BRANCH 33 34
ATOM     34  CG  LEU F 804      14.235 -10.929  29.739  1.00 43.67 LIG-0.02  C 
ATOM     35  CD2 LEU F 804      15.360 -11.392  28.836  1.00 43.56 LIG 0.01  C 
ATOM     36  CD1 LEU F 804      14.606  -9.632  30.456  1.00 44.06 LIG 0.01  C 
ENDBRANCH 33 34
ENDBRANCH 22 33
ENDBRANCH 1 22
TORSDOF 14
ENDMDL
MODEL 35
USER: ADFR SOLUTION from run 150
USER: SCORE 11.939048 LL:  -2.538 LR:  -9.475 RR:   0.000 FEB:  -5.298
USER: RMSD 6.314441
USER: SEED 149
USER: STATUS searching
USER: GENES 16
USER: genes 0 Translation |==|  0.63836 0.31020 0.43290
USER: genes 1 Rotation |==|  0.21916 0.77164 0.45377 0.80855
USER: genes 2 Torsion [C]-N--CA-[CB] |==|  0.82582
USER: genes 3 Torsion [N]-CA--CB-[CG] |==|  0.80032
USER: genes 4 Torsion [CA]-CB--CG-[CD2] |==|  0.53433
USER: genes 5 Torsion [CE2]-CZ--OH-[HH] |==|  0.04996
USER: genes 6 Torsion [N]-CA--C-[N] |==|  0.43301
USER: genes 7 Torsion [C]-N--CA-[C] |==|  0.47542
USER: genes 8 Torsion [N]-CA--C-[O] |==|  0.97571
USER: genes 9 Torsion [N]-C--CA-[N] |==|  0.36399
USER: genes 10 Torsion [C]-CA--N-[C] |==|  0.84283
USER: genes 11 Torsion [N]-C--CA-[N] |==|  0.15779
USER: genes 12 Torsion [C]-CA--CB-[CG] |==|  0.76867
USER: genes 13 Torsion [CA]-CB--CG-[OD1] |==|  0.85563
USER: genes 14 Torsion [C]-CA--CB-[CG] |==|  0.59398
USER: genes 15 Torsion [CA]-CB--CG-[CD2] |==|  0.64435
ROOT
ATOM      1  C   LEU F 804      13.921 -15.399  31.427  1.00 42.60 LIG 0.24  C 
ATOM      2 O    LEU F 804      14.712 -15.976  30.672  1.00 42.72 LIG-0.27  OA
ATOM      3  N   TYR F 805      13.100 -14.431  31.017  1.00 41.09 LIG-0.35  N 
ATOM      4 H    TYR F 805      12.683 -13.902  31.553  1.00 41.09 LIG 0.16  HD
ENDROOT
BRANCH 3 5
ATOM      5  CA  TYR F 805      12.829 -14.176  29.590  1.00 40.08 LIG 0.18  C 
BRANCH 5 6
ATOM      6  CB  TYR F 805      14.129 -13.764  28.885  1.00 38.23 LIG 0.07  C 
BRANCH 6 7
ATOM      7  CG  TYR F 805      14.591 -12.378  29.261  1.00 36.43 LIG-0.06  A 
ATOM      8  CD2 TYR F 805      15.595 -11.743  28.537  1.00 35.39 LIG 0.01  A 
ATOM      9  CE2 TYR F 805      16.043 -10.469  28.886  1.00 33.62 LIG 0.04  A 
ATOM     10  CZ  TYR F 805      15.478  -9.818  29.965  1.00 33.40 LIG 0.07  A 
ATOM     11  CE1 TYR F 805      14.469 -10.425  30.705  1.00 31.77 LIG 0.04  A 
ATOM     12  CD1 TYR F 805      14.031 -11.701  30.351  1.00 33.46 LIG 0.01  A 
BRANCH 10 13
ATOM     13 OH   TYR F 805      15.923  -8.556  30.291  1.00 32.97 LIG-0.36  OA
ATOM     14 HH   TYR F 805      16.332  -8.225  29.636  1.00 32.97 LIG 0.22  HD
ENDBRANCH 10 13
ENDBRANCH 6 7
ENDBRANCH 5 6
BRANCH 5 15
ATOM     15  C   TYR F 805      12.186 -15.362  28.845  1.00 40.65 LIG 0.24  C 
ATOM     16 O    TYR F 805      12.334 -16.507  29.278  1.00 41.05 LIG-0.27  OA
ATOM     17  N   GLY F 806      11.469 -15.103  27.742  1.00 41.21 LIG-0.35  N 
ATOM     18 H    GLY F 806      11.155 -15.726  27.238  1.00 41.21 LIG 0.16  HD
BRANCH 17 19
ATOM     19  CA  GLY F 806      11.133 -13.745  27.260  1.00 41.66 LIG 0.21  C 
BRANCH 19 20
ATOM     20  C   GLY F 806      10.492 -13.672  25.881  1.00 41.93 LIG 0.21  C 
ATOM     21 O    GLY F 806      10.416 -14.671  25.150  1.00 42.62 LIG-0.29  OA
ENDBRANCH 19 20
ENDBRANCH 17 19
ENDBRANCH 5 15
ENDBRANCH 3 5
BRANCH 1 22
ATOM     22  CA  LEU F 804      13.860 -15.791  32.915  1.00 43.64 LIG 0.18  C 
BRANCH 22 23
ATOM     23  N   LEU F 804      13.754 -17.224  33.189  1.00 45.07 LIG-0.35  N 
ATOM     24  C   ASP F 803      12.772 -17.969  32.692  1.00 46.18 LIG 0.26  C 
ATOM     25 O    ASP F 803      11.932 -17.525  31.898  1.00 46.48 LIG-0.27  OA
ATOM     26 H    LEU F 804      14.377 -17.532  33.695  1.00 45.07 LIG 0.16  HD
BRANCH 24 27
ATOM     27  CA  ASP F 803      12.734 -19.438  33.149  1.00 46.88 LIG 0.41  C 
ATOM     28  N   ASP F 803      12.659 -19.570  34.631  1.00 47.04 LIG 0.61  N 
BRANCH 27 29
ATOM     29  CB  ASP F 803      11.551 -20.167  32.504  1.00 47.42 LIG 0.16  C 
BRANCH 29 30
ATOM     30  CG  ASP F 803      10.239 -19.952  33.260  1.00 48.96 LIG 0.17  C 
ATOM     31 OD1  ASP F 803      10.234 -20.182  34.493  1.00 50.04 LIG-0.65  OA
ATOM     32 OD2  ASP F 803       9.221 -19.563  32.636  1.00 49.91 LIG-0.65  OA
ENDBRANCH 29 30
ENDBRANCH 27 29
ENDBRANCH 24 27
ENDBRANCH 22 23
BRANCH 22 33
ATOM     33  CB  LEU F 804      15.063 -15.208  33.667  1.00 43.69 LIG 0.04  C 
BRANCH 33 34
ATOM     34  CG  LEU F 804      15.722 -15.949  34.845  1.00 43.67 LIG-0.02  C 
ATOM     35  CD2 LEU F 804      15.823 -15.024  36.042  1.00 43.56 LIG 0.01  C 
ATOM     36  CD1 LEU F 804      17.079 -16.564  34.510  1.00 44.06 LIG 0.01  C 
ENDBRANCH 33 34
ENDBRANCH 22 33
ENDBRANCH 1 22
TORSDOF 14
ENDMDL
MODEL 36
USER: ADFR SOLUTION from run 50
USER: SCORE 12.016938 LL:  -2.631 LR:  -9.469 RR:   0.000 FEB:  -5.292
USER: RMSD 5.628311
USER: SEED 49
USER: STATUS no improvement in best in 13 clusters for 5 generations
USER: GENES 16
USER: genes 0 Translation |==|  0.50102 0.50057 0.32327
USER: genes 1 Rotation |==|  0.37336 0.17958 0.29836 0.80105
USER: genes 2 Torsion [C]-N--CA-[CB] |==|  0.84082
USER: genes 3 Torsion [N]-CA--CB-[CG] |==|  0.37786
USER: genes 4 Torsion [CA]-CB--CG-[CD2] |==|  0.71441
USER: genes 5 Torsion [CE2]-CZ--OH-[HH] |==|  0.66493
USER: genes 6 Torsion [N]-CA--C-[N] |==|  0.34857
USER: genes 7 Torsion [C]-N--CA-[C] |==|  0.83731
USER: genes 8 Torsion [N]-CA--C-[O] |==|  0.95540
USER: genes 9 Torsion [N]-C--CA-[N] |==|  0.40538
USER: genes 10 Torsion [C]-CA--N-[C] |==|  0.81642
USER: genes 11 Torsion [N]-C--CA-[N] |==|  0.55090
USER: genes 12 Torsion [C]-CA--CB-[CG] |==|  0.25017
USER: genes 13 Torsion [CA]-CB--CG-[OD1] |==|  0.80965
USER: genes 14 Torsion [C]-CA--CB-[CG] |==|  0.37267
USER: genes 15 Torsion [CA]-CB--CG-[CD2] |==|  0.44596
ROOT
ATOM      1  C   LEU F 804      11.861 -11.545  29.454  1.00 42.60 LIG 0.24  C 
ATOM      2 O    LEU F 804      11.447 -11.369  30.605  1.00 42.72 LIG-0.27  OA
ATOM      3  N   TYR F 805      12.831 -10.806  28.910  1.00 41.09 LIG-0.35  N 
ATOM      4 H    TYR F 805      13.003 -10.792  28.067  1.00 41.09 LIG 0.16  HD
ENDROOT
BRANCH 3 5
ATOM      5  CA  TYR F 805      13.709  -9.937  29.716  1.00 40.08 LIG 0.18  C 
BRANCH 5 6
ATOM      6  CB  TYR F 805      12.856  -8.932  30.502  1.00 38.23 LIG 0.07  C 
BRANCH 6 7
ATOM      7  CG  TYR F 805      13.299  -8.775  31.935  1.00 36.43 LIG-0.06  A 
ATOM      8  CD2 TYR F 805      12.593  -9.384  32.968  1.00 35.39 LIG 0.01  A 
ATOM      9  CE2 TYR F 805      12.983  -9.231  34.299  1.00 33.62 LIG 0.04  A 
ATOM     10  CZ  TYR F 805      14.093  -8.468  34.602  1.00 33.40 LIG 0.07  A 
ATOM     11  CE1 TYR F 805      14.821  -7.850  33.591  1.00 31.77 LIG 0.04  A 
ATOM     12  CD1 TYR F 805      14.421  -8.005  32.264  1.00 33.46 LIG 0.01  A 
BRANCH 10 13
ATOM     13 OH   TYR F 805      14.471  -8.335  35.920  1.00 32.97 LIG-0.36  OA
ATOM     14 HH   TYR F 805      14.462  -7.522  36.133  1.00 32.97 LIG 0.22  HD
ENDBRANCH 10 13
ENDBRANCH 6 7
ENDBRANCH 5 6
BRANCH 5 15
ATOM     15  C   TYR F 805      14.640 -10.696  30.680  1.00 40.65 LIG 0.24  C 
ATOM     16 O    TYR F 805      14.163 -11.504  31.481  1.00 41.05 LIG-0.27  OA
ATOM     17  N   GLY F 806      15.958 -10.457  30.609  1.00 41.21 LIG-0.35  N 
ATOM     18 H    GLY F 806      16.519 -10.785  31.172  1.00 41.21 LIG 0.16  HD
BRANCH 17 19
ATOM     19  CA  GLY F 806      16.601  -9.615  29.576  1.00 41.66 LIG 0.21  C 
BRANCH 19 20
ATOM     20  C   GLY F 806      16.384 -10.056  28.135  1.00 41.93 LIG 0.21  C 
ATOM     21 O    GLY F 806      15.971 -11.193  27.862  1.00 42.62 LIG-0.29  OA
ENDBRANCH 19 20
ENDBRANCH 17 19
ENDBRANCH 5 15
ENDBRANCH 3 5
BRANCH 1 22
ATOM     22  CA  LEU F 804      11.249 -12.655  28.580  1.00 43.64 LIG 0.18  C 
BRANCH 22 23
ATOM     23  N   LEU F 804      10.832 -13.863  29.292  1.00 45.07 LIG-0.35  N 
ATOM     24  C   ASP F 803      11.704 -14.669  29.889  1.00 46.18 LIG 0.26  C 
ATOM     25 O    ASP F 803      12.914 -14.412  29.958  1.00 46.48 LIG-0.27  OA
ATOM     26 H    LEU F 804       9.983 -13.999  29.287  1.00 45.07 LIG 0.16  HD
BRANCH 24 27
ATOM     27  CA  ASP F 803      11.129 -15.954  30.510  1.00 46.88 LIG 0.41  C 
ATOM     28  N   ASP F 803      12.050 -16.565  31.508  1.00 47.04 LIG 0.61  N 
BRANCH 27 29
ATOM     29  CB  ASP F 803       9.773 -15.669  31.165  1.00 47.42 LIG 0.16  C 
BRANCH 29 30
ATOM     30  CG  ASP F 803       8.599 -15.857  30.203  1.00 48.96 LIG 0.17  C 
ATOM     31 OD1  ASP F 803       8.483 -15.040  29.260  1.00 50.04 LIG-0.65  OA
ATOM     32 OD2  ASP F 803       7.795 -16.806  30.385  1.00 49.91 LIG-0.65  OA
ENDBRANCH 29 30
ENDBRANCH 27 29
ENDBRANCH 24 27
ENDBRANCH 22 23
BRANCH 22 33
ATOM     33  CB  LEU F 804      10.071 -12.102  27.768  1.00 43.69 LIG 0.04  C 
BRANCH 33 34
ATOM     34  CG  LEU F 804       9.905 -12.405  26.268  1.00 43.67 LIG-0.02  C 
ATOM     35  CD2 LEU F 804       8.469 -12.157  25.850  1.00 43.56 LIG 0.01  C 
ATOM     36  CD1 LEU F 804      10.360 -13.806  25.864  1.00 44.06 LIG 0.01  C 
ENDBRANCH 33 34
ENDBRANCH 22 33
ENDBRANCH 1 22
TORSDOF 14
ENDMDL
MODEL 37
USER: ADFR SOLUTION from run 25
USER: SCORE 10.445058 LL:  -2.777 LR:  -9.469 RR:   0.000 FEB:  -5.293
USER: RMSD 7.804149
USER: SEED 24
USER: STATUS no improvement in best in 12 clusters for 5 generations
USER: GENES 16
USER: genes 0 Translation |==|  0.57725 0.38970 0.39086
USER: genes 1 Rotation |==|  0.56974 0.67358 0.96367 0.50459
USER: genes 2 Torsion [C]-N--CA-[CB] |==|  0.32861
USER: genes 3 Torsion [N]-CA--CB-[CG] |==|  0.64210
USER: genes 4 Torsion [CA]-CB--CG-[CD2] |==|  0.56637
USER: genes 5 Torsion [CE2]-CZ--OH-[HH] |==|  0.30851
USER: genes 6 Torsion [N]-CA--C-[N] |==|  0.18160
USER: genes 7 Torsion [C]-N--CA-[C] |==|  0.63013
USER: genes 8 Torsion [N]-CA--C-[O] |==|  0.85252
USER: genes 9 Torsion [N]-C--CA-[N] |==|  0.46111
USER: genes 10 Torsion [C]-CA--N-[C] |==|  0.81510
USER: genes 11 Torsion [N]-C--CA-[N] |==|  0.13673
USER: genes 12 Torsion [C]-CA--CB-[CG] |==|  0.71854
USER: genes 13 Torsion [CA]-CB--CG-[OD1] |==|  0.74342
USER: genes 14 Torsion [C]-CA--CB-[CG] |==|  0.70764
USER: genes 15 Torsion [CA]-CB--CG-[CD2] |==|  0.53569
ROOT
ATOM      1  C   LEU F 804      13.005 -13.789  30.670  1.00 42.60 LIG 0.24  C 
ATOM      2 O    LEU F 804      12.010 -13.381  31.279  1.00 42.72 LIG-0.27  OA
ATOM      3  N   TYR F 805      13.859 -14.676  31.186  1.00 41.09 LIG-0.35  N 
ATOM      4 H    TYR F 805      14.639 -14.831  30.858  1.00 41.09 LIG 0.16  HD
ENDROOT
BRANCH 3 5
ATOM      5  CA  TYR F 805      13.538 -15.482  32.379  1.00 40.08 LIG 0.18  C 
BRANCH 5 6
ATOM      6  CB  TYR F 805      13.548 -16.972  32.011  1.00 38.23 LIG 0.07  C 
BRANCH 6 7
ATOM      7  CG  TYR F 805      12.298 -17.696  32.444  1.00 36.43 LIG-0.06  A 
ATOM      8  CD2 TYR F 805      12.310 -19.071  32.655  1.00 35.39 LIG 0.01  A 
ATOM      9  CE2 TYR F 805      11.155 -19.754  33.038  1.00 33.62 LIG 0.04  A 
ATOM     10  CZ  TYR F 805       9.977 -19.056  33.219  1.00 33.40 LIG 0.07  A 
ATOM     11  CE1 TYR F 805       9.935 -17.680  33.019  1.00 31.77 LIG 0.04  A 
ATOM     12  CD1 TYR F 805      11.093 -17.007  32.632  1.00 33.46 LIG 0.01  A 
BRANCH 10 13
ATOM     13 OH   TYR F 805       8.848 -19.742  33.607  1.00 32.97 LIG-0.36  OA
ATOM     14 HH   TYR F 805       8.645 -19.526  34.393  1.00 32.97 LIG 0.22  HD
ENDBRANCH 10 13
ENDBRANCH 6 7
ENDBRANCH 5 6
BRANCH 5 15
ATOM     15  C   TYR F 805      14.471 -15.236  33.580  1.00 40.65 LIG 0.24  C 
ATOM     16 O    TYR F 805      15.212 -16.139  33.973  1.00 41.05 LIG-0.27  OA
ATOM     17  N   GLY F 806      14.452 -14.026  34.159  1.00 41.21 LIG-0.35  N 
ATOM     18 H    GLY F 806      14.886 -13.852  34.881  1.00 41.21 LIG 0.16  HD
BRANCH 17 19
ATOM     19  CA  GLY F 806      13.698 -12.862  33.643  1.00 41.66 LIG 0.21  C 
BRANCH 19 20
ATOM     20  C   GLY F 806      14.467 -11.549  33.584  1.00 41.93 LIG 0.21  C 
ATOM     21 O    GLY F 806      15.055 -11.099  34.580  1.00 42.62 LIG-0.29  OA
ENDBRANCH 19 20
ENDBRANCH 17 19
ENDBRANCH 5 15
ENDBRANCH 3 5
BRANCH 1 22
ATOM     22  CA  LEU F 804      13.302 -13.269  29.252  1.00 43.64 LIG 0.18  C 
BRANCH 22 23
ATOM     23  N   LEU F 804      12.204 -12.560  28.595  1.00 45.07 LIG-0.35  N 
ATOM     24  C   ASP F 803      11.078 -13.172  28.240  1.00 46.18 LIG 0.26  C 
ATOM     25 O    ASP F 803      10.846 -14.356  28.514  1.00 46.48 LIG-0.27  OA
ATOM     26 H    LEU F 804      12.354 -11.724  28.463  1.00 45.07 LIG 0.16  HD
BRANCH 24 27
ATOM     27  CA  ASP F 803      10.056 -12.320  27.468  1.00 46.88 LIG 0.41  C 
ATOM     28  N   ASP F 803      10.673 -11.587  26.327  1.00 47.04 LIG 0.61  N 
BRANCH 27 29
ATOM     29  CB  ASP F 803       8.908 -13.196  26.958  1.00 47.42 LIG 0.16  C 
BRANCH 29 30
ATOM     30  CG  ASP F 803       9.040 -13.542  25.474  1.00 48.96 LIG 0.17  C 
ATOM     31 OD1  ASP F 803       8.473 -12.788  24.648  1.00 50.04 LIG-0.65  OA
ATOM     32 OD2  ASP F 803       9.697 -14.557  25.130  1.00 49.91 LIG-0.65  OA
ENDBRANCH 29 30
ENDBRANCH 27 29
ENDBRANCH 24 27
ENDBRANCH 22 23
BRANCH 22 33
ATOM     33  CB  LEU F 804      14.555 -12.385  29.263  1.00 43.69 LIG 0.04  C 
BRANCH 33 34
ATOM     34  CG  LEU F 804      14.469 -10.852  29.152  1.00 43.67 LIG-0.02  C 
ATOM     35  CD2 LEU F 804      15.844 -10.279  28.873  1.00 43.56 LIG 0.01  C 
ATOM     36  CD1 LEU F 804      13.829 -10.177  30.364  1.00 44.06 LIG 0.01  C 
ENDBRANCH 33 34
ENDBRANCH 22 33
ENDBRANCH 1 22
TORSDOF 14
ENDMDL
MODEL 38
USER: ADFR SOLUTION from run 182
USER: SCORE 10.927687 LL:  -2.521 LR:  -9.466 RR:   0.000 FEB:  -5.290
USER: RMSD 6.708727
USER: SEED 181
USER: STATUS no improvement in best in 10 clusters for 5 generations
USER: GENES 16
USER: genes 0 Translation |==|  0.68178 0.68383 0.49591
USER: genes 1 Rotation |==|  0.49032 0.01228 0.42020 0.57527
USER: genes 2 Torsion [C]-N--CA-[CB] |==|  0.14045
USER: genes 3 Torsion [N]-CA--CB-[CG] |==|  0.58252
USER: genes 4 Torsion [CA]-CB--CG-[CD2] |==|  0.43827
USER: genes 5 Torsion [CE2]-CZ--OH-[HH] |==|  0.74566
USER: genes 6 Torsion [N]-CA--C-[N] |==|  0.86216
USER: genes 7 Torsion [C]-N--CA-[C] |==|  0.72644
USER: genes 8 Torsion [N]-CA--C-[O] |==|  0.49396
USER: genes 9 Torsion [N]-C--CA-[N] |==|  0.40939
USER: genes 10 Torsion [C]-CA--N-[C] |==|  0.81659
USER: genes 11 Torsion [N]-C--CA-[N] |==|  0.06257
USER: genes 12 Torsion [C]-CA--CB-[CG] |==|  0.84038
USER: genes 13 Torsion [CA]-CB--CG-[OD1] |==|  0.40106
USER: genes 14 Torsion [C]-CA--CB-[CG] |==|  0.75116
USER: genes 15 Torsion [CA]-CB--CG-[CD2] |==|  0.56654
ROOT
ATOM      1  C   LEU F 804      14.573  -7.833  32.561  1.00 42.60 LIG 0.24  C 
ATOM      2 O    LEU F 804      13.345  -7.703  32.514  1.00 42.72 LIG-0.27  OA
ATOM      3  N   TYR F 805      15.412  -6.798  32.626  1.00 41.09 LIG-0.35  N 
ATOM      4 H    TYR F 805      16.257  -6.860  32.477  1.00 41.09 LIG 0.16  HD
ENDROOT
BRANCH 3 5
ATOM      5  CA  TYR F 805      14.960  -5.435  32.964  1.00 40.08 LIG 0.18  C 
BRANCH 5 6
ATOM      6  CB  TYR F 805      14.117  -5.475  34.245  1.00 38.23 LIG 0.07  C 
BRANCH 6 7
ATOM      7  CG  TYR F 805      13.068  -4.391  34.296  1.00 36.43 LIG-0.06  A 
ATOM      8  CD2 TYR F 805      11.945  -4.527  35.105  1.00 35.39 LIG 0.01  A 
ATOM      9  CE2 TYR F 805      10.960  -3.539  35.147  1.00 33.62 LIG 0.04  A 
ATOM     10  CZ  TYR F 805      11.101  -2.402  34.377  1.00 33.40 LIG 0.07  A 
ATOM     11  CE1 TYR F 805      12.215  -2.236  33.561  1.00 31.77 LIG 0.04  A 
ATOM     12  CD1 TYR F 805      13.191  -3.231  33.523  1.00 33.46 LIG 0.01  A 
BRANCH 10 13
ATOM     13 OH   TYR F 805      10.125  -1.431  34.437  1.00 32.97 LIG-0.36  OA
ATOM     14 HH   TYR F 805       9.550  -1.575  33.842  1.00 32.97 LIG 0.22  HD
ENDBRANCH 10 13
ENDBRANCH 6 7
ENDBRANCH 5 6
BRANCH 5 15
ATOM     15  C   TYR F 805      16.100  -4.411  33.123  1.00 40.65 LIG 0.24  C 
ATOM     16 O    TYR F 805      16.032  -3.325  32.542  1.00 41.05 LIG-0.27  OA
ATOM     17  N   GLY F 806      17.138  -4.735  33.909  1.00 41.21 LIG-0.35  N 
ATOM     18 H    GLY F 806      17.841  -4.243  33.973  1.00 41.21 LIG 0.16  HD
BRANCH 17 19
ATOM     19  CA  GLY F 806      17.206  -5.953  34.746  1.00 41.66 LIG 0.21  C 
BRANCH 19 20
ATOM     20  C   GLY F 806      16.851  -5.766  36.215  1.00 41.93 LIG 0.21  C 
ATOM     21 O    GLY F 806      16.835  -6.724  37.003  1.00 42.62 LIG-0.29  OA
ENDBRANCH 19 20
ENDBRANCH 17 19
ENDBRANCH 5 15
ENDBRANCH 3 5
BRANCH 1 22
ATOM     22  CA  LEU F 804      15.194  -9.242  32.543  1.00 43.64 LIG 0.18  C 
BRANCH 22 23
ATOM     23  N   LEU F 804      14.407 -10.290  33.192  1.00 45.07 LIG-0.35  N 
ATOM     24  C   ASP F 803      14.176 -10.294  34.501  1.00 46.18 LIG 0.26  C 
ATOM     25 O    ASP F 803      14.535  -9.373  35.246  1.00 46.48 LIG-0.27  OA
ATOM     26 H    LEU F 804      14.113 -10.893  32.654  1.00 45.07 LIG 0.16  HD
BRANCH 24 27
ATOM     27  CA  ASP F 803      13.418 -11.513  35.054  1.00 46.88 LIG 0.41  C 
ATOM     28  N   ASP F 803      13.535 -12.706  34.169  1.00 47.04 LIG 0.61  N 
BRANCH 27 29
ATOM     29  CB  ASP F 803      13.922 -11.862  36.459  1.00 47.42 LIG 0.16  C 
BRANCH 29 30
ATOM     30  CG  ASP F 803      15.425 -12.143  36.497  1.00 48.96 LIG 0.17  C 
ATOM     31 OD1  ASP F 803      16.059 -11.777  37.514  1.00 50.04 LIG-0.65  OA
ATOM     32 OD2  ASP F 803      15.973 -12.718  35.523  1.00 49.91 LIG-0.65  OA
ENDBRANCH 29 30
ENDBRANCH 27 29
ENDBRANCH 24 27
ENDBRANCH 22 23
BRANCH 22 33
ATOM     33  CB  LEU F 804      15.522  -9.659  31.103  1.00 43.69 LIG 0.04  C 
BRANCH 33 34
ATOM     34  CG  LEU F 804      14.501 -10.395  30.218  1.00 43.67 LIG-0.02  C 
ATOM     35  CD2 LEU F 804      15.225 -11.178  29.141  1.00 43.56 LIG 0.01  C 
ATOM     36  CD1 LEU F 804      13.435  -9.485  29.611  1.00 44.06 LIG 0.01  C 
ENDBRANCH 33 34
ENDBRANCH 22 33
ENDBRANCH 1 22
TORSDOF 14
ENDMDL
MODEL 39
USER: ADFR SOLUTION from run 79
USER: SCORE 11.669267 LL:  -2.983 LR:  -9.466 RR:   0.000 FEB:  -5.290
USER: RMSD 7.784767
USER: SEED 78
USER: STATUS no improvement in best in 18 clusters for 5 generations
USER: GENES 16
USER: genes 0 Translation |==|  0.58277 0.49009 0.38753
USER: genes 1 Rotation |==|  0.83038 0.39293 0.85369 0.56553
USER: genes 2 Torsion [C]-N--CA-[CB] |==|  0.18923
USER: genes 3 Torsion [N]-CA--CB-[CG] |==|  0.53023
USER: genes 4 Torsion [CA]-CB--CG-[CD2] |==|  0.63950
USER: genes 5 Torsion [CE2]-CZ--OH-[HH] |==|  0.92217
USER: genes 6 Torsion [N]-CA--C-[N] |==|  0.87042
USER: genes 7 Torsion [C]-N--CA-[C] |==|  0.73910
USER: genes 8 Torsion [N]-CA--C-[O] |==|  0.04056
USER: genes 9 Torsion [N]-C--CA-[N] |==|  0.47645
USER: genes 10 Torsion [C]-CA--N-[C] |==|  0.78826
USER: genes 11 Torsion [N]-C--CA-[N] |==|  0.57963
USER: genes 12 Torsion [C]-CA--CB-[CG] |==|  0.76696
USER: genes 13 Torsion [CA]-CB--CG-[OD1] |==|  0.28877
USER: genes 14 Torsion [C]-CA--CB-[CG] |==|  0.86945
USER: genes 15 Torsion [CA]-CB--CG-[CD2] |==|  0.67562
ROOT
ATOM      1  C   LEU F 804      13.088 -11.757  30.611  1.00 42.60 LIG 0.24  C 
ATOM      2 O    LEU F 804      13.363 -12.081  31.771  1.00 42.72 LIG-0.27  OA
ATOM      3  N   TYR F 805      12.683 -12.632  29.687  1.00 41.09 LIG-0.35  N 
ATOM      4 H    TYR F 805      12.664 -12.460  28.845  1.00 41.09 LIG 0.16  HD
ENDROOT
BRANCH 3 5
ATOM      5  CA  TYR F 805      12.225 -13.991  30.034  1.00 40.08 LIG 0.18  C 
BRANCH 5 6
ATOM      6  CB  TYR F 805      10.896 -13.907  30.796  1.00 38.23 LIG 0.07  C 
BRANCH 6 7
ATOM      7  CG  TYR F 805      10.487 -15.221  31.415  1.00 36.43 LIG-0.06  A 
ATOM      8  CD2 TYR F 805       9.208 -15.731  31.218  1.00 35.39 LIG 0.01  A 
ATOM      9  CE2 TYR F 805       8.812 -16.935  31.800  1.00 33.62 LIG 0.04  A 
ATOM     10  CZ  TYR F 805       9.704 -17.641  32.582  1.00 33.40 LIG 0.07  A 
ATOM     11  CE1 TYR F 805      10.991 -17.159  32.794  1.00 31.77 LIG 0.04  A 
ATOM     12  CD1 TYR F 805      11.376 -15.952  32.212  1.00 33.46 LIG 0.01  A 
BRANCH 10 13
ATOM     13 OH   TYR F 805       9.302 -18.834  33.142  1.00 32.97 LIG-0.36  OA
ATOM     14 HH   TYR F 805       8.471 -18.822  33.262  1.00 32.97 LIG 0.22  HD
ENDBRANCH 10 13
ENDBRANCH 6 7
ENDBRANCH 5 6
BRANCH 5 15
ATOM     15  C   TYR F 805      12.074 -14.935  28.826  1.00 40.65 LIG 0.24  C 
ATOM     16 O    TYR F 805      12.528 -16.081  28.886  1.00 41.05 LIG-0.27  OA
ATOM     17  N   GLY F 806      11.436 -14.477  27.739  1.00 41.21 LIG-0.35  N 
ATOM     18 H    GLY F 806      11.391 -14.925  27.006  1.00 41.21 LIG 0.16  HD
BRANCH 17 19
ATOM     19  CA  GLY F 806      10.743 -13.172  27.663  1.00 41.66 LIG 0.21  C 
BRANCH 19 20
ATOM     20  C   GLY F 806       9.252 -13.196  27.971  1.00 41.93 LIG 0.21  C 
ATOM     21 O    GLY F 806       8.721 -14.174  28.519  1.00 42.62 LIG-0.29  OA
ENDBRANCH 19 20
ENDBRANCH 17 19
ENDBRANCH 5 15
ENDBRANCH 3 5
BRANCH 1 22
ATOM     22  CA  LEU F 804      13.210 -10.284  30.178  1.00 43.64 LIG 0.18  C 
BRANCH 22 23
ATOM     23  N   LEU F 804      13.466  -9.327  31.254  1.00 45.07 LIG-0.35  N 
ATOM     24  C   ASP F 803      12.513  -8.933  32.092  1.00 46.18 LIG 0.26  C 
ATOM     25 O    ASP F 803      11.370  -9.408  32.077  1.00 46.48 LIG-0.27  OA
ATOM     26 H    LEU F 804      14.279  -9.048  31.290  1.00 45.07 LIG 0.16  HD
BRANCH 24 27
ATOM     27  CA  ASP F 803      12.908  -7.847  33.108  1.00 46.88 LIG 0.41  C 
ATOM     28  N   ASP F 803      12.119  -7.934  34.370  1.00 47.04 LIG 0.61  N 
BRANCH 27 29
ATOM     29  CB  ASP F 803      14.404  -7.932  33.427  1.00 47.42 LIG 0.16  C 
BRANCH 29 30
ATOM     30  CG  ASP F 803      14.721  -8.965  34.509  1.00 48.96 LIG 0.17  C 
ATOM     31 OD1  ASP F 803      15.221 -10.055  34.144  1.00 50.04 LIG-0.65  OA
ATOM     32 OD2  ASP F 803      14.473  -8.699  35.712  1.00 49.91 LIG-0.65  OA
ENDBRANCH 29 30
ENDBRANCH 27 29
ENDBRANCH 24 27
ENDBRANCH 22 23
BRANCH 22 33
ATOM     33  CB  LEU F 804      14.282 -10.138  29.090  1.00 43.69 LIG 0.04  C 
BRANCH 33 34
ATOM     34  CG  LEU F 804      15.667 -10.796  29.221  1.00 43.67 LIG-0.02  C 
ATOM     35  CD2 LEU F 804      16.741  -9.726  29.270  1.00 43.56 LIG 0.01  C 
ATOM     36  CD1 LEU F 804      15.970 -11.827  28.136  1.00 44.06 LIG 0.01  C 
ENDBRANCH 33 34
ENDBRANCH 22 33
ENDBRANCH 1 22
TORSDOF 14
ENDMDL
MODEL 40
USER: ADFR SOLUTION from run 39
USER: SCORE 11.072410 LL:  -2.859 LR:  -9.460 RR:   0.000 FEB:  -5.284
USER: RMSD 4.454904
USER: SEED 38
USER: STATUS no improvement in best in 20 clusters for 5 generations
USER: GENES 16
USER: genes 0 Translation |==|  0.64476 0.54933 0.59267
USER: genes 1 Rotation |==|  0.34142 0.30088 0.48761 0.93017
USER: genes 2 Torsion [C]-N--CA-[CB] |==|  0.44542
USER: genes 3 Torsion [N]-CA--CB-[CG] |==|  0.88321
USER: genes 4 Torsion [CA]-CB--CG-[CD2] |==|  0.71993
USER: genes 5 Torsion [CE2]-CZ--OH-[HH] |==|  0.64503
USER: genes 6 Torsion [N]-CA--C-[N] |==|  0.44858
USER: genes 7 Torsion [C]-N--CA-[C] |==|  0.70083
USER: genes 8 Torsion [N]-CA--C-[O] |==|  0.07678
USER: genes 9 Torsion [N]-C--CA-[N] |==|  0.38987
USER: genes 10 Torsion [C]-CA--N-[C] |==|  0.61086
USER: genes 11 Torsion [N]-C--CA-[N] |==|  0.17570
USER: genes 12 Torsion [C]-CA--CB-[CG] |==|  0.51076
USER: genes 13 Torsion [CA]-CB--CG-[OD1] |==|  0.48573
USER: genes 14 Torsion [C]-CA--CB-[CG] |==|  0.18832
USER: genes 15 Torsion [CA]-CB--CG-[CD2] |==|  0.14129
ROOT
ATOM      1  C   LEU F 804      14.017 -10.557  34.303  1.00 42.60 LIG 0.24  C 
ATOM      2 O    LEU F 804      14.514 -10.064  35.322  1.00 42.72 LIG-0.27  OA
ATOM      3  N   TYR F 805      13.775  -9.850  33.197  1.00 41.09 LIG-0.35  N 
ATOM      4 H    TYR F 805      13.272 -10.127  32.556  1.00 41.09 LIG 0.16  HD
ENDROOT
BRANCH 3 5
ATOM      5  CA  TYR F 805      14.357  -8.514  32.970  1.00 40.08 LIG 0.18  C 
BRANCH 5 6
ATOM      6  CB  TYR F 805      14.312  -8.181  31.473  1.00 38.23 LIG 0.07  C 
BRANCH 6 7
ATOM      7  CG  TYR F 805      14.692  -9.349  30.596  1.00 36.43 LIG-0.06  A 
ATOM      8  CD2 TYR F 805      15.965  -9.437  30.042  1.00 35.39 LIG 0.01  A 
ATOM      9  CE2 TYR F 805      16.321 -10.503  29.215  1.00 33.62 LIG 0.04  A 
ATOM     10  CZ  TYR F 805      15.400 -11.495  28.944  1.00 33.40 LIG 0.07  A 
ATOM     11  CE1 TYR F 805      14.121 -11.436  29.488  1.00 31.77 LIG 0.04  A 
ATOM     12  CD1 TYR F 805      13.773 -10.365  30.309  1.00 33.46 LIG 0.01  A 
BRANCH 10 13
ATOM     13 OH   TYR F 805      15.770 -12.546  28.135  1.00 32.97 LIG-0.36  OA
ATOM     14 HH   TYR F 805      15.208 -12.635  27.517  1.00 32.97 LIG 0.22  HD
ENDBRANCH 10 13
ENDBRANCH 6 7
ENDBRANCH 5 6
BRANCH 5 15
ATOM     15  C   TYR F 805      13.685  -7.385  33.774  1.00 40.65 LIG 0.24  C 
ATOM     16 O    TYR F 805      12.564  -7.563  34.258  1.00 41.05 LIG-0.27  OA
ATOM     17  N   GLY F 806      14.355  -6.234  33.934  1.00 41.21 LIG-0.35  N 
ATOM     18 H    GLY F 806      14.003  -5.541  34.301  1.00 41.21 LIG 0.16  HD
BRANCH 17 19
ATOM     19  CA  GLY F 806      15.755  -6.015  33.508  1.00 41.66 LIG 0.21  C 
BRANCH 19 20
ATOM     20  C   GLY F 806      16.782  -5.931  34.630  1.00 41.93 LIG 0.21  C 
ATOM     21 O    GLY F 806      16.605  -6.511  35.712  1.00 42.62 LIG-0.29  OA
ENDBRANCH 19 20
ENDBRANCH 17 19
ENDBRANCH 5 15
ENDBRANCH 3 5
BRANCH 1 22
ATOM     22  CA  LEU F 804      13.647 -12.051  34.278  1.00 43.64 LIG 0.18  C 
BRANCH 22 23
ATOM     23  N   LEU F 804      14.596 -12.950  34.935  1.00 45.07 LIG-0.35  N 
ATOM     24  C   ASP F 803      14.912 -14.137  34.428  1.00 46.18 LIG 0.26  C 
ATOM     25 O    ASP F 803      14.495 -14.529  33.330  1.00 46.48 LIG-0.27  OA
ATOM     26 H    LEU F 804      14.923 -12.642  35.667  1.00 45.07 LIG 0.16  HD
BRANCH 24 27
ATOM     27  CA  ASP F 803      15.846 -15.014  35.282  1.00 46.88 LIG 0.41  C 
ATOM     28  N   ASP F 803      15.235 -15.393  36.587  1.00 47.04 LIG 0.61  N 
BRANCH 27 29
ATOM     29  CB  ASP F 803      16.243 -16.277  34.512  1.00 47.42 LIG 0.16  C 
BRANCH 29 30
ATOM     30  CG  ASP F 803      17.096 -17.236  35.344  1.00 48.96 LIG 0.17  C 
ATOM     31 OD1  ASP F 803      17.390 -18.344  34.837  1.00 50.04 LIG-0.65  OA
ATOM     32 OD2  ASP F 803      17.468 -16.893  36.495  1.00 49.91 LIG-0.65  OA
ENDBRANCH 29 30
ENDBRANCH 27 29
ENDBRANCH 24 27
ENDBRANCH 22 23
BRANCH 22 33
ATOM     33  CB  LEU F 804      12.245 -12.260  34.866  1.00 43.69 LIG 0.04  C 
BRANCH 33 34
ATOM     34  CG  LEU F 804      10.981 -11.746  34.154  1.00 43.67 LIG-0.02  C 
ATOM     35  CD2 LEU F 804      10.983 -12.204  32.709  1.00 43.56 LIG 0.01  C 
ATOM     36  CD1 LEU F 804      10.785 -10.235  34.250  1.00 44.06 LIG 0.01  C 
ENDBRANCH 33 34
ENDBRANCH 22 33
ENDBRANCH 1 22
TORSDOF 14
ENDMDL
MODEL 41
USER: ADFR SOLUTION from run 43
USER: SCORE 10.337221 LL:  -2.658 LR:  -9.455 RR:   0.000 FEB:  -5.279
USER: RMSD 4.397206
USER: SEED 42
USER: STATUS no improvement in best in 16 clusters for 5 generations
USER: GENES 16
USER: genes 0 Translation |==|  0.57897 0.41538 0.52957
USER: genes 1 Rotation |==|  0.47363 0.25364 0.56724 0.92906
USER: genes 2 Torsion [C]-N--CA-[CB] |==|  0.18901
USER: genes 3 Torsion [N]-CA--CB-[CG] |==|  0.17398
USER: genes 4 Torsion [CA]-CB--CG-[CD2] |==|  0.91538
USER: genes 5 Torsion [CE2]-CZ--OH-[HH] |==|  0.12611
USER: genes 6 Torsion [N]-CA--C-[N] |==|  0.33245
USER: genes 7 Torsion [C]-N--CA-[C] |==|  0.45702
USER: genes 8 Torsion [N]-CA--C-[O] |==|  0.03087
USER: genes 9 Torsion [N]-C--CA-[N] |==|  0.57761
USER: genes 10 Torsion [C]-CA--N-[C] |==|  0.69706
USER: genes 11 Torsion [N]-C--CA-[N] |==|  0.23593
USER: genes 12 Torsion [C]-CA--CB-[CG] |==|  0.70434
USER: genes 13 Torsion [CA]-CB--CG-[OD1] |==|  0.12444
USER: genes 14 Torsion [C]-CA--CB-[CG] |==|  0.35084
USER: genes 15 Torsion [CA]-CB--CG-[CD2] |==|  0.60820
ROOT
ATOM      1  C   LEU F 804      13.031 -13.270  33.167  1.00 42.60 LIG 0.24  C 
ATOM      2 O    LEU F 804      13.207 -12.957  34.350  1.00 42.72 LIG-0.27  OA
ATOM      3  N   TYR F 805      12.435 -12.466  32.284  1.00 41.09 LIG-0.35  N 
ATOM      4 H    TYR F 805      12.144 -12.731  31.519  1.00 41.09 LIG 0.16  HD
ENDROOT
BRANCH 3 5
ATOM      5  CA  TYR F 805      12.219 -11.030  32.543  1.00 40.08 LIG 0.18  C 
BRANCH 5 6
ATOM      6  CB  TYR F 805      13.570 -10.303  32.567  1.00 38.23 LIG 0.07  C 
BRANCH 6 7
ATOM      7  CG  TYR F 805      14.300 -10.369  31.248  1.00 36.43 LIG-0.06  A 
ATOM      8  CD2 TYR F 805      14.142 -11.463  30.403  1.00 35.39 LIG 0.01  A 
ATOM      9  CE2 TYR F 805      14.827 -11.544  29.189  1.00 33.62 LIG 0.04  A 
ATOM     10  CZ  TYR F 805      15.672 -10.520  28.813  1.00 33.40 LIG 0.07  A 
ATOM     11  CE1 TYR F 805      15.847  -9.412  29.635  1.00 31.77 LIG 0.04  A 
ATOM     12  CD1 TYR F 805      15.163  -9.342  30.848  1.00 33.46 LIG 0.01  A 
BRANCH 10 13
ATOM     13 OH   TYR F 805      16.333 -10.609  27.607  1.00 32.97 LIG-0.36  OA
ATOM     14 HH   TYR F 805      15.796 -10.857  27.011  1.00 32.97 LIG 0.22  HD
ENDBRANCH 10 13
ENDBRANCH 6 7
ENDBRANCH 5 6
BRANCH 5 15
ATOM     15  C   TYR F 805      11.274 -10.340  31.540  1.00 40.65 LIG 0.24  C 
ATOM     16 O    TYR F 805      11.560 -10.327  30.340  1.00 41.05 LIG-0.27  OA
ATOM     17  N   GLY F 806      10.151  -9.778  32.011  1.00 41.21 LIG-0.35  N 
ATOM     18 H    GLY F 806       9.627  -9.309  31.517  1.00 41.21 LIG 0.16  HD
BRANCH 17 19
ATOM     19  CA  GLY F 806       9.682  -9.889  33.410  1.00 41.66 LIG 0.21  C 
BRANCH 19 20
ATOM     20  C   GLY F 806       8.605  -8.897  33.827  1.00 41.93 LIG 0.21  C 
ATOM     21 O    GLY F 806       8.015  -8.194  32.992  1.00 42.62 LIG-0.29  OA
ENDBRANCH 19 20
ENDBRANCH 17 19
ENDBRANCH 5 15
ENDBRANCH 3 5
BRANCH 1 22
ATOM     22  CA  LEU F 804      13.505 -14.643  32.659  1.00 43.64 LIG 0.18  C 
BRANCH 22 23
ATOM     23  N   LEU F 804      13.552 -15.708  33.662  1.00 45.07 LIG-0.35  N 
ATOM     24  C   ASP F 803      14.700 -16.196  34.121  1.00 46.18 LIG 0.26  C 
ATOM     25 O    ASP F 803      15.801 -15.731  33.800  1.00 46.48 LIG-0.27  OA
ATOM     26 H    LEU F 804      12.780 -15.982  33.920  1.00 45.07 LIG 0.16  HD
BRANCH 24 27
ATOM     27  CA  ASP F 803      14.592 -17.381  35.097  1.00 46.88 LIG 0.41  C 
ATOM     28  N   ASP F 803      14.483 -18.690  34.392  1.00 47.04 LIG 0.61  N 
BRANCH 27 29
ATOM     29  CB  ASP F 803      15.796 -17.404  36.044  1.00 47.42 LIG 0.16  C 
BRANCH 29 30
ATOM     30  CG  ASP F 803      16.790 -18.519  35.714  1.00 48.96 LIG 0.17  C 
ATOM     31 OD1  ASP F 803      17.096 -18.688  34.510  1.00 50.04 LIG-0.65  OA
ATOM     32 OD2  ASP F 803      17.259 -19.225  36.642  1.00 49.91 LIG-0.65  OA
ENDBRANCH 29 30
ENDBRANCH 27 29
ENDBRANCH 24 27
ENDBRANCH 22 23
BRANCH 22 33
ATOM     33  CB  LEU F 804      12.649 -15.093  31.468  1.00 43.69 LIG 0.04  C 
BRANCH 33 34
ATOM     34  CG  LEU F 804      13.278 -15.508  30.126  1.00 43.67 LIG-0.02  C 
ATOM     35  CD2 LEU F 804      12.429 -14.995  28.980  1.00 43.56 LIG 0.01  C 
ATOM     36  CD1 LEU F 804      13.527 -17.010  29.995  1.00 44.06 LIG 0.01  C 
ENDBRANCH 33 34
ENDBRANCH 22 33
ENDBRANCH 1 22
TORSDOF 14
ENDMDL
MODEL 42
USER: ADFR SOLUTION from run 164
USER: SCORE 11.452535 LL:  -3.064 LR:  -9.447 RR:   0.000 FEB:  -5.271
USER: RMSD 7.089304
USER: SEED 163
USER: STATUS no improvement in best in 19 clusters for 5 generations
USER: GENES 16
USER: genes 0 Translation |==|  0.44916 0.51804 0.36344
USER: genes 1 Rotation |==|  0.03820 0.35225 0.56491 0.60345
USER: genes 2 Torsion [C]-N--CA-[CB] |==|  0.20727
USER: genes 3 Torsion [N]-CA--CB-[CG] |==|  0.73888
USER: genes 4 Torsion [CA]-CB--CG-[CD2] |==|  0.74912
USER: genes 5 Torsion [CE2]-CZ--OH-[HH] |==|  0.15797
USER: genes 6 Torsion [N]-CA--C-[N] |==|  0.23889
USER: genes 7 Torsion [C]-N--CA-[C] |==|  0.64384
USER: genes 8 Torsion [N]-CA--C-[O] |==|  0.59688
USER: genes 9 Torsion [N]-C--CA-[N] |==|  0.42553
USER: genes 10 Torsion [C]-CA--N-[C] |==|  0.79549
USER: genes 11 Torsion [N]-C--CA-[N] |==|  0.30710
USER: genes 12 Torsion [C]-CA--CB-[CG] |==|  0.72448
USER: genes 13 Torsion [CA]-CB--CG-[OD1] |==|  0.71722
USER: genes 14 Torsion [C]-CA--CB-[CG] |==|  0.97758
USER: genes 15 Torsion [CA]-CB--CG-[CD2] |==|  0.64102
ROOT
ATOM      1  C   LEU F 804      11.083 -11.191  30.177  1.00 42.60 LIG 0.24  C 
ATOM      2 O    LEU F 804      11.842 -10.367  29.654  1.00 42.72 LIG-0.27  OA
ATOM      3  N   TYR F 805      10.974 -12.451  29.752  1.00 41.09 LIG-0.35  N 
ATOM      4 H    TYR F 805      10.332 -12.976  29.979  1.00 41.09 LIG 0.16  HD
ENDROOT
BRANCH 3 5
ATOM      5  CA  TYR F 805      11.959 -13.066  28.842  1.00 40.08 LIG 0.18  C 
BRANCH 5 6
ATOM      6  CB  TYR F 805      13.244 -13.387  29.616  1.00 38.23 LIG 0.07  C 
BRANCH 6 7
ATOM      7  CG  TYR F 805      14.278 -12.291  29.525  1.00 36.43 LIG-0.06  A 
ATOM      8  CD2 TYR F 805      15.229 -12.294  28.510  1.00 35.39 LIG 0.01  A 
ATOM      9  CE2 TYR F 805      16.200 -11.296  28.427  1.00 33.62 LIG 0.04  A 
ATOM     10  CZ  TYR F 805      16.219 -10.282  29.364  1.00 33.40 LIG 0.07  A 
ATOM     11  CE1 TYR F 805      15.279 -10.250  30.388  1.00 31.77 LIG 0.04  A 
ATOM     12  CD1 TYR F 805      14.315 -11.255  30.466  1.00 33.46 LIG 0.01  A 
BRANCH 10 13
ATOM     13 OH   TYR F 805      17.178  -9.298  29.263  1.00 32.97 LIG-0.36  OA
ATOM     14 HH   TYR F 805      17.125  -8.931  28.509  1.00 32.97 LIG 0.22  HD
ENDBRANCH 10 13
ENDBRANCH 6 7
ENDBRANCH 5 6
BRANCH 5 15
ATOM     15  C   TYR F 805      11.454 -14.332  28.123  1.00 40.65 LIG 0.24  C 
ATOM     16 O    TYR F 805      11.677 -15.442  28.612  1.00 41.05 LIG-0.27  OA
ATOM     17  N   GLY F 806      10.770 -14.181  26.979  1.00 41.21 LIG-0.35  N 
ATOM     18 H    GLY F 806      10.533 -14.848  26.491  1.00 41.21 LIG 0.16  HD
BRANCH 17 19
ATOM     19  CA  GLY F 806      10.343 -12.877  26.424  1.00 41.66 LIG 0.21  C 
BRANCH 19 20
ATOM     20  C   GLY F 806       8.869 -12.763  26.063  1.00 41.93 LIG 0.21  C 
ATOM     21 O    GLY F 806       8.492 -12.095  25.088  1.00 42.62 LIG-0.29  OA
ENDBRANCH 19 20
ENDBRANCH 17 19
ENDBRANCH 5 15
ENDBRANCH 3 5
BRANCH 1 22
ATOM     22  CA  LEU F 804      10.208 -10.774  31.373  1.00 43.64 LIG 0.18  C 
BRANCH 22 23
ATOM     23  N   LEU F 804      10.732  -9.680  32.191  1.00 45.07 LIG-0.35  N 
ATOM     24  C   ASP F 803      11.754  -9.847  33.024  1.00 46.18 LIG 0.26  C 
ATOM     25 O    ASP F 803      12.386 -10.909  33.104  1.00 46.48 LIG-0.27  OA
ATOM     26 H    LEU F 804      10.322  -8.932  32.083  1.00 45.07 LIG 0.16  HD
BRANCH 24 27
ATOM     27  CA  ASP F 803      12.129  -8.633  33.892  1.00 46.88 LIG 0.41  C 
ATOM     28  N   ASP F 803      11.812  -8.844  35.332  1.00 47.04 LIG 0.61  N 
BRANCH 27 29
ATOM     29  CB  ASP F 803      13.616  -8.302  33.734  1.00 47.42 LIG 0.16  C 
BRANCH 29 30
ATOM     30  CG  ASP F 803      14.471  -8.853  34.876  1.00 48.96 LIG 0.17  C 
ATOM     31 OD1  ASP F 803      14.836  -8.052  35.769  1.00 50.04 LIG-0.65  OA
ATOM     32 OD2  ASP F 803      14.781 -10.071  34.885  1.00 49.91 LIG-0.65  OA
ENDBRANCH 29 30
ENDBRANCH 27 29
ENDBRANCH 24 27
ENDBRANCH 22 23
BRANCH 22 33
ATOM     33  CB  LEU F 804       8.790 -10.431  30.898  1.00 43.69 LIG 0.04  C 
BRANCH 33 34
ATOM     34  CG  LEU F 804       8.433 -10.340  29.403  1.00 43.67 LIG-0.02  C 
ATOM     35  CD2 LEU F 804       7.721  -9.032  29.124  1.00 43.56 LIG 0.01  C 
ATOM     36  CD1 LEU F 804       7.622 -11.527  28.887  1.00 44.06 LIG 0.01  C 
ENDBRANCH 33 34
ENDBRANCH 22 33
ENDBRANCH 1 22
TORSDOF 14
ENDMDL
MODEL 43
USER: ADFR SOLUTION from run 128
USER: SCORE 11.797031 LL:  -2.502 LR:  -9.439 RR:   0.000 FEB:  -5.263
USER: RMSD 4.615392
USER: SEED 127
USER: STATUS no improvement in best in 19 clusters for 5 generations
USER: GENES 16
USER: genes 0 Translation |==|  0.56761 0.31492 0.46804
USER: genes 1 Rotation |==|  0.50239 0.99301 0.56633 0.55036
USER: genes 2 Torsion [C]-N--CA-[CB] |==|  0.82044
USER: genes 3 Torsion [N]-CA--CB-[CG] |==|  0.72165
USER: genes 4 Torsion [CA]-CB--CG-[CD2] |==|  0.34945
USER: genes 5 Torsion [CE2]-CZ--OH-[HH] |==|  0.45719
USER: genes 6 Torsion [N]-CA--C-[N] |==|  0.41667
USER: genes 7 Torsion [C]-N--CA-[C] |==|  0.78526
USER: genes 8 Torsion [N]-CA--C-[O] |==|  0.49674
USER: genes 9 Torsion [N]-C--CA-[N] |==|  0.06894
USER: genes 10 Torsion [C]-CA--N-[C] |==|  0.16774
USER: genes 11 Torsion [N]-C--CA-[N] |==|  0.49847
USER: genes 12 Torsion [C]-CA--CB-[CG] |==|  0.27132
USER: genes 13 Torsion [CA]-CB--CG-[OD1] |==|  0.57693
USER: genes 14 Torsion [C]-CA--CB-[CG] |==|  0.48090
USER: genes 15 Torsion [CA]-CB--CG-[CD2] |==|  0.52996
ROOT
ATOM      1  C   LEU F 804      12.860 -15.304  32.060  1.00 42.60 LIG 0.24  C 
ATOM      2 O    LEU F 804      11.815 -15.144  31.420  1.00 42.72 LIG-0.27  OA
ATOM      3  N   TYR F 805      13.623 -14.289  32.471  1.00 41.09 LIG-0.35  N 
ATOM      4 H    TYR F 805      14.431 -14.384  32.751  1.00 41.09 LIG 0.16  HD
ENDROOT
BRANCH 3 5
ATOM      5  CA  TYR F 805      13.144 -12.894  32.482  1.00 40.08 LIG 0.18  C 
BRANCH 5 6
ATOM      6  CB  TYR F 805      12.871 -12.432  31.044  1.00 38.23 LIG 0.07  C 
BRANCH 6 7
ATOM      7  CG  TYR F 805      13.985 -11.590  30.473  1.00 36.43 LIG-0.06  A 
ATOM      8  CD2 TYR F 805      14.586 -11.931  29.265  1.00 35.39 LIG 0.01  A 
ATOM      9  CE2 TYR F 805      15.629 -11.170  28.736  1.00 33.62 LIG 0.04  A 
ATOM     10  CZ  TYR F 805      16.072 -10.053  29.417  1.00 33.40 LIG 0.07  A 
ATOM     11  CE1 TYR F 805      15.489  -9.685  30.624  1.00 31.77 LIG 0.04  A 
ATOM     12  CD1 TYR F 805      14.450 -10.455  31.147  1.00 33.46 LIG 0.01  A 
BRANCH 10 13
ATOM     13 OH   TYR F 805      17.096  -9.306  28.877  1.00 32.97 LIG-0.36  OA
ATOM     14 HH   TYR F 805      17.130  -8.559  29.260  1.00 32.97 LIG 0.22  HD
ENDBRANCH 10 13
ENDBRANCH 6 7
ENDBRANCH 5 6
BRANCH 5 15
ATOM     15  C   TYR F 805      11.892 -12.661  33.350  1.00 40.65 LIG 0.24  C 
ATOM     16 O    TYR F 805      11.080 -13.575  33.508  1.00 41.05 LIG-0.27  OA
ATOM     17  N   GLY F 806      11.732 -11.458  33.921  1.00 41.21 LIG-0.35  N 
ATOM     18 H    GLY F 806      11.018 -11.240  34.348  1.00 41.21 LIG 0.16  HD
BRANCH 17 19
ATOM     19  CA  GLY F 806      12.741 -10.376  33.892  1.00 41.66 LIG 0.21  C 
BRANCH 19 20
ATOM     20  C   GLY F 806      13.911 -10.537  34.853  1.00 41.93 LIG 0.21  C 
ATOM     21 O    GLY F 806      14.828  -9.703  34.900  1.00 42.62 LIG-0.29  OA
ENDBRANCH 19 20
ENDBRANCH 17 19
ENDBRANCH 5 15
ENDBRANCH 3 5
BRANCH 1 22
ATOM     22  CA  LEU F 804      13.333 -16.726  32.412  1.00 43.64 LIG 0.18  C 
BRANCH 22 23
ATOM     23  N   LEU F 804      14.200 -16.833  33.586  1.00 45.07 LIG-0.35  N 
ATOM     24  C   ASP F 803      13.802 -16.455  34.796  1.00 46.18 LIG 0.26  C 
ATOM     25 O    ASP F 803      12.650 -16.067  35.030  1.00 46.48 LIG-0.27  OA
ATOM     26 H    LEU F 804      14.978 -17.159  33.420  1.00 45.07 LIG 0.16  HD
BRANCH 24 27
ATOM     27  CA  ASP F 803      14.857 -16.532  35.913  1.00 46.88 LIG 0.41  C 
ATOM     28  N   ASP F 803      14.326 -16.077  37.229  1.00 47.04 LIG 0.61  N 
BRANCH 27 29
ATOM     29  CB  ASP F 803      15.397 -17.960  36.041  1.00 47.42 LIG 0.16  C 
BRANCH 29 30
ATOM     30  CG  ASP F 803      16.721 -18.161  35.304  1.00 48.96 LIG 0.17  C 
ATOM     31 OD1  ASP F 803      16.985 -19.313  34.885  1.00 50.04 LIG-0.65  OA
ATOM     32 OD2  ASP F 803      17.496 -17.185  35.145  1.00 49.91 LIG-0.65  OA
ENDBRANCH 29 30
ENDBRANCH 27 29
ENDBRANCH 24 27
ENDBRANCH 22 23
BRANCH 22 33
ATOM     33  CB  LEU F 804      12.127 -17.661  32.573  1.00 43.69 LIG 0.04  C 
BRANCH 33 34
ATOM     34  CG  LEU F 804      12.296 -19.178  32.773  1.00 43.67 LIG-0.02  C 
ATOM     35  CD2 LEU F 804      10.953 -19.867  32.636  1.00 43.56 LIG 0.01  C 
ATOM     36  CD1 LEU F 804      12.977 -19.559  34.086  1.00 44.06 LIG 0.01  C 
ENDBRANCH 33 34
ENDBRANCH 22 33
ENDBRANCH 1 22
TORSDOF 14
ENDMDL
MODEL 44
USER: ADFR SOLUTION from run 60
USER: SCORE 12.299178 LL:  -3.100 LR:  -9.427 RR:   0.000 FEB:  -5.251
USER: RMSD 5.631469
USER: SEED 59
USER: STATUS no improvement in best in 11 clusters for 5 generations
USER: GENES 16
USER: genes 0 Translation |==|  0.65966 0.63061 0.48058
USER: genes 1 Rotation |==|  0.46489 0.88806 0.74732 0.69237
USER: genes 2 Torsion [C]-N--CA-[CB] |==|  0.83333
USER: genes 3 Torsion [N]-CA--CB-[CG] |==|  0.81417
USER: genes 4 Torsion [CA]-CB--CG-[CD2] |==|  0.98682
USER: genes 5 Torsion [CE2]-CZ--OH-[HH] |==|  0.99334
USER: genes 6 Torsion [N]-CA--C-[N] |==|  0.44888
USER: genes 7 Torsion [C]-N--CA-[C] |==|  0.28359
USER: genes 8 Torsion [N]-CA--C-[O] |==|  0.98805
USER: genes 9 Torsion [N]-C--CA-[N] |==|  0.10962
USER: genes 10 Torsion [C]-CA--N-[C] |==|  0.16106
USER: genes 11 Torsion [N]-C--CA-[N] |==|  0.89886
USER: genes 12 Torsion [C]-CA--CB-[CG] |==|  0.83265
USER: genes 13 Torsion [CA]-CB--CG-[OD1] |==|  0.74879
USER: genes 14 Torsion [C]-CA--CB-[CG] |==|  0.28080
USER: genes 15 Torsion [CA]-CB--CG-[CD2] |==|  0.34888
ROOT
ATOM      1  C   LEU F 804      14.241  -8.911  32.285  1.00 42.60 LIG 0.24  C 
ATOM      2 O    LEU F 804      13.667  -8.236  31.424  1.00 42.72 LIG-0.27  OA
ATOM      3  N   TYR F 805      14.280  -8.565  33.574  1.00 41.09 LIG-0.35  N 
ATOM      4 H    TYR F 805      14.818  -8.917  34.145  1.00 41.09 LIG 0.16  HD
ENDROOT
BRANCH 3 5
ATOM      5  CA  TYR F 805      13.392  -7.533  34.142  1.00 40.08 LIG 0.18  C 
BRANCH 5 6
ATOM      6  CB  TYR F 805      13.633  -6.197  33.428  1.00 38.23 LIG 0.07  C 
BRANCH 6 7
ATOM      7  CG  TYR F 805      15.001  -5.620  33.701  1.00 36.43 LIG-0.06  A 
ATOM      8  CD2 TYR F 805      15.864  -6.234  34.602  1.00 35.39 LIG 0.01  A 
ATOM      9  CE2 TYR F 805      17.124  -5.700  34.875  1.00 33.62 LIG 0.04  A 
ATOM     10  CZ  TYR F 805      17.528  -4.544  34.238  1.00 33.40 LIG 0.07  A 
ATOM     11  CE1 TYR F 805      16.688  -3.909  33.329  1.00 31.77 LIG 0.04  A 
ATOM     12  CD1 TYR F 805      15.429  -4.448  33.066  1.00 33.46 LIG 0.01  A 
BRANCH 10 13
ATOM     13 OH   TYR F 805      18.779  -4.034  34.510  1.00 32.97 LIG-0.36  OA
ATOM     14 HH   TYR F 805      19.153  -4.508  35.094  1.00 32.97 LIG 0.22  HD
ENDBRANCH 10 13
ENDBRANCH 6 7
ENDBRANCH 5 6
BRANCH 5 15
ATOM     15  C   TYR F 805      11.894  -7.888  34.089  1.00 40.65 LIG 0.24  C 
ATOM     16 O    TYR F 805      11.502  -8.775  33.327  1.00 41.05 LIG-0.27  OA
ATOM     17  N   GLY F 806      11.055  -7.219  34.894  1.00 41.21 LIG-0.35  N 
ATOM     18 H    GLY F 806      10.201  -7.312  34.853  1.00 41.21 LIG 0.16  HD
BRANCH 17 19
ATOM     19  CA  GLY F 806      11.482  -6.254  35.932  1.00 41.66 LIG 0.21  C 
BRANCH 19 20
ATOM     20  C   GLY F 806      11.331  -4.783  35.570  1.00 41.93 LIG 0.21  C 
ATOM     21 O    GLY F 806      10.952  -4.430  34.443  1.00 42.62 LIG-0.29  OA
ENDBRANCH 19 20
ENDBRANCH 17 19
ENDBRANCH 5 15
ENDBRANCH 3 5
BRANCH 1 22
ATOM     22  CA  LEU F 804      14.955 -10.215  31.886  1.00 43.64 LIG 0.18  C 
BRANCH 22 23
ATOM     23  N   LEU F 804      14.819 -11.326  32.828  1.00 45.07 LIG-0.35  N 
ATOM     24  C   ASP F 803      13.633 -11.811  33.182  1.00 46.18 LIG 0.26  C 
ATOM     25 O    ASP F 803      12.572 -11.417  32.681  1.00 46.48 LIG-0.27  OA
ATOM     26 H    LEU F 804      15.566 -11.630  33.124  1.00 45.07 LIG 0.16  HD
BRANCH 24 27
ATOM     27  CA  ASP F 803      13.643 -12.912  34.258  1.00 46.88 LIG 0.41  C 
ATOM     28  N   ASP F 803      14.810 -13.828  34.124  1.00 47.04 LIG 0.61  N 
BRANCH 27 29
ATOM     29  CB  ASP F 803      13.633 -12.291  35.658  1.00 47.42 LIG 0.16  C 
BRANCH 29 30
ATOM     30  CG  ASP F 803      14.846 -11.397  35.919  1.00 48.96 LIG 0.17  C 
ATOM     31 OD1  ASP F 803      15.864 -11.931  36.419  1.00 50.04 LIG-0.65  OA
ATOM     32 OD2  ASP F 803      14.788 -10.175  35.634  1.00 49.91 LIG-0.65  OA
ENDBRANCH 29 30
ENDBRANCH 27 29
ENDBRANCH 24 27
ENDBRANCH 22 23
BRANCH 22 33
ATOM     33  CB  LEU F 804      14.502 -10.663  30.490  1.00 43.69 LIG 0.04  C 
BRANCH 33 34
ATOM     34  CG  LEU F 804      15.365 -10.417  29.239  1.00 43.67 LIG-0.02  C 
ATOM     35  CD2 LEU F 804      15.596 -11.726  28.510  1.00 43.56 LIG 0.01  C 
ATOM     36  CD1 LEU F 804      16.686  -9.708  29.525  1.00 44.06 LIG 0.01  C 
ENDBRANCH 33 34
ENDBRANCH 22 33
ENDBRANCH 1 22
TORSDOF 14
ENDMDL
MODEL 45
USER: ADFR SOLUTION from run 99
USER: SCORE 11.363864 LL:  -2.888 LR:  -9.418 RR:   0.000 FEB:  -5.242
USER: RMSD 7.180649
USER: SEED 98
USER: STATUS no improvement in best in 12 clusters for 5 generations
USER: GENES 16
USER: genes 0 Translation |==|  0.39831 0.47453 0.22401
USER: genes 1 Rotation |==|  0.89802 0.75361 0.57296 0.64811
USER: genes 2 Torsion [C]-N--CA-[CB] |==|  0.15724
USER: genes 3 Torsion [N]-CA--CB-[CG] |==|  0.62442
USER: genes 4 Torsion [CA]-CB--CG-[CD2] |==|  0.45608
USER: genes 5 Torsion [CE2]-CZ--OH-[HH] |==|  0.73433
USER: genes 6 Torsion [N]-CA--C-[N] |==|  0.85523
USER: genes 7 Torsion [C]-N--CA-[C] |==|  0.27316
USER: genes 8 Torsion [N]-CA--C-[O] |==|  0.91455
USER: genes 9 Torsion [N]-C--CA-[N] |==|  0.35000
USER: genes 10 Torsion [C]-CA--N-[C] |==|  0.72483
USER: genes 11 Torsion [N]-C--CA-[N] |==|  0.37611
USER: genes 12 Torsion [C]-CA--CB-[CG] |==|  0.74831
USER: genes 13 Torsion [CA]-CB--CG-[OD1] |==|  0.06371
USER: genes 14 Torsion [C]-CA--CB-[CG] |==|  0.21980
USER: genes 15 Torsion [CA]-CB--CG-[CD2] |==|  0.78503
ROOT
ATOM      1  C   LEU F 804      10.321 -12.072  27.667  1.00 42.60 LIG 0.24  C 
ATOM      2 O    LEU F 804      11.068 -11.181  27.249  1.00 42.72 LIG-0.27  OA
ATOM      3  N   TYR F 805      10.760 -13.122  28.364  1.00 41.09 LIG-0.35  N 
ATOM      4 H    TYR F 805      10.292 -13.831  28.502  1.00 41.09 LIG 0.16  HD
ENDROOT
BRANCH 3 5
ATOM      5  CA  TYR F 805      12.105 -13.163  28.969  1.00 40.08 LIG 0.18  C 
BRANCH 5 6
ATOM      6  CB  TYR F 805      12.283 -11.962  29.907  1.00 38.23 LIG 0.07  C 
BRANCH 6 7
ATOM      7  CG  TYR F 805      13.615 -11.273  29.738  1.00 36.43 LIG-0.06  A 
ATOM      8  CD2 TYR F 805      13.826  -9.998  30.252  1.00 35.39 LIG 0.01  A 
ATOM      9  CE2 TYR F 805      15.048  -9.345  30.087  1.00 33.62 LIG 0.04  A 
ATOM     10  CZ  TYR F 805      16.072  -9.973  29.406  1.00 33.40 LIG 0.07  A 
ATOM     11  CE1 TYR F 805      15.892 -11.250  28.884  1.00 31.77 LIG 0.04  A 
ATOM     12  CD1 TYR F 805      14.666 -11.893  29.051  1.00 33.46 LIG 0.01  A 
BRANCH 10 13
ATOM     13 OH   TYR F 805      17.275  -9.320  29.260  1.00 32.97 LIG-0.36  OA
ATOM     14 HH   TYR F 805      17.294  -8.930  28.516  1.00 32.97 LIG 0.22  HD
ENDBRANCH 10 13
ENDBRANCH 6 7
ENDBRANCH 5 6
BRANCH 5 15
ATOM     15  C   TYR F 805      12.420 -14.467  29.726  1.00 40.65 LIG 0.24  C 
ATOM     16 O    TYR F 805      13.456 -15.085  29.473  1.00 41.05 LIG-0.27  OA
ATOM     17  N   GLY F 806      11.549 -14.885  30.657  1.00 41.21 LIG-0.35  N 
ATOM     18 H    GLY F 806      11.626 -15.644  31.054  1.00 41.21 LIG 0.16  HD
BRANCH 17 19
ATOM     19  CA  GLY F 806      10.370 -14.113  31.108  1.00 41.66 LIG 0.21  C 
BRANCH 19 20
ATOM     20  C   GLY F 806       9.043 -14.497  30.469  1.00 41.93 LIG 0.21  C 
ATOM     21 O    GLY F 806       8.987 -14.938  29.311  1.00 42.62 LIG-0.29  OA
ENDBRANCH 19 20
ENDBRANCH 17 19
ENDBRANCH 5 15
ENDBRANCH 3 5
BRANCH 1 22
ATOM     22  CA  LEU F 804       8.809 -11.998  27.385  1.00 43.64 LIG 0.18  C 
BRANCH 22 23
ATOM     23  N   LEU F 804       8.148 -10.758  27.795  1.00 45.07 LIG-0.35  N 
ATOM     24  C   ASP F 803       7.466 -10.662  28.931  1.00 46.18 LIG 0.26  C 
ATOM     25 O    ASP F 803       7.412 -11.582  29.759  1.00 46.48 LIG-0.27  OA
ATOM     26 H    LEU F 804       8.242 -10.109  27.239  1.00 45.07 LIG 0.16  HD
BRANCH 24 27
ATOM     27  CA  ASP F 803       6.742  -9.327  29.179  1.00 46.88 LIG 0.41  C 
ATOM     28  N   ASP F 803       5.353  -9.519  29.685  1.00 47.04 LIG 0.61  N 
BRANCH 27 29
ATOM     29  CB  ASP F 803       7.535  -8.464  30.165  1.00 47.42 LIG 0.16  C 
BRANCH 29 30
ATOM     30  CG  ASP F 803       7.129  -8.701  31.620  1.00 48.96 LIG 0.17  C 
ATOM     31 OD1  ASP F 803       6.584  -9.794  31.902  1.00 50.04 LIG-0.65  OA
ATOM     32 OD2  ASP F 803       7.346  -7.807  32.477  1.00 49.91 LIG-0.65  OA
ENDBRANCH 29 30
ENDBRANCH 27 29
ENDBRANCH 24 27
ENDBRANCH 22 23
BRANCH 22 33
ATOM     33  CB  LEU F 804       8.532 -12.264  25.900  1.00 43.69 LIG 0.04  C 
BRANCH 33 34
ATOM     34  CG  LEU F 804       8.520 -13.689  25.318  1.00 43.67 LIG-0.02  C 
ATOM     35  CD2 LEU F 804       9.942 -14.181  25.135  1.00 43.56 LIG 0.01  C 
ATOM     36  CD1 LEU F 804       7.722 -13.824  24.023  1.00 44.06 LIG 0.01  C 
ENDBRANCH 33 34
ENDBRANCH 22 33
ENDBRANCH 1 22
TORSDOF 14
ENDMDL
MODEL 46
USER: ADFR SOLUTION from run 33
USER: SCORE 11.025377 LL:  -3.129 LR:  -9.416 RR:   0.000 FEB:  -5.240
USER: RMSD 7.253186
USER: SEED 32
USER: STATUS no improvement in best in 12 clusters for 5 generations
USER: GENES 16
USER: genes 0 Translation |==|  0.45782 0.53555 0.37802
USER: genes 1 Rotation |==|  0.36918 0.34578 0.93135 0.65178
USER: genes 2 Torsion [C]-N--CA-[CB] |==|  0.23723
USER: genes 3 Torsion [N]-CA--CB-[CG] |==|  0.48949
USER: genes 4 Torsion [CA]-CB--CG-[CD2] |==|  0.69597
USER: genes 5 Torsion [CE2]-CZ--OH-[HH] |==|  0.44998
USER: genes 6 Torsion [N]-CA--C-[N] |==|  0.85562
USER: genes 7 Torsion [C]-N--CA-[C] |==|  0.30450
USER: genes 8 Torsion [N]-CA--C-[O] |==|  0.03743
USER: genes 9 Torsion [N]-C--CA-[N] |==|  0.70556
USER: genes 10 Torsion [C]-CA--N-[C] |==|  0.14841
USER: genes 11 Torsion [N]-C--CA-[N] |==|  0.63606
USER: genes 12 Torsion [C]-CA--CB-[CG] |==|  0.73540
USER: genes 13 Torsion [CA]-CB--CG-[OD1] |==|  0.28362
USER: genes 14 Torsion [C]-CA--CB-[CG] |==|  0.43902
USER: genes 15 Torsion [CA]-CB--CG-[CD2] |==|  0.98741
ROOT
ATOM      1  C   LEU F 804      11.213 -10.836  30.439  1.00 42.60 LIG 0.24  C 
ATOM      2 O    LEU F 804      10.148 -10.210  30.425  1.00 42.72 LIG-0.27  OA
ATOM      3  N   TYR F 805      11.343 -12.061  29.926  1.00 41.09 LIG-0.35  N 
ATOM      4 H    TYR F 805      12.014 -12.576  30.086  1.00 41.09 LIG 0.16  HD
ENDROOT
BRANCH 3 5
ATOM      5  CA  TYR F 805      10.336 -12.651  29.024  1.00 40.08 LIG 0.18  C 
BRANCH 5 6
ATOM      6  CB  TYR F 805      10.616 -12.210  27.582  1.00 38.23 LIG 0.07  C 
BRANCH 6 7
ATOM      7  CG  TYR F 805       9.683 -12.843  26.579  1.00 36.43 LIG-0.06  A 
ATOM      8  CD2 TYR F 805      10.145 -13.807  25.688  1.00 35.39 LIG 0.01  A 
ATOM      9  CE2 TYR F 805       9.296 -14.386  24.745  1.00 33.62 LIG 0.04  A 
ATOM     10  CZ  TYR F 805       7.970 -14.003  24.693  1.00 33.40 LIG 0.07  A 
ATOM     11  CE1 TYR F 805       7.478 -13.045  25.573  1.00 31.77 LIG 0.04  A 
ATOM     12  CD1 TYR F 805       8.336 -12.469  26.510  1.00 33.46 LIG 0.01  A 
BRANCH 10 13
ATOM     13 OH   TYR F 805       7.142 -14.592  23.763  1.00 32.97 LIG-0.36  OA
ATOM     14 HH   TYR F 805       6.341 -14.470  23.985  1.00 32.97 LIG 0.22  HD
ENDBRANCH 10 13
ENDBRANCH 6 7
ENDBRANCH 5 6
BRANCH 5 15
ATOM     15  C   TYR F 805      10.247 -14.187  29.091  1.00 40.65 LIG 0.24  C 
ATOM     16 O    TYR F 805       9.153 -14.730  29.262  1.00 41.05 LIG-0.27  OA
ATOM     17  N   GLY F 806      11.379 -14.894  28.949  1.00 41.21 LIG-0.35  N 
ATOM     18 H    GLY F 806      11.408 -15.747  29.058  1.00 41.21 LIG 0.16  HD
BRANCH 17 19
ATOM     19  CA  GLY F 806      12.692 -14.311  28.594  1.00 41.66 LIG 0.21  C 
BRANCH 19 20
ATOM     20  C   GLY F 806      13.732 -14.300  29.706  1.00 41.93 LIG 0.21  C 
ATOM     21 O    GLY F 806      13.578 -14.965  30.742  1.00 42.62 LIG-0.29  OA
ENDBRANCH 19 20
ENDBRANCH 17 19
ENDBRANCH 5 15
ENDBRANCH 3 5
BRANCH 1 22
ATOM     22  CA  LEU F 804      12.465 -10.203  31.074  1.00 43.64 LIG 0.18  C 
BRANCH 22 23
ATOM     23  N   LEU F 804      12.475 -10.147  32.536  1.00 45.07 LIG-0.35  N 
ATOM     24  C   ASP F 803      12.273 -11.226  33.286  1.00 46.18 LIG 0.26  C 
ATOM     25 O    ASP F 803      12.147 -12.360  32.807  1.00 46.48 LIG-0.27  OA
ATOM     26 H    LEU F 804      12.622  -9.364  32.857  1.00 45.07 LIG 0.16  HD
BRANCH 24 27
ATOM     27  CA  ASP F 803      12.211 -10.994  34.806  1.00 46.88 LIG 0.41  C 
ATOM     28  N   ASP F 803      13.080 -11.941  35.562  1.00 47.04 LIG 0.61  N 
BRANCH 27 29
ATOM     29  CB  ASP F 803      12.604  -9.552  35.143  1.00 47.42 LIG 0.16  C 
BRANCH 29 30
ATOM     30  CG  ASP F 803      14.081  -9.411  35.514  1.00 48.96 LIG 0.17  C 
ATOM     31 OD1  ASP F 803      14.858  -8.952  34.643  1.00 50.04 LIG-0.65  OA
ATOM     32 OD2  ASP F 803      14.469  -9.757  36.658  1.00 49.91 LIG-0.65  OA
ENDBRANCH 29 30
ENDBRANCH 27 29
ENDBRANCH 24 27
ENDBRANCH 22 23
BRANCH 22 33
ATOM     33  CB  LEU F 804      13.730 -10.915  30.576  1.00 43.69 LIG 0.04  C 
BRANCH 33 34
ATOM     34  CG  LEU F 804      15.112 -10.239  30.617  1.00 43.67 LIG-0.02  C 
ATOM     35  CD2 LEU F 804      14.970  -8.807  31.094  1.00 43.56 LIG 0.01  C 
ATOM     36  CD1 LEU F 804      15.874 -10.303  29.294  1.00 44.06 LIG 0.01  C 
ENDBRANCH 33 34
ENDBRANCH 22 33
ENDBRANCH 1 22
TORSDOF 14
ENDMDL
MODEL 47
USER: ADFR SOLUTION from run 148
USER: SCORE 11.558899 LL:  -3.029 LR:  -9.406 RR:   0.000 FEB:  -5.230
USER: RMSD 8.201311
USER: SEED 147
USER: STATUS no improvement in best in 12 clusters for 5 generations
USER: GENES 16
USER: genes 0 Translation |==|  0.68679 0.25885 0.57864
USER: genes 1 Rotation |==|  0.92066 0.58593 0.70659 0.65159
USER: genes 2 Torsion [C]-N--CA-[CB] |==|  0.51706
USER: genes 3 Torsion [N]-CA--CB-[CG] |==|  0.91958
USER: genes 4 Torsion [CA]-CB--CG-[CD2] |==|  0.75342
USER: genes 5 Torsion [CE2]-CZ--OH-[HH] |==|  0.71511
USER: genes 6 Torsion [N]-CA--C-[N] |==|  0.28889
USER: genes 7 Torsion [C]-N--CA-[C] |==|  0.65000
USER: genes 8 Torsion [N]-CA--C-[O] |==|  0.98004
USER: genes 9 Torsion [N]-C--CA-[N] |==|  0.41003
USER: genes 10 Torsion [C]-CA--N-[C] |==|  0.63334
USER: genes 11 Torsion [N]-C--CA-[N] |==|  0.68937
USER: genes 12 Torsion [C]-CA--CB-[CG] |==|  0.66660
USER: genes 13 Torsion [CA]-CB--CG-[OD1] |==|  0.77697
USER: genes 14 Torsion [C]-CA--CB-[CG] |==|  0.35473
USER: genes 15 Torsion [CA]-CB--CG-[CD2] |==|  0.97095
ROOT
ATOM      1  C   LEU F 804      14.648 -16.439  34.050  1.00 42.60 LIG 0.24  C 
ATOM      2 O    LEU F 804      15.690 -15.979  34.529  1.00 42.72 LIG-0.27  OA
ATOM      3  N   TYR F 805      14.238 -17.691  34.269  1.00 41.09 LIG-0.35  N 
ATOM      4 H    TYR F 805      13.625 -18.078  33.807  1.00 41.09 LIG 0.16  HD
ENDROOT
BRANCH 3 5
ATOM      5  CA  TYR F 805      14.806 -18.533  35.338  1.00 40.08 LIG 0.18  C 
BRANCH 5 6
ATOM      6  CB  TYR F 805      14.237 -19.954  35.230  1.00 38.23 LIG 0.07  C 
BRANCH 6 7
ATOM      7  CG  TYR F 805      12.854 -19.992  34.630  1.00 36.43 LIG-0.06  A 
ATOM      8  CD2 TYR F 805      11.726 -19.877  35.435  1.00 35.39 LIG 0.01  A 
ATOM      9  CE2 TYR F 805      10.441 -19.929  34.893  1.00 33.62 LIG 0.04  A 
ATOM     10  CZ  TYR F 805      10.281 -20.092  33.531  1.00 33.40 LIG 0.07  A 
ATOM     11  CE1 TYR F 805      11.390 -20.207  32.700  1.00 31.77 LIG 0.04  A 
ATOM     12  CD1 TYR F 805      12.670 -20.158  33.252  1.00 33.46 LIG 0.01  A 
BRANCH 10 13
ATOM     13 OH   TYR F 805       9.007 -20.132  33.009  1.00 32.97 LIG-0.36  OA
ATOM     14 HH   TYR F 805       8.798 -20.927  32.839  1.00 32.97 LIG 0.22  HD
ENDBRANCH 10 13
ENDBRANCH 6 7
ENDBRANCH 5 6
BRANCH 5 15
ATOM     15  C   TYR F 805      16.346 -18.588  35.350  1.00 40.65 LIG 0.24  C 
ATOM     16 O    TYR F 805      16.940 -19.266  34.509  1.00 41.05 LIG-0.27  OA
ATOM     17  N   GLY F 806      16.998 -17.877  36.283  1.00 41.21 LIG-0.35  N 
ATOM     18 H    GLY F 806      17.849 -17.931  36.393  1.00 41.21 LIG 0.16  HD
BRANCH 17 19
ATOM     19  CA  GLY F 806      16.351 -16.932  37.220  1.00 41.66 LIG 0.21  C 
BRANCH 19 20
ATOM     20  C   GLY F 806      16.926 -15.523  37.238  1.00 41.93 LIG 0.21  C 
ATOM     21 O    GLY F 806      17.956 -15.236  36.609  1.00 42.62 LIG-0.29  OA
ENDBRANCH 19 20
ENDBRANCH 17 19
ENDBRANCH 5 15
ENDBRANCH 3 5
BRANCH 1 22
ATOM     22  CA  LEU F 804      13.761 -15.555  33.154  1.00 43.64 LIG 0.18  C 
BRANCH 22 23
ATOM     23  N   LEU F 804      13.752 -14.129  33.482  1.00 45.07 LIG-0.35  N 
ATOM     24  C   ASP F 803      12.623 -13.436  33.591  1.00 46.18 LIG 0.26  C 
ATOM     25 O    ASP F 803      11.505 -13.961  33.507  1.00 46.48 LIG-0.27  OA
ATOM     26 H    LEU F 804      14.533 -13.789  33.596  1.00 45.07 LIG 0.16  HD
BRANCH 24 27
ATOM     27  CA  ASP F 803      12.774 -11.925  33.840  1.00 46.88 LIG 0.41  C 
ATOM     28  N   ASP F 803      12.315 -11.524  35.199  1.00 47.04 LIG 0.61  N 
BRANCH 27 29
ATOM     29  CB  ASP F 803      14.231 -11.494  33.640  1.00 47.42 LIG 0.16  C 
BRANCH 29 30
ATOM     30  CG  ASP F 803      14.846 -10.880  34.898  1.00 48.96 LIG 0.17  C 
ATOM     31 OD1  ASP F 803      14.581  -9.680  35.148  1.00 50.04 LIG-0.65  OA
ATOM     32 OD2  ASP F 803      15.589 -11.580  35.630  1.00 49.91 LIG-0.65  OA
ENDBRANCH 29 30
ENDBRANCH 27 29
ENDBRANCH 24 27
ENDBRANCH 22 23
BRANCH 22 33
ATOM     33  CB  LEU F 804      14.142 -15.744  31.680  1.00 43.69 LIG 0.04  C 
BRANCH 33 34
ATOM     34  CG  LEU F 804      13.092 -16.087  30.608  1.00 43.67 LIG-0.02  C 
ATOM     35  CD2 LEU F 804      11.777 -16.446  31.272  1.00 43.56 LIG 0.01  C 
ATOM     36  CD1 LEU F 804      13.532 -17.181  29.637  1.00 44.06 LIG 0.01  C 
ENDBRANCH 33 34
ENDBRANCH 22 33
ENDBRANCH 1 22
TORSDOF 14
ENDMDL
MODEL 48
USER: ADFR SOLUTION from run 195
USER: SCORE 11.729307 LL:  -3.525 LR:  -9.414 RR:   0.000 FEB:  -5.238
USER: RMSD 2.887458
USER: SEED 194
USER: STATUS no improvement in best in 16 clusters for 5 generations
USER: GENES 16
USER: genes 0 Translation |==|  0.59579 0.48725 0.50829
USER: genes 1 Rotation |==|  0.53421 0.46822 0.52481 0.99720
USER: genes 2 Torsion [C]-N--CA-[CB] |==|  0.26950
USER: genes 3 Torsion [N]-CA--CB-[CG] |==|  0.89842
USER: genes 4 Torsion [CA]-CB--CG-[CD2] |==|  0.77107
USER: genes 5 Torsion [CE2]-CZ--OH-[HH] |==|  0.46576
USER: genes 6 Torsion [N]-CA--C-[N] |==|  0.46938
USER: genes 7 Torsion [C]-N--CA-[C] |==|  0.80236
USER: genes 8 Torsion [N]-CA--C-[O] |==|  0.13200
USER: genes 9 Torsion [N]-C--CA-[N] |==|  0.94096
USER: genes 10 Torsion [C]-CA--N-[C] |==|  0.76940
USER: genes 11 Torsion [N]-C--CA-[N] |==|  0.92390
USER: genes 12 Torsion [C]-CA--CB-[CG] |==|  0.65321
USER: genes 13 Torsion [CA]-CB--CG-[OD1] |==|  0.17168
USER: genes 14 Torsion [C]-CA--CB-[CG] |==|  0.46890
USER: genes 15 Torsion [CA]-CB--CG-[CD2] |==|  0.24983
ROOT
ATOM      1  C   LEU F 804      13.283 -11.814  32.784  1.00 42.60 LIG 0.24  C 
ATOM      2 O    LEU F 804      14.371 -11.769  33.368  1.00 42.72 LIG-0.27  OA
ATOM      3  N   TYR F 805      12.382 -10.831  32.847  1.00 41.09 LIG-0.35  N 
ATOM      4 H    TYR F 805      11.562 -10.921  32.604  1.00 41.09 LIG 0.16  HD
ENDROOT
BRANCH 3 5
ATOM      5  CA  TYR F 805      12.717  -9.483  33.344  1.00 40.08 LIG 0.18  C 
BRANCH 5 6
ATOM      6  CB  TYR F 805      13.017  -8.557  32.158  1.00 38.23 LIG 0.07  C 
BRANCH 6 7
ATOM      7  CG  TYR F 805      13.740  -9.254  31.032  1.00 36.43 LIG-0.06  A 
ATOM      8  CD2 TYR F 805      15.120  -9.428  31.073  1.00 35.39 LIG 0.01  A 
ATOM      9  CE2 TYR F 805      15.801 -10.055  30.030  1.00 33.62 LIG 0.04  A 
ATOM     10  CZ  TYR F 805      15.097 -10.519  28.936  1.00 33.40 LIG 0.07  A 
ATOM     11  CE1 TYR F 805      13.717 -10.363  28.869  1.00 31.77 LIG 0.04  A 
ATOM     12  CD1 TYR F 805      13.045  -9.731  29.915  1.00 33.46 LIG 0.01  A 
BRANCH 10 13
ATOM     13 OH   TYR F 805      15.782 -11.145  27.918  1.00 32.97 LIG-0.36  OA
ATOM     14 HH   TYR F 805      15.236 -11.524  27.404  1.00 32.97 LIG 0.22  HD
ENDBRANCH 10 13
ENDBRANCH 6 7
ENDBRANCH 5 6
BRANCH 5 15
ATOM     15  C   TYR F 805      11.634  -8.851  34.238  1.00 40.65 LIG 0.24  C 
ATOM     16 O    TYR F 805      10.524  -9.381  34.321  1.00 41.05 LIG-0.27  OA
ATOM     17  N   GLY F 806      11.942  -7.733  34.914  1.00 41.21 LIG-0.35  N 
ATOM     18 H    GLY F 806      11.359  -7.289  35.363  1.00 41.21 LIG 0.16  HD
BRANCH 17 19
ATOM     19  CA  GLY F 806      13.295  -7.137  34.972  1.00 41.66 LIG 0.21  C 
BRANCH 19 20
ATOM     20  C   GLY F 806      14.322  -7.906  35.791  1.00 41.93 LIG 0.21  C 
ATOM     21 O    GLY F 806      14.471  -9.130  35.658  1.00 42.62 LIG-0.29  OA
ENDBRANCH 19 20
ENDBRANCH 17 19
ENDBRANCH 5 15
ENDBRANCH 3 5
BRANCH 1 22
ATOM     22  CA  LEU F 804      12.918 -13.050  31.941  1.00 43.64 LIG 0.18  C 
BRANCH 22 23
ATOM     23  N   LEU F 804      11.489 -13.251  31.698  1.00 45.07 LIG-0.35  N 
ATOM     24  C   ASP F 803      10.698 -13.849  32.583  1.00 46.18 LIG 0.26  C 
ATOM     25 O    ASP F 803      11.093 -14.201  33.703  1.00 46.48 LIG-0.27  OA
ATOM     26 H    LEU F 804      11.215 -12.950  30.941  1.00 45.07 LIG 0.16  HD
BRANCH 24 27
ATOM     27  CA  ASP F 803       9.241 -14.080  32.146  1.00 46.88 LIG 0.41  C 
ATOM     28  N   ASP F 803       8.782 -13.077  31.144  1.00 47.04 LIG 0.61  N 
BRANCH 27 29
ATOM     29  CB  ASP F 803       9.072 -15.493  31.578  1.00 47.42 LIG 0.16  C 
BRANCH 29 30
ATOM     30  CG  ASP F 803       8.480 -15.498  30.168  1.00 48.96 LIG 0.17  C 
ATOM     31 OD1  ASP F 803       9.134 -14.931  29.260  1.00 50.04 LIG-0.65  OA
ATOM     32 OD2  ASP F 803       7.373 -16.056  29.962  1.00 49.91 LIG-0.65  OA
ENDBRANCH 29 30
ENDBRANCH 27 29
ENDBRANCH 24 27
ENDBRANCH 22 23
BRANCH 22 33
ATOM     33  CB  LEU F 804      13.670 -13.021  30.604  1.00 43.69 LIG 0.04  C 
BRANCH 33 34
ATOM     34  CG  LEU F 804      13.704 -14.240  29.665  1.00 43.67 LIG-0.02  C 
ATOM     35  CD2 LEU F 804      12.537 -14.177  28.700  1.00 43.56 LIG 0.01  C 
ATOM     36  CD1 LEU F 804      13.744 -15.583  30.392  1.00 44.06 LIG 0.01  C 
ENDBRANCH 33 34
ENDBRANCH 22 33
ENDBRANCH 1 22
TORSDOF 14
ENDMDL
MODEL 49
USER: ADFR SOLUTION from run 71
USER: SCORE 11.253817 LL:  -2.881 LR:  -9.414 RR:   0.000 FEB:  -5.238
USER: RMSD 7.687679
USER: SEED 70
USER: STATUS no improvement in best in 20 clusters for 5 generations
USER: GENES 16
USER: genes 0 Translation |==|  0.60672 0.43541 0.42576
USER: genes 1 Rotation |==|  0.68401 0.62053 0.92164 0.65437
USER: genes 2 Torsion [C]-N--CA-[CB] |==|  0.77702
USER: genes 3 Torsion [N]-CA--CB-[CG] |==|  0.72338
USER: genes 4 Torsion [CA]-CB--CG-[CD2] |==|  0.86755
USER: genes 5 Torsion [CE2]-CZ--OH-[HH] |==|  0.56386
USER: genes 6 Torsion [N]-CA--C-[N] |==|  0.22607
USER: genes 7 Torsion [C]-N--CA-[C] |==|  0.73884
USER: genes 8 Torsion [N]-CA--C-[O] |==|  0.75238
USER: genes 9 Torsion [N]-C--CA-[N] |==|  0.21162
USER: genes 10 Torsion [C]-CA--N-[C] |==|  0.18888
USER: genes 11 Torsion [N]-C--CA-[N] |==|  0.60092
USER: genes 12 Torsion [C]-CA--CB-[CG] |==|  0.51383
USER: genes 13 Torsion [CA]-CB--CG-[OD1] |==|  0.59331
USER: genes 14 Torsion [C]-CA--CB-[CG] |==|  0.37719
USER: genes 15 Torsion [CA]-CB--CG-[CD2] |==|  0.99811
ROOT
ATOM      1  C   LEU F 804      13.447 -12.864  31.299  1.00 42.60 LIG 0.24  C 
ATOM      2 O    LEU F 804      13.159 -11.981  32.115  1.00 42.72 LIG-0.27  OA
ATOM      3  N   TYR F 805      13.527 -14.156  31.623  1.00 41.09 LIG-0.35  N 
ATOM      4 H    TYR F 805      13.897 -14.750  31.124  1.00 41.09 LIG 0.16  HD
ENDROOT
BRANCH 3 5
ATOM      5  CA  TYR F 805      12.980 -14.689  32.885  1.00 40.08 LIG 0.18  C 
BRANCH 5 6
ATOM      6  CB  TYR F 805      13.964 -14.412  34.030  1.00 38.23 LIG 0.07  C 
BRANCH 6 7
ATOM      7  CG  TYR F 805      14.815 -15.608  34.380  1.00 36.43 LIG-0.06  A 
ATOM      8  CD2 TYR F 805      14.240 -16.862  34.558  1.00 35.39 LIG 0.01  A 
ATOM      9  CE2 TYR F 805      15.015 -17.971  34.899  1.00 33.62 LIG 0.04  A 
ATOM     10  CZ  TYR F 805      16.379 -17.828  35.059  1.00 33.40 LIG 0.07  A 
ATOM     11  CE1 TYR F 805      16.983 -16.587  34.884  1.00 31.77 LIG 0.04  A 
ATOM     12  CD1 TYR F 805      16.199 -15.484  34.547  1.00 33.46 LIG 0.01  A 
BRANCH 10 13
ATOM     13 OH   TYR F 805      17.132 -18.934  35.386  1.00 32.97 LIG-0.36  OA
ATOM     14 HH   TYR F 805      17.846 -18.688  35.753  1.00 32.97 LIG 0.22  HD
ENDBRANCH 10 13
ENDBRANCH 6 7
ENDBRANCH 5 6
BRANCH 5 15
ATOM     15  C   TYR F 805      11.587 -14.143  33.253  1.00 40.65 LIG 0.24  C 
ATOM     16 O    TYR F 805      11.488 -13.213  34.057  1.00 41.05 LIG-0.27  OA
ATOM     17  N   GLY F 806      10.514 -14.699  32.669  1.00 41.21 LIG-0.35  N 
ATOM     18 H    GLY F 806       9.709 -14.496  32.893  1.00 41.21 LIG 0.16  HD
BRANCH 17 19
ATOM     19  CA  GLY F 806      10.578 -15.711  31.591  1.00 41.66 LIG 0.21  C 
BRANCH 19 20
ATOM     20  C   GLY F 806      10.503 -15.169  30.171  1.00 41.93 LIG 0.21  C 
ATOM     21 O    GLY F 806       9.415 -15.013  29.595  1.00 42.62 LIG-0.29  OA
ENDBRANCH 19 20
ENDBRANCH 17 19
ENDBRANCH 5 15
ENDBRANCH 3 5
BRANCH 1 22
ATOM     22  CA  LEU F 804      13.735 -12.488  29.834  1.00 43.64 LIG 0.18  C 
BRANCH 22 23
ATOM     23  N   LEU F 804      12.664 -12.785  28.882  1.00 45.07 LIG-0.35  N 
ATOM     24  C   ASP F 803      11.504 -12.136  28.897  1.00 46.18 LIG 0.26  C 
ATOM     25 O    ASP F 803      11.279 -11.186  29.658  1.00 46.48 LIG-0.27  OA
ATOM     26 H    LEU F 804      12.855 -13.407  28.320  1.00 45.07 LIG 0.16  HD
BRANCH 24 27
ATOM     27  CA  ASP F 803      10.438 -12.626  27.902  1.00 46.88 LIG 0.41  C 
ATOM     28  N   ASP F 803       9.627 -11.509  27.342  1.00 47.04 LIG 0.61  N 
BRANCH 27 29
ATOM     29  CB  ASP F 803      11.094 -13.410  26.760  1.00 47.42 LIG 0.16  C 
BRANCH 29 30
ATOM     30  CG  ASP F 803      10.098 -13.820  25.674  1.00 48.96 LIG 0.17  C 
ATOM     31 OD1  ASP F 803      10.293 -14.911  25.088  1.00 50.04 LIG-0.65  OA
ATOM     32 OD2  ASP F 803       9.133 -13.063  25.401  1.00 49.91 LIG-0.65  OA
ENDBRANCH 29 30
ENDBRANCH 27 29
ENDBRANCH 24 27
ENDBRANCH 22 23
BRANCH 22 33
ATOM     33  CB  LEU F 804      14.121 -11.007  29.732  1.00 43.69 LIG 0.04  C 
BRANCH 33 34
ATOM     34  CG  LEU F 804      15.303 -10.533  28.866  1.00 43.67 LIG-0.02  C 
ATOM     35  CD2 LEU F 804      15.964 -11.725  28.204  1.00 43.56 LIG 0.01  C 
ATOM     36  CD1 LEU F 804      16.326  -9.687  29.623  1.00 44.06 LIG 0.01  C 
ENDBRANCH 33 34
ENDBRANCH 22 33
ENDBRANCH 1 22
TORSDOF 14
ENDMDL
MODEL 50
USER: ADFR SOLUTION from run 163
USER: SCORE 11.267464 LL:  -2.726 LR:  -9.410 RR:   0.000 FEB:  -5.234
USER: RMSD 4.591687
USER: SEED 162
USER: STATUS no improvement in best in 12 clusters for 5 generations
USER: GENES 16
USER: genes 0 Translation |==|  0.67558 0.55750 0.60596
USER: genes 1 Rotation |==|  0.35470 0.21836 0.55537 0.88275
USER: genes 2 Torsion [C]-N--CA-[CB] |==|  0.51667
USER: genes 3 Torsion [N]-CA--CB-[CG] |==|  0.89919
USER: genes 4 Torsion [CA]-CB--CG-[CD2] |==|  0.76479
USER: genes 5 Torsion [CE2]-CZ--OH-[HH] |==|  0.59385
USER: genes 6 Torsion [N]-CA--C-[N] |==|  0.37399
USER: genes 7 Torsion [C]-N--CA-[C] |==|  0.69642
USER: genes 8 Torsion [N]-CA--C-[O] |==|  0.08161
USER: genes 9 Torsion [N]-C--CA-[N] |==|  0.50322
USER: genes 10 Torsion [C]-CA--N-[C] |==|  0.58691
USER: genes 11 Torsion [N]-C--CA-[N] |==|  0.39125
USER: genes 12 Torsion [C]-CA--CB-[CG] |==|  0.11694
USER: genes 13 Torsion [CA]-CB--CG-[OD1] |==|  0.65429
USER: genes 14 Torsion [C]-CA--CB-[CG] |==|  0.27603
USER: genes 15 Torsion [CA]-CB--CG-[CD2] |==|  0.59684
ROOT
ATOM      1  C   LEU F 804      14.480 -10.392  34.542  1.00 42.60 LIG 0.24  C 
ATOM      2 O    LEU F 804      14.469  -9.674  35.548  1.00 42.72 LIG-0.27  OA
ATOM      3  N   TYR F 805      14.352  -9.910  33.304  1.00 41.09 LIG-0.35  N 
ATOM      4 H    TYR F 805      14.176 -10.399  32.619  1.00 41.09 LIG 0.16  HD
ENDROOT
BRANCH 3 5
ATOM      5  CA  TYR F 805      14.505  -8.476  32.995  1.00 40.08 LIG 0.18  C 
BRANCH 5 6
ATOM      6  CB  TYR F 805      14.153  -8.227  31.522  1.00 38.23 LIG 0.07  C 
BRANCH 6 7
ATOM      7  CG  TYR F 805      14.588  -9.350  30.613  1.00 36.43 LIG-0.06  A 
ATOM      8  CD2 TYR F 805      15.885  -9.397  30.112  1.00 35.39 LIG 0.01  A 
ATOM      9  CE2 TYR F 805      16.293 -10.421  29.256  1.00 33.62 LIG 0.04  A 
ATOM     10  CZ  TYR F 805      15.399 -11.411  28.902  1.00 33.40 LIG 0.07  A 
ATOM     11  CE1 TYR F 805      14.097 -11.393  29.390  1.00 31.77 LIG 0.04  A 
ATOM     12  CD1 TYR F 805      13.697 -10.363  30.241  1.00 33.46 LIG 0.01  A 
BRANCH 10 13
ATOM     13 OH   TYR F 805      15.820 -12.421  28.065  1.00 32.97 LIG-0.36  OA
ATOM     14 HH   TYR F 805      15.182 -12.662  27.573  1.00 32.97 LIG 0.22  HD
ENDBRANCH 10 13
ENDBRANCH 6 7
ENDBRANCH 5 6
BRANCH 5 15
ATOM     15  C   TYR F 805      13.673  -7.542  33.894  1.00 40.65 LIG 0.24  C 
ATOM     16 O    TYR F 805      12.496  -7.817  34.138  1.00 41.05 LIG-0.27  OA
ATOM     17  N   GLY F 806      14.268  -6.449  34.397  1.00 41.21 LIG-0.35  N 
ATOM     18 H    GLY F 806      13.837  -5.849  34.836  1.00 41.21 LIG 0.16  HD
BRANCH 17 19
ATOM     19  CA  GLY F 806      15.710  -6.145  34.263  1.00 41.66 LIG 0.21  C 
BRANCH 19 20
ATOM     20  C   GLY F 806      16.531  -6.262  35.539  1.00 41.93 LIG 0.21  C 
ATOM     21 O    GLY F 806      16.217  -7.056  36.440  1.00 42.62 LIG-0.29  OA
ENDBRANCH 19 20
ENDBRANCH 17 19
ENDBRANCH 5 15
ENDBRANCH 3 5
BRANCH 1 22
ATOM     22  CA  LEU F 804      14.642 -11.916  34.690  1.00 43.64 LIG 0.18  C 
BRANCH 22 23
ATOM     23  N   LEU F 804      14.752 -12.411  36.063  1.00 45.07 LIG-0.35  N 
ATOM     24  C   ASP F 803      15.463 -13.490  36.370  1.00 46.18 LIG 0.26  C 
ATOM     25 O    ASP F 803      16.147 -14.101  35.538  1.00 46.48 LIG-0.27  OA
ATOM     26 H    LEU F 804      14.320 -11.944  36.641  1.00 45.07 LIG 0.16  HD
BRANCH 24 27
ATOM     27  CA  ASP F 803      15.404 -13.948  37.838  1.00 46.88 LIG 0.41  C 
ATOM     28  N   ASP F 803      15.355 -15.432  37.969  1.00 47.04 LIG 0.61  N 
BRANCH 27 29
ATOM     29  CB  ASP F 803      16.604 -13.400  38.617  1.00 47.42 LIG 0.16  C 
BRANCH 29 30
ATOM     30  CG  ASP F 803      16.919 -11.944  38.274  1.00 48.96 LIG 0.17  C 
ATOM     31 OD1  ASP F 803      18.079 -11.677  37.881  1.00 50.04 LIG-0.65  OA
ATOM     32 OD2  ASP F 803      16.023 -11.071  38.395  1.00 49.91 LIG-0.65  OA
ENDBRANCH 29 30
ENDBRANCH 27 29
ENDBRANCH 24 27
ENDBRANCH 22 23
BRANCH 22 33
ATOM     33  CB  LEU F 804      13.500 -12.643  33.969  1.00 43.69 LIG 0.04  C 
BRANCH 33 34
ATOM     34  CG  LEU F 804      13.680 -13.246  32.564  1.00 43.67 LIG-0.02  C 
ATOM     35  CD2 LEU F 804      12.390 -13.111  31.778  1.00 43.56 LIG 0.01  C 
ATOM     36  CD1 LEU F 804      14.171 -14.693  32.568  1.00 44.06 LIG 0.01  C 
ENDBRANCH 33 34
ENDBRANCH 22 33
ENDBRANCH 1 22
TORSDOF 14
ENDMDL
MODEL 51
USER: ADFR SOLUTION from run 38
USER: SCORE 11.051152 LL:  -3.046 LR:  -9.398 RR:   0.000 FEB:  -5.221
USER: RMSD 5.380398
USER: SEED 37
USER: STATUS no improvement in best in 12 clusters for 5 generations
USER: GENES 16
USER: genes 0 Translation |==|  0.66160 0.57772 0.53287
USER: genes 1 Rotation |==|  0.63275 0.40916 0.60513 0.96160
USER: genes 2 Torsion [C]-N--CA-[CB] |==|  0.26467
USER: genes 3 Torsion [N]-CA--CB-[CG] |==|  0.74013
USER: genes 4 Torsion [CA]-CB--CG-[CD2] |==|  0.93332
USER: genes 5 Torsion [CE2]-CZ--OH-[HH] |==|  0.03270
USER: genes 6 Torsion [N]-CA--C-[N] |==|  0.38131
USER: genes 7 Torsion [C]-N--CA-[C] |==|  0.81910
USER: genes 8 Torsion [N]-CA--C-[O] |==|  0.28600
USER: genes 9 Torsion [N]-C--CA-[N] |==|  0.95556
USER: genes 10 Torsion [C]-CA--N-[C] |==|  0.65605
USER: genes 11 Torsion [N]-C--CA-[N] |==|  0.29577
USER: genes 12 Torsion [C]-CA--CB-[CG] |==|  0.61069
USER: genes 13 Torsion [CA]-CB--CG-[OD1] |==|  0.69037
USER: genes 14 Torsion [C]-CA--CB-[CG] |==|  0.62392
USER: genes 15 Torsion [CA]-CB--CG-[CD2] |==|  0.15545
ROOT
ATOM      1  C   LEU F 804      14.270  -9.982  33.227  1.00 42.60 LIG 0.24  C 
ATOM      2 O    LEU F 804      15.148  -9.890  34.092  1.00 42.72 LIG-0.27  OA
ATOM      3  N   TYR F 805      13.073  -9.402  33.340  1.00 41.09 LIG-0.35  N 
ATOM      4 H    TYR F 805      12.399  -9.602  32.845  1.00 41.09 LIG 0.16  HD
ENDROOT
BRANCH 3 5
ATOM      5  CA  TYR F 805      12.796  -8.351  34.337  1.00 40.08 LIG 0.18  C 
BRANCH 5 6
ATOM      6  CB  TYR F 805      12.972  -6.970  33.691  1.00 38.23 LIG 0.07  C 
BRANCH 6 7
ATOM      7  CG  TYR F 805      14.354  -6.399  33.885  1.00 36.43 LIG-0.06  A 
ATOM      8  CD2 TYR F 805      15.150  -6.809  34.950  1.00 35.39 LIG 0.01  A 
ATOM      9  CE2 TYR F 805      16.423  -6.274  35.150  1.00 33.62 LIG 0.04  A 
ATOM     10  CZ  TYR F 805      16.909  -5.324  34.275  1.00 33.40 LIG 0.07  A 
ATOM     11  CE1 TYR F 805      16.138  -4.896  33.199  1.00 31.77 LIG 0.04  A 
ATOM     12  CD1 TYR F 805      14.865  -5.433  33.010  1.00 33.46 LIG 0.01  A 
BRANCH 10 13
ATOM     13 OH   TYR F 805      18.172  -4.812  34.479  1.00 32.97 LIG-0.36  OA
ATOM     14 HH   TYR F 805      18.572  -5.276  35.054  1.00 32.97 LIG 0.22  HD
ENDBRANCH 10 13
ENDBRANCH 6 7
ENDBRANCH 5 6
BRANCH 5 15
ATOM     15  C   TYR F 805      11.404  -8.447  34.989  1.00 40.65 LIG 0.24  C 
ATOM     16 O    TYR F 805      10.420  -8.709  34.293  1.00 41.05 LIG-0.27  OA
ATOM     17  N   GLY F 806      11.309  -8.251  36.313  1.00 41.21 LIG-0.35  N 
ATOM     18 H    GLY F 806      10.553  -8.210  36.721  1.00 41.21 LIG 0.16  HD
BRANCH 17 19
ATOM     19  CA  GLY F 806      12.466  -8.083  37.219  1.00 41.66 LIG 0.21  C 
BRANCH 19 20
ATOM     20  C   GLY F 806      13.376  -9.295  37.361  1.00 41.93 LIG 0.21  C 
ATOM     21 O    GLY F 806      14.471  -9.353  36.782  1.00 42.62 LIG-0.29  OA
ENDBRANCH 19 20
ENDBRANCH 17 19
ENDBRANCH 5 15
ENDBRANCH 3 5
BRANCH 1 22
ATOM     22  CA  LEU F 804      14.537 -10.800  31.950  1.00 43.64 LIG 0.18  C 
BRANCH 22 23
ATOM     23  N   LEU F 804      13.353 -11.161  31.169  1.00 45.07 LIG-0.35  N 
ATOM     24  C   ASP F 803      13.063 -12.422  30.867  1.00 46.18 LIG 0.26  C 
ATOM     25 O    ASP F 803      13.721 -13.380  31.290  1.00 46.48 LIG-0.27  OA
ATOM     26 H    LEU F 804      12.871 -10.490  30.930  1.00 45.07 LIG 0.16  HD
BRANCH 24 27
ATOM     27  CA  ASP F 803      11.842 -12.638  29.955  1.00 46.88 LIG 0.41  C 
ATOM     28  N   ASP F 803      12.228 -13.028  28.570  1.00 47.04 LIG 0.61  N 
BRANCH 27 29
ATOM     29  CB  ASP F 803      10.913 -13.701  30.551  1.00 47.42 LIG 0.16  C 
BRANCH 29 30
ATOM     30  CG  ASP F 803      10.329 -14.639  29.493  1.00 48.96 LIG 0.17  C 
ATOM     31 OD1  ASP F 803       9.100 -14.560  29.260  1.00 50.04 LIG-0.65  OA
ATOM     32 OD2  ASP F 803      11.085 -15.450  28.901  1.00 49.91 LIG-0.65  OA
ENDBRANCH 29 30
ENDBRANCH 27 29
ENDBRANCH 24 27
ENDBRANCH 22 23
BRANCH 22 33
ATOM     33  CB  LEU F 804      15.544 -10.069  31.052  1.00 43.69 LIG 0.04  C 
BRANCH 33 34
ATOM     34  CG  LEU F 804      15.333  -9.939  29.533  1.00 43.67 LIG-0.02  C 
ATOM     35  CD2 LEU F 804      13.993  -9.288  29.254  1.00 43.56 LIG 0.01  C 
ATOM     36  CD1 LEU F 804      15.473 -11.256  28.772  1.00 44.06 LIG 0.01  C 
ENDBRANCH 33 34
ENDBRANCH 22 33
ENDBRANCH 1 22
TORSDOF 14
ENDMDL
MODEL 52
USER: ADFR SOLUTION from run 72
USER: SCORE 12.315436 LL:  -2.964 LR:  -9.397 RR:   0.000 FEB:  -5.221
USER: RMSD 7.518605
USER: SEED 71
USER: STATUS no improvement in best in 9 clusters for 5 generations
USER: GENES 16
USER: genes 0 Translation |==|  0.60808 0.49227 0.35802
USER: genes 1 Rotation |==|  0.88022 0.38882 0.79234 0.58722
USER: genes 2 Torsion [C]-N--CA-[CB] |==|  0.80858
USER: genes 3 Torsion [N]-CA--CB-[CG] |==|  0.37911
USER: genes 4 Torsion [CA]-CB--CG-[CD2] |==|  0.74322
USER: genes 5 Torsion [CE2]-CZ--OH-[HH] |==|  0.25862
USER: genes 6 Torsion [N]-CA--C-[N] |==|  0.38662
USER: genes 7 Torsion [C]-N--CA-[C] |==|  0.50322
USER: genes 8 Torsion [N]-CA--C-[O] |==|  0.31005
USER: genes 9 Torsion [N]-C--CA-[N] |==|  0.43402
USER: genes 10 Torsion [C]-CA--N-[C] |==|  0.80728
USER: genes 11 Torsion [N]-C--CA-[N] |==|  0.51759
USER: genes 12 Torsion [C]-CA--CB-[CG] |==|  0.75030
USER: genes 13 Torsion [CA]-CB--CG-[OD1] |==|  0.79771
USER: genes 14 Torsion [C]-CA--CB-[CG] |==|  0.85787
USER: genes 15 Torsion [CA]-CB--CG-[CD2] |==|  0.23275
ROOT
ATOM      1  C   LEU F 804      13.467 -11.713  30.079  1.00 42.60 LIG 0.24  C 
ATOM      2 O    LEU F 804      14.071 -12.101  31.085  1.00 42.72 LIG-0.27  OA
ATOM      3  N   TYR F 805      12.736 -12.524  29.312  1.00 41.09 LIG-0.35  N 
ATOM      4 H    TYR F 805      12.465 -12.316  28.523  1.00 41.09 LIG 0.16  HD
ENDROOT
BRANCH 3 5
ATOM      5  CA  TYR F 805      12.322 -13.869  29.754  1.00 40.08 LIG 0.18  C 
BRANCH 5 6
ATOM      6  CB  TYR F 805      13.550 -14.784  29.837  1.00 38.23 LIG 0.07  C 
BRANCH 6 7
ATOM      7  CG  TYR F 805      13.568 -15.638  31.081  1.00 36.43 LIG-0.06  A 
ATOM      8  CD2 TYR F 805      14.219 -15.205  32.231  1.00 35.39 LIG 0.01  A 
ATOM      9  CE2 TYR F 805      14.258 -15.994  33.381  1.00 33.62 LIG 0.04  A 
ATOM     10  CZ  TYR F 805      13.634 -17.226  33.385  1.00 33.40 LIG 0.07  A 
ATOM     11  CE1 TYR F 805      12.971 -17.684  32.251  1.00 31.77 LIG 0.04  A 
ATOM     12  CD1 TYR F 805      12.942 -16.890  31.105  1.00 33.46 LIG 0.01  A 
BRANCH 10 13
ATOM     13 OH   TYR F 805      13.671 -17.989  34.531  1.00 32.97 LIG-0.36  OA
ATOM     14 HH   TYR F 805      12.986 -17.835  34.993  1.00 32.97 LIG 0.22  HD
ENDBRANCH 10 13
ENDBRANCH 6 7
ENDBRANCH 5 6
BRANCH 5 15
ATOM     15  C   TYR F 805      11.566 -13.889  31.096  1.00 40.65 LIG 0.24  C 
ATOM     16 O    TYR F 805      11.937 -13.159  32.018  1.00 41.05 LIG-0.27  OA
ATOM     17  N   GLY F 806      10.507 -14.705  31.215  1.00 41.21 LIG-0.35  N 
ATOM     18 H    GLY F 806      10.095 -14.822  31.961  1.00 41.21 LIG 0.16  HD
BRANCH 17 19
ATOM     19  CA  GLY F 806       9.925 -15.489  30.103  1.00 41.66 LIG 0.21  C 
BRANCH 19 20
ATOM     20  C   GLY F 806       8.706 -16.330  30.455  1.00 41.93 LIG 0.21  C 
ATOM     21 O    GLY F 806       7.581 -16.056  30.009  1.00 42.62 LIG-0.29  OA
ENDBRANCH 19 20
ENDBRANCH 17 19
ENDBRANCH 5 15
ENDBRANCH 3 5
BRANCH 1 22
ATOM     22  CA  LEU F 804      13.544 -10.232  29.663  1.00 43.64 LIG 0.18  C 
BRANCH 22 23
ATOM     23  N   LEU F 804      13.860  -9.288  30.736  1.00 45.07 LIG-0.35  N 
ATOM     24  C   ASP F 803      13.004  -9.021  31.717  1.00 46.18 LIG 0.26  C 
ATOM     25 O    ASP F 803      11.922  -9.610  31.840  1.00 46.48 LIG-0.27  OA
ATOM     26 H    LEU F 804      14.638  -8.930  30.671  1.00 45.07 LIG 0.16  HD
BRANCH 24 27
ATOM     27  CA  ASP F 803      13.435  -7.933  32.717  1.00 46.88 LIG 0.41  C 
ATOM     28  N   ASP F 803      12.489  -7.807  33.862  1.00 47.04 LIG 0.61  N 
BRANCH 27 29
ATOM     29  CB  ASP F 803      14.845  -8.218  33.242  1.00 47.42 LIG 0.16  C 
BRANCH 29 30
ATOM     30  CG  ASP F 803      14.846  -9.086  34.501  1.00 48.96 LIG 0.17  C 
ATOM     31 OD1  ASP F 803      14.471  -8.556  35.573  1.00 50.04 LIG-0.65  OA
ATOM     32 OD2  ASP F 803      15.219 -10.284  34.427  1.00 49.91 LIG-0.65  OA
ENDBRANCH 29 30
ENDBRANCH 27 29
ENDBRANCH 24 27
ENDBRANCH 22 23
BRANCH 22 33
ATOM     33  CB  LEU F 804      14.541 -10.056  28.511  1.00 43.69 LIG 0.04  C 
BRANCH 33 34
ATOM     34  CG  LEU F 804      15.972 -10.619  28.581  1.00 43.67 LIG-0.02  C 
ATOM     35  CD2 LEU F 804      15.971 -12.078  28.170  1.00 43.56 LIG 0.01  C 
ATOM     36  CD1 LEU F 804      16.647 -10.431  29.938  1.00 44.06 LIG 0.01  C 
ENDBRANCH 33 34
ENDBRANCH 22 33
ENDBRANCH 1 22
TORSDOF 14
ENDMDL
MODEL 53
USER: ADFR SOLUTION from run 78
USER: SCORE 10.842861 LL:  -3.326 LR:  -9.393 RR:   0.000 FEB:  -5.217
USER: RMSD 6.437501
USER: SEED 77
USER: STATUS no improvement in best in 11 clusters for 5 generations
USER: GENES 16
USER: genes 0 Translation |==|  0.55585 0.46027 0.41447
USER: genes 1 Rotation |==|  0.47458 0.19648 0.10575 0.54234
USER: genes 2 Torsion [C]-N--CA-[CB] |==|  0.26558
USER: genes 3 Torsion [N]-CA--CB-[CG] |==|  0.97708
USER: genes 4 Torsion [CA]-CB--CG-[CD2] |==|  0.19335
USER: genes 5 Torsion [CE2]-CZ--OH-[HH] |==|  0.10003
USER: genes 6 Torsion [N]-CA--C-[N] |==|  0.17907
USER: genes 7 Torsion [C]-N--CA-[C] |==|  0.56591
USER: genes 8 Torsion [N]-CA--C-[O] |==|  0.31170
USER: genes 9 Torsion [N]-C--CA-[N] |==|  0.53027
USER: genes 10 Torsion [C]-CA--N-[C] |==|  0.78889
USER: genes 11 Torsion [N]-C--CA-[N] |==|  0.10190
USER: genes 12 Torsion [C]-CA--CB-[CG] |==|  0.68307
USER: genes 13 Torsion [CA]-CB--CG-[OD1] |==|  0.71562
USER: genes 14 Torsion [C]-CA--CB-[CG] |==|  0.87823
USER: genes 15 Torsion [CA]-CB--CG-[CD2] |==|  0.83743
ROOT
ATOM      1  C   LEU F 804      12.684 -12.361  31.095  1.00 42.60 LIG 0.24  C 
ATOM      2 O    LEU F 804      11.541 -12.022  31.423  1.00 42.72 LIG-0.27  OA
ATOM      3  N   TYR F 805      13.669 -12.543  31.977  1.00 41.09 LIG-0.35  N 
ATOM      4 H    TYR F 805      14.499 -12.597  31.758  1.00 41.09 LIG 0.16  HD
ENDROOT
BRANCH 3 5
ATOM      5  CA  TYR F 805      13.421 -12.669  33.425  1.00 40.08 LIG 0.18  C 
BRANCH 5 6
ATOM      6  CB  TYR F 805      13.341 -14.153  33.806  1.00 38.23 LIG 0.07  C 
BRANCH 6 7
ATOM      7  CG  TYR F 805      13.334 -15.071  32.608  1.00 36.43 LIG-0.06  A 
ATOM      8  CD2 TYR F 805      14.473 -15.224  31.824  1.00 35.39 LIG 0.01  A 
ATOM      9  CE2 TYR F 805      14.473 -16.056  30.703  1.00 33.62 LIG 0.04  A 
ATOM     10  CZ  TYR F 805      13.326 -16.746  30.366  1.00 33.40 LIG 0.07  A 
ATOM     11  CE1 TYR F 805      12.173 -16.616  31.133  1.00 31.77 LIG 0.04  A 
ATOM     12  CD1 TYR F 805      12.181 -15.779  32.248  1.00 33.46 LIG 0.01  A 
BRANCH 10 13
ATOM     13 OH   TYR F 805      13.344 -17.572  29.263  1.00 32.97 LIG-0.36  OA
ATOM     14 HH   TYR F 805      14.096 -17.941  29.202  1.00 32.97 LIG 0.22  HD
ENDBRANCH 10 13
ENDBRANCH 6 7
ENDBRANCH 5 6
BRANCH 5 15
ATOM     15  C   TYR F 805      14.462 -11.960  34.311  1.00 40.65 LIG 0.24  C 
ATOM     16 O    TYR F 805      15.188 -12.626  35.054  1.00 41.05 LIG-0.27  OA
ATOM     17  N   GLY F 806      14.554 -10.624  34.236  1.00 41.21 LIG-0.35  N 
ATOM     18 H    GLY F 806      15.056 -10.165  34.762  1.00 41.21 LIG 0.16  HD
BRANCH 17 19
ATOM     19  CA  GLY F 806      13.820  -9.788  33.261  1.00 41.66 LIG 0.21  C 
BRANCH 19 20
ATOM     20  C   GLY F 806      14.442  -8.433  32.951  1.00 41.93 LIG 0.21  C 
ATOM     21 O    GLY F 806      14.920  -8.181  31.835  1.00 42.62 LIG-0.29  OA
ENDBRANCH 19 20
ENDBRANCH 17 19
ENDBRANCH 5 15
ENDBRANCH 3 5
BRANCH 1 22
ATOM     22  CA  LEU F 804      13.019 -12.587  29.610  1.00 43.64 LIG 0.18  C 
BRANCH 22 23
ATOM     23  N   LEU F 804      12.001 -12.143  28.656  1.00 45.07 LIG-0.35  N 
ATOM     24  C   ASP F 803      10.883 -12.830  28.446  1.00 46.18 LIG 0.26  C 
ATOM     25 O    ASP F 803      10.585 -13.840  29.096  1.00 46.48 LIG-0.27  OA
ATOM     26 H    LEU F 804      12.193 -11.409  28.253  1.00 45.07 LIG 0.16  HD
BRANCH 24 27
ATOM     27  CA  ASP F 803       9.954 -12.294  27.341  1.00 46.88 LIG 0.41  C 
ATOM     28  N   ASP F 803      10.709 -11.738  26.184  1.00 47.04 LIG 0.61  N 
BRANCH 27 29
ATOM     29  CB  ASP F 803       9.008 -13.398  26.858  1.00 47.42 LIG 0.16  C 
BRANCH 29 30
ATOM     30  CG  ASP F 803       9.264 -13.805  25.406  1.00 48.96 LIG 0.17  C 
ATOM     31 OD1  ASP F 803       8.479 -13.367  24.532  1.00 50.04 LIG-0.65  OA
ATOM     32 OD2  ASP F 803      10.235 -14.556  25.135  1.00 49.91 LIG-0.65  OA
ENDBRANCH 29 30
ENDBRANCH 27 29
ENDBRANCH 24 27
ENDBRANCH 22 23
BRANCH 22 33
ATOM     33  CB  LEU F 804      14.366 -11.939  29.265  1.00 43.69 LIG 0.04  C 
BRANCH 33 34
ATOM     34  CG  LEU F 804      14.742 -10.531  29.761  1.00 43.67 LIG-0.02  C 
ATOM     35  CD2 LEU F 804      13.721  -9.524  29.270  1.00 43.56 LIG 0.01  C 
ATOM     36  CD1 LEU F 804      16.160 -10.101  29.391  1.00 44.06 LIG 0.01  C 
ENDBRANCH 33 34
ENDBRANCH 22 33
ENDBRANCH 1 22
TORSDOF 14
ENDMDL
MODEL 54
USER: ADFR SOLUTION from run 103
USER: SCORE 12.286748 LL:  -3.406 LR:  -9.388 RR:   0.000 FEB:  -5.212
USER: RMSD 9.129986
USER: SEED 102
USER: STATUS no improvement in best in 15 clusters for 5 generations
USER: GENES 16
USER: genes 0 Translation |==|  0.75999 0.77922 0.56199
USER: genes 1 Rotation |==|  0.90991 0.32365 0.71689 0.56188
USER: genes 2 Torsion [C]-N--CA-[CB] |==|  0.76396
USER: genes 3 Torsion [N]-CA--CB-[CG] |==|  0.65533
USER: genes 4 Torsion [CA]-CB--CG-[CD2] |==|  0.87885
USER: genes 5 Torsion [CE2]-CZ--OH-[HH] |==|  0.51336
USER: genes 6 Torsion [N]-CA--C-[N] |==|  0.20503
USER: genes 7 Torsion [C]-N--CA-[C] |==|  0.70267
USER: genes 8 Torsion [N]-CA--C-[O] |==|  0.10174
USER: genes 9 Torsion [N]-C--CA-[N] |==|  0.09444
USER: genes 10 Torsion [C]-CA--N-[C] |==|  0.70182
USER: genes 11 Torsion [N]-C--CA-[N] |==|  0.61952
USER: genes 12 Torsion [C]-CA--CB-[CG] |==|  0.66581
USER: genes 13 Torsion [CA]-CB--CG-[OD1] |==|  0.31566
USER: genes 14 Torsion [C]-CA--CB-[CG] |==|  0.38098
USER: genes 15 Torsion [CA]-CB--CG-[CD2] |==|  0.12309
ROOT
ATOM      1  C   LEU F 804      15.746  -5.902  33.751  1.00 42.60 LIG 0.24  C 
ATOM      2 O    LEU F 804      16.449  -6.671  34.414  1.00 42.72 LIG-0.27  OA
ATOM      3  N   TYR F 805      14.731  -6.317  32.990  1.00 41.09 LIG-0.35  N 
ATOM      4 H    TYR F 805      14.354  -5.829  32.391  1.00 41.09 LIG 0.16  HD
ENDROOT
BRANCH 3 5
ATOM      5  CA  TYR F 805      14.155  -7.670  33.112  1.00 40.08 LIG 0.18  C 
BRANCH 5 6
ATOM      6  CB  TYR F 805      14.971  -8.654  32.264  1.00 38.23 LIG 0.07  C 
BRANCH 6 7
ATOM      7  CG  TYR F 805      14.133  -9.403  31.257  1.00 36.43 LIG-0.06  A 
ATOM      8  CD2 TYR F 805      12.895  -9.929  31.613  1.00 35.39 LIG 0.01  A 
ATOM      9  CE2 TYR F 805      12.120 -10.638  30.696  1.00 33.62 LIG 0.04  A 
ATOM     10  CZ  TYR F 805      12.583 -10.820  29.408  1.00 33.40 LIG 0.07  A 
ATOM     11  CE1 TYR F 805      13.815 -10.304  29.021  1.00 31.77 LIG 0.04  A 
ATOM     12  CD1 TYR F 805      14.584  -9.600  29.947  1.00 33.46 LIG 0.01  A 
BRANCH 10 13
ATOM     13 OH   TYR F 805      11.801 -11.514  28.510  1.00 32.97 LIG-0.36  OA
ATOM     14 HH   TYR F 805      12.221 -11.611  27.789  1.00 32.97 LIG 0.22  HD
ENDBRANCH 10 13
ENDBRANCH 6 7
ENDBRANCH 5 6
BRANCH 5 15
ATOM     15  C   TYR F 805      14.054  -8.188  34.559  1.00 40.65 LIG 0.24  C 
ATOM     16 O    TYR F 805      14.842  -9.050  34.956  1.00 41.05 LIG-0.27  OA
ATOM     17  N   GLY F 806      13.105  -7.670  35.353  1.00 41.21 LIG-0.35  N 
ATOM     18 H    GLY F 806      12.946  -7.974  36.142  1.00 41.21 LIG 0.16  HD
BRANCH 17 19
ATOM     19  CA  GLY F 806      12.232  -6.534  34.983  1.00 41.66 LIG 0.21  C 
BRANCH 19 20
ATOM     20  C   GLY F 806      12.537  -5.213  35.676  1.00 41.93 LIG 0.21  C 
ATOM     21 O    GLY F 806      13.701  -4.867  35.925  1.00 42.62 LIG-0.29  OA
ENDBRANCH 19 20
ENDBRANCH 17 19
ENDBRANCH 5 15
ENDBRANCH 3 5
BRANCH 1 22
ATOM     22  CA  LEU F 804      16.030  -4.389  33.778  1.00 43.64 LIG 0.18  C 
BRANCH 22 23
ATOM     23  N   LEU F 804      14.857  -3.522  33.672  1.00 45.07 LIG-0.35  N 
ATOM     24  C   ASP F 803      14.585  -2.831  32.569  1.00 46.18 LIG 0.26  C 
ATOM     25 O    ASP F 803      15.254  -2.936  31.532  1.00 46.48 LIG-0.27  OA
ATOM     26 H    LEU F 804      14.368  -3.503  34.379  1.00 45.07 LIG 0.16  HD
BRANCH 24 27
ATOM     27  CA  ASP F 803      13.374  -1.885  32.640  1.00 46.88 LIG 0.41  C 
ATOM     28  N   ASP F 803      12.528  -1.951  31.415  1.00 47.04 LIG 0.61  N 
BRANCH 27 29
ATOM     29  CB  ASP F 803      12.522  -2.200  33.873  1.00 47.42 LIG 0.16  C 
BRANCH 29 30
ATOM     30  CG  ASP F 803      11.086  -2.591  33.519  1.00 48.96 LIG 0.17  C 
ATOM     31 OD1  ASP F 803      10.727  -3.768  33.760  1.00 50.04 LIG-0.65  OA
ATOM     32 OD2  ASP F 803      10.322  -1.738  33.001  1.00 49.91 LIG-0.65  OA
ENDBRANCH 29 30
ENDBRANCH 27 29
ENDBRANCH 24 27
ENDBRANCH 22 23
BRANCH 22 33
ATOM     33  CB  LEU F 804      16.831  -4.022  35.035  1.00 43.69 LIG 0.04  C 
BRANCH 33 34
ATOM     34  CG  LEU F 804      18.017  -3.043  34.985  1.00 43.67 LIG-0.02  C 
ATOM     35  CD2 LEU F 804      17.655  -1.840  34.137  1.00 43.56 LIG 0.01  C 
ATOM     36  CD1 LEU F 804      19.324  -3.675  34.510  1.00 44.06 LIG 0.01  C 
ENDBRANCH 33 34
ENDBRANCH 22 33
ENDBRANCH 1 22
TORSDOF 14
ENDMDL
MODEL 55
USER: ADFR SOLUTION from run 197
USER: SCORE 10.901459 LL:  -3.290 LR:  -9.371 RR:   0.000 FEB:  -5.194
USER: RMSD 7.326060
USER: SEED 196
USER: STATUS no improvement in best in 5 clusters for 5 generations
USER: GENES 16
USER: genes 0 Translation |==|  0.54250 0.49971 0.34080
USER: genes 1 Rotation |==|  0.83999 0.29937 0.79691 0.57747
USER: genes 2 Torsion [C]-N--CA-[CB] |==|  0.35327
USER: genes 3 Torsion [N]-CA--CB-[CG] |==|  0.87133
USER: genes 4 Torsion [CA]-CB--CG-[CD2] |==|  0.85173
USER: genes 5 Torsion [CE2]-CZ--OH-[HH] |==|  0.22462
USER: genes 6 Torsion [N]-CA--C-[N] |==|  0.27351
USER: genes 7 Torsion [C]-N--CA-[C] |==|  0.70585
USER: genes 8 Torsion [N]-CA--C-[O] |==|  0.63113
USER: genes 9 Torsion [N]-C--CA-[N] |==|  0.42222
USER: genes 10 Torsion [C]-CA--N-[C] |==|  0.83059
USER: genes 11 Torsion [N]-C--CA-[N] |==|  0.60067
USER: genes 12 Torsion [C]-CA--CB-[CG] |==|  0.66572
USER: genes 13 Torsion [CA]-CB--CG-[OD1] |==|  0.27356
USER: genes 14 Torsion [C]-CA--CB-[CG] |==|  0.82873
USER: genes 15 Torsion [CA]-CB--CG-[CD2] |==|  0.66743
ROOT
ATOM      1  C   LEU F 804      12.484 -11.562  29.769  1.00 42.60 LIG 0.24  C 
ATOM      2 O    LEU F 804      12.748 -12.283  30.738  1.00 42.72 LIG-0.27  OA
ATOM      3  N   TYR F 805      11.741 -11.972  28.739  1.00 41.09 LIG-0.35  N 
ATOM      4 H    TYR F 805      11.700 -11.556  27.987  1.00 41.09 LIG 0.16  HD
ENDROOT
BRANCH 3 5
ATOM      5  CA  TYR F 805      10.913 -13.191  28.797  1.00 40.08 LIG 0.18  C 
BRANCH 5 6
ATOM      6  CB  TYR F 805       9.473 -12.854  28.388  1.00 38.23 LIG 0.07  C 
BRANCH 6 7
ATOM      7  CG  TYR F 805       8.944 -11.609  29.057  1.00 36.43 LIG-0.06  A 
ATOM      8  CD2 TYR F 805       8.986 -11.474  30.441  1.00 35.39 LIG 0.01  A 
ATOM      9  CE2 TYR F 805       8.484 -10.335  31.072  1.00 33.62 LIG 0.04  A 
ATOM     10  CZ  TYR F 805       7.941  -9.317  30.313  1.00 33.40 LIG 0.07  A 
ATOM     11  CE1 TYR F 805       7.889  -9.422  28.927  1.00 31.77 LIG 0.04  A 
ATOM     12  CD1 TYR F 805       8.389 -10.566  28.306  1.00 33.46 LIG 0.01  A 
BRANCH 10 13
ATOM     13 OH   TYR F 805       7.459  -8.195  30.949  1.00 32.97 LIG-0.36  OA
ATOM     14 HH   TYR F 805       8.097  -7.681  31.134  1.00 32.97 LIG 0.22  HD
ENDBRANCH 10 13
ENDBRANCH 6 7
ENDBRANCH 5 6
BRANCH 5 15
ATOM     15  C   TYR F 805      11.438 -14.356  27.938  1.00 40.65 LIG 0.24  C 
ATOM     16 O    TYR F 805      11.206 -14.376  26.727  1.00 41.05 LIG-0.27  OA
ATOM     17  N   GLY F 806      12.150 -15.319  28.544  1.00 41.21 LIG-0.35  N 
ATOM     18 H    GLY F 806      12.400 -16.034  28.137  1.00 41.21 LIG 0.16  HD
BRANCH 17 19
ATOM     19  CA  GLY F 806      12.587 -15.275  29.957  1.00 41.66 LIG 0.21  C 
BRANCH 19 20
ATOM     20  C   GLY F 806      14.065 -14.991  30.184  1.00 41.93 LIG 0.21  C 
ATOM     21 O    GLY F 806      14.741 -15.673  30.969  1.00 42.62 LIG-0.29  OA
ENDBRANCH 19 20
ENDBRANCH 17 19
ENDBRANCH 5 15
ENDBRANCH 3 5
BRANCH 1 22
ATOM     22  CA  LEU F 804      13.023 -10.121  29.718  1.00 43.64 LIG 0.18  C 
BRANCH 22 23
ATOM     23  N   LEU F 804      13.254  -9.484  31.015  1.00 45.07 LIG-0.35  N 
ATOM     24  C   ASP F 803      12.272  -9.284  31.888  1.00 46.18 LIG 0.26  C 
ATOM     25 O    ASP F 803      11.119  -9.694  31.705  1.00 46.48 LIG-0.27  OA
ATOM     26 H    LEU F 804      14.071  -9.256  31.155  1.00 45.07 LIG 0.16  HD
BRANCH 24 27
ATOM     27  CA  ASP F 803      12.647  -8.512  33.166  1.00 46.88 LIG 0.41  C 
ATOM     28  N   ASP F 803      11.924  -9.016  34.368  1.00 47.04 LIG 0.61  N 
BRANCH 27 29
ATOM     29  CB  ASP F 803      14.158  -8.579  33.407  1.00 47.42 LIG 0.16  C 
BRANCH 29 30
ATOM     30  CG  ASP F 803      14.517  -9.226  34.746  1.00 48.96 LIG 0.17  C 
ATOM     31 OD1  ASP F 803      14.846 -10.436  34.737  1.00 50.04 LIG-0.65  OA
ATOM     32 OD2  ASP F 803      14.469  -8.540  35.798  1.00 49.91 LIG-0.65  OA
ENDBRANCH 29 30
ENDBRANCH 27 29
ENDBRANCH 24 27
ENDBRANCH 22 23
BRANCH 22 33
ATOM     33  CB  LEU F 804      14.307 -10.065  28.880  1.00 43.69 LIG 0.04  C 
BRANCH 33 34
ATOM     34  CG  LEU F 804      15.572 -10.846  29.277  1.00 43.67 LIG-0.02  C 
ATOM     35  CD2 LEU F 804      16.720  -9.883  29.505  1.00 43.56 LIG 0.01  C 
ATOM     36  CD1 LEU F 804      15.962 -11.941  28.286  1.00 44.06 LIG 0.01  C 
ENDBRANCH 33 34
ENDBRANCH 22 33
ENDBRANCH 1 22
TORSDOF 14
ENDMDL
MODEL 56
USER: ADFR SOLUTION from run 179
USER: SCORE 11.360148 LL:  -2.534 LR:  -9.362 RR:   0.000 FEB:  -5.186
USER: RMSD 8.571843
USER: SEED 178
USER: STATUS no improvement in best in 14 clusters for 5 generations
USER: GENES 16
USER: genes 0 Translation |==|  0.70146 0.71196 0.51163
USER: genes 1 Rotation |==|  0.95891 0.36030 0.35906 0.50511
USER: genes 2 Torsion [C]-N--CA-[CB] |==|  0.79003
USER: genes 3 Torsion [N]-CA--CB-[CG] |==|  0.30752
USER: genes 4 Torsion [CA]-CB--CG-[CD2] |==|  0.24326
USER: genes 5 Torsion [CE2]-CZ--OH-[HH] |==|  0.19336
USER: genes 6 Torsion [N]-CA--C-[N] |==|  0.33523
USER: genes 7 Torsion [C]-N--CA-[C] |==|  0.81619
USER: genes 8 Torsion [N]-CA--C-[O] |==|  0.97812
USER: genes 9 Torsion [N]-C--CA-[N] |==|  0.83889
USER: genes 10 Torsion [C]-CA--N-[C] |==|  0.67517
USER: genes 11 Torsion [N]-C--CA-[N] |==|  0.70064
USER: genes 12 Torsion [C]-CA--CB-[CG] |==|  0.64495
USER: genes 13 Torsion [CA]-CB--CG-[OD1] |==|  0.78825
USER: genes 14 Torsion [C]-CA--CB-[CG] |==|  0.42517
USER: genes 15 Torsion [CA]-CB--CG-[CD2] |==|  0.31414
ROOT
ATOM      1  C   LEU F 804      14.868  -7.264  32.844  1.00 42.60 LIG 0.24  C 
ATOM      2 O    LEU F 804      15.429  -7.806  31.886  1.00 42.72 LIG-0.27  OA
ATOM      3  N   TYR F 805      13.766  -7.755  33.415  1.00 41.09 LIG-0.35  N 
ATOM      4 H    TYR F 805      13.267  -7.305  33.951  1.00 41.09 LIG 0.16  HD
ENDROOT
BRANCH 3 5
ATOM      5  CA  TYR F 805      13.298  -9.133  33.173  1.00 40.08 LIG 0.18  C 
BRANCH 5 6
ATOM      6  CB  TYR F 805      12.653  -9.220  31.783  1.00 38.23 LIG 0.07  C 
BRANCH 6 7
ATOM      7  CG  TYR F 805      13.465 -10.032  30.804  1.00 36.43 LIG-0.06  A 
ATOM      8  CD2 TYR F 805      13.299 -11.409  30.713  1.00 35.39 LIG 0.01  A 
ATOM      9  CE2 TYR F 805      14.057 -12.172  29.824  1.00 33.62 LIG 0.04  A 
ATOM     10  CZ  TYR F 805      14.988 -11.551  29.014  1.00 33.40 LIG 0.07  A 
ATOM     11  CE1 TYR F 805      15.174 -10.175  29.080  1.00 31.77 LIG 0.04  A 
ATOM     12  CD1 TYR F 805      14.414  -9.422  29.975  1.00 33.46 LIG 0.01  A 
BRANCH 10 13
ATOM     13 OH   TYR F 805      15.722 -12.316  28.134  1.00 32.97 LIG-0.36  OA
ATOM     14 HH   TYR F 805      15.220 -12.598  27.522  1.00 32.97 LIG 0.22  HD
ENDBRANCH 10 13
ENDBRANCH 6 7
ENDBRANCH 5 6
BRANCH 5 15
ATOM     15  C   TYR F 805      14.394 -10.207  33.306  1.00 40.65 LIG 0.24  C 
ATOM     16 O    TYR F 805      15.397 -10.149  32.590  1.00 41.05 LIG-0.27  OA
ATOM     17  N   GLY F 806      14.224 -11.177  34.217  1.00 41.21 LIG-0.35  N 
ATOM     18 H    GLY F 806      14.758 -11.848  34.283  1.00 41.21 LIG 0.16  HD
BRANCH 17 19
ATOM     19  CA  GLY F 806      13.121 -11.216  35.202  1.00 41.66 LIG 0.21  C 
BRANCH 19 20
ATOM     20  C   GLY F 806      13.136 -10.116  36.254  1.00 41.93 LIG 0.21  C 
ATOM     21 O    GLY F 806      14.095  -9.337  36.362  1.00 42.62 LIG-0.29  OA
ENDBRANCH 19 20
ENDBRANCH 17 19
ENDBRANCH 5 15
ENDBRANCH 3 5
BRANCH 1 22
ATOM     22  CA  LEU F 804      15.440  -5.959  33.428  1.00 43.64 LIG 0.18  C 
BRANCH 22 23
ATOM     23  N   LEU F 804      14.529  -4.814  33.432  1.00 45.07 LIG-0.35  N 
ATOM     24  C   ASP F 803      14.778  -3.709  32.737  1.00 46.18 LIG 0.26  C 
ATOM     25 O    ASP F 803      15.749  -3.602  31.976  1.00 46.48 LIG-0.27  OA
ATOM     26 H    LEU F 804      13.828  -4.923  33.918  1.00 45.07 LIG 0.16  HD
BRANCH 24 27
ATOM     27  CA  ASP F 803      13.781  -2.551  32.919  1.00 46.88 LIG 0.41  C 
ATOM     28  N   ASP F 803      12.916  -2.353  31.722  1.00 47.04 LIG 0.61  N 
BRANCH 27 29
ATOM     29  CB  ASP F 803      12.906  -2.789  34.154  1.00 47.42 LIG 0.16  C 
BRANCH 29 30
ATOM     30  CG  ASP F 803      11.411  -2.679  33.852  1.00 48.96 LIG 0.17  C 
ATOM     31 OD1  ASP F 803      10.930  -1.530  33.710  1.00 50.04 LIG-0.65  OA
ATOM     32 OD2  ASP F 803      10.719  -3.723  33.760  1.00 49.91 LIG-0.65  OA
ENDBRANCH 29 30
ENDBRANCH 27 29
ENDBRANCH 24 27
ENDBRANCH 22 23
BRANCH 22 33
ATOM     33  CB  LEU F 804      15.971  -6.200  34.847  1.00 43.69 LIG 0.04  C 
BRANCH 33 34
ATOM     34  CG  LEU F 804      17.098  -5.342  35.450  1.00 43.67 LIG-0.02  C 
ATOM     35  CD2 LEU F 804      16.555  -4.518  36.600  1.00 43.56 LIG 0.01  C 
ATOM     36  CD1 LEU F 804      17.816  -4.458  34.432  1.00 44.06 LIG 0.01  C 
ENDBRANCH 33 34
ENDBRANCH 22 33
ENDBRANCH 1 22
TORSDOF 14
ENDMDL
MODEL 57
USER: ADFR SOLUTION from run 67
USER: SCORE 11.617553 LL:  -2.639 LR:  -9.364 RR:   0.000 FEB:  -5.188
USER: RMSD 5.731750
USER: SEED 66
USER: STATUS no improvement in best in 17 clusters for 5 generations
USER: GENES 16
USER: genes 0 Translation |==|  0.55189 0.42462 0.43126
USER: genes 1 Rotation |==|  0.38548 0.18876 0.64407 0.84534
USER: genes 2 Torsion [C]-N--CA-[CB] |==|  0.75121
USER: genes 3 Torsion [N]-CA--CB-[CG] |==|  0.73536
USER: genes 4 Torsion [CA]-CB--CG-[CD2] |==|  0.59608
USER: genes 5 Torsion [CE2]-CZ--OH-[HH] |==|  0.16045
USER: genes 6 Torsion [N]-CA--C-[N] |==|  0.25201
USER: genes 7 Torsion [C]-N--CA-[C] |==|  0.63213
USER: genes 8 Torsion [N]-CA--C-[O] |==|  0.79263
USER: genes 9 Torsion [N]-C--CA-[N] |==|  0.46273
USER: genes 10 Torsion [C]-CA--N-[C] |==|  0.59014
USER: genes 11 Torsion [N]-C--CA-[N] |==|  0.24084
USER: genes 12 Torsion [C]-CA--CB-[CG] |==|  0.75574
USER: genes 13 Torsion [CA]-CB--CG-[OD1] |==|  0.28799
USER: genes 14 Torsion [C]-CA--CB-[CG] |==|  0.27739
USER: genes 15 Torsion [CA]-CB--CG-[CD2] |==|  0.13568
ROOT
ATOM      1  C   LEU F 804      12.624 -13.082  31.398  1.00 42.60 LIG 0.24  C 
ATOM      2 O    LEU F 804      12.259 -12.308  32.289  1.00 42.72 LIG-0.27  OA
ATOM      3  N   TYR F 805      12.428 -12.842  30.100  1.00 41.09 LIG-0.35  N 
ATOM      4 H    TYR F 805      12.508 -13.440  29.487  1.00 41.09 LIG 0.16  HD
ENDROOT
BRANCH 3 5
ATOM      5  CA  TYR F 805      12.050 -11.509  29.591  1.00 40.08 LIG 0.18  C 
BRANCH 5 6
ATOM      6  CB  TYR F 805      10.521 -11.380  29.573  1.00 38.23 LIG 0.07  C 
BRANCH 6 7
ATOM      7  CG  TYR F 805       9.916 -11.711  28.231  1.00 36.43 LIG-0.06  A 
ATOM      8  CD2 TYR F 805       8.790 -11.035  27.773  1.00 35.39 LIG 0.01  A 
ATOM      9  CE2 TYR F 805       8.212 -11.345  26.542  1.00 33.62 LIG 0.04  A 
ATOM     10  CZ  TYR F 805       8.766 -12.337  25.758  1.00 33.40 LIG 0.07  A 
ATOM     11  CE1 TYR F 805       9.894 -13.028  26.187  1.00 31.77 LIG 0.04  A 
ATOM     12  CD1 TYR F 805      10.463 -12.714  27.421  1.00 33.46 LIG 0.01  A 
BRANCH 10 13
ATOM     13 OH   TYR F 805       8.190 -12.624  24.540  1.00 32.97 LIG-0.36  OA
ATOM     14 HH   TYR F 805       8.176 -11.931  24.066  1.00 32.97 LIG 0.22  HD
ENDBRANCH 10 13
ENDBRANCH 6 7
ENDBRANCH 5 6
BRANCH 5 15
ATOM     15  C   TYR F 805      12.663 -10.335  30.377  1.00 40.65 LIG 0.24  C 
ATOM     16 O    TYR F 805      12.066  -9.876  31.355  1.00 41.05 LIG-0.27  OA
ATOM     17  N   GLY F 806      13.846  -9.850  29.972  1.00 41.21 LIG-0.35  N 
ATOM     18 H    GLY F 806      14.200  -9.146  30.317  1.00 41.21 LIG 0.16  HD
BRANCH 17 19
ATOM     19  CA  GLY F 806      14.677 -10.451  28.905  1.00 41.66 LIG 0.21  C 
BRANCH 19 20
ATOM     20  C   GLY F 806      16.152 -10.629  29.237  1.00 41.93 LIG 0.21  C 
ATOM     21 O    GLY F 806      16.931  -9.664  29.260  1.00 42.62 LIG-0.29  OA
ENDBRANCH 19 20
ENDBRANCH 17 19
ENDBRANCH 5 15
ENDBRANCH 3 5
BRANCH 1 22
ATOM     22  CA  LEU F 804      13.339 -14.395  31.769  1.00 43.64 LIG 0.18  C 
BRANCH 22 23
ATOM     23  N   LEU F 804      13.810 -14.490  33.151  1.00 45.07 LIG-0.35  N 
ATOM     24  C   ASP F 803      14.909 -15.163  33.479  1.00 46.18 LIG 0.26  C 
ATOM     25 O    ASP F 803      15.653 -15.681  32.636  1.00 46.48 LIG-0.27  OA
ATOM     26 H    LEU F 804      13.317 -14.077  33.720  1.00 45.07 LIG 0.16  HD
BRANCH 24 27
ATOM     27  CA  ASP F 803      15.223 -15.260  34.982  1.00 46.88 LIG 0.41  C 
ATOM     28  N   ASP F 803      14.541 -16.414  35.632  1.00 47.04 LIG 0.61  N 
BRANCH 27 29
ATOM     29  CB  ASP F 803      16.735 -15.362  35.206  1.00 47.42 LIG 0.16  C 
BRANCH 29 30
ATOM     30  CG  ASP F 803      17.245 -16.803  35.168  1.00 48.96 LIG 0.17  C 
ATOM     31 OD1  ASP F 803      17.846 -17.181  34.135  1.00 50.04 LIG-0.65  OA
ATOM     32 OD2  ASP F 803      17.047 -17.556  36.155  1.00 49.91 LIG-0.65  OA
ENDBRANCH 29 30
ENDBRANCH 27 29
ENDBRANCH 24 27
ENDBRANCH 22 23
BRANCH 22 33
ATOM     33  CB  LEU F 804      12.444 -15.597  31.444  1.00 43.69 LIG 0.04  C 
BRANCH 33 34
ATOM     34  CG  LEU F 804      12.635 -16.431  30.164  1.00 43.67 LIG-0.02  C 
ATOM     35  CD2 LEU F 804      14.096 -16.806  30.010  1.00 43.56 LIG 0.01  C 
ATOM     36  CD1 LEU F 804      12.105 -15.758  28.900  1.00 44.06 LIG 0.01  C 
ENDBRANCH 33 34
ENDBRANCH 22 33
ENDBRANCH 1 22
TORSDOF 14
ENDMDL
MODEL 58
USER: ADFR SOLUTION from run 125
USER: SCORE 11.253101 LL:  -3.189 LR:  -9.345 RR:   0.000 FEB:  -5.169
USER: RMSD 6.361704
USER: SEED 124
USER: STATUS no improvement in best in 29 clusters for 5 generations
USER: GENES 16
USER: genes 0 Translation |==|  0.50828 0.56371 0.37466
USER: genes 1 Rotation |==|  0.12049 0.77212 0.63204 0.62037
USER: genes 2 Torsion [C]-N--CA-[CB] |==|  0.16114
USER: genes 3 Torsion [N]-CA--CB-[CG] |==|  0.71244
USER: genes 4 Torsion [CA]-CB--CG-[CD2] |==|  0.84880
USER: genes 5 Torsion [CE2]-CZ--OH-[HH] |==|  0.24862
USER: genes 6 Torsion [N]-CA--C-[N] |==|  0.31948
USER: genes 7 Torsion [C]-N--CA-[C] |==|  0.28102
USER: genes 8 Torsion [N]-CA--C-[O] |==|  0.56075
USER: genes 9 Torsion [N]-C--CA-[N] |==|  0.10084
USER: genes 10 Torsion [C]-CA--N-[C] |==|  0.16813
USER: genes 11 Torsion [N]-C--CA-[N] |==|  0.62427
USER: genes 12 Torsion [C]-CA--CB-[CG] |==|  0.79820
USER: genes 13 Torsion [CA]-CB--CG-[OD1] |==|  0.98861
USER: genes 14 Torsion [C]-CA--CB-[CG] |==|  0.17475
USER: genes 15 Torsion [CA]-CB--CG-[CD2] |==|  0.65430
ROOT
ATOM      1  C   LEU F 804      11.970 -10.266  30.379  1.00 42.60 LIG 0.24  C 
ATOM      2 O    LEU F 804      12.216 -10.790  29.287  1.00 42.72 LIG-0.27  OA
ATOM      3  N   TYR F 805      10.730 -10.007  30.799  1.00 41.09 LIG-0.35  N 
ATOM      4 H    TYR F 805      10.550  -9.487  31.460  1.00 41.09 LIG 0.16  HD
ENDROOT
BRANCH 3 5
ATOM      5  CA  TYR F 805       9.539 -10.597  30.158  1.00 40.08 LIG 0.18  C 
BRANCH 5 6
ATOM      6  CB  TYR F 805       9.635 -12.127  30.206  1.00 38.23 LIG 0.07  C 
BRANCH 6 7
ATOM      7  CG  TYR F 805      10.026 -12.737  28.882  1.00 36.43 LIG-0.06  A 
ATOM      8  CD2 TYR F 805       9.300 -12.456  27.729  1.00 35.39 LIG 0.01  A 
ATOM      9  CE2 TYR F 805       9.641 -13.027  26.503  1.00 33.62 LIG 0.04  A 
ATOM     10  CZ  TYR F 805      10.721 -13.884  26.425  1.00 33.40 LIG 0.07  A 
ATOM     11  CE1 TYR F 805      11.468 -14.181  27.560  1.00 31.77 LIG 0.04  A 
ATOM     12  CD1 TYR F 805      11.117 -13.608  28.782  1.00 33.46 LIG 0.01  A 
BRANCH 10 13
ATOM     13 OH   TYR F 805      11.051 -14.433  25.206  1.00 32.97 LIG-0.36  OA
ATOM     14 HH   TYR F 805      11.591 -13.926  24.807  1.00 32.97 LIG 0.22  HD
ENDBRANCH 10 13
ENDBRANCH 6 7
ENDBRANCH 5 6
BRANCH 5 15
ATOM     15  C   TYR F 805       8.200 -10.140  30.767  1.00 40.65 LIG 0.24  C 
ATOM     16 O    TYR F 805       7.928 -10.432  31.934  1.00 41.05 LIG-0.27  OA
ATOM     17  N   GLY F 806       7.368  -9.419  29.999  1.00 41.21 LIG-0.35  N 
ATOM     18 H    GLY F 806       6.575  -9.206  30.253  1.00 41.21 LIG 0.16  HD
BRANCH 17 19
ATOM     19  CA  GLY F 806       7.701  -8.912  28.650  1.00 41.66 LIG 0.21  C 
BRANCH 19 20
ATOM     20  C   GLY F 806       7.130  -9.709  27.485  1.00 41.93 LIG 0.21  C 
ATOM     21 O    GLY F 806       7.634  -9.651  26.353  1.00 42.62 LIG-0.29  OA
ENDBRANCH 19 20
ENDBRANCH 17 19
ENDBRANCH 5 15
ENDBRANCH 3 5
BRANCH 1 22
ATOM     22  CA  LEU F 804      13.126  -9.880  31.320  1.00 43.64 LIG 0.18  C 
BRANCH 22 23
ATOM     23  N   LEU F 804      12.866 -10.057  32.749  1.00 45.07 LIG-0.35  N 
ATOM     24  C   ASP F 803      12.579 -11.244  33.273  1.00 46.18 LIG 0.26  C 
ATOM     25 O    ASP F 803      12.594 -12.290  32.610  1.00 46.48 LIG-0.27  OA
ATOM     26 H    LEU F 804      12.916  -9.332  33.208  1.00 45.07 LIG 0.16  HD
BRANCH 24 27
ATOM     27  CA  ASP F 803      12.230 -11.259  34.772  1.00 46.88 LIG 0.41  C 
ATOM     28  N   ASP F 803      12.911 -12.364  35.503  1.00 47.04 LIG 0.61  N 
BRANCH 27 29
ATOM     29  CB  ASP F 803      12.588  -9.916  35.417  1.00 47.42 LIG 0.16  C 
BRANCH 29 30
ATOM     30  CG  ASP F 803      14.096  -9.719  35.577  1.00 48.96 LIG 0.17  C 
ATOM     31 OD1  ASP F 803      14.845 -10.670  35.253  1.00 50.04 LIG-0.65  OA
ATOM     32 OD2  ASP F 803      14.534  -8.629  36.025  1.00 49.91 LIG-0.65  OA
ENDBRANCH 29 30
ENDBRANCH 27 29
ENDBRANCH 24 27
ENDBRANCH 22 23
BRANCH 22 33
ATOM     33  CB  LEU F 804      14.403 -10.635  30.929  1.00 43.69 LIG 0.04  C 
BRANCH 33 34
ATOM     34  CG  LEU F 804      15.080 -10.434  29.561  1.00 43.67 LIG-0.02  C 
ATOM     35  CD2 LEU F 804      15.224 -11.769  28.859  1.00 43.56 LIG 0.01  C 
ATOM     36  CD1 LEU F 804      16.420  -9.704  29.633  1.00 44.06 LIG 0.01  C 
ENDBRANCH 33 34
ENDBRANCH 22 33
ENDBRANCH 1 22
TORSDOF 14
ENDMDL
MODEL 59
USER: ADFR SOLUTION from run 138
USER: SCORE 12.142843 LL:  -3.049 LR:  -9.349 RR:   0.000 FEB:  -5.172
USER: RMSD 7.421010
USER: SEED 137
USER: STATUS no improvement in best in 13 clusters for 5 generations
USER: GENES 16
USER: genes 0 Translation |==|  0.54464 0.53526 0.34231
USER: genes 1 Rotation |==|  0.87625 0.52769 0.17312 0.52853
USER: genes 2 Torsion [C]-N--CA-[CB] |==|  0.87774
USER: genes 3 Torsion [N]-CA--CB-[CG] |==|  0.70276
USER: genes 4 Torsion [CA]-CB--CG-[CD2] |==|  0.37949
USER: genes 5 Torsion [CE2]-CZ--OH-[HH] |==|  0.21274
USER: genes 6 Torsion [N]-CA--C-[N] |==|  0.36545
USER: genes 7 Torsion [C]-N--CA-[C] |==|  0.33775
USER: genes 8 Torsion [N]-CA--C-[O] |==|  0.95836
USER: genes 9 Torsion [N]-C--CA-[N] |==|  0.96409
USER: genes 10 Torsion [C]-CA--N-[C] |==|  0.81305
USER: genes 11 Torsion [N]-C--CA-[N] |==|  0.74171
USER: genes 12 Torsion [C]-CA--CB-[CG] |==|  0.68517
USER: genes 13 Torsion [CA]-CB--CG-[OD1] |==|  0.17936
USER: genes 14 Torsion [C]-CA--CB-[CG] |==|  0.80885
USER: genes 15 Torsion [CA]-CB--CG-[CD2] |==|  0.28695
ROOT
ATOM      1  C   LEU F 804      12.516 -10.842  29.797  1.00 42.60 LIG 0.24  C 
ATOM      2 O    LEU F 804      12.250 -10.905  28.591  1.00 42.72 LIG-0.27  OA
ATOM      3  N   TYR F 805      12.547 -11.914  30.591  1.00 41.09 LIG-0.35  N 
ATOM      4 H    TYR F 805      12.549 -11.869  31.450  1.00 41.09 LIG 0.16  HD
ENDROOT
BRANCH 3 5
ATOM      5  CA  TYR F 805      12.582 -13.290  30.061  1.00 40.08 LIG 0.18  C 
BRANCH 5 6
ATOM      6  CB  TYR F 805      11.577 -13.423  28.909  1.00 38.23 LIG 0.07  C 
BRANCH 6 7
ATOM      7  CG  TYR F 805      10.352 -14.221  29.283  1.00 36.43 LIG-0.06  A 
ATOM      8  CD2 TYR F 805       9.083 -13.794  28.905  1.00 35.39 LIG 0.01  A 
ATOM      9  CE2 TYR F 805       7.942 -14.514  29.260  1.00 33.62 LIG 0.04  A 
ATOM     10  CZ  TYR F 805       8.070 -15.675  29.996  1.00 33.40 LIG 0.07  A 
ATOM     11  CE1 TYR F 805       9.325 -16.130  30.385  1.00 31.77 LIG 0.04  A 
ATOM     12  CD1 TYR F 805      10.459 -15.400  30.029  1.00 33.46 LIG 0.01  A 
BRANCH 10 13
ATOM     13 OH   TYR F 805       6.935 -16.381  30.330  1.00 32.97 LIG-0.36  OA
ATOM     14 HH   TYR F 805       6.661 -16.806  29.659  1.00 32.97 LIG 0.22  HD
ENDBRANCH 10 13
ENDBRANCH 6 7
ENDBRANCH 5 6
BRANCH 5 15
ATOM     15  C   TYR F 805      13.975 -13.753  29.593  1.00 40.65 LIG 0.24  C 
ATOM     16 O    TYR F 805      14.648 -13.022  28.863  1.00 41.05 LIG-0.27  OA
ATOM     17  N   GLY F 806      14.418 -14.949  30.010  1.00 41.21 LIG-0.35  N 
ATOM     18 H    GLY F 806      15.148 -15.298  29.719  1.00 41.21 LIG 0.16  HD
BRANCH 17 19
ATOM     19  CA  GLY F 806      13.724 -15.800  31.001  1.00 41.66 LIG 0.21  C 
BRANCH 19 20
ATOM     20  C   GLY F 806      13.341 -17.194  30.522  1.00 41.93 LIG 0.21  C 
ATOM     21 O    GLY F 806      13.346 -17.488  29.317  1.00 42.62 LIG-0.29  OA
ENDBRANCH 19 20
ENDBRANCH 17 19
ENDBRANCH 5 15
ENDBRANCH 3 5
BRANCH 1 22
ATOM     22  CA  LEU F 804      12.826  -9.479  30.442  1.00 43.64 LIG 0.18  C 
BRANCH 22 23
ATOM     23  N   LEU F 804      12.835  -9.458  31.905  1.00 45.07 LIG-0.35  N 
ATOM     24  C   ASP F 803      11.730  -9.642  32.621  1.00 46.18 LIG 0.26  C 
ATOM     25 O    ASP F 803      10.640  -9.925  32.108  1.00 46.48 LIG-0.27  OA
ATOM     26 H    LEU F 804      13.609  -9.318  32.250  1.00 45.07 LIG 0.16  HD
BRANCH 24 27
ATOM     27  CA  ASP F 803      11.876  -9.492  34.146  1.00 46.88 LIG 0.41  C 
ATOM     28  N   ASP F 803      12.150 -10.791  34.821  1.00 47.04 LIG 0.61  N 
BRANCH 27 29
ATOM     29  CB  ASP F 803      12.987  -8.491  34.480  1.00 47.42 LIG 0.16  C 
BRANCH 29 30
ATOM     30  CG  ASP F 803      14.187  -9.145  35.167  1.00 48.96 LIG 0.17  C 
ATOM     31 OD1  ASP F 803      14.846  -9.985  34.510  1.00 50.04 LIG-0.65  OA
ATOM     32 OD2  ASP F 803      14.471  -8.830  36.349  1.00 49.91 LIG-0.65  OA
ENDBRANCH 29 30
ENDBRANCH 27 29
ENDBRANCH 24 27
ENDBRANCH 22 23
BRANCH 22 33
ATOM     33  CB  LEU F 804      14.157  -8.931  29.910  1.00 43.69 LIG 0.04  C 
BRANCH 33 34
ATOM     34  CG  LEU F 804      15.504  -9.588  30.260  1.00 43.67 LIG-0.02  C 
ATOM     35  CD2 LEU F 804      16.002 -10.400  29.081  1.00 43.56 LIG 0.01  C 
ATOM     36  CD1 LEU F 804      15.471 -10.431  31.533  1.00 44.06 LIG 0.01  C 
ENDBRANCH 33 34
ENDBRANCH 22 33
ENDBRANCH 1 22
TORSDOF 14
ENDMDL
MODEL 60
USER: ADFR SOLUTION from run 59
USER: SCORE 10.668869 LL:  -2.892 LR:  -9.326 RR:   0.000 FEB:  -5.150
USER: RMSD 7.923578
USER: SEED 58
USER: STATUS no improvement in best in 33 clusters for 5 generations
USER: GENES 16
USER: genes 0 Translation |==|  0.59314 0.38382 0.42119
USER: genes 1 Rotation |==|  0.94735 0.43643 0.41352 0.69584
USER: genes 2 Torsion [C]-N--CA-[CB] |==|  0.26083
USER: genes 3 Torsion [N]-CA--CB-[CG] |==|  0.61482
USER: genes 4 Torsion [CA]-CB--CG-[CD2] |==|  0.81310
USER: genes 5 Torsion [CE2]-CZ--OH-[HH] |==|  0.07904
USER: genes 6 Torsion [N]-CA--C-[N] |==|  0.36856
USER: genes 7 Torsion [C]-N--CA-[C] |==|  0.47525
USER: genes 8 Torsion [N]-CA--C-[O] |==|  0.97120
USER: genes 9 Torsion [N]-C--CA-[N] |==|  0.15426
USER: genes 10 Torsion [C]-CA--N-[C] |==|  0.62804
USER: genes 11 Torsion [N]-C--CA-[N] |==|  0.76294
USER: genes 12 Torsion [C]-CA--CB-[CG] |==|  0.68459
USER: genes 13 Torsion [CA]-CB--CG-[OD1] |==|  0.27758
USER: genes 14 Torsion [C]-CA--CB-[CG] |==|  0.61449
USER: genes 15 Torsion [CA]-CB--CG-[CD2] |==|  0.80081
ROOT
ATOM      1  C   LEU F 804      13.243 -13.909  31.216  1.00 42.60 LIG 0.24  C 
ATOM      2 O    LEU F 804      14.113 -14.618  30.700  1.00 42.72 LIG-0.27  OA
ATOM      3  N   TYR F 805      12.413 -14.350  32.164  1.00 41.09 LIG-0.35  N 
ATOM      4 H    TYR F 805      11.697 -13.936  32.400  1.00 41.09 LIG 0.16  HD
ENDROOT
BRANCH 3 5
ATOM      5  CA  TYR F 805      12.654 -15.604  32.904  1.00 40.08 LIG 0.18  C 
BRANCH 5 6
ATOM      6  CB  TYR F 805      13.403 -15.296  34.207  1.00 38.23 LIG 0.07  C 
BRANCH 6 7
ATOM      7  CG  TYR F 805      14.491 -16.296  34.513  1.00 36.43 LIG-0.06  A 
ATOM      8  CD2 TYR F 805      14.176 -17.613  34.831  1.00 35.39 LIG 0.01  A 
ATOM      9  CE2 TYR F 805      15.173 -18.542  35.133  1.00 33.62 LIG 0.04  A 
ATOM     10  CZ  TYR F 805      16.498 -18.153  35.112  1.00 33.40 LIG 0.07  A 
ATOM     11  CE1 TYR F 805      16.843 -16.844  34.793  1.00 31.77 LIG 0.04  A 
ATOM     12  CD1 TYR F 805      15.840 -15.922  34.497  1.00 33.46 LIG 0.01  A 
BRANCH 10 13
ATOM     13 OH   TYR F 805      17.471 -19.084  35.402  1.00 32.97 LIG-0.36  OA
ATOM     14 HH   TYR F 805      17.199 -19.850  35.190  1.00 32.97 LIG 0.22  HD
ENDBRANCH 10 13
ENDBRANCH 6 7
ENDBRANCH 5 6
BRANCH 5 15
ATOM     15  C   TYR F 805      11.379 -16.411  33.214  1.00 40.65 LIG 0.24  C 
ATOM     16 O    TYR F 805      10.389 -15.837  33.675  1.00 41.05 LIG-0.27  OA
ATOM     17  N   GLY F 806      11.384 -17.728  32.957  1.00 41.21 LIG-0.35  N 
ATOM     18 H    GLY F 806      10.736 -18.245  33.183  1.00 41.21 LIG 0.16  HD
BRANCH 17 19
ATOM     19  CA  GLY F 806      12.481 -18.442  32.268  1.00 41.66 LIG 0.21  C 
BRANCH 19 20
ATOM     20  C   GLY F 806      12.382 -19.961  32.266  1.00 41.93 LIG 0.21  C 
ATOM     21 O    GLY F 806      11.549 -20.556  32.966  1.00 42.62 LIG-0.29  OA
ENDBRANCH 19 20
ENDBRANCH 17 19
ENDBRANCH 5 15
ENDBRANCH 3 5
BRANCH 1 22
ATOM     22  CA  LEU F 804      13.081 -12.446  30.765  1.00 43.64 LIG 0.18  C 
BRANCH 22 23
ATOM     23  N   LEU F 804      13.158 -11.443  31.828  1.00 45.07 LIG-0.35  N 
ATOM     24  C   ASP F 803      12.283 -10.447  31.926  1.00 46.18 LIG 0.26  C 
ATOM     25 O    ASP F 803      11.299 -10.346  31.182  1.00 46.48 LIG-0.27  OA
ATOM     26 H    LEU F 804      13.813 -11.558  32.373  1.00 45.07 LIG 0.16  HD
BRANCH 24 27
ATOM     27  CA  ASP F 803      12.551  -9.413  33.034  1.00 46.88 LIG 0.41  C 
ATOM     28  N   ASP F 803      11.993  -9.832  34.350  1.00 47.04 LIG 0.61  N 
BRANCH 27 29
ATOM     29  CB  ASP F 803      14.055  -9.154  33.170  1.00 47.42 LIG 0.16  C 
BRANCH 29 30
ATOM     30  CG  ASP F 803      14.622  -9.639  34.505  1.00 48.96 LIG 0.17  C 
ATOM     31 OD1  ASP F 803      15.221 -10.740  34.517  1.00 50.04 LIG-0.65  OA
ATOM     32 OD2  ASP F 803      14.472  -8.933  35.534  1.00 49.91 LIG-0.65  OA
ENDBRANCH 29 30
ENDBRANCH 27 29
ENDBRANCH 24 27
ENDBRANCH 22 23
BRANCH 22 33
ATOM     33  CB  LEU F 804      14.098 -12.113  29.666  1.00 43.69 LIG 0.04  C 
BRANCH 33 34
ATOM     34  CG  LEU F 804      14.853 -10.772  29.636  1.00 43.67 LIG-0.02  C 
ATOM     35  CD2 LEU F 804      13.903  -9.657  29.246  1.00 43.56 LIG 0.01  C 
ATOM     36  CD1 LEU F 804      16.090 -10.776  28.740  1.00 44.06 LIG 0.01  C 
ENDBRANCH 33 34
ENDBRANCH 22 33
ENDBRANCH 1 22
TORSDOF 14
ENDMDL
MODEL 61
USER: ADFR SOLUTION from run 125
USER: SCORE 10.195473 LL:  -3.031 LR:  -9.331 RR:   0.000 FEB:  -5.155
USER: RMSD 5.305891
USER: SEED 124
USER: STATUS no improvement in best in 29 clusters for 5 generations
USER: GENES 16
USER: genes 0 Translation |==|  0.53947 0.57567 0.39672
USER: genes 1 Rotation |==|  0.49460 0.73407 0.83570 0.78721
USER: genes 2 Torsion [C]-N--CA-[CB] |==|  0.30337
USER: genes 3 Torsion [N]-CA--CB-[CG] |==|  0.78212
USER: genes 4 Torsion [CA]-CB--CG-[CD2] |==|  0.73934
USER: genes 5 Torsion [CE2]-CZ--OH-[HH] |==|  0.81214
USER: genes 6 Torsion [N]-CA--C-[N] |==|  0.17733
USER: genes 7 Torsion [C]-N--CA-[C] |==|  0.69608
USER: genes 8 Torsion [N]-CA--C-[O] |==|  0.94142
USER: genes 9 Torsion [N]-C--CA-[N] |==|  0.18163
USER: genes 10 Torsion [C]-CA--N-[C] |==|  0.79866
USER: genes 11 Torsion [N]-C--CA-[N] |==|  0.22755
USER: genes 12 Torsion [C]-CA--CB-[CG] |==|  0.33164
USER: genes 13 Torsion [CA]-CB--CG-[OD1] |==|  0.43225
USER: genes 14 Torsion [C]-CA--CB-[CG] |==|  0.37451
USER: genes 15 Torsion [CA]-CB--CG-[CD2] |==|  0.13400
ROOT
ATOM      1  C   LEU F 804      12.438 -10.024  30.776  1.00 42.60 LIG 0.24  C 
ATOM      2 O    LEU F 804      12.271  -8.863  30.385  1.00 42.72 LIG-0.27  OA
ATOM      3  N   TYR F 805      11.883 -10.502  31.891  1.00 41.09 LIG-0.35  N 
ATOM      4 H    TYR F 805      12.130 -11.235  32.269  1.00 41.09 LIG 0.16  HD
ENDROOT
BRANCH 3 5
ATOM      5  CA  TYR F 805      10.781  -9.810  32.586  1.00 40.08 LIG 0.18  C 
BRANCH 5 6
ATOM      6  CB  TYR F 805       9.481 -10.605  32.408  1.00 38.23 LIG 0.07  C 
BRANCH 6 7
ATOM      7  CG  TYR F 805       8.844 -10.401  31.056  1.00 36.43 LIG-0.06  A 
ATOM      8  CD2 TYR F 805       7.861  -9.433  30.872  1.00 35.39 LIG 0.01  A 
ATOM      9  CE2 TYR F 805       7.252  -9.247  29.631  1.00 33.62 LIG 0.04  A 
ATOM     10  CZ  TYR F 805       7.632 -10.031  28.560  1.00 33.40 LIG 0.07  A 
ATOM     11  CE1 TYR F 805       8.614 -11.004  28.712  1.00 31.77 LIG 0.04  A 
ATOM     12  CD1 TYR F 805       9.214 -11.186  29.957  1.00 33.46 LIG 0.01  A 
BRANCH 10 13
ATOM     13 OH   TYR F 805       7.029  -9.829  27.338  1.00 32.97 LIG-0.36  OA
ATOM     14 HH   TYR F 805       6.221 -10.056  27.383  1.00 32.97 LIG 0.22  HD
ENDBRANCH 10 13
ENDBRANCH 6 7
ENDBRANCH 5 6
BRANCH 5 15
ATOM     15  C   TYR F 805      11.036  -9.557  34.084  1.00 40.65 LIG 0.24  C 
ATOM     16 O    TYR F 805      10.321 -10.105  34.926  1.00 41.05 LIG-0.27  OA
ATOM     17  N   GLY F 806      12.048  -8.746  34.427  1.00 41.21 LIG-0.35  N 
ATOM     18 H    GLY F 806      12.190  -8.502  35.239  1.00 41.21 LIG 0.16  HD
BRANCH 17 19
ATOM     19  CA  GLY F 806      13.029  -8.182  33.473  1.00 41.66 LIG 0.21  C 
BRANCH 19 20
ATOM     20  C   GLY F 806      14.441  -8.744  33.567  1.00 41.93 LIG 0.21  C 
ATOM     21 O    GLY F 806      14.846  -9.306  34.595  1.00 42.62 LIG-0.29  OA
ENDBRANCH 19 20
ENDBRANCH 17 19
ENDBRANCH 5 15
ENDBRANCH 3 5
BRANCH 1 22
ATOM     22  CA  LEU F 804      13.324 -10.985  29.963  1.00 43.64 LIG 0.18  C 
BRANCH 22 23
ATOM     23  N   LEU F 804      12.636 -12.130  29.367  1.00 45.07 LIG-0.35  N 
ATOM     24  C   ASP F 803      12.200 -13.151  30.098  1.00 46.18 LIG 0.26  C 
ATOM     25 O    ASP F 803      12.269 -13.168  31.334  1.00 46.48 LIG-0.27  OA
ATOM     26 H    LEU F 804      12.542 -12.080  28.514  1.00 45.07 LIG 0.16  HD
BRANCH 24 27
ATOM     27  CA  ASP F 803      11.586 -14.330  29.321  1.00 46.88 LIG 0.41  C 
ATOM     28  N   ASP F 803      12.620 -15.257  28.783  1.00 47.04 LIG 0.61  N 
BRANCH 27 29
ATOM     29  CB  ASP F 803      10.610 -15.105  30.212  1.00 47.42 LIG 0.16  C 
BRANCH 29 30
ATOM     30  CG  ASP F 803       9.184 -15.115  29.661  1.00 48.96 LIG 0.17  C 
ATOM     31 OD1  ASP F 803       8.432 -16.056  30.010  1.00 50.04 LIG-0.65  OA
ATOM     32 OD2  ASP F 803       8.813 -14.199  28.885  1.00 49.91 LIG-0.65  OA
ENDBRANCH 29 30
ENDBRANCH 27 29
ENDBRANCH 24 27
ENDBRANCH 22 23
BRANCH 22 33
ATOM     33  CB  LEU F 804      14.083 -10.215  28.874  1.00 43.69 LIG 0.04  C 
BRANCH 33 34
ATOM     34  CG  LEU F 804      15.582 -10.445  28.610  1.00 43.67 LIG-0.02  C 
ATOM     35  CD2 LEU F 804      15.863 -11.931  28.510  1.00 43.56 LIG 0.01  C 
ATOM     36  CD1 LEU F 804      16.501  -9.780  29.633  1.00 44.06 LIG 0.01  C 
ENDBRANCH 33 34
ENDBRANCH 22 33
ENDBRANCH 1 22
TORSDOF 14
ENDMDL
MODEL 62
USER: ADFR SOLUTION from run 26
USER: SCORE 11.547035 LL:  -3.224 LR:  -9.312 RR:   0.000 FEB:  -5.136
USER: RMSD 6.112188
USER: SEED 25
USER: STATUS no improvement in best in 16 clusters for 5 generations
USER: GENES 16
USER: genes 0 Translation |==|  0.57459 0.44664 0.41430
USER: genes 1 Rotation |==|  0.70627 0.29963 0.43400 0.90367
USER: genes 2 Torsion [C]-N--CA-[CB] |==|  0.46667
USER: genes 3 Torsion [N]-CA--CB-[CG] |==|  0.73929
USER: genes 4 Torsion [CA]-CB--CG-[CD2] |==|  0.08637
USER: genes 5 Torsion [CE2]-CZ--OH-[HH] |==|  0.14346
USER: genes 6 Torsion [N]-CA--C-[N] |==|  0.46388
USER: genes 7 Torsion [C]-N--CA-[C] |==|  0.83614
USER: genes 8 Torsion [N]-CA--C-[O] |==|  0.36414
USER: genes 9 Torsion [N]-C--CA-[N] |==|  0.90541
USER: genes 10 Torsion [C]-CA--N-[C] |==|  0.77234
USER: genes 11 Torsion [N]-C--CA-[N] |==|  0.11847
USER: genes 12 Torsion [C]-CA--CB-[CG] |==|  0.69438
USER: genes 13 Torsion [CA]-CB--CG-[OD1] |==|  0.71825
USER: genes 14 Torsion [C]-CA--CB-[CG] |==|  0.86615
USER: genes 15 Torsion [CA]-CB--CG-[CD2] |==|  0.83261
ROOT
ATOM      1  C   LEU F 804      12.965 -12.637  31.092  1.00 42.60 LIG 0.24  C 
ATOM      2 O    LEU F 804      13.378 -13.508  31.865  1.00 42.72 LIG-0.27  OA
ATOM      3  N   TYR F 805      12.307 -11.551  31.505  1.00 41.09 LIG-0.35  N 
ATOM      4 H    TYR F 805      11.860 -11.037  30.980  1.00 41.09 LIG 0.16  HD
ENDROOT
BRANCH 3 5
ATOM      5  CA  TYR F 805      12.287 -11.129  32.918  1.00 40.08 LIG 0.18  C 
BRANCH 5 6
ATOM      6  CB  TYR F 805      11.712  -9.710  33.023  1.00 38.23 LIG 0.07  C 
BRANCH 6 7
ATOM      7  CG  TYR F 805      12.776  -8.640  33.017  1.00 36.43 LIG-0.06  A 
ATOM      8  CD2 TYR F 805      13.966  -8.825  32.321  1.00 35.39 LIG 0.01  A 
ATOM      9  CE2 TYR F 805      14.964  -7.850  32.323  1.00 33.62 LIG 0.04  A 
ATOM     10  CZ  TYR F 805      14.769  -6.675  33.022  1.00 33.40 LIG 0.07  A 
ATOM     11  CE1 TYR F 805      13.588  -6.460  33.725  1.00 31.77 LIG 0.04  A 
ATOM     12  CD1 TYR F 805      12.599  -7.443  33.720  1.00 33.46 LIG 0.01  A 
BRANCH 10 13
ATOM     13 OH   TYR F 805      15.759  -5.718  33.006  1.00 32.97 LIG-0.36  OA
ATOM     14 HH   TYR F 805      15.979  -5.554  32.212  1.00 32.97 LIG 0.22  HD
ENDBRANCH 10 13
ENDBRANCH 6 7
ENDBRANCH 5 6
BRANCH 5 15
ATOM     15  C   TYR F 805      11.508 -12.076  33.851  1.00 40.65 LIG 0.24  C 
ATOM     16 O    TYR F 805      10.784 -12.949  33.369  1.00 41.05 LIG-0.27  OA
ATOM     17  N   GLY F 806      11.656 -11.923  35.176  1.00 41.21 LIG-0.35  N 
ATOM     18 H    GLY F 806      11.188 -12.364  35.747  1.00 41.21 LIG 0.16  HD
BRANCH 17 19
ATOM     19  CA  GLY F 806      12.621 -10.997  35.810  1.00 41.66 LIG 0.21  C 
BRANCH 19 20
ATOM     20  C   GLY F 806      14.085 -11.228  35.462  1.00 41.93 LIG 0.21  C 
ATOM     21 O    GLY F 806      14.818 -10.295  35.101  1.00 42.62 LIG-0.29  OA
ENDBRANCH 19 20
ENDBRANCH 17 19
ENDBRANCH 5 15
ENDBRANCH 3 5
BRANCH 1 22
ATOM     22  CA  LEU F 804      13.201 -12.782  29.578  1.00 43.64 LIG 0.18  C 
BRANCH 22 23
ATOM     23  N   LEU F 804      12.138 -12.260  28.718  1.00 45.07 LIG-0.35  N 
ATOM     24  C   ASP F 803      11.040 -12.958  28.448  1.00 46.18 LIG 0.26  C 
ATOM     25 O    ASP F 803      10.800 -14.056  28.966  1.00 46.48 LIG-0.27  OA
ATOM     26 H    LEU F 804      12.290 -11.472  28.411  1.00 45.07 LIG 0.16  HD
BRANCH 24 27
ATOM     27  CA  ASP F 803      10.059 -12.321  27.448  1.00 46.88 LIG 0.41  C 
ATOM     28  N   ASP F 803      10.753 -11.709  26.280  1.00 47.04 LIG 0.61  N 
BRANCH 27 29
ATOM     29  CB  ASP F 803       9.045 -13.361  26.959  1.00 47.42 LIG 0.16  C 
BRANCH 29 30
ATOM     30  CG  ASP F 803       9.252 -13.748  25.494  1.00 48.96 LIG 0.17  C 
ATOM     31 OD1  ASP F 803       8.488 -13.234  24.643  1.00 50.04 LIG-0.65  OA
ATOM     32 OD2  ASP F 803      10.163 -14.558  25.191  1.00 49.91 LIG-0.65  OA
ENDBRANCH 29 30
ENDBRANCH 27 29
ENDBRANCH 24 27
ENDBRANCH 22 23
BRANCH 22 33
ATOM     33  CB  LEU F 804      14.541 -12.148  29.186  1.00 43.69 LIG 0.04  C 
BRANCH 33 34
ATOM     34  CG  LEU F 804      14.942 -10.738  29.658  1.00 43.67 LIG-0.02  C 
ATOM     35  CD2 LEU F 804      13.936  -9.723  29.154  1.00 43.56 LIG 0.01  C 
ATOM     36  CD1 LEU F 804      16.366 -10.338  29.276  1.00 44.06 LIG 0.01  C 
ENDBRANCH 33 34
ENDBRANCH 22 33
ENDBRANCH 1 22
TORSDOF 14
ENDMDL
MODEL 63
USER: ADFR SOLUTION from run 76
USER: SCORE 11.774164 LL:  -2.855 LR:  -9.299 RR:   0.000 FEB:  -5.123
USER: RMSD 7.518187
USER: SEED 75
USER: STATUS no improvement in best in 19 clusters for 5 generations
USER: GENES 16
USER: genes 0 Translation |==|  0.46718 0.51787 0.33080
USER: genes 1 Rotation |==|  0.12305 0.69109 0.74660 0.60286
USER: genes 2 Torsion [C]-N--CA-[CB] |==|  0.81938
USER: genes 3 Torsion [N]-CA--CB-[CG] |==|  0.36906
USER: genes 4 Torsion [CA]-CB--CG-[CD2] |==|  0.73215
USER: genes 5 Torsion [CE2]-CZ--OH-[HH] |==|  0.66869
USER: genes 6 Torsion [N]-CA--C-[N] |==|  0.34600
USER: genes 7 Torsion [C]-N--CA-[C] |==|  0.40827
USER: genes 8 Torsion [N]-CA--C-[O] |==|  0.91802
USER: genes 9 Torsion [N]-C--CA-[N] |==|  0.03041
USER: genes 10 Torsion [C]-CA--N-[C] |==|  0.20418
USER: genes 11 Torsion [N]-C--CA-[N] |==|  0.60100
USER: genes 12 Torsion [C]-CA--CB-[CG] |==|  0.71986
USER: genes 13 Torsion [CA]-CB--CG-[OD1] |==|  0.09768
USER: genes 14 Torsion [C]-CA--CB-[CG] |==|  0.34430
USER: genes 15 Torsion [CA]-CB--CG-[CD2] |==|  0.53620
ROOT
ATOM      1  C   LEU F 804      11.354 -11.194  29.589  1.00 42.60 LIG 0.24  C 
ATOM      2 O    LEU F 804      11.350 -11.328  28.361  1.00 42.72 LIG-0.27  OA
ATOM      3  N   TYR F 805      10.325 -11.548  30.362  1.00 41.09 LIG-0.35  N 
ATOM      4 H    TYR F 805      10.236 -11.299  31.181  1.00 41.09 LIG 0.16  HD
ENDROOT
BRANCH 3 5
ATOM      5  CA  TYR F 805       9.231 -12.410  29.876  1.00 40.08 LIG 0.18  C 
BRANCH 5 6
ATOM      6  CB  TYR F 805       8.459 -11.685  28.765  1.00 38.23 LIG 0.07  C 
BRANCH 6 7
ATOM      7  CG  TYR F 805       8.213 -12.552  27.555  1.00 36.43 LIG-0.06  A 
ATOM      8  CD2 TYR F 805       9.060 -12.489  26.453  1.00 35.39 LIG 0.01  A 
ATOM      9  CE2 TYR F 805       8.832 -13.272  25.320  1.00 33.62 LIG 0.04  A 
ATOM     10  CZ  TYR F 805       7.751 -14.131  25.290  1.00 33.40 LIG 0.07  A 
ATOM     11  CE1 TYR F 805       6.890 -14.218  26.379  1.00 31.77 LIG 0.04  A 
ATOM     12  CD1 TYR F 805       7.123 -13.428  27.504  1.00 33.46 LIG 0.01  A 
BRANCH 10 13
ATOM     13 OH   TYR F 805       7.545 -14.905  24.170  1.00 32.97 LIG-0.36  OA
ATOM     14 HH   TYR F 805       6.799 -14.717  23.833  1.00 32.97 LIG 0.22  HD
ENDBRANCH 10 13
ENDBRANCH 6 7
ENDBRANCH 5 6
BRANCH 5 15
ATOM     15  C   TYR F 805       9.690 -13.793  29.374  1.00 40.65 LIG 0.24  C 
ATOM     16 O    TYR F 805      10.557 -13.869  28.500  1.00 41.05 LIG-0.27  OA
ATOM     17  N   GLY F 806       9.131 -14.883  29.920  1.00 41.21 LIG-0.35  N 
ATOM     18 H    GLY F 806       9.283 -15.677  29.627  1.00 41.21 LIG 0.16  HD
BRANCH 17 19
ATOM     19  CA  GLY F 806       8.200 -14.860  31.070  1.00 41.66 LIG 0.21  C 
BRANCH 19 20
ATOM     20  C   GLY F 806       7.121 -15.934  31.069  1.00 41.93 LIG 0.21  C 
ATOM     21 O    GLY F 806       6.673 -16.400  30.010  1.00 42.62 LIG-0.29  OA
ENDBRANCH 19 20
ENDBRANCH 17 19
ENDBRANCH 5 15
ENDBRANCH 3 5
BRANCH 1 22
ATOM     22  CA  LEU F 804      12.585 -10.592  30.291  1.00 43.64 LIG 0.18  C 
BRANCH 22 23
ATOM     23  N   LEU F 804      12.599 -10.699  31.750  1.00 45.07 LIG-0.35  N 
ATOM     24  C   ASP F 803      12.830 -11.850  32.372  1.00 46.18 LIG 0.26  C 
ATOM     25 O    ASP F 803      13.132 -12.888  31.769  1.00 46.48 LIG-0.27  OA
ATOM     26 H    LEU F 804      12.446  -9.959  32.158  1.00 45.07 LIG 0.16  HD
BRANCH 24 27
ATOM     27  CA  ASP F 803      12.712 -11.829  33.906  1.00 46.88 LIG 0.41  C 
ATOM     28  N   ASP F 803      13.718 -12.709  34.566  1.00 47.04 LIG 0.61  N 
BRANCH 27 29
ATOM     29  CB  ASP F 803      12.855 -10.398  34.433  1.00 47.42 LIG 0.16  C 
BRANCH 29 30
ATOM     30  CG  ASP F 803      14.248 -10.108  34.993  1.00 48.96 LIG 0.17  C 
ATOM     31 OD1  ASP F 803      15.226 -10.651  34.428  1.00 50.04 LIG-0.65  OA
ATOM     32 OD2  ASP F 803      14.370  -9.349  35.987  1.00 49.91 LIG-0.65  OA
ENDBRANCH 29 30
ENDBRANCH 27 29
ENDBRANCH 24 27
ENDBRANCH 22 23
BRANCH 22 33
ATOM     33  CB  LEU F 804      13.872 -11.198  29.716  1.00 43.69 LIG 0.04  C 
BRANCH 33 34
ATOM     34  CG  LEU F 804      14.989 -10.321  29.122  1.00 43.67 LIG-0.02  C 
ATOM     35  CD2 LEU F 804      15.969 -11.186  28.355  1.00 43.56 LIG 0.01  C 
ATOM     36  CD1 LEU F 804      15.711  -9.455  30.153  1.00 44.06 LIG 0.01  C 
ENDBRANCH 33 34
ENDBRANCH 22 33
ENDBRANCH 1 22
TORSDOF 14
ENDMDL
MODEL 64
USER: ADFR SOLUTION from run 102
USER: SCORE 11.401199 LL:  -3.069 LR:  -9.293 RR:   0.000 FEB:  -5.117
USER: RMSD 6.401517
USER: SEED 101
USER: STATUS no improvement in best in 6 clusters for 5 generations
USER: GENES 16
USER: genes 0 Translation |==|  0.58158 0.47068 0.52549
USER: genes 1 Rotation |==|  0.42666 0.22933 0.89661 0.61858
USER: genes 2 Torsion [C]-N--CA-[CB] |==|  0.20901
USER: genes 3 Torsion [N]-CA--CB-[CG] |==|  0.11700
USER: genes 4 Torsion [CA]-CB--CG-[CD2] |==|  0.69202
USER: genes 5 Torsion [CE2]-CZ--OH-[HH] |==|  0.91155
USER: genes 6 Torsion [N]-CA--C-[N] |==|  0.46970
USER: genes 7 Torsion [C]-N--CA-[C] |==|  0.77950
USER: genes 8 Torsion [N]-CA--C-[O] |==|  0.59790
USER: genes 9 Torsion [N]-C--CA-[N] |==|  0.88961
USER: genes 10 Torsion [C]-CA--N-[C] |==|  0.85000
USER: genes 11 Torsion [N]-C--CA-[N] |==|  0.28956
USER: genes 12 Torsion [C]-CA--CB-[CG] |==|  0.49552
USER: genes 13 Torsion [CA]-CB--CG-[OD1] |==|  0.53428
USER: genes 14 Torsion [C]-CA--CB-[CG] |==|  0.18826
USER: genes 15 Torsion [CA]-CB--CG-[CD2] |==|  0.45892
ROOT
ATOM      1  C   LEU F 804      13.070 -12.150  33.094  1.00 42.60 LIG 0.24  C 
ATOM      2 O    LEU F 804      11.879 -11.877  33.280  1.00 42.72 LIG-0.27  OA
ATOM      3  N   TYR F 805      13.491 -12.920  32.089  1.00 41.09 LIG-0.35  N 
ATOM      4 H    TYR F 805      14.278 -13.264  32.050  1.00 41.09 LIG 0.16  HD
ENDROOT
BRANCH 3 5
ATOM      5  CA  TYR F 805      12.633 -13.255  30.936  1.00 40.08 LIG 0.18  C 
BRANCH 5 6
ATOM      6  CB  TYR F 805      12.523 -12.039  30.006  1.00 38.23 LIG 0.07  C 
BRANCH 6 7
ATOM      7  CG  TYR F 805      13.838 -11.327  29.809  1.00 36.43 LIG-0.06  A 
ATOM      8  CD2 TYR F 805      14.045 -10.057  30.338  1.00 35.39 LIG 0.01  A 
ATOM      9  CE2 TYR F 805      15.251  -9.381  30.146  1.00 33.62 LIG 0.04  A 
ATOM     10  CZ  TYR F 805      16.262  -9.982  29.423  1.00 33.40 LIG 0.07  A 
ATOM     11  CE1 TYR F 805      16.086 -11.252  28.885  1.00 31.77 LIG 0.04  A 
ATOM     12  CD1 TYR F 805      14.876 -11.917  29.078  1.00 33.46 LIG 0.01  A 
BRANCH 10 13
ATOM     13 OH   TYR F 805      17.451  -9.306  29.251  1.00 32.97 LIG-0.36  OA
ATOM     14 HH   TYR F 805      17.301  -8.480  29.221  1.00 32.97 LIG 0.22  HD
ENDBRANCH 10 13
ENDBRANCH 6 7
ENDBRANCH 5 6
BRANCH 5 15
ATOM     15  C   TYR F 805      13.100 -14.484  30.134  1.00 40.65 LIG 0.24  C 
ATOM     16 O    TYR F 805      14.209 -14.974  30.358  1.00 41.05 LIG-0.27  OA
ATOM     17  N   GLY F 806      12.268 -14.993  29.213  1.00 41.21 LIG-0.35  N 
ATOM     18 H    GLY F 806      12.502 -15.625  28.678  1.00 41.21 LIG 0.16  HD
BRANCH 17 19
ATOM     19  CA  GLY F 806      10.874 -14.544  29.004  1.00 41.66 LIG 0.21  C 
BRANCH 19 20
ATOM     20  C   GLY F 806       9.849 -15.089  29.989  1.00 41.93 LIG 0.21  C 
ATOM     21 O    GLY F 806       8.691 -15.357  29.635  1.00 42.62 LIG-0.29  OA
ENDBRANCH 19 20
ENDBRANCH 17 19
ENDBRANCH 5 15
ENDBRANCH 3 5
BRANCH 1 22
ATOM     22  CA  LEU F 804      14.141 -11.593  34.050  1.00 43.64 LIG 0.18  C 
BRANCH 22 23
ATOM     23  N   LEU F 804      15.222 -12.517  34.396  1.00 45.07 LIG-0.35  N 
ATOM     24  C   ASP F 803      14.987 -13.725  34.896  1.00 46.18 LIG 0.26  C 
ATOM     25 O    ASP F 803      13.845 -14.186  35.025  1.00 46.48 LIG-0.27  OA
ATOM     26 H    LEU F 804      16.010 -12.207  34.247  1.00 45.07 LIG 0.16  HD
BRANCH 24 27
ATOM     27  CA  ASP F 803      16.223 -14.544  35.306  1.00 46.88 LIG 0.41  C 
ATOM     28  N   ASP F 803      16.417 -14.581  36.783  1.00 47.04 LIG 0.61  N 
BRANCH 27 29
ATOM     29  CB  ASP F 803      16.122 -15.973  34.763  1.00 47.42 LIG 0.16  C 
BRANCH 29 30
ATOM     30  CG  ASP F 803      17.344 -16.826  35.106  1.00 48.96 LIG 0.17  C 
ATOM     31 OD1  ASP F 803      17.471 -17.924  34.515  1.00 50.04 LIG-0.65  OA
ATOM     32 OD2  ASP F 803      18.170 -16.411  35.957  1.00 49.91 LIG-0.65  OA
ENDBRANCH 29 30
ENDBRANCH 27 29
ENDBRANCH 24 27
ENDBRANCH 22 23
BRANCH 22 33
ATOM     33  CB  LEU F 804      14.732 -10.294  33.486  1.00 43.69 LIG 0.04  C 
BRANCH 33 34
ATOM     34  CG  LEU F 804      13.899  -9.005  33.374  1.00 43.67 LIG-0.02  C 
ATOM     35  CD2 LEU F 804      14.815  -7.821  33.137  1.00 43.56 LIG 0.01  C 
ATOM     36  CD1 LEU F 804      12.977  -8.756  34.566  1.00 44.06 LIG 0.01  C 
ENDBRANCH 33 34
ENDBRANCH 22 33
ENDBRANCH 1 22
TORSDOF 14
ENDMDL
MODEL 65
USER: ADFR SOLUTION from run 92
USER: SCORE 10.805305 LL:  -3.227 LR:  -9.284 RR:   0.000 FEB:  -5.107
USER: RMSD 7.144166
USER: SEED 91
USER: STATUS no improvement in best in 16 clusters for 5 generations
USER: GENES 16
USER: genes 0 Translation |==|  0.30163 0.53695 0.35958
USER: genes 1 Rotation |==|  0.63929 0.32807 0.20806 0.84031
USER: genes 2 Torsion [C]-N--CA-[CB] |==|  0.36950
USER: genes 3 Torsion [N]-CA--CB-[CG] |==|  0.81060
USER: genes 4 Torsion [CA]-CB--CG-[CD2] |==|  0.39489
USER: genes 5 Torsion [CE2]-CZ--OH-[HH] |==|  0.75068
USER: genes 6 Torsion [N]-CA--C-[N] |==|  0.40114
USER: genes 7 Torsion [C]-N--CA-[C] |==|  0.79955
USER: genes 8 Torsion [N]-CA--C-[O] |==|  0.98888
USER: genes 9 Torsion [N]-C--CA-[N] |==|  0.37368
USER: genes 10 Torsion [C]-CA--N-[C] |==|  0.82792
USER: genes 11 Torsion [N]-C--CA-[N] |==|  0.60953
USER: genes 12 Torsion [C]-CA--CB-[CG] |==|  0.50028
USER: genes 13 Torsion [CA]-CB--CG-[OD1] |==|  0.11568
USER: genes 14 Torsion [C]-CA--CB-[CG] |==|  0.33349
USER: genes 15 Torsion [CA]-CB--CG-[CD2] |==|  0.17973
ROOT
ATOM      1  C   LEU F 804       8.870 -10.808  30.107  1.00 42.60 LIG 0.24  C 
ATOM      2 O    LEU F 804       8.621 -11.938  30.541  1.00 42.72 LIG-0.27  OA
ATOM      3  N   TYR F 805       9.431  -9.851  30.851  1.00 41.09 LIG-0.35  N 
ATOM      4 H    TYR F 805       9.443  -9.021  30.626  1.00 41.09 LIG 0.16  HD
ENDROOT
BRANCH 3 5
ATOM      5  CA  TYR F 805      10.088 -10.135  32.140  1.00 40.08 LIG 0.18  C 
BRANCH 5 6
ATOM      6  CB  TYR F 805      11.447  -9.425  32.192  1.00 38.23 LIG 0.07  C 
BRANCH 6 7
ATOM      7  CG  TYR F 805      12.451 -10.000  31.224  1.00 36.43 LIG-0.06  A 
ATOM      8  CD2 TYR F 805      13.340  -9.172  30.546  1.00 35.39 LIG 0.01  A 
ATOM      9  CE2 TYR F 805      14.261  -9.691  29.636  1.00 33.62 LIG 0.04  A 
ATOM     10  CZ  TYR F 805      14.299 -11.052  29.404  1.00 33.40 LIG 0.07  A 
ATOM     11  CE1 TYR F 805      13.426 -11.906  30.070  1.00 31.77 LIG 0.04  A 
ATOM     12  CD1 TYR F 805      12.506 -11.377  30.975  1.00 33.46 LIG 0.01  A 
BRANCH 10 13
ATOM     13 OH   TYR F 805      15.221 -11.550  28.510  1.00 32.97 LIG-0.36  OA
ATOM     14 HH   TYR F 805      14.886 -11.564  27.740  1.00 32.97 LIG 0.22  HD
ENDBRANCH 10 13
ENDBRANCH 6 7
ENDBRANCH 5 6
BRANCH 5 15
ATOM     15  C   TYR F 805       9.252  -9.750  33.376  1.00 40.65 LIG 0.24  C 
ATOM     16 O    TYR F 805       8.528  -8.752  33.337  1.00 41.05 LIG-0.27  OA
ATOM     17  N   GLY F 806       9.331 -10.531  34.464  1.00 41.21 LIG-0.35  N 
ATOM     18 H    GLY F 806       8.955 -10.325  35.209  1.00 41.21 LIG 0.16  HD
BRANCH 17 19
ATOM     19  CA  GLY F 806      10.061 -11.817  34.519  1.00 41.66 LIG 0.21  C 
BRANCH 19 20
ATOM     20  C   GLY F 806       9.418 -12.975  33.769  1.00 41.93 LIG 0.21  C 
ATOM     21 O    GLY F 806       8.314 -12.854  33.216  1.00 42.62 LIG-0.29  OA
ENDBRANCH 19 20
ENDBRANCH 17 19
ENDBRANCH 5 15
ENDBRANCH 3 5
BRANCH 1 22
ATOM     22  CA  LEU F 804       8.529 -10.455  28.648  1.00 43.64 LIG 0.18  C 
BRANCH 22 23
ATOM     23  N   LEU F 804       8.910 -11.454  27.649  1.00 45.07 LIG-0.35  N 
ATOM     24  C   ASP F 803      10.176 -11.806  27.448  1.00 46.18 LIG 0.26  C 
ATOM     25 O    ASP F 803      11.107 -11.380  28.144  1.00 46.48 LIG-0.27  OA
ATOM     26 H    LEU F 804       8.248 -11.786  27.213  1.00 45.07 LIG 0.16  HD
BRANCH 24 27
ATOM     27  CA  ASP F 803      10.433 -12.793  26.296  1.00 46.88 LIG 0.41  C 
ATOM     28  N   ASP F 803      11.471 -13.806  26.635  1.00 47.04 LIG 0.61  N 
BRANCH 27 29
ATOM     29  CB  ASP F 803       9.133 -13.499  25.898  1.00 47.42 LIG 0.16  C 
BRANCH 29 30
ATOM     30  CG  ASP F 803       9.325 -14.497  24.755  1.00 48.96 LIG 0.17  C 
ATOM     31 OD1  ASP F 803      10.347 -15.223  24.784  1.00 50.04 LIG-0.65  OA
ATOM     32 OD2  ASP F 803       8.472 -14.557  23.835  1.00 49.91 LIG-0.65  OA
ENDBRANCH 29 30
ENDBRANCH 27 29
ENDBRANCH 24 27
ENDBRANCH 22 23
BRANCH 22 33
ATOM     33  CB  LEU F 804       7.034 -10.136  28.515  1.00 43.69 LIG 0.04  C 
BRANCH 33 34
ATOM     34  CG  LEU F 804       6.537  -8.767  28.018  1.00 43.67 LIG-0.02  C 
ATOM     35  CD2 LEU F 804       6.962  -8.558  26.578  1.00 43.56 LIG 0.01  C 
ATOM     36  CD1 LEU F 804       6.970  -7.594  28.894  1.00 44.06 LIG 0.01  C 
ENDBRANCH 33 34
ENDBRANCH 22 33
ENDBRANCH 1 22
TORSDOF 14
ENDMDL
MODEL 66
USER: ADFR SOLUTION from run 7
USER: SCORE 10.480939 LL:  -2.571 LR:  -9.284 RR:   0.000 FEB:  -5.108
USER: RMSD 7.904224
USER: SEED 995723
USER: STATUS no improvement in best in 15 clusters for 5 generations
USER: GENES 16
USER: genes 0 Translation |==|  0.64958 0.61632 0.46052
USER: genes 1 Rotation |==|  0.06502 0.48455 0.73325 0.57840
USER: genes 2 Torsion [C]-N--CA-[CB] |==|  0.52969
USER: genes 3 Torsion [N]-CA--CB-[CG] |==|  0.54905
USER: genes 4 Torsion [CA]-CB--CG-[CD2] |==|  0.21269
USER: genes 5 Torsion [CE2]-CZ--OH-[HH] |==|  0.98776
USER: genes 6 Torsion [N]-CA--C-[N] |==|  0.29463
USER: genes 7 Torsion [C]-N--CA-[C] |==|  0.65618
USER: genes 8 Torsion [N]-CA--C-[O] |==|  0.32432
USER: genes 9 Torsion [N]-C--CA-[N] |==|  0.75732
USER: genes 10 Torsion [C]-CA--N-[C] |==|  0.61794
USER: genes 11 Torsion [N]-C--CA-[N] |==|  0.24004
USER: genes 12 Torsion [C]-CA--CB-[CG] |==|  0.45346
USER: genes 13 Torsion [CA]-CB--CG-[OD1] |==|  0.48111
USER: genes 14 Torsion [C]-CA--CB-[CG] |==|  0.77139
USER: genes 15 Torsion [CA]-CB--CG-[CD2] |==|  0.70897
ROOT
ATOM      1  C   LEU F 804      14.090  -9.201  31.924  1.00 42.60 LIG 0.24  C 
ATOM      2 O    LEU F 804      14.381  -8.866  30.771  1.00 42.72 LIG-0.27  OA
ATOM      3  N   TYR F 805      13.521 -10.371  32.221  1.00 41.09 LIG-0.35  N 
ATOM      4 H    TYR F 805      13.151 -10.542  32.978  1.00 41.09 LIG 0.16  HD
ENDROOT
BRANCH 3 5
ATOM      5  CA  TYR F 805      13.476 -11.492  31.263  1.00 40.08 LIG 0.18  C 
BRANCH 5 6
ATOM      6  CB  TYR F 805      12.536 -12.584  31.793  1.00 38.23 LIG 0.07  C 
BRANCH 6 7
ATOM      7  CG  TYR F 805      12.743 -13.919  31.122  1.00 36.43 LIG-0.06  A 
ATOM      8  CD2 TYR F 805      13.828 -14.722  31.457  1.00 35.39 LIG 0.01  A 
ATOM      9  CE2 TYR F 805      14.040 -15.951  30.830  1.00 33.62 LIG 0.04  A 
ATOM     10  CZ  TYR F 805      13.155 -16.384  29.863  1.00 33.40 LIG 0.07  A 
ATOM     11  CE1 TYR F 805      12.059 -15.605  29.509  1.00 31.77 LIG 0.04  A 
ATOM     12  CD1 TYR F 805      11.859 -14.377  30.138  1.00 33.46 LIG 0.01  A 
BRANCH 10 13
ATOM     13 OH   TYR F 805      13.372 -17.604  29.260  1.00 32.97 LIG-0.36  OA
ATOM     14 HH   TYR F 805      14.096 -17.928  29.536  1.00 32.97 LIG 0.22  HD
ENDBRANCH 10 13
ENDBRANCH 6 7
ENDBRANCH 5 6
BRANCH 5 15
ATOM     15  C   TYR F 805      13.055 -11.091  29.837  1.00 40.65 LIG 0.24  C 
ATOM     16 O    TYR F 805      11.877 -10.808  29.604  1.00 41.05 LIG-0.27  OA
ATOM     17  N   GLY F 806      14.000 -11.052  28.885  1.00 41.21 LIG-0.35  N 
ATOM     18 H    GLY F 806      13.815 -10.916  28.056  1.00 41.21 LIG 0.16  HD
BRANCH 17 19
ATOM     19  CA  GLY F 806      15.447 -11.234  29.133  1.00 41.66 LIG 0.21  C 
BRANCH 19 20
ATOM     20  C   GLY F 806      16.346 -10.100  28.659  1.00 41.93 LIG 0.21  C 
ATOM     21 O    GLY F 806      17.019  -9.432  29.459  1.00 42.62 LIG-0.29  OA
ENDBRANCH 19 20
ENDBRANCH 17 19
ENDBRANCH 5 15
ENDBRANCH 3 5
BRANCH 1 22
ATOM     22  CA  LEU F 804      14.380  -8.244  33.095  1.00 43.64 LIG 0.18  C 
BRANCH 22 23
ATOM     23  N   LEU F 804      13.285  -7.349  33.469  1.00 45.07 LIG-0.35  N 
ATOM     24  C   ASP F 803      13.486  -6.067  33.758  1.00 46.18 LIG 0.26  C 
ATOM     25 O    ASP F 803      14.593  -5.523  33.652  1.00 46.48 LIG-0.27  OA
ATOM     26 H    LEU F 804      12.512  -7.725  33.482  1.00 45.07 LIG 0.16  HD
BRANCH 24 27
ATOM     27  CA  ASP F 803      12.255  -5.276  34.232  1.00 46.88 LIG 0.41  C 
ATOM     28  N   ASP F 803      12.033  -5.392  35.701  1.00 47.04 LIG 0.61  N 
BRANCH 27 29
ATOM     29  CB  ASP F 803      12.388  -3.799  33.846  1.00 47.42 LIG 0.16  C 
BRANCH 29 30
ATOM     30  CG  ASP F 803      11.059  -3.046  33.912  1.00 48.96 LIG 0.17  C 
ATOM     31 OD1  ASP F 803      11.085  -1.804  33.741  1.00 50.04 LIG-0.65  OA
ATOM     32 OD2  ASP F 803       9.998  -3.681  34.135  1.00 49.91 LIG-0.65  OA
ENDBRANCH 29 30
ENDBRANCH 27 29
ENDBRANCH 24 27
ENDBRANCH 22 23
BRANCH 22 33
ATOM     33  CB  LEU F 804      14.843  -9.036  34.325  1.00 43.69 LIG 0.04  C 
BRANCH 33 34
ATOM     34  CG  LEU F 804      13.842  -9.712  35.280  1.00 43.67 LIG-0.02  C 
ATOM     35  CD2 LEU F 804      13.732  -8.909  36.561  1.00 43.56 LIG 0.01  C 
ATOM     36  CD1 LEU F 804      14.159 -11.177  35.575  1.00 44.06 LIG 0.01  C 
ENDBRANCH 33 34
ENDBRANCH 22 33
ENDBRANCH 1 22
TORSDOF 14
ENDMDL
MODEL 67
USER: ADFR SOLUTION from run 24
USER: SCORE 12.004718 LL:  -3.265 LR:  -9.272 RR:   0.000 FEB:  -5.096
USER: RMSD 5.259168
USER: SEED 23
USER: STATUS no improvement in best in 22 clusters for 5 generations
USER: GENES 16
USER: genes 0 Translation |==|  0.53859 0.48537 0.34129
USER: genes 1 Rotation |==|  0.62238 0.98454 0.50736 0.51385
USER: genes 2 Torsion [C]-N--CA-[CB] |==|  0.15000
USER: genes 3 Torsion [N]-CA--CB-[CG] |==|  0.19336
USER: genes 4 Torsion [CA]-CB--CG-[CD2] |==|  0.86060
USER: genes 5 Torsion [CE2]-CZ--OH-[HH] |==|  0.61448
USER: genes 6 Torsion [N]-CA--C-[N] |==|  0.18866
USER: genes 7 Torsion [C]-N--CA-[C] |==|  0.75207
USER: genes 8 Torsion [N]-CA--C-[O] |==|  0.32164
USER: genes 9 Torsion [N]-C--CA-[N] |==|  0.44651
USER: genes 10 Torsion [C]-CA--N-[C] |==|  0.78581
USER: genes 11 Torsion [N]-C--CA-[N] |==|  0.76010
USER: genes 12 Torsion [C]-CA--CB-[CG] |==|  0.73636
USER: genes 13 Torsion [CA]-CB--CG-[OD1] |==|  0.64407
USER: genes 14 Torsion [C]-CA--CB-[CG] |==|  0.39247
USER: genes 15 Torsion [CA]-CB--CG-[CD2] |==|  0.30797
ROOT
ATOM      1  C   LEU F 804      12.425 -11.852  29.778  1.00 42.60 LIG 0.24  C 
ATOM      2 O    LEU F 804      11.438 -11.293  29.289  1.00 42.72 LIG-0.27  OA
ATOM      3  N   TYR F 805      13.631 -11.283  29.831  1.00 41.09 LIG-0.35  N 
ATOM      4 H    TYR F 805      14.355 -11.717  29.997  1.00 41.09 LIG 0.16  HD
ENDROOT
BRANCH 3 5
ATOM      5  CA  TYR F 805      13.834  -9.839  29.608  1.00 40.08 LIG 0.18  C 
BRANCH 5 6
ATOM      6  CB  TYR F 805      12.927  -9.040  30.552  1.00 38.23 LIG 0.07  C 
BRANCH 6 7
ATOM      7  CG  TYR F 805      13.346  -9.139  31.998  1.00 36.43 LIG-0.06  A 
ATOM      8  CD2 TYR F 805      13.587 -10.376  32.585  1.00 35.39 LIG 0.01  A 
ATOM      9  CE2 TYR F 805      13.958 -10.481  33.927  1.00 33.62 LIG 0.04  A 
ATOM     10  CZ  TYR F 805      14.094  -9.337  34.688  1.00 33.40 LIG 0.07  A 
ATOM     11  CE1 TYR F 805      13.863  -8.085  34.128  1.00 31.77 LIG 0.04  A 
ATOM     12  CD1 TYR F 805      13.489  -7.992  32.788  1.00 33.46 LIG 0.01  A 
BRANCH 10 13
ATOM     13 OH   TYR F 805      14.471  -9.455  36.008  1.00 32.97 LIG-0.36  OA
ATOM     14 HH   TYR F 805      14.023  -8.920  36.476  1.00 32.97 LIG 0.22  HD
ENDBRANCH 10 13
ENDBRANCH 6 7
ENDBRANCH 5 6
BRANCH 5 15
ATOM     15  C   TYR F 805      15.293  -9.372  29.769  1.00 40.65 LIG 0.24  C 
ATOM     16 O    TYR F 805      15.601  -8.646  30.717  1.00 41.05 LIG-0.27  OA
ATOM     17  N   GLY F 806      16.195  -9.787  28.866  1.00 41.21 LIG-0.35  N 
ATOM     18 H    GLY F 806      17.004  -9.496  28.854  1.00 41.21 LIG 0.16  HD
BRANCH 17 19
ATOM     19  CA  GLY F 806      15.919 -10.774  27.799  1.00 41.66 LIG 0.21  C 
BRANCH 19 20
ATOM     20  C   GLY F 806      16.155 -12.231  28.170  1.00 41.93 LIG 0.21  C 
ATOM     21 O    GLY F 806      15.223 -13.049  28.203  1.00 42.62 LIG-0.29  OA
ENDBRANCH 19 20
ENDBRANCH 17 19
ENDBRANCH 5 15
ENDBRANCH 3 5
BRANCH 1 22
ATOM     22  CA  LEU F 804      12.291 -13.272  30.359  1.00 43.64 LIG 0.18  C 
BRANCH 22 23
ATOM     23  N   LEU F 804      10.930 -13.695  30.690  1.00 45.07 LIG-0.35  N 
ATOM     24  C   ASP F 803      10.306 -13.275  31.786  1.00 46.18 LIG 0.26  C 
ATOM     25 O    ASP F 803      10.795 -12.436  32.554  1.00 46.48 LIG-0.27  OA
ATOM     26 H    LEU F 804      10.580 -14.232  30.118  1.00 45.07 LIG 0.16  HD
BRANCH 24 27
ATOM     27  CA  ASP F 803       8.918 -13.884  32.054  1.00 46.88 LIG 0.41  C 
ATOM     28  N   ASP F 803       7.828 -13.143  31.358  1.00 47.04 LIG 0.61  N 
BRANCH 27 29
ATOM     29  CB  ASP F 803       8.891 -15.356  31.633  1.00 47.42 LIG 0.16  C 
BRANCH 29 30
ATOM     30  CG  ASP F 803       8.352 -15.559  30.216  1.00 48.96 LIG 0.17  C 
ATOM     31 OD1  ASP F 803       7.426 -16.389  30.059  1.00 50.04 LIG-0.65  OA
ATOM     32 OD2  ASP F 803       8.846 -14.902  29.266  1.00 49.91 LIG-0.65  OA
ENDBRANCH 29 30
ENDBRANCH 27 29
ENDBRANCH 24 27
ENDBRANCH 22 23
BRANCH 22 33
ATOM     33  CB  LEU F 804      12.934 -14.295  29.413  1.00 43.69 LIG 0.04  C 
BRANCH 33 34
ATOM     34  CG  LEU F 804      13.737 -15.497  29.942  1.00 43.67 LIG-0.02  C 
ATOM     35  CD2 LEU F 804      12.976 -16.781  29.672  1.00 43.56 LIG 0.01  C 
ATOM     36  CD1 LEU F 804      14.122 -15.387  31.416  1.00 44.06 LIG 0.01  C 
ENDBRANCH 33 34
ENDBRANCH 22 33
ENDBRANCH 1 22
TORSDOF 14
ENDMDL
MODEL 68
USER: ADFR SOLUTION from run 140
USER: SCORE 11.724300 LL:  -2.592 LR:  -9.240 RR:   0.000 FEB:  -5.064
USER: RMSD 6.732620
USER: SEED 139
USER: STATUS no improvement in best in 15 clusters for 5 generations
USER: GENES 16
USER: genes 0 Translation |==|  0.59776 0.60166 0.45505
USER: genes 1 Rotation |==|  0.83594 0.24570 0.66700 0.71116
USER: genes 2 Torsion [C]-N--CA-[CB] |==|  0.81317
USER: genes 3 Torsion [N]-CA--CB-[CG] |==|  0.82351
USER: genes 4 Torsion [CA]-CB--CG-[CD2] |==|  0.38870
USER: genes 5 Torsion [CE2]-CZ--OH-[HH] |==|  0.81082
USER: genes 6 Torsion [N]-CA--C-[N] |==|  0.44361
USER: genes 7 Torsion [C]-N--CA-[C] |==|  0.69354
USER: genes 8 Torsion [N]-CA--C-[O] |==|  0.05623
USER: genes 9 Torsion [N]-C--CA-[N] |==|  0.35000
USER: genes 10 Torsion [C]-CA--N-[C] |==|  0.81099
USER: genes 11 Torsion [N]-C--CA-[N] |==|  0.29824
USER: genes 12 Torsion [C]-CA--CB-[CG] |==|  0.21129
USER: genes 13 Torsion [CA]-CB--CG-[OD1] |==|  0.36633
USER: genes 14 Torsion [C]-CA--CB-[CG] |==|  0.07856
USER: genes 15 Torsion [CA]-CB--CG-[CD2] |==|  0.47116
ROOT
ATOM      1  C   LEU F 804      13.312  -9.497  31.826  1.00 42.60 LIG 0.24  C 
ATOM      2 O    LEU F 804      13.617 -10.358  32.659  1.00 42.72 LIG-0.27  OA
ATOM      3  N   TYR F 805      12.070  -9.341  31.363  1.00 41.09 LIG-0.35  N 
ATOM      4 H    TYR F 805      11.878  -8.880  30.662  1.00 41.09 LIG 0.16  HD
ENDROOT
BRANCH 3 5
ATOM      5  CA  TYR F 805      10.900  -9.953  32.019  1.00 40.08 LIG 0.18  C 
BRANCH 5 6
ATOM      6  CB  TYR F 805      10.971 -11.479  31.879  1.00 38.23 LIG 0.07  C 
BRANCH 6 7
ATOM      7  CG  TYR F 805      10.896 -11.945  30.445  1.00 36.43 LIG-0.06  A 
ATOM      8  CD2 TYR F 805      11.693 -12.993  29.996  1.00 35.39 LIG 0.01  A 
ATOM      9  CE2 TYR F 805      11.646 -13.420  28.669  1.00 33.62 LIG 0.04  A 
ATOM     10  CZ  TYR F 805      10.789 -12.799  27.782  1.00 33.40 LIG 0.07  A 
ATOM     11  CE1 TYR F 805       9.977 -11.751  28.203  1.00 31.77 LIG 0.04  A 
ATOM     12  CD1 TYR F 805      10.035 -11.329  29.530  1.00 33.46 LIG 0.01  A 
BRANCH 10 13
ATOM     13 OH   TYR F 805      10.745 -13.239  26.477  1.00 32.97 LIG-0.36  OA
ATOM     14 HH   TYR F 805      11.471 -13.056  26.095  1.00 32.97 LIG 0.22  HD
ENDBRANCH 10 13
ENDBRANCH 6 7
ENDBRANCH 5 6
BRANCH 5 15
ATOM     15  C   TYR F 805      10.734  -9.574  33.503  1.00 40.65 LIG 0.24  C 
ATOM     16 O    TYR F 805      11.700  -9.137  34.133  1.00 41.05 LIG-0.27  OA
ATOM     17  N   GLY F 806       9.525  -9.723  34.064  1.00 41.21 LIG-0.35  N 
ATOM     18 H    GLY F 806       9.389  -9.607  34.905  1.00 41.21 LIG 0.16  HD
BRANCH 17 19
ATOM     19  CA  GLY F 806       8.299 -10.098  33.325  1.00 41.66 LIG 0.21  C 
BRANCH 19 20
ATOM     20  C   GLY F 806       7.250  -9.004  33.188  1.00 41.93 LIG 0.21  C 
ATOM     21 O    GLY F 806       7.543  -7.806  33.324  1.00 42.62 LIG-0.29  OA
ENDBRANCH 19 20
ENDBRANCH 17 19
ENDBRANCH 5 15
ENDBRANCH 3 5
BRANCH 1 22
ATOM     22  CA  LEU F 804      14.393  -8.548  31.275  1.00 43.64 LIG 0.18  C 
BRANCH 22 23
ATOM     23  N   LEU F 804      15.162  -7.814  32.280  1.00 45.07 LIG-0.35  N 
ATOM     24  C   ASP F 803      14.616  -6.870  33.039  1.00 46.18 LIG 0.26  C 
ATOM     25 O    ASP F 803      13.407  -6.605  33.010  1.00 46.48 LIG-0.27  OA
ATOM     26 H    LEU F 804      15.988  -8.049  32.331  1.00 45.07 LIG 0.16  HD
BRANCH 24 27
ATOM     27  CA  ASP F 803      15.572  -6.115  33.979  1.00 46.88 LIG 0.41  C 
ATOM     28  N   ASP F 803      15.836  -4.722  33.523  1.00 47.04 LIG 0.61  N 
BRANCH 27 29
ATOM     29  CB  ASP F 803      15.012  -6.094  35.405  1.00 47.42 LIG 0.16  C 
BRANCH 29 30
ATOM     30  CG  ASP F 803      15.177  -7.431  36.128  1.00 48.96 LIG 0.17  C 
ATOM     31 OD1  ASP F 803      15.649  -7.410  37.289  1.00 50.04 LIG-0.65  OA
ATOM     32 OD2  ASP F 803      14.846  -8.495  35.546  1.00 49.91 LIG-0.65  OA
ENDBRANCH 29 30
ENDBRANCH 27 29
ENDBRANCH 24 27
ENDBRANCH 22 23
BRANCH 22 33
ATOM     33  CB  LEU F 804      15.348  -9.312  30.349  1.00 43.69 LIG 0.04  C 
BRANCH 33 34
ATOM     34  CG  LEU F 804      14.894 -10.552  29.557  1.00 43.67 LIG-0.02  C 
ATOM     35  CD2 LEU F 804      15.959 -10.934  28.548  1.00 43.56 LIG 0.01  C 
ATOM     36  CD1 LEU F 804      13.532 -10.393  28.884  1.00 44.06 LIG 0.01  C 
ENDBRANCH 33 34
ENDBRANCH 22 33
ENDBRANCH 1 22
TORSDOF 14
ENDMDL
MODEL 69
USER: ADFR SOLUTION from run 50
USER: SCORE 11.313398 LL:  -2.967 LR:  -9.232 RR:   0.000 FEB:  -5.056
USER: RMSD 5.787879
USER: SEED 49
USER: STATUS no improvement in best in 13 clusters for 5 generations
USER: GENES 16
USER: genes 0 Translation |==|  0.48515 0.50253 0.33076
USER: genes 1 Rotation |==|  0.34381 0.18313 0.30163 0.79300
USER: genes 2 Torsion [C]-N--CA-[CB] |==|  0.84444
USER: genes 3 Torsion [N]-CA--CB-[CG] |==|  0.35784
USER: genes 4 Torsion [CA]-CB--CG-[CD2] |==|  0.22691
USER: genes 5 Torsion [CE2]-CZ--OH-[HH] |==|  0.46322
USER: genes 6 Torsion [N]-CA--C-[N] |==|  0.37326
USER: genes 7 Torsion [C]-N--CA-[C] |==|  0.83386
USER: genes 8 Torsion [N]-CA--C-[O] |==|  0.95818
USER: genes 9 Torsion [N]-C--CA-[N] |==|  0.53668
USER: genes 10 Torsion [C]-CA--N-[C] |==|  0.16722
USER: genes 11 Torsion [N]-C--CA-[N] |==|  0.69699
USER: genes 12 Torsion [C]-CA--CB-[CG] |==|  0.77869
USER: genes 13 Torsion [CA]-CB--CG-[OD1] |==|  0.28603
USER: genes 14 Torsion [C]-CA--CB-[CG] |==|  0.55607
USER: genes 15 Torsion [CA]-CB--CG-[CD2] |==|  0.70683
ROOT
ATOM      1  C   LEU F 804      11.623 -11.505  29.589  1.00 42.60 LIG 0.24  C 
ATOM      2 O    LEU F 804      11.274 -11.203  30.735  1.00 42.72 LIG-0.27  OA
ATOM      3  N   TYR F 805      12.627 -10.899  28.951  1.00 41.09 LIG-0.35  N 
ATOM      4 H    TYR F 805      12.763 -10.967  28.105  1.00 41.09 LIG 0.16  HD
ENDROOT
BRANCH 3 5
ATOM      5  CA  TYR F 805      13.607 -10.046  29.650  1.00 40.08 LIG 0.18  C 
BRANCH 5 6
ATOM      6  CB  TYR F 805      12.872  -8.931  30.406  1.00 38.23 LIG 0.07  C 
BRANCH 6 7
ATOM      7  CG  TYR F 805      13.282  -8.829  31.854  1.00 36.43 LIG-0.06  A 
ATOM      8  CD2 TYR F 805      14.440  -8.149  32.219  1.00 35.39 LIG 0.01  A 
ATOM      9  CE2 TYR F 805      14.838  -8.063  33.553  1.00 33.62 LIG 0.04  A 
ATOM     10  CZ  TYR F 805      14.070  -8.658  34.534  1.00 33.40 LIG 0.07  A 
ATOM     11  CE1 TYR F 805      12.905  -9.341  34.201  1.00 31.77 LIG 0.04  A 
ATOM     12  CD1 TYR F 805      12.518  -9.425  32.864  1.00 33.46 LIG 0.01  A 
BRANCH 10 13
ATOM     13 OH   TYR F 805      14.471  -8.556  35.848  1.00 32.97 LIG-0.36  OA
ATOM     14 HH   TYR F 805      13.842  -8.793  36.353  1.00 32.97 LIG 0.22  HD
ENDBRANCH 10 13
ENDBRANCH 6 7
ENDBRANCH 5 6
BRANCH 5 15
ATOM     15  C   TYR F 805      14.533 -10.807  30.618  1.00 40.65 LIG 0.24  C 
ATOM     16 O    TYR F 805      14.057 -11.648  31.385  1.00 41.05 LIG-0.27  OA
ATOM     17  N   GLY F 806      15.846 -10.535  30.585  1.00 41.21 LIG-0.35  N 
ATOM     18 H    GLY F 806      16.401 -10.864  31.153  1.00 41.21 LIG 0.16  HD
BRANCH 17 19
ATOM     19  CA  GLY F 806      16.493  -9.651  29.590  1.00 41.66 LIG 0.21  C 
BRANCH 19 20
ATOM     20  C   GLY F 806      16.346 -10.075  28.135  1.00 41.93 LIG 0.21  C 
ATOM     21 O    GLY F 806      15.971 -11.218  27.829  1.00 42.62 LIG-0.29  OA
ENDBRANCH 19 20
ENDBRANCH 17 19
ENDBRANCH 5 15
ENDBRANCH 3 5
BRANCH 1 22
ATOM     22  CA  LEU F 804      10.885 -12.625  28.833  1.00 43.64 LIG 0.18  C 
BRANCH 22 23
ATOM     23  N   LEU F 804       9.619 -13.059  29.424  1.00 45.07 LIG-0.35  N 
ATOM     24  C   ASP F 803       8.596 -12.228  29.594  1.00 46.18 LIG 0.26  C 
ATOM     25 O    ASP F 803       8.611 -11.057  29.192  1.00 46.48 LIG-0.27  OA
ATOM     26 H    LEU F 804       9.600 -13.889  29.645  1.00 45.07 LIG 0.16  HD
BRANCH 24 27
ATOM     27  CA  ASP F 803       7.366 -12.802  30.320  1.00 46.88 LIG 0.41  C 
ATOM     28  N   ASP F 803       6.205 -12.996  29.407  1.00 47.04 LIG 0.61  N 
BRANCH 27 29
ATOM     29  CB  ASP F 803       7.718 -14.131  30.996  1.00 47.42 LIG 0.16  C 
BRANCH 29 30
ATOM     30  CG  ASP F 803       7.730 -15.309  30.020  1.00 48.96 LIG 0.17  C 
ATOM     31 OD1  ASP F 803       8.845 -15.734  29.635  1.00 50.04 LIG-0.65  OA
ATOM     32 OD2  ASP F 803       6.642 -15.805  29.635  1.00 49.91 LIG-0.65  OA
ENDBRANCH 29 30
ENDBRANCH 27 29
ENDBRANCH 24 27
ENDBRANCH 22 23
BRANCH 22 33
ATOM     33  CB  LEU F 804      10.661 -12.220  27.370  1.00 43.69 LIG 0.04  C 
BRANCH 33 34
ATOM     34  CG  LEU F 804       9.585 -12.890  26.497  1.00 43.67 LIG-0.02  C 
ATOM     35  CD2 LEU F 804      10.241 -13.835  25.510  1.00 43.56 LIG 0.01  C 
ATOM     36  CD1 LEU F 804       8.662 -11.904  25.783  1.00 44.06 LIG 0.01  C 
ENDBRANCH 33 34
ENDBRANCH 22 33
ENDBRANCH 1 22
TORSDOF 14
ENDMDL
MODEL 70
USER: ADFR SOLUTION from run 140
USER: SCORE 11.665114 LL:  -2.943 LR:  -9.213 RR:   0.000 FEB:  -5.037
USER: RMSD 6.709777
USER: SEED 139
USER: STATUS no improvement in best in 15 clusters for 5 generations
USER: GENES 16
USER: genes 0 Translation |==|  0.65525 0.55159 0.48006
USER: genes 1 Rotation |==|  0.87544 0.41101 0.76604 0.67420
USER: genes 2 Torsion [C]-N--CA-[CB] |==|  0.80463
USER: genes 3 Torsion [N]-CA--CB-[CG] |==|  0.74177
USER: genes 4 Torsion [CA]-CB--CG-[CD2] |==|  0.66970
USER: genes 5 Torsion [CE2]-CZ--OH-[HH] |==|  0.78025
USER: genes 6 Torsion [N]-CA--C-[N] |==|  0.20000
USER: genes 7 Torsion [C]-N--CA-[C] |==|  0.64307
USER: genes 8 Torsion [N]-CA--C-[O] |==|  0.69624
USER: genes 9 Torsion [N]-C--CA-[N] |==|  0.39065
USER: genes 10 Torsion [C]-CA--N-[C] |==|  0.82977
USER: genes 11 Torsion [N]-C--CA-[N] |==|  0.50455
USER: genes 12 Torsion [C]-CA--CB-[CG] |==|  0.80825
USER: genes 13 Torsion [CA]-CB--CG-[OD1] |==|  0.09814
USER: genes 14 Torsion [C]-CA--CB-[CG] |==|  0.24622
USER: genes 15 Torsion [CA]-CB--CG-[CD2] |==|  0.99708
ROOT
ATOM      1  C   LEU F 804      14.175 -10.511  32.276  1.00 42.60 LIG 0.24  C 
ATOM      2 O    LEU F 804      14.895 -10.706  33.261  1.00 42.72 LIG-0.27  OA
ATOM      3  N   TYR F 805      13.216 -11.359  31.898  1.00 41.09 LIG-0.35  N 
ATOM      4 H    TYR F 805      12.835 -11.334  31.127  1.00 41.09 LIG 0.16  HD
ENDROOT
BRANCH 3 5
ATOM      5  CA  TYR F 805      12.715 -12.430  32.780  1.00 40.08 LIG 0.18  C 
BRANCH 5 6
ATOM      6  CB  TYR F 805      13.794 -13.509  32.942  1.00 38.23 LIG 0.07  C 
BRANCH 6 7
ATOM      7  CG  TYR F 805      13.659 -14.634  31.944  1.00 36.43 LIG-0.06  A 
ATOM      8  CD2 TYR F 805      13.441 -15.940  32.371  1.00 35.39 LIG 0.01  A 
ATOM      9  CE2 TYR F 805      13.333 -16.990  31.458  1.00 33.62 LIG 0.04  A 
ATOM     10  CZ  TYR F 805      13.438 -16.732  30.106  1.00 33.40 LIG 0.07  A 
ATOM     11  CE1 TYR F 805      13.651 -15.436  29.649  1.00 31.77 LIG 0.04  A 
ATOM     12  CD1 TYR F 805      13.763 -14.394  30.569  1.00 33.46 LIG 0.01  A 
BRANCH 10 13
ATOM     13 OH   TYR F 805      13.318 -17.778  29.217  1.00 32.97 LIG-0.36  OA
ATOM     14 HH   TYR F 805      14.041 -18.204  29.186  1.00 32.97 LIG 0.22  HD
ENDBRANCH 10 13
ENDBRANCH 6 7
ENDBRANCH 5 6
BRANCH 5 15
ATOM     15  C   TYR F 805      12.253 -11.945  34.167  1.00 40.65 LIG 0.24  C 
ATOM     16 O    TYR F 805      12.938 -12.195  35.162  1.00 41.05 LIG-0.27  OA
ATOM     17  N   GLY F 806      11.110 -11.247  34.246  1.00 41.21 LIG-0.35  N 
ATOM     18 H    GLY F 806      10.758 -11.020  34.997  1.00 41.21 LIG 0.16  HD
BRANCH 17 19
ATOM     19  CA  GLY F 806      10.327 -10.789  33.077  1.00 41.66 LIG 0.21  C 
BRANCH 19 20
ATOM     20  C   GLY F 806       9.964  -9.310  33.063  1.00 41.93 LIG 0.21  C 
ATOM     21 O    GLY F 806       8.796  -8.929  33.239  1.00 42.62 LIG-0.29  OA
ENDBRANCH 19 20
ENDBRANCH 17 19
ENDBRANCH 5 15
ENDBRANCH 3 5
BRANCH 1 22
ATOM     22  CA  LEU F 804      14.369  -9.244  31.423  1.00 43.64 LIG 0.18  C 
BRANCH 22 23
ATOM     23  N   LEU F 804      14.657  -8.018  32.168  1.00 45.07 LIG-0.35  N 
ATOM     24  C   ASP F 803      13.804  -7.512  33.053  1.00 46.18 LIG 0.26  C 
ATOM     25 O    ASP F 803      12.752  -8.082  33.371  1.00 46.48 LIG-0.27  OA
ATOM     26 H    LEU F 804      15.417  -7.663  31.980  1.00 45.07 LIG 0.16  HD
BRANCH 24 27
ATOM     27  CA  ASP F 803      14.198  -6.164  33.682  1.00 46.88 LIG 0.41  C 
ATOM     28  N   ASP F 803      13.205  -5.694  34.689  1.00 47.04 LIG 0.61  N 
BRANCH 27 29
ATOM     29  CB  ASP F 803      15.583  -6.262  34.330  1.00 47.42 LIG 0.16  C 
BRANCH 29 30
ATOM     30  CG  ASP F 803      15.594  -7.150  35.575  1.00 48.96 LIG 0.17  C 
ATOM     31 OD1  ASP F 803      14.847  -8.157  35.577  1.00 50.04 LIG-0.65  OA
ATOM     32 OD2  ASP F 803      16.334  -6.850  36.545  1.00 49.91 LIG-0.65  OA
ENDBRANCH 29 30
ENDBRANCH 27 29
ENDBRANCH 24 27
ENDBRANCH 22 23
BRANCH 22 33
ATOM     33  CB  LEU F 804      15.459  -9.476  30.369  1.00 43.69 LIG 0.04  C 
BRANCH 33 34
ATOM     34  CG  LEU F 804      15.136 -10.055  28.980  1.00 43.67 LIG-0.02  C 
ATOM     35  CD2 LEU F 804      13.653 -10.352  28.880  1.00 43.56 LIG 0.01  C 
ATOM     36  CD1 LEU F 804      15.968 -11.282  28.610  1.00 44.06 LIG 0.01  C 
ENDBRANCH 33 34
ENDBRANCH 22 33
ENDBRANCH 1 22
TORSDOF 14
ENDMDL
MODEL 71
USER: ADFR SOLUTION from run 189
USER: SCORE 11.164906 LL:  -2.533 LR:  -9.204 RR:   0.000 FEB:  -5.028
USER: RMSD 5.892720
USER: SEED 188
USER: STATUS no improvement in best in 13 clusters for 5 generations
USER: GENES 16
USER: genes 0 Translation |==|  0.49710 0.48389 0.29773
USER: genes 1 Rotation |==|  0.78534 0.78918 0.67211 0.73524
USER: genes 2 Torsion [C]-N--CA-[CB] |==|  0.52540
USER: genes 3 Torsion [N]-CA--CB-[CG] |==|  0.06062
USER: genes 4 Torsion [CA]-CB--CG-[CD2] |==|  0.16114
USER: genes 5 Torsion [CE2]-CZ--OH-[HH] |==|  0.07224
USER: genes 6 Torsion [N]-CA--C-[N] |==|  0.40005
USER: genes 7 Torsion [C]-N--CA-[C] |==|  0.24408
USER: genes 8 Torsion [N]-CA--C-[O] |==|  0.19020
USER: genes 9 Torsion [N]-C--CA-[N] |==|  0.14338
USER: genes 10 Torsion [C]-CA--N-[C] |==|  0.13743
USER: genes 11 Torsion [N]-C--CA-[N] |==|  0.57977
USER: genes 12 Torsion [C]-CA--CB-[CG] |==|  0.24605
USER: genes 13 Torsion [CA]-CB--CG-[OD1] |==|  0.84258
USER: genes 14 Torsion [C]-CA--CB-[CG] |==|  0.54038
USER: genes 15 Torsion [CA]-CB--CG-[CD2] |==|  0.25105
ROOT
ATOM      1  C   LEU F 804      11.802 -11.882  28.994  1.00 42.60 LIG 0.24  C 
ATOM      2 O    LEU F 804      12.322 -10.805  28.683  1.00 42.72 LIG-0.27  OA
ATOM      3  N   TYR F 805      12.116 -12.546  30.109  1.00 41.09 LIG-0.35  N 
ATOM      4 H    TYR F 805      11.906 -13.368  30.249  1.00 41.09 LIG 0.16  HD
ENDROOT
BRANCH 3 5
ATOM      5  CA  TYR F 805      12.862 -11.920  31.217  1.00 40.08 LIG 0.18  C 
BRANCH 5 6
ATOM      6  CB  TYR F 805      13.260 -12.993  32.240  1.00 38.23 LIG 0.07  C 
BRANCH 6 7
ATOM      7  CG  TYR F 805      13.283 -14.384  31.657  1.00 36.43 LIG-0.06  A 
ATOM      8  CD2 TYR F 805      14.094 -14.686  30.568  1.00 35.39 LIG 0.01  A 
ATOM      9  CE2 TYR F 805      14.110 -15.965  30.010  1.00 33.62 LIG 0.04  A 
ATOM     10  CZ  TYR F 805      13.312 -16.954  30.549  1.00 33.40 LIG 0.07  A 
ATOM     11  CE1 TYR F 805      12.493 -16.684  31.640  1.00 31.77 LIG 0.04  A 
ATOM     12  CD1 TYR F 805      12.481 -15.402  32.188  1.00 33.46 LIG 0.01  A 
BRANCH 10 13
ATOM     13 OH   TYR F 805      13.346 -18.214  29.993  1.00 32.97 LIG-0.36  OA
ATOM     14 HH   TYR F 805      14.089 -18.337  29.621  1.00 32.97 LIG 0.22  HD
ENDBRANCH 10 13
ENDBRANCH 6 7
ENDBRANCH 5 6
BRANCH 5 15
ATOM     15  C   TYR F 805      14.111 -11.133  30.776  1.00 40.65 LIG 0.24  C 
ATOM     16 O    TYR F 805      14.786 -11.539  29.827  1.00 41.05 LIG-0.27  OA
ATOM     17  N   GLY F 806      14.420 -10.010  31.442  1.00 41.21 LIG-0.35  N 
ATOM     18 H    GLY F 806      15.147  -9.573  31.298  1.00 41.21 LIG 0.16  HD
BRANCH 17 19
ATOM     19  CA  GLY F 806      13.571  -9.394  32.486  1.00 41.66 LIG 0.21  C 
BRANCH 19 20
ATOM     20  C   GLY F 806      13.796  -9.900  33.904  1.00 41.93 LIG 0.21  C 
ATOM     21 O    GLY F 806      14.846  -9.659  34.518  1.00 42.62 LIG-0.29  OA
ENDBRANCH 19 20
ENDBRANCH 17 19
ENDBRANCH 5 15
ENDBRANCH 3 5
BRANCH 1 22
ATOM     22  CA  LEU F 804      10.744 -12.516  28.073  1.00 43.64 LIG 0.18  C 
BRANCH 22 23
ATOM     23  N   LEU F 804       9.491 -12.904  28.721  1.00 45.07 LIG-0.35  N 
ATOM     24  C   ASP F 803       8.819 -12.075  29.513  1.00 46.18 LIG 0.26  C 
ATOM     25 O    ASP F 803       9.157 -10.897  29.691  1.00 46.48 LIG-0.27  OA
ATOM     26 H    LEU F 804       9.236 -13.705  28.543  1.00 45.07 LIG 0.16  HD
BRANCH 24 27
ATOM     27  CA  ASP F 803       7.572 -12.656  30.204  1.00 46.88 LIG 0.41  C 
ATOM     28  N   ASP F 803       6.540 -11.618  30.482  1.00 47.04 LIG 0.61  N 
BRANCH 27 29
ATOM     29  CB  ASP F 803       6.963 -13.775  29.354  1.00 47.42 LIG 0.16  C 
BRANCH 29 30
ATOM     30  CG  ASP F 803       7.561 -15.148  29.664  1.00 48.96 LIG 0.17  C 
ATOM     31 OD1  ASP F 803       8.803 -15.280  29.556  1.00 50.04 LIG-0.65  OA
ATOM     32 OD2  ASP F 803       6.804 -16.089  30.010  1.00 49.91 LIG-0.65  OA
ENDBRANCH 29 30
ENDBRANCH 27 29
ENDBRANCH 24 27
ENDBRANCH 22 23
BRANCH 22 33
ATOM     33  CB  LEU F 804      10.447 -11.588  26.888  1.00 43.69 LIG 0.04  C 
BRANCH 33 34
ATOM     34  CG  LEU F 804       9.215 -11.788  25.987  1.00 43.67 LIG-0.02  C 
ATOM     35  CD2 LEU F 804       8.043 -11.000  26.537  1.00 43.56 LIG 0.01  C 
ATOM     36  CD1 LEU F 804       8.838 -13.252  25.770  1.00 44.06 LIG 0.01  C 
ENDBRANCH 33 34
ENDBRANCH 22 33
ENDBRANCH 1 22
TORSDOF 14
ENDMDL
MODEL 72
USER: ADFR SOLUTION from run 43
USER: SCORE 10.681285 LL:  -2.652 LR:  -9.199 RR:   0.000 FEB:  -5.022
USER: RMSD 6.411465
USER: SEED 42
USER: STATUS no improvement in best in 16 clusters for 5 generations
USER: GENES 16
USER: genes 0 Translation |==|  0.65492 0.68916 0.48792
USER: genes 1 Rotation |==|  0.49619 0.04349 0.34563 0.63325
USER: genes 2 Torsion [C]-N--CA-[CB] |==|  0.27655
USER: genes 3 Torsion [N]-CA--CB-[CG] |==|  0.78273
USER: genes 4 Torsion [CA]-CB--CG-[CD2] |==|  0.93533
USER: genes 5 Torsion [CE2]-CZ--OH-[HH] |==|  0.37551
USER: genes 6 Torsion [N]-CA--C-[N] |==|  0.38231
USER: genes 7 Torsion [C]-N--CA-[C] |==|  0.56714
USER: genes 8 Torsion [N]-CA--C-[O] |==|  0.61360
USER: genes 9 Torsion [N]-C--CA-[N] |==|  0.37605
USER: genes 10 Torsion [C]-CA--N-[C] |==|  0.84969
USER: genes 11 Torsion [N]-C--CA-[N] |==|  0.99117
USER: genes 12 Torsion [C]-CA--CB-[CG] |==|  0.19571
USER: genes 13 Torsion [CA]-CB--CG-[OD1] |==|  0.52847
USER: genes 14 Torsion [C]-CA--CB-[CG] |==|  0.44772
USER: genes 15 Torsion [CA]-CB--CG-[CD2] |==|  0.23076
ROOT
ATOM      1  C   LEU F 804      14.170  -7.726  32.418  1.00 42.60 LIG 0.24  C 
ATOM      2 O    LEU F 804      12.968  -7.648  32.696  1.00 42.72 LIG-0.27  OA
ATOM      3  N   TYR F 805      15.027  -6.721  32.610  1.00 41.09 LIG-0.35  N 
ATOM      4 H    TYR F 805      15.812  -6.691  32.260  1.00 41.09 LIG 0.16  HD
ENDROOT
BRANCH 3 5
ATOM      5  CA  TYR F 805      14.701  -5.555  33.453  1.00 40.08 LIG 0.18  C 
BRANCH 5 6
ATOM      6  CB  TYR F 805      15.337  -5.728  34.838  1.00 38.23 LIG 0.07  C 
BRANCH 6 7
ATOM      7  CG  TYR F 805      14.567  -6.673  35.728  1.00 36.43 LIG-0.06  A 
ATOM      8  CD2 TYR F 805      13.215  -6.914  35.507  1.00 35.39 LIG 0.01  A 
ATOM      9  CE2 TYR F 805      12.490  -7.773  36.334  1.00 33.62 LIG 0.04  A 
ATOM     10  CZ  TYR F 805      13.122  -8.401  37.388  1.00 33.40 LIG 0.07  A 
ATOM     11  CE1 TYR F 805      14.473  -8.182  37.632  1.00 31.77 LIG 0.04  A 
ATOM     12  CD1 TYR F 805      15.189  -7.319  36.803  1.00 33.46 LIG 0.01  A 
BRANCH 10 13
ATOM     13 OH   TYR F 805      12.394  -9.253  38.190  1.00 32.97 LIG-0.36  OA
ATOM     14 HH   TYR F 805      12.837  -9.954  38.328  1.00 32.97 LIG 0.22  HD
ENDBRANCH 10 13
ENDBRANCH 6 7
ENDBRANCH 5 6
BRANCH 5 15
ATOM     15  C   TYR F 805      15.123  -4.201  32.852  1.00 40.65 LIG 0.24  C 
ATOM     16 O    TYR F 805      16.218  -4.094  32.294  1.00 41.05 LIG-0.27  OA
ATOM     17  N   GLY F 806      14.268  -3.171  32.946  1.00 41.21 LIG-0.35  N 
ATOM     18 H    GLY F 806      14.478  -2.373  32.705  1.00 41.21 LIG 0.16  HD
BRANCH 17 19
ATOM     19  CA  GLY F 806      12.887  -3.274  33.467  1.00 41.66 LIG 0.21  C 
BRANCH 19 20
ATOM     20  C   GLY F 806      11.918  -2.204  32.986  1.00 41.93 LIG 0.21  C 
ATOM     21 O    GLY F 806      11.096  -1.683  33.756  1.00 42.62 LIG-0.29  OA
ENDBRANCH 19 20
ENDBRANCH 17 19
ENDBRANCH 5 15
ENDBRANCH 3 5
BRANCH 1 22
ATOM     22  CA  LEU F 804      14.734  -9.026  31.816  1.00 43.64 LIG 0.18  C 
BRANCH 22 23
ATOM     23  N   LEU F 804      14.292 -10.264  32.456  1.00 45.07 LIG-0.35  N 
ATOM     24  C   ASP F 803      14.422 -10.471  33.763  1.00 46.18 LIG 0.26  C 
ATOM     25 O    ASP F 803      14.846  -9.604  34.538  1.00 46.48 LIG-0.27  OA
ATOM     26 H    LEU F 804      13.945 -10.836  31.916  1.00 45.07 LIG 0.16  HD
BRANCH 24 27
ATOM     27  CA  ASP F 803      14.005 -11.860  34.277  1.00 46.88 LIG 0.41  C 
ATOM     28  N   ASP F 803      13.445 -12.721  33.197  1.00 47.04 LIG 0.61  N 
BRANCH 27 29
ATOM     29  CB  ASP F 803      15.195 -12.565  34.935  1.00 47.42 LIG 0.16  C 
BRANCH 29 30
ATOM     30  CG  ASP F 803      15.596 -11.932  36.268  1.00 48.96 LIG 0.17  C 
ATOM     31 OD1  ASP F 803      16.673 -12.306  36.790  1.00 50.04 LIG-0.65  OA
ATOM     32 OD2  ASP F 803      14.846 -11.072  36.796  1.00 49.91 LIG-0.65  OA
ENDBRANCH 29 30
ENDBRANCH 27 29
ENDBRANCH 24 27
ENDBRANCH 22 23
BRANCH 22 33
ATOM     33  CB  LEU F 804      14.438  -9.087  30.312  1.00 43.69 LIG 0.04  C 
BRANCH 33 34
ATOM     34  CG  LEU F 804      15.217 -10.019  29.367  1.00 43.67 LIG-0.02  C 
ATOM     35  CD2 LEU F 804      14.622 -11.413  29.414  1.00 43.56 LIG 0.01  C 
ATOM     36  CD1 LEU F 804      16.721 -10.056  29.634  1.00 44.06 LIG 0.01  C 
ENDBRANCH 33 34
ENDBRANCH 22 33
ENDBRANCH 1 22
TORSDOF 14
ENDMDL
MODEL 73
USER: ADFR SOLUTION from run 104
USER: SCORE 11.577817 LL:  -3.051 LR:  -9.188 RR:   0.000 FEB:  -5.012
USER: RMSD 6.166563
USER: SEED 103
USER: STATUS no improvement in best in 9 clusters for 5 generations
USER: GENES 16
USER: genes 0 Translation |==|  0.46305 0.41876 0.28779
USER: genes 1 Rotation |==|  0.45931 0.37927 0.22620 0.89850
USER: genes 2 Torsion [C]-N--CA-[CB] |==|  0.82422
USER: genes 3 Torsion [N]-CA--CB-[CG] |==|  0.65294
USER: genes 4 Torsion [CA]-CB--CG-[CD2] |==|  0.12145
USER: genes 5 Torsion [CE2]-CZ--OH-[HH] |==|  0.87512
USER: genes 6 Torsion [N]-CA--C-[N] |==|  0.35872
USER: genes 7 Torsion [C]-N--CA-[C] |==|  0.26737
USER: genes 8 Torsion [N]-CA--C-[O] |==|  0.62456
USER: genes 9 Torsion [N]-C--CA-[N] |==|  0.66681
USER: genes 10 Torsion [C]-CA--N-[C] |==|  0.13340
USER: genes 11 Torsion [N]-C--CA-[N] |==|  0.82967
USER: genes 12 Torsion [C]-CA--CB-[CG] |==|  0.79717
USER: genes 13 Torsion [CA]-CB--CG-[OD1] |==|  0.44737
USER: genes 14 Torsion [C]-CA--CB-[CG] |==|  0.54634
USER: genes 15 Torsion [CA]-CB--CG-[CD2] |==|  0.25782
ROOT
ATOM      1  C   LEU F 804      11.292 -13.201  28.815  1.00 42.60 LIG 0.24  C 
ATOM      2 O    LEU F 804      11.494 -13.991  29.744  1.00 42.72 LIG-0.27  OA
ATOM      3  N   TYR F 805      12.038 -12.114  28.610  1.00 41.09 LIG-0.35  N 
ATOM      4 H    TYR F 805      11.806 -11.468  28.091  1.00 41.09 LIG 0.16  HD
ENDROOT
BRANCH 3 5
ATOM      5  CA  TYR F 805      13.347 -11.919  29.262  1.00 40.08 LIG 0.18  C 
BRANCH 5 6
ATOM      6  CB  TYR F 805      13.157 -11.837  30.782  1.00 38.23 LIG 0.07  C 
BRANCH 6 7
ATOM      7  CG  TYR F 805      13.738 -10.581  31.383  1.00 36.43 LIG-0.06  A 
ATOM      8  CD2 TYR F 805      13.548  -9.346  30.771  1.00 35.39 LIG 0.01  A 
ATOM      9  CE2 TYR F 805      14.096  -8.181  31.308  1.00 33.62 LIG 0.04  A 
ATOM     10  CZ  TYR F 805      14.836  -8.248  32.472  1.00 33.40 LIG 0.07  A 
ATOM     11  CE1 TYR F 805      15.040  -9.467  33.109  1.00 31.77 LIG 0.04  A 
ATOM     12  CD1 TYR F 805      14.492 -10.627  32.562  1.00 33.46 LIG 0.01  A 
BRANCH 10 13
ATOM     13 OH   TYR F 805      15.362  -7.087  32.995  1.00 32.97 LIG-0.36  OA
ATOM     14 HH   TYR F 805      15.710  -6.634  32.379  1.00 32.97 LIG 0.22  HD
ENDBRANCH 10 13
ENDBRANCH 6 7
ENDBRANCH 5 6
BRANCH 5 15
ATOM     15  C   TYR F 805      14.390 -13.002  28.925  1.00 40.65 LIG 0.24  C 
ATOM     16 O    TYR F 805      14.092 -14.193  29.037  1.00 41.05 LIG-0.27  OA
ATOM     17  N   GLY F 806      15.601 -12.606  28.505  1.00 41.21 LIG-0.35  N 
ATOM     18 H    GLY F 806      16.250 -13.157  28.381  1.00 41.21 LIG 0.16  HD
BRANCH 17 19
ATOM     19  CA  GLY F 806      15.968 -11.204  28.209  1.00 41.66 LIG 0.21  C 
BRANCH 19 20
ATOM     20  C   GLY F 806      16.663 -10.451  29.334  1.00 41.93 LIG 0.21  C 
ATOM     21 O    GLY F 806      16.337  -9.292  29.635  1.00 42.62 LIG-0.29  OA
ENDBRANCH 19 20
ENDBRANCH 17 19
ENDBRANCH 5 15
ENDBRANCH 3 5
BRANCH 1 22
ATOM     22  CA  LEU F 804      10.131 -13.453  27.835  1.00 43.64 LIG 0.18  C 
BRANCH 22 23
ATOM     23  N   LEU F 804       8.796 -13.498  28.432  1.00 45.07 LIG-0.35  N 
ATOM     24  C   ASP F 803       8.370 -12.570  29.282  1.00 46.18 LIG 0.26  C 
ATOM     25 O    ASP F 803       9.035 -11.564  29.563  1.00 46.48 LIG-0.27  OA
ATOM     26 H    LEU F 804       8.322 -14.171  28.183  1.00 45.07 LIG 0.16  HD
BRANCH 24 27
ATOM     27  CA  ASP F 803       6.983 -12.804  29.905  1.00 46.88 LIG 0.41  C 
ATOM     28  N   ASP F 803       5.901 -12.852  28.883  1.00 47.04 LIG 0.61  N 
BRANCH 27 29
ATOM     29  CB  ASP F 803       6.977 -14.099  30.725  1.00 47.42 LIG 0.16  C 
BRANCH 29 30
ATOM     30  CG  ASP F 803       6.995 -15.353  29.850  1.00 48.96 LIG 0.17  C 
ATOM     31 OD1  ASP F 803       7.354 -16.430  30.385  1.00 50.04 LIG-0.65  OA
ATOM     32 OD2  ASP F 803       6.660 -15.272  28.642  1.00 49.91 LIG-0.65  OA
ENDBRANCH 29 30
ENDBRANCH 27 29
ENDBRANCH 24 27
ENDBRANCH 22 23
BRANCH 22 33
ATOM     33  CB  LEU F 804      10.157 -12.416  26.705  1.00 43.69 LIG 0.04  C 
BRANCH 33 34
ATOM     34  CG  LEU F 804       8.937 -12.170  25.799  1.00 43.67 LIG-0.02  C 
ATOM     35  CD2 LEU F 804       8.096 -11.044  26.365  1.00 43.56 LIG 0.01  C 
ATOM     36  CD1 LEU F 804       8.089 -13.416  25.549  1.00 44.06 LIG 0.01  C 
ENDBRANCH 33 34
ENDBRANCH 22 33
ENDBRANCH 1 22
TORSDOF 14
ENDMDL
MODEL 74
USER: ADFR SOLUTION from run 87
USER: SCORE 10.928149 LL:  -2.819 LR:  -9.184 RR:   0.000 FEB:  -5.008
USER: RMSD 6.603233
USER: SEED 86
USER: STATUS no improvement in best in 14 clusters for 5 generations
USER: GENES 16
USER: genes 0 Translation |==|  0.41557 0.46246 0.22332
USER: genes 1 Rotation |==|  0.80908 0.84601 0.61776 0.64451
USER: genes 2 Torsion [C]-N--CA-[CB] |==|  0.24856
USER: genes 3 Torsion [N]-CA--CB-[CG] |==|  0.56786
USER: genes 4 Torsion [CA]-CB--CG-[CD2] |==|  0.01562
USER: genes 5 Torsion [CE2]-CZ--OH-[HH] |==|  0.01796
USER: genes 6 Torsion [N]-CA--C-[N] |==|  0.84348
USER: genes 7 Torsion [C]-N--CA-[C] |==|  0.31385
USER: genes 8 Torsion [N]-CA--C-[O] |==|  0.81473
USER: genes 9 Torsion [N]-C--CA-[N] |==|  0.23113
USER: genes 10 Torsion [C]-CA--N-[C] |==|  0.75556
USER: genes 11 Torsion [N]-C--CA-[N] |==|  0.17349
USER: genes 12 Torsion [C]-CA--CB-[CG] |==|  0.74110
USER: genes 13 Torsion [CA]-CB--CG-[OD1] |==|  0.11546
USER: genes 14 Torsion [C]-CA--CB-[CG] |==|  0.38209
USER: genes 15 Torsion [CA]-CB--CG-[CD2] |==|  0.18653
ROOT
ATOM      1  C   LEU F 804      10.580 -12.316  27.655  1.00 42.60 LIG 0.24  C 
ATOM      2 O    LEU F 804      10.805 -11.183  27.216  1.00 42.72 LIG-0.27  OA
ATOM      3  N   TYR F 805      11.427 -12.968  28.454  1.00 41.09 LIG-0.35  N 
ATOM      4 H    TYR F 805      11.374 -13.811  28.617  1.00 41.09 LIG 0.16  HD
ENDROOT
BRANCH 3 5
ATOM      5  CA  TYR F 805      12.545 -12.293  29.139  1.00 40.08 LIG 0.18  C 
BRANCH 5 6
ATOM      6  CB  TYR F 805      12.074 -11.775  30.504  1.00 38.23 LIG 0.07  C 
BRANCH 6 7
ATOM      7  CG  TYR F 805      12.895 -10.615  31.011  1.00 36.43 LIG-0.06  A 
ATOM      8  CD2 TYR F 805      13.882 -10.042  30.216  1.00 35.39 LIG 0.01  A 
ATOM      9  CE2 TYR F 805      14.660  -8.981  30.681  1.00 33.62 LIG 0.04  A 
ATOM     10  CZ  TYR F 805      14.446  -8.483  31.951  1.00 33.40 LIG 0.07  A 
ATOM     11  CE1 TYR F 805      13.463  -9.032  32.767  1.00 31.77 LIG 0.04  A 
ATOM     12  CD1 TYR F 805      12.694 -10.095  32.295  1.00 33.46 LIG 0.01  A 
BRANCH 10 13
ATOM     13 OH   TYR F 805      15.215  -7.428  32.392  1.00 32.97 LIG-0.36  OA
ATOM     14 HH   TYR F 805      15.694  -7.148  31.761  1.00 32.97 LIG 0.22  HD
ENDBRANCH 10 13
ENDBRANCH 6 7
ENDBRANCH 5 6
BRANCH 5 15
ATOM     15  C   TYR F 805      13.799 -13.170  29.320  1.00 40.65 LIG 0.24  C 
ATOM     16 O    TYR F 805      14.885 -12.780  28.886  1.00 41.05 LIG-0.27  OA
ATOM     17  N   GLY F 806      13.667 -14.340  29.963  1.00 41.21 LIG-0.35  N 
ATOM     18 H    GLY F 806      14.309 -14.909  30.024  1.00 41.21 LIG 0.16  HD
BRANCH 17 19
ATOM     19  CA  GLY F 806      12.428 -14.791  30.635  1.00 41.66 LIG 0.21  C 
BRANCH 19 20
ATOM     20  C   GLY F 806      11.737 -15.993  30.007  1.00 41.93 LIG 0.21  C 
ATOM     21 O    GLY F 806      11.218 -15.927  28.883  1.00 42.62 LIG-0.29  OA
ENDBRANCH 19 20
ENDBRANCH 17 19
ENDBRANCH 5 15
ENDBRANCH 3 5
BRANCH 1 22
ATOM     22  CA  LEU F 804       9.272 -13.037  27.278  1.00 43.64 LIG 0.18  C 
BRANCH 22 23
ATOM     23  N   LEU F 804       8.189 -12.937  28.256  1.00 45.07 LIG-0.35  N 
ATOM     24  C   ASP F 803       8.058 -13.801  29.257  1.00 46.18 LIG 0.26  C 
ATOM     25 O    ASP F 803       8.884 -14.696  29.482  1.00 46.48 LIG-0.27  OA
ATOM     26 H    LEU F 804       7.655 -12.277  28.124  1.00 45.07 LIG 0.16  HD
BRANCH 24 27
ATOM     27  CA  ASP F 803       6.814 -13.629  30.146  1.00 46.88 LIG 0.41  C 
ATOM     28  N   ASP F 803       5.544 -13.821  29.390  1.00 47.04 LIG 0.61  N 
BRANCH 27 29
ATOM     29  CB  ASP F 803       6.863 -14.603  31.327  1.00 47.42 LIG 0.16  C 
BRANCH 29 30
ATOM     30  CG  ASP F 803       6.132 -15.917  31.044  1.00 48.96 LIG 0.17  C 
ATOM     31 OD1  ASP F 803       6.282 -16.433  29.912  1.00 50.04 LIG-0.65  OA
ATOM     32 OD2  ASP F 803       5.412 -16.430  31.937  1.00 49.91 LIG-0.65  OA
ENDBRANCH 29 30
ENDBRANCH 27 29
ENDBRANCH 24 27
ENDBRANCH 22 23
BRANCH 22 33
ATOM     33  CB  LEU F 804       8.777 -12.556  25.908  1.00 43.69 LIG 0.04  C 
BRANCH 33 34
ATOM     34  CG  LEU F 804       8.222 -13.532  24.856  1.00 43.67 LIG-0.02  C 
ATOM     35  CD2 LEU F 804       6.914 -14.124  25.343  1.00 43.56 LIG 0.01  C 
ATOM     36  CD1 LEU F 804       9.203 -14.630  24.449  1.00 44.06 LIG 0.01  C 
ENDBRANCH 33 34
ENDBRANCH 22 33
ENDBRANCH 1 22
TORSDOF 14
ENDMDL
MODEL 75
USER: ADFR SOLUTION from run 12
USER: SCORE 12.063740 LL:  -3.000 LR:  -9.183 RR:   0.000 FEB:  -5.007
USER: RMSD 7.987917
USER: SEED 20542
USER: STATUS no improvement in best in 12 clusters for 5 generations
USER: GENES 16
USER: genes 0 Translation |==|  0.60197 0.37921 0.37480
USER: genes 1 Rotation |==|  0.87104 0.43543 0.77824 0.67534
USER: genes 2 Torsion [C]-N--CA-[CB] |==|  0.82097
USER: genes 3 Torsion [N]-CA--CB-[CG] |==|  0.50034
USER: genes 4 Torsion [CA]-CB--CG-[CD2] |==|  0.76027
USER: genes 5 Torsion [CE2]-CZ--OH-[HH] |==|  0.12572
USER: genes 6 Torsion [N]-CA--C-[N] |==|  0.34444
USER: genes 7 Torsion [C]-N--CA-[C] |==|  0.67499
USER: genes 8 Torsion [N]-CA--C-[O] |==|  0.47016
USER: genes 9 Torsion [N]-C--CA-[N] |==|  0.10625
USER: genes 10 Torsion [C]-CA--N-[C] |==|  0.16002
USER: genes 11 Torsion [N]-C--CA-[N] |==|  0.00449
USER: genes 12 Torsion [C]-CA--CB-[CG] |==|  0.78558
USER: genes 13 Torsion [CA]-CB--CG-[OD1] |==|  0.18585
USER: genes 14 Torsion [C]-CA--CB-[CG] |==|  0.44523
USER: genes 15 Torsion [CA]-CB--CG-[CD2] |==|  0.82138
ROOT
ATOM      1  C   LEU F 804      13.376 -14.002  30.381  1.00 42.60 LIG 0.24  C 
ATOM      2 O    LEU F 804      14.096 -14.066  31.384  1.00 42.72 LIG-0.27  OA
ATOM      3  N   TYR F 805      12.497 -14.953  30.056  1.00 41.09 LIG-0.35  N 
ATOM      4 H    TYR F 805      12.126 -15.013  29.282  1.00 41.09 LIG 0.16  HD
ENDROOT
BRANCH 3 5
ATOM      5  CA  TYR F 805      12.076 -15.998  31.008  1.00 40.08 LIG 0.18  C 
BRANCH 5 6
ATOM      6  CB  TYR F 805      13.279 -16.881  31.367  1.00 38.23 LIG 0.07  C 
BRANCH 6 7
ATOM      7  CG  TYR F 805      12.934 -17.983  32.338  1.00 36.43 LIG-0.06  A 
ATOM      8  CD2 TYR F 805      12.956 -17.754  33.710  1.00 35.39 LIG 0.01  A 
ATOM      9  CE2 TYR F 805      12.656 -18.771  34.617  1.00 33.62 LIG 0.04  A 
ATOM     10  CZ  TYR F 805      12.325 -20.027  34.150  1.00 33.40 LIG 0.07  A 
ATOM     11  CE1 TYR F 805      12.290 -20.285  32.784  1.00 31.77 LIG 0.04  A 
ATOM     12  CD1 TYR F 805      12.596 -19.264  31.885  1.00 33.46 LIG 0.01  A 
BRANCH 10 13
ATOM     13 OH   TYR F 805      12.021 -21.018  35.058  1.00 32.97 LIG-0.36  OA
ATOM     14 HH   TYR F 805      11.502 -20.712  35.644  1.00 32.97 LIG 0.22  HD
ENDBRANCH 10 13
ENDBRANCH 6 7
ENDBRANCH 5 6
BRANCH 5 15
ATOM     15  C   TYR F 805      11.423 -15.459  32.294  1.00 40.65 LIG 0.24  C 
ATOM     16 O    TYR F 805      12.030 -14.643  32.992  1.00 41.05 LIG-0.27  OA
ATOM     17  N   GLY F 806      10.194 -15.894  32.612  1.00 41.21 LIG-0.35  N 
ATOM     18 H    GLY F 806       9.811 -15.694  33.356  1.00 41.21 LIG 0.16  HD
BRANCH 17 19
ATOM     19  CA  GLY F 806       9.359 -16.752  31.743  1.00 41.66 LIG 0.21  C 
BRANCH 19 20
ATOM     20  C   GLY F 806       8.050 -16.138  31.268  1.00 41.93 LIG 0.21  C 
ATOM     21 O    GLY F 806       7.365 -16.677  30.385  1.00 42.62 LIG-0.29  OA
ENDBRANCH 19 20
ENDBRANCH 17 19
ENDBRANCH 5 15
ENDBRANCH 3 5
BRANCH 1 22
ATOM     22  CA  LEU F 804      13.474 -12.785  29.443  1.00 43.64 LIG 0.18  C 
BRANCH 22 23
ATOM     23  N   LEU F 804      12.208 -12.311  28.885  1.00 45.07 LIG-0.35  N 
ATOM     24  C   ASP F 803      11.193 -11.935  29.655  1.00 46.18 LIG 0.26  C 
ATOM     25 O    ASP F 803      11.274 -11.878  30.889  1.00 46.48 LIG-0.27  OA
ATOM     26 H    LEU F 804      12.184 -12.300  28.026  1.00 45.07 LIG 0.16  HD
BRANCH 24 27
ATOM     27  CA  ASP F 803       9.891 -11.556  28.927  1.00 46.88 LIG 0.41  C 
ATOM     28  N   ASP F 803       9.996 -11.722  27.450  1.00 47.04 LIG 0.61  N 
BRANCH 27 29
ATOM     29  CB  ASP F 803       8.720 -12.391  29.458  1.00 47.42 LIG 0.16  C 
BRANCH 29 30
ATOM     30  CG  ASP F 803       8.714 -13.819  28.910  1.00 48.96 LIG 0.17  C 
ATOM     31 OD1  ASP F 803       9.646 -14.580  29.260  1.00 50.04 LIG-0.65  OA
ATOM     32 OD2  ASP F 803       7.793 -14.181  28.135  1.00 49.91 LIG-0.65  OA
ENDBRANCH 29 30
ENDBRANCH 27 29
ENDBRANCH 24 27
ENDBRANCH 22 23
BRANCH 22 33
ATOM     33  CB  LEU F 804      14.193 -11.628  30.149  1.00 43.69 LIG 0.04  C 
BRANCH 33 34
ATOM     34  CG  LEU F 804      14.833 -10.469  29.363  1.00 43.67 LIG-0.02  C 
ATOM     35  CD2 LEU F 804      15.971 -10.993  28.510  1.00 43.56 LIG 0.01  C 
ATOM     36  CD1 LEU F 804      15.294  -9.306  30.239  1.00 44.06 LIG 0.01  C 
ENDBRANCH 33 34
ENDBRANCH 22 33
ENDBRANCH 1 22
TORSDOF 14
ENDMDL
MODEL 76
USER: ADFR SOLUTION from run 38
USER: SCORE 11.001996 LL:  -2.831 LR:  -9.166 RR:   0.000 FEB:  -4.989
USER: RMSD 5.386855
USER: SEED 37
USER: STATUS no improvement in best in 12 clusters for 5 generations
USER: GENES 16
USER: genes 0 Translation |==|  0.65928 0.56744 0.54117
USER: genes 1 Rotation |==|  0.66640 0.46013 0.63530 0.94991
USER: genes 2 Torsion [C]-N--CA-[CB] |==|  0.23840
USER: genes 3 Torsion [N]-CA--CB-[CG] |==|  0.76923
USER: genes 4 Torsion [CA]-CB--CG-[CD2] |==|  0.83211
USER: genes 5 Torsion [CE2]-CZ--OH-[HH] |==|  0.04064
USER: genes 6 Torsion [N]-CA--C-[N] |==|  0.87175
USER: genes 7 Torsion [C]-N--CA-[C] |==|  0.53387
USER: genes 8 Torsion [N]-CA--C-[O] |==|  0.18136
USER: genes 9 Torsion [N]-C--CA-[N] |==|  0.99447
USER: genes 10 Torsion [C]-CA--N-[C] |==|  0.66525
USER: genes 11 Torsion [N]-C--CA-[N] |==|  0.29168
USER: genes 12 Torsion [C]-CA--CB-[CG] |==|  0.63121
USER: genes 13 Torsion [CA]-CB--CG-[OD1] |==|  0.17469
USER: genes 14 Torsion [C]-CA--CB-[CG] |==|  0.59240
USER: genes 15 Torsion [CA]-CB--CG-[CD2] |==|  0.17476
ROOT
ATOM      1  C   LEU F 804      14.235 -10.190  33.376  1.00 42.60 LIG 0.24  C 
ATOM      2 O    LEU F 804      15.221  -9.967  34.087  1.00 42.72 LIG-0.27  OA
ATOM      3  N   TYR F 805      12.990  -9.874  33.739  1.00 41.09 LIG-0.35  N 
ATOM      4 H    TYR F 805      12.288 -10.181  33.348  1.00 41.09 LIG 0.16  HD
ENDROOT
BRANCH 3 5
ATOM      5  CA  TYR F 805      12.702  -8.956  34.858  1.00 40.08 LIG 0.18  C 
BRANCH 5 6
ATOM      6  CB  TYR F 805      12.724  -7.508  34.353  1.00 38.23 LIG 0.07  C 
BRANCH 6 7
ATOM      7  CG  TYR F 805      14.114  -6.925  34.287  1.00 36.43 LIG-0.06  A 
ATOM      8  CD2 TYR F 805      14.895  -6.818  35.433  1.00 35.39 LIG 0.01  A 
ATOM      9  CE2 TYR F 805      16.175  -6.265  35.386  1.00 33.62 LIG 0.04  A 
ATOM     10  CZ  TYR F 805      16.683  -5.820  34.182  1.00 33.40 LIG 0.07  A 
ATOM     11  CE1 TYR F 805      15.928  -5.918  33.018  1.00 31.77 LIG 0.04  A 
ATOM     12  CD1 TYR F 805      14.648  -6.468  33.076  1.00 33.46 LIG 0.01  A 
BRANCH 10 13
ATOM     13 OH   TYR F 805      17.953  -5.286  34.151  1.00 32.97 LIG-0.36  OA
ATOM     14 HH   TYR F 805      18.355  -5.477  34.863  1.00 32.97 LIG 0.22  HD
ENDBRANCH 10 13
ENDBRANCH 6 7
ENDBRANCH 5 6
BRANCH 5 15
ATOM     15  C   TYR F 805      11.371  -9.236  35.580  1.00 40.65 LIG 0.24  C 
ATOM     16 O    TYR F 805      11.335  -9.248  36.813  1.00 41.05 LIG-0.27  OA
ATOM     17  N   GLY F 806      10.277  -9.450  34.833  1.00 41.21 LIG-0.35  N 
ATOM     18 H    GLY F 806       9.525  -9.691  35.173  1.00 41.21 LIG 0.16  HD
BRANCH 17 19
ATOM     19  CA  GLY F 806      10.226  -9.301  33.362  1.00 41.66 LIG 0.21  C 
BRANCH 19 20
ATOM     20  C   GLY F 806       8.834  -9.308  32.745  1.00 41.93 LIG 0.21  C 
ATOM     21 O    GLY F 806       8.016  -8.405  32.984  1.00 42.62 LIG-0.29  OA
ENDBRANCH 19 20
ENDBRANCH 17 19
ENDBRANCH 5 15
ENDBRANCH 3 5
BRANCH 1 22
ATOM     22  CA  LEU F 804      14.417 -10.867  32.005  1.00 43.64 LIG 0.18  C 
BRANCH 22 23
ATOM     23  N   LEU F 804      13.186 -11.132  31.261  1.00 45.07 LIG-0.35  N 
ATOM     24  C   ASP F 803      12.830 -12.360  30.897  1.00 46.18 LIG 0.26  C 
ATOM     25 O    ASP F 803      13.466 -13.368  31.232  1.00 46.48 LIG-0.27  OA
ATOM     26 H    LEU F 804      12.723 -10.429  31.085  1.00 45.07 LIG 0.16  HD
BRANCH 24 27
ATOM     27  CA  ASP F 803      11.562 -12.472  30.032  1.00 46.88 LIG 0.41  C 
ATOM     28  N   ASP F 803      11.871 -12.756  28.603  1.00 47.04 LIG 0.61  N 
BRANCH 27 29
ATOM     29  CB  ASP F 803      10.633 -13.557  30.586  1.00 47.42 LIG 0.16  C 
BRANCH 29 30
ATOM     30  CG  ASP F 803      10.116 -14.504  29.502  1.00 48.96 LIG 0.17  C 
ATOM     31 OD1  ASP F 803      10.959 -15.199  28.886  1.00 50.04 LIG-0.65  OA
ATOM     32 OD2  ASP F 803       8.884 -14.556  29.260  1.00 49.91 LIG-0.65  OA
ENDBRANCH 29 30
ENDBRANCH 27 29
ENDBRANCH 24 27
ENDBRANCH 22 23
BRANCH 22 33
ATOM     33  CB  LEU F 804      15.381 -10.050  31.134  1.00 43.69 LIG 0.04  C 
BRANCH 33 34
ATOM     34  CG  LEU F 804      15.224  -9.968  29.605  1.00 43.67 LIG-0.02  C 
ATOM     35  CD2 LEU F 804      13.905  -9.306  29.260  1.00 43.56 LIG 0.01  C 
ATOM     36  CD1 LEU F 804      15.366 -11.312  28.894  1.00 44.06 LIG 0.01  C 
ENDBRANCH 33 34
ENDBRANCH 22 33
ENDBRANCH 1 22
TORSDOF 14
ENDMDL
MODEL 77
USER: ADFR SOLUTION from run 18
USER: SCORE 11.061167 LL:  -2.726 LR:  -9.169 RR:   0.000 FEB:  -4.993
USER: RMSD 6.964484
USER: SEED 17
USER: STATUS no improvement in best in 15 clusters for 5 generations
USER: GENES 16
USER: genes 0 Translation |==|  0.53257 0.53972 0.37994
USER: genes 1 Rotation |==|  0.65159 0.62083 0.39919 0.94973
USER: genes 2 Torsion [C]-N--CA-[CB] |==|  0.53356
USER: genes 3 Torsion [N]-CA--CB-[CG] |==|  0.51204
USER: genes 4 Torsion [CA]-CB--CG-[CD2] |==|  0.13149
USER: genes 5 Torsion [CE2]-CZ--OH-[HH] |==|  0.65147
USER: genes 6 Torsion [N]-CA--C-[N] |==|  0.28206
USER: genes 7 Torsion [C]-N--CA-[C] |==|  0.61404
USER: genes 8 Torsion [N]-CA--C-[O] |==|  0.04943
USER: genes 9 Torsion [N]-C--CA-[N] |==|  0.42921
USER: genes 10 Torsion [C]-CA--N-[C] |==|  0.55000
USER: genes 11 Torsion [N]-C--CA-[N] |==|  0.13528
USER: genes 12 Torsion [C]-CA--CB-[CG] |==|  0.65671
USER: genes 13 Torsion [CA]-CB--CG-[OD1] |==|  0.36699
USER: genes 14 Torsion [C]-CA--CB-[CG] |==|  0.24892
USER: genes 15 Torsion [CA]-CB--CG-[CD2] |==|  0.08927
ROOT
ATOM      1  C   LEU F 804      12.335 -10.752  30.474  1.00 42.60 LIG 0.24  C 
ATOM      2 O    LEU F 804      13.400 -11.280  30.138  1.00 42.72 LIG-0.27  OA
ATOM      3  N   TYR F 805      12.255  -9.810  31.417  1.00 41.09 LIG-0.35  N 
ATOM      4 H    TYR F 805      11.518  -9.567  31.786  1.00 41.09 LIG 0.16  HD
ENDROOT
BRANCH 3 5
ATOM      5  CA  TYR F 805      13.442  -9.090  31.916  1.00 40.08 LIG 0.18  C 
BRANCH 5 6
ATOM      6  CB  TYR F 805      13.073  -8.306  33.182  1.00 38.23 LIG 0.07  C 
BRANCH 6 7
ATOM      7  CG  TYR F 805      14.206  -7.456  33.702  1.00 36.43 LIG-0.06  A 
ATOM      8  CD2 TYR F 805      14.934  -6.639  32.842  1.00 35.39 LIG 0.01  A 
ATOM      9  CE2 TYR F 805      15.995  -5.862  33.308  1.00 33.62 LIG 0.04  A 
ATOM     10  CZ  TYR F 805      16.329  -5.896  34.647  1.00 33.40 LIG 0.07  A 
ATOM     11  CE1 TYR F 805      15.617  -6.699  35.532  1.00 31.77 LIG 0.04  A 
ATOM     12  CD1 TYR F 805      14.561  -7.476  35.055  1.00 33.46 LIG 0.01  A 
BRANCH 10 13
ATOM     13 OH   TYR F 805      17.372  -5.115  35.094  1.00 32.97 LIG-0.36  OA
ATOM     14 HH   TYR F 805      17.930  -5.597  35.497  1.00 32.97 LIG 0.22  HD
ENDBRANCH 10 13
ENDBRANCH 6 7
ENDBRANCH 5 6
BRANCH 5 15
ATOM     15  C   TYR F 805      14.659  -9.992  32.198  1.00 40.65 LIG 0.24  C 
ATOM     16 O    TYR F 805      14.693 -10.667  33.229  1.00 41.05 LIG-0.27  OA
ATOM     17  N   GLY F 806      15.649 -10.022  31.293  1.00 41.21 LIG-0.35  N 
ATOM     18 H    GLY F 806      16.388 -10.440  31.431  1.00 41.21 LIG 0.16  HD
BRANCH 17 19
ATOM     19  CA  GLY F 806      15.598  -9.354  29.974  1.00 41.66 LIG 0.21  C 
BRANCH 19 20
ATOM     20  C   GLY F 806      16.172 -10.148  28.809  1.00 41.93 LIG 0.21  C 
ATOM     21 O    GLY F 806      16.346 -11.374  28.885  1.00 42.62 LIG-0.29  OA
ENDBRANCH 19 20
ENDBRANCH 17 19
ENDBRANCH 5 15
ENDBRANCH 3 5
BRANCH 1 22
ATOM     22  CA  LEU F 804      11.020 -11.180  29.796  1.00 43.64 LIG 0.18  C 
BRANCH 22 23
ATOM     23  N   LEU F 804      11.153 -11.730  28.447  1.00 45.07 LIG-0.35  N 
ATOM     24  C   ASP F 803      10.122 -11.814  27.613  1.00 46.18 LIG 0.26  C 
ATOM     25 O    ASP F 803       9.002 -11.360  27.885  1.00 46.48 LIG-0.27  OA
ATOM     26 H    LEU F 804      11.948 -11.988  28.249  1.00 45.07 LIG 0.16  HD
BRANCH 24 27
ATOM     27  CA  ASP F 803      10.392 -12.506  26.265  1.00 46.88 LIG 0.41  C 
ATOM     28  N   ASP F 803      11.094 -13.810  26.427  1.00 47.04 LIG 0.61  N 
BRANCH 27 29
ATOM     29  CB  ASP F 803       9.080 -12.717  25.502  1.00 47.42 LIG 0.16  C 
BRANCH 29 30
ATOM     30  CG  ASP F 803       8.837 -14.182  25.135  1.00 48.96 LIG 0.17  C 
ATOM     31 OD1  ASP F 803       7.705 -14.663  25.381  1.00 50.04 LIG-0.65  OA
ATOM     32 OD2  ASP F 803       9.762 -14.851  24.610  1.00 49.91 LIG-0.65  OA
ENDBRANCH 29 30
ENDBRANCH 27 29
ENDBRANCH 24 27
ENDBRANCH 22 23
BRANCH 22 33
ATOM     33  CB  LEU F 804      10.264 -12.175  30.687  1.00 43.69 LIG 0.04  C 
BRANCH 33 34
ATOM     34  CG  LEU F 804       9.247 -11.709  31.745  1.00 43.67 LIG-0.02  C 
ATOM     35  CD2 LEU F 804       8.558 -10.444  31.272  1.00 43.56 LIG 0.01  C 
ATOM     36  CD1 LEU F 804       9.844 -11.520  33.138  1.00 44.06 LIG 0.01  C 
ENDBRANCH 33 34
ENDBRANCH 22 33
ENDBRANCH 1 22
TORSDOF 14
ENDMDL
MODEL 78
USER: ADFR SOLUTION from run 42
USER: SCORE 11.696676 LL:  -2.659 LR:  -9.162 RR:   0.000 FEB:  -4.986
USER: RMSD 5.215862
USER: SEED 41
USER: STATUS no improvement in best in 9 clusters for 5 generations
USER: GENES 16
USER: genes 0 Translation |==|  0.59249 0.40420 0.47402
USER: genes 1 Rotation |==|  0.38151 0.12689 0.53570 0.80899
USER: genes 2 Torsion [C]-N--CA-[CB] |==|  0.81667
USER: genes 3 Torsion [N]-CA--CB-[CG] |==|  0.89440
USER: genes 4 Torsion [CA]-CB--CG-[CD2] |==|  0.31981
USER: genes 5 Torsion [CE2]-CZ--OH-[HH] |==|  0.74080
USER: genes 6 Torsion [N]-CA--C-[N] |==|  0.37684
USER: genes 7 Torsion [C]-N--CA-[C] |==|  0.79600
USER: genes 8 Torsion [N]-CA--C-[O] |==|  0.44627
USER: genes 9 Torsion [N]-C--CA-[N] |==|  0.42290
USER: genes 10 Torsion [C]-CA--N-[C] |==|  0.70028
USER: genes 11 Torsion [N]-C--CA-[N] |==|  0.93821
USER: genes 12 Torsion [C]-CA--CB-[CG] |==|  0.22751
USER: genes 13 Torsion [CA]-CB--CG-[OD1] |==|  0.04971
USER: genes 14 Torsion [C]-CA--CB-[CG] |==|  0.27678
USER: genes 15 Torsion [CA]-CB--CG-[CD2] |==|  0.09563
ROOT
ATOM      1  C   LEU F 804      13.233 -13.496  32.167  1.00 42.60 LIG 0.24  C 
ATOM      2 O    LEU F 804      12.673 -12.900  33.094  1.00 42.72 LIG-0.27  OA
ATOM      3  N   TYR F 805      13.589 -12.898  31.028  1.00 41.09 LIG-0.35  N 
ATOM      4 H    TYR F 805      13.808 -13.326  30.315  1.00 41.09 LIG 0.16  HD
ENDROOT
BRANCH 3 5
ATOM      5  CA  TYR F 805      13.639 -11.431  30.888  1.00 40.08 LIG 0.18  C 
BRANCH 5 6
ATOM      6  CB  TYR F 805      12.222 -10.854  31.008  1.00 38.23 LIG 0.07  C 
BRANCH 6 7
ATOM      7  CG  TYR F 805      11.175 -11.718  30.349  1.00 36.43 LIG-0.06  A 
ATOM      8  CD2 TYR F 805      10.182 -12.331  31.105  1.00 35.39 LIG 0.01  A 
ATOM      9  CE2 TYR F 805       9.219 -13.147  30.509  1.00 33.62 LIG 0.04  A 
ATOM     10  CZ  TYR F 805       9.245 -13.346  29.143  1.00 33.40 LIG 0.07  A 
ATOM     11  CE1 TYR F 805      10.223 -12.743  28.360  1.00 31.77 LIG 0.04  A 
ATOM     12  CD1 TYR F 805      11.184 -11.934  28.966  1.00 33.46 LIG 0.01  A 
BRANCH 10 13
ATOM     13 OH   TYR F 805       8.281 -14.146  28.568  1.00 32.97 LIG-0.36  OA
ATOM     14 HH   TYR F 805       8.568 -14.933  28.511  1.00 32.97 LIG 0.22  HD
ENDBRANCH 10 13
ENDBRANCH 6 7
ENDBRANCH 5 6
BRANCH 5 15
ATOM     15  C   TYR F 805      14.573 -10.730  31.893  1.00 40.65 LIG 0.24  C 
ATOM     16 O    TYR F 805      14.563 -11.072  33.078  1.00 41.05 LIG-0.27  OA
ATOM     17  N   GLY F 806      15.385  -9.764  31.437  1.00 41.21 LIG-0.35  N 
ATOM     18 H    GLY F 806      15.868  -9.281  31.959  1.00 41.21 LIG 0.16  HD
BRANCH 17 19
ATOM     19  CA  GLY F 806      15.549  -9.414  30.009  1.00 41.66 LIG 0.21  C 
BRANCH 19 20
ATOM     20  C   GLY F 806      16.345 -10.406  29.172  1.00 41.93 LIG 0.21  C 
ATOM     21 O    GLY F 806      16.259 -10.424  27.935  1.00 42.62 LIG-0.29  OA
ENDBRANCH 19 20
ENDBRANCH 17 19
ENDBRANCH 5 15
ENDBRANCH 3 5
BRANCH 1 22
ATOM     22  CA  LEU F 804      13.546 -14.998  32.301  1.00 43.64 LIG 0.18  C 
BRANCH 22 23
ATOM     23  N   LEU F 804      13.752 -15.483  33.665  1.00 45.07 LIG-0.35  N 
ATOM     24  C   ASP F 803      14.952 -15.826  34.121  1.00 46.18 LIG 0.26  C 
ATOM     25 O    ASP F 803      15.986 -15.681  33.456  1.00 46.48 LIG-0.27  OA
ATOM     26 H    LEU F 804      13.033 -15.524  34.136  1.00 45.07 LIG 0.16  HD
BRANCH 24 27
ATOM     27  CA  ASP F 803      14.998 -16.414  35.542  1.00 46.88 LIG 0.41  C 
ATOM     28  N   ASP F 803      13.812 -16.026  36.357  1.00 47.04 LIG 0.61  N 
BRANCH 27 29
ATOM     29  CB  ASP F 803      15.107 -17.941  35.485  1.00 47.42 LIG 0.16  C 
BRANCH 29 30
ATOM     30  CG  ASP F 803      16.540 -18.426  35.261  1.00 48.96 LIG 0.17  C 
ATOM     31 OD1  ASP F 803      17.470 -17.617  35.491  1.00 50.04 LIG-0.65  OA
ATOM     32 OD2  ASP F 803      16.741 -19.598  34.856  1.00 49.91 LIG-0.65  OA
ENDBRANCH 29 30
ENDBRANCH 27 29
ENDBRANCH 24 27
ENDBRANCH 22 23
BRANCH 22 33
ATOM     33  CB  LEU F 804      12.455 -15.830  31.615  1.00 43.69 LIG 0.04  C 
BRANCH 33 34
ATOM     34  CG  LEU F 804      12.644 -16.414  30.204  1.00 43.67 LIG-0.02  C 
ATOM     35  CD2 LEU F 804      14.094 -16.807  30.001  1.00 43.56 LIG 0.01  C 
ATOM     36  CD1 LEU F 804      12.163 -15.496  29.082  1.00 44.06 LIG 0.01  C 
ENDBRANCH 33 34
ENDBRANCH 22 33
ENDBRANCH 1 22
TORSDOF 14
ENDMDL
MODEL 79
USER: ADFR SOLUTION from run 66
USER: SCORE 11.793595 LL:  -3.193 LR:  -9.150 RR:   0.000 FEB:  -4.973
USER: RMSD 6.695421
USER: SEED 65
USER: STATUS no improvement in best in 11 clusters for 5 generations
USER: GENES 16
USER: genes 0 Translation |==|  0.68763 0.56263 0.50512
USER: genes 1 Rotation |==|  0.84954 0.45997 0.81222 0.66952
USER: genes 2 Torsion [C]-N--CA-[CB] |==|  0.58205
USER: genes 3 Torsion [N]-CA--CB-[CG] |==|  0.90124
USER: genes 4 Torsion [CA]-CB--CG-[CD2] |==|  0.84212
USER: genes 5 Torsion [CE2]-CZ--OH-[HH] |==|  0.29779
USER: genes 6 Torsion [N]-CA--C-[N] |==|  0.27297
USER: genes 7 Torsion [C]-N--CA-[C] |==|  0.69272
USER: genes 8 Torsion [N]-CA--C-[O] |==|  0.01749
USER: genes 9 Torsion [N]-C--CA-[N] |==|  0.45458
USER: genes 10 Torsion [C]-CA--N-[C] |==|  0.81650
USER: genes 11 Torsion [N]-C--CA-[N] |==|  0.45093
USER: genes 12 Torsion [C]-CA--CB-[CG] |==|  0.80188
USER: genes 13 Torsion [CA]-CB--CG-[OD1] |==|  0.41865
USER: genes 14 Torsion [C]-CA--CB-[CG] |==|  0.27607
USER: genes 15 Torsion [CA]-CB--CG-[CD2] |==|  0.98279
ROOT
ATOM      1  C   LEU F 804      14.660 -10.288  32.727  1.00 42.60 LIG 0.24  C 
ATOM      2 O    LEU F 804      15.256 -10.181  33.805  1.00 42.72 LIG-0.27  OA
ATOM      3  N   TYR F 805      13.945 -11.364  32.395  1.00 41.09 LIG-0.35  N 
ATOM      4 H    TYR F 805      13.681 -11.531  31.593  1.00 41.09 LIG 0.16  HD
ENDROOT
BRANCH 3 5
ATOM      5  CA  TYR F 805      13.536 -12.378  33.385  1.00 40.08 LIG 0.18  C 
BRANCH 5 6
ATOM      6  CB  TYR F 805      13.418 -13.747  32.702  1.00 38.23 LIG 0.07  C 
BRANCH 6 7
ATOM      7  CG  TYR F 805      12.898 -13.658  31.288  1.00 36.43 LIG-0.06  A 
ATOM      8  CD2 TYR F 805      11.675 -13.054  31.017  1.00 35.39 LIG 0.01  A 
ATOM      9  CE2 TYR F 805      11.176 -12.982  29.716  1.00 33.62 LIG 0.04  A 
ATOM     10  CZ  TYR F 805      11.909 -13.513  28.674  1.00 33.40 LIG 0.07  A 
ATOM     11  CE1 TYR F 805      13.138 -14.120  28.912  1.00 31.77 LIG 0.04  A 
ATOM     12  CD1 TYR F 805      13.626 -14.191  30.217  1.00 33.46 LIG 0.01  A 
BRANCH 10 13
ATOM     13 OH   TYR F 805      11.408 -13.426  27.393  1.00 32.97 LIG-0.36  OA
ATOM     14 HH   TYR F 805      11.846 -12.855  26.959  1.00 32.97 LIG 0.22  HD
ENDBRANCH 10 13
ENDBRANCH 6 7
ENDBRANCH 5 6
BRANCH 5 15
ATOM     15  C   TYR F 805      14.471 -12.485  34.605  1.00 40.65 LIG 0.24  C 
ATOM     16 O    TYR F 805      15.515 -13.136  34.521  1.00 41.05 LIG-0.27  OA
ATOM     17  N   GLY F 806      14.118 -11.847  35.732  1.00 41.21 LIG-0.35  N 
ATOM     18 H    GLY F 806      14.553 -11.935  36.468  1.00 41.21 LIG 0.16  HD
BRANCH 17 19
ATOM     19  CA  GLY F 806      12.961 -10.932  35.849  1.00 41.66 LIG 0.21  C 
BRANCH 19 20
ATOM     20  C   GLY F 806      13.299  -9.460  36.041  1.00 41.93 LIG 0.21  C 
ATOM     21 O    GLY F 806      14.468  -9.052  35.979  1.00 42.62 LIG-0.29  OA
ENDBRANCH 19 20
ENDBRANCH 17 19
ENDBRANCH 5 15
ENDBRANCH 3 5
BRANCH 1 22
ATOM     22  CA  LEU F 804      14.730  -9.145  31.698  1.00 43.64 LIG 0.18  C 
BRANCH 22 23
ATOM     23  N   LEU F 804      15.190  -7.855  32.214  1.00 45.07 LIG-0.35  N 
ATOM     24  C   ASP F 803      14.487  -7.157  33.099  1.00 46.18 LIG 0.26  C 
ATOM     25 O    ASP F 803      13.443  -7.582  33.611  1.00 46.48 LIG-0.27  OA
ATOM     26 H    LEU F 804      15.945  -7.597  31.894  1.00 45.07 LIG 0.16  HD
BRANCH 24 27
ATOM     27  CA  ASP F 803      15.047  -5.773  33.472  1.00 46.88 LIG 0.41  C 
ATOM     28  N   ASP F 803      14.025  -4.901  34.118  1.00 47.04 LIG 0.61  N 
BRANCH 27 29
ATOM     29  CB  ASP F 803      16.259  -5.919  34.398  1.00 47.42 LIG 0.16  C 
BRANCH 29 30
ATOM     30  CG  ASP F 803      15.879  -6.385  35.804  1.00 48.96 LIG 0.17  C 
ATOM     31 OD1  ASP F 803      16.724  -7.056  36.442  1.00 50.04 LIG-0.65  OA
ATOM     32 OD2  ASP F 803      14.750  -6.091  36.270  1.00 49.91 LIG-0.65  OA
ENDBRANCH 29 30
ENDBRANCH 27 29
ENDBRANCH 24 27
ENDBRANCH 22 23
BRANCH 22 33
ATOM     33  CB  LEU F 804      15.596  -9.560  30.501  1.00 43.69 LIG 0.04  C 
BRANCH 33 34
ATOM     34  CG  LEU F 804      14.975 -10.060  29.184  1.00 43.67 LIG-0.02  C 
ATOM     35  CD2 LEU F 804      13.475 -10.205  29.346  1.00 43.56 LIG 0.01  C 
ATOM     36  CD1 LEU F 804      15.597 -11.352  28.656  1.00 44.06 LIG 0.01  C 
ENDBRANCH 33 34
ENDBRANCH 22 33
ENDBRANCH 1 22
TORSDOF 14
ENDMDL
MODEL 80
USER: ADFR SOLUTION from run 184
USER: SCORE 11.306144 LL:  -2.854 LR:  -9.145 RR:   0.000 FEB:  -4.969
USER: RMSD 6.044556
USER: SEED 183
USER: STATUS no improvement in best in 11 clusters for 5 generations
USER: GENES 16
USER: genes 0 Translation |==|  0.54943 0.56190 0.41285
USER: genes 1 Rotation |==|  0.52334 0.13268 0.16764 0.56377
USER: genes 2 Torsion [C]-N--CA-[CB] |==|  0.16451
USER: genes 3 Torsion [N]-CA--CB-[CG] |==|  0.13147
USER: genes 4 Torsion [CA]-CB--CG-[CD2] |==|  0.75032
USER: genes 5 Torsion [CE2]-CZ--OH-[HH] |==|  0.57262
USER: genes 6 Torsion [N]-CA--C-[N] |==|  0.17778
USER: genes 7 Torsion [C]-N--CA-[C] |==|  0.43761
USER: genes 8 Torsion [N]-CA--C-[O] |==|  0.74301
USER: genes 9 Torsion [N]-C--CA-[N] |==|  0.49935
USER: genes 10 Torsion [C]-CA--N-[C] |==|  0.77137
USER: genes 11 Torsion [N]-C--CA-[N] |==|  0.98442
USER: genes 12 Torsion [C]-CA--CB-[CG] |==|  0.51883
USER: genes 13 Torsion [CA]-CB--CG-[OD1] |==|  0.51409
USER: genes 14 Torsion [C]-CA--CB-[CG] |==|  0.36528
USER: genes 15 Torsion [CA]-CB--CG-[CD2] |==|  0.05442
ROOT
ATOM      1  C   LEU F 804      12.587 -10.303  31.066  1.00 42.60 LIG 0.24  C 
ATOM      2 O    LEU F 804      11.365 -10.156  31.179  1.00 42.72 LIG-0.27  OA
ATOM      3  N   TYR F 805      13.451  -9.966  32.026  1.00 41.09 LIG-0.35  N 
ATOM      4 H    TYR F 805      14.299  -9.890  31.899  1.00 41.09 LIG 0.16  HD
ENDROOT
BRANCH 3 5
ATOM      5  CA  TYR F 805      13.025  -9.689  33.411  1.00 40.08 LIG 0.18  C 
BRANCH 5 6
ATOM      6  CB  TYR F 805      12.325 -10.925  33.990  1.00 38.23 LIG 0.07  C 
BRANCH 6 7
ATOM      7  CG  TYR F 805      13.086 -12.205  33.746  1.00 36.43 LIG-0.06  A 
ATOM      8  CD2 TYR F 805      12.862 -12.958  32.599  1.00 35.39 LIG 0.01  A 
ATOM      9  CE2 TYR F 805      13.548 -14.152  32.371  1.00 33.62 LIG 0.04  A 
ATOM     10  CZ  TYR F 805      14.471 -14.595  33.297  1.00 33.40 LIG 0.07  A 
ATOM     11  CE1 TYR F 805      14.720 -13.862  34.452  1.00 31.77 LIG 0.04  A 
ATOM     12  CD1 TYR F 805      14.026 -12.673  34.672  1.00 33.46 LIG 0.01  A 
BRANCH 10 13
ATOM     13 OH   TYR F 805      15.147 -15.771  33.053  1.00 32.97 LIG-0.36  OA
ATOM     14 HH   TYR F 805      15.385 -16.114  33.783  1.00 32.97 LIG 0.22  HD
ENDBRANCH 10 13
ENDBRANCH 6 7
ENDBRANCH 5 6
BRANCH 5 15
ATOM     15  C   TYR F 805      14.166  -9.251  34.349  1.00 40.65 LIG 0.24  C 
ATOM     16 O    TYR F 805      14.481  -9.965  35.304  1.00 41.05 LIG-0.27  OA
ATOM     17  N   GLY F 806      14.794  -8.094  34.086  1.00 41.21 LIG-0.35  N 
ATOM     18 H    GLY F 806      15.380  -7.756  34.616  1.00 41.21 LIG 0.16  HD
BRANCH 17 19
ATOM     19  CA  GLY F 806      14.563  -7.272  32.878  1.00 41.66 LIG 0.21  C 
BRANCH 19 20
ATOM     20  C   GLY F 806      14.937  -5.802  32.998  1.00 41.93 LIG 0.21  C 
ATOM     21 O    GLY F 806      14.105  -4.948  33.342  1.00 42.62 LIG-0.29  OA
ENDBRANCH 19 20
ENDBRANCH 17 19
ENDBRANCH 5 15
ENDBRANCH 3 5
BRANCH 1 22
ATOM     22  CA  LEU F 804      13.172 -10.895  29.771  1.00 43.64 LIG 0.18  C 
BRANCH 22 23
ATOM     23  N   LEU F 804      12.195 -11.257  28.743  1.00 45.07 LIG-0.35  N 
ATOM     24  C   ASP F 803      11.535 -12.410  28.770  1.00 46.18 LIG 0.26  C 
ATOM     25 O    ASP F 803      11.635 -13.217  29.704  1.00 46.48 LIG-0.27  OA
ATOM     26 H    LEU F 804      12.092 -10.663  28.131  1.00 45.07 LIG 0.16  HD
BRANCH 24 27
ATOM     27  CA  ASP F 803      10.616 -12.696  27.569  1.00 46.88 LIG 0.41  C 
ATOM     28  N   ASP F 803      10.531 -11.542  26.631  1.00 47.04 LIG 0.61  N 
BRANCH 27 29
ATOM     29  CB  ASP F 803      11.096 -13.940  26.814  1.00 47.42 LIG 0.16  C 
BRANCH 29 30
ATOM     30  CG  ASP F 803      10.324 -14.181  25.517  1.00 48.96 LIG 0.17  C 
ATOM     31 OD1  ASP F 803      10.575 -15.229  24.876  1.00 50.04 LIG-0.65  OA
ATOM     32 OD2  ASP F 803       9.476 -13.336  25.134  1.00 49.91 LIG-0.65  OA
ENDBRANCH 29 30
ENDBRANCH 27 29
ENDBRANCH 24 27
ENDBRANCH 22 23
BRANCH 22 33
ATOM     33  CB  LEU F 804      14.218  -9.943  29.177  1.00 43.69 LIG 0.04  C 
BRANCH 33 34
ATOM     34  CG  LEU F 804      15.605 -10.438  28.728  1.00 43.67 LIG-0.02  C 
ATOM     35  CD2 LEU F 804      15.570 -11.937  28.510  1.00 43.56 LIG 0.01  C 
ATOM     36  CD1 LEU F 804      16.739 -10.048  29.675  1.00 44.06 LIG 0.01  C 
ENDBRANCH 33 34
ENDBRANCH 22 33
ENDBRANCH 1 22
TORSDOF 14
ENDMDL
MODEL 81
USER: ADFR SOLUTION from run 111
USER: SCORE 11.660319 LL:  -2.540 LR:  -9.136 RR:   0.000 FEB:  -4.960
USER: RMSD 7.925307
USER: SEED 110
USER: STATUS no improvement in best in 15 clusters for 5 generations
USER: GENES 16
USER: genes 0 Translation |==|  0.54870 0.39669 0.41406
USER: genes 1 Rotation |==|  0.49048 0.37534 0.01589 0.50266
USER: genes 2 Torsion [C]-N--CA-[CB] |==|  0.81083
USER: genes 3 Torsion [N]-CA--CB-[CG] |==|  0.94045
USER: genes 4 Torsion [CA]-CB--CG-[CD2] |==|  0.31556
USER: genes 5 Torsion [CE2]-CZ--OH-[HH] |==|  0.49684
USER: genes 6 Torsion [N]-CA--C-[N] |==|  0.42152
USER: genes 7 Torsion [C]-N--CA-[C] |==|  0.55074
USER: genes 8 Torsion [N]-CA--C-[O] |==|  0.92128
USER: genes 9 Torsion [N]-C--CA-[N] |==|  0.40000
USER: genes 10 Torsion [C]-CA--N-[C] |==|  0.83319
USER: genes 11 Torsion [N]-C--CA-[N] |==|  0.06401
USER: genes 12 Torsion [C]-CA--CB-[CG] |==|  0.41842
USER: genes 13 Torsion [CA]-CB--CG-[OD1] |==|  0.09102
USER: genes 14 Torsion [C]-CA--CB-[CG] |==|  0.50120
USER: genes 15 Torsion [CA]-CB--CG-[CD2] |==|  0.81920
ROOT
ATOM      1  C   LEU F 804      12.577 -13.648  31.088  1.00 42.60 LIG 0.24  C 
ATOM      2 O    LEU F 804      11.436 -13.441  31.518  1.00 42.72 LIG-0.27  OA
ATOM      3  N   TYR F 805      13.390 -14.574  31.600  1.00 41.09 LIG-0.35  N 
ATOM      4 H    TYR F 805      14.235 -14.607  31.439  1.00 41.09 LIG 0.16  HD
ENDROOT
BRANCH 3 5
ATOM      5  CA  TYR F 805      12.908 -15.638  32.501  1.00 40.08 LIG 0.18  C 
BRANCH 5 6
ATOM      6  CB  TYR F 805      12.472 -15.023  33.837  1.00 38.23 LIG 0.07  C 
BRANCH 6 7
ATOM      7  CG  TYR F 805      13.091 -13.672  34.096  1.00 36.43 LIG-0.06  A 
ATOM      8  CD2 TYR F 805      12.304 -12.525  34.136  1.00 35.39 LIG 0.01  A 
ATOM      9  CE2 TYR F 805      12.869 -11.268  34.357  1.00 33.62 LIG 0.04  A 
ATOM     10  CZ  TYR F 805      14.232 -11.156  34.545  1.00 33.40 LIG 0.07  A 
ATOM     11  CE1 TYR F 805      15.044 -12.284  34.514  1.00 31.77 LIG 0.04  A 
ATOM     12  CD1 TYR F 805      14.471 -13.536  34.288  1.00 33.46 LIG 0.01  A 
BRANCH 10 13
ATOM     13 OH   TYR F 805      14.773  -9.909  34.772  1.00 32.97 LIG-0.36  OA
ATOM     14 HH   TYR F 805      15.602  -9.980  34.885  1.00 32.97 LIG 0.22  HD
ENDBRANCH 10 13
ENDBRANCH 6 7
ENDBRANCH 5 6
BRANCH 5 15
ATOM     15  C   TYR F 805      11.763 -16.489  31.920  1.00 40.65 LIG 0.24  C 
ATOM     16 O    TYR F 805      10.997 -15.996  31.088  1.00 41.05 LIG-0.27  OA
ATOM     17  N   GLY F 806      11.641 -17.758  32.337  1.00 41.21 LIG-0.35  N 
ATOM     18 H    GLY F 806      10.977 -18.256  32.113  1.00 41.21 LIG 0.16  HD
BRANCH 17 19
ATOM     19  CA  GLY F 806      12.613 -18.448  33.214  1.00 41.66 LIG 0.21  C 
BRANCH 19 20
ATOM     20  C   GLY F 806      12.534 -19.968  33.221  1.00 41.93 LIG 0.21  C 
ATOM     21 O    GLY F 806      11.469 -20.562  32.992  1.00 42.62 LIG-0.29  OA
ENDBRANCH 19 20
ENDBRANCH 17 19
ENDBRANCH 5 15
ENDBRANCH 3 5
BRANCH 1 22
ATOM     22  CA  LEU F 804      13.114 -12.814  29.911  1.00 43.64 LIG 0.18  C 
BRANCH 22 23
ATOM     23  N   LEU F 804      12.132 -12.458  28.886  1.00 45.07 LIG-0.35  N 
ATOM     24  C   ASP F 803      11.468 -13.378  28.193  1.00 46.18 LIG 0.26  C 
ATOM     25 O    ASP F 803      11.570 -14.591  28.422  1.00 46.48 LIG-0.27  OA
ATOM     26 H    LEU F 804      12.027 -11.612  28.777  1.00 45.07 LIG 0.16  HD
BRANCH 24 27
ATOM     27  CA  ASP F 803      10.543 -12.855  27.080  1.00 46.88 LIG 0.41  C 
ATOM     28  N   ASP F 803      10.939 -11.500  26.601  1.00 47.04 LIG 0.61  N 
BRANCH 27 29
ATOM     29  CB  ASP F 803      10.521 -13.833  25.901  1.00 47.42 LIG 0.16  C 
BRANCH 29 30
ATOM     30  CG  ASP F 803       9.197 -13.807  25.135  1.00 48.96 LIG 0.17  C 
ATOM     31 OD1  ASP F 803       8.586 -12.715  25.066  1.00 50.04 LIG-0.65  OA
ATOM     32 OD2  ASP F 803       8.766 -14.864  24.609  1.00 49.91 LIG-0.65  OA
ENDBRANCH 29 30
ENDBRANCH 27 29
ENDBRANCH 24 27
ENDBRANCH 22 23
BRANCH 22 33
ATOM     33  CB  LEU F 804      13.801 -11.544  30.430  1.00 43.69 LIG 0.04  C 
BRANCH 33 34
ATOM     34  CG  LEU F 804      14.427 -10.511  29.476  1.00 43.67 LIG-0.02  C 
ATOM     35  CD2 LEU F 804      15.598 -11.133  28.741  1.00 43.56 LIG 0.01  C 
ATOM     36  CD1 LEU F 804      14.837  -9.207  30.157  1.00 44.06 LIG 0.01  C 
ENDBRANCH 33 34
ENDBRANCH 22 33
ENDBRANCH 1 22
TORSDOF 14
ENDMDL
MODEL 82
USER: ADFR SOLUTION from run 134
USER: SCORE 11.221684 LL:  -2.251 LR:  -9.127 RR:   0.000 FEB:  -4.951
USER: RMSD 5.921260
USER: SEED 133
USER: STATUS no improvement in best in 17 clusters for 5 generations
USER: GENES 16
USER: genes 0 Translation |==|  0.57236 0.44903 0.48255
USER: genes 1 Rotation |==|  0.18443 0.64869 0.58605 0.84771
USER: genes 2 Torsion [C]-N--CA-[CB] |==|  0.77457
USER: genes 3 Torsion [N]-CA--CB-[CG] |==|  0.21679
USER: genes 4 Torsion [CA]-CB--CG-[CD2] |==|  0.70451
USER: genes 5 Torsion [CE2]-CZ--OH-[HH] |==|  0.77906
USER: genes 6 Torsion [N]-CA--C-[N] |==|  0.46651
USER: genes 7 Torsion [C]-N--CA-[C] |==|  0.50113
USER: genes 8 Torsion [N]-CA--C-[O] |==|  0.24234
USER: genes 9 Torsion [N]-C--CA-[N] |==|  0.42305
USER: genes 10 Torsion [C]-CA--N-[C] |==|  0.62708
USER: genes 11 Torsion [N]-C--CA-[N] |==|  0.17374
USER: genes 12 Torsion [C]-CA--CB-[CG] |==|  0.52386
USER: genes 13 Torsion [CA]-CB--CG-[OD1] |==|  0.68204
USER: genes 14 Torsion [C]-CA--CB-[CG] |==|  0.75447
USER: genes 15 Torsion [CA]-CB--CG-[CD2] |==|  0.12905
ROOT
ATOM      1  C   LEU F 804      12.931 -12.588  32.321  1.00 42.60 LIG 0.24  C 
ATOM      2 O    LEU F 804      13.898 -12.317  31.600  1.00 42.72 LIG-0.27  OA
ATOM      3  N   TYR F 805      11.672 -12.297  31.988  1.00 41.09 LIG-0.35  N 
ATOM      4 H    TYR F 805      11.017 -12.312  32.546  1.00 41.09 LIG 0.16  HD
ENDROOT
BRANCH 3 5
ATOM      5  CA  TYR F 805      11.284 -11.920  30.616  1.00 40.08 LIG 0.18  C 
BRANCH 5 6
ATOM      6  CB  TYR F 805      11.595 -10.436  30.383  1.00 38.23 LIG 0.07  C 
BRANCH 6 7
ATOM      7  CG  TYR F 805      13.058 -10.173  30.120  1.00 36.43 LIG-0.06  A 
ATOM      8  CD2 TYR F 805      13.859  -9.581  31.091  1.00 35.39 LIG 0.01  A 
ATOM      9  CE2 TYR F 805      15.208  -9.317  30.852  1.00 33.62 LIG 0.04  A 
ATOM     10  CZ  TYR F 805      15.764  -9.653  29.634  1.00 33.40 LIG 0.07  A 
ATOM     11  CE1 TYR F 805      14.990 -10.251  28.646  1.00 31.77 LIG 0.04  A 
ATOM     12  CD1 TYR F 805      13.641 -10.506  28.892  1.00 33.46 LIG 0.01  A 
BRANCH 10 13
ATOM     13 OH   TYR F 805      17.100  -9.396  29.417  1.00 32.97 LIG-0.36  OA
ATOM     14 HH   TYR F 805      17.202  -8.584  29.228  1.00 32.97 LIG 0.22  HD
ENDBRANCH 10 13
ENDBRANCH 6 7
ENDBRANCH 5 6
BRANCH 5 15
ATOM     15  C   TYR F 805      11.945 -12.770  29.515  1.00 40.65 LIG 0.24  C 
ATOM     16 O    TYR F 805      12.877 -13.525  29.802  1.00 41.05 LIG-0.27  OA
ATOM     17  N   GLY F 806      11.471 -12.667  28.264  1.00 41.21 LIG-0.35  N 
ATOM     18 H    GLY F 806      11.848 -13.051  27.593  1.00 41.21 LIG 0.16  HD
BRANCH 17 19
ATOM     19  CA  GLY F 806      10.266 -11.896  27.886  1.00 41.66 LIG 0.21  C 
BRANCH 19 20
ATOM     20  C   GLY F 806       9.900 -11.922  26.409  1.00 41.93 LIG 0.21  C 
ATOM     21 O    GLY F 806       9.187 -12.819  25.934  1.00 42.62 LIG-0.29  OA
ENDBRANCH 19 20
ENDBRANCH 17 19
ENDBRANCH 5 15
ENDBRANCH 3 5
BRANCH 1 22
ATOM     22  CA  LEU F 804      13.158 -13.291  33.672  1.00 43.64 LIG 0.18  C 
BRANCH 22 23
ATOM     23  N   LEU F 804      14.348 -14.138  33.754  1.00 45.07 LIG-0.35  N 
ATOM     24  C   ASP F 803      14.313 -15.358  34.281  1.00 46.18 LIG 0.26  C 
ATOM     25 O    ASP F 803      13.263 -15.893  34.659  1.00 46.48 LIG-0.27  OA
ATOM     26 H    LEU F 804      15.059 -13.777  33.434  1.00 45.07 LIG 0.16  HD
BRANCH 24 27
ATOM     27  CA  ASP F 803      15.662 -16.090  34.390  1.00 46.88 LIG 0.41  C 
ATOM     28  N   ASP F 803      16.621 -15.384  35.286  1.00 47.04 LIG 0.61  N 
BRANCH 27 29
ATOM     29  CB  ASP F 803      15.452 -17.524  34.887  1.00 47.42 LIG 0.16  C 
BRANCH 29 30
ATOM     30  CG  ASP F 803      16.765 -18.236  35.216  1.00 48.96 LIG 0.17  C 
ATOM     31 OD1  ASP F 803      17.086 -19.221  34.510  1.00 50.04 LIG-0.65  OA
ATOM     32 OD2  ASP F 803      17.471 -17.823  36.171  1.00 49.91 LIG-0.65  OA
ENDBRANCH 29 30
ENDBRANCH 27 29
ENDBRANCH 24 27
ENDBRANCH 22 23
BRANCH 22 33
ATOM     33  CB  LEU F 804      13.177 -12.262  34.809  1.00 43.69 LIG 0.04  C 
BRANCH 33 34
ATOM     34  CG  LEU F 804      14.473 -11.553  35.242  1.00 43.67 LIG-0.02  C 
ATOM     35  CD2 LEU F 804      15.220 -11.057  34.020  1.00 43.56 LIG 0.01  C 
ATOM     36  CD1 LEU F 804      15.379 -12.405  36.130  1.00 44.06 LIG 0.01  C 
ENDBRANCH 33 34
ENDBRANCH 22 33
ENDBRANCH 1 22
TORSDOF 14
ENDMDL
MODEL 83
USER: ADFR SOLUTION from run 117
USER: SCORE 11.448407 LL:  -2.688 LR:  -9.134 RR:   0.000 FEB:  -4.958
USER: RMSD 7.002551
USER: SEED 116
USER: STATUS no improvement in best in 14 clusters for 5 generations
USER: GENES 16
USER: genes 0 Translation |==|  0.48618 0.50288 0.31783
USER: genes 1 Rotation |==|  0.11030 0.54086 0.80986 0.52127
USER: genes 2 Torsion [C]-N--CA-[CB] |==|  0.75089
USER: genes 3 Torsion [N]-CA--CB-[CG] |==|  0.14601
USER: genes 4 Torsion [CA]-CB--CG-[CD2] |==|  0.24321
USER: genes 5 Torsion [CE2]-CZ--OH-[HH] |==|  0.77094
USER: genes 6 Torsion [N]-CA--C-[N] |==|  0.16238
USER: genes 7 Torsion [C]-N--CA-[C] |==|  0.20997
USER: genes 8 Torsion [N]-CA--C-[O] |==|  0.26560
USER: genes 9 Torsion [N]-C--CA-[N] |==|  0.02778
USER: genes 10 Torsion [C]-CA--N-[C] |==|  0.74743
USER: genes 11 Torsion [N]-C--CA-[N] |==|  0.60088
USER: genes 12 Torsion [C]-CA--CB-[CG] |==|  0.39202
USER: genes 13 Torsion [CA]-CB--CG-[OD1] |==|  0.95913
USER: genes 14 Torsion [C]-CA--CB-[CG] |==|  0.75911
USER: genes 15 Torsion [CA]-CB--CG-[CD2] |==|  0.74095
ROOT
ATOM      1  C   LEU F 804      11.639 -11.498  29.356  1.00 42.60 LIG 0.24  C 
ATOM      2 O    LEU F 804      11.471 -11.515  28.132  1.00 42.72 LIG-0.27  OA
ATOM      3  N   TYR F 805      11.244 -12.489  30.157  1.00 41.09 LIG-0.35  N 
ATOM      4 H    TYR F 805      11.187 -12.416  31.013  1.00 41.09 LIG 0.16  HD
ENDROOT
BRANCH 3 5
ATOM      5  CA  TYR F 805      10.867 -13.819  29.642  1.00 40.08 LIG 0.18  C 
BRANCH 5 6
ATOM      6  CB  TYR F 805       9.366 -13.840  29.325  1.00 38.23 LIG 0.07  C 
BRANCH 6 7
ATOM      7  CG  TYR F 805       8.936 -12.707  28.426  1.00 36.43 LIG-0.06  A 
ATOM      8  CD2 TYR F 805       8.994 -12.837  27.042  1.00 35.39 LIG 0.01  A 
ATOM      9  CE2 TYR F 805       8.616 -11.789  26.201  1.00 33.62 LIG 0.04  A 
ATOM     10  CZ  TYR F 805       8.170 -10.602  26.747  1.00 33.40 LIG 0.07  A 
ATOM     11  CE1 TYR F 805       8.097 -10.444  28.127  1.00 31.77 LIG 0.04  A 
ATOM     12  CD1 TYR F 805       8.481 -11.495  28.959  1.00 33.46 LIG 0.01  A 
BRANCH 10 13
ATOM     13 OH   TYR F 805       7.790  -9.581  25.904  1.00 32.97 LIG-0.36  OA
ATOM     14 HH   TYR F 805       8.471  -9.158  25.653  1.00 32.97 LIG 0.22  HD
ENDBRANCH 10 13
ENDBRANCH 6 7
ENDBRANCH 5 6
BRANCH 5 15
ATOM     15  C   TYR F 805      11.666 -14.270  28.405  1.00 40.65 LIG 0.24  C 
ATOM     16 O    TYR F 805      11.073 -14.532  27.356  1.00 41.05 LIG-0.27  OA
ATOM     17  N   GLY F 806      13.001 -14.353  28.510  1.00 41.21 LIG-0.35  N 
ATOM     18 H    GLY F 806      13.495 -14.676  27.883  1.00 41.21 LIG 0.16  HD
BRANCH 17 19
ATOM     19  CA  GLY F 806      13.778 -13.912  29.689  1.00 41.66 LIG 0.21  C 
BRANCH 19 20
ATOM     20  C   GLY F 806      13.719 -14.830  30.901  1.00 41.93 LIG 0.21  C 
ATOM     21 O    GLY F 806      14.597 -15.681  31.111  1.00 42.62 LIG-0.29  OA
ENDBRANCH 19 20
ENDBRANCH 17 19
ENDBRANCH 5 15
ENDBRANCH 3 5
BRANCH 1 22
ATOM     22  CA  LEU F 804      12.327 -10.290  30.018  1.00 43.64 LIG 0.18  C 
BRANCH 22 23
ATOM     23  N   LEU F 804      12.681 -10.457  31.428  1.00 45.07 LIG-0.35  N 
ATOM     24  C   ASP F 803      11.854 -10.113  32.410  1.00 46.18 LIG 0.26  C 
ATOM     25 O    ASP F 803      10.702  -9.708  32.204  1.00 46.48 LIG-0.27  OA
ATOM     26 H    LEU F 804      13.461 -10.793  31.557  1.00 45.07 LIG 0.16  HD
BRANCH 24 27
ATOM     27  CA  ASP F 803      12.402 -10.252  33.841  1.00 46.88 LIG 0.41  C 
ATOM     28  N   ASP F 803      11.361 -10.699  34.808  1.00 47.04 LIG 0.61  N 
BRANCH 27 29
ATOM     29  CB  ASP F 803      13.584 -11.227  33.867  1.00 47.42 LIG 0.16  C 
BRANCH 29 30
ATOM     30  CG  ASP F 803      14.701 -10.779  34.811  1.00 48.96 LIG 0.17  C 
ATOM     31 OD1  ASP F 803      14.679  -9.593  35.217  1.00 50.04 LIG-0.65  OA
ATOM     32 OD2  ASP F 803      15.596 -11.597  35.143  1.00 49.91 LIG-0.65  OA
ENDBRANCH 29 30
ENDBRANCH 27 29
ENDBRANCH 24 27
ENDBRANCH 22 23
BRANCH 22 33
ATOM     33  CB  LEU F 804      13.572  -9.884  29.218  1.00 43.69 LIG 0.04  C 
BRANCH 33 34
ATOM     34  CG  LEU F 804      14.945 -10.534  29.466  1.00 43.67 LIG-0.02  C 
ATOM     35  CD2 LEU F 804      15.733  -9.706  30.461  1.00 43.56 LIG 0.01  C 
ATOM     36  CD1 LEU F 804      15.754 -10.781  28.194  1.00 44.06 LIG 0.01  C 
ENDBRANCH 33 34
ENDBRANCH 22 33
ENDBRANCH 1 22
TORSDOF 14
ENDMDL
MODEL 84
USER: ADFR SOLUTION from run 57
USER: SCORE 11.627086 LL:  -2.892 LR:  -9.119 RR:   0.000 FEB:  -4.942
USER: RMSD 5.732335
USER: SEED 56
USER: STATUS no improvement in best in 15 clusters for 5 generations
USER: GENES 16
USER: genes 0 Translation |==|  0.55762 0.43162 0.43664
USER: genes 1 Rotation |==|  0.37309 0.17828 0.68307 0.81125
USER: genes 2 Torsion [C]-N--CA-[CB] |==|  0.77558
USER: genes 3 Torsion [N]-CA--CB-[CG] |==|  0.69135
USER: genes 4 Torsion [CA]-CB--CG-[CD2] |==|  0.62237
USER: genes 5 Torsion [CE2]-CZ--OH-[HH] |==|  0.11373
USER: genes 6 Torsion [N]-CA--C-[N] |==|  0.21439
USER: genes 7 Torsion [C]-N--CA-[C] |==|  0.52949
USER: genes 8 Torsion [N]-CA--C-[O] |==|  0.05293
USER: genes 9 Torsion [N]-C--CA-[N] |==|  0.46351
USER: genes 10 Torsion [C]-CA--N-[C] |==|  0.55001
USER: genes 11 Torsion [N]-C--CA-[N] |==|  0.60486
USER: genes 12 Torsion [C]-CA--CB-[CG] |==|  0.73092
USER: genes 13 Torsion [CA]-CB--CG-[OD1] |==|  0.30756
USER: genes 14 Torsion [C]-CA--CB-[CG] |==|  0.24473
USER: genes 15 Torsion [CA]-CB--CG-[CD2] |==|  0.08529
ROOT
ATOM      1  C   LEU F 804      12.710 -12.941  31.494  1.00 42.60 LIG 0.24  C 
ATOM      2 O    LEU F 804      12.167 -12.102  32.221  1.00 42.72 LIG-0.27  OA
ATOM      3  N   TYR F 805      12.619 -12.917  30.163  1.00 41.09 LIG-0.35  N 
ATOM      4 H    TYR F 805      12.831 -13.582  29.660  1.00 41.09 LIG 0.16  HD
ENDROOT
BRANCH 3 5
ATOM      5  CA  TYR F 805      12.140 -11.734  29.425  1.00 40.08 LIG 0.18  C 
BRANCH 5 6
ATOM      6  CB  TYR F 805      10.607 -11.697  29.450  1.00 38.23 LIG 0.07  C 
BRANCH 6 7
ATOM      7  CG  TYR F 805       9.987 -11.957  28.099  1.00 36.43 LIG-0.06  A 
ATOM      8  CD2 TYR F 805       8.928 -11.179  27.641  1.00 35.39 LIG 0.01  A 
ATOM      9  CE2 TYR F 805       8.336 -11.422  26.402  1.00 33.62 LIG 0.04  A 
ATOM     10  CZ  TYR F 805       8.809 -12.447  25.608  1.00 33.40 LIG 0.07  A 
ATOM     11  CE1 TYR F 805       9.869 -13.239  26.036  1.00 31.77 LIG 0.04  A 
ATOM     12  CD1 TYR F 805      10.451 -12.992  27.279  1.00 33.46 LIG 0.01  A 
BRANCH 10 13
ATOM     13 OH   TYR F 805       8.221 -12.668  24.382  1.00 32.97 LIG-0.36  OA
ATOM     14 HH   TYR F 805       8.063 -11.931  24.010  1.00 32.97 LIG 0.22  HD
ENDBRANCH 10 13
ENDBRANCH 6 7
ENDBRANCH 5 6
BRANCH 5 15
ATOM     15  C   TYR F 805      12.701 -10.395  29.941  1.00 40.65 LIG 0.24  C 
ATOM     16 O    TYR F 805      11.997  -9.668  30.646  1.00 41.05 LIG-0.27  OA
ATOM     17  N   GLY F 806      13.959 -10.065  29.611  1.00 41.21 LIG-0.35  N 
ATOM     18 H    GLY F 806      14.300  -9.299  29.798  1.00 41.21 LIG 0.16  HD
BRANCH 17 19
ATOM     19  CA  GLY F 806      14.899 -10.958  28.898  1.00 41.66 LIG 0.21  C 
BRANCH 19 20
ATOM     20  C   GLY F 806      16.346 -10.488  28.844  1.00 41.93 LIG 0.21  C 
ATOM     21 O    GLY F 806      16.779  -9.635  29.634  1.00 42.62 LIG-0.29  OA
ENDBRANCH 19 20
ENDBRANCH 17 19
ENDBRANCH 5 15
ENDBRANCH 3 5
BRANCH 1 22
ATOM     22  CA  LEU F 804      13.534 -14.080  32.123  1.00 43.64 LIG 0.18  C 
BRANCH 22 23
ATOM     23  N   LEU F 804      13.865 -13.916  33.538  1.00 45.07 LIG-0.35  N 
ATOM     24  C   ASP F 803      14.838 -14.608  34.122  1.00 46.18 LIG 0.26  C 
ATOM     25 O    ASP F 803      15.583 -15.374  33.496  1.00 46.48 LIG-0.27  OA
ATOM     26 H    LEU F 804      13.378 -13.338  33.949  1.00 45.07 LIG 0.16  HD
BRANCH 24 27
ATOM     27  CA  ASP F 803      15.003 -14.403  35.638  1.00 46.88 LIG 0.41  C 
ATOM     28  N   ASP F 803      16.432 -14.398  36.059  1.00 47.04 LIG 0.61  N 
BRANCH 27 29
ATOM     29  CB  ASP F 803      14.331 -13.098  36.077  1.00 47.42 LIG 0.16  C 
BRANCH 29 30
ATOM     30  CG  ASP F 803      15.314 -11.931  36.182  1.00 48.96 LIG 0.17  C 
ATOM     31 OD1  ASP F 803      15.214 -11.009  35.338  1.00 50.04 LIG-0.65  OA
ATOM     32 OD2  ASP F 803      16.180 -11.931  37.092  1.00 49.91 LIG-0.65  OA
ENDBRANCH 29 30
ENDBRANCH 27 29
ENDBRANCH 24 27
ENDBRANCH 22 23
BRANCH 22 33
ATOM     33  CB  LEU F 804      12.828 -15.425  31.910  1.00 43.69 LIG 0.04  C 
BRANCH 33 34
ATOM     34  CG  LEU F 804      13.063 -16.276  30.649  1.00 43.67 LIG-0.02  C 
ATOM     35  CD2 LEU F 804      14.472 -16.056  30.137  1.00 43.56 LIG 0.01  C 
ATOM     36  CD1 LEU F 804      12.035 -16.043  29.543  1.00 44.06 LIG 0.01  C 
ENDBRANCH 33 34
ENDBRANCH 22 33
ENDBRANCH 1 22
TORSDOF 14
ENDMDL
MODEL 85
USER: ADFR SOLUTION from run 150
USER: SCORE 11.117285 LL:  -2.760 LR:  -9.124 RR:   0.000 FEB:  -4.947
USER: RMSD 6.336521
USER: SEED 149
USER: STATUS searching
USER: GENES 16
USER: genes 0 Translation |==|  0.64272 0.32439 0.45583
USER: genes 1 Rotation |==|  0.19649 0.81216 0.43371 0.73673
USER: genes 2 Torsion [C]-N--CA-[CB] |==|  0.79009
USER: genes 3 Torsion [N]-CA--CB-[CG] |==|  0.84457
USER: genes 4 Torsion [CA]-CB--CG-[CD2] |==|  0.47517
USER: genes 5 Torsion [CE2]-CZ--OH-[HH] |==|  0.33967
USER: genes 6 Torsion [N]-CA--C-[N] |==|  0.24639
USER: genes 7 Torsion [C]-N--CA-[C] |==|  0.46677
USER: genes 8 Torsion [N]-CA--C-[O] |==|  0.99558
USER: genes 9 Torsion [N]-C--CA-[N] |==|  0.01882
USER: genes 10 Torsion [C]-CA--N-[C] |==|  0.79999
USER: genes 11 Torsion [N]-C--CA-[N] |==|  0.19856
USER: genes 12 Torsion [C]-CA--CB-[CG] |==|  0.76897
USER: genes 13 Torsion [CA]-CB--CG-[OD1] |==|  0.84652
USER: genes 14 Torsion [C]-CA--CB-[CG] |==|  0.39848
USER: genes 15 Torsion [CA]-CB--CG-[CD2] |==|  0.94744
ROOT
ATOM      1  C   LEU F 804      13.987 -15.112  31.840  1.00 42.60 LIG 0.24  C 
ATOM      2 O    LEU F 804      14.527 -15.954  31.114  1.00 42.72 LIG-0.27  OA
ATOM      3  N   TYR F 805      13.183 -14.156  31.370  1.00 41.09 LIG-0.35  N 
ATOM      4 H    TYR F 805      12.949 -13.464  31.826  1.00 41.09 LIG 0.16  HD
ENDROOT
BRANCH 3 5
ATOM      5  CA  TYR F 805      12.614 -14.199  30.010  1.00 40.08 LIG 0.18  C 
BRANCH 5 6
ATOM      6  CB  TYR F 805      13.697 -13.830  28.988  1.00 38.23 LIG 0.07  C 
BRANCH 6 7
ATOM      7  CG  TYR F 805      14.333 -12.489  29.259  1.00 36.43 LIG-0.06  A 
ATOM      8  CD2 TYR F 805      15.455 -12.078  28.547  1.00 35.39 LIG 0.01  A 
ATOM      9  CE2 TYR F 805      16.062 -10.848  28.801  1.00 33.62 LIG 0.04  A 
ATOM     10  CZ  TYR F 805      15.540 -10.016  29.772  1.00 33.40 LIG 0.07  A 
ATOM     11  CE1 TYR F 805      14.416 -10.398  30.498  1.00 31.77 LIG 0.04  A 
ATOM     12  CD1 TYR F 805      13.819 -11.632  30.239  1.00 33.46 LIG 0.01  A 
BRANCH 10 13
ATOM     13 OH   TYR F 805      16.144  -8.800  30.005  1.00 32.97 LIG-0.36  OA
ATOM     14 HH   TYR F 805      15.584  -8.184  29.895  1.00 32.97 LIG 0.22  HD
ENDBRANCH 10 13
ENDBRANCH 6 7
ENDBRANCH 5 6
BRANCH 5 15
ATOM     15  C   TYR F 805      11.979 -15.551  29.631  1.00 40.65 LIG 0.24  C 
ATOM     16 O    TYR F 805      12.666 -16.417  29.085  1.00 41.05 LIG-0.27  OA
ATOM     17  N   GLY F 806      10.684 -15.747  29.923  1.00 41.21 LIG-0.35  N 
ATOM     18 H    GLY F 806      10.253 -16.444  29.665  1.00 41.21 LIG 0.16  HD
BRANCH 17 19
ATOM     19  CA  GLY F 806       9.851 -14.809  30.708  1.00 41.66 LIG 0.21  C 
BRANCH 19 20
ATOM     20  C   GLY F 806       8.353 -15.077  30.684  1.00 41.93 LIG 0.21  C 
ATOM     21 O    GLY F 806       7.873 -16.008  30.020  1.00 42.62 LIG-0.29  OA
ENDBRANCH 19 20
ENDBRANCH 17 19
ENDBRANCH 5 15
ENDBRANCH 3 5
BRANCH 1 22
ATOM     22  CA  LEU F 804      14.235 -15.139  33.359  1.00 43.64 LIG 0.18  C 
BRANCH 22 23
ATOM     23  N   LEU F 804      13.436 -14.201  34.148  1.00 45.07 LIG-0.35  N 
ATOM     24  C   ASP F 803      13.659 -12.891  34.128  1.00 46.18 LIG 0.26  C 
ATOM     25 O    ASP F 803      14.496 -12.366  33.381  1.00 46.48 LIG-0.27  OA
ATOM     26 H    LEU F 804      12.820 -14.573  34.618  1.00 45.07 LIG 0.16  HD
BRANCH 24 27
ATOM     27  CA  ASP F 803      12.805 -12.041  35.086  1.00 46.88 LIG 0.41  C 
ATOM     28  N   ASP F 803      13.195 -12.228  36.512  1.00 47.04 LIG 0.61  N 
BRANCH 27 29
ATOM     29  CB  ASP F 803      12.903 -10.558  34.714  1.00 47.42 LIG 0.16  C 
BRANCH 29 30
ATOM     30  CG  ASP F 803      14.143  -9.881  35.298  1.00 48.96 LIG 0.17  C 
ATOM     31 OD1  ASP F 803      14.316  -9.951  36.538  1.00 50.04 LIG-0.65  OA
ATOM     32 OD2  ASP F 803      14.939  -9.280  34.533  1.00 49.91 LIG-0.65  OA
ENDBRANCH 29 30
ENDBRANCH 27 29
ENDBRANCH 24 27
ENDBRANCH 22 23
BRANCH 22 33
ATOM     33  CB  LEU F 804      14.048 -16.561  33.902  1.00 43.69 LIG 0.04  C 
BRANCH 33 34
ATOM     34  CG  LEU F 804      14.930 -17.123  35.032  1.00 43.67 LIG-0.02  C 
ATOM     35  CD2 LEU F 804      16.200 -16.302  35.148  1.00 43.56 LIG 0.01  C 
ATOM     36  CD1 LEU F 804      15.249 -18.610  34.889  1.00 44.06 LIG 0.01  C 
ENDBRANCH 33 34
ENDBRANCH 22 33
ENDBRANCH 1 22
TORSDOF 14
ENDMDL
MODEL 86
USER: ADFR SOLUTION from run 180
USER: SCORE 11.564843 LL:  -2.655 LR:  -9.113 RR:   0.000 FEB:  -4.937
USER: RMSD 7.423331
USER: SEED 179
USER: STATUS no improvement in best in 21 clusters for 5 generations
USER: GENES 16
USER: genes 0 Translation |==|  0.58556 0.42568 0.34542
USER: genes 1 Rotation |==|  0.96146 0.40620 0.34342 0.56115
USER: genes 2 Torsion [C]-N--CA-[CB] |==|  0.80586
USER: genes 3 Torsion [N]-CA--CB-[CG] |==|  0.95789
USER: genes 4 Torsion [CA]-CB--CG-[CD2] |==|  0.83405
USER: genes 5 Torsion [CE2]-CZ--OH-[HH] |==|  0.34988
USER: genes 6 Torsion [N]-CA--C-[N] |==|  0.39938
USER: genes 7 Torsion [C]-N--CA-[C] |==|  0.45361
USER: genes 8 Torsion [N]-CA--C-[O] |==|  0.87930
USER: genes 9 Torsion [N]-C--CA-[N] |==|  0.08033
USER: genes 10 Torsion [C]-CA--N-[C] |==|  0.69204
USER: genes 11 Torsion [N]-C--CA-[N] |==|  0.86553
USER: genes 12 Torsion [C]-CA--CB-[CG] |==|  0.66354
USER: genes 13 Torsion [CA]-CB--CG-[OD1] |==|  0.69039
USER: genes 14 Torsion [C]-CA--CB-[CG] |==|  0.45808
USER: genes 15 Torsion [CA]-CB--CG-[CD2] |==|  0.49811
ROOT
ATOM      1  C   LEU F 804      13.129 -13.061  29.853  1.00 42.60 LIG 0.24  C 
ATOM      2 O    LEU F 804      13.704 -13.601  28.901  1.00 42.72 LIG-0.27  OA
ATOM      3  N   TYR F 805      12.241 -13.696  30.620  1.00 41.09 LIG-0.35  N 
ATOM      4 H    TYR F 805      11.706 -13.293  31.161  1.00 41.09 LIG 0.16  HD
ENDROOT
BRANCH 3 5
ATOM      5  CA  TYR F 805      12.094 -15.163  30.611  1.00 40.08 LIG 0.18  C 
BRANCH 5 6
ATOM      6  CB  TYR F 805      11.479 -15.611  29.279  1.00 38.23 LIG 0.07  C 
BRANCH 6 7
ATOM      7  CG  TYR F 805      10.860 -14.474  28.503  1.00 36.43 LIG-0.06  A 
ATOM      8  CD2 TYR F 805       9.823 -13.724  29.047  1.00 35.39 LIG 0.01  A 
ATOM      9  CE2 TYR F 805       9.231 -12.682  28.332  1.00 33.62 LIG 0.04  A 
ATOM     10  CZ  TYR F 805       9.683 -12.384  27.062  1.00 33.40 LIG 0.07  A 
ATOM     11  CE1 TYR F 805      10.721 -13.114  26.492  1.00 31.77 LIG 0.04  A 
ATOM     12  CD1 TYR F 805      11.303 -14.156  27.214  1.00 33.46 LIG 0.01  A 
BRANCH 10 13
ATOM     13 OH   TYR F 805       9.096 -11.346  26.372  1.00 32.97 LIG-0.36  OA
ATOM     14 HH   TYR F 805       9.688 -10.806  26.120  1.00 32.97 LIG 0.22  HD
ENDBRANCH 10 13
ENDBRANCH 6 7
ENDBRANCH 5 6
BRANCH 5 15
ATOM     15  C   TYR F 805      13.405 -15.932  30.864  1.00 40.65 LIG 0.24  C 
ATOM     16 O    TYR F 805      14.468 -15.491  30.420  1.00 41.05 LIG-0.27  OA
ATOM     17  N   GLY F 806      13.347 -17.067  31.578  1.00 41.21 LIG-0.35  N 
ATOM     18 H    GLY F 806      14.027 -17.582  31.683  1.00 41.21 LIG 0.16  HD
BRANCH 17 19
ATOM     19  CA  GLY F 806      12.132 -17.565  32.260  1.00 41.66 LIG 0.21  C 
BRANCH 19 20
ATOM     20  C   GLY F 806      12.160 -19.030  32.673  1.00 41.93 LIG 0.21  C 
ATOM     21 O    GLY F 806      12.594 -19.908  31.911  1.00 42.62 LIG-0.29  OA
ENDBRANCH 19 20
ENDBRANCH 17 19
ENDBRANCH 5 15
ENDBRANCH 3 5
BRANCH 1 22
ATOM     22  CA  LEU F 804      13.428 -11.589  30.193  1.00 43.64 LIG 0.18  C 
BRANCH 22 23
ATOM     23  N   LEU F 804      13.272 -11.220  31.599  1.00 45.07 LIG-0.35  N 
ATOM     24  C   ASP F 803      12.296 -10.420  32.016  1.00 46.18 LIG 0.26  C 
ATOM     25 O    ASP F 803      11.407 -10.001  31.264  1.00 46.48 LIG-0.27  OA
ATOM     26 H    LEU F 804      13.862 -11.565  32.121  1.00 45.07 LIG 0.16  HD
BRANCH 24 27
ATOM     27  CA  ASP F 803      12.319 -10.039  33.507  1.00 46.88 LIG 0.41  C 
ATOM     28  N   ASP F 803      12.501 -11.223  34.394  1.00 47.04 LIG 0.61  N 
BRANCH 27 29
ATOM     29  CB  ASP F 803      13.425  -9.015  33.780  1.00 47.42 LIG 0.16  C 
BRANCH 29 30
ATOM     30  CG  ASP F 803      14.446  -9.504  34.807  1.00 48.96 LIG 0.17  C 
ATOM     31 OD1  ASP F 803      14.471  -8.930  35.922  1.00 50.04 LIG-0.65  OA
ATOM     32 OD2  ASP F 803      15.221 -10.448  34.510  1.00 49.91 LIG-0.65  OA
ENDBRANCH 29 30
ENDBRANCH 27 29
ENDBRANCH 24 27
ENDBRANCH 22 23
BRANCH 22 33
ATOM     33  CB  LEU F 804      14.835 -11.209  29.712  1.00 43.69 LIG 0.04  C 
BRANCH 33 34
ATOM     34  CG  LEU F 804      15.286  -9.741  29.600  1.00 43.67 LIG-0.02  C 
ATOM     35  CD2 LEU F 804      16.721  -9.681  29.117  1.00 43.56 LIG 0.01  C 
ATOM     36  CD1 LEU F 804      15.105  -8.937  30.886  1.00 44.06 LIG 0.01  C 
ENDBRANCH 33 34
ENDBRANCH 22 33
ENDBRANCH 1 22
TORSDOF 14
ENDMDL
MODEL 87
USER: ADFR SOLUTION from run 21
USER: SCORE 11.475059 LL:  -2.965 LR:  -9.109 RR:   0.000 FEB:  -4.932
USER: RMSD 6.870190
USER: SEED 20
USER: STATUS no improvement in best in 18 clusters for 5 generations
USER: GENES 16
USER: genes 0 Translation |==|  0.58279 0.45960 0.37366
USER: genes 1 Rotation |==|  0.04551 0.68695 0.52081 0.58974
USER: genes 2 Torsion [C]-N--CA-[CB] |==|  0.75970
USER: genes 3 Torsion [N]-CA--CB-[CG] |==|  0.79249
USER: genes 4 Torsion [CA]-CB--CG-[CD2] |==|  0.04756
USER: genes 5 Torsion [CE2]-CZ--OH-[HH] |==|  0.77967
USER: genes 6 Torsion [N]-CA--C-[N] |==|  0.26949
USER: genes 7 Torsion [C]-N--CA-[C] |==|  0.20703
USER: genes 8 Torsion [N]-CA--C-[O] |==|  0.92052
USER: genes 9 Torsion [N]-C--CA-[N] |==|  0.24237
USER: genes 10 Torsion [C]-CA--N-[C] |==|  0.79444
USER: genes 11 Torsion [N]-C--CA-[N] |==|  0.88045
USER: genes 12 Torsion [C]-CA--CB-[CG] |==|  0.81910
USER: genes 13 Torsion [CA]-CB--CG-[OD1] |==|  0.40805
USER: genes 14 Torsion [C]-CA--CB-[CG] |==|  0.17845
USER: genes 15 Torsion [CA]-CB--CG-[CD2] |==|  0.05363
ROOT
ATOM      1  C   LEU F 804      13.088 -12.374  30.361  1.00 42.60 LIG 0.24  C 
ATOM      2 O    LEU F 804      13.939 -12.989  29.710  1.00 42.72 LIG-0.27  OA
ATOM      3  N   TYR F 805      11.776 -12.542  30.183  1.00 41.09 LIG-0.35  N 
ATOM      4 H    TYR F 805      11.181 -12.001  30.490  1.00 41.09 LIG 0.16  HD
ENDROOT
BRANCH 3 5
ATOM      5  CA  TYR F 805      11.219 -13.684  29.434  1.00 40.08 LIG 0.18  C 
BRANCH 5 6
ATOM      6  CB  TYR F 805      11.174 -13.346  27.938  1.00 38.23 LIG 0.07  C 
BRANCH 6 7
ATOM      7  CG  TYR F 805      10.067 -12.384  27.583  1.00 36.43 LIG-0.06  A 
ATOM      8  CD2 TYR F 805       9.443 -11.624  28.567  1.00 35.39 LIG 0.01  A 
ATOM      9  CE2 TYR F 805       8.406 -10.745  28.253  1.00 33.62 LIG 0.04  A 
ATOM     10  CZ  TYR F 805       7.992 -10.619  26.942  1.00 33.40 LIG 0.07  A 
ATOM     11  CE1 TYR F 805       8.599 -11.363  25.936  1.00 31.77 LIG 0.04  A 
ATOM     12  CD1 TYR F 805       9.632 -12.242  26.261  1.00 33.46 LIG 0.01  A 
BRANCH 10 13
ATOM     13 OH   TYR F 805       6.974  -9.740  26.646  1.00 32.97 LIG-0.36  OA
ATOM     14 HH   TYR F 805       6.235 -10.091  26.838  1.00 32.97 LIG 0.22  HD
ENDBRANCH 10 13
ENDBRANCH 6 7
ENDBRANCH 5 6
BRANCH 5 15
ATOM     15  C   TYR F 805      11.976 -15.009  29.646  1.00 40.65 LIG 0.24  C 
ATOM     16 O    TYR F 805      12.999 -15.240  28.995  1.00 41.05 LIG-0.27  OA
ATOM     17  N   GLY F 806      11.497 -15.876  30.551  1.00 41.21 LIG-0.35  N 
ATOM     18 H    GLY F 806      11.826 -16.664  30.656  1.00 41.21 LIG 0.16  HD
BRANCH 17 19
ATOM     19  CA  GLY F 806      10.367 -15.594  31.464  1.00 41.66 LIG 0.21  C 
BRANCH 19 20
ATOM     20  C   GLY F 806       8.984 -15.606  30.827  1.00 41.93 LIG 0.21  C 
ATOM     21 O    GLY F 806       8.820 -15.317  29.632  1.00 42.62 LIG-0.29  OA
ENDBRANCH 19 20
ENDBRANCH 17 19
ENDBRANCH 5 15
ENDBRANCH 3 5
BRANCH 1 22
ATOM     22  CA  LEU F 804      13.528 -11.359  31.431  1.00 43.64 LIG 0.18  C 
BRANCH 22 23
ATOM     23  N   LEU F 804      13.648 -11.884  32.791  1.00 45.07 LIG-0.35  N 
ATOM     24  C   ASP F 803      12.585 -12.167  33.536  1.00 46.18 LIG 0.26  C 
ATOM     25 O    ASP F 803      11.426 -12.088  33.107  1.00 46.48 LIG-0.27  OA
ATOM     26 H    LEU F 804      14.459 -11.990  33.058  1.00 45.07 LIG 0.16  HD
BRANCH 24 27
ATOM     27  CA  ASP F 803      12.867 -12.616  34.981  1.00 46.88 LIG 0.41  C 
ATOM     28  N   ASP F 803      13.998 -13.581  35.067  1.00 47.04 LIG 0.61  N 
BRANCH 27 29
ATOM     29  CB  ASP F 803      13.156 -11.402  35.870  1.00 47.42 LIG 0.16  C 
BRANCH 29 30
ATOM     30  CG  ASP F 803      14.439 -10.670  35.475  1.00 48.96 LIG 0.17  C 
ATOM     31 OD1  ASP F 803      14.471  -9.427  35.634  1.00 50.04 LIG-0.65  OA
ATOM     32 OD2  ASP F 803      15.406 -11.322  35.008  1.00 49.91 LIG-0.65  OA
ENDBRANCH 29 30
ENDBRANCH 27 29
ENDBRANCH 24 27
ENDBRANCH 22 23
BRANCH 22 33
ATOM     33  CB  LEU F 804      14.846 -10.690  31.018  1.00 43.69 LIG 0.04  C 
BRANCH 33 34
ATOM     34  CG  LEU F 804      14.946  -9.798  29.767  1.00 43.67 LIG-0.02  C 
ATOM     35  CD2 LEU F 804      13.564  -9.329  29.358  1.00 43.56 LIG 0.01  C 
ATOM     36  CD1 LEU F 804      15.673 -10.453  28.595  1.00 44.06 LIG 0.01  C 
ENDBRANCH 33 34
ENDBRANCH 22 33
ENDBRANCH 1 22
TORSDOF 14
ENDMDL
MODEL 88
USER: ADFR SOLUTION from run 73
USER: SCORE 11.131562 LL:  -2.785 LR:  -9.109 RR:   0.000 FEB:  -4.933
USER: RMSD 8.216808
USER: SEED 72
USER: STATUS no improvement in best in 11 clusters for 5 generations
USER: GENES 16
USER: genes 0 Translation |==|  0.30297 0.53787 0.36784
USER: genes 1 Rotation |==|  0.58753 0.57944 0.15495 0.84200
USER: genes 2 Torsion [C]-N--CA-[CB] |==|  0.82266
USER: genes 3 Torsion [N]-CA--CB-[CG] |==|  0.35159
USER: genes 4 Torsion [CA]-CB--CG-[CD2] |==|  0.23813
USER: genes 5 Torsion [CE2]-CZ--OH-[HH] |==|  0.68472
USER: genes 6 Torsion [N]-CA--C-[N] |==|  0.39996
USER: genes 7 Torsion [C]-N--CA-[C] |==|  0.51988
USER: genes 8 Torsion [N]-CA--C-[O] |==|  0.62678
USER: genes 9 Torsion [N]-C--CA-[N] |==|  0.01239
USER: genes 10 Torsion [C]-CA--N-[C] |==|  0.55556
USER: genes 11 Torsion [N]-C--CA-[N] |==|  0.09908
USER: genes 12 Torsion [C]-CA--CB-[CG] |==|  0.57461
USER: genes 13 Torsion [CA]-CB--CG-[OD1] |==|  0.23606
USER: genes 14 Torsion [C]-CA--CB-[CG] |==|  0.84339
USER: genes 15 Torsion [CA]-CB--CG-[CD2] |==|  0.68213
ROOT
ATOM      1  C   LEU F 804       8.891 -10.789  30.256  1.00 42.60 LIG 0.24  C 
ATOM      2 O    LEU F 804       8.880 -12.017  30.114  1.00 42.72 LIG-0.27  OA
ATOM      3  N   TYR F 805       9.966 -10.114  30.667  1.00 41.09 LIG-0.35  N 
ATOM      4 H    TYR F 805       9.939  -9.299  30.943  1.00 41.09 LIG 0.16  HD
ENDROOT
BRANCH 3 5
ATOM      5  CA  TYR F 805      11.315 -10.710  30.685  1.00 40.08 LIG 0.18  C 
BRANCH 5 6
ATOM      6  CB  TYR F 805      11.346 -11.882  31.676  1.00 38.23 LIG 0.07  C 
BRANCH 6 7
ATOM      7  CG  TYR F 805      11.856 -13.162  31.062  1.00 36.43 LIG-0.06  A 
ATOM      8  CD2 TYR F 805      13.220 -13.429  31.007  1.00 35.39 LIG 0.01  A 
ATOM      9  CE2 TYR F 805      13.705 -14.601  30.425  1.00 33.62 LIG 0.04  A 
ATOM     10  CZ  TYR F 805      12.818 -15.519  29.898  1.00 33.40 LIG 0.07  A 
ATOM     11  CE1 TYR F 805      11.448 -15.281  29.942  1.00 31.77 LIG 0.04  A 
ATOM     12  CD1 TYR F 805      10.974 -14.105  30.521  1.00 33.46 LIG 0.01  A 
BRANCH 10 13
ATOM     13 OH   TYR F 805      13.311 -16.676  29.337  1.00 32.97 LIG-0.36  OA
ATOM     14 HH   TYR F 805      13.158 -16.674  28.511  1.00 32.97 LIG 0.22  HD
ENDBRANCH 10 13
ENDBRANCH 6 7
ENDBRANCH 5 6
BRANCH 5 15
ATOM     15  C   TYR F 805      11.818 -11.181  29.307  1.00 40.65 LIG 0.24  C 
ATOM     16 O    TYR F 805      11.021 -11.661  28.497  1.00 41.05 LIG-0.27  OA
ATOM     17  N   GLY F 806      13.122 -11.040  29.027  1.00 41.21 LIG-0.35  N 
ATOM     18 H    GLY F 806      13.478 -11.357  28.311  1.00 41.21 LIG 0.16  HD
BRANCH 17 19
ATOM     19  CA  GLY F 806      14.094 -10.339  29.894  1.00 41.66 LIG 0.21  C 
BRANCH 19 20
ATOM     20  C   GLY F 806      15.486 -10.149  29.308  1.00 41.93 LIG 0.21  C 
ATOM     21 O    GLY F 806      16.506 -10.386  29.973  1.00 42.62 LIG-0.29  OA
ENDBRANCH 19 20
ENDBRANCH 17 19
ENDBRANCH 5 15
ENDBRANCH 3 5
BRANCH 1 22
ATOM     22  CA  LEU F 804       7.619  -9.973  29.957  1.00 43.64 LIG 0.18  C 
BRANCH 22 23
ATOM     23  N   LEU F 804       7.760  -8.521  30.061  1.00 45.07 LIG-0.35  N 
ATOM     24  C   ASP F 803       6.713  -7.718  30.219  1.00 46.18 LIG 0.26  C 
ATOM     25 O    ASP F 803       5.561  -8.144  30.374  1.00 46.48 LIG-0.27  OA
ATOM     26 H    LEU F 804       8.572  -8.241  30.011  1.00 45.07 LIG 0.16  HD
BRANCH 24 27
ATOM     27  CA  ASP F 803       7.006  -6.207  30.210  1.00 46.88 LIG 0.41  C 
ATOM     28  N   ASP F 803       8.095  -5.845  29.260  1.00 47.04 LIG 0.61  N 
BRANCH 27 29
ATOM     29  CB  ASP F 803       5.738  -5.419  29.867  1.00 47.42 LIG 0.16  C 
BRANCH 29 30
ATOM     30  CG  ASP F 803       6.037  -4.070  29.213  1.00 48.96 LIG 0.17  C 
ATOM     31 OD1  ASP F 803       6.219  -4.053  27.973  1.00 50.04 LIG-0.65  OA
ATOM     32 OD2  ASP F 803       6.095  -3.036  29.924  1.00 49.91 LIG-0.65  OA
ENDBRANCH 29 30
ENDBRANCH 27 29
ENDBRANCH 24 27
ENDBRANCH 22 23
BRANCH 22 33
ATOM     33  CB  LEU F 804       7.066 -10.341  28.575  1.00 43.69 LIG 0.04  C 
BRANCH 33 34
ATOM     34  CG  LEU F 804       7.921 -10.227  27.300  1.00 43.67 LIG-0.02  C 
ATOM     35  CD2 LEU F 804       7.346  -9.160  26.390  1.00 43.56 LIG 0.01  C 
ATOM     36  CD1 LEU F 804       8.101 -11.547  26.553  1.00 44.06 LIG 0.01  C 
ENDBRANCH 33 34
ENDBRANCH 22 33
ENDBRANCH 1 22
TORSDOF 14
ENDMDL
MODEL 89
USER: ADFR SOLUTION from run 108
USER: SCORE 11.822163 LL:  -3.018 LR:  -9.097 RR:   0.000 FEB:  -4.921
USER: RMSD 9.121737
USER: SEED 107
USER: STATUS no improvement in best in 18 clusters for 5 generations
USER: GENES 16
USER: genes 0 Translation |==|  0.74426 0.81536 0.53257
USER: genes 1 Rotation |==|  0.98097 0.40667 0.56879 0.57229
USER: genes 2 Torsion [C]-N--CA-[CB] |==|  0.83223
USER: genes 3 Torsion [N]-CA--CB-[CG] |==|  0.69091
USER: genes 4 Torsion [CA]-CB--CG-[CD2] |==|  0.98470
USER: genes 5 Torsion [CE2]-CZ--OH-[HH] |==|  0.49534
USER: genes 6 Torsion [N]-CA--C-[N] |==|  0.44904
USER: genes 7 Torsion [C]-N--CA-[C] |==|  0.30598
USER: genes 8 Torsion [N]-CA--C-[O] |==|  0.95093
USER: genes 9 Torsion [N]-C--CA-[N] |==|  0.01567
USER: genes 10 Torsion [C]-CA--N-[C] |==|  0.68254
USER: genes 11 Torsion [N]-C--CA-[N] |==|  0.64521
USER: genes 12 Torsion [C]-CA--CB-[CG] |==|  0.75331
USER: genes 13 Torsion [CA]-CB--CG-[OD1] |==|  0.77073
USER: genes 14 Torsion [C]-CA--CB-[CG] |==|  0.32103
USER: genes 15 Torsion [CA]-CB--CG-[CD2] |==|  0.06346
ROOT
ATOM      1  C   LEU F 804      15.510  -5.170  33.221  1.00 42.60 LIG 0.24  C 
ATOM      2 O    LEU F 804      16.632  -5.687  33.188  1.00 42.72 LIG-0.27  OA
ATOM      3  N   TYR F 805      14.381  -5.881  33.186  1.00 41.09 LIG-0.35  N 
ATOM      4 H    TYR F 805      13.608  -5.539  33.025  1.00 41.09 LIG 0.16  HD
ENDROOT
BRANCH 3 5
ATOM      5  CA  TYR F 805      14.356  -7.337  33.422  1.00 40.08 LIG 0.18  C 
BRANCH 5 6
ATOM      6  CB  TYR F 805      15.221  -8.043  32.370  1.00 38.23 LIG 0.07  C 
BRANCH 6 7
ATOM      7  CG  TYR F 805      14.414  -8.869  31.399  1.00 36.43 LIG-0.06  A 
ATOM      8  CD2 TYR F 805      13.043  -9.030  31.571  1.00 35.39 LIG 0.01  A 
ATOM      9  CE2 TYR F 805      12.289  -9.805  30.689  1.00 33.62 LIG 0.04  A 
ATOM     10  CZ  TYR F 805      12.910 -10.422  29.621  1.00 33.40 LIG 0.07  A 
ATOM     11  CE1 TYR F 805      14.278 -10.276  29.420  1.00 31.77 LIG 0.04  A 
ATOM     12  CD1 TYR F 805      15.023  -9.502  30.309  1.00 33.46 LIG 0.01  A 
BRANCH 10 13
ATOM     13 OH   TYR F 805      12.151 -11.176  28.753  1.00 32.97 LIG-0.36  OA
ATOM     14 HH   TYR F 805      12.640 -11.474  28.139  1.00 32.97 LIG 0.22  HD
ENDBRANCH 10 13
ENDBRANCH 6 7
ENDBRANCH 5 6
BRANCH 5 15
ATOM     15  C   TYR F 805      14.806  -7.757  34.834  1.00 40.65 LIG 0.24  C 
ATOM     16 O    TYR F 805      15.447  -6.968  35.531  1.00 41.05 LIG-0.27  OA
ATOM     17  N   GLY F 806      14.471  -8.982  35.268  1.00 41.21 LIG-0.35  N 
ATOM     18 H    GLY F 806      14.761  -9.305  36.010  1.00 41.21 LIG 0.16  HD
BRANCH 17 19
ATOM     19  CA  GLY F 806      13.580  -9.913  34.540  1.00 41.66 LIG 0.21  C 
BRANCH 19 20
ATOM     20  C   GLY F 806      14.253 -11.144  33.947  1.00 41.93 LIG 0.21  C 
ATOM     21 O    GLY F 806      15.481 -11.194  33.784  1.00 42.62 LIG-0.29  OA
ENDBRANCH 19 20
ENDBRANCH 17 19
ENDBRANCH 5 15
ENDBRANCH 3 5
BRANCH 1 22
ATOM     22  CA  LEU F 804      15.374  -3.638  33.303  1.00 43.64 LIG 0.18  C 
BRANCH 22 23
ATOM     23  N   LEU F 804      14.011  -3.131  33.464  1.00 45.07 LIG-0.35  N 
ATOM     24  C   ASP F 803      13.412  -2.407  32.525  1.00 46.18 LIG 0.26  C 
ATOM     25 O    ASP F 803      13.927  -2.182  31.422  1.00 46.48 LIG-0.27  OA
ATOM     26 H    LEU F 804      13.642  -3.343  34.210  1.00 45.07 LIG 0.16  HD
BRANCH 24 27
ATOM     27  CA  ASP F 803      12.017  -1.858  32.876  1.00 46.88 LIG 0.41  C 
ATOM     28  N   ASP F 803      10.997  -2.193  31.843  1.00 47.04 LIG 0.61  N 
BRANCH 27 29
ATOM     29  CB  ASP F 803      11.564  -2.387  34.241  1.00 47.42 LIG 0.16  C 
BRANCH 29 30
ATOM     30  CG  ASP F 803      10.818  -3.718  34.142  1.00 48.96 LIG 0.17  C 
ATOM     31 OD1  ASP F 803       9.598  -3.681  33.855  1.00 50.04 LIG-0.65  OA
ATOM     32 OD2  ASP F 803      11.436  -4.792  34.352  1.00 49.91 LIG-0.65  OA
ENDBRANCH 29 30
ENDBRANCH 27 29
ENDBRANCH 24 27
ENDBRANCH 22 23
BRANCH 22 33
ATOM     33  CB  LEU F 804      16.266  -3.086  34.423  1.00 43.69 LIG 0.04  C 
BRANCH 33 34
ATOM     34  CG  LEU F 804      17.452  -2.150  34.130  1.00 43.67 LIG-0.02  C 
ATOM     35  CD2 LEU F 804      17.245  -1.460  32.797  1.00 43.56 LIG 0.01  C 
ATOM     36  CD1 LEU F 804      18.814  -2.840  34.184  1.00 44.06 LIG 0.01  C 
ENDBRANCH 33 34
ENDBRANCH 22 33
ENDBRANCH 1 22
TORSDOF 14
ENDMDL
MODEL 90
USER: ADFR SOLUTION from run 75
USER: SCORE 11.265070 LL:  -2.222 LR:  -9.086 RR:   0.000 FEB:  -4.910
USER: RMSD 5.072238
USER: SEED 74
USER: STATUS no improvement in best in 13 clusters for 5 generations
USER: GENES 16
USER: genes 0 Translation |==|  0.52819 0.32566 0.41258
USER: genes 1 Rotation |==|  0.43668 0.95665 0.53156 0.69097
USER: genes 2 Torsion [C]-N--CA-[CB] |==|  0.83421
USER: genes 3 Torsion [N]-CA--CB-[CG] |==|  0.74294
USER: genes 4 Torsion [CA]-CB--CG-[CD2] |==|  0.83574
USER: genes 5 Torsion [CE2]-CZ--OH-[HH] |==|  0.78363
USER: genes 6 Torsion [N]-CA--C-[N] |==|  0.37333
USER: genes 7 Torsion [C]-N--CA-[C] |==|  0.58116
USER: genes 8 Torsion [N]-CA--C-[O] |==|  0.84778
USER: genes 9 Torsion [N]-C--CA-[N] |==|  0.96666
USER: genes 10 Torsion [C]-CA--N-[C] |==|  0.81785
USER: genes 11 Torsion [N]-C--CA-[N] |==|  0.82157
USER: genes 12 Torsion [C]-CA--CB-[CG] |==|  0.32024
USER: genes 13 Torsion [CA]-CB--CG-[OD1] |==|  0.63450
USER: genes 14 Torsion [C]-CA--CB-[CG] |==|  0.47924
USER: genes 15 Torsion [CA]-CB--CG-[CD2] |==|  0.91590
ROOT
ATOM      1  C   LEU F 804      12.269 -15.086  31.061  1.00 42.60 LIG 0.24  C 
ATOM      2 O    LEU F 804      11.784 -15.202  29.931  1.00 42.72 LIG-0.27  OA
ATOM      3  N   TYR F 805      12.524 -13.904  31.626  1.00 41.09 LIG-0.35  N 
ATOM      4 H    TYR F 805      13.020 -13.806  32.322  1.00 41.09 LIG 0.16  HD
ENDROOT
BRANCH 3 5
ATOM      5  CA  TYR F 805      11.969 -12.642  31.102  1.00 40.08 LIG 0.18  C 
BRANCH 5 6
ATOM      6  CB  TYR F 805      12.438 -12.436  29.655  1.00 38.23 LIG 0.07  C 
BRANCH 6 7
ATOM      7  CG  TYR F 805      13.704 -11.623  29.554  1.00 36.43 LIG-0.06  A 
ATOM      8  CD2 TYR F 805      13.760 -10.328  30.059  1.00 35.39 LIG 0.01  A 
ATOM      9  CE2 TYR F 805      14.920  -9.560  29.955  1.00 33.62 LIG 0.04  A 
ATOM     10  CZ  TYR F 805      16.039 -10.093  29.346  1.00 33.40 LIG 0.07  A 
ATOM     11  CE1 TYR F 805      16.015 -11.386  28.834  1.00 31.77 LIG 0.04  A 
ATOM     12  CD1 TYR F 805      14.849 -12.144  28.939  1.00 33.46 LIG 0.01  A 
BRANCH 10 13
ATOM     13 OH   TYR F 805      17.180  -9.326  29.260  1.00 32.97 LIG-0.36  OA
ATOM     14 HH   TYR F 805      17.096  -8.767  28.639  1.00 32.97 LIG 0.22  HD
ENDBRANCH 10 13
ENDBRANCH 6 7
ENDBRANCH 5 6
BRANCH 5 15
ATOM     15  C   TYR F 805      10.433 -12.548  31.170  1.00 40.65 LIG 0.24  C 
ATOM     16 O    TYR F 805       9.746 -13.509  30.817  1.00 41.05 LIG-0.27  OA
ATOM     17  N   GLY F 806       9.888 -11.411  31.629  1.00 41.21 LIG-0.35  N 
ATOM     18 H    GLY F 806       9.040 -11.266  31.614  1.00 41.21 LIG 0.16  HD
BRANCH 17 19
ATOM     19  CA  GLY F 806      10.657 -10.286  32.204  1.00 41.66 LIG 0.21  C 
BRANCH 19 20
ATOM     20  C   GLY F 806       9.927  -9.451  33.247  1.00 41.93 LIG 0.21  C 
ATOM     21 O    GLY F 806       8.828  -8.928  33.003  1.00 42.62 LIG-0.29  OA
ENDBRANCH 19 20
ENDBRANCH 17 19
ENDBRANCH 5 15
ENDBRANCH 3 5
BRANCH 1 22
ATOM     22  CA  LEU F 804      12.609 -16.345  31.881  1.00 43.64 LIG 0.18  C 
BRANCH 22 23
ATOM     23  N   LEU F 804      13.423 -16.122  33.075  1.00 45.07 LIG-0.35  N 
ATOM     24  C   ASP F 803      14.678 -15.691  33.005  1.00 46.18 LIG 0.26  C 
ATOM     25 O    ASP F 803      15.216 -15.368  31.938  1.00 46.48 LIG-0.27  OA
ATOM     26 H    LEU F 804      13.019 -16.294  33.814  1.00 45.07 LIG 0.16  HD
BRANCH 24 27
ATOM     27  CA  ASP F 803      15.442 -15.600  34.338  1.00 46.88 LIG 0.41  C 
ATOM     28  N   ASP F 803      14.848 -14.599  35.268  1.00 47.04 LIG 0.61  N 
BRANCH 27 29
ATOM     29  CB  ASP F 803      15.491 -16.972  35.019  1.00 47.42 LIG 0.16  C 
BRANCH 29 30
ATOM     30  CG  ASP F 803      16.912 -17.527  35.133  1.00 48.96 LIG 0.17  C 
ATOM     31 OD1  ASP F 803      17.104 -18.711  34.769  1.00 50.04 LIG-0.65  OA
ATOM     32 OD2  ASP F 803      17.829 -16.795  35.582  1.00 49.91 LIG-0.65  OA
ENDBRANCH 29 30
ENDBRANCH 27 29
ENDBRANCH 24 27
ENDBRANCH 22 23
BRANCH 22 33
ATOM     33  CB  LEU F 804      11.324 -17.092  32.263  1.00 43.69 LIG 0.04  C 
BRANCH 33 34
ATOM     34  CG  LEU F 804      11.359 -18.475  32.938  1.00 43.67 LIG-0.02  C 
ATOM     35  CD2 LEU F 804      12.593 -19.234  32.492  1.00 43.56 LIG 0.01  C 
ATOM     36  CD1 LEU F 804      10.095 -19.304  32.719  1.00 44.06 LIG 0.01  C 
ENDBRANCH 33 34
ENDBRANCH 22 33
ENDBRANCH 1 22
TORSDOF 14
ENDMDL
MODEL 91
USER: ADFR SOLUTION from run 148
USER: SCORE 11.150452 LL:  -2.724 LR:  -9.078 RR:   0.000 FEB:  -4.902
USER: RMSD 8.131373
USER: SEED 147
USER: STATUS no improvement in best in 12 clusters for 5 generations
USER: GENES 16
USER: genes 0 Translation |==|  0.69281 0.24958 0.57165
USER: genes 1 Rotation |==|  0.92767 0.57019 0.65567 0.69478
USER: genes 2 Torsion [C]-N--CA-[CB] |==|  0.53889
USER: genes 3 Torsion [N]-CA--CB-[CG] |==|  0.95572
USER: genes 4 Torsion [CA]-CB--CG-[CD2] |==|  0.72755
USER: genes 5 Torsion [CE2]-CZ--OH-[HH] |==|  0.73451
USER: genes 6 Torsion [N]-CA--C-[N] |==|  0.28845
USER: genes 7 Torsion [C]-N--CA-[C] |==|  0.55522
USER: genes 8 Torsion [N]-CA--C-[O] |==|  0.99971
USER: genes 9 Torsion [N]-C--CA-[N] |==|  0.04231
USER: genes 10 Torsion [C]-CA--N-[C] |==|  0.72634
USER: genes 11 Torsion [N]-C--CA-[N] |==|  0.89043
USER: genes 12 Torsion [C]-CA--CB-[CG] |==|  0.32744
USER: genes 13 Torsion [CA]-CB--CG-[OD1] |==|  0.10924
USER: genes 14 Torsion [C]-CA--CB-[CG] |==|  0.50815
USER: genes 15 Torsion [CA]-CB--CG-[CD2] |==|  0.88079
ROOT
ATOM      1  C   LEU F 804      14.738 -16.627  33.925  1.00 42.60 LIG 0.24  C 
ATOM      2 O    LEU F 804      15.905 -16.325  34.197  1.00 42.72 LIG-0.27  OA
ATOM      3  N   TYR F 805      14.147 -17.732  34.384  1.00 41.09 LIG-0.35  N 
ATOM      4 H    TYR F 805      13.413 -18.047  34.065  1.00 41.09 LIG 0.16  HD
ENDROOT
BRANCH 3 5
ATOM      5  CA  TYR F 805      14.706 -18.522  35.498  1.00 40.08 LIG 0.18  C 
BRANCH 5 6
ATOM      6  CB  TYR F 805      14.010 -19.888  35.558  1.00 38.23 LIG 0.07  C 
BRANCH 6 7
ATOM      7  CG  TYR F 805      12.726 -19.933  34.766  1.00 36.43 LIG-0.06  A 
ATOM      8  CD2 TYR F 805      11.497 -19.765  35.395  1.00 35.39 LIG 0.01  A 
ATOM      9  CE2 TYR F 805      10.303 -19.823  34.675  1.00 33.62 LIG 0.04  A 
ATOM     10  CZ  TYR F 805      10.337 -20.044  33.313  1.00 33.40 LIG 0.07  A 
ATOM     11  CE1 TYR F 805      11.551 -20.212  32.656  1.00 31.77 LIG 0.04  A 
ATOM     12  CD1 TYR F 805      12.739 -20.157  33.384  1.00 33.46 LIG 0.01  A 
BRANCH 10 13
ATOM     13 OH   TYR F 805       9.150 -20.088  32.615  1.00 32.97 LIG-0.36  OA
ATOM     14 HH   TYR F 805       8.903 -20.887  32.532  1.00 32.97 LIG 0.22  HD
ENDBRANCH 10 13
ENDBRANCH 6 7
ENDBRANCH 5 6
BRANCH 5 15
ATOM     15  C   TYR F 805      16.232 -18.718  35.432  1.00 40.65 LIG 0.24  C 
ATOM     16 O    TYR F 805      16.711 -19.524  34.630  1.00 41.05 LIG-0.27  OA
ATOM     17  N   GLY F 806      17.001 -17.986  36.253  1.00 41.21 LIG-0.35  N 
ATOM     18 H    GLY F 806      17.850 -18.108  36.321  1.00 41.21 LIG 0.16  HD
BRANCH 17 19
ATOM     19  CA  GLY F 806      16.499 -16.902  37.125  1.00 41.66 LIG 0.21  C 
BRANCH 19 20
ATOM     20  C   GLY F 806      17.544 -15.905  37.607  1.00 41.93 LIG 0.21  C 
ATOM     21 O    GLY F 806      18.736 -16.010  37.283  1.00 42.62 LIG-0.29  OA
ENDBRANCH 19 20
ENDBRANCH 17 19
ENDBRANCH 5 15
ENDBRANCH 3 5
BRANCH 1 22
ATOM     22  CA  LEU F 804      13.903 -15.710  33.013  1.00 43.64 LIG 0.18  C 
BRANCH 22 23
ATOM     23  N   LEU F 804      12.460 -15.953  33.021  1.00 45.07 LIG-0.35  N 
ATOM     24  C   ASP F 803      11.858 -16.671  32.079  1.00 46.18 LIG 0.26  C 
ATOM     25 O    ASP F 803      12.481 -17.253  31.181  1.00 46.48 LIG-0.27  OA
ATOM     26 H    LEU F 804      12.046 -15.592  33.683  1.00 45.07 LIG 0.16  HD
BRANCH 24 27
ATOM     27  CA  ASP F 803      10.324 -16.756  32.164  1.00 46.88 LIG 0.41  C 
ATOM     28  N   ASP F 803       9.838 -16.888  33.567  1.00 47.04 LIG 0.61  N 
BRANCH 27 29
ATOM     29  CB  ASP F 803       9.685 -15.527  31.511  1.00 47.42 LIG 0.16  C 
BRANCH 29 30
ATOM     30  CG  ASP F 803       8.810 -15.882  30.307  1.00 48.96 LIG 0.17  C 
ATOM     31 OD1  ASP F 803       8.102 -16.914  30.387  1.00 50.04 LIG-0.65  OA
ATOM     32 OD2  ASP F 803       8.829 -15.146  29.289  1.00 49.91 LIG-0.65  OA
ENDBRANCH 29 30
ENDBRANCH 27 29
ENDBRANCH 24 27
ENDBRANCH 22 23
BRANCH 22 33
ATOM     33  CB  LEU F 804      14.181 -14.238  33.342  1.00 43.69 LIG 0.04  C 
BRANCH 33 34
ATOM     34  CG  LEU F 804      13.436 -13.091  32.634  1.00 43.67 LIG-0.02  C 
ATOM     35  CD2 LEU F 804      13.338 -13.382  31.150  1.00 43.56 LIG 0.01  C 
ATOM     36  CD1 LEU F 804      14.040 -11.711  32.884  1.00 44.06 LIG 0.01  C 
ENDBRANCH 33 34
ENDBRANCH 22 33
ENDBRANCH 1 22
TORSDOF 14
ENDMDL
MODEL 92
USER: ADFR SOLUTION from run 166
USER: SCORE 11.096401 LL:  -2.907 LR:  -9.081 RR:   0.000 FEB:  -4.905
USER: RMSD 5.955937
USER: SEED 165
USER: STATUS no improvement in best in 21 clusters for 5 generations
USER: GENES 16
USER: genes 0 Translation |==|  0.67807 0.51785 0.53267
USER: genes 1 Rotation |==|  0.16166 0.48038 0.51470 0.86732
USER: genes 2 Torsion [C]-N--CA-[CB] |==|  0.48333
USER: genes 3 Torsion [N]-CA--CB-[CG] |==|  0.81154
USER: genes 4 Torsion [CA]-CB--CG-[CD2] |==|  0.43841
USER: genes 5 Torsion [CE2]-CZ--OH-[HH] |==|  0.41617
USER: genes 6 Torsion [N]-CA--C-[N] |==|  0.39697
USER: genes 7 Torsion [C]-N--CA-[C] |==|  0.19234
USER: genes 8 Torsion [N]-CA--C-[O] |==|  0.65622
USER: genes 9 Torsion [N]-C--CA-[N] |==|  0.36050
USER: genes 10 Torsion [C]-CA--N-[C] |==|  0.77037
USER: genes 11 Torsion [N]-C--CA-[N] |==|  0.19008
USER: genes 12 Torsion [C]-CA--CB-[CG] |==|  0.50726
USER: genes 13 Torsion [CA]-CB--CG-[OD1] |==|  0.50228
USER: genes 14 Torsion [C]-CA--CB-[CG] |==|  0.03703
USER: genes 15 Torsion [CA]-CB--CG-[CD2] |==|  0.55364
ROOT
ATOM      1  C   LEU F 804      14.517 -11.195  33.223  1.00 42.60 LIG 0.24  C 
ATOM      2 O    LEU F 804      15.625 -10.649  33.275  1.00 42.72 LIG-0.27  OA
ATOM      3  N   TYR F 805      13.737 -11.154  32.141  1.00 41.09 LIG-0.35  N 
ATOM      4 H    TYR F 805      12.903 -11.365  32.147  1.00 41.09 LIG 0.16  HD
ENDROOT
BRANCH 3 5
ATOM      5  CA  TYR F 805      14.241 -10.737  30.819  1.00 40.08 LIG 0.18  C 
BRANCH 5 6
ATOM      6  CB  TYR F 805      13.145 -10.940  29.764  1.00 38.23 LIG 0.07  C 
BRANCH 6 7
ATOM      7  CG  TYR F 805      12.828 -12.394  29.514  1.00 36.43 LIG-0.06  A 
ATOM      8  CD2 TYR F 805      11.604 -12.771  28.970  1.00 35.39 LIG 0.01  A 
ATOM      9  CE2 TYR F 805      11.293 -14.114  28.752  1.00 33.62 LIG 0.04  A 
ATOM     10  CZ  TYR F 805      12.215 -15.089  29.074  1.00 33.40 LIG 0.07  A 
ATOM     11  CE1 TYR F 805      13.449 -14.743  29.615  1.00 31.77 LIG 0.04  A 
ATOM     12  CD1 TYR F 805      13.749 -13.399  29.834  1.00 33.46 LIG 0.01  A 
BRANCH 10 13
ATOM     13 OH   TYR F 805      11.898 -16.410  28.843  1.00 32.97 LIG-0.36  OA
ATOM     14 HH   TYR F 805      12.599 -16.842  28.676  1.00 32.97 LIG 0.22  HD
ENDBRANCH 10 13
ENDBRANCH 6 7
ENDBRANCH 5 6
BRANCH 5 15
ATOM     15  C   TYR F 805      14.752  -9.285  30.764  1.00 40.65 LIG 0.24  C 
ATOM     16 O    TYR F 805      14.178  -8.410  31.416  1.00 41.05 LIG-0.27  OA
ATOM     17  N   GLY F 806      15.828  -9.020  30.008  1.00 41.21 LIG-0.35  N 
ATOM     18 H    GLY F 806      16.112  -8.220  29.872  1.00 41.21 LIG 0.16  HD
BRANCH 17 19
ATOM     19  CA  GLY F 806      16.646 -10.047  29.326  1.00 41.66 LIG 0.21  C 
BRANCH 19 20
ATOM     20  C   GLY F 806      15.973 -10.765  28.165  1.00 41.93 LIG 0.21  C 
ATOM     21 O    GLY F 806      15.867 -12.000  28.141  1.00 42.62 LIG-0.29  OA
ENDBRANCH 19 20
ENDBRANCH 17 19
ENDBRANCH 5 15
ENDBRANCH 3 5
BRANCH 1 22
ATOM     22  CA  LEU F 804      13.982 -11.961  34.447  1.00 43.64 LIG 0.18  C 
BRANCH 22 23
ATOM     23  N   LEU F 804      14.899 -12.940  35.031  1.00 45.07 LIG-0.35  N 
ATOM     24  C   ASP F 803      15.029 -14.168  34.541  1.00 46.18 LIG 0.26  C 
ATOM     25 O    ASP F 803      14.451 -14.543  33.512  1.00 46.48 LIG-0.27  OA
ATOM     26 H    LEU F 804      15.338 -12.649  35.710  1.00 45.07 LIG 0.16  HD
BRANCH 24 27
ATOM     27  CA  ASP F 803      15.955 -15.118  35.321  1.00 46.88 LIG 0.41  C 
ATOM     28  N   ASP F 803      15.399 -15.489  36.652  1.00 47.04 LIG 0.61  N 
BRANCH 27 29
ATOM     29  CB  ASP F 803      16.230 -16.385  34.505  1.00 47.42 LIG 0.16  C 
BRANCH 29 30
ATOM     30  CG  ASP F 803      17.096 -17.398  35.256  1.00 48.96 LIG 0.17  C 
ATOM     31 OD1  ASP F 803      17.390 -18.463  34.665  1.00 50.04 LIG-0.65  OA
ATOM     32 OD2  ASP F 803      17.478 -17.140  36.425  1.00 49.91 LIG-0.65  OA
ENDBRANCH 29 30
ENDBRANCH 27 29
ENDBRANCH 24 27
ENDBRANCH 22 23
BRANCH 22 33
ATOM     33  CB  LEU F 804      13.519 -10.977  35.529  1.00 43.69 LIG 0.04  C 
BRANCH 33 34
ATOM     34  CG  LEU F 804      13.327  -9.478  35.235  1.00 43.67 LIG-0.02  C 
ATOM     35  CD2 LEU F 804      13.338  -8.695  36.533  1.00 43.56 LIG 0.01  C 
ATOM     36  CD1 LEU F 804      12.078  -9.162  34.414  1.00 44.06 LIG 0.01  C 
ENDBRANCH 33 34
ENDBRANCH 22 33
ENDBRANCH 1 22
TORSDOF 14
ENDMDL
MODEL 93
USER: ADFR SOLUTION from run 182
USER: SCORE 11.601273 LL:  -2.879 LR:  -9.078 RR:   0.000 FEB:  -4.902
USER: RMSD 7.669537
USER: SEED 181
USER: STATUS no improvement in best in 10 clusters for 5 generations
USER: GENES 16
USER: genes 0 Translation |==|  0.37809 0.16182 0.53364
USER: genes 1 Rotation |==|  0.42250 0.95186 0.41072 0.67845
USER: genes 2 Torsion [C]-N--CA-[CB] |==|  0.74566
USER: genes 3 Torsion [N]-CA--CB-[CG] |==|  0.59574
USER: genes 4 Torsion [CA]-CB--CG-[CD2] |==|  0.77132
USER: genes 5 Torsion [CE2]-CZ--OH-[HH] |==|  0.78598
USER: genes 6 Torsion [N]-CA--C-[N] |==|  0.18094
USER: genes 7 Torsion [C]-N--CA-[C] |==|  0.53229
USER: genes 8 Torsion [N]-CA--C-[O] |==|  0.06064
USER: genes 9 Torsion [N]-C--CA-[N] |==|  0.88484
USER: genes 10 Torsion [C]-CA--N-[C] |==|  0.82222
USER: genes 11 Torsion [N]-C--CA-[N] |==|  0.30591
USER: genes 12 Torsion [C]-CA--CB-[CG] |==|  0.60222
USER: genes 13 Torsion [CA]-CB--CG-[OD1] |==|  0.67911
USER: genes 14 Torsion [C]-CA--CB-[CG] |==|  0.28673
USER: genes 15 Torsion [CA]-CB--CG-[CD2] |==|  0.94911
ROOT
ATOM      1  C   LEU F 804      10.017 -18.404  33.241  1.00 42.60 LIG 0.24  C 
ATOM      2 O    LEU F 804       9.517 -18.964  32.259  1.00 42.72 LIG-0.27  OA
ATOM      3  N   TYR F 805      10.426 -17.133  33.222  1.00 41.09 LIG-0.35  N 
ATOM      4 H    TYR F 805      10.934 -16.788  33.825  1.00 41.09 LIG 0.16  HD
ENDROOT
BRANCH 3 5
ATOM      5  CA  TYR F 805      10.037 -16.194  32.154  1.00 40.08 LIG 0.18  C 
BRANCH 5 6
ATOM      6  CB  TYR F 805      11.088 -16.223  31.036  1.00 38.23 LIG 0.07  C 
BRANCH 6 7
ATOM      7  CG  TYR F 805      11.293 -14.879  30.382  1.00 36.43 LIG-0.06  A 
ATOM      8  CD2 TYR F 805      10.433 -14.438  29.381  1.00 35.39 LIG 0.01  A 
ATOM      9  CE2 TYR F 805      10.623 -13.205  28.757  1.00 33.62 LIG 0.04  A 
ATOM     10  CZ  TYR F 805      11.679 -12.401  29.139  1.00 33.40 LIG 0.07  A 
ATOM     11  CE1 TYR F 805      12.553 -12.814  30.139  1.00 31.77 LIG 0.04  A 
ATOM     12  CD1 TYR F 805      12.357 -14.050  30.754  1.00 33.46 LIG 0.01  A 
BRANCH 10 13
ATOM     13 OH   TYR F 805      11.847 -11.182  28.520  1.00 32.97 LIG-0.36  OA
ATOM     14 HH   TYR F 805      12.185 -11.298  27.760  1.00 32.97 LIG 0.22  HD
ENDBRANCH 10 13
ENDBRANCH 6 7
ENDBRANCH 5 6
BRANCH 5 15
ATOM     15  C   TYR F 805       8.639 -16.452  31.561  1.00 40.65 LIG 0.24  C 
ATOM     16 O    TYR F 805       8.531 -16.808  30.385  1.00 41.05 LIG-0.27  OA
ATOM     17  N   GLY F 806       7.572 -16.288  32.358  1.00 41.21 LIG-0.35  N 
ATOM     18 H    GLY F 806       6.765 -16.337  32.065  1.00 41.21 LIG 0.16  HD
BRANCH 17 19
ATOM     19  CA  GLY F 806       7.646 -16.009  33.809  1.00 41.66 LIG 0.21  C 
BRANCH 19 20
ATOM     20  C   GLY F 806       6.335 -16.131  34.573  1.00 41.93 LIG 0.21  C 
ATOM     21 O    GLY F 806       5.392 -16.807  34.134  1.00 42.62 LIG-0.29  OA
ENDBRANCH 19 20
ENDBRANCH 17 19
ENDBRANCH 5 15
ENDBRANCH 3 5
BRANCH 1 22
ATOM     22  CA  LEU F 804      10.195 -19.181  34.558  1.00 43.64 LIG 0.18  C 
BRANCH 22 23
ATOM     23  N   LEU F 804      11.459 -18.957  35.260  1.00 45.07 LIG-0.35  N 
ATOM     24  C   ASP F 803      12.629 -19.304  34.736  1.00 46.18 LIG 0.26  C 
ATOM     25 O    ASP F 803      12.741 -19.761  33.591  1.00 46.48 LIG-0.27  OA
ATOM     26 H    LEU F 804      11.372 -18.586  36.031  1.00 45.07 LIG 0.16  HD
BRANCH 24 27
ATOM     27  CA  ASP F 803      13.863 -19.100  35.633  1.00 46.88 LIG 0.41  C 
ATOM     28  N   ASP F 803      14.454 -20.389  36.091  1.00 47.04 LIG 0.61  N 
BRANCH 27 29
ATOM     29  CB  ASP F 803      14.927 -18.277  34.899  1.00 47.42 LIG 0.16  C 
BRANCH 29 30
ATOM     30  CG  ASP F 803      16.352 -18.735  35.213  1.00 48.96 LIG 0.17  C 
ATOM     31 OD1  ASP F 803      17.102 -17.929  35.812  1.00 50.04 LIG-0.65  OA
ATOM     32 OD2  ASP F 803      16.725 -19.883  34.864  1.00 49.91 LIG-0.65  OA
ENDBRANCH 29 30
ENDBRANCH 27 29
ENDBRANCH 24 27
ENDBRANCH 22 23
BRANCH 22 33
ATOM     33  CB  LEU F 804       9.021 -18.896  35.504  1.00 43.69 LIG 0.04  C 
BRANCH 33 34
ATOM     34  CG  LEU F 804       7.883 -19.910  35.715  1.00 43.67 LIG-0.02  C 
ATOM     35  CD2 LEU F 804       7.872 -20.914  34.580  1.00 43.56 LIG 0.01  C 
ATOM     36  CD1 LEU F 804       6.507 -19.271  35.895  1.00 44.06 LIG 0.01  C 
ENDBRANCH 33 34
ENDBRANCH 22 33
ENDBRANCH 1 22
TORSDOF 14
ENDMDL
MODEL 94
USER: ADFR SOLUTION from run 133
USER: SCORE 10.799075 LL:  -2.509 LR:  -9.057 RR:   0.000 FEB:  -4.881
USER: RMSD 6.569743
USER: SEED 132
USER: STATUS no improvement in best in 19 clusters for 5 generations
USER: GENES 16
USER: genes 0 Translation |==|  0.65097 0.54342 0.53172
USER: genes 1 Rotation |==|  0.15250 0.72479 0.25683 0.63992
USER: genes 2 Torsion [C]-N--CA-[CB] |==|  0.16294
USER: genes 3 Torsion [N]-CA--CB-[CG] |==|  0.57143
USER: genes 4 Torsion [CA]-CB--CG-[CD2] |==|  0.24220
USER: genes 5 Torsion [CE2]-CZ--OH-[HH] |==|  0.88337
USER: genes 6 Torsion [N]-CA--C-[N] |==|  0.21067
USER: genes 7 Torsion [C]-N--CA-[C] |==|  0.25689
USER: genes 8 Torsion [N]-CA--C-[O] |==|  0.99174
USER: genes 9 Torsion [N]-C--CA-[N] |==|  0.45950
USER: genes 10 Torsion [C]-CA--N-[C] |==|  0.80461
USER: genes 11 Torsion [N]-C--CA-[N] |==|  0.41934
USER: genes 12 Torsion [C]-CA--CB-[CG] |==|  0.23949
USER: genes 13 Torsion [CA]-CB--CG-[OD1] |==|  0.15310
USER: genes 14 Torsion [C]-CA--CB-[CG] |==|  0.46115
USER: genes 15 Torsion [CA]-CB--CG-[CD2] |==|  0.81243
ROOT
ATOM      1  C   LEU F 804      14.111 -10.677  33.206  1.00 42.60 LIG 0.24  C 
ATOM      2 O    LEU F 804      14.656 -11.737  33.531  1.00 42.72 LIG-0.27  OA
ATOM      3  N   TYR F 805      13.662 -10.439  31.972  1.00 41.09 LIG-0.35  N 
ATOM      4 H    TYR F 805      13.450  -9.656  31.685  1.00 41.09 LIG 0.16  HD
ENDROOT
BRANCH 3 5
ATOM      5  CA  TYR F 805      13.485 -11.512  30.975  1.00 40.08 LIG 0.18  C 
BRANCH 5 6
ATOM      6  CB  TYR F 805      12.506 -12.562  31.518  1.00 38.23 LIG 0.07  C 
BRANCH 6 7
ATOM      7  CG  TYR F 805      12.714 -13.930  30.917  1.00 36.43 LIG-0.06  A 
ATOM      8  CD2 TYR F 805      13.627 -14.820  31.474  1.00 35.39 LIG 0.01  A 
ATOM      9  CE2 TYR F 805      13.841 -16.081  30.916  1.00 33.62 LIG 0.04  A 
ATOM     10  CZ  TYR F 805      13.132 -16.460  29.793  1.00 33.40 LIG 0.07  A 
ATOM     11  CE1 TYR F 805      12.210 -15.593  29.216  1.00 31.77 LIG 0.04  A 
ATOM     12  CD1 TYR F 805      12.007 -14.333  29.778  1.00 33.46 LIG 0.01  A 
BRANCH 10 13
ATOM     13 OH   TYR F 805      13.346 -17.712  29.260  1.00 32.97 LIG-0.36  OA
ATOM     14 HH   TYR F 805      14.169 -17.881  29.264  1.00 32.97 LIG 0.22  HD
ENDBRANCH 10 13
ENDBRANCH 6 7
ENDBRANCH 5 6
BRANCH 5 15
ATOM     15  C   TYR F 805      13.009 -11.022  29.594  1.00 40.65 LIG 0.24  C 
ATOM     16 O    TYR F 805      11.832 -11.181  29.261  1.00 41.05 LIG-0.27  OA
ATOM     17  N   GLY F 806      13.902 -10.421  28.793  1.00 41.21 LIG-0.35  N 
ATOM     18 H    GLY F 806      13.720 -10.200  27.982  1.00 41.21 LIG 0.16  HD
BRANCH 17 19
ATOM     19  CA  GLY F 806      15.283 -10.070  29.193  1.00 41.66 LIG 0.21  C 
BRANCH 19 20
ATOM     20  C   GLY F 806      16.346 -11.115  28.885  1.00 41.93 LIG 0.21  C 
ATOM     21 O    GLY F 806      16.050 -12.210  28.384  1.00 42.62 LIG-0.29  OA
ENDBRANCH 19 20
ENDBRANCH 17 19
ENDBRANCH 5 15
ENDBRANCH 3 5
BRANCH 1 22
ATOM     22  CA  LEU F 804      13.928  -9.558  34.248  1.00 43.64 LIG 0.18  C 
BRANCH 22 23
ATOM     23  N   LEU F 804      14.118  -9.955  35.643  1.00 45.07 LIG-0.35  N 
ATOM     24  C   ASP F 803      13.252 -10.737  36.280  1.00 46.18 LIG 0.26  C 
ATOM     25 O    ASP F 803      12.276 -11.250  35.719  1.00 46.48 LIG-0.27  OA
ATOM     26 H    LEU F 804      14.831  -9.639  36.005  1.00 45.07 LIG 0.16  HD
BRANCH 24 27
ATOM     27  CA  ASP F 803      13.532 -10.986  37.773  1.00 46.88 LIG 0.41  C 
ATOM     28  N   ASP F 803      12.286 -11.236  38.550  1.00 47.04 LIG 0.61  N 
BRANCH 27 29
ATOM     29  CB  ASP F 803      14.494 -12.165  37.946  1.00 47.42 LIG 0.16  C 
BRANCH 29 30
ATOM     30  CG  ASP F 803      15.963 -11.748  37.864  1.00 48.96 LIG 0.17  C 
ATOM     31 OD1  ASP F 803      16.356 -10.845  38.641  1.00 50.04 LIG-0.65  OA
ATOM     32 OD2  ASP F 803      16.721 -12.309  37.033  1.00 49.91 LIG-0.65  OA
ENDBRANCH 29 30
ENDBRANCH 27 29
ENDBRANCH 24 27
ENDBRANCH 22 23
BRANCH 22 33
ATOM     33  CB  LEU F 804      14.845  -8.372  33.919  1.00 43.69 LIG 0.04  C 
BRANCH 33 34
ATOM     34  CG  LEU F 804      14.662  -6.995  34.583  1.00 43.67 LIG-0.02  C 
ATOM     35  CD2 LEU F 804      13.363  -6.369  34.117  1.00 43.56 LIG 0.01  C 
ATOM     36  CD1 LEU F 804      15.837  -6.043  34.370  1.00 44.06 LIG 0.01  C 
ENDBRANCH 33 34
ENDBRANCH 22 33
ENDBRANCH 1 22
TORSDOF 14
ENDMDL
MODEL 95
USER: ADFR SOLUTION from run 126
USER: SCORE 11.861326 LL:  -2.920 LR:  -9.059 RR:   0.000 FEB:  -4.883
USER: RMSD 7.560023
USER: SEED 125
USER: STATUS no improvement in best in 21 clusters for 5 generations
USER: GENES 16
USER: genes 0 Translation |==|  0.54068 0.26312 0.42769
USER: genes 1 Rotation |==|  0.79859 0.55362 0.35436 0.86981
USER: genes 2 Torsion [C]-N--CA-[CB] |==|  0.80534
USER: genes 3 Torsion [N]-CA--CB-[CG] |==|  0.91787
USER: genes 4 Torsion [CA]-CB--CG-[CD2] |==|  0.32704
USER: genes 5 Torsion [CE2]-CZ--OH-[HH] |==|  0.04328
USER: genes 6 Torsion [N]-CA--C-[N] |==|  0.47221
USER: genes 7 Torsion [C]-N--CA-[C] |==|  0.29876
USER: genes 8 Torsion [N]-CA--C-[O] |==|  0.02081
USER: genes 9 Torsion [N]-C--CA-[N] |==|  0.95428
USER: genes 10 Torsion [C]-CA--N-[C] |==|  0.82222
USER: genes 11 Torsion [N]-C--CA-[N] |==|  0.79651
USER: genes 12 Torsion [C]-CA--CB-[CG] |==|  0.09477
USER: genes 13 Torsion [CA]-CB--CG-[OD1] |==|  0.72025
USER: genes 14 Torsion [C]-CA--CB-[CG] |==|  0.89444
USER: genes 15 Torsion [CA]-CB--CG-[CD2] |==|  0.74387
ROOT
ATOM      1  C   LEU F 804      12.456 -16.353  31.333  1.00 42.60 LIG 0.24  C 
ATOM      2 O    LEU F 804      13.309 -17.116  30.866  1.00 42.72 LIG-0.27  OA
ATOM      3  N   TYR F 805      12.412 -16.015  32.624  1.00 41.09 LIG-0.35  N 
ATOM      4 H    TYR F 805      11.732 -15.640  32.994  1.00 41.09 LIG 0.16  HD
ENDROOT
BRANCH 3 5
ATOM      5  CA  TYR F 805      13.540 -16.256  33.543  1.00 40.08 LIG 0.18  C 
BRANCH 5 6
ATOM      6  CB  TYR F 805      13.683 -17.762  33.798  1.00 38.23 LIG 0.07  C 
BRANCH 6 7
ATOM      7  CG  TYR F 805      12.373 -18.505  33.703  1.00 36.43 LIG-0.06  A 
ATOM      8  CD2 TYR F 805      12.183 -19.490  32.740  1.00 35.39 LIG 0.01  A 
ATOM      9  CE2 TYR F 805      10.969 -20.171  32.631  1.00 33.62 LIG 0.04  A 
ATOM     10  CZ  TYR F 805       9.937 -19.868  33.497  1.00 33.40 LIG 0.07  A 
ATOM     11  CE1 TYR F 805      10.099 -18.890  34.472  1.00 31.77 LIG 0.04  A 
ATOM     12  CD1 TYR F 805      11.313 -18.213  34.570  1.00 33.46 LIG 0.01  A 
BRANCH 10 13
ATOM     13 OH   TYR F 805       8.749 -20.556  33.384  1.00 32.97 LIG-0.36  OA
ATOM     14 HH   TYR F 805       8.866 -21.244  32.916  1.00 32.97 LIG 0.22  HD
ENDBRANCH 10 13
ENDBRANCH 6 7
ENDBRANCH 5 6
BRANCH 5 15
ATOM     15  C   TYR F 805      14.884 -15.679  33.061  1.00 40.65 LIG 0.24  C 
ATOM     16 O    TYR F 805      14.983 -15.234  31.915  1.00 41.05 LIG-0.27  OA
ATOM     17  N   GLY F 806      15.915 -15.671  33.920  1.00 41.21 LIG-0.35  N 
ATOM     18 H    GLY F 806      16.709 -15.439  33.687  1.00 41.21 LIG 0.16  HD
BRANCH 17 19
ATOM     19  CA  GLY F 806      15.819 -16.051  35.347  1.00 41.66 LIG 0.21  C 
BRANCH 19 20
ATOM     20  C   GLY F 806      16.450 -17.385  35.719  1.00 41.93 LIG 0.21  C 
ATOM     21 O    GLY F 806      17.123 -18.033  34.903  1.00 42.62 LIG-0.29  OA
ENDBRANCH 19 20
ENDBRANCH 17 19
ENDBRANCH 5 15
ENDBRANCH 3 5
BRANCH 1 22
ATOM     22  CA  LEU F 804      11.380 -15.751  30.411  1.00 43.64 LIG 0.18  C 
BRANCH 22 23
ATOM     23  N   LEU F 804      10.214 -15.181  31.086  1.00 45.07 LIG-0.35  N 
ATOM     24  C   ASP F 803       9.380 -15.925  31.805  1.00 46.18 LIG 0.26  C 
ATOM     25 O    ASP F 803       9.574 -17.128  32.024  1.00 46.48 LIG-0.27  OA
ATOM     26 H    LEU F 804      10.122 -14.334  30.975  1.00 45.07 LIG 0.16  HD
BRANCH 24 27
ATOM     27  CA  ASP F 803       8.143 -15.206  32.372  1.00 46.88 LIG 0.41  C 
ATOM     28  N   ASP F 803       8.481 -14.301  33.507  1.00 47.04 LIG 0.61  N 
BRANCH 27 29
ATOM     29  CB  ASP F 803       7.437 -14.409  31.270  1.00 47.42 LIG 0.16  C 
BRANCH 29 30
ATOM     30  CG  ASP F 803       7.520 -15.088  29.902  1.00 48.96 LIG 0.17  C 
ATOM     31 OD1  ASP F 803       8.372 -14.658  29.089  1.00 50.04 LIG-0.65  OA
ATOM     32 OD2  ASP F 803       6.743 -16.039  29.634  1.00 49.91 LIG-0.65  OA
ENDBRANCH 29 30
ENDBRANCH 27 29
ENDBRANCH 24 27
ENDBRANCH 22 23
BRANCH 22 33
ATOM     33  CB  LEU F 804      12.004 -14.700  29.483  1.00 43.69 LIG 0.04  C 
BRANCH 33 34
ATOM     34  CG  LEU F 804      13.107 -13.742  29.967  1.00 43.67 LIG-0.02  C 
ATOM     35  CD2 LEU F 804      12.484 -12.457  30.477  1.00 43.56 LIG 0.01  C 
ATOM     36  CD1 LEU F 804      14.181 -13.453  28.919  1.00 44.06 LIG 0.01  C 
ENDBRANCH 33 34
ENDBRANCH 22 33
ENDBRANCH 1 22
TORSDOF 14
ENDMDL
MODEL 96
USER: ADFR SOLUTION from run 25
USER: SCORE 11.588269 LL:  -2.772 LR:  -9.028 RR:   0.000 FEB:  -4.852
USER: RMSD 6.532248
USER: SEED 24
USER: STATUS no improvement in best in 12 clusters for 5 generations
USER: GENES 16
USER: genes 0 Translation |==|  0.59020 0.26242 0.42821
USER: genes 1 Rotation |==|  0.30062 0.87715 0.42681 0.75030
USER: genes 2 Torsion [C]-N--CA-[CB] |==|  0.76147
USER: genes 3 Torsion [N]-CA--CB-[CG] |==|  0.76386
USER: genes 4 Torsion [CA]-CB--CG-[CD2] |==|  0.49446
USER: genes 5 Torsion [CE2]-CZ--OH-[HH] |==|  0.61318
USER: genes 6 Torsion [N]-CA--C-[N] |==|  0.20738
USER: genes 7 Torsion [C]-N--CA-[C] |==|  0.50853
USER: genes 8 Torsion [N]-CA--C-[O] |==|  0.98321
USER: genes 9 Torsion [N]-C--CA-[N] |==|  0.94281
USER: genes 10 Torsion [C]-CA--N-[C] |==|  0.80595
USER: genes 11 Torsion [N]-C--CA-[N] |==|  0.36228
USER: genes 12 Torsion [C]-CA--CB-[CG] |==|  0.52499
USER: genes 13 Torsion [CA]-CB--CG-[OD1] |==|  0.04159
USER: genes 14 Torsion [C]-CA--CB-[CG] |==|  0.32487
USER: genes 15 Torsion [CA]-CB--CG-[CD2] |==|  0.10778
ROOT
ATOM      1  C   LEU F 804      13.199 -16.367  31.343  1.00 42.60 LIG 0.24  C 
ATOM      2 O    LEU F 804      13.369 -17.151  30.403  1.00 42.72 LIG-0.27  OA
ATOM      3  N   TYR F 805      12.879 -15.083  31.169  1.00 41.09 LIG-0.35  N 
ATOM      4 H    TYR F 805      12.935 -14.490  31.790  1.00 41.09 LIG 0.16  HD
ENDROOT
BRANCH 3 5
ATOM      5  CA  TYR F 805      12.392 -14.557  29.880  1.00 40.08 LIG 0.18  C 
BRANCH 5 6
ATOM      6  CB  TYR F 805      13.587 -14.184  28.992  1.00 38.23 LIG 0.07  C 
BRANCH 6 7
ATOM      7  CG  TYR F 805      14.113 -12.796  29.263  1.00 36.43 LIG-0.06  A 
ATOM      8  CD2 TYR F 805      15.221 -12.310  28.577  1.00 35.39 LIG 0.01  A 
ATOM      9  CE2 TYR F 805      15.728 -11.035  28.831  1.00 33.62 LIG 0.04  A 
ATOM     10  CZ  TYR F 805      15.118 -10.235  29.777  1.00 33.40 LIG 0.07  A 
ATOM     11  CE1 TYR F 805      14.006 -10.692  30.477  1.00 31.77 LIG 0.04  A 
ATOM     12  CD1 TYR F 805      13.510 -11.969  30.218  1.00 33.46 LIG 0.01  A 
BRANCH 10 13
ATOM     13 OH   TYR F 805      15.623  -8.975  30.010  1.00 32.97 LIG-0.36  OA
ATOM     14 HH   TYR F 805      15.614  -8.817  30.835  1.00 32.97 LIG 0.22  HD
ENDBRANCH 10 13
ENDBRANCH 6 7
ENDBRANCH 5 6
BRANCH 5 15
ATOM     15  C   TYR F 805      11.456 -15.515  29.118  1.00 40.65 LIG 0.24  C 
ATOM     16 O    TYR F 805      11.879 -16.129  28.135  1.00 41.05 LIG-0.27  OA
ATOM     17  N   GLY F 806      10.199 -15.659  29.562  1.00 41.21 LIG-0.35  N 
ATOM     18 H    GLY F 806       9.607 -16.114  29.134  1.00 41.21 LIG 0.16  HD
BRANCH 17 19
ATOM     19  CA  GLY F 806       9.680 -15.069  30.816  1.00 41.66 LIG 0.21  C 
BRANCH 19 20
ATOM     20  C   GLY F 806       8.241 -15.419  31.166  1.00 41.93 LIG 0.21  C 
ATOM     21 O    GLY F 806       7.523 -16.062  30.385  1.00 42.62 LIG-0.29  OA
ENDBRANCH 19 20
ENDBRANCH 17 19
ENDBRANCH 5 15
ENDBRANCH 3 5
BRANCH 1 22
ATOM     22  CA  LEU F 804      13.360 -16.862  32.792  1.00 43.64 LIG 0.18  C 
BRANCH 22 23
ATOM     23  N   LEU F 804      13.609 -15.824  33.792  1.00 45.07 LIG-0.35  N 
ATOM     24  C   ASP F 803      14.757 -15.156  33.847  1.00 46.18 LIG 0.26  C 
ATOM     25 O    ASP F 803      15.658 -15.304  33.011  1.00 46.48 LIG-0.27  OA
ATOM     26 H    LEU F 804      12.953 -15.689  34.331  1.00 45.07 LIG 0.16  HD
BRANCH 24 27
ATOM     27  CA  ASP F 803      14.912 -14.166  35.015  1.00 46.88 LIG 0.41  C 
ATOM     28  N   ASP F 803      16.199 -14.344  35.744  1.00 47.04 LIG 0.61  N 
BRANCH 27 29
ATOM     29  CB  ASP F 803      14.800 -12.724  34.510  1.00 47.42 LIG 0.16  C 
BRANCH 29 30
ATOM     30  CG  ASP F 803      15.162 -11.691  35.579  1.00 48.96 LIG 0.17  C 
ATOM     31 OD1  ASP F 803      15.766 -12.098  36.600  1.00 50.04 LIG-0.65  OA
ATOM     32 OD2  ASP F 803      14.846 -10.487  35.409  1.00 49.91 LIG-0.65  OA
ENDBRANCH 29 30
ENDBRANCH 27 29
ENDBRANCH 24 27
ENDBRANCH 22 23
BRANCH 22 33
ATOM     33  CB  LEU F 804      12.140 -17.696  33.206  1.00 43.69 LIG 0.04  C 
BRANCH 33 34
ATOM     34  CG  LEU F 804      12.261 -19.186  33.573  1.00 43.67 LIG-0.02  C 
ATOM     35  CD2 LEU F 804      13.535 -19.419  34.362  1.00 43.56 LIG 0.01  C 
ATOM     36  CD1 LEU F 804      12.178 -20.129  32.374  1.00 44.06 LIG 0.01  C 
ENDBRANCH 33 34
ENDBRANCH 22 33
ENDBRANCH 1 22
TORSDOF 14
ENDMDL
MODEL 97
USER: ADFR SOLUTION from run 92
USER: SCORE 10.698614 LL:  -2.649 LR:  -9.022 RR:   0.000 FEB:  -4.845
USER: RMSD 7.893051
USER: SEED 91
USER: STATUS no improvement in best in 16 clusters for 5 generations
USER: GENES 16
USER: genes 0 Translation |==|  0.28567 0.54945 0.38322
USER: genes 1 Rotation |==|  0.48743 0.42492 0.10760 0.80038
USER: genes 2 Torsion [C]-N--CA-[CB] |==|  0.57223
USER: genes 3 Torsion [N]-CA--CB-[CG] |==|  0.70293
USER: genes 4 Torsion [CA]-CB--CG-[CD2] |==|  0.53558
USER: genes 5 Torsion [CE2]-CZ--OH-[HH] |==|  0.88379
USER: genes 6 Torsion [N]-CA--C-[N] |==|  0.28116
USER: genes 7 Torsion [C]-N--CA-[C] |==|  0.72108
USER: genes 8 Torsion [N]-CA--C-[O] |==|  0.57862
USER: genes 9 Torsion [N]-C--CA-[N] |==|  0.84148
USER: genes 10 Torsion [C]-CA--N-[C] |==|  0.63889
USER: genes 11 Torsion [N]-C--CA-[N] |==|  0.84982
USER: genes 12 Torsion [C]-CA--CB-[CG] |==|  0.58593
USER: genes 13 Torsion [CA]-CB--CG-[OD1] |==|  0.24018
USER: genes 14 Torsion [C]-CA--CB-[CG] |==|  0.20814
USER: genes 15 Torsion [CA]-CB--CG-[CD2] |==|  0.03189
ROOT
ATOM      1  C   LEU F 804       8.631 -10.555  30.533  1.00 42.60 LIG 0.24  C 
ATOM      2 O    LEU F 804       8.253 -11.521  31.205  1.00 42.72 LIG-0.27  OA
ATOM      3  N   TYR F 805       9.867 -10.057  30.607  1.00 41.09 LIG-0.35  N 
ATOM      4 H    TYR F 805      10.090  -9.288  30.292  1.00 41.09 LIG 0.16  HD
ENDROOT
BRANCH 3 5
ATOM      5  CA  TYR F 805      10.977 -10.789  31.245  1.00 40.08 LIG 0.18  C 
BRANCH 5 6
ATOM      6  CB  TYR F 805      12.027  -9.792  31.752  1.00 38.23 LIG 0.07  C 
BRANCH 6 7
ATOM      7  CG  TYR F 805      13.284  -9.781  30.917  1.00 36.43 LIG-0.06  A 
ATOM      8  CD2 TYR F 805      14.434  -9.144  31.372  1.00 35.39 LIG 0.01  A 
ATOM      9  CE2 TYR F 805      15.596  -9.112  30.601  1.00 33.62 LIG 0.04  A 
ATOM     10  CZ  TYR F 805      15.612  -9.727  29.365  1.00 33.40 LIG 0.07  A 
ATOM     11  CE1 TYR F 805      14.479 -10.375  28.885  1.00 31.77 LIG 0.04  A 
ATOM     12  CD1 TYR F 805      13.321 -10.398  29.661  1.00 33.46 LIG 0.01  A 
BRANCH 10 13
ATOM     13 OH   TYR F 805      16.770  -9.696  28.620  1.00 32.97 LIG-0.36  OA
ATOM     14 HH   TYR F 805      17.115  -8.931  28.669  1.00 32.97 LIG 0.22  HD
ENDBRANCH 10 13
ENDBRANCH 6 7
ENDBRANCH 5 6
BRANCH 5 15
ATOM     15  C   TYR F 805      10.545 -11.720  32.394  1.00 40.65 LIG 0.24  C 
ATOM     16 O    TYR F 805      10.291 -11.244  33.503  1.00 41.05 LIG-0.27  OA
ATOM     17  N   GLY F 806      10.447 -13.034  32.143  1.00 41.21 LIG-0.35  N 
ATOM     18 H    GLY F 806      10.291 -13.612  32.760  1.00 41.21 LIG 0.16  HD
BRANCH 17 19
ATOM     19  CA  GLY F 806      10.592 -13.643  30.802  1.00 41.66 LIG 0.21  C 
BRANCH 19 20
ATOM     20  C   GLY F 806       9.293 -14.002  30.095  1.00 41.93 LIG 0.21  C 
ATOM     21 O    GLY F 806       9.238 -14.930  29.275  1.00 42.62 LIG-0.29  OA
ENDBRANCH 19 20
ENDBRANCH 17 19
ENDBRANCH 5 15
ENDBRANCH 3 5
BRANCH 1 22
ATOM     22  CA  LEU F 804       7.654  -9.870  29.559  1.00 43.64 LIG 0.18  C 
BRANCH 22 23
ATOM     23  N   LEU F 804       7.441  -8.439  29.777  1.00 45.07 LIG-0.35  N 
ATOM     24  C   ASP F 803       6.225  -7.909  29.855  1.00 46.18 LIG 0.26  C 
ATOM     25 O    ASP F 803       5.194  -8.594  29.833  1.00 46.48 LIG-0.27  OA
ATOM     26 H    LEU F 804       8.166  -7.983  29.850  1.00 45.07 LIG 0.16  HD
BRANCH 24 27
ATOM     27  CA  ASP F 803       6.158  -6.377  29.985  1.00 46.88 LIG 0.41  C 
ATOM     28  N   ASP F 803       6.970  -5.867  31.125  1.00 47.04 LIG 0.61  N 
BRANCH 27 29
ATOM     29  CB  ASP F 803       6.617  -5.711  28.685  1.00 47.42 LIG 0.16  C 
BRANCH 29 30
ATOM     30  CG  ASP F 803       7.286  -4.355  28.917  1.00 48.96 LIG 0.17  C 
ATOM     31 OD1  ASP F 803       8.515  -4.347  29.164  1.00 50.04 LIG-0.65  OA
ATOM     32 OD2  ASP F 803       6.596  -3.306  28.860  1.00 49.91 LIG-0.65  OA
ENDBRANCH 29 30
ENDBRANCH 27 29
ENDBRANCH 24 27
ENDBRANCH 22 23
BRANCH 22 33
ATOM     33  CB  LEU F 804       8.094 -10.112  28.109  1.00 43.69 LIG 0.04  C 
BRANCH 33 34
ATOM     34  CG  LEU F 804       7.894 -11.471  27.415  1.00 43.67 LIG-0.02  C 
ATOM     35  CD2 LEU F 804       6.987 -12.348  28.255  1.00 43.56 LIG 0.01  C 
ATOM     36  CD1 LEU F 804       9.196 -12.193  27.077  1.00 44.06 LIG 0.01  C 
ENDBRANCH 33 34
ENDBRANCH 22 33
ENDBRANCH 1 22
TORSDOF 14
ENDMDL
MODEL 98
USER: ADFR SOLUTION from run 150
USER: SCORE 11.483992 LL:  -2.631 LR:  -9.010 RR:   0.000 FEB:  -4.834
USER: RMSD 5.913972
USER: SEED 149
USER: STATUS searching
USER: GENES 16
USER: genes 0 Translation |==|  0.58501 0.29939 0.40983
USER: genes 1 Rotation |==|  0.27891 0.77810 0.44731 0.84786
USER: genes 2 Torsion [C]-N--CA-[CB] |==|  0.83839
USER: genes 3 Torsion [N]-CA--CB-[CG] |==|  0.75312
USER: genes 4 Torsion [CA]-CB--CG-[CD2] |==|  0.54992
USER: genes 5 Torsion [CE2]-CZ--OH-[HH] |==|  0.09755
USER: genes 6 Torsion [N]-CA--C-[N] |==|  0.38639
USER: genes 7 Torsion [C]-N--CA-[C] |==|  0.48495
USER: genes 8 Torsion [N]-CA--C-[O] |==|  0.99322
USER: genes 9 Torsion [N]-C--CA-[N] |==|  0.06946
USER: genes 10 Torsion [C]-CA--N-[C] |==|  0.16365
USER: genes 11 Torsion [N]-C--CA-[N] |==|  0.15720
USER: genes 12 Torsion [C]-CA--CB-[CG] |==|  0.84638
USER: genes 13 Torsion [CA]-CB--CG-[OD1] |==|  0.43458
USER: genes 14 Torsion [C]-CA--CB-[CG] |==|  0.54514
USER: genes 15 Torsion [CA]-CB--CG-[CD2] |==|  0.75364
ROOT
ATOM      1  C   LEU F 804      13.121 -15.618  31.012  1.00 42.60 LIG 0.24  C 
ATOM      2 O    LEU F 804      13.914 -16.137  30.218  1.00 42.72 LIG-0.27  OA
ATOM      3  N   TYR F 805      12.491 -14.468  30.764  1.00 41.09 LIG-0.35  N 
ATOM      4 H    TYR F 805      12.086 -14.008  31.367  1.00 41.09 LIG 0.16  HD
ENDROOT
BRANCH 3 5
ATOM      5  CA  TYR F 805      12.431 -13.875  29.415  1.00 40.08 LIG 0.18  C 
BRANCH 5 6
ATOM      6  CB  TYR F 805      13.855 -13.634  28.896  1.00 38.23 LIG 0.07  C 
BRANCH 6 7
ATOM      7  CG  TYR F 805      14.403 -12.281  29.278  1.00 36.43 LIG-0.06  A 
ATOM      8  CD2 TYR F 805      15.494 -11.741  28.606  1.00 35.39 LIG 0.01  A 
ATOM      9  CE2 TYR F 805      16.020 -10.498  28.963  1.00 33.62 LIG 0.04  A 
ATOM     10  CZ  TYR F 805      15.447  -9.786  29.998  1.00 33.40 LIG 0.07  A 
ATOM     11  CE1 TYR F 805      14.352 -10.299  30.685  1.00 31.77 LIG 0.04  A 
ATOM     12  CD1 TYR F 805      13.836 -11.543  30.324  1.00 33.46 LIG 0.01  A 
BRANCH 10 13
ATOM     13 OH   TYR F 805      15.971  -8.556  30.331  1.00 32.97 LIG-0.36  OA
ATOM     14 HH   TYR F 805      16.238  -8.168  29.636  1.00 32.97 LIG 0.22  HD
ENDBRANCH 10 13
ENDBRANCH 6 7
ENDBRANCH 5 6
BRANCH 5 15
ATOM     15  C   TYR F 805      11.638 -14.708  28.391  1.00 40.65 LIG 0.24  C 
ATOM     16 O    TYR F 805      11.749 -15.936  28.384  1.00 41.05 LIG-0.27  OA
ATOM     17  N   GLY F 806      10.832 -14.060  27.535  1.00 41.21 LIG-0.35  N 
ATOM     18 H    GLY F 806      10.427 -14.459  26.890  1.00 41.21 LIG 0.16  HD
BRANCH 17 19
ATOM     19  CA  GLY F 806      10.543 -12.610  27.592  1.00 41.66 LIG 0.21  C 
BRANCH 19 20
ATOM     20  C   GLY F 806       9.703 -12.059  26.448  1.00 41.93 LIG 0.21  C 
ATOM     21 O    GLY F 806       9.332 -12.782  25.511  1.00 42.62 LIG-0.29  OA
ENDBRANCH 19 20
ENDBRANCH 17 19
ENDBRANCH 5 15
ENDBRANCH 3 5
BRANCH 1 22
ATOM     22  CA  LEU F 804      12.828 -16.305  32.359  1.00 43.64 LIG 0.18  C 
BRANCH 22 23
ATOM     23  N   LEU F 804      11.536 -15.983  32.965  1.00 45.07 LIG-0.35  N 
ATOM     24  C   ASP F 803      10.385 -16.221  32.345  1.00 46.18 LIG 0.26  C 
ATOM     25 O    ASP F 803      10.320 -16.804  31.255  1.00 46.48 LIG-0.27  OA
ATOM     26 H    LEU F 804      11.593 -15.632  33.748  1.00 45.07 LIG 0.16  HD
BRANCH 24 27
ATOM     27  CA  ASP F 803       9.113 -15.737  33.064  1.00 46.88 LIG 0.41  C 
ATOM     28  N   ASP F 803       9.147 -14.277  33.360  1.00 47.04 LIG 0.61  N 
BRANCH 27 29
ATOM     29  CB  ASP F 803       7.871 -16.066  32.229  1.00 47.42 LIG 0.16  C 
BRANCH 29 30
ATOM     30  CG  ASP F 803       7.944 -15.501  30.810  1.00 48.96 LIG 0.17  C 
ATOM     31 OD1  ASP F 803       7.248 -16.056  29.927  1.00 50.04 LIG-0.65  OA
ATOM     32 OD2  ASP F 803       8.688 -14.517  30.572  1.00 49.91 LIG-0.65  OA
ENDBRANCH 29 30
ENDBRANCH 27 29
ENDBRANCH 24 27
ENDBRANCH 22 23
BRANCH 22 33
ATOM     33  CB  LEU F 804      12.970 -17.826  32.221  1.00 43.69 LIG 0.04  C 
BRANCH 33 34
ATOM     34  CG  LEU F 804      12.394 -18.794  33.270  1.00 43.67 LIG-0.02  C 
ATOM     35  CD2 LEU F 804      13.420 -19.042  34.358  1.00 43.56 LIG 0.01  C 
ATOM     36  CD1 LEU F 804      11.885 -20.110  32.686  1.00 44.06 LIG 0.01  C 
ENDBRANCH 33 34
ENDBRANCH 22 33
ENDBRANCH 1 22
TORSDOF 14
ENDMDL
MODEL 99
USER: ADFR SOLUTION from run 54
USER: SCORE 10.618627 LL:  -2.791 LR:  -9.010 RR:   0.000 FEB:  -4.833
USER: RMSD 4.710480
USER: SEED 53
USER: STATUS no improvement in best in 16 clusters for 5 generations
USER: GENES 16
USER: genes 0 Translation |==|  0.69553 0.52607 0.59342
USER: genes 1 Rotation |==|  0.36857 0.77607 0.52029 0.89510
USER: genes 2 Torsion [C]-N--CA-[CB] |==|  0.20697
USER: genes 3 Torsion [N]-CA--CB-[CG] |==|  0.72733
USER: genes 4 Torsion [CA]-CB--CG-[CD2] |==|  0.44933
USER: genes 5 Torsion [CE2]-CZ--OH-[HH] |==|  0.98283
USER: genes 6 Torsion [N]-CA--C-[N] |==|  0.39603
USER: genes 7 Torsion [C]-N--CA-[C] |==|  0.53933
USER: genes 8 Torsion [N]-CA--C-[O] |==|  0.75659
USER: genes 9 Torsion [N]-C--CA-[N] |==|  0.44195
USER: genes 10 Torsion [C]-CA--N-[C] |==|  0.53942
USER: genes 11 Torsion [N]-C--CA-[N] |==|  0.01908
USER: genes 12 Torsion [C]-CA--CB-[CG] |==|  0.64741
USER: genes 13 Torsion [CA]-CB--CG-[OD1] |==|  0.66080
USER: genes 14 Torsion [C]-CA--CB-[CG] |==|  0.68323
USER: genes 15 Torsion [CA]-CB--CG-[CD2] |==|  0.51424
ROOT
ATOM      1  C   LEU F 804      14.779 -11.028  34.317  1.00 42.60 LIG 0.24  C 
ATOM      2 O    LEU F 804      15.597 -11.085  33.392  1.00 42.72 LIG-0.27  OA
ATOM      3  N   TYR F 805      14.117  -9.914  34.634  1.00 41.09 LIG-0.35  N 
ATOM      4 H    TYR F 805      13.690  -9.808  35.373  1.00 41.09 LIG 0.16  HD
ENDROOT
BRANCH 3 5
ATOM      5  CA  TYR F 805      14.055  -8.747  33.733  1.00 40.08 LIG 0.18  C 
BRANCH 5 6
ATOM      6  CB  TYR F 805      13.098  -9.046  32.570  1.00 38.23 LIG 0.07  C 
BRANCH 6 7
ATOM      7  CG  TYR F 805      13.812  -9.491  31.318  1.00 36.43 LIG-0.06  A 
ATOM      8  CD2 TYR F 805      13.125 -10.154  30.306  1.00 35.39 LIG 0.01  A 
ATOM      9  CE2 TYR F 805      13.778 -10.586  29.151  1.00 33.62 LIG 0.04  A 
ATOM     10  CZ  TYR F 805      15.129 -10.348  29.002  1.00 33.40 LIG 0.07  A 
ATOM     11  CE1 TYR F 805      15.843  -9.684  29.994  1.00 31.77 LIG 0.04  A 
ATOM     12  CD1 TYR F 805      15.182  -9.260  31.147  1.00 33.46 LIG 0.01  A 
BRANCH 10 13
ATOM     13 OH   TYR F 805      15.758 -10.772  27.852  1.00 32.97 LIG-0.36  OA
ATOM     14 HH   TYR F 805      15.221 -11.222  27.388  1.00 32.97 LIG 0.22  HD
ENDBRANCH 10 13
ENDBRANCH 6 7
ENDBRANCH 5 6
BRANCH 5 15
ATOM     15  C   TYR F 805      13.641  -7.434  34.423  1.00 40.65 LIG 0.24  C 
ATOM     16 O    TYR F 805      12.795  -7.456  35.320  1.00 41.05 LIG-0.27  OA
ATOM     17  N   GLY F 806      14.232  -6.296  34.027  1.00 41.21 LIG-0.35  N 
ATOM     18 H    GLY F 806      13.987  -5.524  34.315  1.00 41.21 LIG 0.16  HD
BRANCH 17 19
ATOM     19  CA  GLY F 806      15.355  -6.226  33.067  1.00 41.66 LIG 0.21  C 
BRANCH 19 20
ATOM     20  C   GLY F 806      16.092  -4.896  33.008  1.00 41.93 LIG 0.21  C 
ATOM     21 O    GLY F 806      15.715  -3.980  32.261  1.00 42.62 LIG-0.29  OA
ENDBRANCH 19 20
ENDBRANCH 17 19
ENDBRANCH 5 15
ENDBRANCH 3 5
BRANCH 1 22
ATOM     22  CA  LEU F 804      14.491 -12.282  35.162  1.00 43.64 LIG 0.18  C 
BRANCH 22 23
ATOM     23  N   LEU F 804      14.833 -13.560  34.538  1.00 45.07 LIG-0.35  N 
ATOM     24  C   ASP F 803      14.397 -14.720  35.016  1.00 46.18 LIG 0.26  C 
ATOM     25 O    ASP F 803      13.607 -14.798  35.966  1.00 46.48 LIG-0.27  OA
ATOM     26 H    LEU F 804      15.335 -13.489  33.843  1.00 45.07 LIG 0.16  HD
BRANCH 24 27
ATOM     27  CA  ASP F 803      14.921 -15.986  34.314  1.00 46.88 LIG 0.41  C 
ATOM     28  N   ASP F 803      15.973 -15.681  33.304  1.00 47.04 LIG 0.61  N 
BRANCH 27 29
ATOM     29  CB  ASP F 803      15.467 -16.980  35.344  1.00 47.42 LIG 0.16  C 
BRANCH 29 30
ATOM     30  CG  ASP F 803      16.895 -17.432  35.033  1.00 48.96 LIG 0.17  C 
ATOM     31 OD1  ASP F 803      17.096 -18.661  34.885  1.00 50.04 LIG-0.65  OA
ATOM     32 OD2  ASP F 803      17.809 -16.576  34.939  1.00 49.91 LIG-0.65  OA
ENDBRANCH 29 30
ENDBRANCH 27 29
ENDBRANCH 24 27
ENDBRANCH 22 23
BRANCH 22 33
ATOM     33  CB  LEU F 804      15.184 -12.172  36.527  1.00 43.69 LIG 0.04  C 
BRANCH 33 34
ATOM     34  CG  LEU F 804      16.328 -13.118  36.936  1.00 43.67 LIG-0.02  C 
ATOM     35  CD2 LEU F 804      16.724 -12.852  38.375  1.00 43.56 LIG 0.01  C 
ATOM     36  CD1 LEU F 804      17.543 -13.057  36.012  1.00 44.06 LIG 0.01  C 
ENDBRANCH 33 34
ENDBRANCH 22 33
ENDBRANCH 1 22
TORSDOF 14
ENDMDL
MODEL 100
USER: ADFR SOLUTION from run 173
USER: SCORE 10.763026 LL:  -2.655 LR:  -9.009 RR:   0.000 FEB:  -4.833
USER: RMSD 8.031178
USER: SEED 172
USER: STATUS no improvement in best in 29 clusters for 5 generations
USER: GENES 16
USER: genes 0 Translation |==|  0.58753 0.40432 0.41703
USER: genes 1 Rotation |==|  0.73534 0.35292 0.14138 0.71065
USER: genes 2 Torsion [C]-N--CA-[CB] |==|  0.82010
USER: genes 3 Torsion [N]-CA--CB-[CG] |==|  0.37024
USER: genes 4 Torsion [CA]-CB--CG-[CD2] |==|  0.72455
USER: genes 5 Torsion [CE2]-CZ--OH-[HH] |==|  0.68811
USER: genes 6 Torsion [N]-CA--C-[N] |==|  0.36806
USER: genes 7 Torsion [C]-N--CA-[C] |==|  0.48226
USER: genes 8 Torsion [N]-CA--C-[O] |==|  0.03061
USER: genes 9 Torsion [N]-C--CA-[N] |==|  0.54047
USER: genes 10 Torsion [C]-CA--N-[C] |==|  0.15565
USER: genes 11 Torsion [N]-C--CA-[N] |==|  0.80883
USER: genes 12 Torsion [C]-CA--CB-[CG] |==|  0.49233
USER: genes 13 Torsion [CA]-CB--CG-[OD1] |==|  0.50285
USER: genes 14 Torsion [C]-CA--CB-[CG] |==|  0.41758
USER: genes 15 Torsion [CA]-CB--CG-[CD2] |==|  0.97731
ROOT
ATOM      1  C   LEU F 804      13.159 -13.494  31.142  1.00 42.60 LIG 0.24  C 
ATOM      2 O    LEU F 804      12.523 -14.503  30.819  1.00 42.72 LIG-0.27  OA
ATOM      3  N   TYR F 805      13.644 -13.302  32.370  1.00 41.09 LIG-0.35  N 
ATOM      4 H    TYR F 805      13.923 -12.541  32.658  1.00 41.09 LIG 0.16  HD
ENDROOT
BRANCH 3 5
ATOM      5  CA  TYR F 805      13.746 -14.392  33.358  1.00 40.08 LIG 0.18  C 
BRANCH 5 6
ATOM      6  CB  TYR F 805      12.341 -14.888  33.724  1.00 38.23 LIG 0.07  C 
BRANCH 6 7
ATOM      7  CG  TYR F 805      12.224 -16.393  33.711  1.00 36.43 LIG-0.06  A 
ATOM      8  CD2 TYR F 805      11.677 -17.053  32.615  1.00 35.39 LIG 0.01  A 
ATOM      9  CE2 TYR F 805      11.547 -18.442  32.600  1.00 33.62 LIG 0.04  A 
ATOM     10  CZ  TYR F 805      11.973 -19.180  33.686  1.00 33.40 LIG 0.07  A 
ATOM     11  CE1 TYR F 805      12.528 -18.549  34.794  1.00 31.77 LIG 0.04  A 
ATOM     12  CD1 TYR F 805      12.649 -17.159  34.802  1.00 33.46 LIG 0.01  A 
BRANCH 10 13
ATOM     13 OH   TYR F 805      11.848 -20.552  33.651  1.00 32.97 LIG-0.36  OA
ATOM     14 HH   TYR F 805      11.276 -20.795  34.216  1.00 32.97 LIG 0.22  HD
ENDBRANCH 10 13
ENDBRANCH 6 7
ENDBRANCH 5 6
BRANCH 5 15
ATOM     15  C   TYR F 805      14.616 -15.580  32.904  1.00 40.65 LIG 0.24  C 
ATOM     16 O    TYR F 805      14.460 -16.055  31.776  1.00 41.05 LIG-0.27  OA
ATOM     17  N   GLY F 806      15.534 -16.057  33.758  1.00 41.21 LIG-0.35  N 
ATOM     18 H    GLY F 806      15.991 -16.767  33.596  1.00 41.21 LIG 0.16  HD
BRANCH 17 19
ATOM     19  CA  GLY F 806      15.868 -15.438  35.060  1.00 41.66 LIG 0.21  C 
BRANCH 19 20
ATOM     20  C   GLY F 806      16.830 -16.226  35.939  1.00 41.93 LIG 0.21  C 
ATOM     21 O    GLY F 806      17.450 -17.207  35.501  1.00 42.62 LIG-0.29  OA
ENDBRANCH 19 20
ENDBRANCH 17 19
ENDBRANCH 5 15
ENDBRANCH 3 5
BRANCH 1 22
ATOM     22  CA  LEU F 804      13.417 -12.387  30.103  1.00 43.64 LIG 0.18  C 
BRANCH 22 23
ATOM     23  N   LEU F 804      12.610 -12.459  28.886  1.00 45.07 LIG-0.35  N 
ATOM     24  C   ASP F 803      11.281 -12.481  28.918  1.00 46.18 LIG 0.26  C 
ATOM     25 O    ASP F 803      10.635 -12.357  29.967  1.00 46.48 LIG-0.27  OA
ATOM     26 H    LEU F 804      13.069 -12.486  28.160  1.00 45.07 LIG 0.16  HD
BRANCH 24 27
ATOM     27  CA  ASP F 803      10.571 -12.661  27.565  1.00 46.88 LIG 0.41  C 
ATOM     28  N   ASP F 803      10.724 -11.473  26.679  1.00 47.04 LIG 0.61  N 
BRANCH 27 29
ATOM     29  CB  ASP F 803      11.094 -13.911  26.850  1.00 47.42 LIG 0.16  C 
BRANCH 29 30
ATOM     30  CG  ASP F 803      10.376 -14.181  25.527  1.00 48.96 LIG 0.17  C 
ATOM     31 OD1  ASP F 803      10.721 -15.195  24.874  1.00 50.04 LIG-0.65  OA
ATOM     32 OD2  ASP F 803       9.480 -13.392  25.135  1.00 49.91 LIG-0.65  OA
ENDBRANCH 29 30
ENDBRANCH 27 29
ENDBRANCH 24 27
ENDBRANCH 22 23
BRANCH 22 33
ATOM     33  CB  LEU F 804      13.255 -11.005  30.749  1.00 43.69 LIG 0.04  C 
BRANCH 33 34
ATOM     34  CG  LEU F 804      14.044  -9.779  30.255  1.00 43.67 LIG-0.02  C 
ATOM     35  CD2 LEU F 804      15.082 -10.211  29.240  1.00 43.56 LIG 0.01  C 
ATOM     36  CD1 LEU F 804      14.681  -8.958  31.376  1.00 44.06 LIG 0.01  C 
ENDBRANCH 33 34
ENDBRANCH 22 33
ENDBRANCH 1 22
TORSDOF 14
ENDMDL
MODEL 101
USER: ADFR SOLUTION from run 146
USER: SCORE 11.701677 LL:  -3.039 LR:  -8.999 RR:   0.000 FEB:  -4.823
USER: RMSD 5.588582
USER: SEED 145
USER: STATUS no improvement in best in 15 clusters for 5 generations
USER: GENES 16
USER: genes 0 Translation |==|  0.57226 0.42493 0.40299
USER: genes 1 Rotation |==|  0.30046 0.81192 0.63966 0.80559
USER: genes 2 Torsion [C]-N--CA-[CB] |==|  0.73418
USER: genes 3 Torsion [N]-CA--CB-[CG] |==|  0.11800
USER: genes 4 Torsion [CA]-CB--CG-[CD2] |==|  0.21596
USER: genes 5 Torsion [CE2]-CZ--OH-[HH] |==|  0.20562
USER: genes 6 Torsion [N]-CA--C-[N] |==|  0.20975
USER: genes 7 Torsion [C]-N--CA-[C] |==|  0.41288
USER: genes 8 Torsion [N]-CA--C-[O] |==|  0.28105
USER: genes 9 Torsion [N]-C--CA-[N] |==|  0.94725
USER: genes 10 Torsion [C]-CA--N-[C] |==|  0.81901
USER: genes 11 Torsion [N]-C--CA-[N] |==|  0.31259
USER: genes 12 Torsion [C]-CA--CB-[CG] |==|  0.75081
USER: genes 13 Torsion [CA]-CB--CG-[OD1] |==|  0.24655
USER: genes 14 Torsion [C]-CA--CB-[CG] |==|  0.15834
USER: genes 15 Torsion [CA]-CB--CG-[CD2] |==|  0.77272
ROOT
ATOM      1  C   LEU F 804      12.930 -13.076  30.889  1.00 42.60 LIG 0.24  C 
ATOM      2 O    LEU F 804      13.238 -12.889  29.707  1.00 42.72 LIG-0.27  OA
ATOM      3  N   TYR F 805      11.992 -12.364  31.517  1.00 41.09 LIG-0.35  N 
ATOM      4 H    TYR F 805      11.894 -12.354  32.372  1.00 41.09 LIG 0.16  HD
ENDROOT
BRANCH 3 5
ATOM      5  CA  TYR F 805      11.026 -11.517  30.793  1.00 40.08 LIG 0.18  C 
BRANCH 5 6
ATOM      6  CB  TYR F 805      11.536 -10.070  30.756  1.00 38.23 LIG 0.07  C 
BRANCH 6 7
ATOM      7  CG  TYR F 805      13.013  -9.972  30.463  1.00 36.43 LIG-0.06  A 
ATOM      8  CD2 TYR F 805      13.491 -10.126  29.165  1.00 35.39 LIG 0.01  A 
ATOM      9  CE2 TYR F 805      14.856 -10.055  28.885  1.00 33.62 LIG 0.04  A 
ATOM     10  CZ  TYR F 805      15.752  -9.821  29.909  1.00 33.40 LIG 0.07  A 
ATOM     11  CE1 TYR F 805      15.304  -9.659  31.216  1.00 31.77 LIG 0.04  A 
ATOM     12  CD1 TYR F 805      13.938  -9.736  31.486  1.00 33.46 LIG 0.01  A 
BRANCH 10 13
ATOM     13 OH   TYR F 805      17.096  -9.743  29.615  1.00 32.97 LIG-0.36  OA
ATOM     14 HH   TYR F 805      17.257  -9.013  29.233  1.00 32.97 LIG 0.22  HD
ENDBRANCH 10 13
ENDBRANCH 6 7
ENDBRANCH 5 6
BRANCH 5 15
ATOM     15  C   TYR F 805      10.712 -11.994  29.362  1.00 40.65 LIG 0.24  C 
ATOM     16 O    TYR F 805      11.208 -11.405  28.399  1.00 41.05 LIG-0.27  OA
ATOM     17  N   GLY F 806       9.908 -13.057  29.210  1.00 41.21 LIG-0.35  N 
ATOM     18 H    GLY F 806       9.631 -13.321  28.440  1.00 41.21 LIG 0.16  HD
BRANCH 17 19
ATOM     19  CA  GLY F 806       9.406 -13.893  30.324  1.00 41.66 LIG 0.21  C 
BRANCH 19 20
ATOM     20  C   GLY F 806       8.032 -14.514  30.116  1.00 41.93 LIG 0.21  C 
ATOM     21 O    GLY F 806       7.902 -15.702  29.785  1.00 42.62 LIG-0.29  OA
ENDBRANCH 19 20
ENDBRANCH 17 19
ENDBRANCH 5 15
ENDBRANCH 3 5
BRANCH 1 22
ATOM     22  CA  LEU F 804      13.644 -14.171  31.703  1.00 43.64 LIG 0.18  C 
BRANCH 22 23
ATOM     23  N   LEU F 804      13.547 -14.044  33.157  1.00 45.07 LIG-0.35  N 
ATOM     24  C   ASP F 803      14.095 -13.028  33.816  1.00 46.18 LIG 0.26  C 
ATOM     25 O    ASP F 803      14.649 -12.080  33.244  1.00 46.48 LIG-0.27  OA
ATOM     26 H    LEU F 804      13.110 -14.678  33.537  1.00 45.07 LIG 0.16  HD
BRANCH 24 27
ATOM     27  CA  ASP F 803      13.998 -13.082  35.351  1.00 46.88 LIG 0.41  C 
ATOM     28  N   ASP F 803      15.327 -13.270  35.999  1.00 47.04 LIG 0.61  N 
BRANCH 27 29
ATOM     29  CB  ASP F 803      13.337 -11.808  35.889  1.00 47.42 LIG 0.16  C 
BRANCH 29 30
ATOM     30  CG  ASP F 803      14.346 -10.699  36.192  1.00 48.96 LIG 0.17  C 
ATOM     31 OD1  ASP F 803      14.639  -9.910  35.263  1.00 50.04 LIG-0.65  OA
ATOM     32 OD2  ASP F 803      14.846 -10.614  37.342  1.00 49.91 LIG-0.65  OA
ENDBRANCH 29 30
ENDBRANCH 27 29
ENDBRANCH 24 27
ENDBRANCH 22 23
BRANCH 22 33
ATOM     33  CB  LEU F 804      13.152 -15.559  31.272  1.00 43.69 LIG 0.04  C 
BRANCH 33 34
ATOM     34  CG  LEU F 804      13.247 -16.037  29.812  1.00 43.67 LIG-0.02  C 
ATOM     35  CD2 LEU F 804      12.083 -15.486  29.013  1.00 43.56 LIG 0.01  C 
ATOM     36  CD1 LEU F 804      13.346 -17.554  29.662  1.00 44.06 LIG 0.01  C 
ENDBRANCH 33 34
ENDBRANCH 22 33
ENDBRANCH 1 22
TORSDOF 14
ENDMDL
MODEL 102
USER: ADFR SOLUTION from run 127
USER: SCORE 11.282820 LL:  -2.928 LR:  -9.000 RR:   0.000 FEB:  -4.823
USER: RMSD 7.395904
USER: SEED 126
USER: STATUS no improvement in best in 26 clusters for 5 generations
USER: GENES 16
USER: genes 0 Translation |==|  0.61282 0.65422 0.50030
USER: genes 1 Rotation |==|  0.55383 0.69060 0.04419 0.55490
USER: genes 2 Torsion [C]-N--CA-[CB] |==|  0.82427
USER: genes 3 Torsion [N]-CA--CB-[CG] |==|  0.38727
USER: genes 4 Torsion [CA]-CB--CG-[CD2] |==|  0.74004
USER: genes 5 Torsion [CE2]-CZ--OH-[HH] |==|  0.99314
USER: genes 6 Torsion [N]-CA--C-[N] |==|  0.38404
USER: genes 7 Torsion [C]-N--CA-[C] |==|  0.83716
USER: genes 8 Torsion [N]-CA--C-[O] |==|  0.96906
USER: genes 9 Torsion [N]-C--CA-[N] |==|  0.67119
USER: genes 10 Torsion [C]-CA--N-[C] |==|  0.12787
USER: genes 11 Torsion [N]-C--CA-[N] |==|  0.38678
USER: genes 12 Torsion [C]-CA--CB-[CG] |==|  0.81512
USER: genes 13 Torsion [CA]-CB--CG-[OD1] |==|  0.34633
USER: genes 14 Torsion [C]-CA--CB-[CG] |==|  0.51855
USER: genes 15 Torsion [CA]-CB--CG-[CD2] |==|  0.72418
ROOT
ATOM      1  C   LEU F 804      13.538  -8.433  32.640  1.00 42.60 LIG 0.24  C 
ATOM      2 O    LEU F 804      12.389  -8.886  32.614  1.00 42.72 LIG-0.27  OA
ATOM      3  N   TYR F 805      14.593  -9.096  32.161  1.00 41.09 LIG-0.35  N 
ATOM      4 H    TYR F 805      15.408  -8.882  32.333  1.00 41.09 LIG 0.16  HD
ENDROOT
BRANCH 3 5
ATOM      5  CA  TYR F 805      14.453 -10.272  31.281  1.00 40.08 LIG 0.18  C 
BRANCH 5 6
ATOM      6  CB  TYR F 805      13.742 -11.400  32.040  1.00 38.23 LIG 0.07  C 
BRANCH 6 7
ATOM      7  CG  TYR F 805      12.738 -12.141  31.191  1.00 36.43 LIG-0.06  A 
ATOM      8  CD2 TYR F 805      11.397 -11.769  31.189  1.00 35.39 LIG 0.01  A 
ATOM      9  CE2 TYR F 805      10.457 -12.458  30.422  1.00 33.62 LIG 0.04  A 
ATOM     10  CZ  TYR F 805      10.860 -13.526  29.645  1.00 33.40 LIG 0.07  A 
ATOM     11  CE1 TYR F 805      12.194 -13.919  29.623  1.00 31.77 LIG 0.04  A 
ATOM     12  CD1 TYR F 805      13.126 -13.227  30.397  1.00 33.46 LIG 0.01  A 
BRANCH 10 13
ATOM     13 OH   TYR F 805       9.922 -14.190  28.885  1.00 32.97 LIG-0.36  OA
ATOM     14 HH   TYR F 805       9.163 -13.858  29.024  1.00 32.97 LIG 0.22  HD
ENDBRANCH 10 13
ENDBRANCH 6 7
ENDBRANCH 5 6
BRANCH 5 15
ATOM     15  C   TYR F 805      13.717  -9.990  29.958  1.00 40.65 LIG 0.24  C 
ATOM     16 O    TYR F 805      12.720  -9.264  29.956  1.00 41.05 LIG-0.27  OA
ATOM     17  N   GLY F 806      14.199 -10.542  28.834  1.00 41.21 LIG-0.35  N 
ATOM     18 H    GLY F 806      13.788 -10.490  28.080  1.00 41.21 LIG 0.16  HD
BRANCH 17 19
ATOM     19  CA  GLY F 806      15.470 -11.295  28.749  1.00 41.66 LIG 0.21  C 
BRANCH 19 20
ATOM     20  C   GLY F 806      16.719 -10.532  29.166  1.00 41.93 LIG 0.21  C 
ATOM     21 O    GLY F 806      16.696  -9.306  29.354  1.00 42.62 LIG-0.29  OA
ENDBRANCH 19 20
ENDBRANCH 17 19
ENDBRANCH 5 15
ENDBRANCH 3 5
BRANCH 1 22
ATOM     22  CA  LEU F 804      13.800  -7.044  33.251  1.00 43.64 LIG 0.18  C 
BRANCH 22 23
ATOM     23  N   LEU F 804      13.462  -6.901  34.667  1.00 45.07 LIG-0.35  N 
ATOM     24  C   ASP F 803      13.815  -7.806  35.573  1.00 46.18 LIG 0.26  C 
ATOM     25 O    ASP F 803      14.521  -8.786  35.301  1.00 46.48 LIG-0.27  OA
ATOM     26 H    LEU F 804      13.021  -6.186  34.853  1.00 45.07 LIG 0.16  HD
BRANCH 24 27
ATOM     27  CA  ASP F 803      13.302  -7.571  37.005  1.00 46.88 LIG 0.41  C 
ATOM     28  N   ASP F 803      12.852  -8.830  37.663  1.00 47.04 LIG 0.61  N 
BRANCH 27 29
ATOM     29  CB  ASP F 803      14.386  -6.902  37.857  1.00 47.42 LIG 0.16  C 
BRANCH 29 30
ATOM     30  CG  ASP F 803      15.595  -7.808  38.096  1.00 48.96 LIG 0.17  C 
ATOM     31 OD1  ASP F 803      16.723  -7.369  37.770  1.00 50.04 LIG-0.65  OA
ATOM     32 OD2  ASP F 803      15.426  -8.946  38.600  1.00 49.91 LIG-0.65  OA
ENDBRANCH 29 30
ENDBRANCH 27 29
ENDBRANCH 24 27
ENDBRANCH 22 23
BRANCH 22 33
ATOM     33  CB  LEU F 804      15.260  -6.631  33.023  1.00 43.69 LIG 0.04  C 
BRANCH 33 34
ATOM     34  CG  LEU F 804      15.851  -5.357  33.654  1.00 43.67 LIG-0.02  C 
ATOM     35  CD2 LEU F 804      15.866  -4.237  32.633  1.00 43.56 LIG 0.01  C 
ATOM     36  CD1 LEU F 804      17.235  -5.556  34.271  1.00 44.06 LIG 0.01  C 
ENDBRANCH 33 34
ENDBRANCH 22 33
ENDBRANCH 1 22
TORSDOF 14
ENDMDL
MODEL 103
USER: ADFR SOLUTION from run 198
USER: SCORE 11.809857 LL:  -3.187 LR:  -9.000 RR:   0.000 FEB:  -4.823
USER: RMSD 6.775527
USER: SEED 197
USER: STATUS no improvement in best in 29 clusters for 5 generations
USER: GENES 16
USER: genes 0 Translation |==|  0.57007 0.38314 0.37895
USER: genes 1 Rotation |==|  0.92646 0.51793 0.44947 0.75545
USER: genes 2 Torsion [C]-N--CA-[CB] |==|  0.78757
USER: genes 3 Torsion [N]-CA--CB-[CG] |==|  0.74036
USER: genes 4 Torsion [CA]-CB--CG-[CD2] |==|  0.61775
USER: genes 5 Torsion [CE2]-CZ--OH-[HH] |==|  0.85920
USER: genes 6 Torsion [N]-CA--C-[N] |==|  0.17249
USER: genes 7 Torsion [C]-N--CA-[C] |==|  0.56320
USER: genes 8 Torsion [N]-CA--C-[O] |==|  0.90390
USER: genes 9 Torsion [N]-C--CA-[N] |==|  0.94685
USER: genes 10 Torsion [C]-CA--N-[C] |==|  0.82187
USER: genes 11 Torsion [N]-C--CA-[N] |==|  0.30946
USER: genes 12 Torsion [C]-CA--CB-[CG] |==|  0.78305
USER: genes 13 Torsion [CA]-CB--CG-[OD1] |==|  0.85074
USER: genes 14 Torsion [C]-CA--CB-[CG] |==|  0.09619
USER: genes 15 Torsion [CA]-CB--CG-[CD2] |==|  0.55118
ROOT
ATOM      1  C   LEU F 804      12.897 -13.922  30.456  1.00 42.60 LIG 0.24  C 
ATOM      2 O    LEU F 804      13.968 -14.357  30.018  1.00 42.72 LIG-0.27  OA
ATOM      3  N   TYR F 805      12.296 -14.425  31.537  1.00 41.09 LIG-0.35  N 
ATOM      4 H    TYR F 805      11.478 -14.262  31.745  1.00 41.09 LIG 0.16  HD
ENDROOT
BRANCH 3 5
ATOM      5  CA  TYR F 805      12.990 -15.318  32.484  1.00 40.08 LIG 0.18  C 
BRANCH 5 6
ATOM      6  CB  TYR F 805      13.101 -16.723  31.879  1.00 38.23 LIG 0.07  C 
BRANCH 6 7
ATOM      7  CG  TYR F 805      11.967 -17.632  32.285  1.00 36.43 LIG-0.06  A 
ATOM      8  CD2 TYR F 805      12.208 -18.956  32.638  1.00 35.39 LIG 0.01  A 
ATOM      9  CE2 TYR F 805      11.166 -19.810  32.998  1.00 33.62 LIG 0.04  A 
ATOM     10  CZ  TYR F 805       9.869 -19.337  33.012  1.00 33.40 LIG 0.07  A 
ATOM     11  CE1 TYR F 805       9.596 -18.017  32.668  1.00 31.77 LIG 0.04  A 
ATOM     12  CD1 TYR F 805      10.645 -17.172  32.305  1.00 33.46 LIG 0.01  A 
BRANCH 10 13
ATOM     13 OH   TYR F 805       8.851 -20.189  33.379  1.00 32.97 LIG-0.36  OA
ATOM     14 HH   TYR F 805       8.909 -20.902  32.938  1.00 32.97 LIG 0.22  HD
ENDBRANCH 10 13
ENDBRANCH 6 7
ENDBRANCH 5 6
BRANCH 5 15
ATOM     15  C   TYR F 805      14.385 -14.825  32.913  1.00 40.65 LIG 0.24  C 
ATOM     16 O    TYR F 805      15.382 -15.497  32.638  1.00 41.05 LIG-0.27  OA
ATOM     17  N   GLY F 806      14.471 -13.658  33.570  1.00 41.21 LIG-0.35  N 
ATOM     18 H    GLY F 806      15.208 -13.371  33.906  1.00 41.21 LIG 0.16  HD
BRANCH 17 19
ATOM     19  CA  GLY F 806      13.334 -12.739  33.795  1.00 41.66 LIG 0.21  C 
BRANCH 19 20
ATOM     20  C   GLY F 806      13.702 -11.285  34.060  1.00 41.93 LIG 0.21  C 
ATOM     21 O    GLY F 806      14.728 -10.982  34.688  1.00 42.62 LIG-0.29  OA
ENDBRANCH 19 20
ENDBRANCH 17 19
ENDBRANCH 5 15
ENDBRANCH 3 5
BRANCH 1 22
ATOM     22  CA  LEU F 804      12.197 -12.750  29.744  1.00 43.64 LIG 0.18  C 
BRANCH 22 23
ATOM     23  N   LEU F 804      10.774 -12.589  30.039  1.00 45.07 LIG-0.35  N 
ATOM     24  C   ASP F 803       9.874 -13.508  29.705  1.00 46.18 LIG 0.26  C 
ATOM     25 O    ASP F 803      10.183 -14.596  29.201  1.00 46.48 LIG-0.27  OA
ATOM     26 H    LEU F 804      10.579 -11.855  30.442  1.00 45.07 LIG 0.16  HD
BRANCH 24 27
ATOM     27  CA  ASP F 803       8.403 -13.154  29.989  1.00 46.88 LIG 0.41  C 
ATOM     28  N   ASP F 803       7.617 -12.947  28.740  1.00 47.04 LIG 0.61  N 
BRANCH 27 29
ATOM     29  CB  ASP F 803       7.745 -14.247  30.838  1.00 47.42 LIG 0.16  C 
BRANCH 29 30
ATOM     30  CG  ASP F 803       7.359 -15.481  30.021  1.00 48.96 LIG 0.17  C 
ATOM     31 OD1  ASP F 803       6.645 -15.306  29.005  1.00 50.04 LIG-0.65  OA
ATOM     32 OD2  ASP F 803       7.759 -16.615  30.385  1.00 49.91 LIG-0.65  OA
ENDBRANCH 29 30
ENDBRANCH 27 29
ENDBRANCH 24 27
ENDBRANCH 22 23
BRANCH 22 33
ATOM     33  CB  LEU F 804      12.937 -11.437  30.031  1.00 43.69 LIG 0.04  C 
BRANCH 33 34
ATOM     34  CG  LEU F 804      14.467 -11.384  30.190  1.00 43.67 LIG-0.02  C 
ATOM     35  CD2 LEU F 804      14.866 -10.104  30.897  1.00 43.56 LIG 0.01  C 
ATOM     36  CD1 LEU F 804      15.233 -11.547  28.878  1.00 44.06 LIG 0.01  C 
ENDBRANCH 33 34
ENDBRANCH 22 33
ENDBRANCH 1 22
TORSDOF 14
ENDMDL
MODEL 104
USER: ADFR SOLUTION from run 190
USER: SCORE 11.328472 LL:  -2.892 LR:  -8.989 RR:   0.000 FEB:  -4.813
USER: RMSD 7.733884
USER: SEED 189
USER: STATUS no improvement in best in 22 clusters for 5 generations
USER: GENES 16
USER: genes 0 Translation |==|  0.51784 0.45219 0.35246
USER: genes 1 Rotation |==|  0.92084 0.44821 0.25220 0.59385
USER: genes 2 Torsion [C]-N--CA-[CB] |==|  0.53717
USER: genes 3 Torsion [N]-CA--CB-[CG] |==|  0.53115
USER: genes 4 Torsion [CA]-CB--CG-[CD2] |==|  0.14990
USER: genes 5 Torsion [CE2]-CZ--OH-[HH] |==|  0.01382
USER: genes 6 Torsion [N]-CA--C-[N] |==|  0.37062
USER: genes 7 Torsion [C]-N--CA-[C] |==|  0.86333
USER: genes 8 Torsion [N]-CA--C-[O] |==|  0.32139
USER: genes 9 Torsion [N]-C--CA-[N] |==|  0.06081
USER: genes 10 Torsion [C]-CA--N-[C] |==|  0.70660
USER: genes 11 Torsion [N]-C--CA-[N] |==|  0.77551
USER: genes 12 Torsion [C]-CA--CB-[CG] |==|  0.64448
USER: genes 13 Torsion [CA]-CB--CG-[OD1] |==|  0.76415
USER: genes 14 Torsion [C]-CA--CB-[CG] |==|  0.75997
USER: genes 15 Torsion [CA]-CB--CG-[CD2] |==|  0.74417
ROOT
ATOM      1  C   LEU F 804      12.114 -12.524  29.979  1.00 42.60 LIG 0.24  C 
ATOM      2 O    LEU F 804      12.295 -13.038  28.870  1.00 42.72 LIG-0.27  OA
ATOM      3  N   TYR F 805      11.715 -13.220  31.046  1.00 41.09 LIG-0.35  N 
ATOM      4 H    TYR F 805      11.412 -12.857  31.765  1.00 41.09 LIG 0.16  HD
ENDROOT
BRANCH 3 5
ATOM      5  CA  TYR F 805      11.759 -14.694  31.090  1.00 40.08 LIG 0.18  C 
BRANCH 5 6
ATOM      6  CB  TYR F 805      10.940 -15.198  32.285  1.00 38.23 LIG 0.07  C 
BRANCH 6 7
ATOM      7  CG  TYR F 805      11.146 -16.666  32.566  1.00 36.43 LIG-0.06  A 
ATOM      8  CD2 TYR F 805      12.425 -17.181  32.752  1.00 35.39 LIG 0.01  A 
ATOM      9  CE2 TYR F 805      12.629 -18.540  32.994  1.00 33.62 LIG 0.04  A 
ATOM     10  CZ  TYR F 805      11.545 -19.392  33.059  1.00 33.40 LIG 0.07  A 
ATOM     11  CE1 TYR F 805      10.254 -18.906  32.881  1.00 31.77 LIG 0.04  A 
ATOM     12  CD1 TYR F 805      10.061 -17.547  32.635  1.00 33.46 LIG 0.01  A 
BRANCH 10 13
ATOM     13 OH   TYR F 805      11.762 -20.729  33.309  1.00 32.97 LIG-0.36  OA
ATOM     14 HH   TYR F 805      12.578 -20.856  33.465  1.00 32.97 LIG 0.22  HD
ENDBRANCH 10 13
ENDBRANCH 6 7
ENDBRANCH 5 6
BRANCH 5 15
ATOM     15  C   TYR F 805      11.273 -15.381  29.799  1.00 40.65 LIG 0.24  C 
ATOM     16 O    TYR F 805      10.230 -15.001  29.260  1.00 41.05 LIG-0.27  OA
ATOM     17  N   GLY F 806      12.016 -16.376  29.292  1.00 41.21 LIG-0.35  N 
ATOM     18 H    GLY F 806      11.757 -16.851  28.624  1.00 41.21 LIG 0.16  HD
BRANCH 17 19
ATOM     19  CA  GLY F 806      13.345 -16.774  29.807  1.00 41.66 LIG 0.21  C 
BRANCH 19 20
ATOM     20  C   GLY F 806      14.341 -15.642  30.010  1.00 41.93 LIG 0.21  C 
ATOM     21 O    GLY F 806      14.766 -15.349  31.138  1.00 42.62 LIG-0.29  OA
ENDBRANCH 19 20
ENDBRANCH 17 19
ENDBRANCH 5 15
ENDBRANCH 3 5
BRANCH 1 22
ATOM     22  CA  LEU F 804      12.346 -11.014  30.171  1.00 43.64 LIG 0.18  C 
BRANCH 22 23
ATOM     23  N   LEU F 804      12.594 -10.581  31.547  1.00 45.07 LIG-0.35  N 
ATOM     24  C   ASP F 803      11.676  -9.941  32.263  1.00 46.18 LIG 0.26  C 
ATOM     25 O    ASP F 803      10.526  -9.740  31.852  1.00 46.48 LIG-0.27  OA
ATOM     26 H    LEU F 804      13.377 -10.778  31.841  1.00 45.07 LIG 0.16  HD
BRANCH 24 27
ATOM     27  CA  ASP F 803      12.116  -9.460  33.657  1.00 46.88 LIG 0.41  C 
ATOM     28  N   ASP F 803      12.073 -10.547  34.675  1.00 47.04 LIG 0.61  N 
BRANCH 27 29
ATOM     29  CB  ASP F 803      13.527  -8.866  33.596  1.00 47.42 LIG 0.16  C 
BRANCH 29 30
ATOM     30  CG  ASP F 803      14.472  -9.474  34.634  1.00 48.96 LIG 0.17  C 
ATOM     31 OD1  ASP F 803      14.462  -8.983  35.788  1.00 50.04 LIG-0.65  OA
ATOM     32 OD2  ASP F 803      15.221 -10.428  34.306  1.00 49.91 LIG-0.65  OA
ENDBRANCH 29 30
ENDBRANCH 27 29
ENDBRANCH 24 27
ENDBRANCH 22 23
BRANCH 22 33
ATOM     33  CB  LEU F 804      13.486 -10.533  29.264  1.00 43.69 LIG 0.04  C 
BRANCH 33 34
ATOM     34  CG  LEU F 804      14.959 -10.607  29.703  1.00 43.67 LIG-0.02  C 
ATOM     35  CD2 LEU F 804      15.363  -9.306  30.368  1.00 43.56 LIG 0.01  C 
ATOM     36  CD1 LEU F 804      15.924 -10.970  28.576  1.00 44.06 LIG 0.01  C 
ENDBRANCH 33 34
ENDBRANCH 22 33
ENDBRANCH 1 22
TORSDOF 14
ENDMDL
MODEL 105
USER: ADFR SOLUTION from run 91
USER: SCORE 11.490114 LL:  -3.092 LR:  -8.989 RR:   0.000 FEB:  -4.812
USER: RMSD 6.451350
USER: SEED 90
USER: STATUS no improvement in best in 12 clusters for 5 generations
USER: GENES 16
USER: genes 0 Translation |==|  0.48938 0.55197 0.37497
USER: genes 1 Rotation |==|  0.47636 0.44638 0.84435 0.85776
USER: genes 2 Torsion [C]-N--CA-[CB] |==|  0.49445
USER: genes 3 Torsion [N]-CA--CB-[CG] |==|  0.78172
USER: genes 4 Torsion [CA]-CB--CG-[CD2] |==|  0.48116
USER: genes 5 Torsion [CE2]-CZ--OH-[HH] |==|  0.39473
USER: genes 6 Torsion [N]-CA--C-[N] |==|  0.45837
USER: genes 7 Torsion [C]-N--CA-[C] |==|  0.66385
USER: genes 8 Torsion [N]-CA--C-[O] |==|  0.26329
USER: genes 9 Torsion [N]-C--CA-[N] |==|  0.00361
USER: genes 10 Torsion [C]-CA--N-[C] |==|  0.75300
USER: genes 11 Torsion [N]-C--CA-[N] |==|  0.45649
USER: genes 12 Torsion [C]-CA--CB-[CG] |==|  0.82559
USER: genes 13 Torsion [CA]-CB--CG-[OD1] |==|  0.40517
USER: genes 14 Torsion [C]-CA--CB-[CG] |==|  0.41659
USER: genes 15 Torsion [CA]-CB--CG-[CD2] |==|  0.22008
ROOT
ATOM      1  C   LEU F 804      11.687 -10.504  30.384  1.00 42.60 LIG 0.24  C 
ATOM      2 O    LEU F 804      11.620  -9.387  30.911  1.00 42.72 LIG-0.27  OA
ATOM      3  N   TYR F 805      10.610 -11.244  30.111  1.00 41.09 LIG-0.35  N 
ATOM      4 H    TYR F 805      10.645 -12.082  29.919  1.00 41.09 LIG 0.16  HD
ENDROOT
BRANCH 3 5
ATOM      5  CA  TYR F 805       9.245 -10.685  30.115  1.00 40.08 LIG 0.18  C 
BRANCH 5 6
ATOM      6  CB  TYR F 805       8.242 -11.775  29.715  1.00 38.23 LIG 0.07  C 
BRANCH 6 7
ATOM      7  CG  TYR F 805       8.202 -12.025  28.227  1.00 36.43 LIG-0.06  A 
ATOM      8  CD2 TYR F 805       7.454 -13.073  27.702  1.00 35.39 LIG 0.01  A 
ATOM      9  CE2 TYR F 805       7.424 -13.324  26.330  1.00 33.62 LIG 0.04  A 
ATOM     10  CZ  TYR F 805       8.144 -12.516  25.473  1.00 33.40 LIG 0.07  A 
ATOM     11  CE1 TYR F 805       8.898 -11.457  25.968  1.00 31.77 LIG 0.04  A 
ATOM     12  CD1 TYR F 805       8.925 -11.217  27.341  1.00 33.46 LIG 0.01  A 
BRANCH 10 13
ATOM     13 OH   TYR F 805       8.096 -12.770  24.119  1.00 32.97 LIG-0.36  OA
ATOM     14 HH   TYR F 805       8.087 -12.043  23.698  1.00 32.97 LIG 0.22  HD
ENDBRANCH 10 13
ENDBRANCH 6 7
ENDBRANCH 5 6
BRANCH 5 15
ATOM     15  C   TYR F 805       8.822 -10.055  31.455  1.00 40.65 LIG 0.24  C 
ATOM     16 O    TYR F 805       9.482 -10.280  32.472  1.00 41.05 LIG-0.27  OA
ATOM     17  N   GLY F 806       7.740  -9.262  31.469  1.00 41.21 LIG-0.35  N 
ATOM     18 H    GLY F 806       7.406  -8.948  32.197  1.00 41.21 LIG 0.16  HD
BRANCH 17 19
ATOM     19  CA  GLY F 806       6.999  -8.836  30.261  1.00 41.66 LIG 0.21  C 
BRANCH 19 20
ATOM     20  C   GLY F 806       6.911  -7.333  30.035  1.00 41.93 LIG 0.21  C 
ATOM     21 O    GLY F 806       7.721  -6.740  29.306  1.00 42.62 LIG-0.29  OA
ENDBRANCH 19 20
ENDBRANCH 17 19
ENDBRANCH 5 15
ENDBRANCH 3 5
BRANCH 1 22
ATOM     22  CA  LEU F 804      13.060 -11.097  30.018  1.00 43.64 LIG 0.18  C 
BRANCH 22 23
ATOM     23  N   LEU F 804      13.031 -12.411  29.376  1.00 45.07 LIG-0.35  N 
ATOM     24  C   ASP F 803      13.051 -13.541  30.076  1.00 46.18 LIG 0.26  C 
ATOM     25 O    ASP F 803      13.012 -13.562  31.313  1.00 46.48 LIG-0.27  OA
ATOM     26 H    LEU F 804      12.999 -12.382  28.517  1.00 45.07 LIG 0.16  HD
BRANCH 24 27
ATOM     27  CA  ASP F 803      13.119 -14.844  29.261  1.00 46.88 LIG 0.41  C 
ATOM     28  N   ASP F 803      13.510 -16.016  30.094  1.00 47.04 LIG 0.61  N 
BRANCH 27 29
ATOM     29  CB  ASP F 803      11.774 -15.119  28.581  1.00 47.42 LIG 0.16  C 
BRANCH 29 30
ATOM     30  CG  ASP F 803      10.637 -15.334  29.582  1.00 48.96 LIG 0.17  C 
ATOM     31 OD1  ASP F 803       9.495 -14.930  29.260  1.00 50.04 LIG-0.65  OA
ATOM     32 OD2  ASP F 803      10.876 -15.897  30.679  1.00 49.91 LIG-0.65  OA
ENDBRANCH 29 30
ENDBRANCH 27 29
ENDBRANCH 24 27
ENDBRANCH 22 23
BRANCH 22 33
ATOM     33  CB  LEU F 804      13.847 -10.112  29.144  1.00 43.69 LIG 0.04  C 
BRANCH 33 34
ATOM     34  CG  LEU F 804      15.385 -10.054  29.168  1.00 43.67 LIG-0.02  C 
ATOM     35  CD2 LEU F 804      15.955 -11.182  28.332  1.00 43.56 LIG 0.01  C 
ATOM     36  CD1 LEU F 804      15.983 -10.056  30.574  1.00 44.06 LIG 0.01  C 
ENDBRANCH 33 34
ENDBRANCH 22 33
ENDBRANCH 1 22
TORSDOF 14
ENDMDL
MODEL 106
USER: ADFR SOLUTION from run 51
USER: SCORE 11.478145 LL:  -3.127 LR:  -8.985 RR:   0.000 FEB:  -4.809
USER: RMSD 6.603320
USER: SEED 50
USER: STATUS no improvement in best in 20 clusters for 5 generations
USER: GENES 16
USER: genes 0 Translation |==|  0.56040 0.46531 0.34450
USER: genes 1 Rotation |==|  0.97128 0.40793 0.39324 0.58958
USER: genes 2 Torsion [C]-N--CA-[CB] |==|  0.75000
USER: genes 3 Torsion [N]-CA--CB-[CG] |==|  0.01068
USER: genes 4 Torsion [CA]-CB--CG-[CD2] |==|  0.79092
USER: genes 5 Torsion [CE2]-CZ--OH-[HH] |==|  0.31796
USER: genes 6 Torsion [N]-CA--C-[N] |==|  0.20195
USER: genes 7 Torsion [C]-N--CA-[C] |==|  0.50167
USER: genes 8 Torsion [N]-CA--C-[O] |==|  0.30514
USER: genes 9 Torsion [N]-C--CA-[N] |==|  0.14951
USER: genes 10 Torsion [C]-CA--N-[C] |==|  0.74680
USER: genes 11 Torsion [N]-C--CA-[N] |==|  0.73687
USER: genes 12 Torsion [C]-CA--CB-[CG] |==|  0.63101
USER: genes 13 Torsion [CA]-CB--CG-[OD1] |==|  0.67121
USER: genes 14 Torsion [C]-CA--CB-[CG] |==|  0.84451
USER: genes 15 Torsion [CA]-CB--CG-[CD2] |==|  0.65435
ROOT
ATOM      1  C   LEU F 804      12.752 -12.258  29.836  1.00 42.60 LIG 0.24  C 
ATOM      2 O    LEU F 804      13.518 -12.865  29.080  1.00 42.72 LIG-0.27  OA
ATOM      3  N   TYR F 805      11.782 -12.863  30.525  1.00 41.09 LIG-0.35  N 
ATOM      4 H    TYR F 805      11.136 -12.442  30.906  1.00 41.09 LIG 0.16  HD
ENDROOT
BRANCH 3 5
ATOM      5  CA  TYR F 805      11.730 -14.327  30.699  1.00 40.08 LIG 0.18  C 
BRANCH 5 6
ATOM      6  CB  TYR F 805      10.926 -14.952  29.552  1.00 38.23 LIG 0.07  C 
BRANCH 6 7
ATOM      7  CG  TYR F 805      10.488 -13.943  28.518  1.00 36.43 LIG-0.06  A 
ATOM      8  CD2 TYR F 805       9.438 -13.069  28.779  1.00 35.39 LIG 0.01  A 
ATOM      9  CE2 TYR F 805       9.012 -12.144  27.825  1.00 33.62 LIG 0.04  A 
ATOM     10  CZ  TYR F 805       9.646 -12.088  26.599  1.00 33.40 LIG 0.07  A 
ATOM     11  CE1 TYR F 805      10.701 -12.947  26.311  1.00 31.77 LIG 0.04  A 
ATOM     12  CD1 TYR F 805      11.116 -13.871  27.270  1.00 33.46 LIG 0.01  A 
BRANCH 10 13
ATOM     13 OH   TYR F 805       9.221 -11.163  25.671  1.00 32.97 LIG-0.36  OA
ATOM     14 HH   TYR F 805       9.831 -10.601  25.536  1.00 32.97 LIG 0.22  HD
ENDBRANCH 10 13
ENDBRANCH 6 7
ENDBRANCH 5 6
BRANCH 5 15
ATOM     15  C   TYR F 805      13.111 -15.003  30.796  1.00 40.65 LIG 0.24  C 
ATOM     16 O    TYR F 805      13.534 -15.667  29.847  1.00 41.05 LIG-0.27  OA
ATOM     17  N   GLY F 806      13.821 -14.834  31.921  1.00 41.21 LIG-0.35  N 
ATOM     18 H    GLY F 806      14.559 -15.251  32.069  1.00 41.21 LIG 0.16  HD
BRANCH 17 19
ATOM     19  CA  GLY F 806      13.435 -13.931  33.028  1.00 41.66 LIG 0.21  C 
BRANCH 19 20
ATOM     20  C   GLY F 806      14.397 -13.883  34.207  1.00 41.93 LIG 0.21  C 
ATOM     21 O    GLY F 806      15.088 -12.879  34.438  1.00 42.62 LIG-0.29  OA
ENDBRANCH 19 20
ENDBRANCH 17 19
ENDBRANCH 5 15
ENDBRANCH 3 5
BRANCH 1 22
ATOM     22  CA  LEU F 804      12.895 -10.735  30.011  1.00 43.64 LIG 0.18  C 
BRANCH 22 23
ATOM     23  N   LEU F 804      13.027 -10.265  31.390  1.00 45.07 LIG-0.35  N 
ATOM     24  C   ASP F 803      11.974  -9.921  32.124  1.00 46.18 LIG 0.26  C 
ATOM     25 O    ASP F 803      10.809 -10.051  31.725  1.00 46.48 LIG-0.27  OA
ATOM     26 H    LEU F 804      13.837 -10.235  31.675  1.00 45.07 LIG 0.16  HD
BRANCH 24 27
ATOM     27  CA  ASP F 803      12.276  -9.350  33.521  1.00 46.88 LIG 0.41  C 
ATOM     28  N   ASP F 803      12.230 -10.393  34.583  1.00 47.04 LIG 0.61  N 
BRANCH 27 29
ATOM     29  CB  ASP F 803      13.645  -8.662  33.532  1.00 47.42 LIG 0.16  C 
BRANCH 29 30
ATOM     30  CG  ASP F 803      14.504  -9.070  34.730  1.00 48.96 LIG 0.17  C 
ATOM     31 OD1  ASP F 803      14.842  -8.171  35.535  1.00 50.04 LIG-0.65  OA
ATOM     32 OD2  ASP F 803      14.843 -10.272  34.869  1.00 49.91 LIG-0.65  OA
ENDBRANCH 29 30
ENDBRANCH 27 29
ENDBRANCH 24 27
ENDBRANCH 22 23
BRANCH 22 33
ATOM     33  CB  LEU F 804      14.068 -10.213  29.172  1.00 43.69 LIG 0.04  C 
BRANCH 33 34
ATOM     34  CG  LEU F 804      15.493 -10.774  29.330  1.00 43.67 LIG-0.02  C 
ATOM     35  CD2 LEU F 804      16.459  -9.646  29.635  1.00 43.56 LIG 0.01  C 
ATOM     36  CD1 LEU F 804      15.971 -11.597  28.135  1.00 44.06 LIG 0.01  C 
ENDBRANCH 33 34
ENDBRANCH 22 33
ENDBRANCH 1 22
TORSDOF 14
ENDMDL
MODEL 107
USER: ADFR SOLUTION from run 6
USER: SCORE 11.007560 LL:  -3.121 LR:  -8.994 RR:   0.000 FEB:  -4.818
USER: RMSD 6.482123
USER: SEED 688365
USER: STATUS no improvement in best in 19 clusters for 5 generations
USER: GENES 16
USER: genes 0 Translation |==|  0.56363 0.50621 0.36405
USER: genes 1 Rotation |==|  0.69439 0.88748 0.67673 0.67562
USER: genes 2 Torsion [C]-N--CA-[CB] |==|  0.49444
USER: genes 3 Torsion [N]-CA--CB-[CG] |==|  0.86286
USER: genes 4 Torsion [CA]-CB--CG-[CD2] |==|  0.39361
USER: genes 5 Torsion [CE2]-CZ--OH-[HH] |==|  0.55648
USER: genes 6 Torsion [N]-CA--C-[N] |==|  0.42810
USER: genes 7 Torsion [C]-N--CA-[C] |==|  0.27310
USER: genes 8 Torsion [N]-CA--C-[O] |==|  0.77569
USER: genes 9 Torsion [N]-C--CA-[N] |==|  0.53324
USER: genes 10 Torsion [C]-CA--N-[C] |==|  0.56259
USER: genes 11 Torsion [N]-C--CA-[N] |==|  0.25745
USER: genes 12 Torsion [C]-CA--CB-[CG] |==|  0.60176
USER: genes 13 Torsion [CA]-CB--CG-[OD1] |==|  0.72476
USER: genes 14 Torsion [C]-CA--CB-[CG] |==|  0.32115
USER: genes 15 Torsion [CA]-CB--CG-[CD2] |==|  0.72595
ROOT
ATOM      1  C   LEU F 804      12.800 -11.430  30.188  1.00 42.60 LIG 0.24  C 
ATOM      2 O    LEU F 804      12.639 -10.325  29.660  1.00 42.72 LIG-0.27  OA
ATOM      3  N   TYR F 805      13.562 -11.615  31.269  1.00 41.09 LIG-0.35  N 
ATOM      4 H    TYR F 805      13.829 -12.388  31.536  1.00 41.09 LIG 0.16  HD
ENDROOT
BRANCH 3 5
ATOM      5  CA  TYR F 805      14.020 -10.496  32.114  1.00 40.08 LIG 0.18  C 
BRANCH 5 6
ATOM      6  CB  TYR F 805      14.829 -11.043  33.297  1.00 38.23 LIG 0.07  C 
BRANCH 6 7
ATOM      7  CG  TYR F 805      14.131 -12.166  34.022  1.00 36.43 LIG-0.06  A 
ATOM      8  CD2 TYR F 805      14.849 -13.254  34.508  1.00 35.39 LIG 0.01  A 
ATOM      9  CE2 TYR F 805      14.211 -14.307  35.165  1.00 33.62 LIG 0.04  A 
ATOM     10  CZ  TYR F 805      12.843 -14.272  35.342  1.00 33.40 LIG 0.07  A 
ATOM     11  CE1 TYR F 805      12.098 -13.196  34.871  1.00 31.77 LIG 0.04  A 
ATOM     12  CD1 TYR F 805      12.744 -12.150  34.212  1.00 33.46 LIG 0.01  A 
BRANCH 10 13
ATOM     13 OH   TYR F 805      12.228 -15.314  36.001  1.00 32.97 LIG-0.36  OA
ATOM     14 HH   TYR F 805      11.411 -15.324  35.809  1.00 32.97 LIG 0.22  HD
ENDBRANCH 10 13
ENDBRANCH 6 7
ENDBRANCH 5 6
BRANCH 5 15
ATOM     15  C   TYR F 805      14.845  -9.433  31.365  1.00 40.65 LIG 0.24  C 
ATOM     16 O    TYR F 805      15.462  -9.746  30.343  1.00 41.05 LIG-0.27  OA
ATOM     17  N   GLY F 806      14.857  -8.182  31.849  1.00 41.21 LIG-0.35  N 
ATOM     18 H    GLY F 806      15.362  -7.566  31.526  1.00 41.21 LIG 0.16  HD
BRANCH 17 19
ATOM     19  CA  GLY F 806      14.023  -7.714  32.978  1.00 41.66 LIG 0.21  C 
BRANCH 19 20
ATOM     20  C   GLY F 806      14.711  -7.669  34.335  1.00 41.93 LIG 0.21  C 
ATOM     21 O    GLY F 806      14.845  -8.691  35.026  1.00 42.62 LIG-0.29  OA
ENDBRANCH 19 20
ENDBRANCH 17 19
ENDBRANCH 5 15
ENDBRANCH 3 5
BRANCH 1 22
ATOM     22  CA  LEU F 804      12.109 -12.671  29.595  1.00 43.64 LIG 0.18  C 
BRANCH 22 23
ATOM     23  N   LEU F 804      11.511 -12.491  28.271  1.00 45.07 LIG-0.35  N 
ATOM     24  C   ASP F 803      10.537 -13.276  27.823  1.00 46.18 LIG 0.26  C 
ATOM     25 O    ASP F 803      10.011 -14.154  28.519  1.00 46.48 LIG-0.27  OA
ATOM     26 H    LEU F 804      11.845 -11.840  27.820  1.00 45.07 LIG 0.16  HD
BRANCH 24 27
ATOM     27  CA  ASP F 803      10.079 -13.030  26.374  1.00 46.88 LIG 0.41  C 
ATOM     28  N   ASP F 803      10.801 -13.891  25.395  1.00 47.04 LIG 0.61  N 
BRANCH 27 29
ATOM     29  CB  ASP F 803       8.569 -13.257  26.246  1.00 47.42 LIG 0.16  C 
BRANCH 29 30
ATOM     30  CG  ASP F 803       8.177 -13.900  24.915  1.00 48.96 LIG 0.17  C 
ATOM     31 OD1  ASP F 803       7.747 -13.147  24.010  1.00 50.04 LIG-0.65  OA
ATOM     32 OD2  ASP F 803       8.290 -15.143  24.770  1.00 49.91 LIG-0.65  OA
ENDBRANCH 29 30
ENDBRANCH 27 29
ENDBRANCH 24 27
ENDBRANCH 22 23
BRANCH 22 33
ATOM     33  CB  LEU F 804      13.081 -13.858  29.566  1.00 43.69 LIG 0.04  C 
BRANCH 33 34
ATOM     34  CG  LEU F 804      12.838 -15.128  30.400  1.00 43.67 LIG-0.02  C 
ATOM     35  CD2 LEU F 804      13.660 -15.071  31.673  1.00 43.56 LIG 0.01  C 
ATOM     36  CD1 LEU F 804      13.092 -16.428  29.640  1.00 44.06 LIG 0.01  C 
ENDBRANCH 33 34
ENDBRANCH 22 33
ENDBRANCH 1 22
TORSDOF 14
ENDMDL
MODEL 108
USER: ADFR SOLUTION from run 46
USER: SCORE 12.160197 LL:  -3.436 LR:  -8.993 RR:   0.000 FEB:  -4.817
USER: RMSD 6.894433
USER: SEED 45
USER: STATUS no improvement in best in 15 clusters for 5 generations
USER: GENES 16
USER: genes 0 Translation |==|  0.59636 0.36705 0.38193
USER: genes 1 Rotation |==|  0.79345 0.33586 0.42015 0.86135
USER: genes 2 Torsion [C]-N--CA-[CB] |==|  0.77616
USER: genes 3 Torsion [N]-CA--CB-[CG] |==|  0.91010
USER: genes 4 Torsion [CA]-CB--CG-[CD2] |==|  0.34886
USER: genes 5 Torsion [CE2]-CZ--OH-[HH] |==|  0.07881
USER: genes 6 Torsion [N]-CA--C-[N] |==|  0.24342
USER: genes 7 Torsion [C]-N--CA-[C] |==|  0.30476
USER: genes 8 Torsion [N]-CA--C-[O] |==|  0.25116
USER: genes 9 Torsion [N]-C--CA-[N] |==|  0.92222
USER: genes 10 Torsion [C]-CA--N-[C] |==|  0.81775
USER: genes 11 Torsion [N]-C--CA-[N] |==|  0.10188
USER: genes 12 Torsion [C]-CA--CB-[CG] |==|  0.72709
USER: genes 13 Torsion [CA]-CB--CG-[OD1] |==|  0.72231
USER: genes 14 Torsion [C]-CA--CB-[CG] |==|  0.72612
USER: genes 15 Torsion [CA]-CB--CG-[CD2] |==|  0.49013
ROOT
ATOM      1  C   LEU F 804      13.291 -14.248  30.510  1.00 42.60 LIG 0.24  C 
ATOM      2 O    LEU F 804      13.849 -15.284  30.887  1.00 42.72 LIG-0.27  OA
ATOM      3  N   TYR F 805      12.525 -13.502  31.309  1.00 41.09 LIG-0.35  N 
ATOM      4 H    TYR F 805      11.992 -12.892  31.022  1.00 41.09 LIG 0.16  HD
ENDROOT
BRANCH 3 5
ATOM      5  CA  TYR F 805      12.526 -13.660  32.775  1.00 40.08 LIG 0.18  C 
BRANCH 5 6
ATOM      6  CB  TYR F 805      11.640 -14.851  33.165  1.00 38.23 LIG 0.07  C 
BRANCH 6 7
ATOM      7  CG  TYR F 805      10.471 -15.048  32.232  1.00 36.43 LIG-0.06  A 
ATOM      8  CD2 TYR F 805      10.256 -16.275  31.611  1.00 35.39 LIG 0.01  A 
ATOM      9  CE2 TYR F 805       9.189 -16.463  30.733  1.00 33.62 LIG 0.04  A 
ATOM     10  CZ  TYR F 805       8.324 -15.419  30.475  1.00 33.40 LIG 0.07  A 
ATOM     11  CE1 TYR F 805       8.510 -14.182  31.084  1.00 31.77 LIG 0.04  A 
ATOM     12  CD1 TYR F 805       9.583 -14.002  31.957  1.00 33.46 LIG 0.01  A 
BRANCH 10 13
ATOM     13 OH   TYR F 805       7.268 -15.623  29.614  1.00 32.97 LIG-0.36  OA
ATOM     14 HH   TYR F 805       7.042 -16.432  29.635  1.00 32.97 LIG 0.22  HD
ENDBRANCH 10 13
ENDBRANCH 6 7
ENDBRANCH 5 6
BRANCH 5 15
ATOM     15  C   TYR F 805      13.926 -13.828  33.395  1.00 40.65 LIG 0.24  C 
ATOM     16 O    TYR F 805      14.391 -14.958  33.557  1.00 41.05 LIG-0.27  OA
ATOM     17  N   GLY F 806      14.607 -12.722  33.731  1.00 41.21 LIG-0.35  N 
ATOM     18 H    GLY F 806      15.356 -12.750  34.153  1.00 41.21 LIG 0.16  HD
BRANCH 17 19
ATOM     19  CA  GLY F 806      14.168 -11.342  33.424  1.00 41.66 LIG 0.21  C 
BRANCH 19 20
ATOM     20  C   GLY F 806      13.718 -10.511  34.617  1.00 41.93 LIG 0.21  C 
ATOM     21 O    GLY F 806      14.517  -9.807  35.253  1.00 42.62 LIG-0.29  OA
ENDBRANCH 19 20
ENDBRANCH 17 19
ENDBRANCH 5 15
ENDBRANCH 3 5
BRANCH 1 22
ATOM     22  CA  LEU F 804      13.465 -13.771  29.056  1.00 43.64 LIG 0.18  C 
BRANCH 22 23
ATOM     23  N   LEU F 804      12.357 -12.988  28.510  1.00 45.07 LIG-0.35  N 
ATOM     24  C   ASP F 803      11.151 -13.510  28.313  1.00 46.18 LIG 0.26  C 
ATOM     25 O    ASP F 803      10.858 -14.664  28.654  1.00 46.48 LIG-0.27  OA
ATOM     26 H    LEU F 804      12.557 -12.171  28.332  1.00 45.07 LIG 0.16  HD
BRANCH 24 27
ATOM     27  CA  ASP F 803      10.114 -12.595  27.639  1.00 46.88 LIG 0.41  C 
ATOM     28  N   ASP F 803      10.721 -11.721  26.595  1.00 47.04 LIG 0.61  N 
BRANCH 27 29
ATOM     29  CB  ASP F 803       8.986 -13.428  27.023  1.00 47.42 LIG 0.16  C 
BRANCH 29 30
ATOM     30  CG  ASP F 803       9.171 -13.659  25.522  1.00 48.96 LIG 0.17  C 
ATOM     31 OD1  ASP F 803       8.516 -12.933  24.737  1.00 50.04 LIG-0.65  OA
ATOM     32 OD2  ASP F 803       9.956 -14.556  25.125  1.00 49.91 LIG-0.65  OA
ENDBRANCH 29 30
ENDBRANCH 27 29
ENDBRANCH 24 27
ENDBRANCH 22 23
BRANCH 22 33
ATOM     33  CB  LEU F 804      14.775 -12.985  28.909  1.00 43.69 LIG 0.04  C 
BRANCH 33 34
ATOM     34  CG  LEU F 804      14.805 -11.446  28.926  1.00 43.67 LIG-0.02  C 
ATOM     35  CD2 LEU F 804      16.239 -10.960  28.849  1.00 43.56 LIG 0.01  C 
ATOM     36  CD1 LEU F 804      14.079 -10.825  30.118  1.00 44.06 LIG 0.01  C 
ENDBRANCH 33 34
ENDBRANCH 22 33
ENDBRANCH 1 22
TORSDOF 14
ENDMDL
MODEL 109
USER: ADFR SOLUTION from run 167
USER: SCORE 11.271361 LL:  -2.760 LR:  -8.986 RR:   0.000 FEB:  -4.810
USER: RMSD 8.024293
USER: SEED 166
USER: STATUS no improvement in best in 8 clusters for 5 generations
USER: GENES 16
USER: genes 0 Translation |==|  0.27193 0.53685 0.18252
USER: genes 1 Rotation |==|  0.51526 0.85594 0.76038 0.73512
USER: genes 2 Torsion [C]-N--CA-[CB] |==|  0.11667
USER: genes 3 Torsion [N]-CA--CB-[CG] |==|  0.69040
USER: genes 4 Torsion [CA]-CB--CG-[CD2] |==|  0.34915
USER: genes 5 Torsion [CE2]-CZ--OH-[HH] |==|  0.90837
USER: genes 6 Torsion [N]-CA--C-[N] |==|  0.14875
USER: genes 7 Torsion [C]-N--CA-[C] |==|  0.51309
USER: genes 8 Torsion [N]-CA--C-[O] |==|  0.43125
USER: genes 9 Torsion [N]-C--CA-[N] |==|  0.94444
USER: genes 10 Torsion [C]-CA--N-[C] |==|  0.84989
USER: genes 11 Torsion [N]-C--CA-[N] |==|  0.45919
USER: genes 12 Torsion [C]-CA--CB-[CG] |==|  0.21993
USER: genes 13 Torsion [CA]-CB--CG-[OD1] |==|  0.77329
USER: genes 14 Torsion [C]-CA--CB-[CG] |==|  0.38817
USER: genes 15 Torsion [CA]-CB--CG-[CD2] |==|  0.50288
ROOT
ATOM      1  C   LEU F 804       8.425 -10.810  26.920  1.00 42.60 LIG 0.24  C 
ATOM      2 O    LEU F 804       8.087  -9.880  26.180  1.00 42.72 LIG-0.27  OA
ATOM      3  N   TYR F 805       8.406 -10.722  28.252  1.00 41.09 LIG-0.35  N 
ATOM      4 H    TYR F 805       8.803 -11.281  28.772  1.00 41.09 LIG 0.16  HD
ENDROOT
BRANCH 3 5
ATOM      5  CA  TYR F 805       7.693  -9.644  28.963  1.00 40.08 LIG 0.18  C 
BRANCH 5 6
ATOM      6  CB  TYR F 805       6.334  -9.399  28.294  1.00 38.23 LIG 0.07  C 
BRANCH 6 7
ATOM      7  CG  TYR F 805       6.252  -8.065  27.593  1.00 36.43 LIG-0.06  A 
ATOM      8  CD2 TYR F 805       5.886  -7.988  26.254  1.00 35.39 LIG 0.01  A 
ATOM      9  CE2 TYR F 805       5.824  -6.762  25.591  1.00 33.62 LIG 0.04  A 
ATOM     10  CZ  TYR F 805       6.125  -5.600  26.274  1.00 33.40 LIG 0.07  A 
ATOM     11  CE1 TYR F 805       6.490  -5.646  27.615  1.00 31.77 LIG 0.04  A 
ATOM     12  CD1 TYR F 805       6.554  -6.876  28.268  1.00 33.46 LIG 0.01  A 
BRANCH 10 13
ATOM     13 OH   TYR F 805       6.050  -4.397  25.608  1.00 32.97 LIG-0.36  OA
ATOM     14 HH   TYR F 805       6.262  -4.508  24.803  1.00 32.97 LIG 0.22  HD
ENDBRANCH 10 13
ENDBRANCH 6 7
ENDBRANCH 5 6
BRANCH 5 15
ATOM     15  C   TYR F 805       7.493  -9.902  30.468  1.00 40.65 LIG 0.24  C 
ATOM     16 O    TYR F 805       6.361  -9.844  30.954  1.00 41.05 LIG-0.27  OA
ATOM     17  N   GLY F 806       8.572 -10.196  31.210  1.00 41.21 LIG-0.35  N 
ATOM     18 H    GLY F 806       8.539 -10.269  32.066  1.00 41.21 LIG 0.16  HD
BRANCH 17 19
ATOM     19  CA  GLY F 806       9.927 -10.426  30.661  1.00 41.66 LIG 0.21  C 
BRANCH 19 20
ATOM     20  C   GLY F 806      10.984 -10.856  31.670  1.00 41.93 LIG 0.21  C 
ATOM     21 O    GLY F 806      11.986 -11.499  31.322  1.00 42.62 LIG-0.29  OA
ENDBRANCH 19 20
ENDBRANCH 17 19
ENDBRANCH 5 15
ENDBRANCH 3 5
BRANCH 1 22
ATOM     22  CA  LEU F 804       8.897 -12.142  26.310  1.00 43.64 LIG 0.18  C 
BRANCH 22 23
ATOM     23  N   LEU F 804       9.692 -12.997  27.193  1.00 45.07 LIG-0.35  N 
ATOM     24  C   ASP F 803      10.785 -12.556  27.808  1.00 46.18 LIG 0.26  C 
ATOM     25 O    ASP F 803      11.159 -11.378  27.746  1.00 46.48 LIG-0.27  OA
ATOM     26 H    LEU F 804       9.389 -13.797  27.274  1.00 45.07 LIG 0.16  HD
BRANCH 24 27
ATOM     27  CA  ASP F 803      11.572 -13.597  28.623  1.00 46.88 LIG 0.41  C 
ATOM     28  N   ASP F 803      12.939 -13.124  28.981  1.00 47.04 LIG 0.61  N 
BRANCH 27 29
ATOM     29  CB  ASP F 803      10.805 -13.970  29.896  1.00 47.42 LIG 0.16  C 
BRANCH 29 30
ATOM     30  CG  ASP F 803       9.675 -14.967  29.636  1.00 48.96 LIG 0.17  C 
ATOM     31 OD1  ASP F 803       8.588 -14.515  29.205  1.00 50.04 LIG-0.65  OA
ATOM     32 OD2  ASP F 803       9.863 -16.189  29.862  1.00 49.91 LIG-0.65  OA
ENDBRANCH 29 30
ENDBRANCH 27 29
ENDBRANCH 24 27
ENDBRANCH 22 23
BRANCH 22 33
ATOM     33  CB  LEU F 804       7.699 -12.932  25.768  1.00 43.69 LIG 0.04  C 
BRANCH 33 34
ATOM     34  CG  LEU F 804       7.769 -13.705  24.439  1.00 43.67 LIG-0.02  C 
ATOM     35  CD2 LEU F 804       6.433 -14.361  24.155  1.00 43.56 LIG 0.01  C 
ATOM     36  CD1 LEU F 804       8.906 -14.724  24.373  1.00 44.06 LIG 0.01  C 
ENDBRANCH 33 34
ENDBRANCH 22 33
ENDBRANCH 1 22
TORSDOF 14
ENDMDL
MODEL 110
USER: ADFR SOLUTION from run 10
USER: SCORE 11.674519 LL:  -3.362 LR:  -8.979 RR:   0.000 FEB:  -4.803
USER: RMSD 6.706039
USER: SEED 246633
USER: STATUS no improvement in best in 13 clusters for 5 generations
USER: GENES 16
USER: genes 0 Translation |==|  0.44092 0.51900 0.35711
USER: genes 1 Rotation |==|  0.03243 0.33858 0.47940 0.57000
USER: genes 2 Torsion [C]-N--CA-[CB] |==|  0.15830
USER: genes 3 Torsion [N]-CA--CB-[CG] |==|  0.71619
USER: genes 4 Torsion [CA]-CB--CG-[CD2] |==|  0.82633
USER: genes 5 Torsion [CE2]-CZ--OH-[HH] |==|  0.07017
USER: genes 6 Torsion [N]-CA--C-[N] |==|  0.20399
USER: genes 7 Torsion [C]-N--CA-[C] |==|  0.46929
USER: genes 8 Torsion [N]-CA--C-[O] |==|  0.97141
USER: genes 9 Torsion [N]-C--CA-[N] |==|  0.99346
USER: genes 10 Torsion [C]-CA--N-[C] |==|  0.73894
USER: genes 11 Torsion [N]-C--CA-[N] |==|  0.54845
USER: genes 12 Torsion [C]-CA--CB-[CG] |==|  0.76334
USER: genes 13 Torsion [CA]-CB--CG-[OD1] |==|  0.23453
USER: genes 14 Torsion [C]-CA--CB-[CG] |==|  0.97298
USER: genes 15 Torsion [CA]-CB--CG-[CD2] |==|  0.64957
ROOT
ATOM      1  C   LEU F 804      10.960 -11.171  30.063  1.00 42.60 LIG 0.24  C 
ATOM      2 O    LEU F 804      11.868 -10.364  29.837  1.00 42.72 LIG-0.27  OA
ATOM      3  N   TYR F 805      10.996 -12.440  29.650  1.00 41.09 LIG-0.35  N 
ATOM      4 H    TYR F 805      10.308 -12.956  29.638  1.00 41.09 LIG 0.16  HD
ENDROOT
BRANCH 3 5
ATOM      5  CA  TYR F 805      12.236 -13.080  29.171  1.00 40.08 LIG 0.18  C 
BRANCH 5 6
ATOM      6  CB  TYR F 805      13.313 -12.994  30.261  1.00 38.23 LIG 0.07  C 
BRANCH 6 7
ATOM      7  CG  TYR F 805      14.333 -11.914  30.000  1.00 36.43 LIG-0.06  A 
ATOM      8  CD2 TYR F 805      15.149 -11.964  28.874  1.00 35.39 LIG 0.01  A 
ATOM      9  CE2 TYR F 805      16.108 -10.981  28.632  1.00 33.62 LIG 0.04  A 
ATOM     10  CZ  TYR F 805      16.250  -9.932  29.519  1.00 33.40 LIG 0.07  A 
ATOM     11  CE1 TYR F 805      15.446  -9.852  30.650  1.00 31.77 LIG 0.04  A 
ATOM     12  CD1 TYR F 805      14.493 -10.843  30.887  1.00 33.46 LIG 0.01  A 
BRANCH 10 13
ATOM     13 OH   TYR F 805      17.195  -8.963  29.260  1.00 32.97 LIG-0.36  OA
ATOM     14 HH   TYR F 805      17.345  -8.931  28.434  1.00 32.97 LIG 0.22  HD
ENDBRANCH 10 13
ENDBRANCH 6 7
ENDBRANCH 5 6
BRANCH 5 15
ATOM     15  C   TYR F 805      12.062 -14.544  28.726  1.00 40.65 LIG 0.24  C 
ATOM     16 O    TYR F 805      12.487 -15.455  29.440  1.00 41.05 LIG-0.27  OA
ATOM     17  N   GLY F 806      11.435 -14.783  27.564  1.00 41.21 LIG-0.35  N 
ATOM     18 H    GLY F 806      11.379 -15.570  27.222  1.00 41.21 LIG 0.16  HD
BRANCH 17 19
ATOM     19  CA  GLY F 806      10.774 -13.747  26.741  1.00 41.66 LIG 0.21  C 
BRANCH 19 20
ATOM     20  C   GLY F 806      10.354 -14.181  25.343  1.00 41.93 LIG 0.21  C 
ATOM     21 O    GLY F 806      10.721 -15.265  24.865  1.00 42.62 LIG-0.29  OA
ENDBRANCH 19 20
ENDBRANCH 17 19
ENDBRANCH 5 15
ENDBRANCH 3 5
BRANCH 1 22
ATOM     22  CA  LEU F 804       9.715 -10.724  30.851  1.00 43.64 LIG 0.18  C 
BRANCH 22 23
ATOM     23  N   LEU F 804       8.673 -11.737  31.017  1.00 45.07 LIG-0.35  N 
ATOM     24  C   ASP F 803       7.643 -11.835  30.183  1.00 46.18 LIG 0.26  C 
ATOM     25 O    ASP F 803       7.537 -11.138  29.165  1.00 46.48 LIG-0.27  OA
ATOM     26 H    LEU F 804       8.788 -12.253  31.694  1.00 45.07 LIG 0.16  HD
BRANCH 24 27
ATOM     27  CA  ASP F 803       6.574 -12.882  30.542  1.00 46.88 LIG 0.41  C 
ATOM     28  N   ASP F 803       5.698 -13.221  29.385  1.00 47.04 LIG 0.61  N 
BRANCH 27 29
ATOM     29  CB  ASP F 803       7.234 -14.156  31.081  1.00 47.42 LIG 0.16  C 
BRANCH 29 30
ATOM     30  CG  ASP F 803       7.663 -15.116  29.970  1.00 48.96 LIG 0.17  C 
ATOM     31 OD1  ASP F 803       8.777 -14.919  29.430  1.00 50.04 LIG-0.65  OA
ATOM     32 OD2  ASP F 803       6.900 -16.056  29.635  1.00 49.91 LIG-0.65  OA
ENDBRANCH 29 30
ENDBRANCH 27 29
ENDBRANCH 24 27
ENDBRANCH 22 23
BRANCH 22 33
ATOM     33  CB  LEU F 804      10.125 -10.175  32.224  1.00 43.69 LIG 0.04  C 
BRANCH 33 34
ATOM     34  CG  LEU F 804      11.562 -10.316  32.759  1.00 43.67 LIG-0.02  C 
ATOM     35  CD2 LEU F 804      11.538 -10.967  34.128  1.00 43.56 LIG 0.01  C 
ATOM     36  CD1 LEU F 804      12.345  -9.005  32.788  1.00 44.06 LIG 0.01  C 
ENDBRANCH 33 34
ENDBRANCH 22 33
ENDBRANCH 1 22
TORSDOF 14
ENDMDL
MODEL 111
USER: ADFR SOLUTION from run 108
USER: SCORE 11.626977 LL:  -2.998 LR:  -8.965 RR:   0.000 FEB:  -4.789
USER: RMSD 7.815128
USER: SEED 107
USER: STATUS no improvement in best in 18 clusters for 5 generations
USER: GENES 16
USER: genes 0 Translation |==|  0.48107 0.50000 0.31218
USER: genes 1 Rotation |==|  0.16307 0.71707 0.76950 0.62934
USER: genes 2 Torsion [C]-N--CA-[CB] |==|  0.84254
USER: genes 3 Torsion [N]-CA--CB-[CG] |==|  0.35159
USER: genes 4 Torsion [CA]-CB--CG-[CD2] |==|  0.23466
USER: genes 5 Torsion [CE2]-CZ--OH-[HH] |==|  0.85160
USER: genes 6 Torsion [N]-CA--C-[N] |==|  0.37720
USER: genes 7 Torsion [C]-N--CA-[C] |==|  0.47100
USER: genes 8 Torsion [N]-CA--C-[O] |==|  0.95421
USER: genes 9 Torsion [N]-C--CA-[N] |==|  0.89629
USER: genes 10 Torsion [C]-CA--N-[C] |==|  0.69564
USER: genes 11 Torsion [N]-C--CA-[N] |==|  0.92055
USER: genes 12 Torsion [C]-CA--CB-[CG] |==|  0.66007
USER: genes 13 Torsion [CA]-CB--CG-[OD1] |==|  0.78648
USER: genes 14 Torsion [C]-CA--CB-[CG] |==|  0.91418
USER: genes 15 Torsion [CA]-CB--CG-[CD2] |==|  0.65925
ROOT
ATOM      1  C   LEU F 804      11.562 -11.556  29.254  1.00 42.60 LIG 0.24  C 
ATOM      2 O    LEU F 804      11.388 -11.555  28.031  1.00 42.72 LIG-0.27  OA
ATOM      3  N   TYR F 805      10.586 -11.815  30.127  1.00 41.09 LIG-0.35  N 
ATOM      4 H    TYR F 805      10.642 -11.644  30.969  1.00 41.09 LIG 0.16  HD
ENDROOT
BRANCH 3 5
ATOM      5  CA  TYR F 805       9.307 -12.428  29.724  1.00 40.08 LIG 0.18  C 
BRANCH 5 6
ATOM      6  CB  TYR F 805       8.646 -11.570  28.636  1.00 38.23 LIG 0.07  C 
BRANCH 6 7
ATOM      7  CG  TYR F 805       8.286 -12.357  27.400  1.00 36.43 LIG-0.06  A 
ATOM      8  CD2 TYR F 805       7.089 -13.060  27.329  1.00 35.39 LIG 0.01  A 
ATOM      9  CE2 TYR F 805       6.754 -13.806  26.198  1.00 33.62 LIG 0.04  A 
ATOM     10  CZ  TYR F 805       7.621 -13.844  25.125  1.00 33.40 LIG 0.07  A 
ATOM     11  CE1 TYR F 805       8.824 -13.148  25.165  1.00 31.77 LIG 0.04  A 
ATOM     12  CD1 TYR F 805       9.152 -12.409  26.301  1.00 33.46 LIG 0.01  A 
BRANCH 10 13
ATOM     13 OH   TYR F 805       7.271 -14.576  24.011  1.00 32.97 LIG-0.36  OA
ATOM     14 HH   TYR F 805       7.079 -15.361  24.241  1.00 32.97 LIG 0.22  HD
ENDBRANCH 10 13
ENDBRANCH 6 7
ENDBRANCH 5 6
BRANCH 5 15
ATOM     15  C   TYR F 805       9.427 -13.884  29.236  1.00 40.65 LIG 0.24  C 
ATOM     16 O    TYR F 805      10.344 -14.199  28.472  1.00 41.05 LIG-0.27  OA
ATOM     17  N   GLY F 806       8.525 -14.776  29.673  1.00 41.21 LIG-0.35  N 
ATOM     18 H    GLY F 806       8.490 -15.581  29.374  1.00 41.21 LIG 0.16  HD
BRANCH 17 19
ATOM     19  CA  GLY F 806       7.499 -14.494  30.700  1.00 41.66 LIG 0.21  C 
BRANCH 19 20
ATOM     20  C   GLY F 806       6.425 -15.559  30.872  1.00 41.93 LIG 0.21  C 
ATOM     21 O    GLY F 806       6.236 -16.431  30.010  1.00 42.62 LIG-0.29  OA
ENDBRANCH 19 20
ENDBRANCH 17 19
ENDBRANCH 5 15
ENDBRANCH 3 5
BRANCH 1 22
ATOM     22  CA  LEU F 804      12.956 -11.244  29.830  1.00 43.64 LIG 0.18  C 
BRANCH 22 23
ATOM     23  N   LEU F 804      12.971 -10.458  31.063  1.00 45.07 LIG-0.35  N 
ATOM     24  C   ASP F 803      13.390  -9.198  31.094  1.00 46.18 LIG 0.26  C 
ATOM     25 O    ASP F 803      13.715  -8.576  30.074  1.00 46.48 LIG-0.27  OA
ATOM     26 H    LEU F 804      12.687 -10.883  31.755  1.00 45.07 LIG 0.16  HD
BRANCH 24 27
ATOM     27  CA  ASP F 803      13.443  -8.532  32.480  1.00 46.88 LIG 0.41  C 
ATOM     28  N   ASP F 803      12.438  -9.099  33.422  1.00 47.04 LIG 0.61  N 
BRANCH 27 29
ATOM     29  CB  ASP F 803      14.846  -8.663  33.082  1.00 47.42 LIG 0.16  C 
BRANCH 29 30
ATOM     30  CG  ASP F 803      14.846  -9.372  34.437  1.00 48.96 LIG 0.17  C 
ATOM     31 OD1  ASP F 803      14.471  -8.716  35.437  1.00 50.04 LIG-0.65  OA
ATOM     32 OD2  ASP F 803      15.219 -10.570  34.509  1.00 49.91 LIG-0.65  OA
ENDBRANCH 29 30
ENDBRANCH 27 29
ENDBRANCH 24 27
ENDBRANCH 22 23
BRANCH 22 33
ATOM     33  CB  LEU F 804      13.748 -12.542  30.035  1.00 43.69 LIG 0.04  C 
BRANCH 33 34
ATOM     34  CG  LEU F 804      13.052 -13.873  30.374  1.00 43.67 LIG-0.02  C 
ATOM     35  CD2 LEU F 804      13.605 -14.424  31.674  1.00 43.56 LIG 0.01  C 
ATOM     36  CD1 LEU F 804      13.129 -14.915  29.260  1.00 44.06 LIG 0.01  C 
ENDBRANCH 33 34
ENDBRANCH 22 33
ENDBRANCH 1 22
TORSDOF 14
ENDMDL
MODEL 112
USER: ADFR SOLUTION from run 69
USER: SCORE 10.663940 LL:  -2.996 LR:  -8.974 RR:   0.000 FEB:  -4.798
USER: RMSD 3.930601
USER: SEED 68
USER: STATUS no improvement in best in 15 clusters for 5 generations
USER: GENES 16
USER: genes 0 Translation |==|  0.65593 0.51589 0.54456
USER: genes 1 Rotation |==|  0.47495 0.59908 0.50891 0.98936
USER: genes 2 Torsion [C]-N--CA-[CB] |==|  0.27179
USER: genes 3 Torsion [N]-CA--CB-[CG] |==|  0.83208
USER: genes 4 Torsion [CA]-CB--CG-[CD2] |==|  0.36705
USER: genes 5 Torsion [CE2]-CZ--OH-[HH] |==|  0.97206
USER: genes 6 Torsion [N]-CA--C-[N] |==|  0.42245
USER: genes 7 Torsion [C]-N--CA-[C] |==|  0.23231
USER: genes 8 Torsion [N]-CA--C-[O] |==|  0.10469
USER: genes 9 Torsion [N]-C--CA-[N] |==|  0.28487
USER: genes 10 Torsion [C]-CA--N-[C] |==|  0.77778
USER: genes 11 Torsion [N]-C--CA-[N] |==|  0.85081
USER: genes 12 Torsion [C]-CA--CB-[CG] |==|  0.28571
USER: genes 13 Torsion [CA]-CB--CG-[OD1] |==|  0.58463
USER: genes 14 Torsion [C]-CA--CB-[CG] |==|  0.66550
USER: genes 15 Torsion [CA]-CB--CG-[CD2] |==|  0.78676
ROOT
ATOM      1  C   LEU F 804      14.185 -11.234  33.437  1.00 42.60 LIG 0.24  C 
ATOM      2 O    LEU F 804      15.418 -11.167  33.387  1.00 42.72 LIG-0.27  OA
ATOM      3  N   TYR F 805      13.408 -10.175  33.675  1.00 41.09 LIG-0.35  N 
ATOM      4 H    TYR F 805      12.578 -10.233  33.891  1.00 41.09 LIG 0.16  HD
ENDROOT
BRANCH 3 5
ATOM      5  CA  TYR F 805      13.910  -8.791  33.585  1.00 40.08 LIG 0.18  C 
BRANCH 5 6
ATOM      6  CB  TYR F 805      13.541  -8.198  32.218  1.00 38.23 LIG 0.07  C 
BRANCH 6 7
ATOM      7  CG  TYR F 805      14.135  -8.965  31.062  1.00 36.43 LIG-0.06  A 
ATOM      8  CD2 TYR F 805      13.349  -9.330  29.974  1.00 35.39 LIG 0.01  A 
ATOM      9  CE2 TYR F 805      13.882 -10.055  28.907  1.00 33.62 LIG 0.04  A 
ATOM     10  CZ  TYR F 805      15.216 -10.413  28.925  1.00 33.40 LIG 0.07  A 
ATOM     11  CE1 TYR F 805      16.027 -10.058  29.997  1.00 31.77 LIG 0.04  A 
ATOM     12  CD1 TYR F 805      15.484  -9.338  31.060  1.00 33.46 LIG 0.01  A 
BRANCH 10 13
ATOM     13 OH   TYR F 805      15.730 -11.119  27.860  1.00 32.97 LIG-0.36  OA
ATOM     14 HH   TYR F 805      15.103 -11.371  27.361  1.00 32.97 LIG 0.22  HD
ENDBRANCH 10 13
ENDBRANCH 6 7
ENDBRANCH 5 6
BRANCH 5 15
ATOM     15  C   TYR F 805      13.411  -7.862  34.707  1.00 40.65 LIG 0.24  C 
ATOM     16 O    TYR F 805      12.329  -8.090  35.254  1.00 41.05 LIG-0.27  OA
ATOM     17  N   GLY F 806      14.186  -6.827  35.065  1.00 41.21 LIG-0.35  N 
ATOM     18 H    GLY F 806      13.927  -6.228  35.625  1.00 41.21 LIG 0.16  HD
BRANCH 17 19
ATOM     19  CA  GLY F 806      15.554  -6.589  34.554  1.00 41.66 LIG 0.21  C 
BRANCH 19 20
ATOM     20  C   GLY F 806      15.643  -5.870  33.215  1.00 41.93 LIG 0.21  C 
ATOM     21 O    GLY F 806      14.860  -4.954  32.919  1.00 42.62 LIG-0.29  OA
ENDBRANCH 19 20
ENDBRANCH 17 19
ENDBRANCH 5 15
ENDBRANCH 3 5
BRANCH 1 22
ATOM     22  CA  LEU F 804      13.483 -12.588  33.224  1.00 43.64 LIG 0.18  C 
BRANCH 22 23
ATOM     23  N   LEU F 804      13.381 -13.037  31.835  1.00 45.07 LIG-0.35  N 
ATOM     24  C   ASP F 803      12.451 -12.572  31.008  1.00 46.18 LIG 0.26  C 
ATOM     25 O    ASP F 803      11.663 -11.671  31.325  1.00 46.48 LIG-0.27  OA
ATOM     26 H    LEU F 804      13.971 -13.620  31.610  1.00 45.07 LIG 0.16  HD
BRANCH 24 27
ATOM     27  CA  ASP F 803      12.404 -13.211  29.609  1.00 46.88 LIG 0.41  C 
ATOM     28  N   ASP F 803      13.725 -13.168  28.919  1.00 47.04 LIG 0.61  N 
BRANCH 27 29
ATOM     29  CB  ASP F 803      11.917 -14.660  29.700  1.00 47.42 LIG 0.16  C 
BRANCH 29 30
ATOM     30  CG  ASP F 803      10.457 -14.823  29.272  1.00 48.96 LIG 0.17  C 
ATOM     31 OD1  ASP F 803       9.791 -15.736  29.815  1.00 50.04 LIG-0.65  OA
ATOM     32 OD2  ASP F 803       9.978 -14.054  28.402  1.00 49.91 LIG-0.65  OA
ENDBRANCH 29 30
ENDBRANCH 27 29
ENDBRANCH 24 27
ENDBRANCH 22 23
BRANCH 22 33
ATOM     33  CB  LEU F 804      14.157 -13.675  34.070  1.00 43.69 LIG 0.04  C 
BRANCH 33 34
ATOM     34  CG  LEU F 804      14.786 -14.927  33.433  1.00 43.67 LIG-0.02  C 
ATOM     35  CD2 LEU F 804      13.697 -15.904  33.036  1.00 43.56 LIG 0.01  C 
ATOM     36  CD1 LEU F 804      15.839 -15.605  34.308  1.00 44.06 LIG 0.01  C 
ENDBRANCH 33 34
ENDBRANCH 22 33
ENDBRANCH 1 22
TORSDOF 14
ENDMDL
MODEL 113
USER: ADFR SOLUTION from run 189
USER: SCORE 10.166747 LL:  -2.623 LR:  -8.957 RR:   0.000 FEB:  -4.781
USER: RMSD 8.623425
USER: SEED 188
USER: STATUS no improvement in best in 13 clusters for 5 generations
USER: GENES 16
USER: genes 0 Translation |==|  0.39766 0.38907 0.27859
USER: genes 1 Rotation |==|  0.66901 0.07872 0.64676 0.64973
USER: genes 2 Torsion [C]-N--CA-[CB] |==|  0.48406
USER: genes 3 Torsion [N]-CA--CB-[CG] |==|  0.65255
USER: genes 4 Torsion [CA]-CB--CG-[CD2] |==|  0.06287
USER: genes 5 Torsion [CE2]-CZ--OH-[HH] |==|  0.72355
USER: genes 6 Torsion [N]-CA--C-[N] |==|  0.82951
USER: genes 7 Torsion [C]-N--CA-[C] |==|  0.23252
USER: genes 8 Torsion [N]-CA--C-[O] |==|  0.23586
USER: genes 9 Torsion [N]-C--CA-[N] |==|  0.07778
USER: genes 10 Torsion [C]-CA--N-[C] |==|  0.16178
USER: genes 11 Torsion [N]-C--CA-[N] |==|  0.55512
USER: genes 12 Torsion [C]-CA--CB-[CG] |==|  0.66483
USER: genes 13 Torsion [CA]-CB--CG-[OD1] |==|  0.63010
USER: genes 14 Torsion [C]-CA--CB-[CG] |==|  0.34935
USER: genes 15 Torsion [CA]-CB--CG-[CD2] |==|  0.27556
ROOT
ATOM      1  C   LEU F 804      10.311 -13.802  28.650  1.00 42.60 LIG 0.24  C 
ATOM      2 O    LEU F 804       9.490 -14.560  29.178  1.00 42.72 LIG-0.27  OA
ATOM      3  N   TYR F 805       9.970 -12.867  27.760  1.00 41.09 LIG-0.35  N 
ATOM      4 H    TYR F 805      10.537 -12.462  27.255  1.00 41.09 LIG 0.16  HD
ENDROOT
BRANCH 3 5
ATOM      5  CA  TYR F 805       8.574 -12.437  27.561  1.00 40.08 LIG 0.18  C 
BRANCH 5 6
ATOM      6  CB  TYR F 805       8.533 -11.258  26.581  1.00 38.23 LIG 0.07  C 
BRANCH 6 7
ATOM      7  CG  TYR F 805       7.823 -10.049  27.139  1.00 36.43 LIG-0.06  A 
ATOM      8  CD2 TYR F 805       7.697  -9.871  28.513  1.00 35.39 LIG 0.01  A 
ATOM      9  CE2 TYR F 805       7.026  -8.767  29.040  1.00 33.62 LIG 0.04  A 
ATOM     10  CZ  TYR F 805       6.481  -7.828  28.187  1.00 33.40 LIG 0.07  A 
ATOM     11  CE1 TYR F 805       6.594  -7.977  26.809  1.00 31.77 LIG 0.04  A 
ATOM     12  CD1 TYR F 805       7.262  -9.086  26.292  1.00 33.46 LIG 0.01  A 
BRANCH 10 13
ATOM     13 OH   TYR F 805       5.831  -6.738  28.723  1.00 32.97 LIG-0.36  OA
ATOM     14 HH   TYR F 805       5.001  -6.869  28.704  1.00 32.97 LIG 0.22  HD
ENDBRANCH 10 13
ENDBRANCH 6 7
ENDBRANCH 5 6
BRANCH 5 15
ATOM     15  C   TYR F 805       7.631 -13.553  27.072  1.00 40.65 LIG 0.24  C 
ATOM     16 O    TYR F 805       6.663 -13.882  27.763  1.00 41.05 LIG-0.27  OA
ATOM     17  N   GLY F 806       7.891 -14.130  25.889  1.00 41.21 LIG-0.35  N 
ATOM     18 H    GLY F 806       7.453 -14.811  25.601  1.00 41.21 LIG 0.16  HD
BRANCH 17 19
ATOM     19  CA  GLY F 806       8.943 -13.679  24.952  1.00 41.66 LIG 0.21  C 
BRANCH 19 20
ATOM     20  C   GLY F 806      10.346 -14.201  25.231  1.00 41.93 LIG 0.21  C 
ATOM     21 O    GLY F 806      10.721 -15.306  24.811  1.00 42.62 LIG-0.29  OA
ENDBRANCH 19 20
ENDBRANCH 17 19
ENDBRANCH 5 15
ENDBRANCH 3 5
BRANCH 1 22
ATOM     22  CA  LEU F 804      11.803 -13.920  29.010  1.00 43.64 LIG 0.18  C 
BRANCH 22 23
ATOM     23  N   LEU F 804      12.584 -12.689  28.885  1.00 45.07 LIG-0.35  N 
ATOM     24  C   ASP F 803      12.274 -11.584  29.556  1.00 46.18 LIG 0.26  C 
ATOM     25 O    ASP F 803      11.361 -11.542  30.391  1.00 46.48 LIG-0.27  OA
ATOM     26 H    LEU F 804      13.251 -12.748  28.346  1.00 45.07 LIG 0.16  HD
BRANCH 24 27
ATOM     27  CA  ASP F 803      13.124 -10.339  29.246  1.00 46.88 LIG 0.41  C 
ATOM     28  N   ASP F 803      13.049  -9.315  30.326  1.00 47.04 LIG 0.61  N 
BRANCH 27 29
ATOM     29  CB  ASP F 803      14.585 -10.736  29.012  1.00 47.42 LIG 0.16  C 
BRANCH 29 30
ATOM     30  CG  ASP F 803      15.547 -10.061  29.991  1.00 48.96 LIG 0.17  C 
ATOM     31 OD1  ASP F 803      16.585  -9.538  29.519  1.00 50.04 LIG-0.65  OA
ATOM     32 OD2  ASP F 803      15.278 -10.053  31.218  1.00 49.91 LIG-0.65  OA
ENDBRANCH 29 30
ENDBRANCH 27 29
ENDBRANCH 24 27
ENDBRANCH 22 23
BRANCH 22 33
ATOM     33  CB  LEU F 804      11.964 -14.492  30.424  1.00 43.69 LIG 0.04  C 
BRANCH 33 34
ATOM     34  CG  LEU F 804      12.828 -15.735  30.705  1.00 43.67 LIG-0.02  C 
ATOM     35  CD2 LEU F 804      14.186 -15.309  31.227  1.00 43.56 LIG 0.01  C 
ATOM     36  CD1 LEU F 804      12.971 -16.674  29.509  1.00 44.06 LIG 0.01  C 
ENDBRANCH 33 34
ENDBRANCH 22 33
ENDBRANCH 1 22
TORSDOF 14
ENDMDL
MODEL 114
USER: ADFR SOLUTION from run 24
USER: SCORE 11.124854 LL:  -3.283 LR:  -8.957 RR:   0.000 FEB:  -4.780
USER: RMSD 8.249234
USER: SEED 23
USER: STATUS no improvement in best in 22 clusters for 5 generations
USER: GENES 16
USER: genes 0 Translation |==|  0.49716 0.37123 0.25886
USER: genes 1 Rotation |==|  0.22581 0.89931 0.37631 0.50840
USER: genes 2 Torsion [C]-N--CA-[CB] |==|  0.20337
USER: genes 3 Torsion [N]-CA--CB-[CG] |==|  0.13409
USER: genes 4 Torsion [CA]-CB--CG-[CD2] |==|  0.74976
USER: genes 5 Torsion [CE2]-CZ--OH-[HH] |==|  0.41043
USER: genes 6 Torsion [N]-CA--C-[N] |==|  0.44256
USER: genes 7 Torsion [C]-N--CA-[C] |==|  0.79356
USER: genes 8 Torsion [N]-CA--C-[O] |==|  0.13686
USER: genes 9 Torsion [N]-C--CA-[N] |==|  0.00000
USER: genes 10 Torsion [C]-CA--N-[C] |==|  0.66199
USER: genes 11 Torsion [N]-C--CA-[N] |==|  0.95090
USER: genes 12 Torsion [C]-CA--CB-[CG] |==|  0.74750
USER: genes 13 Torsion [CA]-CB--CG-[OD1] |==|  0.58165
USER: genes 14 Torsion [C]-CA--CB-[CG] |==|  0.27054
USER: genes 15 Torsion [CA]-CB--CG-[CD2] |==|  0.29497
ROOT
ATOM      1  C   LEU F 804      11.803 -14.164  28.294  1.00 42.60 LIG 0.24  C 
ATOM      2 O    LEU F 804      11.470 -15.349  28.192  1.00 42.72 LIG-0.27  OA
ATOM      3  N   TYR F 805      11.196 -13.178  27.631  1.00 41.09 LIG-0.35  N 
ATOM      4 H    TYR F 805      11.523 -12.387  27.549  1.00 41.09 LIG 0.16  HD
ENDROOT
BRANCH 3 5
ATOM      5  CA  TYR F 805       9.889 -13.358  26.971  1.00 40.08 LIG 0.18  C 
BRANCH 5 6
ATOM      6  CB  TYR F 805       8.783 -13.431  28.032  1.00 38.23 LIG 0.07  C 
BRANCH 6 7
ATOM      7  CG  TYR F 805       8.872 -12.326  29.056  1.00 36.43 LIG-0.06  A 
ATOM      8  CD2 TYR F 805       9.613 -12.496  30.221  1.00 35.39 LIG 0.01  A 
ATOM      9  CE2 TYR F 805       9.689 -11.488  31.184  1.00 33.62 LIG 0.04  A 
ATOM     10  CZ  TYR F 805       9.023 -10.296  30.977  1.00 33.40 LIG 0.07  A 
ATOM     11  CE1 TYR F 805       8.278 -10.095  29.820  1.00 31.77 LIG 0.04  A 
ATOM     12  CD1 TYR F 805       8.205 -11.110  28.867  1.00 33.46 LIG 0.01  A 
BRANCH 10 13
ATOM     13 OH   TYR F 805       9.115  -9.307  31.932  1.00 32.97 LIG-0.36  OA
ATOM     14 HH   TYR F 805       9.081  -8.554  31.560  1.00 32.97 LIG 0.22  HD
ENDBRANCH 10 13
ENDBRANCH 6 7
ENDBRANCH 5 6
BRANCH 5 15
ATOM     15  C   TYR F 805       9.546 -12.270  25.936  1.00 40.65 LIG 0.24  C 
ATOM     16 O    TYR F 805      10.126 -11.182  25.978  1.00 41.05 LIG-0.27  OA
ATOM     17  N   GLY F 806       8.623 -12.550  25.003  1.00 41.21 LIG-0.35  N 
ATOM     18 H    GLY F 806       8.330 -11.959  24.451  1.00 41.21 LIG 0.16  HD
BRANCH 17 19
ATOM     19  CA  GLY F 806       8.005 -13.880  24.810  1.00 41.66 LIG 0.21  C 
BRANCH 19 20
ATOM     20  C   GLY F 806       8.889 -14.931  24.153  1.00 41.93 LIG 0.21  C 
ATOM     21 O    GLY F 806      10.044 -15.145  24.551  1.00 42.62 LIG-0.29  OA
ENDBRANCH 19 20
ENDBRANCH 17 19
ENDBRANCH 5 15
ENDBRANCH 3 5
BRANCH 1 22
ATOM     22  CA  LEU F 804      12.972 -13.774  29.218  1.00 43.64 LIG 0.18  C 
BRANCH 22 23
ATOM     23  N   LEU F 804      13.291 -12.347  29.268  1.00 45.07 LIG-0.35  N 
ATOM     24  C   ASP F 803      14.493 -11.879  28.949  1.00 46.18 LIG 0.26  C 
ATOM     25 O    ASP F 803      15.397 -12.602  28.509  1.00 46.48 LIG-0.27  OA
ATOM     26 H    LEU F 804      12.637 -11.849  29.519  1.00 45.07 LIG 0.16  HD
BRANCH 24 27
ATOM     27  CA  ASP F 803      14.710 -10.368  29.146  1.00 46.88 LIG 0.41  C 
ATOM     28  N   ASP F 803      13.427  -9.620  29.263  1.00 47.04 LIG 0.61  N 
BRANCH 27 29
ATOM     29  CB  ASP F 803      15.572 -10.111  30.386  1.00 47.42 LIG 0.16  C 
BRANCH 29 30
ATOM     30  CG  ASP F 803      14.743  -9.926  31.657  1.00 48.96 LIG 0.17  C 
ATOM     31 OD1  ASP F 803      15.215  -9.192  32.558  1.00 50.04 LIG-0.65  OA
ATOM     32 OD2  ASP F 803      13.634 -10.508  31.764  1.00 49.91 LIG-0.65  OA
ENDBRANCH 29 30
ENDBRANCH 27 29
ENDBRANCH 24 27
ENDBRANCH 22 23
BRANCH 22 33
ATOM     33  CB  LEU F 804      12.722 -14.297  30.639  1.00 43.69 LIG 0.04  C 
BRANCH 33 34
ATOM     34  CG  LEU F 804      13.343 -15.613  31.141  1.00 43.67 LIG-0.02  C 
ATOM     35  CD2 LEU F 804      14.472 -15.313  32.107  1.00 43.56 LIG 0.01  C 
ATOM     36  CD1 LEU F 804      13.811 -16.544  30.023  1.00 44.06 LIG 0.01  C 
ENDBRANCH 33 34
ENDBRANCH 22 33
ENDBRANCH 1 22
TORSDOF 14
ENDMDL
MODEL 115
USER: ADFR SOLUTION from run 69
USER: SCORE 10.707223 LL:  -3.017 LR:  -8.953 RR:   0.000 FEB:  -4.777
USER: RMSD 6.918117
USER: SEED 68
USER: STATUS no improvement in best in 15 clusters for 5 generations
USER: GENES 16
USER: genes 0 Translation |==|  0.53657 0.51576 0.32042
USER: genes 1 Rotation |==|  0.79324 0.56243 0.09996 0.50880
USER: genes 2 Torsion [C]-N--CA-[CB] |==|  0.39609
USER: genes 3 Torsion [N]-CA--CB-[CG] |==|  0.26223
USER: genes 4 Torsion [CA]-CB--CG-[CD2] |==|  0.74219
USER: genes 5 Torsion [CE2]-CZ--OH-[HH] |==|  0.40703
USER: genes 6 Torsion [N]-CA--C-[N] |==|  0.91889
USER: genes 7 Torsion [C]-N--CA-[C] |==|  0.57799
USER: genes 8 Torsion [N]-CA--C-[O] |==|  0.41510
USER: genes 9 Torsion [N]-C--CA-[N] |==|  0.88889
USER: genes 10 Torsion [C]-CA--N-[C] |==|  0.81287
USER: genes 11 Torsion [N]-C--CA-[N] |==|  0.77327
USER: genes 12 Torsion [C]-CA--CB-[CG] |==|  0.65372
USER: genes 13 Torsion [CA]-CB--CG-[OD1] |==|  0.69436
USER: genes 14 Torsion [C]-CA--CB-[CG] |==|  0.83067
USER: genes 15 Torsion [CA]-CB--CG-[CD2] |==|  0.58649
ROOT
ATOM      1  C   LEU F 804      12.395 -11.237  29.402  1.00 42.60 LIG 0.24  C 
ATOM      2 O    LEU F 804      11.627 -11.200  28.435  1.00 42.72 LIG-0.27  OA
ATOM      3  N   TYR F 805      12.802 -12.377  29.965  1.00 41.09 LIG-0.35  N 
ATOM      4 H    TYR F 805      13.180 -12.418  30.736  1.00 41.09 LIG 0.16  HD
ENDROOT
BRANCH 3 5
ATOM      5  CA  TYR F 805      12.637 -13.686  29.306  1.00 40.08 LIG 0.18  C 
BRANCH 5 6
ATOM      6  CB  TYR F 805      13.862 -14.564  29.594  1.00 38.23 LIG 0.07  C 
BRANCH 6 7
ATOM      7  CG  TYR F 805      13.670 -15.475  30.782  1.00 36.43 LIG-0.06  A 
ATOM      8  CD2 TYR F 805      14.071 -15.078  32.053  1.00 35.39 LIG 0.01  A 
ATOM      9  CE2 TYR F 805      13.915 -15.919  33.156  1.00 33.62 LIG 0.04  A 
ATOM     10  CZ  TYR F 805      13.346 -17.166  32.989  1.00 33.40 LIG 0.07  A 
ATOM     11  CE1 TYR F 805      12.931 -17.588  31.730  1.00 31.77 LIG 0.04  A 
ATOM     12  CD1 TYR F 805      13.096 -16.743  30.634  1.00 33.46 LIG 0.01  A 
BRANCH 10 13
ATOM     13 OH   TYR F 805      13.189 -17.980  34.089  1.00 32.97 LIG-0.36  OA
ATOM     14 HH   TYR F 805      12.492 -18.441  33.999  1.00 32.97 LIG 0.22  HD
ENDBRANCH 10 13
ENDBRANCH 6 7
ENDBRANCH 5 6
BRANCH 5 15
ATOM     15  C   TYR F 805      11.352 -14.438  29.702  1.00 40.65 LIG 0.24  C 
ATOM     16 O    TYR F 805      10.830 -15.219  28.902  1.00 41.05 LIG-0.27  OA
ATOM     17  N   GLY F 806      10.844 -14.224  30.925  1.00 41.21 LIG-0.35  N 
ATOM     18 H    GLY F 806      10.088 -14.549  31.174  1.00 41.21 LIG 0.16  HD
BRANCH 17 19
ATOM     19  CA  GLY F 806      11.504 -13.419  31.977  1.00 41.66 LIG 0.21  C 
BRANCH 19 20
ATOM     20  C   GLY F 806      11.171 -13.806  33.411  1.00 41.93 LIG 0.21  C 
ATOM     21 O    GLY F 806      11.991 -13.652  34.329  1.00 42.62 LIG-0.29  OA
ENDBRANCH 19 20
ENDBRANCH 17 19
ENDBRANCH 5 15
ENDBRANCH 3 5
BRANCH 1 22
ATOM     22  CA  LEU F 804      12.920  -9.925  30.013  1.00 43.64 LIG 0.18  C 
BRANCH 22 23
ATOM     23  N   LEU F 804      12.995  -9.891  31.473  1.00 45.07 LIG-0.35  N 
ATOM     24  C   ASP F 803      11.909  -9.910  32.238  1.00 46.18 LIG 0.26  C 
ATOM     25 O    ASP F 803      10.768 -10.041  31.776  1.00 46.48 LIG-0.27  OA
ATOM     26 H    LEU F 804      13.796  -9.858  31.784  1.00 45.07 LIG 0.16  HD
BRANCH 24 27
ATOM     27  CA  ASP F 803      12.140  -9.767  33.753  1.00 46.88 LIG 0.41  C 
ATOM     28  N   ASP F 803      12.526 -11.056  34.393  1.00 47.04 LIG 0.61  N 
BRANCH 27 29
ATOM     29  CB  ASP F 803      13.214  -8.710  34.031  1.00 47.42 LIG 0.16  C 
BRANCH 29 30
ATOM     30  CG  ASP F 803      14.369  -9.247  34.879  1.00 48.96 LIG 0.17  C 
ATOM     31 OD1  ASP F 803      14.471  -8.826  36.055  1.00 50.04 LIG-0.65  OA
ATOM     32 OD2  ASP F 803      15.169 -10.077  34.380  1.00 49.91 LIG-0.65  OA
ENDBRANCH 29 30
ENDBRANCH 27 29
ENDBRANCH 24 27
ENDBRANCH 22 23
BRANCH 22 33
ATOM     33  CB  LEU F 804      14.290  -9.574  29.417  1.00 43.69 LIG 0.04  C 
BRANCH 33 34
ATOM     34  CG  LEU F 804      15.507 -10.503  29.574  1.00 43.67 LIG-0.02  C 
ATOM     35  CD2 LEU F 804      16.779  -9.681  29.616  1.00 43.56 LIG 0.01  C 
ATOM     36  CD1 LEU F 804      15.594 -11.596  28.510  1.00 44.06 LIG 0.01  C 
ENDBRANCH 33 34
ENDBRANCH 22 33
ENDBRANCH 1 22
TORSDOF 14
ENDMDL
MODEL 116
USER: ADFR SOLUTION from run 176
USER: SCORE 11.020676 LL:  -2.345 LR:  -8.952 RR:   0.000 FEB:  -4.776
USER: RMSD 4.635398
USER: SEED 175
USER: STATUS no improvement in best in 19 clusters for 5 generations
USER: GENES 16
USER: genes 0 Translation |==|  0.43697 0.48246 0.34782
USER: genes 1 Rotation |==|  0.75019 0.74720 0.50264 0.85537
USER: genes 2 Torsion [C]-N--CA-[CB] |==|  0.79046
USER: genes 3 Torsion [N]-CA--CB-[CG] |==|  0.29871
USER: genes 4 Torsion [CA]-CB--CG-[CD2] |==|  0.21801
USER: genes 5 Torsion [CE2]-CZ--OH-[HH] |==|  0.93020
USER: genes 6 Torsion [N]-CA--C-[N] |==|  0.40174
USER: genes 7 Torsion [C]-N--CA-[C] |==|  0.29389
USER: genes 8 Torsion [N]-CA--C-[O] |==|  0.55366
USER: genes 9 Torsion [N]-C--CA-[N] |==|  0.98468
USER: genes 10 Torsion [C]-CA--N-[C] |==|  0.65852
USER: genes 11 Torsion [N]-C--CA-[N] |==|  0.18562
USER: genes 12 Torsion [C]-CA--CB-[CG] |==|  0.60217
USER: genes 13 Torsion [CA]-CB--CG-[OD1] |==|  0.17622
USER: genes 14 Torsion [C]-CA--CB-[CG] |==|  0.32813
USER: genes 15 Torsion [CA]-CB--CG-[CD2] |==|  0.86526
ROOT
ATOM      1  C   LEU F 804      10.901 -11.911  29.896  1.00 42.60 LIG 0.24  C 
ATOM      2 O    LEU F 804      11.803 -11.637  29.097  1.00 42.72 LIG-0.27  OA
ATOM      3  N   TYR F 805      11.040 -11.793  31.218  1.00 41.09 LIG-0.35  N 
ATOM      4 H    TYR F 805      10.499 -12.146  31.787  1.00 41.09 LIG 0.16  HD
ENDROOT
BRANCH 3 5
ATOM      5  CA  TYR F 805      12.148 -11.037  31.832  1.00 40.08 LIG 0.18  C 
BRANCH 5 6
ATOM      6  CB  TYR F 805      13.443 -11.855  31.736  1.00 38.23 LIG 0.07  C 
BRANCH 6 7
ATOM      7  CG  TYR F 805      14.416 -11.303  30.724  1.00 36.43 LIG-0.06  A 
ATOM      8  CD2 TYR F 805      15.205 -10.198  31.024  1.00 35.39 LIG 0.01  A 
ATOM      9  CE2 TYR F 805      16.095  -9.669  30.089  1.00 33.62 LIG 0.04  A 
ATOM     10  CZ  TYR F 805      16.203 -10.253  28.843  1.00 33.40 LIG 0.07  A 
ATOM     11  CE1 TYR F 805      15.430 -11.362  28.514  1.00 31.77 LIG 0.04  A 
ATOM     12  CD1 TYR F 805      14.540 -11.880  29.454  1.00 33.46 LIG 0.01  A 
BRANCH 10 13
ATOM     13 OH   TYR F 805      17.094  -9.726  27.934  1.00 32.97 LIG-0.36  OA
ATOM     14 HH   TYR F 805      17.228  -8.915  28.111  1.00 32.97 LIG 0.22  HD
ENDBRANCH 10 13
ENDBRANCH 6 7
ENDBRANCH 5 6
BRANCH 5 15
ATOM     15  C   TYR F 805      12.370  -9.637  31.229  1.00 40.65 LIG 0.24  C 
ATOM     16 O    TYR F 805      12.179  -9.454  30.024  1.00 41.05 LIG-0.27  OA
ATOM     17  N   GLY F 806      12.759  -8.648  32.048  1.00 41.21 LIG-0.35  N 
ATOM     18 H    GLY F 806      12.977  -7.869  31.759  1.00 41.21 LIG 0.16  HD
BRANCH 17 19
ATOM     19  CA  GLY F 806      12.858  -8.771  33.519  1.00 41.66 LIG 0.21  C 
BRANCH 19 20
ATOM     20  C   GLY F 806      14.270  -8.865  34.080  1.00 41.93 LIG 0.21  C 
ATOM     21 O    GLY F 806      14.486  -9.316  35.215  1.00 42.62 LIG-0.29  OA
ENDBRANCH 19 20
ENDBRANCH 17 19
ENDBRANCH 5 15
ENDBRANCH 3 5
BRANCH 1 22
ATOM     22  CA  LEU F 804       9.543 -12.417  29.374  1.00 43.64 LIG 0.18  C 
BRANCH 22 23
ATOM     23  N   LEU F 804       8.587 -12.836  30.399  1.00 45.07 LIG-0.35  N 
ATOM     24  C   ASP F 803       8.061 -14.057  30.419  1.00 46.18 LIG 0.26  C 
ATOM     25 O    ASP F 803       8.404 -14.946  29.629  1.00 46.48 LIG-0.27  OA
ATOM     26 H    LEU F 804       8.401 -12.228  30.977  1.00 45.07 LIG 0.16  HD
BRANCH 24 27
ATOM     27  CA  ASP F 803       6.994 -14.320  31.496  1.00 46.88 LIG 0.41  C 
ATOM     28  N   ASP F 803       5.750 -13.532  31.269  1.00 47.04 LIG 0.61  N 
BRANCH 27 29
ATOM     29  CB  ASP F 803       6.656 -15.813  31.559  1.00 47.42 LIG 0.16  C 
BRANCH 29 30
ATOM     30  CG  ASP F 803       5.175 -16.074  31.835  1.00 48.96 LIG 0.17  C 
ATOM     31 OD1  ASP F 803       4.346 -15.684  30.979  1.00 50.04 LIG-0.65  OA
ATOM     32 OD2  ASP F 803       4.835 -16.658  32.895  1.00 49.91 LIG-0.65  OA
ENDBRANCH 29 30
ENDBRANCH 27 29
ENDBRANCH 24 27
ENDBRANCH 22 23
BRANCH 22 33
ATOM     33  CB  LEU F 804       8.898 -11.364  28.465  1.00 43.69 LIG 0.04  C 
BRANCH 33 34
ATOM     34  CG  LEU F 804       8.598 -11.644  26.981  1.00 43.67 LIG-0.02  C 
ATOM     35  CD2 LEU F 804       9.820 -12.244  26.315  1.00 43.56 LIG 0.01  C 
ATOM     36  CD1 LEU F 804       8.094 -10.426  26.209  1.00 44.06 LIG 0.01  C 
ENDBRANCH 33 34
ENDBRANCH 22 33
ENDBRANCH 1 22
TORSDOF 14
ENDMDL
MODEL 117
USER: ADFR SOLUTION from run 14
USER: SCORE 11.513504 LL:  -2.689 LR:  -8.948 RR:   0.000 FEB:  -4.772
USER: RMSD 8.820860
USER: SEED 573906
USER: STATUS no improvement in best in 9 clusters for 5 generations
USER: GENES 16
USER: genes 0 Translation |==|  0.65714 0.68660 0.49634
USER: genes 1 Rotation |==|  0.42833 0.33548 0.96646 0.51447
USER: genes 2 Torsion [C]-N--CA-[CB] |==|  0.82790
USER: genes 3 Torsion [N]-CA--CB-[CG] |==|  0.60424
USER: genes 4 Torsion [CA]-CB--CG-[CD2] |==|  0.82090
USER: genes 5 Torsion [CE2]-CZ--OH-[HH] |==|  0.04039
USER: genes 6 Torsion [N]-CA--C-[N] |==|  0.35724
USER: genes 7 Torsion [C]-N--CA-[C] |==|  0.83571
USER: genes 8 Torsion [N]-CA--C-[O] |==|  0.94119
USER: genes 9 Torsion [N]-C--CA-[N] |==|  0.45118
USER: genes 10 Torsion [C]-CA--N-[C] |==|  0.61140
USER: genes 11 Torsion [N]-C--CA-[N] |==|  0.71923
USER: genes 12 Torsion [C]-CA--CB-[CG] |==|  0.60977
USER: genes 13 Torsion [CA]-CB--CG-[OD1] |==|  0.83613
USER: genes 14 Torsion [C]-CA--CB-[CG] |==|  0.50185
USER: genes 15 Torsion [CA]-CB--CG-[CD2] |==|  0.81666
ROOT
ATOM      1  C   LEU F 804      14.203  -7.777  32.569  1.00 42.60 LIG 0.24  C 
ATOM      2 O    LEU F 804      12.972  -7.874  32.604  1.00 42.72 LIG-0.27  OA
ATOM      3  N   TYR F 805      14.996  -8.752  32.119  1.00 41.09 LIG-0.35  N 
ATOM      4 H    TYR F 805      15.845  -8.776  32.255  1.00 41.09 LIG 0.16  HD
ENDROOT
BRANCH 3 5
ATOM      5  CA  TYR F 805      14.482  -9.892  31.337  1.00 40.08 LIG 0.18  C 
BRANCH 5 6
ATOM      6  CB  TYR F 805      13.482 -10.688  32.186  1.00 38.23 LIG 0.07  C 
BRANCH 6 7
ATOM      7  CG  TYR F 805      13.575 -12.178  31.965  1.00 36.43 LIG-0.06  A 
ATOM      8  CD2 TYR F 805      13.268 -12.734  30.728  1.00 35.39 LIG 0.01  A 
ATOM      9  CE2 TYR F 805      13.333 -14.112  30.517  1.00 33.62 LIG 0.04  A 
ATOM     10  CZ  TYR F 805      13.715 -14.943  31.552  1.00 33.40 LIG 0.07  A 
ATOM     11  CE1 TYR F 805      14.032 -14.416  32.799  1.00 31.77 LIG 0.04  A 
ATOM     12  CD1 TYR F 805      13.959 -13.038  33.001  1.00 33.46 LIG 0.01  A 
BRANCH 10 13
ATOM     13 OH   TYR F 805      13.785 -16.300  31.326  1.00 32.97 LIG-0.36  OA
ATOM     14 HH   TYR F 805      13.768 -16.448  30.499  1.00 32.97 LIG 0.22  HD
ENDBRANCH 10 13
ENDBRANCH 6 7
ENDBRANCH 5 6
BRANCH 5 15
ATOM     15  C   TYR F 805      13.830  -9.498  29.998  1.00 40.65 LIG 0.24  C 
ATOM     16 O    TYR F 805      12.965  -8.619  29.974  1.00 41.05 LIG-0.27  OA
ATOM     17  N   GLY F 806      14.238 -10.127  28.885  1.00 41.21 LIG-0.35  N 
ATOM     18 H    GLY F 806      13.858 -10.011  28.123  1.00 41.21 LIG 0.16  HD
BRANCH 17 19
ATOM     19  CA  GLY F 806      15.370 -11.078  28.829  1.00 41.66 LIG 0.21  C 
BRANCH 19 20
ATOM     20  C   GLY F 806      16.721 -10.525  29.260  1.00 41.93 LIG 0.21  C 
ATOM     21 O    GLY F 806      16.950  -9.306  29.260  1.00 42.62 LIG-0.29  OA
ENDBRANCH 19 20
ENDBRANCH 17 19
ENDBRANCH 5 15
ENDBRANCH 3 5
BRANCH 1 22
ATOM     22  CA  LEU F 804      14.885  -6.488  33.064  1.00 43.64 LIG 0.18  C 
BRANCH 22 23
ATOM     23  N   LEU F 804      14.018  -5.314  33.169  1.00 45.07 LIG-0.35  N 
ATOM     24  C   ASP F 803      14.426  -4.100  32.812  1.00 46.18 LIG 0.26  C 
ATOM     25 O    ASP F 803      15.529  -3.891  32.291  1.00 46.48 LIG-0.27  OA
ATOM     26 H    LEU F 804      13.234  -5.482  33.478  1.00 45.07 LIG 0.16  HD
BRANCH 24 27
ATOM     27  CA  ASP F 803      13.440  -2.948  33.074  1.00 46.88 LIG 0.41  C 
ATOM     28  N   ASP F 803      12.712  -2.530  31.843  1.00 47.04 LIG 0.61  N 
BRANCH 27 29
ATOM     29  CB  ASP F 803      12.434  -3.343  34.160  1.00 47.42 LIG 0.16  C 
BRANCH 29 30
ATOM     30  CG  ASP F 803      11.017  -2.850  33.862  1.00 48.96 LIG 0.17  C 
ATOM     31 OD1  ASP F 803      10.847  -1.615  33.728  1.00 50.04 LIG-0.65  OA
ATOM     32 OD2  ASP F 803      10.079  -3.681  33.766  1.00 49.91 LIG-0.65  OA
ENDBRANCH 29 30
ENDBRANCH 27 29
ENDBRANCH 24 27
ENDBRANCH 22 23
BRANCH 22 33
ATOM     33  CB  LEU F 804      15.582  -6.738  34.407  1.00 43.69 LIG 0.04  C 
BRANCH 33 34
ATOM     34  CG  LEU F 804      16.336  -5.622  35.152  1.00 43.67 LIG-0.02  C 
ATOM     35  CD2 LEU F 804      17.549  -5.198  34.348  1.00 43.56 LIG 0.01  C 
ATOM     36  CD1 LEU F 804      16.725  -5.984  36.584  1.00 44.06 LIG 0.01  C 
ENDBRANCH 33 34
ENDBRANCH 22 33
ENDBRANCH 1 22
TORSDOF 14
ENDMDL
