MODEL 1
USER: ADFR SOLUTION from run 15
USER: SCORE 16.679667 LL:  -3.928 LR: -15.188 RR:   0.000 FEB:  -8.626
USER: RMSD 9.622335
USER: SEED 310011
USER: STATUS no improvement in best in 13 clusters for 5 generations
USER: GENES 24
USER: genes 0 Translation |==|  0.51563 0.48429 0.32613
USER: genes 1 Rotation |==|  0.33741 0.95211 0.63588 0.52640
USER: genes 2 Torsion [N]-C--CA-[N] |==|  0.42781
USER: genes 3 Torsion [C]-CA--N-[C] |==|  0.52687
USER: genes 4 Torsion [N]-C--CA-[N] |==|  0.71956
USER: genes 5 Torsion [C]-CA--CB-[CG] |==|  0.74172
USER: genes 6 Torsion [CA]-CB--CG-[CD] |==|  0.38329
USER: genes 7 Torsion [CB]-CG--CD-[NE] |==|  0.00834
USER: genes 8 Torsion [CG]-CD--NE-[CZ] |==|  0.45328
USER: genes 9 Torsion [C]-CA--N-[C] |==|  0.10556
USER: genes 10 Torsion [N]-C--CA-[N] |==|  0.06212
USER: genes 11 Torsion [C]-CA--N-[H2] |==|  0.23314
USER: genes 12 Torsion [C]-N--CA-[C] |==|  0.82374
USER: genes 13 Torsion [N]-CA--C-[N] |==|  0.35479
USER: genes 14 Torsion [C]-N--CA-[CB] |==|  0.22060
USER: genes 15 Torsion [N]-CA--CB-[CG2] |==|  0.10692
USER: genes 16 Torsion [N]-CA--C-[N] |==|  0.31251
USER: genes 17 Torsion [C]-N--CA-[C] |==|  0.57179
USER: genes 18 Torsion [N]-CA--C-[O] |==|  0.70795
USER: genes 19 Torsion [N]-CA--CB-[CG] |==|  0.01119
USER: genes 20 Torsion [CA]-CB--CG-[CD2] |==|  0.74154
USER: genes 21 Torsion [N]-CA--CB-[CG] |==|  0.97311
USER: genes 22 Torsion [CA]-CB--CG-[CD] |==|  0.67380
USER: genes 23 Torsion [CB]-CG--CD-[OE2] |==|  0.68838
ROOT
ATOM      1  C   ALA B   3     -14.855 -28.454  -8.828  1.00 17.17 LIG 0.24  C 
ATOM      2 O    ALA B   3     -13.791 -28.859  -8.356  1.00 18.54 LIG-0.27  OA
ATOM      3  N   GLU B   4     -15.145 -28.528 -10.124  1.00 17.89 LIG-0.35  N 
ATOM      4 H    GLU B   4     -15.883 -28.249 -10.465  1.00 17.89 LIG 0.16  HD
ENDROOT
BRANCH 1 5
ATOM      5  CA  ALA B   3     -15.916 -27.835  -7.919  1.00 15.99 LIG 0.17  C 
ATOM      6  CB  ALA B   3     -15.811 -26.313  -7.955  1.00 16.21 LIG 0.04  C 
BRANCH 5 7
ATOM      7  N   ALA B   3     -15.840 -28.302  -6.540  1.00 13.91 LIG-0.35  N 
ATOM      8  C   ARG B   2     -16.793 -28.020  -5.657  1.00 12.46 LIG 0.24  C 
ATOM      9 O    ARG B   2     -17.793 -27.363  -5.944  1.00 11.56 LIG-0.27  OA
ATOM     10 H    ALA B   3     -15.138 -28.765  -6.360  1.00 13.91 LIG 0.16  HD
BRANCH 8 11
ATOM     11  CA  ARG B   2     -16.596 -28.549  -4.240  1.00 12.24 LIG 0.18  C 
BRANCH 11 12
ATOM     12  CB  ARG B   2     -15.109 -28.810  -3.989  1.00 10.58 LIG 0.04  C 
BRANCH 12 13
ATOM     13  CG  ARG B   2     -14.655 -30.233  -4.280  1.00  9.71 LIG 0.02  C 
BRANCH 13 14
ATOM     14  CD  ARG B   2     -13.315 -30.225  -4.997  1.00  9.44 LIG 0.14  C 
BRANCH 14 15
ATOM     15  NE  ARG B   2     -12.780 -28.874  -5.158  1.00  9.23 LIG-0.23  N 
ATOM     16  CZ  ARG B   2     -11.515 -28.597  -5.449  1.00  9.20 LIG 0.67  C 
ATOM     17  NH1 ARG B   2     -10.640 -29.581  -5.614  1.00  7.63 LIG-0.23  N 
ATOM     18  NH2 ARG B   2     -11.122 -27.336  -5.579  1.00  9.31 LIG-0.23  N 
ATOM     19 1HH1 ARG B   2     -10.893 -30.399  -5.531  1.00  7.63 LIG 0.17  HD
ATOM     20 2HH1 ARG B   2      -9.821 -29.401  -5.802  1.00  7.63 LIG 0.17  HD
ATOM     21 2HH2 ARG B   2     -10.303 -27.158  -5.768  1.00  9.31 LIG 0.17  HD
ATOM     22 1HH2 ARG B   2     -11.688 -26.697  -5.474  1.00  9.31 LIG 0.17  HD
ATOM     23 HE   ARG B   2     -13.321 -28.214  -5.057  1.00  9.23 LIG 0.18  HD
ENDBRANCH 14 15
ENDBRANCH 13 14
ENDBRANCH 12 13
ENDBRANCH 11 12
BRANCH 11 24
ATOM     24  N   ARG B   2     -17.354 -29.752  -3.913  1.00 12.50 LIG-0.35  N 
ATOM     25  C   ALA B   1     -17.551 -30.744  -4.773  1.00 14.33 LIG 0.25  C 
ATOM     26 O    ALA B   1     -17.083 -30.758  -5.909  1.00 14.72 LIG-0.27  OA
ATOM     27 H    ARG B   2     -17.661 -29.758  -3.110  1.00 12.50 LIG 0.16  HD
BRANCH 25 28
ATOM     28  CA  ALA B   1     -18.398 -31.903  -4.257  1.00 14.93 LIG 0.27  C 
ATOM     29  CB  ALA B   1     -19.254 -32.472  -5.382  1.00 16.58 LIG 0.05  C 
BRANCH 28 30
ATOM     30  N   ALA B   1     -19.263 -31.474  -3.122  1.00 16.58 LIG-0.07  N 
ATOM     31 H3   ALA B   1     -19.473 -32.182  -2.625  1.00 16.58 LIG 0.28  HD
ATOM     32 H1   ALA B   1     -18.825 -30.881  -2.624  1.00 16.58 LIG 0.28  HD
ATOM     33 H2   ALA B   1     -20.007 -31.104  -3.439  1.00 16.58 LIG 0.28  HD
ENDBRANCH 28 30
ENDBRANCH 25 28
ENDBRANCH 11 24
ENDBRANCH 8 11
ENDBRANCH 5 7
ENDBRANCH 1 5
BRANCH 3 34
ATOM     34  CA  GLU B   4     -14.215 -29.099 -11.096  1.00 20.15 LIG 0.18  C 
BRANCH 34 35
ATOM     35  C   GLU B   4     -12.932 -28.274 -11.172  1.00 19.92 LIG 0.24  C 
ATOM     36  N   VAL B   5     -11.790 -28.940 -11.029  1.00 19.46 LIG-0.35  N 
ATOM     37 H    VAL B   5     -11.741 -29.789 -10.899  1.00 19.46 LIG 0.16  HD
ATOM     38 O    GLU B   4     -12.977 -27.059 -11.365  1.00 20.03 LIG-0.27  OA
BRANCH 36 39
ATOM     39  CA  VAL B   5     -10.499 -28.260 -11.082  1.00 20.09 LIG 0.18  C 
BRANCH 39 40
ATOM     40  CB  VAL B   5     -10.181 -27.557  -9.741  1.00 20.49 LIG 0.01  C 
ATOM     41  CG2 VAL B   5     -10.642 -28.417  -8.577  1.00 19.70 LIG 0.01  C 
ATOM     42  CG1 VAL B   5     -10.854 -26.196  -9.692  1.00 21.00 LIG 0.01  C 
ENDBRANCH 39 40
BRANCH 39 43
ATOM     43  C   VAL B   5      -9.367 -29.236 -11.392  1.00 20.75 LIG 0.24  C 
ATOM     44  N   HIS B   6      -8.766 -29.093 -12.570  1.00 20.78 LIG-0.35  N 
ATOM     45 H    HIS B   6      -8.985 -28.502 -13.155  1.00 20.78 LIG 0.16  HD
ATOM     46 O    VAL B   5      -9.050 -30.106 -10.582  1.00 21.91 LIG-0.27  OA
BRANCH 44 47
ATOM     47  CA  HIS B   6      -7.657 -29.955 -12.966  1.00 21.28 LIG 0.17  C 
BRANCH 47 48
ATOM     48  C   HIS B   6      -6.774 -29.232 -13.976  1.00 23.03 LIG 0.22  C 
ATOM     49 O    HIS B   6      -6.848 -29.573 -15.176  1.00 25.39 LIG-0.29  OA
ENDBRANCH 47 48
BRANCH 47 50
ATOM     50  CB  HIS B   6      -8.170 -31.257 -13.589  1.00 19.33 LIG 0.09  C 
BRANCH 50 51
ATOM     51  CG  HIS B   6      -9.660 -31.306 -13.736  1.00 17.39 LIG 0.06  A 
ATOM     52  CD2 HIS B   6     -10.622 -31.796 -12.920  1.00 16.59 LIG 0.14  A 
ATOM     53 NE2  HIS B   6     -11.832 -31.551 -13.523  1.00 16.70 LIG-0.25  NA
ATOM     54  CE1 HIS B   6     -11.620 -30.933 -14.671  1.00 16.06 LIG 0.23  A 
ATOM     55 ND1  HIS B   6     -10.317 -30.773 -14.824  1.00 16.09 LIG-0.24  NA
ENDBRANCH 50 51
ENDBRANCH 47 50
ENDBRANCH 44 47
ENDBRANCH 39 43
ENDBRANCH 36 39
ENDBRANCH 34 35
BRANCH 34 56
ATOM     56  CB  GLU B   4     -14.861 -29.146 -12.483  1.00 22.38 LIG 0.04  C 
BRANCH 56 57
ATOM     57  CG  GLU B   4     -16.345 -28.825 -12.500  1.00 27.64 LIG 0.12  C 
BRANCH 57 58
ATOM     58  CD  GLU B   4     -17.180 -29.995 -12.985  1.00 30.78 LIG 0.17  C 
ATOM     59 OE2  GLU B   4     -17.770 -29.895 -14.082  1.00 32.62 LIG-0.65  OA
ATOM     60 OE1  GLU B   4     -17.246 -31.015 -12.266  1.00 32.75 LIG-0.65  OA
ENDBRANCH 57 58
ENDBRANCH 56 57
ENDBRANCH 34 56
ENDBRANCH 3 34
TORSDOF 22
ENDMDL
MODEL 2
USER: ADFR SOLUTION from run 101
USER: SCORE 18.943139 LL:  -6.080 LR: -15.083 RR:   0.000 FEB:  -8.520
USER: RMSD 6.429019
USER: SEED 100
USER: STATUS no improvement in best in 6 clusters for 5 generations
USER: GENES 24
USER: genes 0 Translation |==|  0.57440 0.46772 0.49936
USER: genes 1 Rotation |==|  0.24004 0.17512 0.76900 0.56716
USER: genes 2 Torsion [N]-C--CA-[N] |==|  0.15593
USER: genes 3 Torsion [C]-CA--N-[C] |==|  0.75556
USER: genes 4 Torsion [N]-C--CA-[N] |==|  0.80210
USER: genes 5 Torsion [C]-CA--CB-[CG] |==|  0.26552
USER: genes 6 Torsion [CA]-CB--CG-[CD] |==|  0.61897
USER: genes 7 Torsion [CB]-CG--CD-[NE] |==|  0.22308
USER: genes 8 Torsion [CG]-CD--NE-[CZ] |==|  0.73359
USER: genes 9 Torsion [C]-CA--N-[C] |==|  0.62793
USER: genes 10 Torsion [N]-C--CA-[N] |==|  0.73923
USER: genes 11 Torsion [C]-CA--N-[H2] |==|  0.73869
USER: genes 12 Torsion [C]-N--CA-[C] |==|  0.79962
USER: genes 13 Torsion [N]-CA--C-[N] |==|  0.41419
USER: genes 14 Torsion [C]-N--CA-[CB] |==|  0.40172
USER: genes 15 Torsion [N]-CA--CB-[CG2] |==|  0.94103
USER: genes 16 Torsion [N]-CA--C-[N] |==|  0.95219
USER: genes 17 Torsion [C]-N--CA-[C] |==|  0.18769
USER: genes 18 Torsion [N]-CA--C-[O] |==|  0.23836
USER: genes 19 Torsion [N]-CA--CB-[CG] |==|  0.82687
USER: genes 20 Torsion [CA]-CB--CG-[CD2] |==|  0.11228
USER: genes 21 Torsion [N]-CA--CB-[CG] |==|  0.02489
USER: genes 22 Torsion [CA]-CB--CG-[CD] |==|  0.70460
USER: genes 23 Torsion [CB]-CG--CD-[OE2] |==|  0.51047
ROOT
ATOM      1  C   ALA B   3     -13.797 -28.840  -5.060  1.00 17.17 LIG 0.24  C 
ATOM      2 O    ALA B   3     -13.345 -28.968  -3.921  1.00 18.54 LIG-0.27  OA
ATOM      3  N   GLU B   4     -15.099 -28.881  -5.329  1.00 17.89 LIG-0.35  N 
ATOM      4 H    GLU B   4     -15.426 -28.793  -6.120  1.00 17.89 LIG 0.16  HD
ENDROOT
BRANCH 1 5
ATOM      5  CA  ALA B   3     -12.856 -28.621  -6.244  1.00 15.99 LIG 0.17  C 
ATOM      6  CB  ALA B   3     -11.409 -28.586  -5.762  1.00 16.21 LIG 0.04  C 
BRANCH 5 7
ATOM      7  N   ALA B   3     -13.153 -27.411  -7.001  1.00 13.91 LIG-0.35  N 
ATOM      8  C   ARG B   2     -14.027 -27.416  -8.004  1.00 12.46 LIG 0.24  C 
ATOM      9 O    ARG B   2     -14.640 -28.426  -8.347  1.00 11.56 LIG-0.27  OA
ATOM     10 H    ALA B   3     -12.721 -26.714  -6.743  1.00 13.91 LIG 0.16  HD
BRANCH 8 11
ATOM     11  CA  ARG B   2     -14.245 -26.094  -8.733  1.00 12.24 LIG 0.18  C 
BRANCH 11 12
ATOM     12  CB  ARG B   2     -12.896 -25.523  -9.178  1.00 10.58 LIG 0.04  C 
BRANCH 12 13
ATOM     13  CG  ARG B   2     -12.506 -25.856 -10.611  1.00  9.71 LIG 0.02  C 
BRANCH 13 14
ATOM     14  CD  ARG B   2     -11.038 -26.242 -10.684  1.00  9.44 LIG 0.14  C 
BRANCH 14 15
ATOM     15  NE  ARG B   2     -10.808 -27.628 -10.278  1.00  9.23 LIG-0.23  N 
ATOM     16  CZ  ARG B   2     -10.443 -28.003  -9.058  1.00  9.20 LIG 0.67  C 
ATOM     17  NH1 ARG B   2     -10.261 -27.092  -8.110  1.00  7.63 LIG-0.23  N 
ATOM     18  NH2 ARG B   2     -10.261 -29.288  -8.783  1.00  9.31 LIG-0.23  N 
ATOM     19 1HH1 ARG B   2     -10.380 -26.259  -8.287  1.00  7.63 LIG 0.17  HD
ATOM     20 2HH1 ARG B   2     -10.025 -27.335  -7.320  1.00  7.63 LIG 0.17  HD
ATOM     21 2HH2 ARG B   2     -10.025 -29.529  -7.992  1.00  9.31 LIG 0.17  HD
ATOM     22 1HH2 ARG B   2     -10.379 -29.880  -9.396  1.00  9.31 LIG 0.17  HD
ATOM     23 HE   ARG B   2     -10.916 -28.242 -10.870  1.00  9.23 LIG 0.18  HD
ENDBRANCH 14 15
ENDBRANCH 13 14
ENDBRANCH 12 13
ENDBRANCH 11 12
BRANCH 11 24
ATOM     24  N   ARG B   2     -14.969 -25.077  -7.979  1.00 12.50 LIG-0.35  N 
ATOM     25  C   ALA B   1     -15.962 -24.360  -8.491  1.00 14.33 LIG 0.25  C 
ATOM     26 O    ALA B   1     -16.387 -24.513  -9.635  1.00 14.72 LIG-0.27  OA
ATOM     27 H    ARG B   2     -14.692 -24.985  -7.170  1.00 12.50 LIG 0.16  HD
BRANCH 25 28
ATOM     28  CA  ALA B   1     -16.574 -23.321  -7.556  1.00 14.93 LIG 0.27  C 
ATOM     29  CB  ALA B   1     -15.535 -22.841  -6.551  1.00 16.58 LIG 0.05  C 
BRANCH 28 30
ATOM     30  N   ALA B   1     -17.761 -23.871  -6.845  1.00 16.58 LIG-0.07  N 
ATOM     31 H3   ALA B   1     -17.689 -24.756  -6.787  1.00 16.58 LIG 0.28  HD
ATOM     32 H1   ALA B   1     -17.804 -23.523  -6.027  1.00 16.58 LIG 0.28  HD
ATOM     33 H2   ALA B   1     -18.499 -23.662  -7.295  1.00 16.58 LIG 0.28  HD
ENDBRANCH 28 30
ENDBRANCH 25 28
ENDBRANCH 11 24
ENDBRANCH 8 11
ENDBRANCH 5 7
ENDBRANCH 1 5
BRANCH 3 34
ATOM     34  CA  GLU B   4     -16.102 -29.084  -4.285  1.00 20.15 LIG 0.18  C 
BRANCH 34 35
ATOM     35  C   GLU B   4     -16.077 -30.524  -3.779  1.00 19.92 LIG 0.24  C 
ATOM     36  N   VAL B   5     -16.412 -30.712  -2.507  1.00 19.46 LIG-0.35  N 
ATOM     37 H    VAL B   5     -16.636 -30.078  -1.970  1.00 19.46 LIG 0.16  HD
ATOM     38 O    GLU B   4     -15.767 -31.448  -4.531  1.00 20.03 LIG-0.27  OA
BRANCH 36 39
ATOM     39  CA  VAL B   5     -16.425 -32.044  -1.910  1.00 20.09 LIG 0.18  C 
BRANCH 39 40
ATOM     40  CB  VAL B   5     -15.973 -31.999  -0.431  1.00 20.49 LIG 0.01  C 
ATOM     41  CG2 VAL B   5     -15.166 -30.739  -0.169  1.00 19.70 LIG 0.01  C 
ATOM     42  CG1 VAL B   5     -15.149 -33.232  -0.100  1.00 21.00 LIG 0.01  C 
ENDBRANCH 39 40
BRANCH 39 43
ATOM     43  C   VAL B   5     -17.818 -32.666  -1.965  1.00 20.75 LIG 0.24  C 
ATOM     44  N   HIS B   6     -18.832 -31.834  -2.189  1.00 20.78 LIG-0.35  N 
ATOM     45 H    HIS B   6     -18.745 -30.984  -2.289  1.00 20.78 LIG 0.16  HD
ATOM     46 O    VAL B   5     -17.972 -33.876  -1.801  1.00 21.91 LIG-0.27  OA
BRANCH 44 47
ATOM     47  CA  HIS B   6     -20.205 -32.318  -2.284  1.00 21.28 LIG 0.17  C 
BRANCH 47 48
ATOM     48  C   HIS B   6     -20.667 -32.833  -0.926  1.00 23.03 LIG 0.22  C 
ATOM     49 O    HIS B   6     -21.145 -32.012  -0.114  1.00 25.39 LIG-0.29  OA
ENDBRANCH 47 48
BRANCH 47 50
ATOM     50  CB  HIS B   6     -20.319 -33.447  -3.313  1.00 19.33 LIG 0.09  C 
BRANCH 50 51
ATOM     51  CG  HIS B   6     -19.967 -33.026  -4.707  1.00 17.39 LIG 0.06  A 
ATOM     52  CD2 HIS B   6     -18.985 -32.220  -5.174  1.00 16.59 LIG 0.14  A 
ATOM     53 NE2  HIS B   6     -19.092 -32.200  -6.545  1.00 16.70 LIG-0.25  NA
ATOM     54  CE1 HIS B   6     -20.106 -32.965  -6.905  1.00 16.06 LIG 0.23  A 
ATOM     55 ND1  HIS B   6     -20.651 -33.476  -5.815  1.00 16.09 LIG-0.24  NA
ENDBRANCH 50 51
ENDBRANCH 47 50
ENDBRANCH 44 47
ENDBRANCH 39 43
ENDBRANCH 36 39
ENDBRANCH 34 35
BRANCH 34 56
ATOM     56  CB  GLU B   4     -17.499 -28.768  -4.824  1.00 22.38 LIG 0.04  C 
BRANCH 56 57
ATOM     57  CG  GLU B   4     -17.561 -28.536  -6.323  1.00 27.64 LIG 0.12  C 
BRANCH 57 58
ATOM     58  CD  GLU B   4     -17.751 -27.073  -6.672  1.00 30.78 LIG 0.17  C 
ATOM     59 OE2  GLU B   4     -17.889 -26.758  -7.873  1.00 32.62 LIG-0.65  OA
ATOM     60 OE1  GLU B   4     -17.761 -26.238  -5.743  1.00 32.75 LIG-0.65  OA
ENDBRANCH 57 58
ENDBRANCH 56 57
ENDBRANCH 34 56
ENDBRANCH 3 34
TORSDOF 22
ENDMDL
MODEL 3
USER: ADFR SOLUTION from run 23
USER: SCORE 17.244224 LL:  -3.961 LR: -15.034 RR:   0.000 FEB:  -8.472
USER: RMSD 6.084667
USER: SEED 22
USER: STATUS 1 or 2 clusters left
USER: GENES 24
USER: genes 0 Translation |==|  0.35598 0.50351 0.44543
USER: genes 1 Rotation |==|  0.48022 0.83554 0.21473 0.73589
USER: genes 2 Torsion [N]-C--CA-[N] |==|  0.66691
USER: genes 3 Torsion [C]-CA--N-[C] |==|  0.54444
USER: genes 4 Torsion [N]-C--CA-[N] |==|  0.87043
USER: genes 5 Torsion [C]-CA--CB-[CG] |==|  0.02003
USER: genes 6 Torsion [CA]-CB--CG-[CD] |==|  0.42679
USER: genes 7 Torsion [CB]-CG--CD-[NE] |==|  0.35856
USER: genes 8 Torsion [CG]-CD--NE-[CZ] |==|  0.77053
USER: genes 9 Torsion [C]-CA--N-[C] |==|  0.78995
USER: genes 10 Torsion [N]-C--CA-[N] |==|  0.21295
USER: genes 11 Torsion [C]-CA--N-[H2] |==|  0.48451
USER: genes 12 Torsion [C]-N--CA-[C] |==|  0.70565
USER: genes 13 Torsion [N]-CA--C-[N] |==|  0.44053
USER: genes 14 Torsion [C]-N--CA-[CB] |==|  0.53547
USER: genes 15 Torsion [N]-CA--CB-[CG2] |==|  0.46415
USER: genes 16 Torsion [N]-CA--C-[N] |==|  0.32142
USER: genes 17 Torsion [C]-N--CA-[C] |==|  0.75070
USER: genes 18 Torsion [N]-CA--C-[O] |==|  0.00358
USER: genes 19 Torsion [N]-CA--CB-[CG] |==|  0.97335
USER: genes 20 Torsion [CA]-CB--CG-[CD2] |==|  0.77641
USER: genes 21 Torsion [N]-CA--CB-[CG] |==|  0.07941
USER: genes 22 Torsion [CA]-CB--CG-[CD] |==|  0.52352
USER: genes 23 Torsion [CB]-CG--CD-[OE2] |==|  0.03680
ROOT
ATOM      1  C   ALA B   3     -17.728 -28.007  -6.233  1.00 17.17 LIG 0.24  C 
ATOM      2 O    ALA B   3     -18.136 -27.306  -5.306  1.00 18.54 LIG-0.27  OA
ATOM      3  N   GLU B   4     -17.560 -29.323  -6.124  1.00 17.89 LIG-0.35  N 
ATOM      4 H    GLU B   4     -17.276 -29.822  -6.764  1.00 17.89 LIG 0.16  HD
ENDROOT
BRANCH 1 5
ATOM      5  CA  ALA B   3     -17.389 -27.380  -7.585  1.00 15.99 LIG 0.17  C 
ATOM      6  CB  ALA B   3     -16.991 -28.466  -8.579  1.00 16.21 LIG 0.04  C 
BRANCH 5 7
ATOM      7  N   ALA B   3     -16.338 -26.373  -7.506  1.00 13.91 LIG-0.35  N 
ATOM      8  C   ARG B   2     -16.128 -25.509  -8.495  1.00 12.46 LIG 0.24  C 
ATOM      9 O    ARG B   2     -16.804 -25.497  -9.523  1.00 11.56 LIG-0.27  OA
ATOM     10 H    ALA B   3     -15.880 -26.392  -6.778  1.00 13.91 LIG 0.16  HD
BRANCH 8 11
ATOM     11  CA  ARG B   2     -14.989 -24.512  -8.307  1.00 12.24 LIG 0.18  C 
BRANCH 11 12
ATOM     12  CB  ARG B   2     -13.648 -25.209  -8.554  1.00 10.58 LIG 0.04  C 
BRANCH 12 13
ATOM     13  CG  ARG B   2     -13.758 -26.632  -9.083  1.00  9.71 LIG 0.02  C 
BRANCH 13 14
ATOM     14  CD  ARG B   2     -12.518 -26.998  -9.882  1.00  9.44 LIG 0.14  C 
BRANCH 14 15
ATOM     15  NE  ARG B   2     -11.933 -28.266  -9.449  1.00  9.23 LIG-0.23  N 
ATOM     16  CZ  ARG B   2     -11.115 -28.400  -8.412  1.00  9.20 LIG 0.67  C 
ATOM     17  NH1 ARG B   2     -10.777 -27.339  -7.691  1.00  7.63 LIG-0.23  N 
ATOM     18  NH2 ARG B   2     -10.636 -29.596  -8.093  1.00  9.31 LIG-0.23  N 
ATOM     19 1HH1 ARG B   2     -11.087 -26.564  -7.896  1.00  7.63 LIG 0.17  HD
ATOM     20 2HH1 ARG B   2     -10.247 -27.427  -7.020  1.00  7.63 LIG 0.17  HD
ATOM     21 2HH2 ARG B   2     -10.107 -29.682  -7.421  1.00  9.31 LIG 0.17  HD
ATOM     22 1HH2 ARG B   2     -10.856 -30.285  -8.558  1.00  9.31 LIG 0.17  HD
ATOM     23 HE   ARG B   2     -12.133 -28.972  -9.896  1.00  9.23 LIG 0.18  HD
ENDBRANCH 14 15
ENDBRANCH 13 14
ENDBRANCH 12 13
ENDBRANCH 11 12
BRANCH 11 24
ATOM     24  N   ARG B   2     -14.950 -23.847  -7.009  1.00 12.50 LIG-0.35  N 
ATOM     25  C   ALA B   1     -15.780 -22.869  -6.668  1.00 14.33 LIG 0.25  C 
ATOM     26 O    ALA B   1     -16.680 -22.459  -7.399  1.00 14.72 LIG-0.27  OA
ATOM     27 H    ARG B   2     -14.338 -24.148  -6.485  1.00 12.50 LIG 0.16  HD
BRANCH 25 28
ATOM     28  CA  ALA B   1     -15.562 -22.275  -5.280  1.00 14.93 LIG 0.27  C 
ATOM     29  CB  ALA B   1     -16.811 -21.531  -4.823  1.00 16.58 LIG 0.05  C 
BRANCH 28 30
ATOM     30  N   ALA B   1     -14.386 -21.360  -5.265  1.00 16.58 LIG-0.07  N 
ATOM     31 H3   ALA B   1     -13.644 -21.828  -5.419  1.00 16.58 LIG 0.28  HD
ATOM     32 H1   ALA B   1     -14.484 -20.742  -5.897  1.00 16.58 LIG 0.28  HD
ATOM     33 H2   ALA B   1     -14.327 -20.965  -4.470  1.00 16.58 LIG 0.28  HD
ENDBRANCH 28 30
ENDBRANCH 25 28
ENDBRANCH 11 24
ENDBRANCH 8 11
ENDBRANCH 5 7
ENDBRANCH 1 5
BRANCH 3 34
ATOM     34  CA  GLU B   4     -17.849 -30.042  -4.884  1.00 20.15 LIG 0.18  C 
BRANCH 34 35
ATOM     35  C   GLU B   4     -16.558 -30.447  -4.177  1.00 19.92 LIG 0.24  C 
ATOM     36  N   VAL B   5     -16.650 -30.699  -2.875  1.00 19.46 LIG-0.35  N 
ATOM     37 H    VAL B   5     -17.381 -30.648  -2.425  1.00 19.46 LIG 0.16  HD
ATOM     38 O    GLU B   4     -15.501 -30.536  -4.801  1.00 20.03 LIG-0.27  OA
BRANCH 36 39
ATOM     39  CA  VAL B   5     -15.483 -31.095  -2.091  1.00 20.09 LIG 0.18  C 
BRANCH 39 40
ATOM     40  CB  VAL B   5     -15.900 -31.633  -0.701  1.00 20.49 LIG 0.01  C 
ATOM     41  CG2 VAL B   5     -14.724 -32.326  -0.035  1.00 19.70 LIG 0.01  C 
ATOM     42  CG1 VAL B   5     -17.068 -32.593  -0.842  1.00 21.00 LIG 0.01  C 
ENDBRANCH 39 40
BRANCH 39 43
ATOM     43  C   VAL B   5     -14.675 -32.178  -2.801  1.00 20.75 LIG 0.24  C 
ATOM     44  N   HIS B   6     -13.441 -31.851  -3.173  1.00 20.78 LIG-0.35  N 
ATOM     45 H    HIS B   6     -13.089 -31.076  -3.047  1.00 20.78 LIG 0.16  HD
ATOM     46 O    VAL B   5     -15.164 -33.287  -3.015  1.00 21.91 LIG-0.27  OA
BRANCH 44 47
ATOM     47  CA  HIS B   6     -12.569 -32.811  -3.840  1.00 21.28 LIG 0.17  C 
BRANCH 47 48
ATOM     48  C   HIS B   6     -11.766 -33.588  -2.804  1.00 23.03 LIG 0.22  C 
ATOM     49 O    HIS B   6     -11.963 -33.339  -1.595  1.00 25.39 LIG-0.29  OA
ENDBRANCH 47 48
BRANCH 47 50
ATOM     50  CB  HIS B   6     -11.603 -32.103  -4.795  1.00 19.33 LIG 0.09  C 
BRANCH 50 51
ATOM     51  CG  HIS B   6     -11.916 -30.652  -5.000  1.00 17.39 LIG 0.06  A 
ATOM     52  CD2 HIS B   6     -12.827 -30.039  -5.792  1.00 16.59 LIG 0.14  A 
ATOM     53 NE2  HIS B   6     -12.716 -28.688  -5.568  1.00 16.70 LIG-0.25  NA
ATOM     54  CE1 HIS B   6     -11.769 -28.479  -4.671  1.00 16.06 LIG 0.23  A 
ATOM     55 ND1  HIS B   6     -11.270 -29.649  -4.311  1.00 16.09 LIG-0.24  NA
ENDBRANCH 50 51
ENDBRANCH 47 50
ENDBRANCH 44 47
ENDBRANCH 39 43
ENDBRANCH 36 39
ENDBRANCH 34 35
BRANCH 34 56
ATOM     56  CB  GLU B   4     -18.671 -31.299  -5.181  1.00 22.38 LIG 0.04  C 
BRANCH 56 57
ATOM     57  CG  GLU B   4     -18.438 -31.896  -6.557  1.00 27.64 LIG 0.12  C 
BRANCH 57 58
ATOM     58  CD  GLU B   4     -19.419 -33.008  -6.875  1.00 30.78 LIG 0.17  C 
ATOM     59 OE2  GLU B   4     -20.424 -33.145  -6.145  1.00 32.62 LIG-0.65  OA
ATOM     60 OE1  GLU B   4     -19.183 -33.746  -7.855  1.00 32.75 LIG-0.65  OA
ENDBRANCH 57 58
ENDBRANCH 56 57
ENDBRANCH 34 56
ENDBRANCH 3 34
TORSDOF 22
ENDMDL
MODEL 4
USER: ADFR SOLUTION from run 94
USER: SCORE 17.735294 LL:  -3.565 LR: -15.007 RR:   0.000 FEB:  -8.444
USER: RMSD 5.193320
USER: SEED 93
USER: STATUS no improvement in best in 3 clusters for 5 generations
USER: GENES 24
USER: genes 0 Translation |==|  0.53852 0.47756 0.18272
USER: genes 1 Rotation |==|  0.52512 0.98155 0.52470 0.62987
USER: genes 2 Torsion [N]-C--CA-[N] |==|  0.54212
USER: genes 3 Torsion [C]-CA--N-[C] |==|  0.74863
USER: genes 4 Torsion [N]-C--CA-[N] |==|  0.92841
USER: genes 5 Torsion [C]-CA--CB-[CG] |==|  0.03350
USER: genes 6 Torsion [CA]-CB--CG-[CD] |==|  0.45173
USER: genes 7 Torsion [CB]-CG--CD-[NE] |==|  0.11741
USER: genes 8 Torsion [CG]-CD--NE-[CZ] |==|  0.63773
USER: genes 9 Torsion [C]-CA--N-[C] |==|  0.82332
USER: genes 10 Torsion [N]-C--CA-[N] |==|  0.37989
USER: genes 11 Torsion [C]-CA--N-[H2] |==|  0.99570
USER: genes 12 Torsion [C]-N--CA-[C] |==|  0.17471
USER: genes 13 Torsion [N]-CA--C-[N] |==|  0.05676
USER: genes 14 Torsion [C]-N--CA-[CB] |==|  0.83328
USER: genes 15 Torsion [N]-CA--CB-[CG2] |==|  0.75144
USER: genes 16 Torsion [N]-CA--C-[N] |==|  0.43761
USER: genes 17 Torsion [C]-N--CA-[C] |==|  0.62118
USER: genes 18 Torsion [N]-CA--C-[O] |==|  0.98767
USER: genes 19 Torsion [N]-CA--CB-[CG] |==|  0.34970
USER: genes 20 Torsion [CA]-CB--CG-[CD2] |==|  0.26831
USER: genes 21 Torsion [N]-CA--CB-[CG] |==|  0.60364
USER: genes 22 Torsion [CA]-CB--CG-[CD] |==|  0.37886
USER: genes 23 Torsion [CB]-CG--CD-[OE2] |==|  0.00003
ROOT
ATOM      1  C   ALA B   3     -14.443 -28.611 -11.947  1.00 17.17 LIG 0.24  C 
ATOM      2 O    ALA B   3     -14.213 -29.442 -11.067  1.00 18.54 LIG-0.27  OA
ATOM      3  N   GLU B   4     -14.462 -28.916 -13.242  1.00 17.89 LIG-0.35  N 
ATOM      4 H    GLU B   4     -14.621 -28.345 -13.865  1.00 17.89 LIG 0.16  HD
ENDROOT
BRANCH 1 5
ATOM      5  CA  ALA B   3     -14.723 -27.154 -11.579  1.00 15.99 LIG 0.17  C 
ATOM      6  CB  ALA B   3     -14.007 -26.223 -12.553  1.00 16.21 LIG 0.04  C 
BRANCH 5 7
ATOM      7  N   ALA B   3     -14.345 -26.822 -10.211  1.00 13.91 LIG-0.35  N 
ATOM      8  C   ARG B   2     -15.206 -26.944  -9.204  1.00 12.46 LIG 0.24  C 
ATOM      9 O    ARG B   2     -16.358 -27.348  -9.358  1.00 11.56 LIG-0.27  OA
ATOM     10 H    ALA B   3     -13.535 -26.547 -10.121  1.00 13.91 LIG 0.16  HD
BRANCH 8 11
ATOM     11  CA  ARG B   2     -14.703 -26.551  -7.818  1.00 12.24 LIG 0.18  C 
BRANCH 11 12
ATOM     12  CB  ARG B   2     -15.154 -25.125  -7.492  1.00 10.58 LIG 0.04  C 
BRANCH 12 13
ATOM     13  CG  ARG B   2     -16.200 -24.555  -8.440  1.00  9.71 LIG 0.02  C 
BRANCH 13 14
ATOM     14  CD  ARG B   2     -16.884 -23.352  -7.813  1.00  9.44 LIG 0.14  C 
BRANCH 14 15
ATOM     15  NE  ARG B   2     -15.938 -22.470  -7.130  1.00  9.23 LIG-0.23  N 
ATOM     16  CZ  ARG B   2     -16.095 -22.015  -5.893  1.00  9.20 LIG 0.67  C 
ATOM     17  NH1 ARG B   2     -17.168 -22.356  -5.190  1.00  7.63 LIG-0.23  N 
ATOM     18  NH2 ARG B   2     -15.179 -21.220  -5.355  1.00  9.31 LIG-0.23  N 
ATOM     19 1HH1 ARG B   2     -17.762 -22.872  -5.537  1.00  7.63 LIG 0.17  HD
ATOM     20 2HH1 ARG B   2     -17.269 -22.061  -4.389  1.00  7.63 LIG 0.17  HD
ATOM     21 2HH2 ARG B   2     -15.282 -20.926  -4.553  1.00  9.31 LIG 0.17  HD
ATOM     22 1HH2 ARG B   2     -14.482 -20.999  -5.808  1.00  9.31 LIG 0.17  HD
ATOM     23 HE   ARG B   2     -15.233 -22.230  -7.558  1.00  9.23 LIG 0.18  HD
ENDBRANCH 14 15
ENDBRANCH 13 14
ENDBRANCH 12 13
ENDBRANCH 11 12
BRANCH 11 24
ATOM     24  N   ARG B   2     -13.260 -26.652  -7.626  1.00 12.50 LIG-0.35  N 
ATOM     25  C   ALA B   1     -12.596 -27.799  -7.690  1.00 14.33 LIG 0.25  C 
ATOM     26 O    ALA B   1     -13.129 -28.876  -7.954  1.00 14.72 LIG-0.27  OA
ATOM     27 H    ARG B   2     -12.880 -25.897  -7.468  1.00 12.50 LIG 0.16  HD
BRANCH 25 28
ATOM     28  CA  ALA B   1     -11.096 -27.707  -7.428  1.00 14.93 LIG 0.27  C 
ATOM     29  CB  ALA B   1     -10.329 -27.733  -8.745  1.00 16.58 LIG 0.05  C 
BRANCH 28 30
ATOM     30  N   ALA B   1     -10.636 -28.814  -6.545  1.00 16.58 LIG-0.07  N 
ATOM     31 H3   ALA B   1     -10.041 -29.314  -6.980  1.00 16.58 LIG 0.28  HD
ATOM     32 H1   ALA B   1     -10.259 -28.474  -5.814  1.00 16.58 LIG 0.28  HD
ATOM     33 H2   ALA B   1     -11.332 -29.318  -6.313  1.00 16.58 LIG 0.28  HD
ENDBRANCH 28 30
ENDBRANCH 25 28
ENDBRANCH 11 24
ENDBRANCH 8 11
ENDBRANCH 5 7
ENDBRANCH 1 5
BRANCH 3 34
ATOM     34  CA  GLU B   4     -14.211 -30.273 -13.723  1.00 20.15 LIG 0.18  C 
BRANCH 34 35
ATOM     35  C   GLU B   4     -15.277 -31.239 -13.210  1.00 19.92 LIG 0.24  C 
ATOM     36  N   VAL B   5     -16.424 -30.698 -12.812  1.00 19.46 LIG-0.35  N 
ATOM     37 H    VAL B   5     -16.590 -29.854 -12.829  1.00 19.46 LIG 0.16  HD
ATOM     38 O    GLU B   4     -15.066 -32.451 -13.184  1.00 20.03 LIG-0.27  OA
BRANCH 36 39
ATOM     39  CA  VAL B   5     -17.518 -31.520 -12.302  1.00 20.09 LIG 0.18  C 
BRANCH 39 40
ATOM     40  CB  VAL B   5     -17.994 -32.540 -13.364  1.00 20.49 LIG 0.01  C 
ATOM     41  CG2 VAL B   5     -19.088 -31.930 -14.221  1.00 19.70 LIG 0.01  C 
ATOM     42  CG1 VAL B   5     -18.496 -33.803 -12.685  1.00 21.00 LIG 0.01  C 
ENDBRANCH 39 40
BRANCH 39 43
ATOM     43  C   VAL B   5     -17.101 -32.290 -11.051  1.00 20.75 LIG 0.24  C 
ATOM     44  N   HIS B   6     -18.081 -32.690 -10.246  1.00 20.78 LIG-0.35  N 
ATOM     45 H    HIS B   6     -18.915 -32.531 -10.385  1.00 20.78 LIG 0.16  HD
ATOM     46 O    VAL B   5     -15.913 -32.510 -10.817  1.00 21.91 LIG-0.27  OA
BRANCH 44 47
ATOM     47  CA  HIS B   6     -17.803 -33.452  -9.033  1.00 21.28 LIG 0.17  C 
BRANCH 47 48
ATOM     48  C   HIS B   6     -18.797 -34.601  -8.905  1.00 23.03 LIG 0.22  C 
ATOM     49 O    HIS B   6     -19.715 -34.685  -9.748  1.00 25.39 LIG-0.29  OA
ENDBRANCH 47 48
BRANCH 47 50
ATOM     50  CB  HIS B   6     -17.903 -32.562  -7.791  1.00 19.33 LIG 0.09  C 
BRANCH 50 51
ATOM     51  CG  HIS B   6     -18.839 -33.091  -6.747  1.00 17.39 LIG 0.06  A 
ATOM     52  CD2 HIS B   6     -18.608 -33.823  -5.631  1.00 16.59 LIG 0.14  A 
ATOM     53 NE2  HIS B   6     -19.820 -34.007  -5.009  1.00 16.70 LIG-0.25  NA
ATOM     54  CE1 HIS B   6     -20.761 -33.411  -5.719  1.00 16.06 LIG 0.23  A 
ATOM     55 ND1  HIS B   6     -20.195 -32.850  -6.773  1.00 16.09 LIG-0.24  NA
ENDBRANCH 50 51
ENDBRANCH 47 50
ENDBRANCH 44 47
ENDBRANCH 39 43
ENDBRANCH 36 39
ENDBRANCH 34 35
BRANCH 34 56
ATOM     56  CB  GLU B   4     -12.835 -30.755 -13.256  1.00 22.38 LIG 0.04  C 
BRANCH 56 57
ATOM     57  CG  GLU B   4     -12.085 -31.602 -14.268  1.00 27.64 LIG 0.12  C 
BRANCH 57 58
ATOM     58  CD  GLU B   4     -10.622 -31.216 -14.369  1.00 30.78 LIG 0.17  C 
ATOM     59 OE2  GLU B   4     -10.197 -30.288 -13.648  1.00 32.62 LIG-0.65  OA
ATOM     60 OE1  GLU B   4      -9.896 -31.842 -15.171  1.00 32.75 LIG-0.65  OA
ENDBRANCH 57 58
ENDBRANCH 56 57
ENDBRANCH 34 56
ENDBRANCH 3 34
TORSDOF 22
ENDMDL
MODEL 5
USER: ADFR SOLUTION from run 117
USER: SCORE 17.200169 LL:  -3.970 LR: -14.944 RR:   0.000 FEB:  -8.381
USER: RMSD 5.260416
USER: SEED 116
USER: STATUS searching
USER: GENES 24
USER: genes 0 Translation |==|  0.36488 0.51327 0.45756
USER: genes 1 Rotation |==|  0.44730 0.82603 0.22283 0.75319
USER: genes 2 Torsion [N]-C--CA-[N] |==|  0.69237
USER: genes 3 Torsion [C]-CA--N-[C] |==|  0.55303
USER: genes 4 Torsion [N]-C--CA-[N] |==|  0.86120
USER: genes 5 Torsion [C]-CA--CB-[CG] |==|  0.07014
USER: genes 6 Torsion [CA]-CB--CG-[CD] |==|  0.64976
USER: genes 7 Torsion [CB]-CG--CD-[NE] |==|  0.99607
USER: genes 8 Torsion [CG]-CD--NE-[CZ] |==|  0.57679
USER: genes 9 Torsion [C]-CA--N-[C] |==|  0.82791
USER: genes 10 Torsion [N]-C--CA-[N] |==|  0.18694
USER: genes 11 Torsion [C]-CA--N-[H2] |==|  0.47202
USER: genes 12 Torsion [C]-N--CA-[C] |==|  0.65870
USER: genes 13 Torsion [N]-CA--C-[N] |==|  0.80015
USER: genes 14 Torsion [C]-N--CA-[CB] |==|  0.84444
USER: genes 15 Torsion [N]-CA--CB-[CG2] |==|  0.87228
USER: genes 16 Torsion [N]-CA--C-[N] |==|  0.95158
USER: genes 17 Torsion [C]-N--CA-[C] |==|  0.62180
USER: genes 18 Torsion [N]-CA--C-[O] |==|  0.26447
USER: genes 19 Torsion [N]-CA--CB-[CG] |==|  0.51378
USER: genes 20 Torsion [CA]-CB--CG-[CD2] |==|  0.24004
USER: genes 21 Torsion [N]-CA--CB-[CG] |==|  0.02447
USER: genes 22 Torsion [CA]-CB--CG-[CD] |==|  0.21611
USER: genes 23 Torsion [CB]-CG--CD-[OE2] |==|  0.27426
ROOT
ATOM      1  C   ALA B   3     -17.568 -27.781  -5.969  1.00 17.17 LIG 0.24  C 
ATOM      2 O    ALA B   3     -18.066 -27.091  -5.078  1.00 18.54 LIG-0.27  OA
ATOM      3  N   GLU B   4     -17.211 -29.049  -5.786  1.00 17.89 LIG-0.35  N 
ATOM      4 H    GLU B   4     -16.862 -29.540  -6.400  1.00 17.89 LIG 0.16  HD
ENDROOT
BRANCH 1 5
ATOM      5  CA  ALA B   3     -17.334 -27.193  -7.360  1.00 15.99 LIG 0.17  C 
ATOM      6  CB  ALA B   3     -17.010 -28.308  -8.350  1.00 16.21 LIG 0.04  C 
BRANCH 5 7
ATOM      7  N   ALA B   3     -16.282 -26.185  -7.391  1.00 13.91 LIG-0.35  N 
ATOM      8  C   ARG B   2     -16.186 -25.311  -8.389  1.00 12.46 LIG 0.24  C 
ATOM      9 O    ARG B   2     -16.973 -25.290  -9.334  1.00 11.56 LIG-0.27  OA
ATOM     10 H    ALA B   3     -15.745 -26.209  -6.720  1.00 13.91 LIG 0.16  HD
BRANCH 8 11
ATOM     11  CA  ARG B   2     -15.034 -24.313  -8.321  1.00 12.24 LIG 0.18  C 
BRANCH 11 12
ATOM     12  CB  ARG B   2     -13.717 -25.023  -8.644  1.00 10.58 LIG 0.04  C 
BRANCH 12 13
ATOM     13  CG  ARG B   2     -13.861 -26.271  -9.503  1.00  9.71 LIG 0.02  C 
BRANCH 13 14
ATOM     14  CD  ARG B   2     -13.193 -27.458  -8.829  1.00  9.44 LIG 0.14  C 
BRANCH 14 15
ATOM     15  NE  ARG B   2     -12.563 -27.094  -7.561  1.00  9.23 LIG-0.23  N 
ATOM     16  CZ  ARG B   2     -11.517 -27.720  -7.035  1.00  9.20 LIG 0.67  C 
ATOM     17  NH1 ARG B   2     -10.974 -28.753  -7.667  1.00  7.63 LIG-0.23  N 
ATOM     18  NH2 ARG B   2     -11.011 -27.313  -5.877  1.00  9.31 LIG-0.23  N 
ATOM     19 1HH1 ARG B   2     -11.300 -29.017  -8.417  1.00  7.63 LIG 0.17  HD
ATOM     20 2HH1 ARG B   2     -10.297 -29.158  -7.325  1.00  7.63 LIG 0.17  HD
ATOM     21 2HH2 ARG B   2     -10.334 -27.719  -5.538  1.00  9.31 LIG 0.17  HD
ATOM     22 1HH2 ARG B   2     -11.361 -26.643  -5.467  1.00  9.31 LIG 0.17  HD
ATOM     23 HE   ARG B   2     -12.892 -26.429  -7.127  1.00  9.23 LIG 0.18  HD
ENDBRANCH 14 15
ENDBRANCH 13 14
ENDBRANCH 12 13
ENDBRANCH 11 12
BRANCH 11 24
ATOM     24  N   ARG B   2     -14.897 -23.604  -7.053  1.00 12.50 LIG-0.35  N 
ATOM     25  C   ALA B   1     -15.834 -22.802  -6.563  1.00 14.33 LIG 0.25  C 
ATOM     26 O    ALA B   1     -16.918 -22.612  -7.113  1.00 14.72 LIG-0.27  OA
ATOM     27 H    ARG B   2     -14.151 -23.755  -6.653  1.00 12.50 LIG 0.16  HD
BRANCH 25 28
ATOM     28  CA  ALA B   1     -15.493 -22.123  -5.240  1.00 14.93 LIG 0.27  C 
ATOM     29  CB  ALA B   1     -16.725 -21.430  -4.671  1.00 16.58 LIG 0.05  C 
BRANCH 28 30
ATOM     30  N   ALA B   1     -14.385 -21.142  -5.409  1.00 16.58 LIG-0.07  N 
ATOM     31 H3   ALA B   1     -13.624 -21.577  -5.565  1.00 16.58 LIG 0.28  HD
ATOM     32 H1   ALA B   1     -14.567 -20.605  -6.095  1.00 16.58 LIG 0.28  HD
ATOM     33 H2   ALA B   1     -14.302 -20.658  -4.668  1.00 16.58 LIG 0.28  HD
ENDBRANCH 28 30
ENDBRANCH 25 28
ENDBRANCH 11 24
ENDBRANCH 8 11
ENDBRANCH 5 7
ENDBRANCH 1 5
BRANCH 3 34
ATOM     34  CA  GLU B   4     -17.383 -29.727  -4.503  1.00 20.15 LIG 0.18  C 
BRANCH 34 35
ATOM     35  C   GLU B   4     -16.051 -30.269  -3.990  1.00 19.92 LIG 0.24  C 
ATOM     36  N   VAL B   5     -15.553 -31.322  -4.631  1.00 19.46 LIG-0.35  N 
ATOM     37 H    VAL B   5     -15.935 -31.702  -5.302  1.00 19.46 LIG 0.16  HD
ATOM     38 O    GLU B   4     -15.481 -29.736  -3.037  1.00 20.03 LIG-0.27  OA
BRANCH 36 39
ATOM     39  CA  VAL B   5     -14.286 -31.928  -4.232  1.00 20.09 LIG 0.18  C 
BRANCH 39 40
ATOM     40  CB  VAL B   5     -13.142 -30.886  -4.235  1.00 20.49 LIG 0.01  C 
ATOM     41  CG2 VAL B   5     -13.192 -30.058  -5.507  1.00 19.70 LIG 0.01  C 
ATOM     42  CG1 VAL B   5     -11.799 -31.586  -4.112  1.00 21.00 LIG 0.01  C 
ENDBRANCH 39 40
BRANCH 39 43
ATOM     43  C   VAL B   5     -14.375 -32.538  -2.836  1.00 20.75 LIG 0.24  C 
ATOM     44  N   HIS B   6     -15.390 -32.137  -2.075  1.00 20.78 LIG-0.35  N 
ATOM     45 H    HIS B   6     -15.976 -31.557  -2.321  1.00 20.78 LIG 0.16  HD
ATOM     46 O    VAL B   5     -13.535 -33.351  -2.452  1.00 21.91 LIG-0.27  OA
BRANCH 44 47
ATOM     47  CA  HIS B   6     -15.588 -32.668  -0.731  1.00 21.28 LIG 0.17  C 
BRANCH 47 48
ATOM     48  C   HIS B   6     -17.061 -32.990  -0.513  1.00 23.03 LIG 0.22  C 
ATOM     49 O    HIS B   6     -17.446 -34.162  -0.713  1.00 25.39 LIG-0.29  OA
ENDBRANCH 47 48
BRANCH 47 50
ATOM     50  CB  HIS B   6     -15.132 -31.660   0.329  1.00 19.33 LIG 0.09  C 
BRANCH 50 51
ATOM     51  CG  HIS B   6     -15.200 -32.191   1.729  1.00 17.39 LIG 0.06  A 
ATOM     52  CD2 HIS B   6     -14.308 -32.905   2.456  1.00 16.59 LIG 0.14  A 
ATOM     53 NE2  HIS B   6     -14.861 -33.100   3.699  1.00 16.70 LIG-0.25  NA
ATOM     54  CE1 HIS B   6     -16.051 -32.528   3.733  1.00 16.06 LIG 0.23  A 
ATOM     55 ND1  HIS B   6     -16.280 -31.972   2.556  1.00 16.09 LIG-0.24  NA
ENDBRANCH 50 51
ENDBRANCH 47 50
ENDBRANCH 44 47
ENDBRANCH 39 43
ENDBRANCH 36 39
ENDBRANCH 34 35
BRANCH 34 56
ATOM     56  CB  GLU B   4     -18.373 -30.886  -4.644  1.00 22.38 LIG 0.04  C 
BRANCH 56 57
ATOM     57  CG  GLU B   4     -18.775 -31.202  -6.074  1.00 27.64 LIG 0.12  C 
BRANCH 57 58
ATOM     58  CD  GLU B   4     -17.706 -31.984  -6.813  1.00 30.78 LIG 0.17  C 
ATOM     59 OE2  GLU B   4     -17.831 -33.223  -6.908  1.00 32.62 LIG-0.65  OA
ATOM     60 OE1  GLU B   4     -16.740 -31.357  -7.297  1.00 32.75 LIG-0.65  OA
ENDBRANCH 57 58
ENDBRANCH 56 57
ENDBRANCH 34 56
ENDBRANCH 3 34
TORSDOF 22
ENDMDL
MODEL 6
USER: ADFR SOLUTION from run 101
USER: SCORE 18.566588 LL:  -5.803 LR: -14.944 RR:   0.000 FEB:  -8.382
USER: RMSD 6.267346
USER: SEED 100
USER: STATUS no improvement in best in 6 clusters for 5 generations
USER: GENES 24
USER: genes 0 Translation |==|  0.57644 0.46778 0.50010
USER: genes 1 Rotation |==|  0.24994 0.17592 0.77942 0.56606
USER: genes 2 Torsion [N]-C--CA-[N] |==|  0.16277
USER: genes 3 Torsion [C]-CA--N-[C] |==|  0.72851
USER: genes 4 Torsion [N]-C--CA-[N] |==|  0.82132
USER: genes 5 Torsion [C]-CA--CB-[CG] |==|  0.25955
USER: genes 6 Torsion [CA]-CB--CG-[CD] |==|  0.62526
USER: genes 7 Torsion [CB]-CG--CD-[NE] |==|  0.22256
USER: genes 8 Torsion [CG]-CD--NE-[CZ] |==|  0.73145
USER: genes 9 Torsion [C]-CA--N-[C] |==|  0.63405
USER: genes 10 Torsion [N]-C--CA-[N] |==|  0.74450
USER: genes 11 Torsion [C]-CA--N-[H2] |==|  0.74787
USER: genes 12 Torsion [C]-N--CA-[C] |==|  0.80488
USER: genes 13 Torsion [N]-CA--C-[N] |==|  0.43638
USER: genes 14 Torsion [C]-N--CA-[CB] |==|  0.40601
USER: genes 15 Torsion [N]-CA--CB-[CG2] |==|  0.90925
USER: genes 16 Torsion [N]-CA--C-[N] |==|  0.92027
USER: genes 17 Torsion [C]-N--CA-[C] |==|  0.75470
USER: genes 18 Torsion [N]-CA--C-[O] |==|  0.08833
USER: genes 19 Torsion [N]-CA--CB-[CG] |==|  0.72057
USER: genes 20 Torsion [CA]-CB--CG-[CD2] |==|  0.64271
USER: genes 21 Torsion [N]-CA--CB-[CG] |==|  0.01757
USER: genes 22 Torsion [CA]-CB--CG-[CD] |==|  0.71973
USER: genes 23 Torsion [CB]-CG--CD-[OE2] |==|  0.50137
ROOT
ATOM      1  C   ALA B   3     -13.760 -28.838  -5.044  1.00 17.17 LIG 0.24  C 
ATOM      2 O    ALA B   3     -13.259 -28.922  -3.922  1.00 18.54 LIG-0.27  OA
ATOM      3  N   GLU B   4     -15.070 -28.928  -5.258  1.00 17.89 LIG-0.35  N 
ATOM      4 H    GLU B   4     -15.431 -28.871  -6.037  1.00 17.89 LIG 0.16  HD
ENDROOT
BRANCH 1 5
ATOM      5  CA  ALA B   3     -12.875 -28.621  -6.271  1.00 15.99 LIG 0.17  C 
ATOM      6  CB  ALA B   3     -11.407 -28.589  -5.857  1.00 16.21 LIG 0.04  C 
BRANCH 5 7
ATOM      7  N   ALA B   3     -13.205 -27.410  -7.013  1.00 13.91 LIG-0.35  N 
ATOM      8  C   ARG B   2     -13.979 -27.448  -8.094  1.00 12.46 LIG 0.24  C 
ATOM      9 O    ARG B   2     -14.468 -28.491  -8.528  1.00 11.56 LIG-0.27  OA
ATOM     10 H    ALA B   3     -12.861 -26.691  -6.693  1.00 13.91 LIG 0.16  HD
BRANCH 8 11
ATOM     11  CA  ARG B   2     -14.242 -26.121  -8.798  1.00 12.24 LIG 0.18  C 
BRANCH 11 12
ATOM     12  CB  ARG B   2     -12.915 -25.503  -9.247  1.00 10.58 LIG 0.04  C 
BRANCH 12 13
ATOM     13  CG  ARG B   2     -12.506 -25.842 -10.673  1.00  9.71 LIG 0.02  C 
BRANCH 13 14
ATOM     14  CD  ARG B   2     -11.036 -26.225 -10.726  1.00  9.44 LIG 0.14  C 
BRANCH 14 15
ATOM     15  NE  ARG B   2     -10.807 -27.607 -10.306  1.00  9.23 LIG-0.23  N 
ATOM     16  CZ  ARG B   2     -10.442 -27.970  -9.083  1.00  9.20 LIG 0.67  C 
ATOM     17  NH1 ARG B   2     -10.258 -27.049  -8.144  1.00  7.63 LIG-0.23  N 
ATOM     18  NH2 ARG B   2     -10.261 -29.252  -8.794  1.00  9.31 LIG-0.23  N 
ATOM     19 1HH1 ARG B   2     -10.376 -26.218  -8.329  1.00  7.63 LIG 0.17  HD
ATOM     20 2HH1 ARG B   2     -10.021 -27.285  -7.352  1.00  7.63 LIG 0.17  HD
ATOM     21 2HH2 ARG B   2     -10.024 -29.486  -8.001  1.00  9.31 LIG 0.17  HD
ATOM     22 1HH2 ARG B   2     -10.381 -29.850  -9.401  1.00  9.31 LIG 0.17  HD
ATOM     23 HE   ARG B   2     -10.917 -28.227 -10.891  1.00  9.23 LIG 0.18  HD
ENDBRANCH 14 15
ENDBRANCH 13 14
ENDBRANCH 12 13
ENDBRANCH 11 12
BRANCH 11 24
ATOM     24  N   ARG B   2     -14.987 -25.138  -8.018  1.00 12.50 LIG-0.35  N 
ATOM     25  C   ALA B   1     -16.032 -24.472  -8.494  1.00 14.33 LIG 0.25  C 
ATOM     26 O    ALA B   1     -16.491 -24.649  -9.621  1.00 14.72 LIG-0.27  OA
ATOM     27 H    ARG B   2     -14.685 -25.030  -7.220  1.00 12.50 LIG 0.16  HD
BRANCH 25 28
ATOM     28  CA  ALA B   1     -16.659 -23.461  -7.539  1.00 14.93 LIG 0.27  C 
ATOM     29  CB  ALA B   1     -15.599 -22.893  -6.603  1.00 16.58 LIG 0.05  C 
BRANCH 28 30
ATOM     30  N   ALA B   1     -17.761 -24.079  -6.751  1.00 16.58 LIG-0.07  N 
ATOM     31 H3   ALA B   1     -17.600 -24.949  -6.645  1.00 16.58 LIG 0.28  HD
ATOM     32 H1   ALA B   1     -17.811 -23.688  -5.953  1.00 16.58 LIG 0.28  HD
ATOM     33 H2   ALA B   1     -18.531 -23.972  -7.182  1.00 16.58 LIG 0.28  HD
ENDBRANCH 28 30
ENDBRANCH 25 28
ENDBRANCH 11 24
ENDBRANCH 8 11
ENDBRANCH 5 7
ENDBRANCH 1 5
BRANCH 3 34
ATOM     34  CA  GLU B   4     -16.023 -29.134  -4.169  1.00 20.15 LIG 0.18  C 
BRANCH 34 35
ATOM     35  C   GLU B   4     -15.898 -30.545  -3.598  1.00 19.92 LIG 0.24  C 
ATOM     36  N   VAL B   5     -16.333 -30.721  -2.354  1.00 19.46 LIG-0.35  N 
ATOM     37 H    VAL B   5     -16.673 -30.096  -1.870  1.00 19.46 LIG 0.16  HD
ATOM     38 O    GLU B   4     -15.425 -31.457  -4.275  1.00 20.03 LIG-0.27  OA
BRANCH 36 39
ATOM     39  CA  VAL B   5     -16.267 -32.025  -1.701  1.00 20.09 LIG 0.18  C 
BRANCH 39 40
ATOM     40  CB  VAL B   5     -16.004 -31.877  -0.183  1.00 20.49 LIG 0.01  C 
ATOM     41  CG2 VAL B   5     -15.136 -30.659   0.081  1.00 19.70 LIG 0.01  C 
ATOM     42  CG1 VAL B   5     -15.334 -33.130   0.354  1.00 21.00 LIG 0.01  C 
ENDBRANCH 39 40
BRANCH 39 43
ATOM     43  C   VAL B   5     -17.563 -32.809  -1.888  1.00 20.75 LIG 0.24  C 
ATOM     44  N   HIS B   6     -18.675 -32.094  -2.033  1.00 20.78 LIG-0.35  N 
ATOM     45 H    HIS B   6     -18.701 -31.234  -2.015  1.00 20.78 LIG 0.16  HD
ATOM     46 O    VAL B   5     -17.556 -34.040  -1.893  1.00 21.91 LIG-0.27  OA
BRANCH 44 47
ATOM     47  CA  HIS B   6     -19.969 -32.735  -2.240  1.00 21.28 LIG 0.17  C 
BRANCH 47 48
ATOM     48  C   HIS B   6     -20.201 -32.964  -3.729  1.00 23.03 LIG 0.22  C 
ATOM     49 O    HIS B   6     -19.208 -33.187  -4.454  1.00 25.39 LIG-0.29  OA
ENDBRANCH 47 48
BRANCH 47 50
ATOM     50  CB  HIS B   6     -21.104 -31.871  -1.682  1.00 19.33 LIG 0.09  C 
BRANCH 50 51
ATOM     51  CG  HIS B   6     -21.601 -32.325  -0.343  1.00 17.39 LIG 0.06  A 
ATOM     52  CD2 HIS B   6     -22.852 -32.591   0.101  1.00 16.59 LIG 0.14  A 
ATOM     53 NE2  HIS B   6     -22.741 -33.008   1.405  1.00 16.70 LIG-0.25  NA
ATOM     54  CE1 HIS B   6     -21.466 -32.997   1.750  1.00 16.06 LIG 0.23  A 
ATOM     55 ND1  HIS B   6     -20.757 -32.589   0.713  1.00 16.09 LIG-0.24  NA
ENDBRANCH 50 51
ENDBRANCH 47 50
ENDBRANCH 44 47
ENDBRANCH 39 43
ENDBRANCH 36 39
ENDBRANCH 34 35
BRANCH 34 56
ATOM     56  CB  GLU B   4     -17.454 -28.922  -4.670  1.00 22.38 LIG 0.04  C 
BRANCH 56 57
ATOM     57  CG  GLU B   4     -17.574 -28.706  -6.168  1.00 27.64 LIG 0.12  C 
BRANCH 57 58
ATOM     58  CD  GLU B   4     -17.746 -27.242  -6.525  1.00 30.78 LIG 0.17  C 
ATOM     59 OE2  GLU B   4     -17.866 -26.931  -7.729  1.00 32.62 LIG-0.65  OA
ATOM     60 OE1  GLU B   4     -17.761 -26.403  -5.600  1.00 32.75 LIG-0.65  OA
ENDBRANCH 57 58
ENDBRANCH 56 57
ENDBRANCH 34 56
ENDBRANCH 3 34
TORSDOF 22
ENDMDL
MODEL 7
USER: ADFR SOLUTION from run 86
USER: SCORE 18.764955 LL:  -5.440 LR: -14.803 RR:   0.000 FEB:  -8.240
USER: RMSD 7.371864
USER: SEED 85
USER: STATUS 1 or 2 clusters left
USER: GENES 24
USER: genes 0 Translation |==|  0.70087 0.51136 0.26000
USER: genes 1 Rotation |==|  0.83367 0.46824 0.45639 0.86845
USER: genes 2 Torsion [N]-C--CA-[N] |==|  0.93294
USER: genes 3 Torsion [C]-CA--N-[C] |==|  0.81479
USER: genes 4 Torsion [N]-C--CA-[N] |==|  0.89144
USER: genes 5 Torsion [C]-CA--CB-[CG] |==|  0.27286
USER: genes 6 Torsion [CA]-CB--CG-[CD] |==|  0.78921
USER: genes 7 Torsion [CB]-CG--CD-[NE] |==|  0.41225
USER: genes 8 Torsion [CG]-CD--NE-[CZ] |==|  0.24928
USER: genes 9 Torsion [C]-CA--N-[C] |==|  0.75354
USER: genes 10 Torsion [N]-C--CA-[N] |==|  0.96596
USER: genes 11 Torsion [C]-CA--N-[H2] |==|  0.38091
USER: genes 12 Torsion [C]-N--CA-[C] |==|  0.78903
USER: genes 13 Torsion [N]-CA--C-[N] |==|  0.96806
USER: genes 14 Torsion [C]-N--CA-[CB] |==|  0.38889
USER: genes 15 Torsion [N]-CA--CB-[CG2] |==|  0.29761
USER: genes 16 Torsion [N]-CA--C-[N] |==|  0.91821
USER: genes 17 Torsion [C]-N--CA-[C] |==|  0.74630
USER: genes 18 Torsion [N]-CA--C-[O] |==|  0.95073
USER: genes 19 Torsion [N]-CA--CB-[CG] |==|  0.76271
USER: genes 20 Torsion [CA]-CB--CG-[CD2] |==|  0.56314
USER: genes 21 Torsion [N]-CA--CB-[CG] |==|  0.79035
USER: genes 22 Torsion [CA]-CB--CG-[CD] |==|  0.70876
USER: genes 23 Torsion [CB]-CG--CD-[OE2] |==|  0.43232
ROOT
ATOM      1  C   ALA B   3     -11.520 -27.825 -10.266  1.00 17.17 LIG 0.24  C 
ATOM      2 O    ALA B   3     -12.122 -27.055 -11.016  1.00 18.54 LIG-0.27  OA
ATOM      3  N   GLU B   4     -11.161 -29.054 -10.629  1.00 17.89 LIG-0.35  N 
ATOM      4 H    GLU B   4     -10.741 -29.600 -10.114  1.00 17.89 LIG 0.16  HD
ENDROOT
BRANCH 1 5
ATOM      5  CA  ALA B   3     -11.150 -27.390  -8.848  1.00 15.99 LIG 0.17  C 
ATOM      6  CB  ALA B   3      -9.886 -26.537  -8.877  1.00 16.21 LIG 0.04  C 
BRANCH 5 7
ATOM      7  N   ALA B   3     -10.969 -28.509  -7.931  1.00 13.91 LIG-0.35  N 
ATOM      8  C   ARG B   2     -11.988 -29.286  -7.575  1.00 12.46 LIG 0.24  C 
ATOM      9 O    ARG B   2     -13.131 -29.121  -7.998  1.00 11.56 LIG-0.27  OA
ATOM     10 H    ALA B   3     -10.163 -28.613  -7.651  1.00 13.91 LIG 0.16  HD
BRANCH 8 11
ATOM     11  CA  ARG B   2     -11.681 -30.416  -6.596  1.00 12.24 LIG 0.18  C 
BRANCH 11 12
ATOM     12  CB  ARG B   2     -11.730 -29.883  -5.162  1.00 10.58 LIG 0.04  C 
BRANCH 12 13
ATOM     13  CG  ARG B   2     -13.039 -30.145  -4.431  1.00  9.71 LIG 0.02  C 
BRANCH 13 14
ATOM     14  CD  ARG B   2     -14.120 -29.196  -4.921  1.00  9.44 LIG 0.14  C 
BRANCH 14 15
ATOM     15  NE  ARG B   2     -15.452 -29.797  -4.869  1.00  9.23 LIG-0.23  N 
ATOM     16  CZ  ARG B   2     -16.265 -29.733  -3.822  1.00  9.20 LIG 0.67  C 
ATOM     17  NH1 ARG B   2     -15.885 -29.091  -2.724  1.00  7.63 LIG-0.23  N 
ATOM     18  NH2 ARG B   2     -17.459 -30.309  -3.870  1.00  9.31 LIG-0.23  N 
ATOM     19 1HH1 ARG B   2     -15.112 -28.716  -2.692  1.00  7.63 LIG 0.17  HD
ATOM     20 2HH1 ARG B   2     -16.412 -29.049  -2.046  1.00  7.63 LIG 0.17  HD
ATOM     21 2HH2 ARG B   2     -17.985 -30.266  -3.191  1.00  9.31 LIG 0.17  HD
ATOM     22 1HH2 ARG B   2     -17.708 -30.724  -4.581  1.00  9.31 LIG 0.17  HD
ATOM     23 HE   ARG B   2     -15.727 -30.221  -5.565  1.00  9.23 LIG 0.18  HD
ENDBRANCH 14 15
ENDBRANCH 13 14
ENDBRANCH 12 13
ENDBRANCH 11 12
BRANCH 11 24
ATOM     24  N   ARG B   2     -10.409 -31.098  -6.809  1.00 12.50 LIG-0.35  N 
ATOM     25  C   ALA B   1     -10.271 -32.146  -7.612  1.00 14.33 LIG 0.25  C 
ATOM     26 O    ALA B   1     -11.192 -32.615  -8.278  1.00 14.72 LIG-0.27  OA
ATOM     27 H    ARG B   2      -9.756 -30.757  -6.366  1.00 12.50 LIG 0.16  HD
BRANCH 25 28
ATOM     28  CA  ALA B   1      -8.869 -32.744  -7.679  1.00 14.93 LIG 0.27  C 
ATOM     29  CB  ALA B   1      -8.846 -34.109  -7.003  1.00 16.58 LIG 0.05  C 
BRANCH 28 30
ATOM     30  N   ALA B   1      -7.869 -31.840  -7.044  1.00 16.58 LIG-0.07  N 
ATOM     31 H3   ALA B   1      -7.410 -31.414  -7.677  1.00 16.58 LIG 0.28  HD
ATOM     32 H1   ALA B   1      -8.289 -31.247  -6.531  1.00 16.58 LIG 0.28  HD
ATOM     33 H2   ALA B   1      -7.310 -32.320  -6.546  1.00 16.58 LIG 0.28  HD
ENDBRANCH 28 30
ENDBRANCH 25 28
ENDBRANCH 11 24
ENDBRANCH 8 11
ENDBRANCH 5 7
ENDBRANCH 1 5
BRANCH 3 34
ATOM     34  CA  GLU B   4     -11.457 -29.588 -11.957  1.00 20.15 LIG 0.18  C 
BRANCH 34 35
ATOM     35  C   GLU B   4     -12.928 -29.979 -12.072  1.00 19.92 LIG 0.24  C 
ATOM     36  N   VAL B   5     -13.624 -30.007 -10.940  1.00 19.46 LIG-0.35  N 
ATOM     37 H    VAL B   5     -13.294 -29.820 -10.167  1.00 19.46 LIG 0.16  HD
ATOM     38 O    GLU B   4     -13.424 -30.241 -13.167  1.00 20.03 LIG-0.27  OA
BRANCH 36 39
ATOM     39  CA  VAL B   5     -15.039 -30.366 -10.923  1.00 20.09 LIG 0.18  C 
BRANCH 39 40
ATOM     40  CB  VAL B   5     -15.376 -31.256  -9.703  1.00 20.49 LIG 0.01  C 
ATOM     41  CG2 VAL B   5     -16.166 -30.460  -8.678  1.00 19.70 LIG 0.01  C 
ATOM     42  CG1 VAL B   5     -14.100 -31.797  -9.083  1.00 21.00 LIG 0.01  C 
ENDBRANCH 39 40
BRANCH 39 43
ATOM     43  C   VAL B   5     -15.928 -29.126 -10.872  1.00 20.75 LIG 0.24  C 
ATOM     44  N   HIS B   6     -15.421 -28.056 -10.266  1.00 20.78 LIG-0.35  N 
ATOM     45 H    HIS B   6     -14.643 -28.032  -9.901  1.00 20.78 LIG 0.16  HD
ATOM     46 O    VAL B   5     -17.055 -29.142 -11.365  1.00 21.91 LIG-0.27  OA
BRANCH 44 47
ATOM     47  CA  HIS B   6     -16.172 -26.808 -10.176  1.00 21.28 LIG 0.17  C 
BRANCH 47 48
ATOM     48  C   HIS B   6     -15.843 -25.919 -11.369  1.00 23.03 LIG 0.22  C 
ATOM     49 O    HIS B   6     -14.809 -26.168 -12.025  1.00 25.39 LIG-0.29  OA
ENDBRANCH 47 48
BRANCH 47 50
ATOM     50  CB  HIS B   6     -15.835 -26.058  -8.883  1.00 19.33 LIG 0.09  C 
BRANCH 50 51
ATOM     51  CG  HIS B   6     -16.647 -26.500  -7.704  1.00 17.39 LIG 0.06  A 
ATOM     52  CD2 HIS B   6     -16.955 -25.870  -6.546  1.00 16.59 LIG 0.14  A 
ATOM     53 NE2  HIS B   6     -17.761 -26.717  -5.824  1.00 16.70 LIG-0.25  NA
ATOM     54  CE1 HIS B   6     -17.939 -27.829  -6.514  1.00 16.06 LIG 0.23  A 
ATOM     55 ND1  HIS B   6     -17.277 -27.724  -7.653  1.00 16.09 LIG-0.24  NA
ENDBRANCH 50 51
ENDBRANCH 47 50
ENDBRANCH 44 47
ENDBRANCH 39 43
ENDBRANCH 36 39
ENDBRANCH 34 35
BRANCH 34 56
ATOM     56  CB  GLU B   4     -10.589 -30.818 -12.238  1.00 22.38 LIG 0.04  C 
BRANCH 56 57
ATOM     57  CG  GLU B   4      -9.140 -30.508 -12.568  1.00 27.64 LIG 0.12  C 
BRANCH 57 58
ATOM     58  CD  GLU B   4      -8.841 -30.664 -14.046  1.00 30.78 LIG 0.17  C 
ATOM     59 OE2  GLU B   4      -7.881 -30.028 -14.532  1.00 32.62 LIG-0.65  OA
ATOM     60 OE1  GLU B   4      -9.568 -31.423 -14.722  1.00 32.75 LIG-0.65  OA
ENDBRANCH 57 58
ENDBRANCH 56 57
ENDBRANCH 34 56
ENDBRANCH 3 34
TORSDOF 22
ENDMDL
MODEL 8
USER: ADFR SOLUTION from run 24
USER: SCORE 18.790396 LL:  -6.048 LR: -14.639 RR:   0.000 FEB:  -8.076
USER: RMSD 8.847205
USER: SEED 23
USER: STATUS no improvement in best in 8 clusters for 5 generations
USER: GENES 24
USER: genes 0 Translation |==|  0.35525 0.52239 0.43491
USER: genes 1 Rotation |==|  0.98804 0.44932 0.57542 0.55971
USER: genes 2 Torsion [N]-C--CA-[N] |==|  0.08244
USER: genes 3 Torsion [C]-CA--N-[C] |==|  0.18889
USER: genes 4 Torsion [N]-C--CA-[N] |==|  0.37295
USER: genes 5 Torsion [C]-CA--CB-[CG] |==|  0.97824
USER: genes 6 Torsion [CA]-CB--CG-[CD] |==|  0.33711
USER: genes 7 Torsion [CB]-CG--CD-[NE] |==|  0.81412
USER: genes 8 Torsion [CG]-CD--NE-[CZ] |==|  0.71367
USER: genes 9 Torsion [C]-CA--N-[C] |==|  0.57370
USER: genes 10 Torsion [N]-C--CA-[N] |==|  0.72487
USER: genes 11 Torsion [C]-CA--N-[H2] |==|  0.42171
USER: genes 12 Torsion [C]-N--CA-[C] |==|  0.66130
USER: genes 13 Torsion [N]-CA--C-[N] |==|  0.94804
USER: genes 14 Torsion [C]-N--CA-[CB] |==|  0.24329
USER: genes 15 Torsion [N]-CA--CB-[CG2] |==|  0.14963
USER: genes 16 Torsion [N]-CA--C-[N] |==|  0.46069
USER: genes 17 Torsion [C]-N--CA-[C] |==|  0.72496
USER: genes 18 Torsion [N]-CA--C-[O] |==|  0.99492
USER: genes 19 Torsion [N]-CA--CB-[CG] |==|  0.64614
USER: genes 20 Torsion [CA]-CB--CG-[CD2] |==|  0.29171
USER: genes 21 Torsion [N]-CA--CB-[CG] |==|  0.24694
USER: genes 22 Torsion [CA]-CB--CG-[CD] |==|  0.75454
USER: genes 23 Torsion [CB]-CG--CD-[OE2] |==|  0.05939
ROOT
ATOM      1  C   ALA B   3     -17.742 -27.568  -6.462  1.00 17.17 LIG 0.24  C 
ATOM      2 O    ALA B   3     -18.453 -26.600  -6.191  1.00 18.54 LIG-0.27  OA
ATOM      3  N   GLU B   4     -16.761 -27.516  -7.360  1.00 17.89 LIG-0.35  N 
ATOM      4 H    GLU B   4     -16.258 -28.185  -7.557  1.00 17.89 LIG 0.16  HD
ENDROOT
BRANCH 1 5
ATOM      5  CA  ALA B   3     -17.960 -28.908  -5.759  1.00 15.99 LIG 0.17  C 
ATOM      6  CB  ALA B   3     -18.578 -28.680  -4.383  1.00 16.21 LIG 0.04  C 
BRANCH 5 7
ATOM      7  N   ALA B   3     -16.740 -29.696  -5.628  1.00 13.91 LIG-0.35  N 
ATOM      8  C   ARG B   2     -15.745 -29.309  -4.834  1.00 12.46 LIG 0.24  C 
ATOM      9 O    ARG B   2     -15.792 -28.281  -4.160  1.00 11.56 LIG-0.27  OA
ATOM     10 H    ALA B   3     -16.727 -30.414  -6.100  1.00 13.91 LIG 0.16  HD
BRANCH 8 11
ATOM     11  CA  ARG B   2     -14.512 -30.206  -4.790  1.00 12.24 LIG 0.18  C 
BRANCH 11 12
ATOM     12  CB  ARG B   2     -14.533 -31.049  -3.513  1.00 10.58 LIG 0.04  C 
BRANCH 12 13
ATOM     13  CG  ARG B   2     -15.629 -30.678  -2.524  1.00  9.71 LIG 0.02  C 
BRANCH 13 14
ATOM     14  CD  ARG B   2     -16.527 -31.875  -2.255  1.00  9.44 LIG 0.14  C 
BRANCH 14 15
ATOM     15  NE  ARG B   2     -17.300 -32.264  -3.434  1.00  9.23 LIG-0.23  N 
ATOM     16  CZ  ARG B   2     -18.587 -31.991  -3.612  1.00  9.20 LIG 0.67  C 
ATOM     17  NH1 ARG B   2     -19.259 -31.323  -2.682  1.00  7.63 LIG-0.23  N 
ATOM     18  NH2 ARG B   2     -19.203 -32.383  -4.719  1.00  9.31 LIG-0.23  N 
ATOM     19 1HH1 ARG B   2     -18.860 -31.067  -1.965  1.00  7.63 LIG 0.17  HD
ATOM     20 2HH1 ARG B   2     -20.092 -31.147  -2.798  1.00  7.63 LIG 0.17  HD
ATOM     21 2HH2 ARG B   2     -20.037 -32.206  -4.833  1.00  9.31 LIG 0.17  HD
ATOM     22 1HH2 ARG B   2     -18.770 -32.815  -5.323  1.00  9.31 LIG 0.17  HD
ATOM     23 HE   ARG B   2     -16.893 -32.699  -4.054  1.00  9.23 LIG 0.18  HD
ENDBRANCH 14 15
ENDBRANCH 13 14
ENDBRANCH 12 13
ENDBRANCH 11 12
BRANCH 11 24
ATOM     24  N   ARG B   2     -13.232 -29.512  -4.884  1.00 12.50 LIG-0.35  N 
ATOM     25  C   ALA B   1     -12.131 -30.078  -5.364  1.00 14.33 LIG 0.25  C 
ATOM     26 O    ALA B   1     -12.097 -31.224  -5.806  1.00 14.72 LIG-0.27  OA
ATOM     27 H    ARG B   2     -13.258 -28.701  -4.600  1.00 12.50 LIG 0.16  HD
BRANCH 25 28
ATOM     28  CA  ALA B   1     -10.882 -29.202  -5.350  1.00 14.93 LIG 0.27  C 
ATOM     29  CB  ALA B   1     -11.016 -28.110  -4.296  1.00 16.58 LIG 0.05  C 
BRANCH 28 30
ATOM     30  N   ALA B   1     -10.636 -28.596  -6.688  1.00 16.58 LIG-0.07  N 
ATOM     31 H3   ALA B   1     -10.141 -29.150  -7.179  1.00 16.58 LIG 0.28  HD
ATOM     32 H1   ALA B   1     -11.414 -28.452  -7.096  1.00 16.58 LIG 0.28  HD
ATOM     33 H2   ALA B   1     -10.206 -27.824  -6.590  1.00 16.58 LIG 0.28  HD
ENDBRANCH 28 30
ENDBRANCH 25 28
ENDBRANCH 11 24
ENDBRANCH 8 11
ENDBRANCH 5 7
ENDBRANCH 1 5
BRANCH 3 34
ATOM     34  CA  GLU B   4     -16.451 -26.294  -8.100  1.00 20.15 LIG 0.18  C 
BRANCH 34 35
ATOM     35  C   GLU B   4     -16.558 -26.528  -9.605  1.00 19.92 LIG 0.24  C 
ATOM     36  N   VAL B   5     -16.517 -27.793 -10.013  1.00 19.46 LIG-0.35  N 
ATOM     37 H    VAL B   5     -16.436 -28.467  -9.485  1.00 19.46 LIG 0.16  HD
ATOM     38 O    GLU B   4     -16.683 -25.580 -10.380  1.00 20.03 LIG-0.27  OA
BRANCH 36 39
ATOM     39  CA  VAL B   5     -16.609 -28.141 -11.428  1.00 20.09 LIG 0.18  C 
BRANCH 39 40
ATOM     40  CB  VAL B   5     -15.215 -28.132 -12.099  1.00 20.49 LIG 0.01  C 
ATOM     41  CG2 VAL B   5     -14.258 -29.025 -11.329  1.00 19.70 LIG 0.01  C 
ATOM     42  CG1 VAL B   5     -14.677 -26.713 -12.166  1.00 21.00 LIG 0.01  C 
ENDBRANCH 39 40
BRANCH 39 43
ATOM     43  C   VAL B   5     -17.225 -29.524 -11.623  1.00 20.75 LIG 0.24  C 
ATOM     44  N   HIS B   6     -17.626 -29.828 -12.854  1.00 20.78 LIG-0.35  N 
ATOM     45 H    HIS B   6     -17.568 -29.294 -13.526  1.00 20.78 LIG 0.16  HD
ATOM     46 O    VAL B   5     -17.343 -30.298 -10.673  1.00 21.91 LIG-0.27  OA
BRANCH 44 47
ATOM     47  CA  HIS B   6     -18.210 -31.128 -13.163  1.00 21.28 LIG 0.17  C 
BRANCH 47 48
ATOM     48  C   HIS B   6     -17.154 -32.037 -13.781  1.00 23.03 LIG 0.22  C 
ATOM     49 O    HIS B   6     -16.009 -31.571 -13.966  1.00 25.39 LIG-0.29  OA
ENDBRANCH 47 48
BRANCH 47 50
ATOM     50  CB  HIS B   6     -19.382 -30.986 -14.140  1.00 19.33 LIG 0.09  C 
BRANCH 50 51
ATOM     51  CG  HIS B   6     -20.641 -31.647 -13.667  1.00 17.39 LIG 0.06  A 
ATOM     52  CD2 HIS B   6     -21.784 -31.129 -13.159  1.00 16.59 LIG 0.14  A 
ATOM     53 NE2  HIS B   6     -22.636 -32.181 -12.921  1.00 16.70 LIG-0.25  NA
ATOM     54  CE1 HIS B   6     -22.036 -33.305 -13.268  1.00 16.06 LIG 0.23  A 
ATOM     55 ND1  HIS B   6     -20.830 -33.011 -13.722  1.00 16.09 LIG-0.24  NA
ENDBRANCH 50 51
ENDBRANCH 47 50
ENDBRANCH 44 47
ENDBRANCH 39 43
ENDBRANCH 36 39
ENDBRANCH 34 35
BRANCH 34 56
ATOM     56  CB  GLU B   4     -15.034 -25.819  -7.768  1.00 22.38 LIG 0.04  C 
BRANCH 56 57
ATOM     57  CG  GLU B   4     -13.948 -26.400  -8.655  1.00 27.64 LIG 0.12  C 
BRANCH 57 58
ATOM     58  CD  GLU B   4     -13.413 -27.715  -8.121  1.00 30.78 LIG 0.17  C 
ATOM     59 OE2  GLU B   4     -14.121 -28.371  -7.328  1.00 32.62 LIG-0.65  OA
ATOM     60 OE1  GLU B   4     -12.282 -28.091  -8.496  1.00 32.75 LIG-0.65  OA
ENDBRANCH 57 58
ENDBRANCH 56 57
ENDBRANCH 34 56
ENDBRANCH 3 34
TORSDOF 22
ENDMDL
MODEL 9
USER: ADFR SOLUTION from run 181
USER: SCORE 17.881918 LL:  -4.885 LR: -14.642 RR:   0.000 FEB:  -8.079
USER: RMSD 6.326320
USER: SEED 180
USER: STATUS no improvement in best in 3 clusters for 5 generations
USER: GENES 24
USER: genes 0 Translation |==|  0.51110 0.43351 0.20206
USER: genes 1 Rotation |==|  0.84319 0.22395 0.66364 0.67100
USER: genes 2 Torsion [N]-C--CA-[N] |==|  0.36533
USER: genes 3 Torsion [C]-CA--N-[C] |==|  0.86667
USER: genes 4 Torsion [N]-C--CA-[N] |==|  0.31778
USER: genes 5 Torsion [C]-CA--CB-[CG] |==|  0.23804
USER: genes 6 Torsion [CA]-CB--CG-[CD] |==|  0.21437
USER: genes 7 Torsion [CB]-CG--CD-[NE] |==|  0.27927
USER: genes 8 Torsion [CG]-CD--NE-[CZ] |==|  0.58226
USER: genes 9 Torsion [C]-CA--N-[C] |==|  0.66070
USER: genes 10 Torsion [N]-C--CA-[N] |==|  0.65078
USER: genes 11 Torsion [C]-CA--N-[H2] |==|  0.23305
USER: genes 12 Torsion [C]-N--CA-[C] |==|  0.15536
USER: genes 13 Torsion [N]-CA--C-[N] |==|  0.24777
USER: genes 14 Torsion [C]-N--CA-[CB] |==|  0.87582
USER: genes 15 Torsion [N]-CA--CB-[CG2] |==|  0.74230
USER: genes 16 Torsion [N]-CA--C-[N] |==|  0.35789
USER: genes 17 Torsion [C]-N--CA-[C] |==|  0.52361
USER: genes 18 Torsion [N]-CA--C-[O] |==|  0.87824
USER: genes 19 Torsion [N]-CA--CB-[CG] |==|  0.14795
USER: genes 20 Torsion [CA]-CB--CG-[CD2] |==|  0.76926
USER: genes 21 Torsion [N]-CA--CB-[CG] |==|  0.63252
USER: genes 22 Torsion [CA]-CB--CG-[CD] |==|  0.77616
USER: genes 23 Torsion [CB]-CG--CD-[OE2] |==|  0.99189
ROOT
ATOM      1  C   ALA B   3     -14.936 -29.635 -11.526  1.00 17.17 LIG 0.24  C 
ATOM      2 O    ALA B   3     -14.428 -28.553 -11.824  1.00 18.54 LIG-0.27  OA
ATOM      3  N   GLU B   4     -14.297 -30.794 -11.660  1.00 17.89 LIG-0.35  N 
ATOM      4 H    GLU B   4     -14.641 -31.556 -11.456  1.00 17.89 LIG 0.16  HD
ENDROOT
BRANCH 1 5
ATOM      5  CA  ALA B   3     -16.360 -29.694 -10.975  1.00 15.99 LIG 0.17  C 
ATOM      6  CB  ALA B   3     -17.366 -29.465 -12.098  1.00 16.21 LIG 0.04  C 
BRANCH 5 7
ATOM      7  N   ALA B   3     -16.601 -28.744  -9.895  1.00 13.91 LIG-0.35  N 
ATOM      8  C   ARG B   2     -15.757 -28.624  -8.874  1.00 12.46 LIG 0.24  C 
ATOM      9 O    ARG B   2     -14.728 -29.291  -8.780  1.00 11.56 LIG-0.27  OA
ATOM     10 H    ALA B   3     -17.321 -28.282  -9.982  1.00 13.91 LIG 0.16  HD
BRANCH 8 11
ATOM     11  CA  ARG B   2     -16.122 -27.608  -7.796  1.00 12.24 LIG 0.18  C 
BRANCH 11 12
ATOM     12  CB  ARG B   2     -14.997 -26.580  -7.656  1.00 10.58 LIG 0.04  C 
BRANCH 12 13
ATOM     13  CG  ARG B   2     -15.083 -25.408  -8.625  1.00  9.71 LIG 0.02  C 
BRANCH 13 14
ATOM     14  CD  ARG B   2     -16.138 -24.416  -8.164  1.00  9.44 LIG 0.14  C 
BRANCH 14 15
ATOM     15  NE  ARG B   2     -15.553 -23.260  -7.485  1.00  9.23 LIG-0.23  N 
ATOM     16  CZ  ARG B   2     -16.159 -22.562  -6.532  1.00  9.20 LIG 0.67  C 
ATOM     17  NH1 ARG B   2     -17.381 -22.899  -6.137  1.00  7.63 LIG-0.23  N 
ATOM     18  NH2 ARG B   2     -15.546 -21.528  -5.972  1.00  9.31 LIG-0.23  N 
ATOM     19 1HH1 ARG B   2     -17.779 -23.570  -6.499  1.00  7.63 LIG 0.17  HD
ATOM     20 2HH1 ARG B   2     -17.773 -22.447  -5.520  1.00  7.63 LIG 0.17  HD
ATOM     21 2HH2 ARG B   2     -15.940 -21.077  -5.355  1.00  9.31 LIG 0.17  HD
ATOM     22 1HH2 ARG B   2     -14.754 -21.309  -6.225  1.00  9.31 LIG 0.17  HD
ATOM     23 HE   ARG B   2     -14.763 -23.015  -7.719  1.00  9.23 LIG 0.18  HD
ENDBRANCH 14 15
ENDBRANCH 13 14
ENDBRANCH 12 13
ENDBRANCH 11 12
BRANCH 11 24
ATOM     24  N   ARG B   2     -16.420 -28.172  -6.484  1.00 12.50 LIG-0.35  N 
ATOM     25  C   ALA B   1     -17.575 -27.982  -5.856  1.00 14.33 LIG 0.25  C 
ATOM     26 O    ALA B   1     -18.511 -27.348  -6.339  1.00 14.72 LIG-0.27  OA
ATOM     27 H    ARG B   2     -15.778 -28.638  -6.155  1.00 12.50 LIG 0.16  HD
BRANCH 25 28
ATOM     28  CA  ALA B   1     -17.687 -28.624  -4.477  1.00 14.93 LIG 0.27  C 
ATOM     29  CB  ALA B   1     -16.429 -29.426  -4.166  1.00 16.58 LIG 0.05  C 
BRANCH 28 30
ATOM     30  N   ALA B   1     -18.889 -29.498  -4.387  1.00 16.58 LIG-0.07  N 
ATOM     31 H3   ALA B   1     -19.133 -29.580  -3.535  1.00 16.58 LIG 0.28  HD
ATOM     32 H1   ALA B   1     -19.555 -29.136  -4.853  1.00 16.58 LIG 0.28  HD
ATOM     33 H2   ALA B   1     -18.697 -30.301  -4.718  1.00 16.58 LIG 0.28  HD
ENDBRANCH 28 30
ENDBRANCH 25 28
ENDBRANCH 11 24
ENDBRANCH 8 11
ENDBRANCH 5 7
ENDBRANCH 1 5
BRANCH 3 34
ATOM     34  CA  GLU B   4     -12.931 -30.872 -12.175  1.00 20.15 LIG 0.18  C 
BRANCH 34 35
ATOM     35  C   GLU B   4     -11.987 -30.001 -11.350  1.00 19.92 LIG 0.24  C 
ATOM     36  N   VAL B   5     -11.414 -30.579 -10.299  1.00 19.46 LIG-0.35  N 
ATOM     37 H    VAL B   5     -11.546 -31.398 -10.068  1.00 19.46 LIG 0.16  HD
ATOM     38 O    GLU B   4     -11.777 -28.830 -11.665  1.00 20.03 LIG-0.27  OA
BRANCH 36 39
ATOM     39  CA  VAL B   5     -10.493 -29.847  -9.434  1.00 20.09 LIG 0.18  C 
BRANCH 39 40
ATOM     40  CB  VAL B   5      -9.484 -29.019 -10.265  1.00 20.49 LIG 0.01  C 
ATOM     41  CG2 VAL B   5      -8.218 -29.824 -10.505  1.00 19.70 LIG 0.01  C 
ATOM     42  CG1 VAL B   5      -9.157 -27.721  -9.546  1.00 21.00 LIG 0.01  C 
ENDBRANCH 39 40
BRANCH 39 43
ATOM     43  C   VAL B   5     -11.240 -28.897  -8.502  1.00 20.75 LIG 0.24  C 
ATOM     44  N   HIS B   6     -10.943 -28.980  -7.207  1.00 20.78 LIG-0.35  N 
ATOM     45 H    HIS B   6     -10.376 -29.536  -6.877  1.00 20.78 LIG 0.16  HD
ATOM     46 O    VAL B   5     -12.074 -28.109  -8.945  1.00 21.91 LIG-0.27  OA
BRANCH 44 47
ATOM     47  CA  HIS B   6     -11.578 -28.107  -6.226  1.00 21.28 LIG 0.17  C 
BRANCH 47 48
ATOM     48  C   HIS B   6     -10.902 -28.276  -4.870  1.00 23.03 LIG 0.22  C 
ATOM     49 O    HIS B   6     -10.637 -29.434  -4.482  1.00 25.39 LIG-0.29  OA
ENDBRANCH 47 48
BRANCH 47 50
ATOM     50  CB  HIS B   6     -13.069 -28.431  -6.087  1.00 19.33 LIG 0.09  C 
BRANCH 50 51
ATOM     51  CG  HIS B   6     -13.345 -29.876  -5.801  1.00 17.39 LIG 0.06  A 
ATOM     52  CD2 HIS B   6     -13.441 -30.945  -6.626  1.00 16.59 LIG 0.14  A 
ATOM     53 NE2  HIS B   6     -13.674 -32.047  -5.837  1.00 16.70 LIG-0.25  NA
ATOM     54  CE1 HIS B   6     -13.722 -31.665  -4.573  1.00 16.06 LIG 0.23  A 
ATOM     55 ND1  HIS B   6     -13.526 -30.359  -4.524  1.00 16.09 LIG-0.24  NA
ENDBRANCH 50 51
ENDBRANCH 47 50
ENDBRANCH 44 47
ENDBRANCH 39 43
ENDBRANCH 36 39
ENDBRANCH 34 35
BRANCH 34 56
ATOM     56  CB  GLU B   4     -12.889 -30.411 -13.635  1.00 22.38 LIG 0.04  C 
BRANCH 56 57
ATOM     57  CG  GLU B   4     -12.127 -31.335 -14.567  1.00 27.64 LIG 0.12  C 
BRANCH 57 58
ATOM     58  CD  GLU B   4     -10.627 -31.123 -14.488  1.00 30.78 LIG 0.17  C 
ATOM     59 OE2  GLU B   4     -10.190 -30.217 -13.747  1.00 32.62 LIG-0.65  OA
ATOM     60 OE1  GLU B   4      -9.886 -31.863 -15.170  1.00 32.75 LIG-0.65  OA
ENDBRANCH 57 58
ENDBRANCH 56 57
ENDBRANCH 34 56
ENDBRANCH 3 34
TORSDOF 22
ENDMDL
MODEL 10
USER: ADFR SOLUTION from run 94
USER: SCORE 18.635379 LL:  -4.580 LR: -14.634 RR:   0.000 FEB:  -8.072
USER: RMSD 4.733046
USER: SEED 93
USER: STATUS no improvement in best in 3 clusters for 5 generations
USER: GENES 24
USER: genes 0 Translation |==|  0.53434 0.47356 0.18306
USER: genes 1 Rotation |==|  0.50954 0.99153 0.47910 0.58872
USER: genes 2 Torsion [N]-C--CA-[N] |==|  0.51659
USER: genes 3 Torsion [C]-CA--N-[C] |==|  0.74911
USER: genes 4 Torsion [N]-C--CA-[N] |==|  0.91382
USER: genes 5 Torsion [C]-CA--CB-[CG] |==|  0.14917
USER: genes 6 Torsion [CA]-CB--CG-[CD] |==|  0.37815
USER: genes 7 Torsion [CB]-CG--CD-[NE] |==|  0.03092
USER: genes 8 Torsion [CG]-CD--NE-[CZ] |==|  0.58627
USER: genes 9 Torsion [C]-CA--N-[C] |==|  0.82330
USER: genes 10 Torsion [N]-C--CA-[N] |==|  0.44298
USER: genes 11 Torsion [C]-CA--N-[H2] |==|  0.97068
USER: genes 12 Torsion [C]-N--CA-[C] |==|  0.14026
USER: genes 13 Torsion [N]-CA--C-[N] |==|  0.10630
USER: genes 14 Torsion [C]-N--CA-[CB] |==|  0.85556
USER: genes 15 Torsion [N]-CA--CB-[CG2] |==|  0.79720
USER: genes 16 Torsion [N]-CA--C-[N] |==|  0.36534
USER: genes 17 Torsion [C]-N--CA-[C] |==|  0.54562
USER: genes 18 Torsion [N]-CA--C-[O] |==|  0.14485
USER: genes 19 Torsion [N]-CA--CB-[CG] |==|  0.24624
USER: genes 20 Torsion [CA]-CB--CG-[CD2] |==|  0.26453
USER: genes 21 Torsion [N]-CA--CB-[CG] |==|  0.66144
USER: genes 22 Torsion [CA]-CB--CG-[CD] |==|  0.44374
USER: genes 23 Torsion [CB]-CG--CD-[OE2] |==|  0.92818
ROOT
ATOM      1  C   ALA B   3     -14.518 -28.704 -11.939  1.00 17.17 LIG 0.24  C 
ATOM      2 O    ALA B   3     -14.109 -29.355 -10.977  1.00 18.54 LIG-0.27  OA
ATOM      3  N   GLU B   4     -14.747 -29.245 -13.133  1.00 17.89 LIG-0.35  N 
ATOM      4 H    GLU B   4     -15.033 -28.800 -13.812  1.00 17.89 LIG 0.16  HD
ENDROOT
BRANCH 1 5
ATOM      5  CA  ALA B   3     -14.787 -27.206 -11.800  1.00 15.99 LIG 0.17  C 
ATOM      6  CB  ALA B   3     -14.089 -26.443 -12.921  1.00 16.21 LIG 0.04  C 
BRANCH 5 7
ATOM      7  N   ALA B   3     -14.382 -26.665 -10.508  1.00 13.91 LIG-0.35  N 
ATOM      8  C   ARG B   2     -15.221 -26.626  -9.477  1.00 12.46 LIG 0.24  C 
ATOM      9 O    ARG B   2     -16.376 -27.046  -9.542  1.00 11.56 LIG-0.27  OA
ATOM     10 H    ALA B   3     -13.570 -26.382 -10.479  1.00 13.91 LIG 0.16  HD
BRANCH 8 11
ATOM     11  CA  ARG B   2     -14.690 -26.023  -8.180  1.00 12.24 LIG 0.18  C 
BRANCH 11 12
ATOM     12  CB  ARG B   2     -15.022 -24.530  -8.133  1.00 10.58 LIG 0.04  C 
BRANCH 12 13
ATOM     13  CG  ARG B   2     -16.494 -24.198  -8.339  1.00  9.71 LIG 0.02  C 
BRANCH 13 14
ATOM     14  CD  ARG B   2     -16.946 -23.147  -7.338  1.00  9.44 LIG 0.14  C 
BRANCH 14 15
ATOM     15  NE  ARG B   2     -15.823 -22.543  -6.624  1.00  9.23 LIG-0.23  N 
ATOM     16  CZ  ARG B   2     -15.882 -22.088  -5.378  1.00  9.20 LIG 0.67  C 
ATOM     17  NH1 ARG B   2     -17.018 -22.165  -4.696  1.00  7.63 LIG-0.23  N 
ATOM     18  NH2 ARG B   2     -14.806 -21.557  -4.811  1.00  9.31 LIG-0.23  N 
ATOM     19 1HH1 ARG B   2     -17.716 -22.510  -5.062  1.00  7.63 LIG 0.17  HD
ATOM     20 2HH1 ARG B   2     -17.056 -21.870  -3.890  1.00  7.63 LIG 0.17  HD
ATOM     21 2HH2 ARG B   2     -14.846 -21.263  -4.004  1.00  9.31 LIG 0.17  HD
ATOM     22 1HH2 ARG B   2     -14.069 -21.507  -5.251  1.00  9.31 LIG 0.17  HD
ATOM     23 HE   ARG B   2     -15.073 -22.477  -7.039  1.00  9.23 LIG 0.18  HD
ENDBRANCH 14 15
ENDBRANCH 13 14
ENDBRANCH 12 13
ENDBRANCH 11 12
BRANCH 11 24
ATOM     24  N   ARG B   2     -13.261 -26.202  -7.948  1.00 12.50 LIG-0.35  N 
ATOM     25  C   ALA B   1     -12.694 -27.391  -7.786  1.00 14.33 LIG 0.25  C 
ATOM     26 O    ALA B   1     -13.313 -28.451  -7.854  1.00 14.72 LIG-0.27  OA
ATOM     27 H    ARG B   2     -12.820 -25.464  -7.926  1.00 12.50 LIG 0.16  HD
BRANCH 25 28
ATOM     28  CA  ALA B   1     -11.192 -27.373  -7.520  1.00 14.93 LIG 0.27  C 
ATOM     29  CB  ALA B   1     -10.430 -27.143  -8.820  1.00 16.58 LIG 0.05  C 
BRANCH 28 30
ATOM     30  N   ALA B   1     -10.744 -28.641  -6.880  1.00 16.58 LIG-0.07  N 
ATOM     31 H3   ALA B   1     -10.262 -29.113  -7.461  1.00 16.58 LIG 0.28  HD
ATOM     32 H1   ALA B   1     -10.247 -28.454  -6.166  1.00 16.58 LIG 0.28  HD
ATOM     33 H2   ALA B   1     -11.454 -29.115  -6.631  1.00 16.58 LIG 0.28  HD
ENDBRANCH 28 30
ENDBRANCH 25 28
ENDBRANCH 11 24
ENDBRANCH 8 11
ENDBRANCH 5 7
ENDBRANCH 1 5
BRANCH 3 34
ATOM     34  CA  GLU B   4     -14.530 -30.666 -13.396  1.00 20.15 LIG 0.18  C 
BRANCH 34 35
ATOM     35  C   GLU B   4     -15.218 -31.526 -12.338  1.00 19.92 LIG 0.24  C 
ATOM     36  N   VAL B   5     -16.405 -31.107 -11.913  1.00 19.46 LIG-0.35  N 
ATOM     37 H    VAL B   5     -16.794 -30.394 -12.197  1.00 19.46 LIG 0.16  HD
ATOM     38 O    GLU B   4     -14.685 -32.556 -11.923  1.00 20.03 LIG-0.27  OA
BRANCH 36 39
ATOM     39  CA  VAL B   5     -17.159 -31.845 -10.904  1.00 20.09 LIG 0.18  C 
BRANCH 39 40
ATOM     40  CB  VAL B   5     -17.305 -33.336 -11.295  1.00 20.49 LIG 0.01  C 
ATOM     41  CG2 VAL B   5     -18.299 -33.483 -12.433  1.00 19.70 LIG 0.01  C 
ATOM     42  CG1 VAL B   5     -17.754 -34.148 -10.093  1.00 21.00 LIG 0.01  C 
ENDBRANCH 39 40
BRANCH 39 43
ATOM     43  C   VAL B   5     -16.481 -31.773  -9.538  1.00 20.75 LIG 0.24  C 
ATOM     44  N   HIS B   6     -17.258 -31.452  -8.506  1.00 20.78 LIG-0.35  N 
ATOM     45 H    HIS B   6     -18.097 -31.277  -8.571  1.00 20.78 LIG 0.16  HD
ATOM     46 O    VAL B   5     -15.277 -31.995  -9.422  1.00 21.91 LIG-0.27  OA
BRANCH 44 47
ATOM     47  CA  HIS B   6     -16.725 -31.374  -7.151  1.00 21.28 LIG 0.17  C 
BRANCH 47 48
ATOM     48  C   HIS B   6     -17.868 -31.395  -6.143  1.00 23.03 LIG 0.22  C 
ATOM     49 O    HIS B   6     -18.711 -32.313  -6.226  1.00 25.39 LIG-0.29  OA
ENDBRANCH 47 48
BRANCH 47 50
ATOM     50  CB  HIS B   6     -15.908 -30.092  -6.956  1.00 19.33 LIG 0.09  C 
BRANCH 50 51
ATOM     51  CG  HIS B   6     -16.727 -28.922  -6.503  1.00 17.39 LIG 0.06  A 
ATOM     52  CD2 HIS B   6     -16.969 -28.428  -5.266  1.00 16.59 LIG 0.14  A 
ATOM     53 NE2  HIS B   6     -17.761 -27.315  -5.421  1.00 16.70 LIG-0.25  NA
ATOM     54  CE1 HIS B   6     -17.999 -27.135  -6.707  1.00 16.06 LIG 0.23  A 
ATOM     55 ND1  HIS B   6     -17.386 -28.091  -7.383  1.00 16.09 LIG-0.24  NA
ENDBRANCH 50 51
ENDBRANCH 47 50
ENDBRANCH 44 47
ENDBRANCH 39 43
ENDBRANCH 36 39
ENDBRANCH 34 35
BRANCH 34 56
ATOM     56  CB  GLU B   4     -13.031 -30.981 -13.399  1.00 22.38 LIG 0.04  C 
BRANCH 56 57
ATOM     57  CG  GLU B   4     -12.517 -31.592 -14.690  1.00 27.64 LIG 0.12  C 
BRANCH 57 58
ATOM     58  CD  GLU B   4     -11.016 -31.434 -14.842  1.00 30.78 LIG 0.17  C 
ATOM     59 OE2  GLU B   4     -10.453 -30.483 -14.259  1.00 32.62 LIG-0.65  OA
ATOM     60 OE1  GLU B   4     -10.401 -32.263 -15.546  1.00 32.75 LIG-0.65  OA
ENDBRANCH 57 58
ENDBRANCH 56 57
ENDBRANCH 34 56
ENDBRANCH 3 34
TORSDOF 22
ENDMDL
MODEL 11
USER: ADFR SOLUTION from run 156
USER: SCORE 18.000217 LL:  -5.029 LR: -14.582 RR:   0.000 FEB:  -8.020
USER: RMSD 8.769716
USER: SEED 155
USER: STATUS no improvement in best in 15 clusters for 5 generations
USER: GENES 24
USER: genes 0 Translation |==|  0.77236 0.52116 0.25167
USER: genes 1 Rotation |==|  0.85025 0.43675 0.56814 0.84450
USER: genes 2 Torsion [N]-C--CA-[N] |==|  0.91316
USER: genes 3 Torsion [C]-CA--N-[C] |==|  0.76562
USER: genes 4 Torsion [N]-C--CA-[N] |==|  0.89640
USER: genes 5 Torsion [C]-CA--CB-[CG] |==|  0.21024
USER: genes 6 Torsion [CA]-CB--CG-[CD] |==|  0.34015
USER: genes 7 Torsion [CB]-CG--CD-[NE] |==|  0.56375
USER: genes 8 Torsion [CG]-CD--NE-[CZ] |==|  0.65847
USER: genes 9 Torsion [C]-CA--N-[C] |==|  0.75024
USER: genes 10 Torsion [N]-C--CA-[N] |==|  0.93000
USER: genes 11 Torsion [C]-CA--N-[H2] |==|  0.40445
USER: genes 12 Torsion [C]-N--CA-[C] |==|  0.78259
USER: genes 13 Torsion [N]-CA--C-[N] |==|  0.97264
USER: genes 14 Torsion [C]-N--CA-[CB] |==|  0.38889
USER: genes 15 Torsion [N]-CA--CB-[CG2] |==|  0.53539
USER: genes 16 Torsion [N]-CA--C-[N] |==|  0.91714
USER: genes 17 Torsion [C]-N--CA-[C] |==|  0.59617
USER: genes 18 Torsion [N]-CA--C-[O] |==|  0.27654
USER: genes 19 Torsion [N]-CA--CB-[CG] |==|  0.80419
USER: genes 20 Torsion [CA]-CB--CG-[CD2] |==|  0.84095
USER: genes 21 Torsion [N]-CA--CB-[CG] |==|  0.62139
USER: genes 22 Torsion [CA]-CB--CG-[CD] |==|  0.78332
USER: genes 23 Torsion [CB]-CG--CD-[OE2] |==|  0.39618
ROOT
ATOM      1  C   ALA B   3     -10.234 -27.597 -10.447  1.00 17.17 LIG 0.24  C 
ATOM      2 O    ALA B   3     -10.674 -26.894 -11.358  1.00 18.54 LIG-0.27  OA
ATOM      3  N   GLU B   4      -9.469 -28.665 -10.664  1.00 17.89 LIG-0.35  N 
ATOM      4 H    GLU B   4      -9.156 -29.163 -10.037  1.00 17.89 LIG 0.16  HD
ENDROOT
BRANCH 1 5
ATOM      5  CA  ALA B   3     -10.554 -27.265  -8.990  1.00 15.99 LIG 0.17  C 
ATOM      6  CB  ALA B   3      -9.522 -26.287  -8.438  1.00 16.21 LIG 0.04  C 
BRANCH 5 7
ATOM      7  N   ALA B   3     -10.628 -28.442  -8.133  1.00 13.91 LIG-0.35  N 
ATOM      8  C   ARG B   2     -11.743 -29.160  -8.034  1.00 12.46 LIG 0.24  C 
ATOM      9 O    ARG B   2     -12.768 -28.888  -8.657  1.00 11.56 LIG-0.27  OA
ATOM     10 H    ALA B   3      -9.901 -28.621  -7.710  1.00 13.91 LIG 0.16  HD
BRANCH 8 11
ATOM     11  CA  ARG B   2     -11.706 -30.361  -7.093  1.00 12.24 LIG 0.18  C 
BRANCH 11 12
ATOM     12  CB  ARG B   2     -12.048 -29.912  -5.671  1.00 10.58 LIG 0.04  C 
BRANCH 12 13
ATOM     13  CG  ARG B   2     -13.524 -29.631  -5.429  1.00  9.71 LIG 0.02  C 
BRANCH 13 14
ATOM     14  CD  ARG B   2     -14.050 -30.497  -4.297  1.00  9.44 LIG 0.14  C 
BRANCH 14 15
ATOM     15  NE  ARG B   2     -15.499 -30.680  -4.365  1.00  9.23 LIG-0.23  N 
ATOM     16  CZ  ARG B   2     -16.343 -30.361  -3.392  1.00  9.20 LIG 0.67  C 
ATOM     17  NH1 ARG B   2     -15.886 -29.839  -2.261  1.00  7.63 LIG-0.23  N 
ATOM     18  NH2 ARG B   2     -17.646 -30.562  -3.548  1.00  9.31 LIG-0.23  N 
ATOM     19 1HH1 ARG B   2     -15.043 -29.708  -2.158  1.00  7.63 LIG 0.17  HD
ATOM     20 2HH1 ARG B   2     -16.433 -29.633  -1.630  1.00  7.63 LIG 0.17  HD
ATOM     21 2HH2 ARG B   2     -18.192 -30.354  -2.916  1.00  9.31 LIG 0.17  HD
ATOM     22 1HH2 ARG B   2     -17.944 -30.899  -4.280  1.00  9.31 LIG 0.17  HD
ATOM     23 HE   ARG B   2     -15.827 -31.017  -5.085  1.00  9.23 LIG 0.18  HD
ENDBRANCH 14 15
ENDBRANCH 13 14
ENDBRANCH 12 13
ENDBRANCH 11 12
BRANCH 11 24
ATOM     24  N   ARG B   2     -10.447 -31.098  -7.072  1.00 12.50 LIG-0.35  N 
ATOM     25  C   ALA B   1     -10.188 -32.118  -7.882  1.00 14.33 LIG 0.25  C 
ATOM     26 O    ALA B   1     -10.968 -32.510  -8.748  1.00 14.72 LIG-0.27  OA
ATOM     27 H    ARG B   2      -9.889 -30.810  -6.486  1.00 12.50 LIG 0.16  HD
BRANCH 25 28
ATOM     28  CA  ALA B   1      -8.830 -32.784  -7.687  1.00 14.93 LIG 0.27  C 
ATOM     29  CB  ALA B   1      -8.972 -34.023  -6.810  1.00 16.58 LIG 0.05  C 
BRANCH 28 30
ATOM     30  N   ALA B   1      -7.849 -31.839  -7.084  1.00 16.58 LIG-0.07  N 
ATOM     31 H3   ALA B   1      -7.377 -31.449  -7.729  1.00 16.58 LIG 0.28  HD
ATOM     32 H1   ALA B   1      -8.284 -31.218  -6.617  1.00 16.58 LIG 0.28  HD
ATOM     33 H2   ALA B   1      -7.301 -32.285  -6.544  1.00 16.58 LIG 0.28  HD
ENDBRANCH 28 30
ENDBRANCH 25 28
ENDBRANCH 11 24
ENDBRANCH 8 11
ENDBRANCH 5 7
ENDBRANCH 1 5
BRANCH 3 34
ATOM     34  CA  GLU B   4      -9.091 -29.087 -12.011  1.00 20.15 LIG 0.18  C 
BRANCH 34 35
ATOM     35  C   GLU B   4     -10.240 -29.826 -12.693  1.00 19.92 LIG 0.24  C 
ATOM     36  N   VAL B   5     -11.279 -30.142 -11.926  1.00 19.46 LIG-0.35  N 
ATOM     37 H    VAL B   5     -11.334 -29.955 -11.088  1.00 19.46 LIG 0.16  HD
ATOM     38 O    GLU B   4     -10.189 -30.095 -13.893  1.00 20.03 LIG-0.27  OA
BRANCH 36 39
ATOM     39  CA  VAL B   5     -12.438 -30.848 -12.466  1.00 20.09 LIG 0.18  C 
BRANCH 39 40
ATOM     40  CB  VAL B   5     -12.959 -31.911 -11.469  1.00 20.49 LIG 0.01  C 
ATOM     41  CG2 VAL B   5     -13.946 -32.836 -12.160  1.00 19.70 LIG 0.01  C 
ATOM     42  CG1 VAL B   5     -13.614 -31.233 -10.278  1.00 21.00 LIG 0.01  C 
ENDBRANCH 39 40
BRANCH 39 43
ATOM     43  C   VAL B   5     -13.580 -29.886 -12.781  1.00 20.75 LIG 0.24  C 
ATOM     44  N   HIS B   6     -13.660 -28.791 -12.029  1.00 20.78 LIG-0.35  N 
ATOM     45 H    HIS B   6     -13.121 -28.610 -11.383  1.00 20.78 LIG 0.16  HD
ATOM     46 O    VAL B   5     -14.379 -30.135 -13.683  1.00 21.91 LIG-0.27  OA
BRANCH 44 47
ATOM     47  CA  HIS B   6     -14.698 -27.791 -12.252  1.00 21.28 LIG 0.17  C 
BRANCH 47 48
ATOM     48  C   HIS B   6     -14.147 -26.400 -11.959  1.00 23.03 LIG 0.22  C 
ATOM     49 O    HIS B   6     -13.782 -25.694 -12.923  1.00 25.39 LIG-0.29  OA
ENDBRANCH 47 48
BRANCH 47 50
ATOM     50  CB  HIS B   6     -15.911 -28.049 -11.353  1.00 19.33 LIG 0.09  C 
BRANCH 50 51
ATOM     51  CG  HIS B   6     -16.698 -29.263 -11.743  1.00 17.39 LIG 0.06  A 
ATOM     52  CD2 HIS B   6     -17.302 -29.599 -12.907  1.00 16.59 LIG 0.14  A 
ATOM     53 NE2  HIS B   6     -17.857 -30.844 -12.732  1.00 16.70 LIG-0.25  NA
ATOM     54  CE1 HIS B   6     -17.604 -31.257 -11.503  1.00 16.06 LIG 0.23  A 
ATOM     55 ND1  HIS B   6     -16.906 -30.321 -10.885  1.00 16.09 LIG-0.24  NA
ENDBRANCH 50 51
ENDBRANCH 47 50
ENDBRANCH 44 47
ENDBRANCH 39 43
ENDBRANCH 36 39
ENDBRANCH 34 35
BRANCH 34 56
ATOM     56  CB  GLU B   4      -7.869 -30.009 -11.953  1.00 22.38 LIG 0.04  C 
BRANCH 56 57
ATOM     57  CG  GLU B   4      -6.809 -29.718 -12.999  1.00 27.64 LIG 0.12  C 
BRANCH 57 58
ATOM     58  CD  GLU B   4      -7.185 -30.259 -14.365  1.00 30.78 LIG 0.17  C 
ATOM     59 OE2  GLU B   4      -6.887 -29.588 -15.377  1.00 32.62 LIG-0.65  OA
ATOM     60 OE1  GLU B   4      -7.780 -31.356 -14.426  1.00 32.75 LIG-0.65  OA
ENDBRANCH 57 58
ENDBRANCH 56 57
ENDBRANCH 34 56
ENDBRANCH 3 34
TORSDOF 22
ENDMDL
MODEL 12
USER: ADFR SOLUTION from run 143
USER: SCORE 16.436976 LL:  -4.248 LR: -14.456 RR:   0.000 FEB:  -7.894
USER: RMSD 7.655049
USER: SEED 142
USER: STATUS no improvement in best in 10 clusters for 5 generations
USER: GENES 24
USER: genes 0 Translation |==|  0.51900 0.58447 0.25481
USER: genes 1 Rotation |==|  0.46504 0.52782 0.20269 0.89951
USER: genes 2 Torsion [N]-C--CA-[N] |==|  0.08152
USER: genes 3 Torsion [C]-CA--N-[C] |==|  0.70702
USER: genes 4 Torsion [N]-C--CA-[N] |==|  0.67576
USER: genes 5 Torsion [C]-CA--CB-[CG] |==|  0.41570
USER: genes 6 Torsion [CA]-CB--CG-[CD] |==|  0.27475
USER: genes 7 Torsion [CB]-CG--CD-[NE] |==|  0.73342
USER: genes 8 Torsion [CG]-CD--NE-[CZ] |==|  0.51334
USER: genes 9 Torsion [C]-CA--N-[C] |==|  0.12796
USER: genes 10 Torsion [N]-C--CA-[N] |==|  0.06113
USER: genes 11 Torsion [C]-CA--N-[H2] |==|  0.10573
USER: genes 12 Torsion [C]-N--CA-[C] |==|  0.17132
USER: genes 13 Torsion [N]-CA--C-[N] |==|  0.13889
USER: genes 14 Torsion [C]-N--CA-[CB] |==|  0.25768
USER: genes 15 Torsion [N]-CA--CB-[CG2] |==|  0.47271
USER: genes 16 Torsion [N]-CA--C-[N] |==|  0.38710
USER: genes 17 Torsion [C]-N--CA-[C] |==|  0.69299
USER: genes 18 Torsion [N]-CA--C-[O] |==|  0.93114
USER: genes 19 Torsion [N]-CA--CB-[CG] |==|  0.88155
USER: genes 20 Torsion [CA]-CB--CG-[CD2] |==|  0.90836
USER: genes 21 Torsion [N]-CA--CB-[CG] |==|  0.62119
USER: genes 22 Torsion [CA]-CB--CG-[CD] |==|  0.96927
USER: genes 23 Torsion [CB]-CG--CD-[OE2] |==|  0.72041
ROOT
ATOM      1  C   ALA B   3     -14.794 -26.125 -10.379  1.00 17.17 LIG 0.24  C 
ATOM      2 O    ALA B   3     -15.785 -25.651 -10.937  1.00 18.54 LIG-0.27  OA
ATOM      3  N   GLU B   4     -14.864 -26.801  -9.235  1.00 17.89 LIG-0.35  N 
ATOM      4 H    GLU B   4     -14.180 -27.136  -8.836  1.00 17.89 LIG 0.16  HD
ENDROOT
BRANCH 1 5
ATOM      5  CA  ALA B   3     -13.405 -25.953 -10.992  1.00 15.99 LIG 0.17  C 
ATOM      6  CB  ALA B   3     -13.518 -25.802 -12.506  1.00 16.21 LIG 0.04  C 
BRANCH 5 7
ATOM      7  N   ALA B   3     -12.494 -27.045 -10.671  1.00 13.91 LIG-0.35  N 
ATOM      8  C   ARG B   2     -11.513 -26.893  -9.786  1.00 12.46 LIG 0.24  C 
ATOM      9 O    ARG B   2     -11.319 -25.840  -9.180  1.00 11.56 LIG-0.27  OA
ATOM     10 H    ALA B   3     -12.648 -27.775 -11.099  1.00 13.91 LIG 0.16  HD
BRANCH 8 11
ATOM     11  CA  ARG B   2     -10.612 -28.101  -9.544  1.00 12.24 LIG 0.18  C 
BRANCH 11 12
ATOM     12  CB  ARG B   2     -10.957 -29.209 -10.541  1.00 10.58 LIG 0.04  C 
BRANCH 12 13
ATOM     13  CG  ARG B   2      -9.788 -30.105 -10.926  1.00  9.71 LIG 0.02  C 
BRANCH 13 14
ATOM     14  CD  ARG B   2      -9.824 -31.396 -10.125  1.00  9.44 LIG 0.14  C 
BRANCH 14 15
ATOM     15  NE  ARG B   2      -8.967 -31.339  -8.942  1.00  9.23 LIG-0.23  N 
ATOM     16  CZ  ARG B   2      -8.747 -32.362  -8.124  1.00  9.20 LIG 0.67  C 
ATOM     17  NH1 ARG B   2      -9.323 -33.534  -8.357  1.00  7.63 LIG-0.23  N 
ATOM     18  NH2 ARG B   2      -7.948 -32.214  -7.075  1.00  9.31 LIG-0.23  N 
ATOM     19 1HH1 ARG B   2      -9.839 -33.632  -9.037  1.00  7.63 LIG 0.17  HD
ATOM     20 2HH1 ARG B   2      -9.180 -34.196  -7.827  1.00  7.63 LIG 0.17  HD
ATOM     21 2HH2 ARG B   2      -7.806 -32.877  -6.546  1.00  9.31 LIG 0.17  HD
ATOM     22 1HH2 ARG B   2      -7.573 -31.456  -6.923  1.00  9.31 LIG 0.17  HD
ATOM     23 HE   ARG B   2      -8.580 -30.593  -8.763  1.00  9.23 LIG 0.18  HD
ENDBRANCH 14 15
ENDBRANCH 13 14
ENDBRANCH 12 13
ENDBRANCH 11 12
BRANCH 11 24
ATOM     24  N   ARG B   2     -10.651 -28.646  -8.191  1.00 12.50 LIG-0.35  N 
ATOM     25  C   ALA B   1     -11.779 -28.868  -7.527  1.00 14.33 LIG 0.25  C 
ATOM     26 O    ALA B   1     -12.895 -28.669  -8.004  1.00 14.72 LIG-0.27  OA
ATOM     27 H    ARG B   2      -9.873 -28.811  -7.864  1.00 12.50 LIG 0.16  HD
BRANCH 25 28
ATOM     28  CA  ALA B   1     -11.613 -29.410  -6.111  1.00 14.93 LIG 0.27  C 
ATOM     29  CB  ALA B   1     -12.691 -28.838  -5.199  1.00 16.58 LIG 0.05  C 
BRANCH 28 30
ATOM     30  N   ALA B   1     -10.262 -29.096  -5.570  1.00 16.58 LIG-0.07  N 
ATOM     31 H3   ALA B   1     -10.285 -29.123  -4.680  1.00 16.58 LIG 0.28  HD
ATOM     32 H1   ALA B   1      -9.676 -29.693  -5.870  1.00 16.58 LIG 0.28  HD
ATOM     33 H2   ALA B   1     -10.018 -28.282  -5.834  1.00 16.58 LIG 0.28  HD
ENDBRANCH 28 30
ENDBRANCH 25 28
ENDBRANCH 11 24
ENDBRANCH 8 11
ENDBRANCH 5 7
ENDBRANCH 1 5
BRANCH 3 34
ATOM     34  CA  GLU B   4     -16.133 -27.035  -8.548  1.00 20.15 LIG 0.18  C 
BRANCH 34 35
ATOM     35  C   GLU B   4     -17.082 -27.853  -9.421  1.00 19.92 LIG 0.24  C 
ATOM     36  N   VAL B   5     -16.586 -28.965  -9.954  1.00 19.46 LIG-0.35  N 
ATOM     37 H    VAL B   5     -15.779 -29.238  -9.834  1.00 19.46 LIG 0.16  HD
ATOM     38 O    GLU B   4     -18.243 -27.486  -9.599  1.00 20.03 LIG-0.27  OA
BRANCH 36 39
ATOM     39  CA  VAL B   5     -17.398 -29.829 -10.806  1.00 20.09 LIG 0.18  C 
BRANCH 39 40
ATOM     40  CB  VAL B   5     -17.231 -29.459 -12.299  1.00 20.49 LIG 0.01  C 
ATOM     41  CG2 VAL B   5     -17.885 -30.513 -13.175  1.00 19.70 LIG 0.01  C 
ATOM     42  CG1 VAL B   5     -15.757 -29.327 -12.642  1.00 21.00 LIG 0.01  C 
ENDBRANCH 39 40
BRANCH 39 43
ATOM     43  C   VAL B   5     -17.019 -31.298 -10.632  1.00 20.75 LIG 0.24  C 
ATOM     44  N   HIS B   6     -18.023 -32.171 -10.603  1.00 20.78 LIG-0.35  N 
ATOM     45 H    HIS B   6     -18.853 -31.953 -10.664  1.00 20.78 LIG 0.16  HD
ATOM     46 O    VAL B   5     -15.841 -31.633 -10.517  1.00 21.91 LIG-0.27  OA
BRANCH 44 47
ATOM     47  CA  HIS B   6     -17.781 -33.602 -10.462  1.00 21.28 LIG 0.17  C 
BRANCH 47 48
ATOM     48  C   HIS B   6     -18.123 -34.316 -11.765  1.00 23.03 LIG 0.22  C 
ATOM     49 O    HIS B   6     -18.948 -33.777 -12.534  1.00 25.39 LIG-0.29  OA
ENDBRANCH 47 48
BRANCH 47 50
ATOM     50  CB  HIS B   6     -18.626 -34.193  -9.329  1.00 19.33 LIG 0.09  C 
BRANCH 50 51
ATOM     51  CG  HIS B   6     -18.665 -33.337  -8.100  1.00 17.39 LIG 0.06  A 
ATOM     52  CD2 HIS B   6     -17.736 -32.516  -7.555  1.00 16.59 LIG 0.14  A 
ATOM     53 NE2  HIS B   6     -18.303 -31.942  -6.443  1.00 16.70 LIG-0.25  NA
ATOM     54  CE1 HIS B   6     -19.537 -32.396  -6.309  1.00 16.06 LIG 0.23  A 
ATOM     55 ND1  HIS B   6     -19.780 -33.239  -7.297  1.00 16.09 LIG-0.24  NA
ENDBRANCH 50 51
ENDBRANCH 47 50
ENDBRANCH 44 47
ENDBRANCH 39 43
ENDBRANCH 36 39
ENDBRANCH 34 35
BRANCH 34 56
ATOM     56  CB  GLU B   4     -16.800 -25.701  -8.199  1.00 22.38 LIG 0.04  C 
BRANCH 56 57
ATOM     57  CG  GLU B   4     -17.386 -25.635  -6.800  1.00 27.64 LIG 0.12  C 
BRANCH 57 58
ATOM     58  CD  GLU B   4     -17.427 -26.994  -6.129  1.00 30.78 LIG 0.17  C 
ATOM     59 OE2  GLU B   4     -18.510 -27.617  -6.105  1.00 32.62 LIG-0.65  OA
ATOM     60 OE1  GLU B   4     -16.374 -27.440  -5.626  1.00 32.75 LIG-0.65  OA
ENDBRANCH 57 58
ENDBRANCH 56 57
ENDBRANCH 34 56
ENDBRANCH 3 34
TORSDOF 22
ENDMDL
MODEL 13
USER: ADFR SOLUTION from run 15
USER: SCORE 15.500716 LL:  -3.946 LR: -14.430 RR:   0.000 FEB:  -7.867
USER: RMSD 8.955584
USER: SEED 310011
USER: STATUS no improvement in best in 13 clusters for 5 generations
USER: GENES 24
USER: genes 0 Translation |==|  0.46279 0.47812 0.32375
USER: genes 1 Rotation |==|  0.41780 0.95892 0.67828 0.52921
USER: genes 2 Torsion [N]-C--CA-[N] |==|  0.47210
USER: genes 3 Torsion [C]-CA--N-[C] |==|  0.54066
USER: genes 4 Torsion [N]-C--CA-[N] |==|  0.72181
USER: genes 5 Torsion [C]-CA--CB-[CG] |==|  0.77128
USER: genes 6 Torsion [CA]-CB--CG-[CD] |==|  0.36246
USER: genes 7 Torsion [CB]-CG--CD-[NE] |==|  0.04033
USER: genes 8 Torsion [CG]-CD--NE-[CZ] |==|  0.36791
USER: genes 9 Torsion [C]-CA--N-[C] |==|  0.07916
USER: genes 10 Torsion [N]-C--CA-[N] |==|  0.15469
USER: genes 11 Torsion [C]-CA--N-[H2] |==|  0.96830
USER: genes 12 Torsion [C]-N--CA-[C] |==|  0.78456
USER: genes 13 Torsion [N]-CA--C-[N] |==|  0.19441
USER: genes 14 Torsion [C]-N--CA-[CB] |==|  0.23333
USER: genes 15 Torsion [N]-CA--CB-[CG2] |==|  0.10572
USER: genes 16 Torsion [N]-CA--C-[N] |==|  0.16340
USER: genes 17 Torsion [C]-N--CA-[C] |==|  0.19327
USER: genes 18 Torsion [N]-CA--C-[O] |==|  0.33205
USER: genes 19 Torsion [N]-CA--CB-[CG] |==|  0.81110
USER: genes 20 Torsion [CA]-CB--CG-[CD2] |==|  0.07702
USER: genes 21 Torsion [N]-CA--CB-[CG] |==|  0.61350
USER: genes 22 Torsion [CA]-CB--CG-[CD] |==|  0.33645
USER: genes 23 Torsion [CB]-CG--CD-[OE2] |==|  0.27329
ROOT
ATOM      1  C   ALA B   3     -15.806 -28.598  -8.880  1.00 17.17 LIG 0.24  C 
ATOM      2 O    ALA B   3     -14.868 -29.361  -8.643  1.00 18.54 LIG-0.27  OA
ATOM      3  N   GLU B   4     -16.242 -28.348 -10.112  1.00 17.89 LIG-0.35  N 
ATOM      4 H    GLU B   4     -16.895 -27.818 -10.289  1.00 17.89 LIG 0.16  HD
ENDROOT
BRANCH 1 5
ATOM      5  CA  ALA B   3     -16.529 -27.885  -7.737  1.00 15.99 LIG 0.17  C 
ATOM      6  CB  ALA B   3     -16.276 -26.383  -7.815  1.00 16.21 LIG 0.04  C 
BRANCH 5 7
ATOM      7  N   ALA B   3     -16.153 -28.382  -6.418  1.00 13.91 LIG-0.35  N 
ATOM      8  C   ARG B   2     -16.872 -28.094  -5.337  1.00 12.46 LIG 0.24  C 
ATOM      9 O    ARG B   2     -17.892 -27.407  -5.379  1.00 11.56 LIG-0.27  OA
ATOM     10 H    ALA B   3     -15.442 -28.865  -6.409  1.00 13.91 LIG 0.16  HD
BRANCH 8 11
ATOM     11  CA  ARG B   2     -16.373 -28.655  -4.010  1.00 12.24 LIG 0.18  C 
BRANCH 11 12
ATOM     12  CB  ARG B   2     -14.871 -28.937  -4.102  1.00 10.58 LIG 0.04  C 
BRANCH 12 13
ATOM     13  CG  ARG B   2     -14.512 -30.266  -4.752  1.00  9.71 LIG 0.02  C 
BRANCH 13 14
ATOM     14  CD  ARG B   2     -13.457 -30.062  -5.827  1.00  9.44 LIG 0.14  C 
BRANCH 14 15
ATOM     15  NE  ARG B   2     -12.820 -28.749  -5.736  1.00  9.23 LIG-0.23  N 
ATOM     16  CZ  ARG B   2     -11.509 -28.546  -5.780  1.00  9.20 LIG 0.67  C 
ATOM     17  NH1 ARG B   2     -10.681 -29.575  -5.914  1.00  7.63 LIG-0.23  N 
ATOM     18  NH2 ARG B   2     -11.023 -27.314  -5.693  1.00  9.31 LIG-0.23  N 
ATOM     19 1HH1 ARG B   2     -10.995 -30.373  -5.971  1.00  7.63 LIG 0.17  HD
ATOM     20 2HH1 ARG B   2      -9.832 -29.443  -5.942  1.00  7.63 LIG 0.17  HD
ATOM     21 2HH2 ARG B   2     -10.173 -27.184  -5.722  1.00  9.31 LIG 0.17  HD
ATOM     22 1HH2 ARG B   2     -11.557 -26.646  -5.608  1.00  9.31 LIG 0.17  HD
ATOM     23 HE   ARG B   2     -13.329 -28.062  -5.648  1.00  9.23 LIG 0.18  HD
ENDBRANCH 14 15
ENDBRANCH 13 14
ENDBRANCH 12 13
ENDBRANCH 11 12
BRANCH 11 24
ATOM     24  N   ARG B   2     -17.057 -29.856  -3.544  1.00 12.50 LIG-0.35  N 
ATOM     25  C   ALA B   1     -17.617 -30.739  -4.362  1.00 14.33 LIG 0.25  C 
ATOM     26 O    ALA B   1     -17.578 -30.645  -5.588  1.00 14.72 LIG-0.27  OA
ATOM     27 H    ARG B   2     -17.063 -29.940  -2.688  1.00 12.50 LIG 0.16  HD
BRANCH 25 28
ATOM     28  CA  ALA B   1     -18.315 -31.914  -3.685  1.00 14.93 LIG 0.27  C 
ATOM     29  CB  ALA B   1     -18.952 -32.822  -4.730  1.00 16.58 LIG 0.05  C 
BRANCH 28 30
ATOM     30  N   ALA B   1     -19.345 -31.443  -2.719  1.00 16.58 LIG-0.07  N 
ATOM     31 H3   ALA B   1     -20.157 -31.611  -3.044  1.00 16.58 LIG 0.28  HD
ATOM     32 H1   ALA B   1     -19.242 -31.868  -1.944  1.00 16.58 LIG 0.28  HD
ATOM     33 H2   ALA B   1     -19.254 -30.567  -2.590  1.00 16.58 LIG 0.28  HD
ENDBRANCH 28 30
ENDBRANCH 25 28
ENDBRANCH 11 24
ENDBRANCH 8 11
ENDBRANCH 5 7
ENDBRANCH 1 5
BRANCH 3 34
ATOM     34  CA  GLU B   4     -15.635 -28.967 -11.289  1.00 20.15 LIG 0.18  C 
BRANCH 34 35
ATOM     35  C   GLU B   4     -14.319 -28.282 -11.647  1.00 19.92 LIG 0.24  C 
ATOM     36  N   VAL B   5     -13.303 -28.477 -10.812  1.00 19.46 LIG-0.35  N 
ATOM     37 H    VAL B   5     -13.351 -28.957 -10.100  1.00 19.46 LIG 0.16  HD
ATOM     38 O    GLU B   4     -14.224 -27.597 -12.666  1.00 20.03 LIG-0.27  OA
BRANCH 36 39
ATOM     39  CA  VAL B   5     -11.995 -27.873 -11.048  1.00 20.09 LIG 0.18  C 
BRANCH 39 40
ATOM     40  CB  VAL B   5     -11.942 -26.422 -10.513  1.00 20.49 LIG 0.01  C 
ATOM     41  CG2 VAL B   5     -12.711 -26.319  -9.207  1.00 19.70 LIG 0.01  C 
ATOM     42  CG1 VAL B   5     -12.518 -25.465 -11.543  1.00 21.00 LIG 0.01  C 
ENDBRANCH 39 40
BRANCH 39 43
ATOM     43  C   VAL B   5     -10.882 -28.672 -10.375  1.00 20.75 LIG 0.24  C 
ATOM     44  N   HIS B   6     -10.759 -29.945 -10.741  1.00 20.78 LIG-0.35  N 
ATOM     45 H    HIS B   6     -11.270 -30.333 -11.315  1.00 20.78 LIG 0.16  HD
ATOM     46 O    VAL B   5     -10.154 -28.148  -9.533  1.00 21.91 LIG-0.27  OA
BRANCH 44 47
ATOM     47  CA  HIS B   6      -9.719 -30.800 -10.181  1.00 21.28 LIG 0.17  C 
BRANCH 47 48
ATOM     48  C   HIS B   6     -10.019 -31.086  -8.714  1.00 23.03 LIG 0.22  C 
ATOM     49 O    HIS B   6     -10.186 -32.275  -8.366  1.00 25.39 LIG-0.29  OA
ENDBRANCH 47 48
BRANCH 47 50
ATOM     50  CB  HIS B   6      -8.343 -30.134 -10.290  1.00 19.33 LIG 0.09  C 
BRANCH 50 51
ATOM     51  CG  HIS B   6      -7.850 -30.006 -11.699  1.00 17.39 LIG 0.06  A 
ATOM     52  CD2 HIS B   6      -8.518 -29.898 -12.872  1.00 16.59 LIG 0.14  A 
ATOM     53 NE2  HIS B   6      -7.576 -29.771 -13.865  1.00 16.70 LIG-0.25  NA
ATOM     54  CE1 HIS B   6      -6.373 -29.802 -13.321  1.00 16.06 LIG 0.23  A 
ATOM     55 ND1  HIS B   6      -6.510 -29.942 -12.014  1.00 16.09 LIG-0.24  NA
ENDBRANCH 50 51
ENDBRANCH 47 50
ENDBRANCH 44 47
ENDBRANCH 39 43
ENDBRANCH 36 39
ENDBRANCH 34 35
BRANCH 34 56
ATOM     56  CB  GLU B   4     -16.587 -28.876 -12.485  1.00 22.38 LIG 0.04  C 
BRANCH 56 57
ATOM     57  CG  GLU B   4     -16.644 -30.126 -13.345  1.00 27.64 LIG 0.12  C 
BRANCH 57 58
ATOM     58  CD  GLU B   4     -18.043 -30.705 -13.426  1.00 30.78 LIG 0.17  C 
ATOM     59 OE2  GLU B   4     -18.742 -30.440 -14.427  1.00 32.62 LIG-0.65  OA
ATOM     60 OE1  GLU B   4     -18.443 -31.425 -12.487  1.00 32.75 LIG-0.65  OA
ENDBRANCH 57 58
ENDBRANCH 56 57
ENDBRANCH 34 56
ENDBRANCH 3 34
TORSDOF 22
ENDMDL
MODEL 14
USER: ADFR SOLUTION from run 32
USER: SCORE 18.250782 LL:  -4.714 LR: -14.395 RR:   0.000 FEB:  -7.832
USER: RMSD 5.581407
USER: SEED 31
USER: STATUS 1 or 2 clusters left
USER: GENES 24
USER: genes 0 Translation |==|  0.42836 0.40886 0.37742
USER: genes 1 Rotation |==|  0.40834 0.16492 0.70361 0.79642
USER: genes 2 Torsion [N]-C--CA-[N] |==|  0.32778
USER: genes 3 Torsion [C]-CA--N-[C] |==|  0.75754
USER: genes 4 Torsion [N]-C--CA-[N] |==|  0.91483
USER: genes 5 Torsion [C]-CA--CB-[CG] |==|  0.08744
USER: genes 6 Torsion [CA]-CB--CG-[CD] |==|  0.26956
USER: genes 7 Torsion [CB]-CG--CD-[NE] |==|  0.00975
USER: genes 8 Torsion [CG]-CD--NE-[CZ] |==|  0.60216
USER: genes 9 Torsion [C]-CA--N-[C] |==|  0.85541
USER: genes 10 Torsion [N]-C--CA-[N] |==|  0.42271
USER: genes 11 Torsion [C]-CA--N-[H2] |==|  0.04185
USER: genes 12 Torsion [C]-N--CA-[C] |==|  0.63633
USER: genes 13 Torsion [N]-CA--C-[N] |==|  0.43559
USER: genes 14 Torsion [C]-N--CA-[CB] |==|  0.79807
USER: genes 15 Torsion [N]-CA--CB-[CG2] |==|  0.90407
USER: genes 16 Torsion [N]-CA--C-[N] |==|  0.24537
USER: genes 17 Torsion [C]-N--CA-[C] |==|  0.69386
USER: genes 18 Torsion [N]-CA--C-[O] |==|  0.16679
USER: genes 19 Torsion [N]-CA--CB-[CG] |==|  0.90205
USER: genes 20 Torsion [CA]-CB--CG-[CD2] |==|  0.70221
USER: genes 21 Torsion [N]-CA--CB-[CG] |==|  0.14076
USER: genes 22 Torsion [CA]-CB--CG-[CD] |==|  0.76671
USER: genes 23 Torsion [CB]-CG--CD-[OE2] |==|  0.35048
ROOT
ATOM      1  C   ALA B   3     -16.426 -30.208  -7.712  1.00 17.17 LIG 0.24  C 
ATOM      2 O    ALA B   3     -15.432 -30.935  -7.676  1.00 18.54 LIG-0.27  OA
ATOM      3  N   GLU B   4     -17.481 -30.388  -6.922  1.00 17.89 LIG-0.35  N 
ATOM      4 H    GLU B   4     -18.180 -29.888  -6.938  1.00 17.89 LIG 0.16  HD
ENDROOT
BRANCH 1 5
ATOM      5  CA  ALA B   3     -16.491 -29.036  -8.691  1.00 15.99 LIG 0.17  C 
ATOM      6  CB  ALA B   3     -16.406 -29.549 -10.125  1.00 16.21 LIG 0.04  C 
BRANCH 5 7
ATOM      7  N   ALA B   3     -15.456 -28.035  -8.462  1.00 13.91 LIG-0.35  N 
ATOM      8  C   ARG B   2     -15.635 -27.035  -7.605  1.00 12.46 LIG 0.24  C 
ATOM      9 O    ARG B   2     -16.667 -26.896  -6.950  1.00 11.56 LIG-0.27  OA
ATOM     10 H    ALA B   3     -14.739 -28.152  -8.923  1.00 13.91 LIG 0.16  HD
BRANCH 8 11
ATOM     11  CA  ARG B   2     -14.488 -26.039  -7.460  1.00 12.24 LIG 0.18  C 
BRANCH 11 12
ATOM     12  CB  ARG B   2     -14.704 -24.862  -8.414  1.00 10.58 LIG 0.04  C 
BRANCH 12 13
ATOM     13  CG  ARG B   2     -16.163 -24.517  -8.679  1.00  9.71 LIG 0.02  C 
BRANCH 13 14
ATOM     14  CD  ARG B   2     -16.609 -23.375  -7.779  1.00  9.44 LIG 0.14  C 
BRANCH 14 15
ATOM     15  NE  ARG B   2     -15.514 -22.854  -6.962  1.00  9.23 LIG-0.23  N 
ATOM     16  CZ  ARG B   2     -15.647 -22.432  -5.710  1.00  9.20 LIG 0.67  C 
ATOM     17  NH1 ARG B   2     -16.835 -22.466  -5.120  1.00  7.63 LIG-0.23  N 
ATOM     18  NH2 ARG B   2     -14.592 -21.977  -5.046  1.00  9.31 LIG-0.23  N 
ATOM     19 1HH1 ARG B   2     -17.519 -22.762  -5.549  1.00  7.63 LIG 0.17  HD
ATOM     20 2HH1 ARG B   2     -16.920 -22.193  -4.309  1.00  7.63 LIG 0.17  HD
ATOM     21 2HH2 ARG B   2     -14.679 -21.705  -4.235  1.00  9.31 LIG 0.17  HD
ATOM     22 1HH2 ARG B   2     -13.821 -21.956  -5.426  1.00  9.31 LIG 0.17  HD
ATOM     23 HE   ARG B   2     -14.732 -22.818  -7.316  1.00  9.23 LIG 0.18  HD
ENDBRANCH 14 15
ENDBRANCH 13 14
ENDBRANCH 12 13
ENDBRANCH 11 12
BRANCH 11 24
ATOM     24  N   ARG B   2     -13.154 -26.589  -7.675  1.00 12.50 LIG-0.35  N 
ATOM     25  C   ALA B   1     -12.702 -27.669  -7.048  1.00 14.33 LIG 0.25  C 
ATOM     26 O    ALA B   1     -13.379 -28.325  -6.258  1.00 14.72 LIG-0.27  OA
ATOM     27 H    ARG B   2     -12.686 -26.148  -8.246  1.00 12.50 LIG 0.16  HD
BRANCH 25 28
ATOM     28  CA  ALA B   1     -11.268 -28.071  -7.379  1.00 14.93 LIG 0.27  C 
ATOM     29  CB  ALA B   1     -11.241 -28.939  -8.631  1.00 16.58 LIG 0.05  C 
BRANCH 28 30
ATOM     30  N   ALA B   1     -10.636 -28.793  -6.241  1.00 16.58 LIG-0.07  N 
ATOM     31 H3   ALA B   1     -10.204 -29.509  -6.546  1.00 16.58 LIG 0.28  HD
ATOM     32 H1   ALA B   1     -10.061 -28.253  -5.829  1.00 16.58 LIG 0.28  HD
ATOM     33 H2   ALA B   1     -11.265 -29.049  -5.666  1.00 16.58 LIG 0.28  HD
ENDBRANCH 28 30
ENDBRANCH 25 28
ENDBRANCH 11 24
ENDBRANCH 8 11
ENDBRANCH 5 7
ENDBRANCH 1 5
BRANCH 3 34
ATOM     34  CA  GLU B   4     -17.542 -31.472  -5.943  1.00 20.15 LIG 0.18  C 
BRANCH 34 35
ATOM     35  C   GLU B   4     -18.859 -32.235  -6.058  1.00 19.92 LIG 0.24  C 
ATOM     36  N   VAL B   5     -18.864 -33.482  -5.597  1.00 19.46 LIG-0.35  N 
ATOM     37 H    VAL B   5     -18.180 -33.869  -5.248  1.00 19.46 LIG 0.16  HD
ATOM     38 O    GLU B   4     -19.855 -31.700  -6.546  1.00 20.03 LIG-0.27  OA
BRANCH 36 39
ATOM     39  CA  VAL B   5     -20.065 -34.311  -5.652  1.00 20.09 LIG 0.18  C 
BRANCH 39 40
ATOM     40  CB  VAL B   5     -21.114 -33.846  -4.614  1.00 20.49 LIG 0.01  C 
ATOM     41  CG2 VAL B   5     -20.421 -33.336  -3.362  1.00 19.70 LIG 0.01  C 
ATOM     42  CG1 VAL B   5     -22.052 -34.990  -4.271  1.00 21.00 LIG 0.01  C 
ENDBRANCH 39 40
BRANCH 39 43
ATOM     43  C   VAL B   5     -20.709 -34.269  -7.036  1.00 20.75 LIG 0.24  C 
ATOM     44  N   HIS B   6     -20.276 -35.163  -7.920  1.00 20.78 LIG-0.35  N 
ATOM     45 H    HIS B   6     -19.659 -35.741  -7.759  1.00 20.78 LIG 0.16  HD
ATOM     46 O    VAL B   5     -21.576 -33.437  -7.299  1.00 21.91 LIG-0.27  OA
BRANCH 44 47
ATOM     47  CA  HIS B   6     -20.833 -35.231  -9.266  1.00 21.28 LIG 0.17  C 
BRANCH 47 48
ATOM     48  C   HIS B   6     -21.656 -36.505  -9.422  1.00 23.03 LIG 0.22  C 
ATOM     49 O    HIS B   6     -22.636 -36.671  -8.666  1.00 25.39 LIG-0.29  OA
ENDBRANCH 47 48
BRANCH 47 50
ATOM     50  CB  HIS B   6     -19.722 -35.219 -10.321  1.00 19.33 LIG 0.09  C 
BRANCH 50 51
ATOM     51  CG  HIS B   6     -18.550 -34.364  -9.948  1.00 17.39 LIG 0.06  A 
ATOM     52  CD2 HIS B   6     -18.136 -33.164 -10.418  1.00 16.59 LIG 0.14  A 
ATOM     53 NE2  HIS B   6     -17.018 -32.810  -9.701  1.00 16.70 LIG-0.25  NA
ATOM     54  CE1 HIS B   6     -16.754 -33.761  -8.823  1.00 16.06 LIG 0.23  A 
ATOM     55 ND1  HIS B   6     -17.664 -34.711  -8.951  1.00 16.09 LIG-0.24  NA
ENDBRANCH 50 51
ENDBRANCH 47 50
ENDBRANCH 44 47
ENDBRANCH 39 43
ENDBRANCH 36 39
ENDBRANCH 34 35
BRANCH 34 56
ATOM     56  CB  GLU B   4     -17.410 -30.912  -4.524  1.00 22.38 LIG 0.04  C 
BRANCH 56 57
ATOM     57  CG  GLU B   4     -18.350 -29.763  -4.209  1.00 27.64 LIG 0.12  C 
BRANCH 57 58
ATOM     58  CD  GLU B   4     -17.801 -28.427  -4.673  1.00 30.78 LIG 0.17  C 
ATOM     59 OE2  GLU B   4     -18.511 -27.714  -5.414  1.00 32.62 LIG-0.65  OA
ATOM     60 OE1  GLU B   4     -16.658 -28.092  -4.297  1.00 32.75 LIG-0.65  OA
ENDBRANCH 57 58
ENDBRANCH 56 57
ENDBRANCH 34 56
ENDBRANCH 3 34
TORSDOF 22
ENDMDL
MODEL 15
USER: ADFR SOLUTION from run 156
USER: SCORE 18.046648 LL:  -5.166 LR: -14.367 RR:   0.000 FEB:  -7.804
USER: RMSD 9.141488
USER: SEED 155
USER: STATUS no improvement in best in 15 clusters for 5 generations
USER: GENES 24
USER: genes 0 Translation |==|  0.36479 0.55200 0.43140
USER: genes 1 Rotation |==|  0.97322 0.54384 0.64565 0.55413
USER: genes 2 Torsion [N]-C--CA-[N] |==|  0.94367
USER: genes 3 Torsion [C]-CA--N-[C] |==|  0.81681
USER: genes 4 Torsion [N]-C--CA-[N] |==|  0.96063
USER: genes 5 Torsion [C]-CA--CB-[CG] |==|  0.94984
USER: genes 6 Torsion [CA]-CB--CG-[CD] |==|  0.78236
USER: genes 7 Torsion [CB]-CG--CD-[NE] |==|  0.43780
USER: genes 8 Torsion [CG]-CD--NE-[CZ] |==|  0.61500
USER: genes 9 Torsion [C]-CA--N-[C] |==|  0.77136
USER: genes 10 Torsion [N]-C--CA-[N] |==|  0.39761
USER: genes 11 Torsion [C]-CA--N-[H2] |==|  0.62816
USER: genes 12 Torsion [C]-N--CA-[C] |==|  0.67433
USER: genes 13 Torsion [N]-CA--C-[N] |==|  0.94887
USER: genes 14 Torsion [C]-N--CA-[CB] |==|  0.23889
USER: genes 15 Torsion [N]-CA--CB-[CG2] |==|  0.04047
USER: genes 16 Torsion [N]-CA--C-[N] |==|  0.57360
USER: genes 17 Torsion [C]-N--CA-[C] |==|  0.63300
USER: genes 18 Torsion [N]-CA--C-[O] |==|  0.08762
USER: genes 19 Torsion [N]-CA--CB-[CG] |==|  0.76760
USER: genes 20 Torsion [CA]-CB--CG-[CD2] |==|  0.81869
USER: genes 21 Torsion [N]-CA--CB-[CG] |==|  0.63104
USER: genes 22 Torsion [CA]-CB--CG-[CD] |==|  0.29703
USER: genes 23 Torsion [CB]-CG--CD-[OE2] |==|  0.78713
ROOT
ATOM      1  C   ALA B   3     -17.570 -26.880  -6.538  1.00 17.17 LIG 0.24  C 
ATOM      2 O    ALA B   3     -18.639 -26.268  -6.545  1.00 18.54 LIG-0.27  OA
ATOM      3  N   GLU B   4     -16.493 -26.461  -7.199  1.00 17.89 LIG-0.35  N 
ATOM      4 H    GLU B   4     -15.742 -26.880  -7.202  1.00 17.89 LIG 0.16  HD
ENDROOT
BRANCH 1 5
ATOM      5  CA  ALA B   3     -17.429 -28.181  -5.748  1.00 15.99 LIG 0.17  C 
ATOM      6  CB  ALA B   3     -17.282 -27.876  -4.261  1.00 16.21 LIG 0.04  C 
BRANCH 5 7
ATOM      7  N   ALA B   3     -16.316 -29.009  -6.195  1.00 13.91 LIG-0.35  N 
ATOM      8  C   ARG B   2     -16.304 -29.565  -7.403  1.00 12.46 LIG 0.24  C 
ATOM      9 O    ARG B   2     -17.215 -29.412  -8.215  1.00 11.56 LIG-0.27  OA
ATOM     10 H    ALA B   3     -15.685 -29.100  -5.617  1.00 13.91 LIG 0.16  HD
BRANCH 8 11
ATOM     11  CA  ARG B   2     -15.094 -30.425  -7.753  1.00 12.24 LIG 0.18  C 
BRANCH 11 12
ATOM     12  CB  ARG B   2     -15.505 -31.898  -7.806  1.00 10.58 LIG 0.04  C 
BRANCH 12 13
ATOM     13  CG  ARG B   2     -16.820 -32.217  -7.107  1.00  9.71 LIG 0.02  C 
BRANCH 13 14
ATOM     14  CD  ARG B   2     -16.617 -32.287  -5.603  1.00  9.44 LIG 0.14  C 
BRANCH 14 15
ATOM     15  NE  ARG B   2     -17.859 -32.067  -4.865  1.00  9.23 LIG-0.23  N 
ATOM     16  CZ  ARG B   2     -17.959 -31.334  -3.762  1.00  9.20 LIG 0.67  C 
ATOM     17  NH1 ARG B   2     -16.883 -30.743  -3.258  1.00  7.63 LIG-0.23  N 
ATOM     18  NH2 ARG B   2     -19.134 -31.190  -3.163  1.00  9.31 LIG-0.23  N 
ATOM     19 1HH1 ARG B   2     -16.121 -30.835  -3.646  1.00  7.63 LIG 0.17  HD
ATOM     20 2HH1 ARG B   2     -16.947 -30.269  -2.544  1.00  7.63 LIG 0.17  HD
ATOM     21 2HH2 ARG B   2     -19.196 -30.715  -2.448  1.00  9.31 LIG 0.17  HD
ATOM     22 1HH2 ARG B   2     -19.832 -31.571  -3.488  1.00  9.31 LIG 0.17  HD
ATOM     23 HE   ARG B   2     -18.575 -32.437  -5.165  1.00  9.23 LIG 0.18  HD
ENDBRANCH 14 15
ENDBRANCH 13 14
ENDBRANCH 12 13
ENDBRANCH 11 12
BRANCH 11 24
ATOM     24  N   ARG B   2     -13.948 -30.281  -6.861  1.00 12.50 LIG-0.35  N 
ATOM     25  C   ALA B   1     -13.060 -29.300  -6.970  1.00 14.33 LIG 0.25  C 
ATOM     26 O    ALA B   1     -13.142 -28.403  -7.807  1.00 14.72 LIG-0.27  OA
ATOM     27 H    ARG B   2     -13.901 -30.892  -6.258  1.00 12.50 LIG 0.16  HD
BRANCH 25 28
ATOM     28  CA  ALA B   1     -11.912 -29.337  -5.966  1.00 14.93 LIG 0.27  C 
ATOM     29  CB  ALA B   1     -12.239 -28.465  -4.760  1.00 16.58 LIG 0.05  C 
BRANCH 28 30
ATOM     30  N   ALA B   1     -10.636 -28.890  -6.592  1.00 16.58 LIG-0.07  N 
ATOM     31 H3   ALA B   1     -10.729 -28.875  -7.477  1.00 16.58 LIG 0.28  HD
ATOM     32 H1   ALA B   1     -10.433 -28.075  -6.300  1.00 16.58 LIG 0.28  HD
ATOM     33 H2   ALA B   1      -9.984 -29.454  -6.372  1.00 16.58 LIG 0.28  HD
ENDBRANCH 28 30
ENDBRANCH 25 28
ENDBRANCH 11 24
ENDBRANCH 8 11
ENDBRANCH 5 7
ENDBRANCH 1 5
BRANCH 3 34
ATOM     34  CA  GLU B   4     -16.498 -25.233  -7.991  1.00 20.15 LIG 0.18  C 
BRANCH 34 35
ATOM     35  C   GLU B   4     -16.245 -25.535  -9.466  1.00 19.92 LIG 0.24  C 
ATOM     36  N   VAL B   5     -15.702 -26.716  -9.745  1.00 19.46 LIG-0.35  N 
ATOM     37 H    VAL B   5     -15.493 -27.302  -9.150  1.00 19.46 LIG 0.16  HD
ATOM     38 O    GLU B   4     -16.545 -24.716 -10.335  1.00 20.03 LIG-0.27  OA
BRANCH 36 39
ATOM     39  CA  VAL B   5     -15.414 -27.117 -11.119  1.00 20.09 LIG 0.18  C 
BRANCH 39 40
ATOM     40  CB  VAL B   5     -14.026 -26.605 -11.572  1.00 20.49 LIG 0.01  C 
ATOM     41  CG2 VAL B   5     -13.218 -26.149 -10.369  1.00 19.70 LIG 0.01  C 
ATOM     42  CG1 VAL B   5     -14.190 -25.464 -12.562  1.00 21.00 LIG 0.01  C 
ENDBRANCH 39 40
BRANCH 39 43
ATOM     43  C   VAL B   5     -15.437 -28.636 -11.272  1.00 20.75 LIG 0.24  C 
ATOM     44  N   HIS B   6     -14.695 -29.145 -12.252  1.00 20.78 LIG-0.35  N 
ATOM     45 H    HIS B   6     -14.226 -28.673 -12.797  1.00 20.78 LIG 0.16  HD
ATOM     46 O    VAL B   5     -16.119 -29.332 -10.521  1.00 21.91 LIG-0.27  OA
BRANCH 44 47
ATOM     47  CA  HIS B   6     -14.623 -30.584 -12.480  1.00 21.28 LIG 0.17  C 
BRANCH 47 48
ATOM     48  C   HIS B   6     -13.168 -31.011 -12.638  1.00 23.03 LIG 0.22  C 
ATOM     49 O    HIS B   6     -12.295 -30.375 -12.010  1.00 25.39 LIG-0.29  OA
ENDBRANCH 47 48
BRANCH 47 50
ATOM     50  CB  HIS B   6     -15.401 -30.980 -13.739  1.00 19.33 LIG 0.09  C 
BRANCH 50 51
ATOM     51  CG  HIS B   6     -16.869 -31.166 -13.503  1.00 17.39 LIG 0.06  A 
ATOM     52  CD2 HIS B   6     -17.546 -32.073 -12.759  1.00 16.59 LIG 0.14  A 
ATOM     53 NE2  HIS B   6     -18.882 -31.769 -12.864  1.00 16.70 LIG-0.25  NA
ATOM     54  CE1 HIS B   6     -19.021 -30.714 -13.647  1.00 16.06 LIG 0.23  A 
ATOM     55 ND1  HIS B   6     -17.821 -30.330 -14.046  1.00 16.09 LIG-0.24  NA
ENDBRANCH 50 51
ENDBRANCH 47 50
ENDBRANCH 44 47
ENDBRANCH 39 43
ENDBRANCH 36 39
ENDBRANCH 34 35
BRANCH 34 56
ATOM     56  CB  GLU B   4     -15.418 -24.273  -7.485  1.00 22.38 LIG 0.04  C 
BRANCH 56 57
ATOM     57  CG  GLU B   4     -15.886 -22.842  -7.291  1.00 27.64 LIG 0.12  C 
BRANCH 57 58
ATOM     58  CD  GLU B   4     -16.029 -22.478  -5.825  1.00 30.78 LIG 0.17  C 
ATOM     59 OE2  GLU B   4     -17.026 -22.898  -5.200  1.00 32.62 LIG-0.65  OA
ATOM     60 OE1  GLU B   4     -15.143 -21.771  -5.300  1.00 32.75 LIG-0.65  OA
ENDBRANCH 57 58
ENDBRANCH 56 57
ENDBRANCH 34 56
ENDBRANCH 3 34
TORSDOF 22
ENDMDL
MODEL 16
USER: ADFR SOLUTION from run 93
USER: SCORE 16.974405 LL:  -4.007 LR: -14.311 RR:   0.000 FEB:  -7.748
USER: RMSD 5.010157
USER: SEED 92
USER: STATUS no improvement in best in 13 clusters for 5 generations
USER: GENES 24
USER: genes 0 Translation |==|  0.29631 0.33637 0.43683
USER: genes 1 Rotation |==|  0.63748 0.74792 0.18598 0.76651
USER: genes 2 Torsion [N]-C--CA-[N] |==|  0.59609
USER: genes 3 Torsion [C]-CA--N-[C] |==|  0.66004
USER: genes 4 Torsion [N]-C--CA-[N] |==|  0.34460
USER: genes 5 Torsion [C]-CA--CB-[CG] |==|  0.92413
USER: genes 6 Torsion [CA]-CB--CG-[CD] |==|  0.75864
USER: genes 7 Torsion [CB]-CG--CD-[NE] |==|  0.88874
USER: genes 8 Torsion [CG]-CD--NE-[CZ] |==|  0.80819
USER: genes 9 Torsion [C]-CA--N-[C] |==|  0.64284
USER: genes 10 Torsion [N]-C--CA-[N] |==|  0.53634
USER: genes 11 Torsion [C]-CA--N-[H2] |==|  0.23962
USER: genes 12 Torsion [C]-N--CA-[C] |==|  0.78838
USER: genes 13 Torsion [N]-CA--C-[N] |==|  0.20004
USER: genes 14 Torsion [C]-N--CA-[CB] |==|  0.84873
USER: genes 15 Torsion [N]-CA--CB-[CG2] |==|  0.80139
USER: genes 16 Torsion [N]-CA--C-[N] |==|  0.34285
USER: genes 17 Torsion [C]-N--CA-[C] |==|  0.53823
USER: genes 18 Torsion [N]-CA--C-[O] |==|  0.13088
USER: genes 19 Torsion [N]-CA--CB-[CG] |==|  0.15063
USER: genes 20 Torsion [CA]-CB--CG-[CD2] |==|  0.47207
USER: genes 21 Torsion [N]-CA--CB-[CG] |==|  0.84503
USER: genes 22 Torsion [CA]-CB--CG-[CD] |==|  0.58780
USER: genes 23 Torsion [CB]-CG--CD-[OE2] |==|  0.96435
ROOT
ATOM      1  C   ALA B   3     -18.803 -31.893  -6.420  1.00 17.17 LIG 0.24  C 
ATOM      2 O    ALA B   3     -19.384 -31.004  -5.796  1.00 18.54 LIG-0.27  OA
ATOM      3  N   GLU B   4     -19.213 -33.159  -6.424  1.00 17.89 LIG-0.35  N 
ATOM      4 H    GLU B   4     -18.815 -33.788  -6.855  1.00 17.89 LIG 0.16  HD
ENDROOT
BRANCH 1 5
ATOM      5  CA  ALA B   3     -17.552 -31.572  -7.238  1.00 15.99 LIG 0.17  C 
ATOM      6  CB  ALA B   3     -16.728 -32.838  -7.450  1.00 16.21 LIG 0.04  C 
BRANCH 5 7
ATOM      7  N   ALA B   3     -16.721 -30.536  -6.638  1.00 13.91 LIG-0.35  N 
ATOM      8  C   ARG B   2     -16.419 -29.420  -7.295  1.00 12.46 LIG 0.24  C 
ATOM      9 O    ARG B   2     -16.825 -29.187  -8.433  1.00 11.56 LIG-0.27  OA
ATOM     10 H    ALA B   3     -16.452 -30.713  -5.840  1.00 13.91 LIG 0.16  HD
BRANCH 8 11
ATOM     11  CA  ARG B   2     -15.528 -28.415  -6.572  1.00 12.24 LIG 0.18  C 
BRANCH 11 12
ATOM     12  CB  ARG B   2     -16.330 -27.152  -6.252  1.00 10.58 LIG 0.04  C 
BRANCH 12 13
ATOM     13  CG  ARG B   2     -17.485 -26.873  -7.204  1.00  9.71 LIG 0.02  C 
BRANCH 13 14
ATOM     14  CD  ARG B   2     -17.002 -26.079  -8.406  1.00  9.44 LIG 0.14  C 
BRANCH 14 15
ATOM     15  NE  ARG B   2     -16.034 -25.048  -8.036  1.00  9.23 LIG-0.23  N 
ATOM     16  CZ  ARG B   2     -16.327 -23.958  -7.337  1.00  9.20 LIG 0.67  C 
ATOM     17  NH1 ARG B   2     -17.571 -23.748  -6.924  1.00  7.63 LIG-0.23  N 
ATOM     18  NH2 ARG B   2     -15.378 -23.078  -7.047  1.00  9.31 LIG-0.23  N 
ATOM     19 1HH1 ARG B   2     -18.187 -24.318  -7.111  1.00  7.63 LIG 0.17  HD
ATOM     20 2HH1 ARG B   2     -17.760 -23.043  -6.471  1.00  7.63 LIG 0.17  HD
ATOM     21 2HH2 ARG B   2     -15.569 -22.373  -6.593  1.00  9.31 LIG 0.17  HD
ATOM     22 1HH2 ARG B   2     -14.571 -23.213  -7.312  1.00  9.31 LIG 0.17  HD
ATOM     23 HE   ARG B   2     -15.220 -25.154  -8.290  1.00  9.23 LIG 0.18  HD
ENDBRANCH 14 15
ENDBRANCH 13 14
ENDBRANCH 12 13
ENDBRANCH 11 12
BRANCH 11 24
ATOM     24  N   ARG B   2     -14.309 -28.040  -7.280  1.00 12.50 LIG-0.35  N 
ATOM     25  C   ALA B   1     -13.103 -28.086  -6.727  1.00 14.33 LIG 0.25  C 
ATOM     26 O    ALA B   1     -12.898 -28.483  -5.581  1.00 14.72 LIG-0.27  OA
ATOM     27 H    ARG B   2     -14.444 -27.788  -8.091  1.00 12.50 LIG 0.16  HD
BRANCH 25 28
ATOM     28  CA  ALA B   1     -11.953 -27.623  -7.616  1.00 14.93 LIG 0.27  C 
ATOM     29  CB  ALA B   1     -12.096 -28.214  -9.013  1.00 16.58 LIG 0.05  C 
BRANCH 28 30
ATOM     30  N   ALA B   1     -10.636 -28.001  -7.032  1.00 16.58 LIG-0.07  N 
ATOM     31 H3   ALA B   1     -10.011 -27.435  -7.317  1.00 16.58 LIG 0.28  HD
ATOM     32 H1   ALA B   1     -10.684 -27.967  -6.144  1.00 16.58 LIG 0.28  HD
ATOM     33 H2   ALA B   1     -10.425 -28.827  -7.286  1.00 16.58 LIG 0.28  HD
ENDBRANCH 28 30
ENDBRANCH 25 28
ENDBRANCH 11 24
ENDBRANCH 8 11
ENDBRANCH 5 7
ENDBRANCH 1 5
BRANCH 3 34
ATOM     34  CA  GLU B   4     -20.394 -33.595  -5.682  1.00 20.15 LIG 0.18  C 
BRANCH 34 35
ATOM     35  C   GLU B   4     -20.092 -33.697  -4.189  1.00 19.92 LIG 0.24  C 
ATOM     36  N   VAL B   5     -19.940 -32.551  -3.534  1.00 19.46 LIG-0.35  N 
ATOM     37 H    VAL B   5     -20.003 -31.775  -3.901  1.00 19.46 LIG 0.16  HD
ATOM     38 O    GLU B   4     -20.007 -34.796  -3.640  1.00 20.03 LIG-0.27  OA
BRANCH 36 39
ATOM     39  CA  VAL B   5     -19.649 -32.522  -2.104  1.00 20.09 LIG 0.18  C 
BRANCH 39 40
ATOM     40  CB  VAL B   5     -20.697 -33.330  -1.303  1.00 20.49 LIG 0.01  C 
ATOM     41  CG2 VAL B   5     -22.025 -32.593  -1.285  1.00 19.70 LIG 0.01  C 
ATOM     42  CG1 VAL B   5     -20.203 -33.565   0.114  1.00 21.00 LIG 0.01  C 
ENDBRANCH 39 40
BRANCH 39 43
ATOM     43  C   VAL B   5     -18.268 -33.099  -1.805  1.00 20.75 LIG 0.24  C 
ATOM     44  N   HIS B   6     -17.423 -32.309  -1.148  1.00 20.78 LIG-0.35  N 
ATOM     45 H    HIS B   6     -17.607 -31.505  -0.901  1.00 20.78 LIG 0.16  HD
ATOM     46 O    VAL B   5     -17.971 -34.236  -2.168  1.00 21.91 LIG-0.27  OA
BRANCH 44 47
ATOM     47  CA  HIS B   6     -16.083 -32.761  -0.789  1.00 21.28 LIG 0.17  C 
BRANCH 47 48
ATOM     48  C   HIS B   6     -15.471 -31.807   0.231  1.00 23.03 LIG 0.22  C 
ATOM     49 O    HIS B   6     -16.167 -31.464   1.210  1.00 25.39 LIG-0.29  OA
ENDBRANCH 47 48
BRANCH 47 50
ATOM     50  CB  HIS B   6     -15.177 -32.826  -2.022  1.00 19.33 LIG 0.09  C 
BRANCH 50 51
ATOM     51  CG  HIS B   6     -15.119 -31.542  -2.792  1.00 17.39 LIG 0.06  A 
ATOM     52  CD2 HIS B   6     -14.316 -31.146  -3.807  1.00 16.59 LIG 0.14  A 
ATOM     53 NE2  HIS B   6     -14.713 -29.881  -4.171  1.00 16.70 LIG-0.25  NA
ATOM     54  CE1 HIS B   6     -15.723 -29.513  -3.403  1.00 16.06 LIG 0.23  A 
ATOM     55 ND1  HIS B   6     -15.988 -30.497  -2.562  1.00 16.09 LIG-0.24  NA
ENDBRANCH 50 51
ENDBRANCH 47 50
ENDBRANCH 44 47
ENDBRANCH 39 43
ENDBRANCH 36 39
ENDBRANCH 34 35
BRANCH 34 56
ATOM     56  CB  GLU B   4     -20.867 -34.959  -6.192  1.00 22.38 LIG 0.04  C 
BRANCH 56 57
ATOM     57  CG  GLU B   4     -21.152 -35.013  -7.682  1.00 27.64 LIG 0.12  C 
BRANCH 57 58
ATOM     58  CD  GLU B   4     -22.261 -35.991  -8.020  1.00 30.78 LIG 0.17  C 
ATOM     59 OE2  GLU B   4     -22.636 -36.796  -7.141  1.00 32.62 LIG-0.65  OA
ATOM     60 OE1  GLU B   4     -22.756 -35.953  -9.166  1.00 32.75 LIG-0.65  OA
ENDBRANCH 57 58
ENDBRANCH 56 57
ENDBRANCH 34 56
ENDBRANCH 3 34
TORSDOF 22
ENDMDL
MODEL 17
USER: ADFR SOLUTION from run 20
USER: SCORE 16.954518 LL:  -3.591 LR: -14.226 RR:   0.000 FEB:  -7.663
USER: RMSD 8.571866
USER: SEED 19
USER: STATUS searching
USER: GENES 24
USER: genes 0 Translation |==|  0.35357 0.37871 0.48097
USER: genes 1 Rotation |==|  0.45712 0.01078 0.52201 0.59130
USER: genes 2 Torsion [N]-C--CA-[N] |==|  0.84203
USER: genes 3 Torsion [C]-CA--N-[C] |==|  0.65047
USER: genes 4 Torsion [N]-C--CA-[N] |==|  0.36417
USER: genes 5 Torsion [C]-CA--CB-[CG] |==|  0.76431
USER: genes 6 Torsion [CA]-CB--CG-[CD] |==|  0.27496
USER: genes 7 Torsion [CB]-CG--CD-[NE] |==|  0.63369
USER: genes 8 Torsion [CG]-CD--NE-[CZ] |==|  0.56676
USER: genes 9 Torsion [C]-CA--N-[C] |==|  0.83946
USER: genes 10 Torsion [N]-C--CA-[N] |==|  0.35543
USER: genes 11 Torsion [C]-CA--N-[H2] |==|  0.32012
USER: genes 12 Torsion [C]-N--CA-[C] |==|  0.76261
USER: genes 13 Torsion [N]-CA--C-[N] |==|  0.02201
USER: genes 14 Torsion [C]-N--CA-[CB] |==|  0.86111
USER: genes 15 Torsion [N]-CA--CB-[CG2] |==|  0.83383
USER: genes 16 Torsion [N]-CA--C-[N] |==|  0.33963
USER: genes 17 Torsion [C]-N--CA-[C] |==|  0.51987
USER: genes 18 Torsion [N]-CA--C-[O] |==|  0.72467
USER: genes 19 Torsion [N]-CA--CB-[CG] |==|  0.58959
USER: genes 20 Torsion [CA]-CB--CG-[CD2] |==|  0.45121
USER: genes 21 Torsion [N]-CA--CB-[CG] |==|  0.63264
USER: genes 22 Torsion [CA]-CB--CG-[CD] |==|  0.73548
USER: genes 23 Torsion [CB]-CG--CD-[OE2] |==|  0.73032
ROOT
ATOM      1  C   ALA B   3     -17.772 -30.909  -5.460  1.00 17.17 LIG 0.24  C 
ATOM      2 O    ALA B   3     -16.948 -31.693  -4.986  1.00 18.54 LIG-0.27  OA
ATOM      3  N   GLU B   4     -18.807 -31.307  -6.195  1.00 17.89 LIG-0.35  N 
ATOM      4 H    GLU B   4     -19.388 -30.769  -6.531  1.00 17.89 LIG 0.16  HD
ENDROOT
BRANCH 1 5
ATOM      5  CA  ALA B   3     -17.637 -29.406  -5.218  1.00 15.99 LIG 0.17  C 
ATOM      6  CB  ALA B   3     -18.793 -28.910  -4.356  1.00 16.21 LIG 0.04  C 
BRANCH 5 7
ATOM      7  N   ALA B   3     -17.568 -28.627  -6.448  1.00 13.91 LIG-0.35  N 
ATOM      8  C   ARG B   2     -16.569 -27.780  -6.680  1.00 12.46 LIG 0.24  C 
ATOM      9 O    ARG B   2     -15.645 -27.608  -5.886  1.00 11.56 LIG-0.27  OA
ATOM     10 H    ALA B   3     -18.218 -28.765  -6.994  1.00 13.91 LIG 0.16  HD
BRANCH 8 11
ATOM     11  CA  ARG B   2     -16.612 -27.008  -7.994  1.00 12.24 LIG 0.18  C 
BRANCH 11 12
ATOM     12  CB  ARG B   2     -15.584 -27.590  -8.968  1.00 10.58 LIG 0.04  C 
BRANCH 12 13
ATOM     13  CG  ARG B   2     -14.173 -27.042  -8.805  1.00  9.71 LIG 0.02  C 
BRANCH 13 14
ATOM     14  CD  ARG B   2     -13.321 -28.005  -7.995  1.00  9.44 LIG 0.14  C 
BRANCH 14 15
ATOM     15  NE  ARG B   2     -12.584 -27.330  -6.928  1.00  9.23 LIG-0.23  N 
ATOM     16  CZ  ARG B   2     -11.465 -27.789  -6.382  1.00  9.20 LIG 0.67  C 
ATOM     17  NH1 ARG B   2     -10.943 -28.936  -6.800  1.00  7.63 LIG-0.23  N 
ATOM     18  NH2 ARG B   2     -10.864 -27.103  -5.418  1.00  9.31 LIG-0.23  N 
ATOM     19 1HH1 ARG B   2     -11.330 -29.381  -7.425  1.00  7.63 LIG 0.17  HD
ATOM     20 2HH1 ARG B   2     -10.218 -29.232  -6.446  1.00  7.63 LIG 0.17  HD
ATOM     21 2HH2 ARG B   2     -10.139 -27.401  -5.065  1.00  9.31 LIG 0.17  HD
ATOM     22 1HH2 ARG B   2     -11.200 -26.360  -5.146  1.00  9.31 LIG 0.17  HD
ATOM     23 HE   ARG B   2     -12.897 -26.586  -6.634  1.00  9.23 LIG 0.18  HD
ENDBRANCH 14 15
ENDBRANCH 13 14
ENDBRANCH 12 13
ENDBRANCH 11 12
BRANCH 11 24
ATOM     24  N   ARG B   2     -16.401 -25.569  -7.880  1.00 12.50 LIG-0.35  N 
ATOM     25  C   ALA B   1     -17.162 -24.779  -7.132  1.00 14.33 LIG 0.25  C 
ATOM     26 O    ALA B   1     -18.089 -25.192  -6.438  1.00 14.72 LIG-0.27  OA
ATOM     27 H    ARG B   2     -15.737 -25.280  -8.343  1.00 12.50 LIG 0.16  HD
BRANCH 25 28
ATOM     28  CA  ALA B   1     -16.805 -23.297  -7.167  1.00 14.93 LIG 0.27  C 
ATOM     29  CB  ALA B   1     -16.202 -22.868  -5.834  1.00 16.58 LIG 0.05  C 
BRANCH 28 30
ATOM     30  N   ALA B   1     -17.999 -22.464  -7.481  1.00 16.58 LIG-0.07  N 
ATOM     31 H3   ALA B   1     -17.827 -21.952  -8.189  1.00 16.58 LIG 0.28  HD
ATOM     32 H1   ALA B   1     -18.692 -22.993  -7.658  1.00 16.58 LIG 0.28  HD
ATOM     33 H2   ALA B   1     -18.193 -21.947  -6.783  1.00 16.58 LIG 0.28  HD
ENDBRANCH 28 30
ENDBRANCH 25 28
ENDBRANCH 11 24
ENDBRANCH 8 11
ENDBRANCH 5 7
ENDBRANCH 1 5
BRANCH 3 34
ATOM     34  CA  GLU B   4     -19.048 -32.716  -6.498  1.00 20.15 LIG 0.18  C 
BRANCH 34 35
ATOM     35  C   GLU B   4     -18.256 -33.151  -7.729  1.00 19.92 LIG 0.24  C 
ATOM     36  N   VAL B   5     -17.381 -32.274  -8.211  1.00 19.46 LIG-0.35  N 
ATOM     37 H    VAL B   5     -17.244 -31.495  -7.873  1.00 19.46 LIG 0.16  HD
ATOM     38 O    GLU B   4     -18.429 -34.264  -8.226  1.00 20.03 LIG-0.27  OA
BRANCH 36 39
ATOM     39  CA  VAL B   5     -16.566 -32.576  -9.384  1.00 20.09 LIG 0.18  C 
BRANCH 39 40
ATOM     40  CB  VAL B   5     -15.867 -33.950  -9.241  1.00 20.49 LIG 0.01  C 
ATOM     41  CG2 VAL B   5     -14.967 -33.954  -8.018  1.00 19.70 LIG 0.01  C 
ATOM     42  CG1 VAL B   5     -15.061 -34.258 -10.491  1.00 21.00 LIG 0.01  C 
ENDBRANCH 39 40
BRANCH 39 43
ATOM     43  C   VAL B   5     -17.407 -32.597 -10.658  1.00 20.75 LIG 0.24  C 
ATOM     44  N   HIS B   6     -17.041 -31.761 -11.626  1.00 20.78 LIG-0.35  N 
ATOM     45 H    HIS B   6     -16.379 -31.215 -11.566  1.00 20.78 LIG 0.16  HD
ATOM     46 O    VAL B   5     -18.374 -33.351 -10.759  1.00 21.91 LIG-0.27  OA
BRANCH 44 47
ATOM     47  CA  HIS B   6     -17.757 -31.709 -12.895  1.00 21.28 LIG 0.17  C 
BRANCH 47 48
ATOM     48  C   HIS B   6     -17.018 -30.799 -13.869  1.00 23.03 LIG 0.22  C 
ATOM     49 O    HIS B   6     -17.427 -29.627 -14.009  1.00 25.39 LIG-0.29  OA
ENDBRANCH 47 48
BRANCH 47 50
ATOM     50  CB  HIS B   6     -19.182 -31.182 -12.700  1.00 19.33 LIG 0.09  C 
BRANCH 50 51
ATOM     51  CG  HIS B   6     -20.175 -31.769 -13.656  1.00 17.39 LIG 0.06  A 
ATOM     52  CD2 HIS B   6     -21.528 -31.816 -13.621  1.00 16.59 LIG 0.14  A 
ATOM     53 NE2  HIS B   6     -21.943 -32.442 -14.772  1.00 16.70 LIG-0.25  NA
ATOM     54  CE1 HIS B   6     -20.882 -32.770 -15.487  1.00 16.06 LIG 0.23  A 
ATOM     55 ND1  HIS B   6     -19.802 -32.375 -14.836  1.00 16.09 LIG-0.24  NA
ENDBRANCH 50 51
ENDBRANCH 47 50
ENDBRANCH 44 47
ENDBRANCH 39 43
ENDBRANCH 36 39
ENDBRANCH 34 35
BRANCH 34 56
ATOM     56  CB  GLU B   4     -20.539 -32.956  -6.753  1.00 22.38 LIG 0.04  C 
BRANCH 56 57
ATOM     57  CG  GLU B   4     -21.123 -34.145  -6.013  1.00 27.64 LIG 0.12  C 
BRANCH 57 58
ATOM     58  CD  GLU B   4     -21.141 -35.400  -6.864  1.00 30.78 LIG 0.17  C 
ATOM     59 OE2  GLU B   4     -22.196 -35.703  -7.461  1.00 32.62 LIG-0.65  OA
ATOM     60 OE1  GLU B   4     -20.098 -36.084  -6.934  1.00 32.75 LIG-0.65  OA
ENDBRANCH 57 58
ENDBRANCH 56 57
ENDBRANCH 34 56
ENDBRANCH 3 34
TORSDOF 22
ENDMDL
MODEL 18
USER: ADFR SOLUTION from run 57
USER: SCORE 18.801623 LL:  -5.354 LR: -14.209 RR:   0.000 FEB:  -7.647
USER: RMSD 8.418541
USER: SEED 56
USER: STATUS no improvement in best in 3 clusters for 5 generations
USER: GENES 24
USER: genes 0 Translation |==|  0.36485 0.51242 0.43805
USER: genes 1 Rotation |==|  0.98128 0.41549 0.57610 0.57376
USER: genes 2 Torsion [N]-C--CA-[N] |==|  0.08384
USER: genes 3 Torsion [C]-CA--N-[C] |==|  0.16432
USER: genes 4 Torsion [N]-C--CA-[N] |==|  0.41317
USER: genes 5 Torsion [C]-CA--CB-[CG] |==|  0.94256
USER: genes 6 Torsion [CA]-CB--CG-[CD] |==|  0.37453
USER: genes 7 Torsion [CB]-CG--CD-[NE] |==|  0.84003
USER: genes 8 Torsion [CG]-CD--NE-[CZ] |==|  0.70697
USER: genes 9 Torsion [C]-CA--N-[C] |==|  0.81877
USER: genes 10 Torsion [N]-C--CA-[N] |==|  0.45540
USER: genes 11 Torsion [C]-CA--N-[H2] |==|  0.37425
USER: genes 12 Torsion [C]-N--CA-[C] |==|  0.56836
USER: genes 13 Torsion [N]-CA--C-[N] |==|  0.38354
USER: genes 14 Torsion [C]-N--CA-[CB] |==|  0.77158
USER: genes 15 Torsion [N]-CA--CB-[CG2] |==|  0.03201
USER: genes 16 Torsion [N]-CA--C-[N] |==|  0.18931
USER: genes 17 Torsion [C]-N--CA-[C] |==|  0.66986
USER: genes 18 Torsion [N]-CA--C-[O] |==|  0.92719
USER: genes 19 Torsion [N]-CA--CB-[CG] |==|  0.80045
USER: genes 20 Torsion [CA]-CB--CG-[CD2] |==|  0.31148
USER: genes 21 Torsion [N]-CA--CB-[CG] |==|  0.60223
USER: genes 22 Torsion [CA]-CB--CG-[CD] |==|  0.03937
USER: genes 23 Torsion [CB]-CG--CD-[OE2] |==|  0.26769
ROOT
ATOM      1  C   ALA B   3     -17.569 -27.800  -6.393  1.00 17.17 LIG 0.24  C 
ATOM      2 O    ALA B   3     -18.138 -26.730  -6.173  1.00 18.54 LIG-0.27  OA
ATOM      3  N   GLU B   4     -16.578 -27.923  -7.273  1.00 17.89 LIG-0.35  N 
ATOM      4 H    GLU B   4     -16.173 -28.664  -7.436  1.00 17.89 LIG 0.16  HD
ENDROOT
BRANCH 1 5
ATOM      5  CA  ALA B   3     -17.986 -29.066  -5.646  1.00 15.99 LIG 0.17  C 
ATOM      6  CB  ALA B   3     -18.597 -28.699  -4.298  1.00 16.21 LIG 0.04  C 
BRANCH 5 7
ATOM      7  N   ALA B   3     -16.891 -30.009  -5.452  1.00 13.91 LIG-0.35  N 
ATOM      8  C   ARG B   2     -15.790 -29.668  -4.789  1.00 12.46 LIG 0.24  C 
ATOM      9 O    ARG B   2     -15.630 -28.552  -4.294  1.00 11.56 LIG-0.27  OA
ATOM     10 H    ALA B   3     -17.023 -30.785  -5.798  1.00 13.91 LIG 0.16  HD
BRANCH 8 11
ATOM     11  CA  ARG B   2     -14.705 -30.732  -4.663  1.00 12.24 LIG 0.18  C 
BRANCH 11 12
ATOM     12  CB  ARG B   2     -14.967 -31.592  -3.425  1.00 10.58 LIG 0.04  C 
BRANCH 12 13
ATOM     13  CG  ARG B   2     -15.865 -30.945  -2.379  1.00  9.71 LIG 0.02  C 
BRANCH 13 14
ATOM     14  CD  ARG B   2     -16.906 -31.938  -1.888  1.00  9.44 LIG 0.14  C 
BRANCH 14 15
ATOM     15  NE  ARG B   2     -17.729 -32.463  -2.977  1.00  9.23 LIG-0.23  N 
ATOM     16  CZ  ARG B   2     -18.987 -32.107  -3.207  1.00  9.20 LIG 0.67  C 
ATOM     17  NH1 ARG B   2     -19.580 -31.218  -2.420  1.00  7.63 LIG-0.23  N 
ATOM     18  NH2 ARG B   2     -19.653 -32.638  -4.224  1.00  9.31 LIG-0.23  N 
ATOM     19 1HH1 ARG B   2     -19.149 -30.873  -1.761  1.00  7.63 LIG 0.17  HD
ATOM     20 2HH1 ARG B   2     -20.395 -30.988  -2.570  1.00  7.63 LIG 0.17  HD
ATOM     21 2HH2 ARG B   2     -20.468 -32.406  -4.372  1.00  9.31 LIG 0.17  HD
ATOM     22 1HH2 ARG B   2     -19.270 -33.213  -4.736  1.00  9.31 LIG 0.17  HD
ATOM     23 HE   ARG B   2     -17.374 -33.042  -3.504  1.00  9.23 LIG 0.18  HD
ENDBRANCH 14 15
ENDBRANCH 13 14
ENDBRANCH 12 13
ENDBRANCH 11 12
BRANCH 11 24
ATOM     24  N   ARG B   2     -13.337 -30.226  -4.612  1.00 12.50 LIG-0.35  N 
ATOM     25  C   ALA B   1     -12.756 -29.596  -5.626  1.00 14.33 LIG 0.25  C 
ATOM     26 O    ALA B   1     -13.328 -29.349  -6.686  1.00 14.72 LIG-0.27  OA
ATOM     27 H    ARG B   2     -12.943 -30.373  -3.862  1.00 12.50 LIG 0.16  HD
BRANCH 25 28
ATOM     28  CA  ALA B   1     -11.310 -29.170  -5.394  1.00 14.93 LIG 0.27  C 
ATOM     29  CB  ALA B   1     -11.257 -27.979  -4.445  1.00 16.58 LIG 0.05  C 
BRANCH 28 30
ATOM     30  N   ALA B   1     -10.636 -28.833  -6.678  1.00 16.58 LIG-0.07  N 
ATOM     31 H3   ALA B   1     -10.077 -29.489  -6.902  1.00 16.58 LIG 0.28  HD
ATOM     32 H1   ALA B   1     -11.248 -28.735  -7.317  1.00 16.58 LIG 0.28  HD
ATOM     33 H2   ALA B   1     -10.181 -28.075  -6.585  1.00 16.58 LIG 0.28  HD
ENDBRANCH 28 30
ENDBRANCH 25 28
ENDBRANCH 11 24
ENDBRANCH 8 11
ENDBRANCH 5 7
ENDBRANCH 1 5
BRANCH 3 34
ATOM     34  CA  GLU B   4     -16.086 -26.788  -8.051  1.00 20.15 LIG 0.18  C 
BRANCH 34 35
ATOM     35  C   GLU B   4     -15.431 -27.260  -9.348  1.00 19.92 LIG 0.24  C 
ATOM     36  N   VAL B   5     -15.704 -26.554 -10.440  1.00 19.46 LIG-0.35  N 
ATOM     37 H    VAL B   5     -16.217 -25.863 -10.452  1.00 19.46 LIG 0.16  HD
ATOM     38 O    GLU B   4     -14.687 -28.240  -9.354  1.00 20.03 LIG-0.27  OA
BRANCH 36 39
ATOM     39  CA  VAL B   5     -15.137 -26.908 -11.738  1.00 20.09 LIG 0.18  C 
BRANCH 39 40
ATOM     40  CB  VAL B   5     -13.700 -26.353 -11.891  1.00 20.49 LIG 0.01  C 
ATOM     41  CG2 VAL B   5     -13.189 -25.848 -10.553  1.00 19.70 LIG 0.01  C 
ATOM     42  CG1 VAL B   5     -13.679 -25.237 -12.921  1.00 21.00 LIG 0.01  C 
ENDBRANCH 39 40
BRANCH 39 43
ATOM     43  C   VAL B   5     -15.088 -28.422 -11.931  1.00 20.75 LIG 0.24  C 
ATOM     44  N   HIS B   6     -16.258 -29.043 -12.054  1.00 20.78 LIG-0.35  N 
ATOM     45 H    HIS B   6     -17.021 -28.646 -12.018  1.00 20.78 LIG 0.16  HD
ATOM     46 O    VAL B   5     -14.012 -29.016 -11.961  1.00 21.91 LIG-0.27  OA
BRANCH 44 47
ATOM     47  CA  HIS B   6     -16.335 -30.484 -12.263  1.00 21.28 LIG 0.17  C 
BRANCH 47 48
ATOM     48  C   HIS B   6     -17.017 -30.778 -13.594  1.00 23.03 LIG 0.22  C 
ATOM     49 O    HIS B   6     -17.819 -29.933 -14.047  1.00 25.39 LIG-0.29  OA
ENDBRANCH 47 48
BRANCH 47 50
ATOM     50  CB  HIS B   6     -17.120 -31.162 -11.136  1.00 19.33 LIG 0.09  C 
BRANCH 50 51
ATOM     51  CG  HIS B   6     -16.383 -31.204  -9.833  1.00 17.39 LIG 0.06  A 
ATOM     52  CD2 HIS B   6     -16.616 -30.577  -8.655  1.00 16.59 LIG 0.14  A 
ATOM     53 NE2  HIS B   6     -15.650 -30.998  -7.773  1.00 16.70 LIG-0.25  NA
ATOM     54  CE1 HIS B   6     -14.850 -31.851  -8.388  1.00 16.06 LIG 0.23  A 
ATOM     55 ND1  HIS B   6     -15.271 -31.993  -9.633  1.00 16.09 LIG-0.24  NA
ENDBRANCH 50 51
ENDBRANCH 47 50
ENDBRANCH 44 47
ENDBRANCH 39 43
ENDBRANCH 36 39
ENDBRANCH 34 35
BRANCH 34 56
ATOM     56  CB  GLU B   4     -15.064 -25.991  -7.237  1.00 22.38 LIG 0.04  C 
BRANCH 56 57
ATOM     57  CG  GLU B   4     -15.126 -24.488  -7.442  1.00 27.64 LIG 0.12  C 
BRANCH 57 58
ATOM     58  CD  GLU B   4     -16.400 -24.056  -8.143  1.00 30.78 LIG 0.17  C 
ATOM     59 OE2  GLU B   4     -17.359 -23.658  -7.447  1.00 32.62 LIG-0.65  OA
ATOM     60 OE1  GLU B   4     -16.441 -24.115  -9.390  1.00 32.75 LIG-0.65  OA
ENDBRANCH 57 58
ENDBRANCH 56 57
ENDBRANCH 34 56
ENDBRANCH 3 34
TORSDOF 22
ENDMDL
MODEL 19
USER: ADFR SOLUTION from run 83
USER: SCORE 16.929248 LL:  -3.819 LR: -14.208 RR:   0.000 FEB:  -7.645
USER: RMSD 5.817944
USER: SEED 82
USER: STATUS no improvement in best in 7 clusters for 5 generations
USER: GENES 24
USER: genes 0 Translation |==|  0.35277 0.41746 0.49812
USER: genes 1 Rotation |==|  0.58625 0.56211 0.30598 0.94840
USER: genes 2 Torsion [N]-C--CA-[N] |==|  0.45157
USER: genes 3 Torsion [C]-CA--N-[C] |==|  0.54528
USER: genes 4 Torsion [N]-C--CA-[N] |==|  0.32023
USER: genes 5 Torsion [C]-CA--CB-[CG] |==|  0.02248
USER: genes 6 Torsion [CA]-CB--CG-[CD] |==|  0.67865
USER: genes 7 Torsion [CB]-CG--CD-[NE] |==|  0.20077
USER: genes 8 Torsion [CG]-CD--NE-[CZ] |==|  0.34805
USER: genes 9 Torsion [C]-CA--N-[C] |==|  0.78889
USER: genes 10 Torsion [N]-C--CA-[N] |==|  0.16317
USER: genes 11 Torsion [C]-CA--N-[H2] |==|  0.16524
USER: genes 12 Torsion [C]-N--CA-[C] |==|  0.67889
USER: genes 13 Torsion [N]-CA--C-[N] |==|  0.36770
USER: genes 14 Torsion [C]-N--CA-[CB] |==|  0.53445
USER: genes 15 Torsion [N]-CA--CB-[CG2] |==|  0.48087
USER: genes 16 Torsion [N]-CA--C-[N] |==|  0.31642
USER: genes 17 Torsion [C]-N--CA-[C] |==|  0.60527
USER: genes 18 Torsion [N]-CA--C-[O] |==|  0.52966
USER: genes 19 Torsion [N]-CA--CB-[CG] |==|  0.14528
USER: genes 20 Torsion [CA]-CB--CG-[CD2] |==|  0.68348
USER: genes 21 Torsion [N]-CA--CB-[CG] |==|  0.69337
USER: genes 22 Torsion [CA]-CB--CG-[CD] |==|  0.89833
USER: genes 23 Torsion [CB]-CG--CD-[OE2] |==|  0.29387
ROOT
ATOM      1  C   ALA B   3     -17.786 -30.008  -5.087  1.00 17.17 LIG 0.24  C 
ATOM      2 O    ALA B   3     -18.856 -29.692  -5.609  1.00 18.54 LIG-0.27  OA
ATOM      3  N   GLU B   4     -17.616 -31.148  -4.421  1.00 17.89 LIG-0.35  N 
ATOM      4 H    GLU B   4     -16.874 -31.379  -4.053  1.00 17.89 LIG 0.16  HD
ENDROOT
BRANCH 1 5
ATOM      5  CA  ALA B   3     -16.576 -29.080  -5.184  1.00 15.99 LIG 0.17  C 
ATOM      6  CB  ALA B   3     -16.334 -28.395  -3.843  1.00 16.21 LIG 0.04  C 
BRANCH 5 7
ATOM      7  N   ALA B   3     -16.701 -28.077  -6.235  1.00 13.91 LIG-0.35  N 
ATOM      8  C   ARG B   2     -15.645 -27.402  -6.679  1.00 12.46 LIG 0.24  C 
ATOM      9 O    ARG B   2     -14.507 -27.583  -6.246  1.00 11.56 LIG-0.27  OA
ATOM     10 H    ALA B   3     -17.501 -27.968  -6.530  1.00 13.91 LIG 0.16  HD
BRANCH 8 11
ATOM     11  CA  ARG B   2     -15.900 -26.366  -7.770  1.00 12.24 LIG 0.18  C 
BRANCH 11 12
ATOM     12  CB  ARG B   2     -15.073 -26.710  -9.011  1.00 10.58 LIG 0.04  C 
BRANCH 12 13
ATOM     13  CG  ARG B   2     -14.369 -28.059  -8.953  1.00  9.71 LIG 0.02  C 
BRANCH 13 14
ATOM     14  CD  ARG B   2     -12.861 -27.870  -8.966  1.00  9.44 LIG 0.14  C 
BRANCH 14 15
ATOM     15  NE  ARG B   2     -12.358 -27.335  -7.701  1.00  9.23 LIG-0.23  N 
ATOM     16  CZ  ARG B   2     -11.404 -27.902  -6.973  1.00  9.20 LIG 0.67  C 
ATOM     17  NH1 ARG B   2     -10.840 -29.032  -7.380  1.00  7.63 LIG-0.23  N 
ATOM     18  NH2 ARG B   2     -11.011 -27.339  -5.837  1.00  9.31 LIG-0.23  N 
ATOM     19 1HH1 ARG B   2     -11.093 -29.397  -8.116  1.00  7.63 LIG 0.17  HD
ATOM     20 2HH1 ARG B   2     -10.222 -29.399  -6.908  1.00  7.63 LIG 0.17  HD
ATOM     21 2HH2 ARG B   2     -10.393 -27.707  -5.366  1.00  9.31 LIG 0.17  HD
ATOM     22 1HH2 ARG B   2     -11.374 -26.606  -5.572  1.00  9.31 LIG 0.17  HD
ATOM     23 HE   ARG B   2     -12.704 -26.604  -7.410  1.00  9.23 LIG 0.18  HD
ENDBRANCH 14 15
ENDBRANCH 13 14
ENDBRANCH 12 13
ENDBRANCH 11 12
BRANCH 11 24
ATOM     24  N   ARG B   2     -15.637 -24.982  -7.389  1.00 12.50 LIG-0.35  N 
ATOM     25  C   ALA B   1     -16.453 -24.272  -6.619  1.00 14.33 LIG 0.25  C 
ATOM     26 O    ALA B   1     -17.484 -24.725  -6.126  1.00 14.72 LIG-0.27  OA
ATOM     27 H    ARG B   2     -14.904 -24.669  -7.711  1.00 12.50 LIG 0.16  HD
BRANCH 25 28
ATOM     28  CA  ALA B   1     -16.024 -22.831  -6.360  1.00 14.93 LIG 0.27  C 
ATOM     29  CB  ALA B   1     -17.026 -22.140  -5.444  1.00 16.58 LIG 0.05  C 
BRANCH 28 30
ATOM     30  N   ALA B   1     -15.886 -22.073  -7.634  1.00 16.58 LIG-0.07  N 
ATOM     31 H3   ALA B   1     -15.643 -21.235  -7.457  1.00 16.58 LIG 0.28  HD
ATOM     32 H1   ALA B   1     -15.268 -22.460  -8.144  1.00 16.58 LIG 0.28  HD
ATOM     33 H2   ALA B   1     -16.665 -22.071  -8.064  1.00 16.58 LIG 0.28  HD
ENDBRANCH 28 30
ENDBRANCH 25 28
ENDBRANCH 11 24
ENDBRANCH 8 11
ENDBRANCH 5 7
ENDBRANCH 1 5
BRANCH 3 34
ATOM     34  CA  GLU B   4     -18.695 -32.120  -4.258  1.00 20.15 LIG 0.18  C 
BRANCH 34 35
ATOM     35  C   GLU B   4     -19.078 -32.266  -2.787  1.00 19.92 LIG 0.24  C 
ATOM     36  N   VAL B   5     -20.376 -32.221  -2.506  1.00 19.46 LIG-0.35  N 
ATOM     37 H    VAL B   5     -20.993 -32.118  -3.096  1.00 19.46 LIG 0.16  HD
ATOM     38 O    GLU B   4     -18.213 -32.424  -1.926  1.00 20.03 LIG-0.27  OA
BRANCH 36 39
ATOM     39  CA  VAL B   5     -20.864 -32.350  -1.136  1.00 20.09 LIG 0.18  C 
BRANCH 39 40
ATOM     40  CB  VAL B   5     -22.395 -32.575  -1.105  1.00 20.49 LIG 0.01  C 
ATOM     41  CG2 VAL B   5     -22.851 -32.874   0.312  1.00 19.70 LIG 0.01  C 
ATOM     42  CG1 VAL B   5     -22.772 -33.717  -2.034  1.00 21.00 LIG 0.01  C 
ENDBRANCH 39 40
BRANCH 39 43
ATOM     43  C   VAL B   5     -20.194 -33.515  -0.412  1.00 20.75 LIG 0.24  C 
ATOM     44  N   HIS B   6     -19.401 -33.203   0.610  1.00 20.78 LIG-0.35  N 
ATOM     45 H    HIS B   6     -19.242 -32.398   0.868  1.00 20.78 LIG 0.16  HD
ATOM     46 O    VAL B   5     -20.386 -34.674  -0.777  1.00 21.91 LIG-0.27  OA
BRANCH 44 47
ATOM     47  CA  HIS B   6     -18.724 -34.234   1.388  1.00 21.28 LIG 0.17  C 
BRANCH 47 48
ATOM     48  C   HIS B   6     -18.704 -33.841   2.861  1.00 23.03 LIG 0.22  C 
ATOM     49 O    HIS B   6     -17.989 -34.507   3.640  1.00 25.39 LIG-0.29  OA
ENDBRANCH 47 48
BRANCH 47 50
ATOM     50  CB  HIS B   6     -17.286 -34.434   0.902  1.00 19.33 LIG 0.09  C 
BRANCH 50 51
ATOM     51  CG  HIS B   6     -16.494 -33.163   0.832  1.00 17.39 LIG 0.06  A 
ATOM     52  CD2 HIS B   6     -15.975 -32.493  -0.223  1.00 16.59 LIG 0.14  A 
ATOM     53 NE2  HIS B   6     -15.369 -31.363   0.271  1.00 16.70 LIG-0.25  NA
ATOM     54  CE1 HIS B   6     -15.511 -31.341   1.584  1.00 16.06 LIG 0.23  A 
ATOM     55 ND1  HIS B   6     -16.187 -32.417   1.948  1.00 16.09 LIG-0.24  NA
ENDBRANCH 50 51
ENDBRANCH 47 50
ENDBRANCH 44 47
ENDBRANCH 39 43
ENDBRANCH 36 39
ENDBRANCH 34 35
BRANCH 34 56
ATOM     56  CB  GLU B   4     -18.264 -33.485  -4.800  1.00 22.38 LIG 0.04  C 
BRANCH 56 57
ATOM     57  CG  GLU B   4     -18.976 -33.915  -6.070  1.00 27.64 LIG 0.12  C 
BRANCH 57 58
ATOM     58  CD  GLU B   4     -20.431 -33.487  -6.085  1.00 30.78 LIG 0.17  C 
ATOM     59 OE2  GLU B   4     -20.767 -32.534  -6.820  1.00 32.62 LIG-0.65  OA
ATOM     60 OE1  GLU B   4     -21.239 -34.106  -5.360  1.00 32.75 LIG-0.65  OA
ENDBRANCH 57 58
ENDBRANCH 56 57
ENDBRANCH 34 56
ENDBRANCH 3 34
TORSDOF 22
ENDMDL
MODEL 20
USER: ADFR SOLUTION from run 23
USER: SCORE 15.673424 LL:  -3.468 LR: -14.193 RR:   0.000 FEB:  -7.631
USER: RMSD 5.916283
USER: SEED 22
USER: STATUS 1 or 2 clusters left
USER: GENES 24
USER: genes 0 Translation |==|  0.36284 0.49691 0.45488
USER: genes 1 Rotation |==|  0.46203 0.81955 0.20790 0.74723
USER: genes 2 Torsion [N]-C--CA-[N] |==|  0.66699
USER: genes 3 Torsion [C]-CA--N-[C] |==|  0.57575
USER: genes 4 Torsion [N]-C--CA-[N] |==|  0.86069
USER: genes 5 Torsion [C]-CA--CB-[CG] |==|  0.06851
USER: genes 6 Torsion [CA]-CB--CG-[CD] |==|  0.47485
USER: genes 7 Torsion [CB]-CG--CD-[NE] |==|  0.30250
USER: genes 8 Torsion [CG]-CD--NE-[CZ] |==|  0.69843
USER: genes 9 Torsion [C]-CA--N-[C] |==|  0.75775
USER: genes 10 Torsion [N]-C--CA-[N] |==|  0.24340
USER: genes 11 Torsion [C]-CA--N-[H2] |==|  0.46993
USER: genes 12 Torsion [C]-N--CA-[C] |==|  0.68615
USER: genes 13 Torsion [N]-CA--C-[N] |==|  0.45632
USER: genes 14 Torsion [C]-N--CA-[CB] |==|  0.51111
USER: genes 15 Torsion [N]-CA--CB-[CG2] |==|  0.46785
USER: genes 16 Torsion [N]-CA--C-[N] |==|  0.30087
USER: genes 17 Torsion [C]-N--CA-[C] |==|  0.17097
USER: genes 18 Torsion [N]-CA--C-[O] |==|  0.18763
USER: genes 19 Torsion [N]-CA--CB-[CG] |==|  0.79688
USER: genes 20 Torsion [CA]-CB--CG-[CD2] |==|  0.35792
USER: genes 21 Torsion [N]-CA--CB-[CG] |==|  0.01074
USER: genes 22 Torsion [CA]-CB--CG-[CD] |==|  0.50337
USER: genes 23 Torsion [CB]-CG--CD-[OE2] |==|  0.99749
ROOT
ATOM      1  C   ALA B   3     -17.605 -28.161  -6.027  1.00 17.17 LIG 0.24  C 
ATOM      2 O    ALA B   3     -18.077 -27.410  -5.173  1.00 18.54 LIG-0.27  OA
ATOM      3  N   GLU B   4     -17.356 -29.448  -5.800  1.00 17.89 LIG-0.35  N 
ATOM      4 H    GLU B   4     -17.026 -29.982  -6.389  1.00 17.89 LIG 0.16  HD
ENDROOT
BRANCH 1 5
ATOM      5  CA  ALA B   3     -17.275 -27.632  -7.423  1.00 15.99 LIG 0.17  C 
ATOM      6  CB  ALA B   3     -16.787 -28.772  -8.311  1.00 16.21 LIG 0.04  C 
BRANCH 5 7
ATOM      7  N   ALA B   3     -16.291 -26.556  -7.415  1.00 13.91 LIG-0.35  N 
ATOM      8  C   ARG B   2     -16.261 -25.635  -8.374  1.00 12.46 LIG 0.24  C 
ATOM      9 O    ARG B   2     -17.057 -25.625  -9.312  1.00 11.56 LIG-0.27  OA
ATOM     10 H    ALA B   3     -15.748 -26.576  -6.748  1.00 13.91 LIG 0.16  HD
BRANCH 8 11
ATOM     11  CA  ARG B   2     -15.177 -24.568  -8.268  1.00 12.24 LIG 0.18  C 
BRANCH 11 12
ATOM     12  CB  ARG B   2     -13.819 -25.176  -8.625  1.00 10.58 LIG 0.04  C 
BRANCH 12 13
ATOM     13  CG  ARG B   2     -13.887 -26.403  -9.525  1.00  9.71 LIG 0.02  C 
BRANCH 13 14
ATOM     14  CD  ARG B   2     -12.496 -26.792  -9.997  1.00  9.44 LIG 0.14  C 
BRANCH 14 15
ATOM     15  NE  ARG B   2     -12.023 -28.026  -9.373  1.00  9.23 LIG-0.23  N 
ATOM     16  CZ  ARG B   2     -11.065 -28.085  -8.456  1.00  9.20 LIG 0.67  C 
ATOM     17  NH1 ARG B   2     -10.465 -26.973  -8.050  1.00  7.63 LIG-0.23  N 
ATOM     18  NH2 ARG B   2     -10.705 -29.255  -7.943  1.00  9.31 LIG-0.23  N 
ATOM     19 1HH1 ARG B   2     -10.698 -26.214  -8.380  1.00  7.63 LIG 0.17  HD
ATOM     20 2HH1 ARG B   2      -9.845 -27.011  -7.456  1.00  7.63 LIG 0.17  HD
ATOM     21 2HH2 ARG B   2     -10.084 -29.291  -7.350  1.00  9.31 LIG 0.17  HD
ATOM     22 1HH2 ARG B   2     -11.092 -29.976  -8.205  1.00  9.31 LIG 0.17  HD
ATOM     23 HE   ARG B   2     -12.391 -28.764  -9.615  1.00  9.23 LIG 0.18  HD
ENDBRANCH 14 15
ENDBRANCH 13 14
ENDBRANCH 12 13
ENDBRANCH 11 12
BRANCH 11 24
ATOM     24  N   ARG B   2     -15.077 -23.905  -6.972  1.00 12.50 LIG-0.35  N 
ATOM     25  C   ALA B   1     -15.793 -22.836  -6.645  1.00 14.33 LIG 0.25  C 
ATOM     26 O    ALA B   1     -16.631 -22.328  -7.389  1.00 14.72 LIG-0.27  OA
ATOM     27 H    ARG B   2     -14.512 -24.273  -6.439  1.00 12.50 LIG 0.16  HD
BRANCH 25 28
ATOM     28  CA  ALA B   1     -15.525 -22.264  -5.256  1.00 14.93 LIG 0.27  C 
ATOM     29  CB  ALA B   1     -16.785 -21.607  -4.705  1.00 16.58 LIG 0.05  C 
BRANCH 28 30
ATOM     30  N   ALA B   1     -14.405 -21.283  -5.286  1.00 16.58 LIG-0.07  N 
ATOM     31 H3   ALA B   1     -13.637 -21.713  -5.421  1.00 16.58 LIG 0.28  HD
ATOM     32 H1   ALA B   1     -14.539 -20.700  -5.944  1.00 16.58 LIG 0.28  HD
ATOM     33 H2   ALA B   1     -14.369 -20.850  -4.509  1.00 16.58 LIG 0.28  HD
ENDBRANCH 28 30
ENDBRANCH 25 28
ENDBRANCH 11 24
ENDBRANCH 8 11
ENDBRANCH 5 7
ENDBRANCH 1 5
BRANCH 3 34
ATOM     34  CA  GLU B   4     -17.627 -30.075  -4.508  1.00 20.15 LIG 0.18  C 
BRANCH 34 35
ATOM     35  C   GLU B   4     -16.328 -30.489  -3.821  1.00 19.92 LIG 0.24  C 
ATOM     36  N   VAL B   5     -16.406 -30.768  -2.524  1.00 19.46 LIG-0.35  N 
ATOM     37 H    VAL B   5     -17.134 -30.728  -2.066  1.00 19.46 LIG 0.16  HD
ATOM     38 O    GLU B   4     -15.277 -30.562  -4.457  1.00 20.03 LIG-0.27  OA
BRANCH 36 39
ATOM     39  CA  VAL B   5     -15.231 -31.176  -1.759  1.00 20.09 LIG 0.18  C 
BRANCH 39 40
ATOM     40  CB  VAL B   5     -15.609 -31.537  -0.302  1.00 20.49 LIG 0.01  C 
ATOM     41  CG2 VAL B   5     -14.441 -32.222   0.386  1.00 19.70 LIG 0.01  C 
ATOM     42  CG1 VAL B   5     -16.833 -32.436  -0.288  1.00 21.00 LIG 0.01  C 
ENDBRANCH 39 40
BRANCH 39 43
ATOM     43  C   VAL B   5     -14.547 -32.385  -2.390  1.00 20.75 LIG 0.24  C 
ATOM     44  N   HIS B   6     -13.379 -32.163  -2.987  1.00 20.78 LIG-0.35  N 
ATOM     45 H    HIS B   6     -13.006 -31.390  -3.044  1.00 20.78 LIG 0.16  HD
ATOM     46 O    VAL B   5     -15.071 -33.498  -2.343  1.00 21.91 LIG-0.27  OA
BRANCH 44 47
ATOM     47  CA  HIS B   6     -12.625 -33.247  -3.606  1.00 21.28 LIG 0.17  C 
BRANCH 47 48
ATOM     48  C   HIS B   6     -13.441 -33.868  -4.734  1.00 23.03 LIG 0.22  C 
ATOM     49 O    HIS B   6     -13.662 -33.178  -5.752  1.00 25.39 LIG-0.29  OA
ENDBRANCH 47 48
BRANCH 47 50
ATOM     50  CB  HIS B   6     -12.281 -34.332  -2.581  1.00 19.33 LIG 0.09  C 
BRANCH 50 51
ATOM     51  CG  HIS B   6     -11.209 -33.926  -1.615  1.00 17.39 LIG 0.06  A 
ATOM     52  CD2 HIS B   6     -11.166 -33.965  -0.262  1.00 16.59 LIG 0.14  A 
ATOM     53 NE2  HIS B   6      -9.928 -33.504   0.118  1.00 16.70 LIG-0.25  NA
ATOM     54  CE1 HIS B   6      -9.237 -33.192  -0.963  1.00 16.06 LIG 0.23  A 
ATOM     55 ND1  HIS B   6      -9.987 -33.438  -2.023  1.00 16.09 LIG-0.24  NA
ENDBRANCH 50 51
ENDBRANCH 47 50
ENDBRANCH 44 47
ENDBRANCH 39 43
ENDBRANCH 36 39
ENDBRANCH 34 35
BRANCH 34 56
ATOM     56  CB  GLU B   4     -18.510 -31.311  -4.694  1.00 22.38 LIG 0.04  C 
BRANCH 56 57
ATOM     57  CG  GLU B   4     -18.820 -31.655  -6.140  1.00 27.64 LIG 0.12  C 
BRANCH 57 58
ATOM     58  CD  GLU B   4     -19.720 -32.869  -6.262  1.00 30.78 LIG 0.17  C 
ATOM     59 OE2  GLU B   4     -20.087 -33.449  -5.217  1.00 32.62 LIG-0.65  OA
ATOM     60 OE1  GLU B   4     -20.061 -33.243  -7.404  1.00 32.75 LIG-0.65  OA
ENDBRANCH 57 58
ENDBRANCH 56 57
ENDBRANCH 34 56
ENDBRANCH 3 34
TORSDOF 22
ENDMDL
MODEL 21
USER: ADFR SOLUTION from run 61
USER: SCORE 17.937367 LL:  -4.667 LR: -14.142 RR:   0.000 FEB:  -7.580
USER: RMSD 8.313715
USER: SEED 60
USER: STATUS searching
USER: GENES 24
USER: genes 0 Translation |==|  0.51546 0.60162 0.27593
USER: genes 1 Rotation |==|  0.25861 0.44378 0.29825 0.88453
USER: genes 2 Torsion [N]-C--CA-[N] |==|  0.08698
USER: genes 3 Torsion [C]-CA--N-[C] |==|  0.17920
USER: genes 4 Torsion [N]-C--CA-[N] |==|  0.40775
USER: genes 5 Torsion [C]-CA--CB-[CG] |==|  0.88831
USER: genes 6 Torsion [CA]-CB--CG-[CD] |==|  0.81552
USER: genes 7 Torsion [CB]-CG--CD-[NE] |==|  0.86848
USER: genes 8 Torsion [CG]-CD--NE-[CZ] |==|  0.74096
USER: genes 9 Torsion [C]-CA--N-[C] |==|  0.87222
USER: genes 10 Torsion [N]-C--CA-[N] |==|  0.22079
USER: genes 11 Torsion [C]-CA--N-[H2] |==|  0.70561
USER: genes 12 Torsion [C]-N--CA-[C] |==|  0.15520
USER: genes 13 Torsion [N]-CA--C-[N] |==|  0.14734
USER: genes 14 Torsion [C]-N--CA-[CB] |==|  0.85978
USER: genes 15 Torsion [N]-CA--CB-[CG2] |==|  0.78530
USER: genes 16 Torsion [N]-CA--C-[N] |==|  0.36833
USER: genes 17 Torsion [C]-N--CA-[C] |==|  0.56624
USER: genes 18 Torsion [N]-CA--C-[O] |==|  0.02756
USER: genes 19 Torsion [N]-CA--CB-[CG] |==|  0.63273
USER: genes 20 Torsion [CA]-CB--CG-[CD2] |==|  0.40593
USER: genes 21 Torsion [N]-CA--CB-[CG] |==|  0.70876
USER: genes 22 Torsion [CA]-CB--CG-[CD] |==|  0.90683
USER: genes 23 Torsion [CB]-CG--CD-[OE2] |==|  0.22757
ROOT
ATOM      1  C   ALA B   3     -14.858 -25.726  -9.920  1.00 17.17 LIG 0.24  C 
ATOM      2 O    ALA B   3     -15.996 -26.077 -10.232  1.00 18.54 LIG-0.27  OA
ATOM      3  N   GLU B   4     -14.556 -25.238  -8.719  1.00 17.89 LIG-0.35  N 
ATOM      4 H    GLU B   4     -13.765 -24.989  -8.490  1.00 17.89 LIG 0.16  HD
ENDROOT
BRANCH 1 5
ATOM      5  CA  ALA B   3     -13.711 -25.840 -10.924  1.00 15.99 LIG 0.17  C 
ATOM      6  CB  ALA B   3     -14.018 -26.930 -11.946  1.00 16.21 LIG 0.04  C 
BRANCH 5 7
ATOM      7  N   ALA B   3     -12.420 -26.098 -10.299  1.00 13.91 LIG-0.35  N 
ATOM      8  C   ARG B   2     -12.183 -27.227  -9.636  1.00 12.46 LIG 0.24  C 
ATOM      9 O    ARG B   2     -13.022 -28.119  -9.518  1.00 11.56 LIG-0.27  OA
ATOM     10 H    ALA B   3     -11.844 -25.468 -10.397  1.00 13.91 LIG 0.16  HD
BRANCH 8 11
ATOM     11  CA  ARG B   2     -10.800 -27.379  -9.010  1.00 12.24 LIG 0.18  C 
BRANCH 11 12
ATOM     12  CB  ARG B   2      -9.848 -28.032 -10.015  1.00 10.58 LIG 0.04  C 
BRANCH 12 13
ATOM     13  CG  ARG B   2     -10.462 -29.158 -10.834  1.00  9.71 LIG 0.02  C 
BRANCH 13 14
ATOM     14  CD  ARG B   2     -10.803 -30.339  -9.940  1.00  9.44 LIG 0.14  C 
BRANCH 14 15
ATOM     15  NE  ARG B   2      -9.703 -30.691  -9.043  1.00  9.23 LIG-0.23  N 
ATOM     16  CZ  ARG B   2      -8.777 -31.603  -9.312  1.00  9.20 LIG 0.67  C 
ATOM     17  NH1 ARG B   2      -8.812 -32.266 -10.460  1.00  7.63 LIG-0.23  N 
ATOM     18  NH2 ARG B   2      -7.813 -31.851  -8.434  1.00  9.31 LIG-0.23  N 
ATOM     19 1HH1 ARG B   2      -9.435 -32.106 -11.030  1.00  7.63 LIG 0.17  HD
ATOM     20 2HH1 ARG B   2      -8.211 -32.857 -10.634  1.00  7.63 LIG 0.17  HD
ATOM     21 2HH2 ARG B   2      -7.213 -32.442  -8.610  1.00  9.31 LIG 0.17  HD
ATOM     22 1HH2 ARG B   2      -7.788 -31.422  -7.690  1.00  9.31 LIG 0.17  HD
ATOM     23 HE   ARG B   2      -9.653 -30.279  -8.290  1.00  9.23 LIG 0.18  HD
ENDBRANCH 14 15
ENDBRANCH 13 14
ENDBRANCH 12 13
ENDBRANCH 11 12
BRANCH 11 24
ATOM     24  N   ARG B   2     -10.761 -28.129  -7.759  1.00 12.50 LIG-0.35  N 
ATOM     25  C   ALA B   1     -11.616 -27.928  -6.763  1.00 14.33 LIG 0.25  C 
ATOM     26 O    ALA B   1     -12.541 -27.120  -6.818  1.00 14.72 LIG-0.27  OA
ATOM     27 H    ARG B   2     -10.132 -28.714  -7.727  1.00 12.50 LIG 0.16  HD
BRANCH 25 28
ATOM     28  CA  ALA B   1     -11.395 -28.787  -5.522  1.00 14.93 LIG 0.27  C 
ATOM     29  CB  ALA B   1     -12.680 -28.878  -4.708  1.00 16.58 LIG 0.05  C 
BRANCH 28 30
ATOM     30  N   ALA B   1     -10.293 -28.242  -4.682  1.00 16.58 LIG-0.07  N 
ATOM     31 H3   ALA B   1     -10.100 -27.413  -4.944  1.00 16.58 LIG 0.28  HD
ATOM     32 H1   ALA B   1     -10.547 -28.232  -3.829  1.00 16.58 LIG 0.28  HD
ATOM     33 H2   ALA B   1      -9.571 -28.755  -4.769  1.00 16.58 LIG 0.28  HD
ENDBRANCH 28 30
ENDBRANCH 25 28
ENDBRANCH 11 24
ENDBRANCH 8 11
ENDBRANCH 5 7
ENDBRANCH 1 5
BRANCH 3 34
ATOM     34  CA  GLU B   4     -15.562 -25.080  -7.670  1.00 20.15 LIG 0.18  C 
BRANCH 34 35
ATOM     35  C   GLU B   4     -16.265 -26.405  -7.386  1.00 19.92 LIG 0.24  C 
ATOM     36  N   VAL B   5     -15.482 -27.445  -7.116  1.00 19.46 LIG-0.35  N 
ATOM     37 H    VAL B   5     -14.623 -27.408  -7.093  1.00 19.46 LIG 0.16  HD
ATOM     38 O    GLU B   4     -17.493 -26.481  -7.403  1.00 20.03 LIG-0.27  OA
BRANCH 36 39
ATOM     39  CA  VAL B   5     -16.039 -28.764  -6.828  1.00 20.09 LIG 0.18  C 
BRANCH 39 40
ATOM     40  CB  VAL B   5     -17.139 -28.682  -5.742  1.00 20.49 LIG 0.01  C 
ATOM     41  CG2 VAL B   5     -16.508 -28.534  -4.369  1.00 19.70 LIG 0.01  C 
ATOM     42  CG1 VAL B   5     -18.013 -29.924  -5.792  1.00 21.00 LIG 0.01  C 
ENDBRANCH 39 40
BRANCH 39 43
ATOM     43  C   VAL B   5     -16.645 -29.398  -8.077  1.00 20.75 LIG 0.24  C 
ATOM     44  N   HIS B   6     -16.312 -30.663  -8.322  1.00 20.78 LIG-0.35  N 
ATOM     45 H    HIS B   6     -15.777 -31.125  -7.832  1.00 20.78 LIG 0.16  HD
ATOM     46 O    VAL B   5     -17.393 -28.752  -8.809  1.00 21.91 LIG-0.27  OA
BRANCH 44 47
ATOM     47  CA  HIS B   6     -16.847 -31.378  -9.475  1.00 21.28 LIG 0.17  C 
BRANCH 47 48
ATOM     48  C   HIS B   6     -16.808 -32.880  -9.216  1.00 23.03 LIG 0.22  C 
ATOM     49 O    HIS B   6     -16.535 -33.273  -8.062  1.00 25.39 LIG-0.29  OA
ENDBRANCH 47 48
BRANCH 47 50
ATOM     50  CB  HIS B   6     -16.038 -31.067 -10.738  1.00 19.33 LIG 0.09  C 
BRANCH 50 51
ATOM     51  CG  HIS B   6     -16.887 -30.718 -11.923  1.00 17.39 LIG 0.06  A 
ATOM     52  CD2 HIS B   6     -16.676 -29.861 -12.950  1.00 16.59 LIG 0.14  A 
ATOM     53 NE2  HIS B   6     -17.764 -29.951 -13.785  1.00 16.70 LIG-0.25  NA
ATOM     54  CE1 HIS B   6     -18.613 -30.832 -13.287  1.00 16.06 LIG 0.23  A 
ATOM     55 ND1  HIS B   6     -18.108 -31.310 -12.163  1.00 16.09 LIG-0.24  NA
ENDBRANCH 50 51
ENDBRANCH 47 50
ENDBRANCH 44 47
ENDBRANCH 39 43
ENDBRANCH 36 39
ENDBRANCH 34 35
BRANCH 34 56
ATOM     56  CB  GLU B   4     -16.605 -24.041  -8.090  1.00 22.38 LIG 0.04  C 
BRANCH 56 57
ATOM     57  CG  GLU B   4     -16.472 -22.696  -7.397  1.00 27.64 LIG 0.12  C 
BRANCH 57 58
ATOM     58  CD  GLU B   4     -15.969 -22.831  -5.973  1.00 30.78 LIG 0.17  C 
ATOM     59 OE2  GLU B   4     -14.740 -22.956  -5.783  1.00 32.62 LIG-0.65  OA
ATOM     60 OE1  GLU B   4     -16.803 -22.812  -5.044  1.00 32.75 LIG-0.65  OA
ENDBRANCH 57 58
ENDBRANCH 56 57
ENDBRANCH 34 56
ENDBRANCH 3 34
TORSDOF 22
ENDMDL
MODEL 22
USER: ADFR SOLUTION from run 178
USER: SCORE 17.928737 LL:  -4.345 LR: -14.136 RR:   0.000 FEB:  -7.573
USER: RMSD 9.122713
USER: SEED 177
USER: STATUS no improvement in best in 9 clusters for 5 generations
USER: GENES 24
USER: genes 0 Translation |==|  0.36536 0.50870 0.43452
USER: genes 1 Rotation |==|  0.96019 0.53285 0.53876 0.68880
USER: genes 2 Torsion [N]-C--CA-[N] |==|  0.06433
USER: genes 3 Torsion [C]-CA--N-[C] |==|  0.73509
USER: genes 4 Torsion [N]-C--CA-[N] |==|  0.90868
USER: genes 5 Torsion [C]-CA--CB-[CG] |==|  0.14052
USER: genes 6 Torsion [CA]-CB--CG-[CD] |==|  0.64923
USER: genes 7 Torsion [CB]-CG--CD-[NE] |==|  0.26073
USER: genes 8 Torsion [CG]-CD--NE-[CZ] |==|  0.16379
USER: genes 9 Torsion [C]-CA--N-[C] |==|  0.82200
USER: genes 10 Torsion [N]-C--CA-[N] |==|  0.14396
USER: genes 11 Torsion [C]-CA--N-[H2] |==|  0.56387
USER: genes 12 Torsion [C]-N--CA-[C] |==|  0.59368
USER: genes 13 Torsion [N]-CA--C-[N] |==|  0.48136
USER: genes 14 Torsion [C]-N--CA-[CB] |==|  0.84444
USER: genes 15 Torsion [N]-CA--CB-[CG2] |==|  0.86987
USER: genes 16 Torsion [N]-CA--C-[N] |==|  0.40243
USER: genes 17 Torsion [C]-N--CA-[C] |==|  0.67915
USER: genes 18 Torsion [N]-CA--C-[O] |==|  0.27168
USER: genes 19 Torsion [N]-CA--CB-[CG] |==|  0.65396
USER: genes 20 Torsion [CA]-CB--CG-[CD2] |==|  0.25827
USER: genes 21 Torsion [N]-CA--CB-[CG] |==|  0.74498
USER: genes 22 Torsion [CA]-CB--CG-[CD] |==|  0.27863
USER: genes 23 Torsion [CB]-CG--CD-[OE2] |==|  0.18436
ROOT
ATOM      1  C   ALA B   3     -17.559 -27.887  -6.470  1.00 17.17 LIG 0.24  C 
ATOM      2 O    ALA B   3     -18.457 -27.046  -6.542  1.00 18.54 LIG-0.27  OA
ATOM      3  N   GLU B   4     -16.772 -28.192  -7.499  1.00 17.89 LIG-0.35  N 
ATOM      4 H    GLU B   4     -16.142 -28.776  -7.461  1.00 17.89 LIG 0.16  HD
ENDROOT
BRANCH 1 5
ATOM      5  CA  ALA B   3     -17.304 -28.636  -5.163  1.00 15.99 LIG 0.17  C 
ATOM      6  CB  ALA B   3     -17.601 -27.727  -3.974  1.00 16.21 LIG 0.04  C 
BRANCH 5 7
ATOM      7  N   ALA B   3     -15.950 -29.164  -5.055  1.00 13.91 LIG-0.35  N 
ATOM      8  C   ARG B   2     -15.664 -30.417  -5.394  1.00 12.46 LIG 0.24  C 
ATOM      9 O    ARG B   2     -16.510 -31.200  -5.824  1.00 11.56 LIG-0.27  OA
ATOM     10 H    ALA B   3     -15.370 -28.601  -4.760  1.00 13.91 LIG 0.16  HD
BRANCH 8 11
ATOM     11  CA  ARG B   2     -14.215 -30.863  -5.224  1.00 12.24 LIG 0.18  C 
BRANCH 11 12
ATOM     12  CB  ARG B   2     -14.020 -31.460  -3.828  1.00 10.58 LIG 0.04  C 
BRANCH 12 13
ATOM     13  CG  ARG B   2     -15.038 -32.526  -3.444  1.00  9.71 LIG 0.02  C 
BRANCH 13 14
ATOM     14  CD  ARG B   2     -15.697 -32.176  -2.120  1.00  9.44 LIG 0.14  C 
BRANCH 14 15
ATOM     15  NE  ARG B   2     -16.949 -31.444  -2.300  1.00  9.23 LIG-0.23  N 
ATOM     16  CZ  ARG B   2     -17.997 -31.902  -2.973  1.00  9.20 LIG 0.67  C 
ATOM     17  NH1 ARG B   2     -17.950 -33.101  -3.540  1.00  7.63 LIG-0.23  N 
ATOM     18  NH2 ARG B   2     -19.095 -31.163  -3.080  1.00  9.31 LIG-0.23  N 
ATOM     19 1HH1 ARG B   2     -17.241 -33.582  -3.470  1.00  7.63 LIG 0.17  HD
ATOM     20 2HH1 ARG B   2     -18.630 -33.398  -3.975  1.00  7.63 LIG 0.17  HD
ATOM     21 2HH2 ARG B   2     -19.773 -31.462  -3.517  1.00  9.31 LIG 0.17  HD
ATOM     22 1HH2 ARG B   2     -19.127 -30.387  -2.713  1.00  9.31 LIG 0.17  HD
ATOM     23 HE   ARG B   2     -17.011 -30.663  -1.946  1.00  9.23 LIG 0.18  HD
ENDBRANCH 14 15
ENDBRANCH 13 14
ENDBRANCH 12 13
ENDBRANCH 11 12
BRANCH 11 24
ATOM     24  N   ARG B   2     -13.213 -29.825  -5.443  1.00 12.50 LIG-0.35  N 
ATOM     25  C   ALA B   1     -13.027 -29.230  -6.615  1.00 14.33 LIG 0.25  C 
ATOM     26 O    ALA B   1     -13.705 -29.471  -7.612  1.00 14.72 LIG-0.27  OA
ATOM     27 H    ARG B   2     -12.755 -29.634  -4.741  1.00 12.50 LIG 0.16  HD
BRANCH 25 28
ATOM     28  CA  ALA B   1     -11.909 -28.193  -6.656  1.00 14.93 LIG 0.27  C 
ATOM     29  CB  ALA B   1     -11.706 -27.692  -8.081  1.00 16.58 LIG 0.05  C 
BRANCH 28 30
ATOM     30  N   ALA B   1     -10.636 -28.753  -6.123  1.00 16.58 LIG-0.07  N 
ATOM     31 H3   ALA B   1     -10.813 -29.297  -5.441  1.00 16.58 LIG 0.28  HD
ATOM     32 H1   ALA B   1     -10.221 -29.209  -6.765  1.00 16.58 LIG 0.28  HD
ATOM     33 H2   ALA B   1     -10.113 -28.090  -5.845  1.00 16.58 LIG 0.28  HD
ENDBRANCH 28 30
ENDBRANCH 25 28
ENDBRANCH 11 24
ENDBRANCH 8 11
ENDBRANCH 5 7
ENDBRANCH 1 5
BRANCH 3 34
ATOM     34  CA  GLU B   4     -16.913 -27.546  -8.802  1.00 20.15 LIG 0.18  C 
BRANCH 34 35
ATOM     35  C   GLU B   4     -16.575 -28.518  -9.930  1.00 19.92 LIG 0.24  C 
ATOM     36  N   VAL B   5     -16.799 -28.090 -11.169  1.00 19.46 LIG-0.35  N 
ATOM     37 H    VAL B   5     -17.116 -27.314 -11.360  1.00 19.46 LIG 0.16  HD
ATOM     38 O    GLU B   4     -16.112 -29.631  -9.682  1.00 20.03 LIG-0.27  OA
BRANCH 36 39
ATOM     39  CA  VAL B   5     -16.515 -28.930 -12.329  1.00 20.09 LIG 0.18  C 
BRANCH 39 40
ATOM     40  CB  VAL B   5     -15.040 -29.399 -12.333  1.00 20.49 LIG 0.01  C 
ATOM     41  CG2 VAL B   5     -14.118 -28.226 -12.050  1.00 19.70 LIG 0.01  C 
ATOM     42  CG1 VAL B   5     -14.697 -30.030 -13.671  1.00 21.00 LIG 0.01  C 
ENDBRANCH 39 40
BRANCH 39 43
ATOM     43  C   VAL B   5     -17.410 -30.166 -12.355  1.00 20.75 LIG 0.24  C 
ATOM     44  N   HIS B   6     -17.797 -30.595 -13.554  1.00 20.78 LIG-0.35  N 
ATOM     45 H    HIS B   6     -17.583 -30.212 -14.294  1.00 20.78 LIG 0.16  HD
ATOM     46 O    VAL B   5     -17.750 -30.717 -11.308  1.00 21.91 LIG-0.27  OA
BRANCH 44 47
ATOM     47  CA  HIS B   6     -18.636 -31.778 -13.702  1.00 21.28 LIG 0.17  C 
BRANCH 47 48
ATOM     48  C   HIS B   6     -17.869 -32.866 -14.445  1.00 23.03 LIG 0.22  C 
ATOM     49 O    HIS B   6     -17.316 -33.763 -13.774  1.00 25.39 LIG-0.29  OA
ENDBRANCH 47 48
BRANCH 47 50
ATOM     50  CB  HIS B   6     -19.917 -31.450 -14.476  1.00 19.33 LIG 0.09  C 
BRANCH 50 51
ATOM     51  CG  HIS B   6     -21.171 -31.814 -13.742  1.00 17.39 LIG 0.06  A 
ATOM     52  CD2 HIS B   6     -21.967 -31.089 -12.921  1.00 16.59 LIG 0.14  A 
ATOM     53 NE2  HIS B   6     -23.011 -31.900 -12.546  1.00 16.70 LIG-0.25  NA
ATOM     54  CE1 HIS B   6     -22.860 -33.083 -13.115  1.00 16.06 LIG 0.23  A 
ATOM     55 ND1  HIS B   6     -21.757 -33.057 -13.843  1.00 16.09 LIG-0.24  NA
ENDBRANCH 50 51
ENDBRANCH 47 50
ENDBRANCH 44 47
ENDBRANCH 39 43
ENDBRANCH 36 39
ENDBRANCH 34 35
BRANCH 34 56
ATOM     56  CB  GLU B   4     -15.986 -26.331  -8.895  1.00 22.38 LIG 0.04  C 
BRANCH 56 57
ATOM     57  CG  GLU B   4     -16.620 -25.019  -8.468  1.00 27.64 LIG 0.12  C 
BRANCH 57 58
ATOM     58  CD  GLU B   4     -16.226 -24.623  -7.058  1.00 30.78 LIG 0.17  C 
ATOM     59 OE2  GLU B   4     -15.033 -24.330  -6.831  1.00 32.62 LIG-0.65  OA
ATOM     60 OE1  GLU B   4     -17.111 -24.606  -6.177  1.00 32.75 LIG-0.65  OA
ENDBRANCH 57 58
ENDBRANCH 56 57
ENDBRANCH 34 56
ENDBRANCH 3 34
TORSDOF 22
ENDMDL
MODEL 23
USER: ADFR SOLUTION from run 20
USER: SCORE 17.605014 LL:  -4.395 LR: -14.136 RR:   0.000 FEB:  -7.573
USER: RMSD 5.540358
USER: SEED 19
USER: STATUS searching
USER: GENES 24
USER: genes 0 Translation |==|  0.34557 0.38989 0.48366
USER: genes 1 Rotation |==|  0.43531 0.03344 0.52391 0.66603
USER: genes 2 Torsion [N]-C--CA-[N] |==|  0.80746
USER: genes 3 Torsion [C]-CA--N-[C] |==|  0.63889
USER: genes 4 Torsion [N]-C--CA-[N] |==|  0.35570
USER: genes 5 Torsion [C]-CA--CB-[CG] |==|  0.75797
USER: genes 6 Torsion [CA]-CB--CG-[CD] |==|  0.28250
USER: genes 7 Torsion [CB]-CG--CD-[NE] |==|  0.65533
USER: genes 8 Torsion [CG]-CD--NE-[CZ] |==|  0.54854
USER: genes 9 Torsion [C]-CA--N-[C] |==|  0.86310
USER: genes 10 Torsion [N]-C--CA-[N] |==|  0.29035
USER: genes 11 Torsion [C]-CA--N-[H2] |==|  0.49001
USER: genes 12 Torsion [C]-N--CA-[C] |==|  0.17011
USER: genes 13 Torsion [N]-CA--C-[N] |==|  0.10208
USER: genes 14 Torsion [C]-N--CA-[CB] |==|  0.86094
USER: genes 15 Torsion [N]-CA--CB-[CG2] |==|  0.84413
USER: genes 16 Torsion [N]-CA--C-[N] |==|  0.35201
USER: genes 17 Torsion [C]-N--CA-[C] |==|  0.63892
USER: genes 18 Torsion [N]-CA--C-[O] |==|  0.95623
USER: genes 19 Torsion [N]-CA--CB-[CG] |==|  0.80891
USER: genes 20 Torsion [CA]-CB--CG-[CD2] |==|  0.84039
USER: genes 21 Torsion [N]-CA--CB-[CG] |==|  0.61080
USER: genes 22 Torsion [CA]-CB--CG-[CD] |==|  0.95980
USER: genes 23 Torsion [CB]-CG--CD-[OE2] |==|  0.73013
ROOT
ATOM      1  C   ALA B   3     -17.916 -30.649  -5.401  1.00 17.17 LIG 0.24  C 
ATOM      2 O    ALA B   3     -17.073 -31.521  -5.184  1.00 18.54 LIG-0.27  OA
ATOM      3  N   GLU B   4     -19.160 -30.926  -5.783  1.00 17.89 LIG-0.35  N 
ATOM      4 H    GLU B   4     -19.757 -30.327  -5.937  1.00 17.89 LIG 0.16  HD
ENDROOT
BRANCH 1 5
ATOM      5  CA  ALA B   3     -17.559 -29.172  -5.238  1.00 15.99 LIG 0.17  C 
ATOM      6  CB  ALA B   3     -18.551 -28.497  -4.296  1.00 16.21 LIG 0.04  C 
BRANCH 5 7
ATOM      7  N   ALA B   3     -17.507 -28.448  -6.502  1.00 13.91 LIG-0.35  N 
ATOM      8  C   ARG B   2     -16.466 -27.687  -6.824  1.00 12.46 LIG 0.24  C 
ATOM      9 O    ARG B   2     -15.486 -27.553  -6.091  1.00 11.56 LIG-0.27  OA
ATOM     10 H    ALA B   3     -18.197 -28.558  -7.005  1.00 13.91 LIG 0.16  HD
BRANCH 8 11
ATOM     11  CA  ARG B   2     -16.530 -26.964  -8.166  1.00 12.24 LIG 0.18  C 
BRANCH 11 12
ATOM     12  CB  ARG B   2     -15.549 -27.610  -9.147  1.00 10.58 LIG 0.04  C 
BRANCH 12 13
ATOM     13  CG  ARG B   2     -14.132 -27.056  -9.087  1.00  9.71 LIG 0.02  C 
BRANCH 13 14
ATOM     14  CD  ARG B   2     -13.227 -28.001  -8.314  1.00  9.44 LIG 0.14  C 
BRANCH 14 15
ATOM     15  NE  ARG B   2     -12.562 -27.339  -7.193  1.00  9.23 LIG-0.23  N 
ATOM     16  CZ  ARG B   2     -11.491 -27.814  -6.568  1.00  9.20 LIG 0.67  C 
ATOM     17  NH1 ARG B   2     -10.954 -28.965  -6.952  1.00  7.63 LIG-0.23  N 
ATOM     18  NH2 ARG B   2     -10.955 -27.138  -5.560  1.00  9.31 LIG-0.23  N 
ATOM     19 1HH1 ARG B   2     -11.300 -29.404  -7.605  1.00  7.63 LIG 0.17  HD
ATOM     20 2HH1 ARG B   2     -10.261 -29.272  -6.546  1.00  7.63 LIG 0.17  HD
ATOM     21 2HH2 ARG B   2     -10.261 -27.446  -5.156  1.00  9.31 LIG 0.17  HD
ATOM     22 1HH2 ARG B   2     -11.300 -26.391  -5.311  1.00  9.31 LIG 0.17  HD
ATOM     23 HE   ARG B   2     -12.886 -26.591  -6.920  1.00  9.23 LIG 0.18  HD
ENDBRANCH 14 15
ENDBRANCH 13 14
ENDBRANCH 12 13
ENDBRANCH 11 12
BRANCH 11 24
ATOM     24  N   ARG B   2     -16.278 -25.528  -8.114  1.00 12.50 LIG-0.35  N 
ATOM     25  C   ALA B   1     -16.881 -24.714  -7.256  1.00 14.33 LIG 0.25  C 
ATOM     26 O    ALA B   1     -17.678 -25.100  -6.403  1.00 14.72 LIG-0.27  OA
ATOM     27 H    ARG B   2     -15.702 -25.258  -8.692  1.00 12.50 LIG 0.16  HD
BRANCH 25 28
ATOM     28  CA  ALA B   1     -16.512 -23.239  -7.378  1.00 14.93 LIG 0.27  C 
ATOM     29  CB  ALA B   1     -16.208 -22.657  -6.002  1.00 16.58 LIG 0.05  C 
BRANCH 28 30
ATOM     30  N   ALA B   1     -17.601 -22.464  -8.033  1.00 16.58 LIG-0.07  N 
ATOM     31 H3   ALA B   1     -17.711 -22.754  -8.868  1.00 16.58 LIG 0.28  HD
ATOM     32 H1   ALA B   1     -18.358 -22.574  -7.579  1.00 16.58 LIG 0.28  HD
ATOM     33 H2   ALA B   1     -17.386 -21.601  -8.046  1.00 16.58 LIG 0.28  HD
ENDBRANCH 28 30
ENDBRANCH 25 28
ENDBRANCH 11 24
ENDBRANCH 8 11
ENDBRANCH 5 7
ENDBRANCH 1 5
BRANCH 3 34
ATOM     34  CA  GLU B   4     -19.626 -32.299  -5.974  1.00 20.15 LIG 0.18  C 
BRANCH 34 35
ATOM     35  C   GLU B   4     -19.535 -33.091  -4.672  1.00 19.92 LIG 0.24  C 
ATOM     36  N   VAL B   5     -19.815 -32.428  -3.554  1.00 19.46 LIG-0.35  N 
ATOM     37 H    VAL B   5     -20.039 -31.597  -3.530  1.00 19.46 LIG 0.16  HD
ATOM     38 O    GLU B   4     -19.225 -34.282  -4.682  1.00 20.03 LIG-0.27  OA
BRANCH 36 39
ATOM     39  CA  VAL B   5     -19.763 -33.079  -2.248  1.00 20.09 LIG 0.18  C 
BRANCH 39 40
ATOM     40  CB  VAL B   5     -20.558 -34.406  -2.252  1.00 20.49 LIG 0.01  C 
ATOM     41  CG2 VAL B   5     -21.991 -34.156  -2.687  1.00 19.70 LIG 0.01  C 
ATOM     42  CG1 VAL B   5     -20.527 -35.036  -0.870  1.00 21.00 LIG 0.01  C 
ENDBRANCH 39 40
BRANCH 39 43
ATOM     43  C   VAL B   5     -18.325 -33.383  -1.834  1.00 20.75 LIG 0.24  C 
ATOM     44  N   HIS B   6     -17.942 -32.933  -0.642  1.00 20.78 LIG-0.35  N 
ATOM     45 H    HIS B   6     -18.447 -32.481  -0.112  1.00 20.78 LIG 0.16  HD
ATOM     46 O    VAL B   5     -17.575 -34.006  -2.584  1.00 21.91 LIG-0.27  OA
BRANCH 44 47
ATOM     47  CA  HIS B   6     -16.598 -33.182  -0.132  1.00 21.28 LIG 0.17  C 
BRANCH 47 48
ATOM     48  C   HIS B   6     -16.677 -33.742   1.283  1.00 23.03 LIG 0.22  C 
ATOM     49 O    HIS B   6     -17.756 -33.630   1.904  1.00 25.39 LIG-0.29  OA
ENDBRANCH 47 48
BRANCH 47 50
ATOM     50  CB  HIS B   6     -15.770 -31.893  -0.116  1.00 19.33 LIG 0.09  C 
BRANCH 50 51
ATOM     51  CG  HIS B   6     -15.428 -31.383  -1.483  1.00 17.39 LIG 0.06  A 
ATOM     52  CD2 HIS B   6     -14.770 -31.965  -2.513  1.00 16.59 LIG 0.14  A 
ATOM     53 NE2  HIS B   6     -14.763 -31.065  -3.552  1.00 16.70 LIG-0.25  NA
ATOM     54  CE1 HIS B   6     -15.393 -29.968  -3.171  1.00 16.06 LIG 0.23  A 
ATOM     55 ND1  HIS B   6     -15.804 -30.134  -1.926  1.00 16.09 LIG-0.24  NA
ENDBRANCH 50 51
ENDBRANCH 47 50
ENDBRANCH 44 47
ENDBRANCH 39 43
ENDBRANCH 36 39
ENDBRANCH 34 35
BRANCH 34 56
ATOM     56  CB  GLU B   4     -18.784 -32.999  -7.044  1.00 22.38 LIG 0.04  C 
BRANCH 56 57
ATOM     57  CG  GLU B   4     -19.574 -33.891  -7.985  1.00 27.64 LIG 0.12  C 
BRANCH 57 58
ATOM     58  CD  GLU B   4     -20.968 -34.183  -7.465  1.00 30.78 LIG 0.17  C 
ATOM     59 OE2  GLU B   4     -21.166 -35.254  -6.853  1.00 32.62 LIG-0.65  OA
ATOM     60 OE1  GLU B   4     -21.867 -33.339  -7.671  1.00 32.75 LIG-0.65  OA
ENDBRANCH 57 58
ENDBRANCH 56 57
ENDBRANCH 34 56
ENDBRANCH 3 34
TORSDOF 22
ENDMDL
MODEL 24
USER: ADFR SOLUTION from run 198
USER: SCORE 17.507244 LL:  -4.331 LR: -14.143 RR:   0.000 FEB:  -7.581
USER: RMSD 5.625186
USER: SEED 197
USER: STATUS searching
USER: GENES 24
USER: genes 0 Translation |==|  0.36277 0.49446 0.44905
USER: genes 1 Rotation |==|  0.61611 0.82873 0.30185 0.79865
USER: genes 2 Torsion [N]-C--CA-[N] |==|  0.90080
USER: genes 3 Torsion [C]-CA--N-[C] |==|  0.85799
USER: genes 4 Torsion [N]-C--CA-[N] |==|  0.09157
USER: genes 5 Torsion [C]-CA--CB-[CG] |==|  0.32264
USER: genes 6 Torsion [CA]-CB--CG-[CD] |==|  0.08404
USER: genes 7 Torsion [CB]-CG--CD-[NE] |==|  0.29641
USER: genes 8 Torsion [CG]-CD--NE-[CZ] |==|  0.26073
USER: genes 9 Torsion [C]-CA--N-[C] |==|  0.66645
USER: genes 10 Torsion [N]-C--CA-[N] |==|  0.92372
USER: genes 11 Torsion [C]-CA--N-[H2] |==|  0.32758
USER: genes 12 Torsion [C]-N--CA-[C] |==|  0.82175
USER: genes 13 Torsion [N]-CA--C-[N] |==|  0.43250
USER: genes 14 Torsion [C]-N--CA-[CB] |==|  0.54462
USER: genes 15 Torsion [N]-CA--CB-[CG2] |==|  0.80149
USER: genes 16 Torsion [N]-CA--C-[N] |==|  0.29209
USER: genes 17 Torsion [C]-N--CA-[C] |==|  0.17047
USER: genes 18 Torsion [N]-CA--C-[O] |==|  0.14408
USER: genes 19 Torsion [N]-CA--CB-[CG] |==|  0.77935
USER: genes 20 Torsion [CA]-CB--CG-[CD2] |==|  0.96785
USER: genes 21 Torsion [N]-CA--CB-[CG] |==|  0.47171
USER: genes 22 Torsion [CA]-CB--CG-[CD] |==|  0.20456
USER: genes 23 Torsion [CB]-CG--CD-[OE2] |==|  0.28306
ROOT
ATOM      1  C   ALA B   3     -17.606 -28.218  -6.154  1.00 17.17 LIG 0.24  C 
ATOM      2 O    ALA B   3     -18.440 -27.941  -5.290  1.00 18.54 LIG-0.27  OA
ATOM      3  N   GLU B   4     -17.425 -29.453  -6.614  1.00 17.89 LIG-0.35  N 
ATOM      4 H    GLU B   4     -16.846 -29.658  -7.216  1.00 17.89 LIG 0.16  HD
ENDROOT
BRANCH 1 5
ATOM      5  CA  ALA B   3     -16.721 -27.125  -6.751  1.00 15.99 LIG 0.17  C 
ATOM      6  CB  ALA B   3     -17.370 -26.556  -8.009  1.00 16.21 LIG 0.04  C 
BRANCH 5 7
ATOM      7  N   ALA B   3     -15.369 -27.579  -7.055  1.00 13.91 LIG-0.35  N 
ATOM      8  C   ARG B   2     -14.630 -28.214  -6.150  1.00 12.46 LIG 0.24  C 
ATOM      9 O    ARG B   2     -15.035 -28.464  -5.016  1.00 11.56 LIG-0.27  OA
ATOM     10 H    ALA B   3     -15.105 -27.402  -7.854  1.00 13.91 LIG 0.16  HD
BRANCH 8 11
ATOM     11  CA  ARG B   2     -13.225 -28.627  -6.577  1.00 12.24 LIG 0.18  C 
BRANCH 11 12
ATOM     12  CB  ARG B   2     -12.338 -28.791  -5.341  1.00 10.58 LIG 0.04  C 
BRANCH 12 13
ATOM     13  CG  ARG B   2     -11.827 -30.206  -5.107  1.00  9.71 LIG 0.02  C 
BRANCH 13 14
ATOM     14  CD  ARG B   2     -11.665 -30.936  -6.430  1.00  9.44 LIG 0.14  C 
BRANCH 14 15
ATOM     15  NE  ARG B   2     -10.261 -31.093  -6.808  1.00  9.23 LIG-0.23  N 
ATOM     16  CZ  ARG B   2      -9.524 -32.161  -6.533  1.00  9.20 LIG 0.67  C 
ATOM     17  NH1 ARG B   2     -10.054 -33.182  -5.870  1.00  7.63 LIG-0.23  N 
ATOM     18  NH2 ARG B   2      -8.256 -32.213  -6.921  1.00  9.31 LIG-0.23  N 
ATOM     19 1HH1 ARG B   2     -10.875 -33.150  -5.619  1.00  7.63 LIG 0.17  HD
ATOM     20 2HH1 ARG B   2      -9.576 -33.874  -5.692  1.00  7.63 LIG 0.17  HD
ATOM     21 2HH2 ARG B   2      -7.779 -32.907  -6.742  1.00  9.31 LIG 0.17  HD
ATOM     22 1HH2 ARG B   2      -7.911 -31.554  -7.351  1.00  9.31 LIG 0.17  HD
ATOM     23 HE   ARG B   2      -9.888 -30.448  -7.237  1.00  9.23 LIG 0.18  HD
ENDBRANCH 14 15
ENDBRANCH 13 14
ENDBRANCH 12 13
ENDBRANCH 11 12
BRANCH 11 24
ATOM     24  N   ARG B   2     -12.569 -27.727  -7.520  1.00 12.50 LIG-0.35  N 
ATOM     25  C   ALA B   1     -12.163 -28.107  -8.725  1.00 14.33 LIG 0.25  C 
ATOM     26 O    ALA B   1     -12.335 -29.239  -9.172  1.00 14.72 LIG-0.27  OA
ATOM     27 H    ARG B   2     -12.470 -26.927  -7.221  1.00 12.50 LIG 0.16  HD
BRANCH 25 28
ATOM     28  CA  ALA B   1     -11.468 -27.031  -9.554  1.00 14.93 LIG 0.27  C 
ATOM     29  CB  ALA B   1      -9.956 -27.132  -9.386  1.00 16.58 LIG 0.05  C 
BRANCH 28 30
ATOM     30  N   ALA B   1     -11.937 -25.670  -9.171  1.00 16.58 LIG-0.07  N 
ATOM     31 H3   ALA B   1     -12.275 -25.260  -9.886  1.00 16.58 LIG 0.28  HD
ATOM     32 H1   ALA B   1     -12.564 -25.739  -8.544  1.00 16.58 LIG 0.28  HD
ATOM     33 H2   ALA B   1     -11.252 -25.198  -8.855  1.00 16.58 LIG 0.28  HD
ENDBRANCH 28 30
ENDBRANCH 25 28
ENDBRANCH 11 24
ENDBRANCH 8 11
ENDBRANCH 5 7
ENDBRANCH 1 5
BRANCH 3 34
ATOM     34  CA  GLU B   4     -18.208 -30.586  -6.125  1.00 20.15 LIG 0.18  C 
BRANCH 34 35
ATOM     35  C   GLU B   4     -17.932 -30.840  -4.645  1.00 19.92 LIG 0.24  C 
ATOM     36  N   VAL B   5     -18.886 -31.465  -3.962  1.00 19.46 LIG-0.35  N 
ATOM     37 H    VAL B   5     -19.630 -31.727  -4.305  1.00 19.46 LIG 0.16  HD
ATOM     38 O    GLU B   4     -16.870 -30.483  -4.134  1.00 20.03 LIG-0.27  OA
BRANCH 36 39
ATOM     39  CA  VAL B   5     -18.736 -31.764  -2.541  1.00 20.09 LIG 0.18  C 
BRANCH 39 40
ATOM     40  CB  VAL B   5     -19.767 -32.821  -2.079  1.00 20.49 LIG 0.01  C 
ATOM     41  CG2 VAL B   5     -21.159 -32.214  -2.045  1.00 19.70 LIG 0.01  C 
ATOM     42  CG1 VAL B   5     -19.389 -33.355  -0.708  1.00 21.00 LIG 0.01  C 
ENDBRANCH 39 40
BRANCH 39 43
ATOM     43  C   VAL B   5     -17.338 -32.289  -2.226  1.00 20.75 LIG 0.24  C 
ATOM     44  N   HIS B   6     -16.509 -31.446  -1.616  1.00 20.78 LIG-0.35  N 
ATOM     45 H    HIS B   6     -16.713 -30.636  -1.406  1.00 20.78 LIG 0.16  HD
ATOM     46 O    VAL B   5     -17.013 -33.435  -2.536  1.00 21.91 LIG-0.27  OA
BRANCH 44 47
ATOM     47  CA  HIS B   6     -15.156 -31.844  -1.246  1.00 21.28 LIG 0.17  C 
BRANCH 47 48
ATOM     48  C   HIS B   6     -14.366 -32.215  -2.496  1.00 23.03 LIG 0.22  C 
ATOM     49 O    HIS B   6     -14.341 -31.400  -3.443  1.00 25.39 LIG-0.29  OA
ENDBRANCH 47 48
BRANCH 47 50
ATOM     50  CB  HIS B   6     -15.177 -33.043  -0.293  1.00 19.33 LIG 0.09  C 
BRANCH 50 51
ATOM     51  CG  HIS B   6     -15.478 -32.674   1.128  1.00 17.39 LIG 0.06  A 
ATOM     52  CD2 HIS B   6     -15.529 -31.470   1.745  1.00 16.59 LIG 0.14  A 
ATOM     53 NE2  HIS B   6     -15.886 -31.698   3.053  1.00 16.70 LIG-0.25  NA
ATOM     54  CE1 HIS B   6     -16.046 -32.997   3.232  1.00 16.06 LIG 0.23  A 
ATOM     55 ND1  HIS B   6     -15.806 -33.609   2.085  1.00 16.09 LIG-0.24  NA
ENDBRANCH 50 51
ENDBRANCH 47 50
ENDBRANCH 44 47
ENDBRANCH 39 43
ENDBRANCH 36 39
ENDBRANCH 34 35
BRANCH 34 56
ATOM     56  CB  GLU B   4     -17.867 -31.849  -6.920  1.00 22.38 LIG 0.04  C 
BRANCH 56 57
ATOM     57  CG  GLU B   4     -18.438 -33.132  -6.344  1.00 27.64 LIG 0.12  C 
BRANCH 57 58
ATOM     58  CD  GLU B   4     -19.933 -33.248  -6.568  1.00 30.78 LIG 0.17  C 
ATOM     59 OE2  GLU B   4     -20.344 -33.993  -7.484  1.00 32.62 LIG-0.65  OA
ATOM     60 OE1  GLU B   4     -20.697 -32.593  -5.828  1.00 32.75 LIG-0.65  OA
ENDBRANCH 57 58
ENDBRANCH 56 57
ENDBRANCH 34 56
ENDBRANCH 3 34
TORSDOF 22
ENDMDL
MODEL 25
USER: ADFR SOLUTION from run 20
USER: SCORE 16.893938 LL:  -4.372 LR: -14.121 RR:   0.000 FEB:  -7.558
USER: RMSD 7.932212
USER: SEED 19
USER: STATUS searching
USER: GENES 24
USER: genes 0 Translation |==|  0.35316 0.37784 0.48729
USER: genes 1 Rotation |==|  0.45757 0.01103 0.53197 0.58994
USER: genes 2 Torsion [N]-C--CA-[N] |==|  0.83972
USER: genes 3 Torsion [C]-CA--N-[C] |==|  0.64117
USER: genes 4 Torsion [N]-C--CA-[N] |==|  0.37721
USER: genes 5 Torsion [C]-CA--CB-[CG] |==|  0.74822
USER: genes 6 Torsion [CA]-CB--CG-[CD] |==|  0.29650
USER: genes 7 Torsion [CB]-CG--CD-[NE] |==|  0.65002
USER: genes 8 Torsion [CG]-CD--NE-[CZ] |==|  0.53990
USER: genes 9 Torsion [C]-CA--N-[C] |==|  0.83608
USER: genes 10 Torsion [N]-C--CA-[N] |==|  0.38021
USER: genes 11 Torsion [C]-CA--N-[H2] |==|  0.32347
USER: genes 12 Torsion [C]-N--CA-[C] |==|  0.80381
USER: genes 13 Torsion [N]-CA--C-[N] |==|  0.82244
USER: genes 14 Torsion [C]-N--CA-[CB] |==|  0.22222
USER: genes 15 Torsion [N]-CA--CB-[CG2] |==|  0.07146
USER: genes 16 Torsion [N]-CA--C-[N] |==|  0.03952
USER: genes 17 Torsion [C]-N--CA-[C] |==|  0.18637
USER: genes 18 Torsion [N]-CA--C-[O] |==|  0.56656
USER: genes 19 Torsion [N]-CA--CB-[CG] |==|  0.61393
USER: genes 20 Torsion [CA]-CB--CG-[CD2] |==|  0.47831
USER: genes 21 Torsion [N]-CA--CB-[CG] |==|  0.61131
USER: genes 22 Torsion [CA]-CB--CG-[CD] |==|  0.70680
USER: genes 23 Torsion [CB]-CG--CD-[OE2] |==|  0.70928
ROOT
ATOM      1  C   ALA B   3     -17.779 -30.929  -5.323  1.00 17.17 LIG 0.24  C 
ATOM      2 O    ALA B   3     -16.949 -31.686  -4.817  1.00 18.54 LIG-0.27  OA
ATOM      3  N   GLU B   4     -18.810 -31.365  -6.043  1.00 17.89 LIG-0.35  N 
ATOM      4 H    GLU B   4     -19.395 -30.846  -6.401  1.00 17.89 LIG 0.16  HD
ENDROOT
BRANCH 1 5
ATOM      5  CA  ALA B   3     -17.658 -29.417  -5.139  1.00 15.99 LIG 0.17  C 
ATOM      6  CB  ALA B   3     -18.832 -28.895  -4.317  1.00 16.21 LIG 0.04  C 
BRANCH 5 7
ATOM      7  N   ALA B   3     -17.575 -28.688  -6.399  1.00 13.91 LIG-0.35  N 
ATOM      8  C   ARG B   2     -16.615 -27.795  -6.623  1.00 12.46 LIG 0.24  C 
ATOM      9 O    ARG B   2     -15.741 -27.536  -5.797  1.00 11.56 LIG-0.27  OA
ATOM     10 H    ALA B   3     -18.190 -28.886  -6.967  1.00 13.91 LIG 0.16  HD
BRANCH 8 11
ATOM     11  CA  ARG B   2     -16.639 -27.083  -7.971  1.00 12.24 LIG 0.18  C 
BRANCH 11 12
ATOM     12  CB  ARG B   2     -15.614 -27.722  -8.910  1.00 10.58 LIG 0.04  C 
BRANCH 12 13
ATOM     13  CG  ARG B   2     -14.228 -27.094  -8.862  1.00  9.71 LIG 0.02  C 
BRANCH 13 14
ATOM     14  CD  ARG B   2     -13.255 -28.013  -8.142  1.00  9.44 LIG 0.14  C 
BRANCH 14 15
ATOM     15  NE  ARG B   2     -12.567 -27.339  -7.042  1.00  9.23 LIG-0.23  N 
ATOM     16  CZ  ARG B   2     -11.487 -27.810  -6.431  1.00  9.20 LIG 0.67  C 
ATOM     17  NH1 ARG B   2     -10.961 -28.967  -6.810  1.00  7.63 LIG-0.23  N 
ATOM     18  NH2 ARG B   2     -10.930 -27.123  -5.441  1.00  9.31 LIG-0.23  N 
ATOM     19 1HH1 ARG B   2     -11.320 -29.413  -7.451  1.00  7.63 LIG 0.17  HD
ATOM     20 2HH1 ARG B   2     -10.261 -29.272  -6.413  1.00  7.63 LIG 0.17  HD
ATOM     21 2HH2 ARG B   2     -10.230 -27.429  -5.046  1.00  9.31 LIG 0.17  HD
ATOM     22 1HH2 ARG B   2     -11.269 -26.372  -5.195  1.00  9.31 LIG 0.17  HD
ATOM     23 HE   ARG B   2     -12.884 -26.587  -6.772  1.00  9.23 LIG 0.18  HD
ENDBRANCH 14 15
ENDBRANCH 13 14
ENDBRANCH 12 13
ENDBRANCH 11 12
BRANCH 11 24
ATOM     24  N   ARG B   2     -16.408 -25.643  -7.921  1.00 12.50 LIG-0.35  N 
ATOM     25  C   ALA B   1     -17.175 -24.806  -7.233  1.00 14.33 LIG 0.25  C 
ATOM     26 O    ALA B   1     -18.128 -25.171  -6.546  1.00 14.72 LIG-0.27  OA
ATOM     27 H    ARG B   2     -15.727 -25.387  -8.379  1.00 12.50 LIG 0.16  HD
BRANCH 25 28
ATOM     28  CA  ALA B   1     -16.794 -23.332  -7.329  1.00 14.93 LIG 0.27  C 
ATOM     29  CB  ALA B   1     -16.022 -22.906  -6.087  1.00 16.58 LIG 0.05  C 
BRANCH 28 30
ATOM     30  N   ALA B   1     -17.999 -22.476  -7.504  1.00 16.58 LIG-0.07  N 
ATOM     31 H3   ALA B   1     -17.912 -21.987  -8.243  1.00 16.58 LIG 0.28  HD
ATOM     32 H1   ALA B   1     -18.722 -22.990  -7.571  1.00 16.58 LIG 0.28  HD
ATOM     33 H2   ALA B   1     -18.084 -21.936  -6.802  1.00 16.58 LIG 0.28  HD
ENDBRANCH 28 30
ENDBRANCH 25 28
ENDBRANCH 11 24
ENDBRANCH 8 11
ENDBRANCH 5 7
ENDBRANCH 1 5
BRANCH 3 34
ATOM     34  CA  GLU B   4     -19.037 -32.787  -6.291  1.00 20.15 LIG 0.18  C 
BRANCH 34 35
ATOM     35  C   GLU B   4     -17.987 -33.347  -7.248  1.00 19.92 LIG 0.24  C 
ATOM     36  N   VAL B   5     -17.981 -32.848  -8.479  1.00 19.46 LIG-0.35  N 
ATOM     37 H    VAL B   5     -18.524 -32.242  -8.756  1.00 19.46 LIG 0.16  HD
ATOM     38 O    GLU B   4     -17.192 -34.209  -6.872  1.00 20.03 LIG-0.27  OA
BRANCH 36 39
ATOM     39  CA  VAL B   5     -17.023 -33.305  -9.483  1.00 20.09 LIG 0.18  C 
BRANCH 39 40
ATOM     40  CB  VAL B   5     -17.470 -34.646 -10.113  1.00 20.49 LIG 0.01  C 
ATOM     41  CG2 VAL B   5     -18.978 -34.791 -10.020  1.00 19.70 LIG 0.01  C 
ATOM     42  CG1 VAL B   5     -16.783 -35.806  -9.412  1.00 21.00 LIG 0.01  C 
ENDBRANCH 39 40
BRANCH 39 43
ATOM     43  C   VAL B   5     -16.857 -32.281 -10.603  1.00 20.75 LIG 0.24  C 
ATOM     44  N   HIS B   6     -17.340 -31.063 -10.370  1.00 20.78 LIG-0.35  N 
ATOM     45 H    HIS B   6     -17.740 -30.834  -9.645  1.00 20.78 LIG 0.16  HD
ATOM     46 O    VAL B   5     -16.310 -32.591 -11.660  1.00 21.91 LIG-0.27  OA
BRANCH 44 47
ATOM     47  CA  HIS B   6     -17.220 -29.998 -11.360  1.00 21.28 LIG 0.17  C 
BRANCH 47 48
ATOM     48  C   HIS B   6     -18.070 -30.328 -12.581  1.00 23.03 LIG 0.22  C 
ATOM     49 O    HIS B   6     -17.761 -29.807 -13.674  1.00 25.39 LIG-0.29  OA
ENDBRANCH 47 48
BRANCH 47 50
ATOM     50  CB  HIS B   6     -15.763 -29.816 -11.797  1.00 19.33 LIG 0.09  C 
BRANCH 50 51
ATOM     51  CG  HIS B   6     -15.356 -28.382 -11.946  1.00 17.39 LIG 0.06  A 
ATOM     52  CD2 HIS B   6     -14.147 -27.816 -12.172  1.00 16.59 LIG 0.14  A 
ATOM     53 NE2  HIS B   6     -14.343 -26.459 -12.258  1.00 16.70 LIG-0.25  NA
ATOM     54  CE1 HIS B   6     -15.627 -26.200 -12.087  1.00 16.06 LIG 0.23  A 
ATOM     55 ND1  HIS B   6     -16.261 -27.344 -11.897  1.00 16.09 LIG-0.24  NA
ENDBRANCH 50 51
ENDBRANCH 47 50
ENDBRANCH 44 47
ENDBRANCH 39 43
ENDBRANCH 36 39
ENDBRANCH 34 35
BRANCH 34 56
ATOM     56  CB  GLU B   4     -20.428 -33.004  -6.894  1.00 22.38 LIG 0.04  C 
BRANCH 56 57
ATOM     57  CG  GLU B   4     -21.163 -34.222  -6.364  1.00 27.64 LIG 0.12  C 
BRANCH 57 58
ATOM     58  CD  GLU B   4     -21.191 -35.358  -7.368  1.00 30.78 LIG 0.17  C 
ATOM     59 OE2  GLU B   4     -22.254 -35.587  -7.983  1.00 32.62 LIG-0.65  OA
ATOM     60 OE1  GLU B   4     -20.147 -36.023  -7.541  1.00 32.75 LIG-0.65  OA
ENDBRANCH 57 58
ENDBRANCH 56 57
ENDBRANCH 34 56
ENDBRANCH 3 34
TORSDOF 22
ENDMDL
MODEL 26
USER: ADFR SOLUTION from run 117
USER: SCORE 16.278007 LL:  -3.862 LR: -14.119 RR:   0.000 FEB:  -7.556
USER: RMSD 5.548145
USER: SEED 116
USER: STATUS searching
USER: GENES 24
USER: genes 0 Translation |==|  0.35796 0.50108 0.45821
USER: genes 1 Rotation |==|  0.46127 0.83164 0.21751 0.74230
USER: genes 2 Torsion [N]-C--CA-[N] |==|  0.67199
USER: genes 3 Torsion [C]-CA--N-[C] |==|  0.56185
USER: genes 4 Torsion [N]-C--CA-[N] |==|  0.86007
USER: genes 5 Torsion [C]-CA--CB-[CG] |==|  0.06859
USER: genes 6 Torsion [CA]-CB--CG-[CD] |==|  0.63777
USER: genes 7 Torsion [CB]-CG--CD-[NE] |==|  0.00357
USER: genes 8 Torsion [CG]-CD--NE-[CZ] |==|  0.56069
USER: genes 9 Torsion [C]-CA--N-[C] |==|  0.75963
USER: genes 10 Torsion [N]-C--CA-[N] |==|  0.23065
USER: genes 11 Torsion [C]-CA--N-[H2] |==|  0.47363
USER: genes 12 Torsion [C]-N--CA-[C] |==|  0.68822
USER: genes 13 Torsion [N]-CA--C-[N] |==|  0.78387
USER: genes 14 Torsion [C]-N--CA-[CB] |==|  0.84444
USER: genes 15 Torsion [N]-CA--CB-[CG2] |==|  0.89551
USER: genes 16 Torsion [N]-CA--C-[N] |==|  0.41100
USER: genes 17 Torsion [C]-N--CA-[C] |==|  0.85068
USER: genes 18 Torsion [N]-CA--C-[O] |==|  0.24641
USER: genes 19 Torsion [N]-CA--CB-[CG] |==|  0.23231
USER: genes 20 Torsion [CA]-CB--CG-[CD2] |==|  0.28608
USER: genes 21 Torsion [N]-CA--CB-[CG] |==|  0.01292
USER: genes 22 Torsion [CA]-CB--CG-[CD] |==|  0.21952
USER: genes 23 Torsion [CB]-CG--CD-[OE2] |==|  0.25003
ROOT
ATOM      1  C   ALA B   3     -17.693 -28.064  -5.955  1.00 17.17 LIG 0.24  C 
ATOM      2 O    ALA B   3     -18.133 -27.360  -5.045  1.00 18.54 LIG-0.27  OA
ATOM      3  N   GLU B   4     -17.429 -29.359  -5.803  1.00 17.89 LIG-0.35  N 
ATOM      4 H    GLU B   4     -17.121 -29.861  -6.430  1.00 17.89 LIG 0.16  HD
ENDROOT
BRANCH 1 5
ATOM      5  CA  ALA B   3     -17.424 -27.464  -7.335  1.00 15.99 LIG 0.17  C 
ATOM      6  CB  ALA B   3     -17.010 -28.562  -8.310  1.00 16.21 LIG 0.04  C 
BRANCH 5 7
ATOM      7  N   ALA B   3     -16.415 -26.412  -7.320  1.00 13.91 LIG-0.35  N 
ATOM      8  C   ARG B   2     -16.353 -25.495  -8.281  1.00 12.46 LIG 0.24  C 
ATOM      9 O    ARG B   2     -17.138 -25.470  -9.229  1.00 11.56 LIG-0.27  OA
ATOM     10 H    ALA B   3     -15.879 -26.441  -6.647  1.00 13.91 LIG 0.16  HD
BRANCH 8 11
ATOM     11  CA  ARG B   2     -15.244 -24.453  -8.168  1.00 12.24 LIG 0.18  C 
BRANCH 11 12
ATOM     12  CB  ARG B   2     -13.897 -25.096  -8.502  1.00 10.58 LIG 0.04  C 
BRANCH 12 13
ATOM     13  CG  ARG B   2     -13.982 -26.326  -9.395  1.00  9.71 LIG 0.02  C 
BRANCH 13 14
ATOM     14  CD  ARG B   2     -13.176 -27.470  -8.801  1.00  9.44 LIG 0.14  C 
BRANCH 14 15
ATOM     15  NE  ARG B   2     -12.559 -27.109  -7.526  1.00  9.23 LIG-0.23  N 
ATOM     16  CZ  ARG B   2     -11.504 -27.721  -7.002  1.00  9.20 LIG 0.67  C 
ATOM     17  NH1 ARG B   2     -10.939 -28.736  -7.644  1.00  7.63 LIG-0.23  N 
ATOM     18  NH2 ARG B   2     -11.011 -27.319  -5.837  1.00  9.31 LIG-0.23  N 
ATOM     19 1HH1 ARG B   2     -11.256 -28.997  -8.399  1.00  7.63 LIG 0.17  HD
ATOM     20 2HH1 ARG B   2     -10.255 -29.132  -7.304  1.00  7.63 LIG 0.17  HD
ATOM     21 2HH2 ARG B   2     -10.327 -27.716  -5.500  1.00  9.31 LIG 0.17  HD
ATOM     22 1HH2 ARG B   2     -11.375 -26.661  -5.421  1.00  9.31 LIG 0.17  HD
ATOM     23 HE   ARG B   2     -12.902 -26.456  -7.085  1.00  9.23 LIG 0.18  HD
ENDBRANCH 14 15
ENDBRANCH 13 14
ENDBRANCH 12 13
ENDBRANCH 11 12
BRANCH 11 24
ATOM     24  N   ARG B   2     -15.147 -23.785  -6.875  1.00 12.50 LIG-0.35  N 
ATOM     25  C   ALA B   1     -15.851 -22.704  -6.560  1.00 14.33 LIG 0.25  C 
ATOM     26 O    ALA B   1     -16.675 -22.190  -7.314  1.00 14.72 LIG-0.27  OA
ATOM     27 H    ARG B   2     -14.591 -24.157  -6.335  1.00 12.50 LIG 0.16  HD
BRANCH 25 28
ATOM     28  CA  ALA B   1     -15.587 -22.128  -5.172  1.00 14.93 LIG 0.27  C 
ATOM     29  CB  ALA B   1     -16.805 -21.353  -4.683  1.00 16.58 LIG 0.05  C 
BRANCH 28 30
ATOM     30  N   ALA B   1     -14.386 -21.247  -5.175  1.00 16.58 LIG-0.07  N 
ATOM     31 H3   ALA B   1     -13.655 -21.742  -5.292  1.00 16.58 LIG 0.28  HD
ATOM     32 H1   ALA B   1     -14.453 -20.656  -5.837  1.00 16.58 LIG 0.28  HD
ATOM     33 H2   ALA B   1     -14.331 -20.817  -4.398  1.00 16.58 LIG 0.28  HD
ENDBRANCH 28 30
ENDBRANCH 25 28
ENDBRANCH 11 24
ENDBRANCH 8 11
ENDBRANCH 5 7
ENDBRANCH 1 5
BRANCH 3 34
ATOM     34  CA  GLU B   4     -17.643 -30.051  -4.533  1.00 20.15 LIG 0.18  C 
BRANCH 34 35
ATOM     35  C   GLU B   4     -16.314 -30.474  -3.912  1.00 19.92 LIG 0.24  C 
ATOM     36  N   VAL B   5     -15.735 -31.553  -4.429  1.00 19.46 LIG-0.35  N 
ATOM     37 H    VAL B   5     -16.064 -32.011  -5.079  1.00 19.46 LIG 0.16  HD
ATOM     38 O    GLU B   4     -15.819 -29.828  -2.988  1.00 20.03 LIG-0.27  OA
BRANCH 36 39
ATOM     39  CA  VAL B   5     -14.461 -32.053  -3.919  1.00 20.09 LIG 0.18  C 
BRANCH 39 40
ATOM     40  CB  VAL B   5     -13.370 -30.958  -3.966  1.00 20.49 LIG 0.01  C 
ATOM     41  CG2 VAL B   5     -13.527 -30.116  -5.221  1.00 19.70 LIG 0.01  C 
ATOM     42  CG1 VAL B   5     -11.991 -31.593  -3.925  1.00 21.00 LIG 0.01  C 
ENDBRANCH 39 40
BRANCH 39 43
ATOM     43  C   VAL B   5     -14.591 -32.539  -2.478  1.00 20.75 LIG 0.24  C 
ATOM     44  N   HIS B   6     -13.806 -33.552  -2.119  1.00 20.78 LIG-0.35  N 
ATOM     45 H    HIS B   6     -13.254 -33.945  -2.649  1.00 20.78 LIG 0.16  HD
ATOM     46 O    VAL B   5     -15.391 -32.010  -1.707  1.00 21.91 LIG-0.27  OA
BRANCH 44 47
ATOM     47  CA  HIS B   6     -13.828 -34.086  -0.762  1.00 21.28 LIG 0.17  C 
BRANCH 47 48
ATOM     48  C   HIS B   6     -13.602 -32.960   0.240  1.00 23.03 LIG 0.22  C 
ATOM     49 O    HIS B   6     -14.599 -32.335   0.661  1.00 25.39 LIG-0.29  OA
ENDBRANCH 47 48
BRANCH 47 50
ATOM     50  CB  HIS B   6     -12.743 -35.150  -0.574  1.00 19.33 LIG 0.09  C 
BRANCH 50 51
ATOM     51  CG  HIS B   6     -11.395 -34.582  -0.250  1.00 17.39 LIG 0.06  A 
ATOM     52  CD2 HIS B   6     -10.718 -34.501   0.919  1.00 16.59 LIG 0.14  A 
ATOM     53 NE2  HIS B   6      -9.504 -33.916   0.647  1.00 16.70 LIG-0.25  NA
ATOM     54  CE1 HIS B   6      -9.440 -33.645  -0.644  1.00 16.06 LIG 0.23  A 
ATOM     55 ND1  HIS B   6     -10.568 -34.038  -1.209  1.00 16.09 LIG-0.24  NA
ENDBRANCH 50 51
ENDBRANCH 47 50
ENDBRANCH 44 47
ENDBRANCH 39 43
ENDBRANCH 36 39
ENDBRANCH 34 35
BRANCH 34 56
ATOM     56  CB  GLU B   4     -18.512 -31.293  -4.747  1.00 22.38 LIG 0.04  C 
BRANCH 56 57
ATOM     57  CG  GLU B   4     -18.852 -31.584  -6.198  1.00 27.64 LIG 0.12  C 
BRANCH 57 58
ATOM     58  CD  GLU B   4     -17.707 -32.254  -6.933  1.00 30.78 LIG 0.17  C 
ATOM     59 OE2  GLU B   4     -17.646 -33.503  -6.933  1.00 32.62 LIG-0.65  OA
ATOM     60 OE1  GLU B   4     -16.867 -31.531  -7.509  1.00 32.75 LIG-0.65  OA
ENDBRANCH 57 58
ENDBRANCH 56 57
ENDBRANCH 34 56
ENDBRANCH 3 34
TORSDOF 22
ENDMDL
MODEL 27
USER: ADFR SOLUTION from run 143
USER: SCORE 16.262031 LL:  -5.195 LR: -14.096 RR:   0.000 FEB:  -7.533
USER: RMSD 7.190055
USER: SEED 142
USER: STATUS no improvement in best in 10 clusters for 5 generations
USER: GENES 24
USER: genes 0 Translation |==|  0.52586 0.59503 0.27189
USER: genes 1 Rotation |==|  0.33740 0.45996 0.24125 0.89371
USER: genes 2 Torsion [N]-C--CA-[N] |==|  0.17130
USER: genes 3 Torsion [C]-CA--N-[C] |==|  0.71392
USER: genes 4 Torsion [N]-C--CA-[N] |==|  0.68796
USER: genes 5 Torsion [C]-CA--CB-[CG] |==|  0.42627
USER: genes 6 Torsion [CA]-CB--CG-[CD] |==|  0.24818
USER: genes 7 Torsion [CB]-CG--CD-[NE] |==|  0.72516
USER: genes 8 Torsion [CG]-CD--NE-[CZ] |==|  0.53599
USER: genes 9 Torsion [C]-CA--N-[C] |==|  0.12368
USER: genes 10 Torsion [N]-C--CA-[N] |==|  0.07140
USER: genes 11 Torsion [C]-CA--N-[H2] |==|  0.13118
USER: genes 12 Torsion [C]-N--CA-[C] |==|  0.16796
USER: genes 13 Torsion [N]-CA--C-[N] |==|  0.06704
USER: genes 14 Torsion [C]-N--CA-[CB] |==|  0.41472
USER: genes 15 Torsion [N]-CA--CB-[CG2] |==|  0.15486
USER: genes 16 Torsion [N]-CA--C-[N] |==|  0.38123
USER: genes 17 Torsion [C]-N--CA-[C] |==|  0.60610
USER: genes 18 Torsion [N]-CA--C-[O] |==|  0.95496
USER: genes 19 Torsion [N]-CA--CB-[CG] |==|  0.87785
USER: genes 20 Torsion [CA]-CB--CG-[CD2] |==|  0.78372
USER: genes 21 Torsion [N]-CA--CB-[CG] |==|  0.63260
USER: genes 22 Torsion [CA]-CB--CG-[CD] |==|  0.20879
USER: genes 23 Torsion [CB]-CG--CD-[OE2] |==|  0.37554
ROOT
ATOM      1  C   ALA B   3     -14.670 -25.879 -10.007  1.00 17.17 LIG 0.24  C 
ATOM      2 O    ALA B   3     -15.756 -25.911 -10.588  1.00 18.54 LIG-0.27  OA
ATOM      3  N   GLU B   4     -14.562 -25.825  -8.682  1.00 17.89 LIG-0.35  N 
ATOM      4 H    GLU B   4     -13.810 -25.803  -8.265  1.00 17.89 LIG 0.16  HD
ENDROOT
BRANCH 1 5
ATOM      5  CA  ALA B   3     -13.367 -25.902 -10.804  1.00 15.99 LIG 0.17  C 
ATOM      6  CB  ALA B   3     -13.667 -25.839 -12.298  1.00 16.21 LIG 0.04  C 
BRANCH 5 7
ATOM      7  N   ALA B   3     -12.534 -27.064 -10.516  1.00 13.91 LIG-0.35  N 
ATOM      8  C   ARG B   2     -11.460 -26.972  -9.737  1.00 12.46 LIG 0.24  C 
ATOM      9 O    ARG B   2     -11.109 -25.919  -9.208  1.00 11.56 LIG-0.27  OA
ATOM     10 H    ALA B   3     -12.799 -27.792 -10.888  1.00 13.91 LIG 0.16  HD
BRANCH 8 11
ATOM     11  CA  ARG B   2     -10.657 -28.251  -9.520  1.00 12.24 LIG 0.18  C 
BRANCH 11 12
ATOM     12  CB  ARG B   2     -11.131 -29.329 -10.498  1.00 10.58 LIG 0.04  C 
BRANCH 12 13
ATOM     13  CG  ARG B   2     -10.082 -30.375 -10.849  1.00  9.71 LIG 0.02  C 
BRANCH 13 14
ATOM     14  CD  ARG B   2     -10.140 -31.534  -9.867  1.00  9.44 LIG 0.14  C 
BRANCH 14 15
ATOM     15  NE  ARG B   2      -9.120 -31.429  -8.824  1.00  9.23 LIG-0.23  N 
ATOM     16  CZ  ARG B   2      -8.789 -32.412  -7.996  1.00  9.20 LIG 0.67  C 
ATOM     17  NH1 ARG B   2      -9.400 -33.588  -8.083  1.00  7.63 LIG-0.23  N 
ATOM     18  NH2 ARG B   2      -7.847 -32.223  -7.082  1.00  9.31 LIG-0.23  N 
ATOM     19 1HH1 ARG B   2     -10.010 -33.712  -8.676  1.00  7.63 LIG 0.17  HD
ATOM     20 2HH1 ARG B   2      -9.185 -34.224  -7.546  1.00  7.63 LIG 0.17  HD
ATOM     21 2HH2 ARG B   2      -7.633 -32.861  -6.546  1.00  9.31 LIG 0.17  HD
ATOM     22 1HH2 ARG B   2      -7.449 -31.463  -7.025  1.00  9.31 LIG 0.17  HD
ATOM     23 HE   ARG B   2      -8.707 -30.680  -8.742  1.00  9.23 LIG 0.18  HD
ENDBRANCH 14 15
ENDBRANCH 13 14
ENDBRANCH 12 13
ENDBRANCH 11 12
BRANCH 11 24
ATOM     24  N   ARG B   2     -10.693 -28.788  -8.164  1.00 12.50 LIG-0.35  N 
ATOM     25  C   ALA B   1     -11.807 -28.884  -7.449  1.00 14.33 LIG 0.25  C 
ATOM     26 O    ALA B   1     -12.915 -28.564  -7.876  1.00 14.72 LIG-0.27  OA
ATOM     27 H    ARG B   2      -9.924 -29.037  -7.871  1.00 12.50 LIG 0.16  HD
BRANCH 25 28
ATOM     28  CA  ALA B   1     -11.638 -29.440  -6.038  1.00 14.93 LIG 0.27  C 
ATOM     29  CB  ALA B   1     -12.665 -28.817  -5.100  1.00 16.58 LIG 0.05  C 
BRANCH 28 30
ATOM     30  N   ALA B   1     -10.261 -29.196  -5.526  1.00 16.58 LIG-0.07  N 
ATOM     31 H3   ALA B   1     -10.237 -29.356  -4.651  1.00 16.58 LIG 0.28  HD
ATOM     32 H1   ALA B   1      -9.690 -29.736  -5.943  1.00 16.58 LIG 0.28  HD
ATOM     33 H2   ALA B   1     -10.033 -28.349  -5.678  1.00 16.58 LIG 0.28  HD
ENDBRANCH 28 30
ENDBRANCH 25 28
ENDBRANCH 11 24
ENDBRANCH 8 11
ENDBRANCH 5 7
ENDBRANCH 1 5
BRANCH 3 34
ATOM     34  CA  GLU B   4     -15.733 -25.800  -7.808  1.00 20.15 LIG 0.18  C 
BRANCH 34 35
ATOM     35  C   GLU B   4     -16.580 -27.056  -7.995  1.00 19.92 LIG 0.24  C 
ATOM     36  N   VAL B   5     -15.952 -28.129  -8.466  1.00 19.46 LIG-0.35  N 
ATOM     37 H    VAL B   5     -15.115 -28.149  -8.664  1.00 19.46 LIG 0.16  HD
ATOM     38 O    GLU B   4     -17.777 -27.054  -7.711  1.00 20.03 LIG-0.27  OA
BRANCH 36 39
ATOM     39  CA  VAL B   5     -16.657 -29.389  -8.687  1.00 20.09 LIG 0.18  C 
BRANCH 39 40
ATOM     40  CB  VAL B   5     -16.032 -30.181  -9.860  1.00 20.49 LIG 0.01  C 
ATOM     41  CG2 VAL B   5     -14.551 -30.406  -9.608  1.00 19.70 LIG 0.01  C 
ATOM     42  CG1 VAL B   5     -16.239 -29.432 -11.165  1.00 21.00 LIG 0.01  C 
ENDBRANCH 39 40
BRANCH 39 43
ATOM     43  C   VAL B   5     -16.625 -30.271  -7.442  1.00 20.75 LIG 0.24  C 
ATOM     44  N   HIS B   6     -17.760 -30.888  -7.121  1.00 20.78 LIG-0.35  N 
ATOM     45 H    HIS B   6     -18.494 -30.806  -7.562  1.00 20.78 LIG 0.16  HD
ATOM     46 O    VAL B   5     -15.594 -30.386  -6.780  1.00 21.91 LIG-0.27  OA
BRANCH 44 47
ATOM     47  CA  HIS B   6     -17.843 -31.773  -5.965  1.00 21.28 LIG 0.17  C 
BRANCH 47 48
ATOM     48  C   HIS B   6     -18.729 -32.969  -6.291  1.00 23.03 LIG 0.22  C 
ATOM     49 O    HIS B   6     -19.476 -32.896  -7.290  1.00 25.39 LIG-0.29  OA
ENDBRANCH 47 48
BRANCH 47 50
ATOM     50  CB  HIS B   6     -18.420 -31.038  -4.751  1.00 19.33 LIG 0.09  C 
BRANCH 50 51
ATOM     51  CG  HIS B   6     -17.849 -29.666  -4.553  1.00 17.39 LIG 0.06  A 
ATOM     52  CD2 HIS B   6     -16.666 -29.258  -4.035  1.00 16.59 LIG 0.14  A 
ATOM     53 NE2  HIS B   6     -16.636 -27.887  -4.123  1.00 16.70 LIG-0.25  NA
ATOM     54  CE1 HIS B   6     -17.761 -27.468  -4.673  1.00 16.06 LIG 0.23  A 
ATOM     55 ND1  HIS B   6     -18.511 -28.522  -4.943  1.00 16.09 LIG-0.24  NA
ENDBRANCH 50 51
ENDBRANCH 47 50
ENDBRANCH 44 47
ENDBRANCH 39 43
ENDBRANCH 36 39
ENDBRANCH 34 35
BRANCH 34 56
ATOM     56  CB  GLU B   4     -16.592 -24.568  -8.109  1.00 22.38 LIG 0.04  C 
BRANCH 56 57
ATOM     57  CG  GLU B   4     -17.019 -23.781  -6.883  1.00 27.64 LIG 0.12  C 
BRANCH 57 58
ATOM     58  CD  GLU B   4     -15.885 -22.957  -6.305  1.00 30.78 LIG 0.17  C 
ATOM     59 OE2  GLU B   4     -16.115 -21.775  -5.971  1.00 32.62 LIG-0.65  OA
ATOM     60 OE1  GLU B   4     -14.763 -23.493  -6.185  1.00 32.75 LIG-0.65  OA
ENDBRANCH 57 58
ENDBRANCH 56 57
ENDBRANCH 34 56
ENDBRANCH 3 34
TORSDOF 22
ENDMDL
MODEL 28
USER: ADFR SOLUTION from run 72
USER: SCORE 17.242612 LL:  -4.900 LR: -14.092 RR:   0.000 FEB:  -7.529
USER: RMSD 9.020397
USER: SEED 71
USER: STATUS searching
USER: GENES 24
USER: genes 0 Translation |==|  0.37440 0.49367 0.48674
USER: genes 1 Rotation |==|  0.96783 0.66135 0.54533 0.55521
USER: genes 2 Torsion [N]-C--CA-[N] |==|  0.96219
USER: genes 3 Torsion [C]-CA--N-[C] |==|  0.72412
USER: genes 4 Torsion [N]-C--CA-[N] |==|  0.00403
USER: genes 5 Torsion [C]-CA--CB-[CG] |==|  0.60450
USER: genes 6 Torsion [CA]-CB--CG-[CD] |==|  0.79658
USER: genes 7 Torsion [CB]-CG--CD-[NE] |==|  0.45069
USER: genes 8 Torsion [CG]-CD--NE-[CZ] |==|  0.17431
USER: genes 9 Torsion [C]-CA--N-[C] |==|  0.72143
USER: genes 10 Torsion [N]-C--CA-[N] |==|  0.04613
USER: genes 11 Torsion [C]-CA--N-[H2] |==|  0.55049
USER: genes 12 Torsion [C]-N--CA-[C] |==|  0.59444
USER: genes 13 Torsion [N]-CA--C-[N] |==|  0.87610
USER: genes 14 Torsion [C]-N--CA-[CB] |==|  0.47399
USER: genes 15 Torsion [N]-CA--CB-[CG2] |==|  0.92619
USER: genes 16 Torsion [N]-CA--C-[N] |==|  0.47062
USER: genes 17 Torsion [C]-N--CA-[C] |==|  0.19150
USER: genes 18 Torsion [N]-CA--C-[O] |==|  0.34590
USER: genes 19 Torsion [N]-CA--CB-[CG] |==|  0.86462
USER: genes 20 Torsion [CA]-CB--CG-[CD2] |==|  0.86360
USER: genes 21 Torsion [N]-CA--CB-[CG] |==|  0.32918
USER: genes 22 Torsion [CA]-CB--CG-[CD] |==|  0.67592
USER: genes 23 Torsion [CB]-CG--CD-[OE2] |==|  0.41815
ROOT
ATOM      1  C   ALA B   3     -17.397 -28.236  -5.334  1.00 17.17 LIG 0.24  C 
ATOM      2 O    ALA B   3     -18.543 -28.054  -4.923  1.00 18.54 LIG-0.27  OA
ATOM      3  N   GLU B   4     -16.924 -27.656  -6.434  1.00 17.89 LIG-0.35  N 
ATOM      4 H    GLU B   4     -16.125 -27.775  -6.731  1.00 17.89 LIG 0.16  HD
ENDROOT
BRANCH 1 5
ATOM      5  CA  ALA B   3     -16.443 -29.161  -4.580  1.00 15.99 LIG 0.17  C 
ATOM      6  CB  ALA B   3     -16.031 -28.521  -3.258  1.00 16.21 LIG 0.04  C 
BRANCH 5 7
ATOM      7  N   ALA B   3     -15.255 -29.515  -5.348  1.00 13.91 LIG-0.35  N 
ATOM      8  C   ARG B   2     -15.163 -30.677  -5.989  1.00 12.46 LIG 0.24  C 
ATOM      9 O    ARG B   2     -16.066 -31.513  -5.985  1.00 11.56 LIG-0.27  OA
ATOM     10 H    ALA B   3     -14.637 -28.917  -5.345  1.00 13.91 LIG 0.16  HD
BRANCH 8 11
ATOM     11  CA  ARG B   2     -13.866 -30.944  -6.746  1.00 12.24 LIG 0.18  C 
BRANCH 11 12
ATOM     12  CB  ARG B   2     -13.259 -32.268  -6.276  1.00 10.58 LIG 0.04  C 
BRANCH 12 13
ATOM     13  CG  ARG B   2     -11.740 -32.273  -6.181  1.00  9.71 LIG 0.02  C 
BRANCH 13 14
ATOM     14  CD  ARG B   2     -11.122 -32.307  -7.570  1.00  9.44 LIG 0.14  C 
BRANCH 14 15
ATOM     15  NE  ARG B   2      -9.718 -31.901  -7.562  1.00  9.23 LIG-0.23  N 
ATOM     16  CZ  ARG B   2      -8.752 -32.549  -6.921  1.00  9.20 LIG 0.67  C 
ATOM     17  NH1 ARG B   2      -9.034 -33.643  -6.226  1.00  7.63 LIG-0.23  N 
ATOM     18  NH2 ARG B   2      -7.503 -32.104  -6.975  1.00  9.31 LIG-0.23  N 
ATOM     19 1HH1 ARG B   2      -9.843 -33.933  -6.191  1.00  7.63 LIG 0.17  HD
ATOM     20 2HH1 ARG B   2      -8.409 -34.062  -5.811  1.00  7.63 LIG 0.17  HD
ATOM     21 2HH2 ARG B   2      -6.879 -32.525  -6.560  1.00  9.31 LIG 0.17  HD
ATOM     22 1HH2 ARG B   2      -7.318 -31.396  -7.426  1.00  9.31 LIG 0.17  HD
ATOM     23 HE   ARG B   2      -9.502 -31.195  -8.002  1.00  9.23 LIG 0.18  HD
ENDBRANCH 14 15
ENDBRANCH 13 14
ENDBRANCH 12 13
ENDBRANCH 11 12
BRANCH 11 24
ATOM     24  N   ARG B   2     -12.858 -29.894  -6.646  1.00 12.50 LIG-0.35  N 
ATOM     25  C   ALA B   1     -12.651 -28.992  -7.598  1.00 14.33 LIG 0.25  C 
ATOM     26 O    ALA B   1     -13.313 -28.935  -8.632  1.00 14.72 LIG-0.27  OA
ATOM     27 H    ARG B   2     -12.410 -29.914  -5.913  1.00 12.50 LIG 0.16  HD
BRANCH 25 28
ATOM     28  CA  ALA B   1     -11.529 -27.995  -7.326  1.00 14.93 LIG 0.27  C 
ATOM     29  CB  ALA B   1     -10.721 -27.751  -8.595  1.00 16.58 LIG 0.05  C 
BRANCH 28 30
ATOM     30  N   ALA B   1     -10.637 -28.474  -6.234  1.00 16.58 LIG-0.07  N 
ATOM     31 H3   ALA B   1     -11.129 -28.826  -5.581  1.00 16.58 LIG 0.28  HD
ATOM     32 H1   ALA B   1     -10.082 -29.092  -6.554  1.00 16.58 LIG 0.28  HD
ATOM     33 H2   ALA B   1     -10.166 -27.791  -5.913  1.00 16.58 LIG 0.28  HD
ENDBRANCH 28 30
ENDBRANCH 25 28
ENDBRANCH 11 24
ENDBRANCH 8 11
ENDBRANCH 5 7
ENDBRANCH 1 5
BRANCH 3 34
ATOM     34  CA  GLU B   4     -17.736 -26.750  -7.244  1.00 20.15 LIG 0.18  C 
BRANCH 34 35
ATOM     35  C   GLU B   4     -17.385 -26.880  -8.724  1.00 19.92 LIG 0.24  C 
ATOM     36  N   VAL B   5     -16.091 -26.925  -9.025  1.00 19.46 LIG-0.35  N 
ATOM     37 H    VAL B   5     -15.459 -26.886  -8.442  1.00 19.46 LIG 0.16  HD
ATOM     38 O    GLU B   4     -18.271 -26.948  -9.576  1.00 20.03 LIG-0.27  OA
BRANCH 36 39
ATOM     39  CA  VAL B   5     -15.632 -27.049 -10.406  1.00 20.09 LIG 0.18  C 
BRANCH 39 40
ATOM     40  CB  VAL B   5     -14.102 -26.845 -10.508  1.00 20.49 LIG 0.01  C 
ATOM     41  CG2 VAL B   5     -13.614 -25.969  -9.368  1.00 19.70 LIG 0.01  C 
ATOM     42  CG1 VAL B   5     -13.748 -26.218 -11.846  1.00 21.00 LIG 0.01  C 
ENDBRANCH 39 40
BRANCH 39 43
ATOM     43  C   VAL B   5     -15.973 -28.420 -10.985  1.00 20.75 LIG 0.24  C 
ATOM     44  N   HIS B   6     -15.800 -28.571 -12.296  1.00 20.78 LIG-0.35  N 
ATOM     45 H    HIS B   6     -15.525 -27.947 -12.821  1.00 20.78 LIG 0.16  HD
ATOM     46 O    VAL B   5     -16.391 -29.322 -10.260  1.00 21.91 LIG-0.27  OA
BRANCH 44 47
ATOM     47  CA  HIS B   6     -16.072 -29.843 -12.956  1.00 21.28 LIG 0.17  C 
BRANCH 47 48
ATOM     48  C   HIS B   6     -17.571 -30.119 -12.949  1.00 23.03 LIG 0.22  C 
ATOM     49 O    HIS B   6     -18.138 -30.334 -14.041  1.00 25.39 LIG-0.29  OA
ENDBRANCH 47 48
BRANCH 47 50
ATOM     50  CB  HIS B   6     -15.347 -30.993 -12.252  1.00 19.33 LIG 0.09  C 
BRANCH 50 51
ATOM     51  CG  HIS B   6     -13.897 -30.717 -11.989  1.00 17.39 LIG 0.06  A 
ATOM     52  CD2 HIS B   6     -12.916 -30.256 -12.799  1.00 16.59 LIG 0.14  A 
ATOM     53 NE2  HIS B   6     -11.776 -30.153 -12.039  1.00 16.70 LIG-0.25  NA
ATOM     54  CE1 HIS B   6     -12.048 -30.540 -10.806  1.00 16.06 LIG 0.23  A 
ATOM     55 ND1  HIS B   6     -13.322 -30.885 -10.748  1.00 16.09 LIG-0.24  NA
ENDBRANCH 50 51
ENDBRANCH 47 50
ENDBRANCH 44 47
ENDBRANCH 39 43
ENDBRANCH 36 39
ENDBRANCH 34 35
BRANCH 34 56
ATOM     56  CB  GLU B   4     -17.512 -25.301  -6.804  1.00 22.38 LIG 0.04  C 
BRANCH 56 57
ATOM     57  CG  GLU B   4     -16.936 -24.395  -7.878  1.00 27.64 LIG 0.12  C 
BRANCH 57 58
ATOM     58  CD  GLU B   4     -15.566 -23.862  -7.507  1.00 30.78 LIG 0.17  C 
ATOM     59 OE2  GLU B   4     -14.757 -23.601  -8.424  1.00 32.62 LIG-0.65  OA
ATOM     60 OE1  GLU B   4     -15.297 -23.705  -6.297  1.00 32.75 LIG-0.65  OA
ENDBRANCH 57 58
ENDBRANCH 56 57
ENDBRANCH 34 56
ENDBRANCH 3 34
TORSDOF 22
ENDMDL
MODEL 29
USER: ADFR SOLUTION from run 117
USER: SCORE 16.613524 LL:  -4.610 LR: -14.092 RR:   0.000 FEB:  -7.529
USER: RMSD 5.507721
USER: SEED 116
USER: STATUS searching
USER: GENES 24
USER: genes 0 Translation |==|  0.36548 0.51240 0.45834
USER: genes 1 Rotation |==|  0.46651 0.84611 0.21072 0.71309
USER: genes 2 Torsion [N]-C--CA-[N] |==|  0.65870
USER: genes 3 Torsion [C]-CA--N-[C] |==|  0.54648
USER: genes 4 Torsion [N]-C--CA-[N] |==|  0.86765
USER: genes 5 Torsion [C]-CA--CB-[CG] |==|  0.07724
USER: genes 6 Torsion [CA]-CB--CG-[CD] |==|  0.64687
USER: genes 7 Torsion [CB]-CG--CD-[NE] |==|  0.99567
USER: genes 8 Torsion [CG]-CD--NE-[CZ] |==|  0.57094
USER: genes 9 Torsion [C]-CA--N-[C] |==|  0.82946
USER: genes 10 Torsion [N]-C--CA-[N] |==|  0.16601
USER: genes 11 Torsion [C]-CA--N-[H2] |==|  0.46880
USER: genes 12 Torsion [C]-N--CA-[C] |==|  0.69779
USER: genes 13 Torsion [N]-CA--C-[N] |==|  0.83394
USER: genes 14 Torsion [C]-N--CA-[CB] |==|  0.82149
USER: genes 15 Torsion [N]-CA--CB-[CG2] |==|  0.90611
USER: genes 16 Torsion [N]-CA--C-[N] |==|  0.02763
USER: genes 17 Torsion [C]-N--CA-[C] |==|  0.76663
USER: genes 18 Torsion [N]-CA--C-[O] |==|  0.39150
USER: genes 19 Torsion [N]-CA--CB-[CG] |==|  0.14081
USER: genes 20 Torsion [CA]-CB--CG-[CD2] |==|  0.06849
USER: genes 21 Torsion [N]-CA--CB-[CG] |==|  0.03468
USER: genes 22 Torsion [CA]-CB--CG-[CD] |==|  0.20742
USER: genes 23 Torsion [CB]-CG--CD-[OE2] |==|  0.23970
ROOT
ATOM      1  C   ALA B   3     -17.557 -27.801  -5.952  1.00 17.17 LIG 0.24  C 
ATOM      2 O    ALA B   3     -17.842 -27.076  -4.998  1.00 18.54 LIG-0.27  OA
ATOM      3  N   GLU B   4     -17.409 -29.118  -5.839  1.00 17.89 LIG-0.35  N 
ATOM      4 H    GLU B   4     -17.210 -29.634  -6.498  1.00 17.89 LIG 0.16  HD
ENDROOT
BRANCH 1 5
ATOM      5  CA  ALA B   3     -17.357 -27.202  -7.344  1.00 15.99 LIG 0.17  C 
ATOM      6  CB  ALA B   3     -17.026 -28.305  -8.344  1.00 16.21 LIG 0.04  C 
BRANCH 5 7
ATOM      7  N   ALA B   3     -16.326 -26.172  -7.386  1.00 13.91 LIG-0.35  N 
ATOM      8  C   ARG B   2     -16.236 -25.321  -8.404  1.00 12.46 LIG 0.24  C 
ATOM      9 O    ARG B   2     -17.011 -25.340  -9.359  1.00 11.56 LIG-0.27  OA
ATOM     10 H    ALA B   3     -15.798 -26.169  -6.707  1.00 13.91 LIG 0.16  HD
BRANCH 8 11
ATOM     11  CA  ARG B   2     -15.107 -24.297  -8.346  1.00 12.24 LIG 0.18  C 
BRANCH 11 12
ATOM     12  CB  ARG B   2     -13.778 -24.974  -8.691  1.00 10.58 LIG 0.04  C 
BRANCH 12 13
ATOM     13  CG  ARG B   2     -13.900 -26.185  -9.606  1.00  9.71 LIG 0.02  C 
BRANCH 13 14
ATOM     14  CD  ARG B   2     -13.198 -27.385  -8.992  1.00  9.44 LIG 0.14  C 
BRANCH 14 15
ATOM     15  NE  ARG B   2     -12.563 -27.063  -7.715  1.00  9.23 LIG-0.23  N 
ATOM     16  CZ  ARG B   2     -11.522 -27.714  -7.209  1.00  9.20 LIG 0.67  C 
ATOM     17  NH1 ARG B   2     -10.989 -28.733  -7.871  1.00  7.63 LIG-0.23  N 
ATOM     18  NH2 ARG B   2     -11.011 -27.345  -6.041  1.00  9.31 LIG-0.23  N 
ATOM     19 1HH1 ARG B   2     -11.318 -28.972  -8.629  1.00  7.63 LIG 0.17  HD
ATOM     20 2HH1 ARG B   2     -10.315 -29.154  -7.543  1.00  7.63 LIG 0.17  HD
ATOM     21 2HH2 ARG B   2     -10.337 -27.767  -5.714  1.00  9.31 LIG 0.17  HD
ATOM     22 1HH2 ARG B   2     -11.354 -26.685  -5.611  1.00  9.31 LIG 0.17  HD
ATOM     23 HE   ARG B   2     -12.885 -26.409  -7.261  1.00  9.23 LIG 0.18  HD
ENDBRANCH 14 15
ENDBRANCH 13 14
ENDBRANCH 12 13
ENDBRANCH 11 12
BRANCH 11 24
ATOM     24  N   ARG B   2     -14.968 -23.592  -7.076  1.00 12.50 LIG-0.35  N 
ATOM     25  C   ALA B   1     -15.921 -22.823  -6.563  1.00 14.33 LIG 0.25  C 
ATOM     26 O    ALA B   1     -17.020 -22.664  -7.091  1.00 14.72 LIG-0.27  OA
ATOM     27 H    ARG B   2     -14.211 -23.722  -6.690  1.00 12.50 LIG 0.16  HD
BRANCH 25 28
ATOM     28  CA  ALA B   1     -15.577 -22.143  -5.242  1.00 14.93 LIG 0.27  C 
ATOM     29  CB  ALA B   1     -16.769 -21.338  -4.738  1.00 16.58 LIG 0.05  C 
BRANCH 28 30
ATOM     30  N   ALA B   1     -14.386 -21.260  -5.386  1.00 16.58 LIG-0.07  N 
ATOM     31 H3   ALA B   1     -13.656 -21.760  -5.485  1.00 16.58 LIG 0.28  HD
ATOM     32 H1   ALA B   1     -14.488 -20.739  -6.099  1.00 16.58 LIG 0.28  HD
ATOM     33 H2   ALA B   1     -14.302 -20.754  -4.659  1.00 16.58 LIG 0.28  HD
ENDBRANCH 28 30
ENDBRANCH 25 28
ENDBRANCH 11 24
ENDBRANCH 8 11
ENDBRANCH 5 7
ENDBRANCH 1 5
BRANCH 3 34
ATOM     34  CA  GLU B   4     -17.574 -29.811  -4.563  1.00 20.15 LIG 0.18  C 
BRANCH 34 35
ATOM     35  C   GLU B   4     -16.229 -30.300  -4.031  1.00 19.92 LIG 0.24  C 
ATOM     36  N   VAL B   5     -15.558 -31.148  -4.803  1.00 19.46 LIG-0.35  N 
ATOM     37 H    VAL B   5     -15.837 -31.427  -5.568  1.00 19.46 LIG 0.16  HD
ATOM     38 O    GLU B   4     -15.804 -29.907  -2.944  1.00 20.03 LIG-0.27  OA
BRANCH 36 39
ATOM     39  CA  VAL B   5     -14.261 -31.683  -4.401  1.00 20.09 LIG 0.18  C 
BRANCH 39 40
ATOM     40  CB  VAL B   5     -13.200 -30.561  -4.296  1.00 20.49 LIG 0.01  C 
ATOM     41  CG2 VAL B   5     -13.465 -29.492  -5.342  1.00 19.70 LIG 0.01  C 
ATOM     42  CG1 VAL B   5     -11.808 -31.141  -4.474  1.00 21.00 LIG 0.01  C 
ENDBRANCH 39 40
BRANCH 39 43
ATOM     43  C   VAL B   5     -14.344 -32.391  -3.051  1.00 20.75 LIG 0.24  C 
ATOM     44  N   HIS B   6     -15.564 -32.595  -2.561  1.00 20.78 LIG-0.35  N 
ATOM     45 H    HIS B   6     -16.288 -32.343  -2.951  1.00 20.78 LIG 0.16  HD
ATOM     46 O    VAL B   5     -13.322 -32.739  -2.461  1.00 21.91 LIG-0.27  OA
BRANCH 44 47
ATOM     47  CA  HIS B   6     -15.767 -33.280  -1.289  1.00 21.28 LIG 0.17  C 
BRANCH 47 48
ATOM     48  C   HIS B   6     -15.757 -34.788  -1.507  1.00 23.03 LIG 0.22  C 
ATOM     49 O    HIS B   6     -15.195 -35.505  -0.651  1.00 25.39 LIG-0.29  OA
ENDBRANCH 47 48
BRANCH 47 50
ATOM     50  CB  HIS B   6     -17.100 -32.874  -0.654  1.00 19.33 LIG 0.09  C 
BRANCH 50 51
ATOM     51  CG  HIS B   6     -18.268 -32.987  -1.586  1.00 17.39 LIG 0.06  A 
ATOM     52  CD2 HIS B   6     -18.461 -33.753  -2.686  1.00 16.59 LIG 0.14  A 
ATOM     53 NE2  HIS B   6     -19.729 -33.490  -3.147  1.00 16.70 LIG-0.25  NA
ATOM     54  CE1 HIS B   6     -20.293 -32.592  -2.359  1.00 16.06 LIG 0.23  A 
ATOM     55 ND1  HIS B   6     -19.432 -32.271  -1.409  1.00 16.09 LIG-0.24  NA
ENDBRANCH 50 51
ENDBRANCH 47 50
ENDBRANCH 44 47
ENDBRANCH 39 43
ENDBRANCH 36 39
ENDBRANCH 34 35
BRANCH 34 56
ATOM     56  CB  GLU B   4     -18.511 -31.011  -4.730  1.00 22.38 LIG 0.04  C 
BRANCH 56 57
ATOM     57  CG  GLU B   4     -18.804 -31.388  -6.171  1.00 27.64 LIG 0.12  C 
BRANCH 57 58
ATOM     58  CD  GLU B   4     -17.632 -32.086  -6.833  1.00 30.78 LIG 0.17  C 
ATOM     59 OE2  GLU B   4     -17.521 -33.324  -6.701  1.00 32.62 LIG-0.65  OA
ATOM     60 OE1  GLU B   4     -16.821 -31.395  -7.485  1.00 32.75 LIG-0.65  OA
ENDBRANCH 57 58
ENDBRANCH 56 57
ENDBRANCH 34 56
ENDBRANCH 3 34
TORSDOF 22
ENDMDL
MODEL 30
USER: ADFR SOLUTION from run 161
USER: SCORE 16.167810 LL:  -3.942 LR: -14.059 RR:   0.000 FEB:  -7.497
USER: RMSD 4.070121
USER: SEED 160
USER: STATUS no improvement in best in 14 clusters for 5 generations
USER: GENES 24
USER: genes 0 Translation |==|  0.33344 0.48392 0.47051
USER: genes 1 Rotation |==|  0.58132 0.86524 0.34241 0.79180
USER: genes 2 Torsion [N]-C--CA-[N] |==|  0.83226
USER: genes 3 Torsion [C]-CA--N-[C] |==|  0.20215
USER: genes 4 Torsion [N]-C--CA-[N] |==|  0.35047
USER: genes 5 Torsion [C]-CA--CB-[CG] |==|  0.07930
USER: genes 6 Torsion [CA]-CB--CG-[CD] |==|  0.21018
USER: genes 7 Torsion [CB]-CG--CD-[NE] |==|  0.68310
USER: genes 8 Torsion [CG]-CD--NE-[CZ] |==|  0.62762
USER: genes 9 Torsion [C]-CA--N-[C] |==|  0.64622
USER: genes 10 Torsion [N]-C--CA-[N] |==|  0.26329
USER: genes 11 Torsion [C]-CA--N-[H2] |==|  0.27852
USER: genes 12 Torsion [C]-N--CA-[C] |==|  0.85091
USER: genes 13 Torsion [N]-CA--C-[N] |==|  0.37685
USER: genes 14 Torsion [C]-N--CA-[CB] |==|  0.52832
USER: genes 15 Torsion [N]-CA--CB-[CG2] |==|  0.43630
USER: genes 16 Torsion [N]-CA--C-[N] |==|  0.37918
USER: genes 17 Torsion [C]-N--CA-[C] |==|  0.85765
USER: genes 18 Torsion [N]-CA--C-[O] |==|  0.51866
USER: genes 19 Torsion [N]-CA--CB-[CG] |==|  0.17919
USER: genes 20 Torsion [CA]-CB--CG-[CD2] |==|  0.97258
USER: genes 21 Torsion [N]-CA--CB-[CG] |==|  0.65689
USER: genes 22 Torsion [CA]-CB--CG-[CD] |==|  0.88144
USER: genes 23 Torsion [CB]-CG--CD-[OE2] |==|  0.76314
ROOT
ATOM      1  C   ALA B   3     -18.134 -28.463  -5.687  1.00 17.17 LIG 0.24  C 
ATOM      2 O    ALA B   3     -18.886 -28.437  -4.712  1.00 18.54 LIG-0.27  OA
ATOM      3  N   GLU B   4     -17.766 -29.593  -6.286  1.00 17.89 LIG-0.35  N 
ATOM      4 H    GLU B   4     -17.242 -29.623  -6.967  1.00 17.89 LIG 0.16  HD
ENDROOT
BRANCH 1 5
ATOM      5  CA  ALA B   3     -17.577 -27.164  -6.268  1.00 15.99 LIG 0.17  C 
ATOM      6  CB  ALA B   3     -18.072 -26.976  -7.698  1.00 16.21 LIG 0.04  C 
BRANCH 5 7
ATOM      7  N   ALA B   3     -16.120 -27.096  -6.236  1.00 13.91 LIG-0.35  N 
ATOM      8  C   ARG B   2     -15.373 -27.825  -7.061  1.00 12.46 LIG 0.24  C 
ATOM      9 O    ARG B   2     -15.855 -28.586  -7.899  1.00 11.56 LIG-0.27  OA
ATOM     10 H    ALA B   3     -15.801 -26.554  -5.649  1.00 13.91 LIG 0.16  HD
BRANCH 8 11
ATOM     11  CA  ARG B   2     -13.861 -27.683  -6.925  1.00 12.24 LIG 0.18  C 
BRANCH 11 12
ATOM     12  CB  ARG B   2     -13.299 -26.957  -8.149  1.00 10.58 LIG 0.04  C 
BRANCH 12 13
ATOM     13  CG  ARG B   2     -14.267 -25.988  -8.814  1.00  9.71 LIG 0.02  C 
BRANCH 13 14
ATOM     14  CD  ARG B   2     -14.392 -24.716  -7.993  1.00  9.44 LIG 0.14  C 
BRANCH 14 15
ATOM     15  NE  ARG B   2     -15.730 -24.549  -7.429  1.00  9.23 LIG-0.23  N 
ATOM     16  CZ  ARG B   2     -16.422 -23.416  -7.458  1.00  9.20 LIG 0.67  C 
ATOM     17  NH1 ARG B   2     -15.903 -22.335  -8.027  1.00  7.63 LIG-0.23  N 
ATOM     18  NH2 ARG B   2     -17.634 -23.362  -6.921  1.00  9.31 LIG-0.23  N 
ATOM     19 1HH1 ARG B   2     -15.118 -22.369  -8.377  1.00  7.63 LIG 0.17  HD
ATOM     20 2HH1 ARG B   2     -16.351 -21.602  -8.046  1.00  7.63 LIG 0.17  HD
ATOM     21 2HH2 ARG B   2     -18.081 -22.628  -6.941  1.00  9.31 LIG 0.17  HD
ATOM     22 1HH2 ARG B   2     -17.973 -24.062  -6.553  1.00  9.31 LIG 0.17  HD
ATOM     23 HE   ARG B   2     -16.094 -25.230  -7.052  1.00  9.23 LIG 0.18  HD
ENDBRANCH 14 15
ENDBRANCH 13 14
ENDBRANCH 12 13
ENDBRANCH 11 12
BRANCH 11 24
ATOM     24  N   ARG B   2     -13.132 -28.933  -6.734  1.00 12.50 LIG-0.35  N 
ATOM     25  C   ALA B   1     -12.275 -29.131  -5.740  1.00 14.33 LIG 0.25  C 
ATOM     26 O    ALA B   1     -12.045 -28.295  -4.868  1.00 14.72 LIG-0.27  OA
ATOM     27 H    ARG B   2     -13.310 -29.530  -7.327  1.00 12.50 LIG 0.16  HD
BRANCH 25 28
ATOM     28  CA  ALA B   1     -11.585 -30.491  -5.727  1.00 14.93 LIG 0.27  C 
ATOM     29  CB  ALA B   1     -11.417 -30.983  -4.295  1.00 16.58 LIG 0.05  C 
BRANCH 28 30
ATOM     30  N   ALA B   1     -10.261 -30.429  -6.407  1.00 16.58 LIG-0.07  N 
ATOM     31 H3   ALA B   1     -10.143 -31.164  -6.896  1.00 16.58 LIG 0.28  HD
ATOM     32 H1   ALA B   1     -10.232 -29.713  -6.935  1.00 16.58 LIG 0.28  HD
ATOM     33 H2   ALA B   1      -9.616 -30.373  -5.797  1.00 16.58 LIG 0.28  HD
ENDBRANCH 28 30
ENDBRANCH 25 28
ENDBRANCH 11 24
ENDBRANCH 8 11
ENDBRANCH 5 7
ENDBRANCH 1 5
BRANCH 3 34
ATOM     34  CA  GLU B   4     -18.230 -30.901  -5.827  1.00 20.15 LIG 0.18  C 
BRANCH 34 35
ATOM     35  C   GLU B   4     -17.940 -31.091  -4.340  1.00 19.92 LIG 0.24  C 
ATOM     36  N   VAL B   5     -18.919 -31.610  -3.607  1.00 19.46 LIG-0.35  N 
ATOM     37 H    VAL B   5     -19.687 -31.839  -3.921  1.00 19.46 LIG 0.16  HD
ATOM     38 O    GLU B   4     -16.846 -30.779  -3.870  1.00 20.03 LIG-0.27  OA
BRANCH 36 39
ATOM     39  CA  VAL B   5     -18.760 -31.839  -2.174  1.00 20.09 LIG 0.18  C 
BRANCH 39 40
ATOM     40  CB  VAL B   5     -19.931 -32.676  -1.607  1.00 20.49 LIG 0.01  C 
ATOM     41  CG2 VAL B   5     -19.505 -33.371  -0.325  1.00 19.70 LIG 0.01  C 
ATOM     42  CG1 VAL B   5     -20.388 -33.697  -2.635  1.00 21.00 LIG 0.01  C 
ENDBRANCH 39 40
BRANCH 39 43
ATOM     43  C   VAL B   5     -17.456 -32.571  -1.868  1.00 20.75 LIG 0.24  C 
ATOM     44  N   HIS B   6     -16.749 -32.121  -0.835  1.00 20.78 LIG-0.35  N 
ATOM     45 H    HIS B   6     -16.979 -31.447  -0.351  1.00 20.78 LIG 0.16  HD
ATOM     46 O    VAL B   5     -17.093 -33.522  -2.560  1.00 21.91 LIG-0.27  OA
BRANCH 44 47
ATOM     47  CA  HIS B   6     -15.498 -32.755  -0.436  1.00 21.28 LIG 0.17  C 
BRANCH 47 48
ATOM     48  C   HIS B   6     -15.706 -34.256  -0.278  1.00 23.03 LIG 0.22  C 
ATOM     49 O    HIS B   6     -14.766 -34.938   0.184  1.00 25.39 LIG-0.29  OA
ENDBRANCH 47 48
BRANCH 47 50
ATOM     50  CB  HIS B   6     -14.987 -32.177   0.888  1.00 19.33 LIG 0.09  C 
BRANCH 50 51
ATOM     51  CG  HIS B   6     -15.891 -32.454   2.051  1.00 17.39 LIG 0.06  A 
ATOM     52  CD2 HIS B   6     -17.144 -32.964   2.106  1.00 16.59 LIG 0.14  A 
ATOM     53 NE2  HIS B   6     -17.494 -33.040   3.433  1.00 16.70 LIG-0.25  NA
ATOM     54  CE1 HIS B   6     -16.492 -32.590   4.166  1.00 16.06 LIG 0.23  A 
ATOM     55 ND1  HIS B   6     -15.511 -32.230   3.357  1.00 16.09 LIG-0.24  NA
ENDBRANCH 50 51
ENDBRANCH 47 50
ENDBRANCH 44 47
ENDBRANCH 39 43
ENDBRANCH 36 39
ENDBRANCH 34 35
BRANCH 34 56
ATOM     56  CB  GLU B   4     -17.539 -32.015  -6.618  1.00 22.38 LIG 0.04  C 
BRANCH 56 57
ATOM     57  CG  GLU B   4     -18.486 -32.970  -7.323  1.00 27.64 LIG 0.12  C 
BRANCH 57 58
ATOM     58  CD  GLU B   4     -19.665 -33.358  -6.452  1.00 30.78 LIG 0.17  C 
ATOM     59 OE2  GLU B   4     -19.530 -34.310  -5.653  1.00 32.62 LIG-0.65  OA
ATOM     60 OE1  GLU B   4     -20.727 -32.711  -6.568  1.00 32.75 LIG-0.65  OA
ENDBRANCH 57 58
ENDBRANCH 56 57
ENDBRANCH 34 56
ENDBRANCH 3 34
TORSDOF 22
ENDMDL
MODEL 31
USER: ADFR SOLUTION from run 77
USER: SCORE 17.943938 LL:  -4.409 LR: -14.021 RR:   0.000 FEB:  -7.458
USER: RMSD 8.703538
USER: SEED 76
USER: STATUS no improvement in best in 5 clusters for 5 generations
USER: GENES 24
USER: genes 0 Translation |==|  0.73815 0.50354 0.24385
USER: genes 1 Rotation |==|  0.85343 0.41457 0.49493 0.84317
USER: genes 2 Torsion [N]-C--CA-[N] |==|  0.96972
USER: genes 3 Torsion [C]-CA--N-[C] |==|  0.79493
USER: genes 4 Torsion [N]-C--CA-[N] |==|  0.89326
USER: genes 5 Torsion [C]-CA--CB-[CG] |==|  0.87502
USER: genes 6 Torsion [CA]-CB--CG-[CD] |==|  0.30849
USER: genes 7 Torsion [CB]-CG--CD-[NE] |==|  0.70799
USER: genes 8 Torsion [CG]-CD--NE-[CZ] |==|  0.31504
USER: genes 9 Torsion [C]-CA--N-[C] |==|  0.79107
USER: genes 10 Torsion [N]-C--CA-[N] |==|  0.94638
USER: genes 11 Torsion [C]-CA--N-[H2] |==|  0.26322
USER: genes 12 Torsion [C]-N--CA-[C] |==|  0.72486
USER: genes 13 Torsion [N]-CA--C-[N] |==|  0.41446
USER: genes 14 Torsion [C]-N--CA-[CB] |==|  0.76081
USER: genes 15 Torsion [N]-CA--CB-[CG2] |==|  0.50187
USER: genes 16 Torsion [N]-CA--C-[N] |==|  0.20115
USER: genes 17 Torsion [C]-N--CA-[C] |==|  0.66283
USER: genes 18 Torsion [N]-CA--C-[O] |==|  0.04177
USER: genes 19 Torsion [N]-CA--CB-[CG] |==|  0.14596
USER: genes 20 Torsion [CA]-CB--CG-[CD2] |==|  0.32239
USER: genes 21 Torsion [N]-CA--CB-[CG] |==|  0.76517
USER: genes 22 Torsion [CA]-CB--CG-[CD] |==|  0.61755
USER: genes 23 Torsion [CB]-CG--CD-[OE2] |==|  0.29171
ROOT
ATOM      1  C   ALA B   3     -10.849 -28.007 -10.617  1.00 17.17 LIG 0.24  C 
ATOM      2 O    ALA B   3     -11.208 -27.144 -11.420  1.00 18.54 LIG-0.27  OA
ATOM      3  N   GLU B   4     -10.429 -29.213 -10.992  1.00 17.89 LIG-0.35  N 
ATOM      4 H    GLU B   4     -10.177 -29.822 -10.441  1.00 17.89 LIG 0.16  HD
ENDROOT
BRANCH 1 5
ATOM      5  CA  ALA B   3     -10.871 -27.721  -9.116  1.00 15.99 LIG 0.17  C 
ATOM      6  CB  ALA B   3      -9.826 -26.666  -8.770  1.00 16.21 LIG 0.04  C 
BRANCH 5 7
ATOM      7  N   ALA B   3     -10.662 -28.911  -8.300  1.00 13.91 LIG-0.35  N 
ATOM      8  C   ARG B   2     -11.612 -29.830  -8.155  1.00 12.46 LIG 0.24  C 
ATOM      9 O    ARG B   2     -12.712 -29.743  -8.700  1.00 11.56 LIG-0.27  OA
ATOM     10 H    ALA B   3      -9.886 -28.959  -7.932  1.00 13.91 LIG 0.16  HD
BRANCH 8 11
ATOM     11  CA  ARG B   2     -11.284 -31.024  -7.264  1.00 12.24 LIG 0.18  C 
BRANCH 11 12
ATOM     12  CB  ARG B   2     -11.576 -30.672  -5.803  1.00 10.58 LIG 0.04  C 
BRANCH 12 13
ATOM     13  CG  ARG B   2     -11.073 -29.304  -5.365  1.00  9.71 LIG 0.02  C 
BRANCH 13 14
ATOM     14  CD  ARG B   2     -12.241 -28.367  -5.105  1.00  9.44 LIG 0.14  C 
BRANCH 14 15
ATOM     15  NE  ARG B   2     -12.409 -27.381  -6.171  1.00  9.23 LIG-0.23  N 
ATOM     16  CZ  ARG B   2     -13.449 -27.335  -6.994  1.00  9.20 LIG 0.67  C 
ATOM     17  NH1 ARG B   2     -14.427 -28.225  -6.880  1.00  7.63 LIG-0.23  N 
ATOM     18  NH2 ARG B   2     -13.515 -26.397  -7.931  1.00  9.31 LIG-0.23  N 
ATOM     19 1HH1 ARG B   2     -14.386 -28.832  -6.272  1.00  7.63 LIG 0.17  HD
ATOM     20 2HH1 ARG B   2     -15.101 -28.194  -7.413  1.00  7.63 LIG 0.17  HD
ATOM     21 2HH2 ARG B   2     -14.190 -26.369  -8.464  1.00  9.31 LIG 0.17  HD
ATOM     22 1HH2 ARG B   2     -12.884 -25.819  -8.006  1.00  9.31 LIG 0.17  HD
ATOM     23 HE   ARG B   2     -11.792 -26.791  -6.271  1.00  9.23 LIG 0.18  HD
ENDBRANCH 14 15
ENDBRANCH 13 14
ENDBRANCH 12 13
ENDBRANCH 11 12
BRANCH 11 24
ATOM     24  N   ARG B   2      -9.919 -31.526  -7.370  1.00 12.50 LIG-0.35  N 
ATOM     25  C   ALA B   1      -9.486 -32.245  -8.399  1.00 14.33 LIG 0.25  C 
ATOM     26 O    ALA B   1     -10.185 -32.522  -9.372  1.00 14.72 LIG-0.27  OA
ATOM     27 H    ARG B   2      -9.419 -31.311  -6.704  1.00 12.50 LIG 0.16  HD
BRANCH 25 28
ATOM     28  CA  ALA B   1      -8.035 -32.708  -8.314  1.00 14.93 LIG 0.27  C 
ATOM     29  CB  ALA B   1      -7.973 -34.181  -7.929  1.00 16.58 LIG 0.05  C 
BRANCH 28 30
ATOM     30  N   ALA B   1      -7.266 -31.889  -7.336  1.00 16.58 LIG-0.07  N 
ATOM     31 H3   ALA B   1      -6.429 -31.791  -7.624  1.00 16.58 LIG 0.28  HD
ATOM     32 H1   ALA B   1      -7.647 -31.089  -7.254  1.00 16.58 LIG 0.28  HD
ATOM     33 H2   ALA B   1      -7.261 -32.297  -6.546  1.00 16.58 LIG 0.28  HD
ENDBRANCH 28 30
ENDBRANCH 25 28
ENDBRANCH 11 24
ENDBRANCH 8 11
ENDBRANCH 5 7
ENDBRANCH 1 5
BRANCH 3 34
ATOM     34  CA  GLU B   4     -10.361 -29.609 -12.397  1.00 20.15 LIG 0.18  C 
BRANCH 34 35
ATOM     35  C   GLU B   4     -11.580 -30.441 -12.788  1.00 19.92 LIG 0.24  C 
ATOM     36  N   VAL B   5     -11.988 -30.339 -14.049  1.00 19.46 LIG-0.35  N 
ATOM     37 H    VAL B   5     -11.608 -29.842 -14.639  1.00 19.46 LIG 0.16  HD
ATOM     38 O    GLU B   4     -12.135 -31.167 -11.963  1.00 20.03 LIG-0.27  OA
BRANCH 36 39
ATOM     39  CA  VAL B   5     -13.142 -31.087 -14.540  1.00 20.09 LIG 0.18  C 
BRANCH 39 40
ATOM     40  CB  VAL B   5     -12.734 -32.505 -15.005  1.00 20.49 LIG 0.01  C 
ATOM     41  CG2 VAL B   5     -13.948 -33.254 -15.526  1.00 19.70 LIG 0.01  C 
ATOM     42  CG1 VAL B   5     -12.094 -33.267 -13.857  1.00 21.00 LIG 0.01  C 
ENDBRANCH 39 40
BRANCH 39 43
ATOM     43  C   VAL B   5     -14.215 -31.227 -13.462  1.00 20.75 LIG 0.24  C 
ATOM     44  N   HIS B   6     -14.904 -30.129 -13.164  1.00 20.78 LIG-0.35  N 
ATOM     45 H    HIS B   6     -14.770 -29.361 -13.529  1.00 20.78 LIG 0.16  HD
ATOM     46 O    VAL B   5     -14.409 -32.307 -12.907  1.00 21.91 LIG-0.27  OA
BRANCH 44 47
ATOM     47  CA  HIS B   6     -15.967 -30.148 -12.166  1.00 21.28 LIG 0.17  C 
BRANCH 47 48
ATOM     48  C   HIS B   6     -17.279 -29.700 -12.799  1.00 23.03 LIG 0.22  C 
ATOM     49 O    HIS B   6     -17.354 -29.670 -14.046  1.00 25.39 LIG-0.29  OA
ENDBRANCH 47 48
BRANCH 47 50
ATOM     50  CB  HIS B   6     -15.635 -29.221 -10.992  1.00 19.33 LIG 0.09  C 
BRANCH 50 51
ATOM     51  CG  HIS B   6     -15.278 -27.827 -11.410  1.00 17.39 LIG 0.06  A 
ATOM     52  CD2 HIS B   6     -15.886 -26.641 -11.173  1.00 16.59 LIG 0.14  A 
ATOM     53 NE2  HIS B   6     -15.117 -25.665 -11.761  1.00 16.70 LIG-0.25  NA
ATOM     54  CE1 HIS B   6     -14.075 -26.233 -12.340  1.00 16.06 LIG 0.23  A 
ATOM     55 ND1  HIS B   6     -14.148 -27.538 -12.143  1.00 16.09 LIG-0.24  NA
ENDBRANCH 50 51
ENDBRANCH 47 50
ENDBRANCH 44 47
ENDBRANCH 39 43
ENDBRANCH 36 39
ENDBRANCH 34 35
BRANCH 34 56
ATOM     56  CB  GLU B   4      -9.093 -30.428 -12.655  1.00 22.38 LIG 0.04  C 
BRANCH 56 57
ATOM     57  CG  GLU B   4      -7.851 -29.599 -12.928  1.00 27.64 LIG 0.12  C 
BRANCH 57 58
ATOM     58  CD  GLU B   4      -7.019 -30.166 -14.063  1.00 30.78 LIG 0.17  C 
ATOM     59 OE2  GLU B   4      -7.049 -29.589 -15.171  1.00 32.62 LIG-0.65  OA
ATOM     60 OE1  GLU B   4      -6.337 -31.189 -13.845  1.00 32.75 LIG-0.65  OA
ENDBRANCH 57 58
ENDBRANCH 56 57
ENDBRANCH 34 56
ENDBRANCH 3 34
TORSDOF 22
ENDMDL
MODEL 32
USER: ADFR SOLUTION from run 158
USER: SCORE 16.699754 LL:  -4.449 LR: -14.007 RR:   0.000 FEB:  -7.445
USER: RMSD 9.757379
USER: SEED 157
USER: STATUS no improvement in best in 14 clusters for 5 generations
USER: GENES 24
USER: genes 0 Translation |==|  0.48233 0.42633 0.53092
USER: genes 1 Rotation |==|  0.03099 0.65652 0.42950 0.52370
USER: genes 2 Torsion [N]-C--CA-[N] |==|  0.43137
USER: genes 3 Torsion [C]-CA--N-[C] |==|  0.56059
USER: genes 4 Torsion [N]-C--CA-[N] |==|  0.35137
USER: genes 5 Torsion [C]-CA--CB-[CG] |==|  0.17983
USER: genes 6 Torsion [CA]-CB--CG-[CD] |==|  0.47140
USER: genes 7 Torsion [CB]-CG--CD-[NE] |==|  0.84893
USER: genes 8 Torsion [CG]-CD--NE-[CZ] |==|  0.53229
USER: genes 9 Torsion [C]-CA--N-[C] |==|  0.73383
USER: genes 10 Torsion [N]-C--CA-[N] |==|  0.49476
USER: genes 11 Torsion [C]-CA--N-[H2] |==|  0.98487
USER: genes 12 Torsion [C]-N--CA-[C] |==|  0.70556
USER: genes 13 Torsion [N]-CA--C-[N] |==|  0.50911
USER: genes 14 Torsion [C]-N--CA-[CB] |==|  0.83635
USER: genes 15 Torsion [N]-CA--CB-[CG2] |==|  0.87640
USER: genes 16 Torsion [N]-CA--C-[N] |==|  0.15446
USER: genes 17 Torsion [C]-N--CA-[C] |==|  0.64975
USER: genes 18 Torsion [N]-CA--C-[O] |==|  0.75416
USER: genes 19 Torsion [N]-CA--CB-[CG] |==|  0.83307
USER: genes 20 Torsion [CA]-CB--CG-[CD2] |==|  0.92964
USER: genes 21 Torsion [N]-CA--CB-[CG] |==|  0.13965
USER: genes 22 Torsion [CA]-CB--CG-[CD] |==|  0.72992
USER: genes 23 Torsion [CB]-CG--CD-[OE2] |==|  0.98924
ROOT
ATOM      1  C   ALA B   3     -15.454 -29.802  -4.373  1.00 17.17 LIG 0.24  C 
ATOM      2 O    ALA B   3     -15.819 -28.801  -3.755  1.00 18.54 LIG-0.27  OA
ATOM      3  N   GLU B   4     -14.396 -29.806  -5.181  1.00 17.89 LIG-0.35  N 
ATOM      4 H    GLU B   4     -14.132 -30.498  -5.618  1.00 17.89 LIG 0.16  HD
ENDROOT
BRANCH 1 5
ATOM      5  CA  ALA B   3     -16.220 -31.117  -4.237  1.00 15.99 LIG 0.17  C 
ATOM      6  CB  ALA B   3     -17.174 -31.291  -5.414  1.00 16.21 LIG 0.04  C 
BRANCH 5 7
ATOM      7  N   ALA B   3     -16.957 -31.228  -2.983  1.00 13.91 LIG-0.35  N 
ATOM      8  C   ARG B   2     -17.317 -32.410  -2.491  1.00 12.46 LIG 0.24  C 
ATOM      9 O    ARG B   2     -17.047 -33.473  -3.048  1.00 11.56 LIG-0.27  OA
ATOM     10 H    ALA B   3     -17.131 -30.475  -2.605  1.00 13.91 LIG 0.16  HD
BRANCH 8 11
ATOM     11  CA  ARG B   2     -18.099 -32.400  -1.181  1.00 12.24 LIG 0.18  C 
BRANCH 11 12
ATOM     12  CB  ARG B   2     -17.223 -32.951  -0.054  1.00 10.58 LIG 0.04  C 
BRANCH 12 13
ATOM     13  CG  ARG B   2     -15.999 -32.106   0.272  1.00  9.71 LIG 0.02  C 
BRANCH 13 14
ATOM     14  CD  ARG B   2     -15.345 -32.593   1.554  1.00  9.44 LIG 0.14  C 
BRANCH 14 15
ATOM     15  NE  ARG B   2     -16.286 -32.645   2.672  1.00  9.23 LIG-0.23  N 
ATOM     16  CZ  ARG B   2     -15.936 -32.821   3.941  1.00  9.20 LIG 0.67  C 
ATOM     17  NH1 ARG B   2     -14.657 -32.964   4.263  1.00  7.63 LIG-0.23  N 
ATOM     18  NH2 ARG B   2     -16.864 -32.851   4.889  1.00  9.31 LIG-0.23  N 
ATOM     19 1HH1 ARG B   2     -14.054 -32.944   3.650  1.00  7.63 LIG 0.17  HD
ATOM     20 2HH1 ARG B   2     -14.431 -33.077   5.085  1.00  7.63 LIG 0.17  HD
ATOM     21 2HH2 ARG B   2     -16.636 -32.964   5.710  1.00  9.31 LIG 0.17  HD
ATOM     22 1HH2 ARG B   2     -17.693 -32.757   4.682  1.00  9.31 LIG 0.17  HD
ATOM     23 HE   ARG B   2     -17.122 -32.557   2.496  1.00  9.23 LIG 0.18  HD
ENDBRANCH 14 15
ENDBRANCH 13 14
ENDBRANCH 12 13
ENDBRANCH 11 12
BRANCH 11 24
ATOM     24  N   ARG B   2     -19.363 -33.129  -1.204  1.00 12.50 LIG-0.35  N 
ATOM     25  C   ALA B   1     -20.534 -32.546  -1.427  1.00 14.33 LIG 0.25  C 
ATOM     26 O    ALA B   1     -20.659 -31.348  -1.672  1.00 14.72 LIG-0.27  OA
ATOM     27 H    ARG B   2     -19.277 -33.972  -1.060  1.00 12.50 LIG 0.16  HD
BRANCH 25 28
ATOM     28  CA  ALA B   1     -21.748 -33.469  -1.378  1.00 14.93 LIG 0.27  C 
ATOM     29  CB  ALA B   1     -21.613 -34.573  -2.420  1.00 16.58 LIG 0.05  C 
BRANCH 28 30
ATOM     30  N   ALA B   1     -23.010 -32.710  -1.596  1.00 16.58 LIG-0.07  N 
ATOM     31 H3   ALA B   1     -23.386 -32.970  -2.359  1.00 16.58 LIG 0.28  HD
ATOM     32 H1   ALA B   1     -23.570 -32.865  -0.921  1.00 16.58 LIG 0.28  HD
ATOM     33 H2   ALA B   1     -22.830 -31.839  -1.637  1.00 16.58 LIG 0.28  HD
ENDBRANCH 28 30
ENDBRANCH 25 28
ENDBRANCH 11 24
ENDBRANCH 8 11
ENDBRANCH 5 7
ENDBRANCH 1 5
BRANCH 3 34
ATOM     34  CA  GLU B   4     -13.581 -28.612  -5.397  1.00 20.15 LIG 0.18  C 
BRANCH 34 35
ATOM     35  C   GLU B   4     -13.848 -28.012  -6.775  1.00 19.92 LIG 0.24  C 
ATOM     36  N   VAL B   5     -13.114 -26.958  -7.115  1.00 19.46 LIG-0.35  N 
ATOM     37 H    VAL B   5     -12.511 -26.607  -6.611  1.00 19.46 LIG 0.16  HD
ATOM     38 O    GLU B   4     -14.698 -28.502  -7.519  1.00 20.03 LIG-0.27  OA
BRANCH 36 39
ATOM     39  CA  VAL B   5     -13.279 -26.299  -8.408  1.00 20.09 LIG 0.18  C 
BRANCH 39 40
ATOM     40  CB  VAL B   5     -13.027 -27.283  -9.575  1.00 20.49 LIG 0.01  C 
ATOM     41  CG2 VAL B   5     -11.785 -28.114  -9.299  1.00 19.70 LIG 0.01  C 
ATOM     42  CG1 VAL B   5     -12.873 -26.518 -10.878  1.00 21.00 LIG 0.01  C 
ENDBRANCH 39 40
BRANCH 39 43
ATOM     43  C   VAL B   5     -14.683 -25.721  -8.564  1.00 20.75 LIG 0.24  C 
ATOM     44  N   HIS B   6     -15.086 -24.875  -7.619  1.00 20.78 LIG-0.35  N 
ATOM     45 H    HIS B   6     -14.612 -24.653  -6.936  1.00 20.78 LIG 0.16  HD
ATOM     46 O    VAL B   5     -15.391 -26.041  -9.518  1.00 21.91 LIG-0.27  OA
BRANCH 44 47
ATOM     47  CA  HIS B   6     -16.400 -24.245  -7.674  1.00 21.28 LIG 0.17  C 
BRANCH 47 48
ATOM     48  C   HIS B   6     -16.253 -22.732  -7.571  1.00 23.03 LIG 0.22  C 
ATOM     49 O    HIS B   6     -16.246 -22.215  -6.434  1.00 25.39 LIG-0.29  OA
ENDBRANCH 47 48
BRANCH 47 50
ATOM     50  CB  HIS B   6     -17.295 -24.741  -6.534  1.00 19.33 LIG 0.09  C 
BRANCH 50 51
ATOM     51  CG  HIS B   6     -17.533 -26.220  -6.558  1.00 17.39 LIG 0.06  A 
ATOM     52  CD2 HIS B   6     -17.503 -27.112  -7.576  1.00 16.59 LIG 0.14  A 
ATOM     53 NE2  HIS B   6     -17.761 -28.351  -7.038  1.00 16.70 LIG-0.25  NA
ATOM     54  CE1 HIS B   6     -17.945 -28.223  -5.737  1.00 16.06 LIG 0.23  A 
ATOM     55 ND1  HIS B   6     -17.812 -26.946  -5.421  1.00 16.09 LIG-0.24  NA
ENDBRANCH 50 51
ENDBRANCH 47 50
ENDBRANCH 44 47
ENDBRANCH 39 43
ENDBRANCH 36 39
ENDBRANCH 34 35
BRANCH 34 56
ATOM     56  CB  GLU B   4     -12.094 -28.959  -5.283  1.00 22.38 LIG 0.04  C 
BRANCH 56 57
ATOM     57  CG  GLU B   4     -11.658 -30.153  -6.113  1.00 27.64 LIG 0.12  C 
BRANCH 57 58
ATOM     58  CD  GLU B   4     -11.608 -31.432  -5.299  1.00 30.78 LIG 0.17  C 
ATOM     59 OE2  GLU B   4     -11.841 -31.369  -4.073  1.00 32.62 LIG-0.65  OA
ATOM     60 OE1  GLU B   4     -11.333 -32.500  -5.887  1.00 32.75 LIG-0.65  OA
ENDBRANCH 57 58
ENDBRANCH 56 57
ENDBRANCH 34 56
ENDBRANCH 3 34
TORSDOF 22
ENDMDL
MODEL 33
USER: ADFR SOLUTION from run 197
USER: SCORE 16.911049 LL:  -4.805 LR: -13.977 RR:   0.000 FEB:  -7.414
USER: RMSD 4.581990
USER: SEED 196
USER: STATUS no improvement in best in 6 clusters for 5 generations
USER: GENES 24
USER: genes 0 Translation |==|  0.35832 0.42576 0.49235
USER: genes 1 Rotation |==|  0.46890 0.03853 0.56928 0.67686
USER: genes 2 Torsion [N]-C--CA-[N] |==|  0.55564
USER: genes 3 Torsion [C]-CA--N-[C] |==|  0.17752
USER: genes 4 Torsion [N]-C--CA-[N] |==|  0.30271
USER: genes 5 Torsion [C]-CA--CB-[CG] |==|  0.22335
USER: genes 6 Torsion [CA]-CB--CG-[CD] |==|  0.66971
USER: genes 7 Torsion [CB]-CG--CD-[NE] |==|  0.47119
USER: genes 8 Torsion [CG]-CD--NE-[CZ] |==|  0.81171
USER: genes 9 Torsion [C]-CA--N-[C] |==|  0.78744
USER: genes 10 Torsion [N]-C--CA-[N] |==|  0.20127
USER: genes 11 Torsion [C]-CA--N-[H2] |==|  0.88077
USER: genes 12 Torsion [C]-N--CA-[C] |==|  0.17024
USER: genes 13 Torsion [N]-CA--C-[N] |==|  0.18065
USER: genes 14 Torsion [C]-N--CA-[CB] |==|  0.75861
USER: genes 15 Torsion [N]-CA--CB-[CG2] |==|  0.15596
USER: genes 16 Torsion [N]-CA--C-[N] |==|  0.15556
USER: genes 17 Torsion [C]-N--CA-[C] |==|  0.67148
USER: genes 18 Torsion [N]-CA--C-[O] |==|  0.25580
USER: genes 19 Torsion [N]-CA--CB-[CG] |==|  0.78127
USER: genes 20 Torsion [CA]-CB--CG-[CD2] |==|  0.39357
USER: genes 21 Torsion [N]-CA--CB-[CG] |==|  0.65121
USER: genes 22 Torsion [CA]-CB--CG-[CD] |==|  0.93733
USER: genes 23 Torsion [CB]-CG--CD-[OE2] |==|  0.84324
ROOT
ATOM      1  C   ALA B   3     -17.686 -29.815  -5.212  1.00 17.17 LIG 0.24  C 
ATOM      2 O    ALA B   3     -16.685 -30.491  -4.973  1.00 18.54 LIG-0.27  OA
ATOM      3  N   GLU B   4     -18.881 -30.352  -5.450  1.00 17.89 LIG-0.35  N 
ATOM      4 H    GLU B   4     -19.586 -29.890  -5.618  1.00 17.89 LIG 0.16  HD
ENDROOT
BRANCH 1 5
ATOM      5  CA  ALA B   3     -17.598 -28.290  -5.247  1.00 15.99 LIG 0.17  C 
ATOM      6  CB  ALA B   3     -18.511 -27.739  -6.338  1.00 16.21 LIG 0.04  C 
BRANCH 5 7
ATOM      7  N   ALA B   3     -16.241 -27.795  -5.443  1.00 13.91 LIG-0.35  N 
ATOM      8  C   ARG B   2     -15.565 -28.043  -6.561  1.00 12.46 LIG 0.24  C 
ATOM      9 O    ARG B   2     -16.038 -28.690  -7.495  1.00 11.56 LIG-0.27  OA
ATOM     10 H    ALA B   3     -15.929 -27.340  -4.783  1.00 13.91 LIG 0.16  HD
BRANCH 8 11
ATOM     11  CA  ARG B   2     -14.147 -27.488  -6.646  1.00 12.24 LIG 0.18  C 
BRANCH 11 12
ATOM     12  CB  ARG B   2     -13.986 -26.678  -7.934  1.00 10.58 LIG 0.04  C 
BRANCH 12 13
ATOM     13  CG  ARG B   2     -14.540 -25.262  -7.868  1.00  9.71 LIG 0.02  C 
BRANCH 13 14
ATOM     14  CD  ARG B   2     -15.645 -25.076  -8.895  1.00  9.44 LIG 0.14  C 
BRANCH 14 15
ATOM     15  NE  ARG B   2     -16.369 -23.820  -8.710  1.00  9.23 LIG-0.23  N 
ATOM     16  CZ  ARG B   2     -17.153 -23.550  -7.673  1.00  9.20 LIG 0.67  C 
ATOM     17  NH1 ARG B   2     -17.321 -24.454  -6.715  1.00  7.63 LIG-0.23  N 
ATOM     18  NH2 ARG B   2     -17.768 -22.377  -7.590  1.00  9.31 LIG-0.23  N 
ATOM     19 1HH1 ARG B   2     -16.923 -25.214  -6.767  1.00  7.63 LIG 0.17  HD
ATOM     20 2HH1 ARG B   2     -17.829 -24.279  -6.044  1.00  7.63 LIG 0.17  HD
ATOM     21 2HH2 ARG B   2     -18.275 -22.204  -6.917  1.00  9.31 LIG 0.17  HD
ATOM     22 1HH2 ARG B   2     -17.659 -21.790  -8.208  1.00  9.31 LIG 0.17  HD
ATOM     23 HE   ARG B   2     -16.282 -23.214  -9.313  1.00  9.23 LIG 0.18  HD
ENDBRANCH 14 15
ENDBRANCH 13 14
ENDBRANCH 12 13
ENDBRANCH 11 12
BRANCH 11 24
ATOM     24  N   ARG B   2     -13.082 -28.483  -6.571  1.00 12.50 LIG-0.35  N 
ATOM     25  C   ALA B   1     -12.705 -29.062  -5.437  1.00 14.33 LIG 0.25  C 
ATOM     26 O    ALA B   1     -13.242 -28.841  -4.353  1.00 14.72 LIG-0.27  OA
ATOM     27 H    ARG B   2     -12.721 -28.660  -7.331  1.00 12.50 LIG 0.16  HD
BRANCH 25 28
ATOM     28  CA  ALA B   1     -11.551 -30.052  -5.556  1.00 14.93 LIG 0.27  C 
ATOM     29  CB  ALA B   1     -11.457 -30.905  -4.296  1.00 16.58 LIG 0.05  C 
BRANCH 28 30
ATOM     30  N   ALA B   1     -10.261 -29.348  -5.796  1.00 16.58 LIG-0.07  N 
ATOM     31 H3   ALA B   1      -9.969 -28.994  -5.033  1.00 16.58 LIG 0.28  HD
ATOM     32 H1   ALA B   1      -9.660 -29.927  -6.104  1.00 16.58 LIG 0.28  HD
ATOM     33 H2   ALA B   1     -10.383 -28.701  -6.394  1.00 16.58 LIG 0.28  HD
ENDBRANCH 28 30
ENDBRANCH 25 28
ENDBRANCH 11 24
ENDBRANCH 8 11
ENDBRANCH 5 7
ENDBRANCH 1 5
BRANCH 3 34
ATOM     34  CA  GLU B   4     -19.097 -31.797  -5.444  1.00 20.15 LIG 0.18  C 
BRANCH 34 35
ATOM     35  C   GLU B   4     -18.777 -32.390  -4.074  1.00 19.92 LIG 0.24  C 
ATOM     36  N   VAL B   5     -19.557 -32.009  -3.067  1.00 19.46 LIG-0.35  N 
ATOM     37 H    VAL B   5     -20.214 -31.460  -3.148  1.00 19.46 LIG 0.16  HD
ATOM     38 O    GLU B   4     -17.847 -33.185  -3.935  1.00 20.03 LIG-0.27  OA
BRANCH 36 39
ATOM     39  CA  VAL B   5     -19.349 -32.509  -1.711  1.00 20.09 LIG 0.18  C 
BRANCH 39 40
ATOM     40  CB  VAL B   5     -20.097 -33.845  -1.486  1.00 20.49 LIG 0.01  C 
ATOM     41  CG2 VAL B   5     -19.664 -34.867  -2.522  1.00 19.70 LIG 0.01  C 
ATOM     42  CG1 VAL B   5     -21.598 -33.622  -1.558  1.00 21.00 LIG 0.01  C 
ENDBRANCH 39 40
BRANCH 39 43
ATOM     43  C   VAL B   5     -17.868 -32.734  -1.420  1.00 20.75 LIG 0.24  C 
ATOM     44  N   HIS B   6     -17.063 -31.689  -1.592  1.00 20.78 LIG-0.35  N 
ATOM     45 H    HIS B   6     -17.327 -30.916  -1.863  1.00 20.78 LIG 0.16  HD
ATOM     46 O    VAL B   5     -17.461 -33.836  -1.055  1.00 21.91 LIG-0.27  OA
BRANCH 44 47
ATOM     47  CA  HIS B   6     -15.632 -31.781  -1.324  1.00 21.28 LIG 0.17  C 
BRANCH 47 48
ATOM     48  C   HIS B   6     -15.250 -30.811  -0.212  1.00 23.03 LIG 0.22  C 
ATOM     49 O    HIS B   6     -15.254 -31.231   0.965  1.00 25.39 LIG-0.29  OA
ENDBRANCH 47 48
BRANCH 47 50
ATOM     50  CB  HIS B   6     -14.817 -31.451  -2.579  1.00 19.33 LIG 0.09  C 
BRANCH 50 51
ATOM     51  CG  HIS B   6     -14.742 -32.581  -3.560  1.00 17.39 LIG 0.06  A 
ATOM     52  CD2 HIS B   6     -14.774 -32.591  -4.913  1.00 16.59 LIG 0.14  A 
ATOM     53 NE2  HIS B   6     -14.633 -33.898  -5.314  1.00 16.70 LIG-0.25  NA
ATOM     54  CE1 HIS B   6     -14.521 -34.664  -4.243  1.00 16.06 LIG 0.23  A 
ATOM     55 ND1  HIS B   6     -14.584 -33.893  -3.171  1.00 16.09 LIG-0.24  NA
ENDBRANCH 50 51
ENDBRANCH 47 50
ENDBRANCH 44 47
ENDBRANCH 39 43
ENDBRANCH 36 39
ENDBRANCH 34 35
BRANCH 34 56
ATOM     56  CB  GLU B   4     -18.212 -32.469  -6.498  1.00 22.38 LIG 0.04  C 
BRANCH 56 57
ATOM     57  CG  GLU B   4     -18.961 -33.344  -7.487  1.00 27.64 LIG 0.12  C 
BRANCH 57 58
ATOM     58  CD  GLU B   4     -20.295 -33.815  -6.943  1.00 30.78 LIG 0.17  C 
ATOM     59 OE2  GLU B   4     -20.312 -34.442  -5.862  1.00 32.62 LIG-0.65  OA
ATOM     60 OE1  GLU B   4     -21.328 -33.558  -7.597  1.00 32.75 LIG-0.65  OA
ENDBRANCH 57 58
ENDBRANCH 56 57
ENDBRANCH 34 56
ENDBRANCH 3 34
TORSDOF 22
ENDMDL
MODEL 34
USER: ADFR SOLUTION from run 181
USER: SCORE 17.953827 LL:  -4.828 LR: -13.979 RR:   0.000 FEB:  -7.416
USER: RMSD 6.492080
USER: SEED 180
USER: STATUS no improvement in best in 3 clusters for 5 generations
USER: GENES 24
USER: genes 0 Translation |==|  0.56266 0.47698 0.19133
USER: genes 1 Rotation |==|  0.65632 0.04328 0.58973 0.59445
USER: genes 2 Torsion [N]-C--CA-[N] |==|  0.32004
USER: genes 3 Torsion [C]-CA--N-[C] |==|  0.82600
USER: genes 4 Torsion [N]-C--CA-[N] |==|  0.52376
USER: genes 5 Torsion [C]-CA--CB-[CG] |==|  0.20180
USER: genes 6 Torsion [CA]-CB--CG-[CD] |==|  0.16436
USER: genes 7 Torsion [CB]-CG--CD-[NE] |==|  0.36911
USER: genes 8 Torsion [CG]-CD--NE-[CZ] |==|  0.60090
USER: genes 9 Torsion [C]-CA--N-[C] |==|  0.58185
USER: genes 10 Torsion [N]-C--CA-[N] |==|  0.52795
USER: genes 11 Torsion [C]-CA--N-[H2] |==|  0.14643
USER: genes 12 Torsion [C]-N--CA-[C] |==|  0.16041
USER: genes 13 Torsion [N]-CA--C-[N] |==|  0.08465
USER: genes 14 Torsion [C]-N--CA-[CB] |==|  0.85435
USER: genes 15 Torsion [N]-CA--CB-[CG2] |==|  0.78167
USER: genes 16 Torsion [N]-CA--C-[N] |==|  0.34454
USER: genes 17 Torsion [C]-N--CA-[C] |==|  0.60624
USER: genes 18 Torsion [N]-CA--C-[O] |==|  0.63279
USER: genes 19 Torsion [N]-CA--CB-[CG] |==|  0.80121
USER: genes 20 Torsion [CA]-CB--CG-[CD2] |==|  0.38583
USER: genes 21 Torsion [N]-CA--CB-[CG] |==|  0.57253
USER: genes 22 Torsion [CA]-CB--CG-[CD] |==|  0.54144
USER: genes 23 Torsion [CB]-CG--CD-[OE2] |==|  0.02797
ROOT
ATOM      1  C   ALA B   3     -14.008 -28.624 -11.760  1.00 17.17 LIG 0.24  C 
ATOM      2 O    ALA B   3     -12.860 -28.461 -11.346  1.00 18.54 LIG-0.27  OA
ATOM      3  N   GLU B   4     -14.421 -29.761 -12.315  1.00 17.89 LIG-0.35  N 
ATOM      4 H    GLU B   4     -15.220 -29.886 -12.608  1.00 17.89 LIG 0.16  HD
ENDROOT
BRANCH 1 5
ATOM      5  CA  ALA B   3     -15.036 -27.499 -11.650  1.00 15.99 LIG 0.17  C 
ATOM      6  CB  ALA B   3     -14.537 -26.262 -12.390  1.00 16.21 LIG 0.04  C 
BRANCH 5 7
ATOM      7  N   ALA B   3     -15.366 -27.151 -10.273  1.00 13.91 LIG-0.35  N 
ATOM      8  C   ARG B   2     -15.937 -28.028  -9.453  1.00 12.46 LIG 0.24  C 
ATOM      9 O    ARG B   2     -16.211 -29.178  -9.795  1.00 11.56 LIG-0.27  OA
ATOM     10 H    ALA B   3     -15.162 -26.346 -10.050  1.00 13.91 LIG 0.16  HD
BRANCH 8 11
ATOM     11  CA  ARG B   2     -16.251 -27.546  -8.041  1.00 12.24 LIG 0.18  C 
BRANCH 11 12
ATOM     12  CB  ARG B   2     -15.029 -26.837  -7.454  1.00 10.58 LIG 0.04  C 
BRANCH 12 13
ATOM     13  CG  ARG B   2     -14.744 -25.464  -8.048  1.00  9.71 LIG 0.02  C 
BRANCH 13 14
ATOM     14  CD  ARG B   2     -15.933 -24.540  -7.840  1.00  9.44 LIG 0.14  C 
BRANCH 14 15
ATOM     15  NE  ARG B   2     -15.534 -23.230  -7.327  1.00  9.23 LIG-0.23  N 
ATOM     16  CZ  ARG B   2     -16.237 -22.520  -6.453  1.00  9.20 LIG 0.67  C 
ATOM     17  NH1 ARG B   2     -17.386 -22.990  -5.985  1.00  7.63 LIG-0.23  N 
ATOM     18  NH2 ARG B   2     -15.791 -21.339  -6.043  1.00  9.31 LIG-0.23  N 
ATOM     19 1HH1 ARG B   2     -17.676 -23.756  -6.249  1.00  7.63 LIG 0.17  HD
ATOM     20 2HH1 ARG B   2     -17.841 -22.530  -5.419  1.00  7.63 LIG 0.17  HD
ATOM     21 2HH2 ARG B   2     -16.247 -20.880  -5.476  1.00  9.31 LIG 0.17  HD
ATOM     22 1HH2 ARG B   2     -15.046 -21.033  -6.344  1.00  9.31 LIG 0.17  HD
ATOM     23 HE   ARG B   2     -14.795 -22.897  -7.612  1.00  9.23 LIG 0.18  HD
ENDBRANCH 14 15
ENDBRANCH 13 14
ENDBRANCH 12 13
ENDBRANCH 11 12
BRANCH 11 24
ATOM     24  N   ARG B   2     -16.694 -28.581  -7.112  1.00 12.50 LIG-0.35  N 
ATOM     25  C   ALA B   1     -17.515 -28.344  -6.096  1.00 14.33 LIG 0.25  C 
ATOM     26 O    ALA B   1     -18.006 -27.241  -5.866  1.00 14.72 LIG-0.27  OA
ATOM     27 H    ARG B   2     -16.373 -29.360  -7.285  1.00 12.50 LIG 0.16  HD
BRANCH 25 28
ATOM     28  CA  ALA B   1     -17.836 -29.548  -5.215  1.00 14.93 LIG 0.27  C 
ATOM     29  CB  ALA B   1     -18.209 -30.747  -6.078  1.00 16.58 LIG 0.05  C 
BRANCH 28 30
ATOM     30  N   ALA B   1     -18.939 -29.238  -4.263  1.00 16.58 LIG-0.07  N 
ATOM     31 H3   ALA B   1     -19.180 -29.981  -3.836  1.00 16.58 LIG 0.28  HD
ATOM     32 H1   ALA B   1     -18.660 -28.633  -3.673  1.00 16.58 LIG 0.28  HD
ATOM     33 H2   ALA B   1     -19.636 -28.915  -4.712  1.00 16.58 LIG 0.28  HD
ENDBRANCH 28 30
ENDBRANCH 25 28
ENDBRANCH 11 24
ENDBRANCH 8 11
ENDBRANCH 5 7
ENDBRANCH 1 5
BRANCH 3 34
ATOM     34  CA  GLU B   4     -13.535 -30.912 -12.477  1.00 20.15 LIG 0.18  C 
BRANCH 34 35
ATOM     35  C   GLU B   4     -12.971 -31.358 -11.130  1.00 19.92 LIG 0.24  C 
ATOM     36  N   VAL B   5     -13.742 -31.153 -10.067  1.00 19.46 LIG-0.35  N 
ATOM     37 H    VAL B   5     -14.522 -30.791 -10.100  1.00 19.46 LIG 0.16  HD
ATOM     38 O    GLU B   4     -11.861 -31.886 -11.058  1.00 20.03 LIG-0.27  OA
BRANCH 36 39
ATOM     39  CA  VAL B   5     -13.310 -31.537  -8.726  1.00 20.09 LIG 0.18  C 
BRANCH 39 40
ATOM     40  CB  VAL B   5     -12.860 -33.017  -8.686  1.00 20.49 LIG 0.01  C 
ATOM     41  CG2 VAL B   5     -14.071 -33.931  -8.638  1.00 19.70 LIG 0.01  C 
ATOM     42  CG1 VAL B   5     -11.967 -33.258  -7.480  1.00 21.00 LIG 0.01  C 
ENDBRANCH 39 40
BRANCH 39 43
ATOM     43  C   VAL B   5     -12.150 -30.670  -8.244  1.00 20.75 LIG 0.24  C 
ATOM     44  N   HIS B   6     -12.326 -30.029  -7.092  1.00 20.78 LIG-0.35  N 
ATOM     45 H    HIS B   6     -13.046 -30.068  -6.623  1.00 20.78 LIG 0.16  HD
ATOM     46 O    VAL B   5     -11.118 -30.578  -8.907  1.00 21.91 LIG-0.27  OA
BRANCH 44 47
ATOM     47  CA  HIS B   6     -11.278 -29.189  -6.522  1.00 21.28 LIG 0.17  C 
BRANCH 47 48
ATOM     48  C   HIS B   6     -11.251 -29.351  -5.007  1.00 23.03 LIG 0.22  C 
ATOM     49 O    HIS B   6     -11.213 -28.319  -4.303  1.00 25.39 LIG-0.29  OA
ENDBRANCH 47 48
BRANCH 47 50
ATOM     50  CB  HIS B   6     -11.510 -27.714  -6.865  1.00 19.33 LIG 0.09  C 
BRANCH 50 51
ATOM     51  CG  HIS B   6     -11.257 -27.385  -8.305  1.00 17.39 LIG 0.06  A 
ATOM     52  CD2 HIS B   6     -11.930 -26.591  -9.171  1.00 16.59 LIG 0.14  A 
ATOM     53 NE2  HIS B   6     -11.245 -26.616 -10.362  1.00 16.70 LIG-0.25  NA
ATOM     54  CE1 HIS B   6     -10.190 -27.401 -10.232  1.00 16.06 LIG 0.23  A 
ATOM     55 ND1  HIS B   6     -10.173 -27.877  -9.000  1.00 16.09 LIG-0.24  NA
ENDBRANCH 50 51
ENDBRANCH 47 50
ENDBRANCH 44 47
ENDBRANCH 39 43
ENDBRANCH 36 39
ENDBRANCH 34 35
BRANCH 34 56
ATOM     56  CB  GLU B   4     -12.376 -30.561 -13.413  1.00 22.38 LIG 0.04  C 
BRANCH 56 57
ATOM     57  CG  GLU B   4     -11.771 -31.747 -14.142  1.00 27.64 LIG 0.12  C 
BRANCH 57 58
ATOM     58  CD  GLU B   4     -10.426 -31.417 -14.760  1.00 30.78 LIG 0.17  C 
ATOM     59 OE2  GLU B   4      -9.881 -30.333 -14.462  1.00 32.62 LIG-0.65  OA
ATOM     60 OE1  GLU B   4      -9.915 -32.243 -15.546  1.00 32.75 LIG-0.65  OA
ENDBRANCH 57 58
ENDBRANCH 56 57
ENDBRANCH 34 56
ENDBRANCH 3 34
TORSDOF 22
ENDMDL
MODEL 35
USER: ADFR SOLUTION from run 55
USER: SCORE 16.386883 LL:  -5.021 LR: -13.967 RR:   0.000 FEB:  -7.404
USER: RMSD 8.652056
USER: SEED 54
USER: STATUS no improvement in best in 10 clusters for 5 generations
USER: GENES 24
USER: genes 0 Translation |==|  0.41652 0.48397 0.35578
USER: genes 1 Rotation |==|  0.40357 0.85696 0.83657 0.50068
USER: genes 2 Torsion [N]-C--CA-[N] |==|  0.59539
USER: genes 3 Torsion [C]-CA--N-[C] |==|  0.65467
USER: genes 4 Torsion [N]-C--CA-[N] |==|  0.93893
USER: genes 5 Torsion [C]-CA--CB-[CG] |==|  0.30844
USER: genes 6 Torsion [CA]-CB--CG-[CD] |==|  0.70289
USER: genes 7 Torsion [CB]-CG--CD-[NE] |==|  0.16868
USER: genes 8 Torsion [CG]-CD--NE-[CZ] |==|  0.61750
USER: genes 9 Torsion [C]-CA--N-[C] |==|  0.73876
USER: genes 10 Torsion [N]-C--CA-[N] |==|  0.43903
USER: genes 11 Torsion [C]-CA--N-[H2] |==|  0.57553
USER: genes 12 Torsion [C]-N--CA-[C] |==|  0.14708
USER: genes 13 Torsion [N]-CA--C-[N] |==|  0.10577
USER: genes 14 Torsion [C]-N--CA-[CB] |==|  0.38328
USER: genes 15 Torsion [N]-CA--CB-[CG2] |==|  0.90752
USER: genes 16 Torsion [N]-CA--C-[N] |==|  0.77165
USER: genes 17 Torsion [C]-N--CA-[C] |==|  0.55912
USER: genes 18 Torsion [N]-CA--C-[O] |==|  0.77568
USER: genes 19 Torsion [N]-CA--CB-[CG] |==|  0.07451
USER: genes 20 Torsion [CA]-CB--CG-[CD2] |==|  0.16235
USER: genes 21 Torsion [N]-CA--CB-[CG] |==|  0.85041
USER: genes 22 Torsion [CA]-CB--CG-[CD] |==|  0.29241
USER: genes 23 Torsion [CB]-CG--CD-[OE2] |==|  0.48659
ROOT
ATOM      1  C   ALA B   3     -16.639 -28.462  -8.183  1.00 17.17 LIG 0.24  C 
ATOM      2 O    ALA B   3     -15.584 -28.945  -8.598  1.00 18.54 LIG-0.27  OA
ATOM      3  N   GLU B   4     -17.365 -27.599  -8.890  1.00 17.89 LIG-0.35  N 
ATOM      4 H    GLU B   4     -18.102 -27.255  -8.611  1.00 17.89 LIG 0.16  HD
ENDROOT
BRANCH 1 5
ATOM      5  CA  ALA B   3     -17.173 -28.842  -6.802  1.00 15.99 LIG 0.17  C 
ATOM      6  CB  ALA B   3     -18.122 -27.761  -6.294  1.00 16.21 LIG 0.04  C 
BRANCH 5 7
ATOM      7  N   ALA B   3     -16.120 -29.075  -5.821  1.00 13.91 LIG-0.35  N 
ATOM      8  C   ARG B   2     -16.037 -30.220  -5.150  1.00 12.46 LIG 0.24  C 
ATOM      9 O    ARG B   2     -16.827 -31.149  -5.318  1.00 11.56 LIG-0.27  OA
ATOM     10 H    ALA B   3     -15.573 -28.418  -5.722  1.00 13.91 LIG 0.16  HD
BRANCH 8 11
ATOM     11  CA  ARG B   2     -14.903 -30.344  -4.137  1.00 12.24 LIG 0.18  C 
BRANCH 11 12
ATOM     12  CB  ARG B   2     -15.449 -30.126  -2.724  1.00 10.58 LIG 0.04  C 
BRANCH 12 13
ATOM     13  CG  ARG B   2     -15.452 -31.369  -1.845  1.00  9.71 LIG 0.02  C 
BRANCH 13 14
ATOM     14  CD  ARG B   2     -16.870 -31.886  -1.664  1.00  9.44 LIG 0.14  C 
BRANCH 14 15
ATOM     15  NE  ARG B   2     -17.490 -32.260  -2.934  1.00  9.23 LIG-0.23  N 
ATOM     16  CZ  ARG B   2     -18.744 -31.980  -3.269  1.00  9.20 LIG 0.67  C 
ATOM     17  NH1 ARG B   2     -19.525 -31.318  -2.424  1.00  7.63 LIG-0.23  N 
ATOM     18  NH2 ARG B   2     -19.218 -32.359  -4.449  1.00  9.31 LIG-0.23  N 
ATOM     19 1HH1 ARG B   2     -19.219 -31.070  -1.660  1.00  7.63 LIG 0.17  HD
ATOM     20 2HH1 ARG B   2     -20.337 -31.136  -2.642  1.00  7.63 LIG 0.17  HD
ATOM     21 2HH2 ARG B   2     -20.030 -32.176  -4.664  1.00  9.31 LIG 0.17  HD
ATOM     22 1HH2 ARG B   2     -18.714 -32.787  -4.998  1.00  9.31 LIG 0.17  HD
ATOM     23 HE   ARG B   2     -17.011 -32.691  -3.502  1.00  9.23 LIG 0.18  HD
ENDBRANCH 14 15
ENDBRANCH 13 14
ENDBRANCH 12 13
ENDBRANCH 11 12
BRANCH 11 24
ATOM     24  N   ARG B   2     -13.772 -29.449  -4.355  1.00 12.50 LIG-0.35  N 
ATOM     25  C   ALA B   1     -12.688 -29.800  -5.037  1.00 14.33 LIG 0.25  C 
ATOM     26 O    ALA B   1     -12.553 -30.896  -5.577  1.00 14.72 LIG-0.27  OA
ATOM     27 H    ARG B   2     -13.873 -28.672  -4.001  1.00 12.50 LIG 0.16  HD
BRANCH 25 28
ATOM     28  CA  ALA B   1     -11.596 -28.738  -5.129  1.00 14.93 LIG 0.27  C 
ATOM     29  CB  ALA B   1     -11.947 -27.714  -6.201  1.00 16.58 LIG 0.05  C 
BRANCH 28 30
ATOM     30  N   ALA B   1     -10.272 -29.353  -5.421  1.00 16.58 LIG-0.07  N 
ATOM     31 H3   ALA B   1     -10.227 -30.157  -5.041  1.00 16.58 LIG 0.28  HD
ATOM     32 H1   ALA B   1     -10.170 -29.435  -6.301  1.00 16.58 LIG 0.28  HD
ATOM     33 H2   ALA B   1      -9.626 -28.836  -5.095  1.00 16.58 LIG 0.28  HD
ENDBRANCH 28 30
ENDBRANCH 25 28
ENDBRANCH 11 24
ENDBRANCH 8 11
ENDBRANCH 5 7
ENDBRANCH 1 5
BRANCH 3 34
ATOM     34  CA  GLU B   4     -16.963 -27.157 -10.223  1.00 20.15 LIG 0.18  C 
BRANCH 34 35
ATOM     35  C   GLU B   4     -16.691 -28.352 -11.134  1.00 19.92 LIG 0.24  C 
ATOM     36  N   VAL B   5     -17.500 -29.397 -10.997  1.00 19.46 LIG-0.35  N 
ATOM     37 H    VAL B   5     -18.151 -29.432 -10.436  1.00 19.46 LIG 0.16  HD
ATOM     38 O    GLU B   4     -15.770 -28.321 -11.951  1.00 20.03 LIG-0.27  OA
BRANCH 36 39
ATOM     39  CA  VAL B   5     -17.338 -30.598 -11.813  1.00 20.09 LIG 0.18  C 
BRANCH 39 40
ATOM     40  CB  VAL B   5     -17.520 -31.879 -10.964  1.00 20.49 LIG 0.01  C 
ATOM     41  CG2 VAL B   5     -17.011 -31.648  -9.552  1.00 19.70 LIG 0.01  C 
ATOM     42  CG1 VAL B   5     -16.783 -33.041 -11.609  1.00 21.00 LIG 0.01  C 
ENDBRANCH 39 40
BRANCH 39 43
ATOM     43  C   VAL B   5     -18.347 -30.634 -12.958  1.00 20.75 LIG 0.24  C 
ATOM     44  N   HIS B   6     -19.565 -31.080 -12.662  1.00 20.78 LIG-0.35  N 
ATOM     45 H    HIS B   6     -19.803 -31.353 -11.881  1.00 20.78 LIG 0.16  HD
ATOM     46 O    VAL B   5     -18.026 -30.273 -14.089  1.00 21.91 LIG-0.27  OA
BRANCH 44 47
ATOM     47  CA  HIS B   6     -20.617 -31.140 -13.671  1.00 21.28 LIG 0.17  C 
BRANCH 47 48
ATOM     48  C   HIS B   6     -21.982 -31.168 -12.994  1.00 23.03 LIG 0.22  C 
ATOM     49 O    HIS B   6     -22.397 -32.259 -12.546  1.00 25.39 LIG-0.29  OA
ENDBRANCH 47 48
BRANCH 47 50
ATOM     50  CB  HIS B   6     -20.467 -32.386 -14.548  1.00 19.33 LIG 0.09  C 
BRANCH 50 51
ATOM     51  CG  HIS B   6     -19.772 -33.523 -13.861  1.00 17.39 LIG 0.06  A 
ATOM     52  CD2 HIS B   6     -20.073 -34.197 -12.726  1.00 16.59 LIG 0.14  A 
ATOM     53 NE2  HIS B   6     -19.120 -35.174 -12.569  1.00 16.70 LIG-0.25  NA
ATOM     54  CE1 HIS B   6     -18.262 -35.101 -13.571  1.00 16.06 LIG 0.23  A 
ATOM     55 ND1  HIS B   6     -18.634 -34.112 -14.366  1.00 16.09 LIG-0.24  NA
ENDBRANCH 50 51
ENDBRANCH 47 50
ENDBRANCH 44 47
ENDBRANCH 39 43
ENDBRANCH 36 39
ENDBRANCH 34 35
BRANCH 34 56
ATOM     56  CB  GLU B   4     -15.700 -26.296 -10.138  1.00 22.38 LIG 0.04  C 
BRANCH 56 57
ATOM     57  CG  GLU B   4     -15.800 -25.122  -9.180  1.00 27.64 LIG 0.12  C 
BRANCH 57 58
ATOM     58  CD  GLU B   4     -15.027 -25.359  -7.897  1.00 30.78 LIG 0.17  C 
ATOM     59 OE2  GLU B   4     -14.953 -24.431  -7.063  1.00 32.62 LIG-0.65  OA
ATOM     60 OE1  GLU B   4     -14.494 -26.476  -7.723  1.00 32.75 LIG-0.65  OA
ENDBRANCH 57 58
ENDBRANCH 56 57
ENDBRANCH 34 56
ENDBRANCH 3 34
TORSDOF 22
ENDMDL
MODEL 36
USER: ADFR SOLUTION from run 15
USER: SCORE 15.699061 LL:  -4.649 LR: -13.952 RR:   0.000 FEB:  -7.389
USER: RMSD 7.964605
USER: SEED 310011
USER: STATUS no improvement in best in 13 clusters for 5 generations
USER: GENES 24
USER: genes 0 Translation |==|  0.43727 0.49874 0.32192
USER: genes 1 Rotation |==|  0.61019 0.04567 0.34014 0.57674
USER: genes 2 Torsion [N]-C--CA-[N] |==|  0.40078
USER: genes 3 Torsion [C]-CA--N-[C] |==|  0.56560
USER: genes 4 Torsion [N]-C--CA-[N] |==|  0.70245
USER: genes 5 Torsion [C]-CA--CB-[CG] |==|  0.78041
USER: genes 6 Torsion [CA]-CB--CG-[CD] |==|  0.37885
USER: genes 7 Torsion [CB]-CG--CD-[NE] |==|  0.02630
USER: genes 8 Torsion [CG]-CD--NE-[CZ] |==|  0.35238
USER: genes 9 Torsion [C]-CA--N-[C] |==|  0.05897
USER: genes 10 Torsion [N]-C--CA-[N] |==|  0.19907
USER: genes 11 Torsion [C]-CA--N-[H2] |==|  0.02513
USER: genes 12 Torsion [C]-N--CA-[C] |==|  0.14250
USER: genes 13 Torsion [N]-CA--C-[N] |==|  0.12964
USER: genes 14 Torsion [C]-N--CA-[CB] |==|  0.40703
USER: genes 15 Torsion [N]-CA--CB-[CG2] |==|  0.20941
USER: genes 16 Torsion [N]-CA--C-[N] |==|  0.89057
USER: genes 17 Torsion [C]-N--CA-[C] |==|  0.12786
USER: genes 18 Torsion [N]-CA--C-[O] |==|  0.32863
USER: genes 19 Torsion [N]-CA--CB-[CG] |==|  0.91457
USER: genes 20 Torsion [CA]-CB--CG-[CD2] |==|  0.79520
USER: genes 21 Torsion [N]-CA--CB-[CG] |==|  0.92840
USER: genes 22 Torsion [CA]-CB--CG-[CD] |==|  0.42254
USER: genes 23 Torsion [CB]-CG--CD-[OE2] |==|  0.75137
ROOT
ATOM      1  C   ALA B   3     -16.265 -28.118  -8.919  1.00 17.17 LIG 0.24  C 
ATOM      2 O    ALA B   3     -15.131 -28.599  -8.952  1.00 18.54 LIG-0.27  OA
ATOM      3  N   GLU B   4     -17.112 -28.194  -9.943  1.00 17.89 LIG-0.35  N 
ATOM      4 H    GLU B   4     -17.905 -27.862  -9.932  1.00 17.89 LIG 0.16  HD
ENDROOT
BRANCH 1 5
ATOM      5  CA  ALA B   3     -16.762 -27.395  -7.668  1.00 15.99 LIG 0.17  C 
ATOM      6  CB  ALA B   3     -16.370 -25.922  -7.726  1.00 16.21 LIG 0.04  C 
BRANCH 5 7
ATOM      7  N   ALA B   3     -16.274 -27.988  -6.428  1.00 13.91 LIG-0.35  N 
ATOM      8  C   ARG B   2     -16.923 -27.825  -5.278  1.00 12.46 LIG 0.24  C 
ATOM      9 O    ARG B   2     -17.967 -27.181  -5.189  1.00 11.56 LIG-0.27  OA
ATOM     10 H    ALA B   3     -15.547 -28.439  -6.511  1.00 13.91 LIG 0.16  HD
BRANCH 8 11
ATOM     11  CA  ARG B   2     -16.309 -28.477  -4.044  1.00 12.24 LIG 0.18  C 
BRANCH 11 12
ATOM     12  CB  ARG B   2     -14.850 -28.845  -4.327  1.00 10.58 LIG 0.04  C 
BRANCH 12 13
ATOM     13  CG  ARG B   2     -14.661 -30.121  -5.136  1.00  9.71 LIG 0.02  C 
BRANCH 13 14
ATOM     14  CD  ARG B   2     -13.602 -29.917  -6.206  1.00  9.44 LIG 0.14  C 
BRANCH 14 15
ATOM     15  NE  ARG B   2     -12.889 -28.651  -6.047  1.00  9.23 LIG-0.23  N 
ATOM     16  CZ  ARG B   2     -11.568 -28.535  -5.985  1.00  9.20 LIG 0.67  C 
ATOM     17  NH1 ARG B   2     -10.802 -29.615  -6.067  1.00  7.63 LIG-0.23  N 
ATOM     18  NH2 ARG B   2     -11.011 -27.339  -5.842  1.00  9.31 LIG-0.23  N 
ATOM     19 1HH1 ARG B   2     -11.162 -30.391  -6.161  1.00  7.63 LIG 0.17  HD
ATOM     20 2HH1 ARG B   2      -9.947 -29.540  -6.027  1.00  7.63 LIG 0.17  HD
ATOM     21 2HH2 ARG B   2     -10.155 -27.265  -5.803  1.00  9.31 LIG 0.17  HD
ATOM     22 1HH2 ARG B   2     -11.506 -26.638  -5.790  1.00  9.31 LIG 0.17  HD
ATOM     23 HE   ARG B   2     -13.357 -27.932  -5.990  1.00  9.23 LIG 0.18  HD
ENDBRANCH 14 15
ENDBRANCH 13 14
ENDBRANCH 12 13
ENDBRANCH 11 12
BRANCH 11 24
ATOM     24  N   ARG B   2     -17.011 -29.656  -3.547  1.00 12.50 LIG-0.35  N 
ATOM     25  C   ALA B   1     -17.832 -30.383  -4.295  1.00 14.33 LIG 0.25  C 
ATOM     26 O    ALA B   1     -18.047 -30.153  -5.484  1.00 14.72 LIG-0.27  OA
ATOM     27 H    ARG B   2     -16.843 -29.836  -2.723  1.00 12.50 LIG 0.16  HD
BRANCH 25 28
ATOM     28  CA  ALA B   1     -18.499 -31.559  -3.588  1.00 14.93 LIG 0.27  C 
ATOM     29  CB  ALA B   1     -19.125 -32.501  -4.609  1.00 16.58 LIG 0.05  C 
BRANCH 28 30
ATOM     30  N   ALA B   1     -19.532 -31.089  -2.623  1.00 16.58 LIG-0.07  N 
ATOM     31 H3   ALA B   1     -20.295 -31.523  -2.770  1.00 16.58 LIG 0.28  HD
ATOM     32 H1   ALA B   1     -19.256 -31.248  -1.792  1.00 16.58 LIG 0.28  HD
ATOM     33 H2   ALA B   1     -19.663 -30.216  -2.730  1.00 16.58 LIG 0.28  HD
ENDBRANCH 28 30
ENDBRANCH 25 28
ENDBRANCH 11 24
ENDBRANCH 8 11
ENDBRANCH 5 7
ENDBRANCH 1 5
BRANCH 3 34
ATOM     34  CA  GLU B   4     -16.758 -28.859 -11.195  1.00 20.15 LIG 0.18  C 
BRANCH 34 35
ATOM     35  C   GLU B   4     -16.217 -30.263 -10.932  1.00 19.92 LIG 0.24  C 
ATOM     36  N   VAL B   5     -16.911 -31.016 -10.084  1.00 19.46 LIG-0.35  N 
ATOM     37 H    VAL B   5     -17.630 -30.758  -9.688  1.00 19.46 LIG 0.16  HD
ATOM     38 O    GLU B   4     -15.195 -30.657 -11.494  1.00 20.03 LIG-0.27  OA
BRANCH 36 39
ATOM     39  CA  VAL B   5     -16.492 -32.375  -9.754  1.00 20.09 LIG 0.18  C 
BRANCH 39 40
ATOM     40  CB  VAL B   5     -16.845 -32.729  -8.289  1.00 20.49 LIG 0.01  C 
ATOM     41  CG2 VAL B   5     -18.334 -32.999  -8.161  1.00 19.70 LIG 0.01  C 
ATOM     42  CG1 VAL B   5     -16.432 -31.596  -7.365  1.00 21.00 LIG 0.01  C 
ENDBRANCH 39 40
BRANCH 39 43
ATOM     43  C   VAL B   5     -17.157 -33.401 -10.668  1.00 20.75 LIG 0.24  C 
ATOM     44  N   HIS B   6     -18.433 -33.182 -10.978  1.00 20.78 LIG-0.35  N 
ATOM     45 H    HIS B   6     -18.892 -32.516 -10.687  1.00 20.78 LIG 0.16  HD
ATOM     46 O    VAL B   5     -16.529 -34.376 -11.078  1.00 21.91 LIG-0.27  OA
BRANCH 44 47
ATOM     47  CA  HIS B   6     -19.165 -34.084 -11.860  1.00 21.28 LIG 0.17  C 
BRANCH 47 48
ATOM     48  C   HIS B   6     -18.906 -35.530 -11.453  1.00 23.03 LIG 0.22  C 
ATOM     49 O    HIS B   6     -19.878 -36.222 -11.082  1.00 25.39 LIG-0.29  OA
ENDBRANCH 47 48
BRANCH 47 50
ATOM     50  CB  HIS B   6     -18.739 -33.890 -13.319  1.00 19.33 LIG 0.09  C 
BRANCH 50 51
ATOM     51  CG  HIS B   6     -18.313 -32.490 -13.638  1.00 17.39 LIG 0.06  A 
ATOM     52  CD2 HIS B   6     -19.030 -31.353 -13.797  1.00 16.59 LIG 0.14  A 
ATOM     53 NE2  HIS B   6     -18.136 -30.339 -14.046  1.00 16.70 LIG-0.25  NA
ATOM     54  CE1 HIS B   6     -16.913 -30.837 -14.043  1.00 16.06 LIG 0.23  A 
ATOM     55 ND1  HIS B   6     -16.991 -32.134 -13.798  1.00 16.09 LIG-0.24  NA
ENDBRANCH 50 51
ENDBRANCH 47 50
ENDBRANCH 44 47
ENDBRANCH 39 43
ENDBRANCH 36 39
ENDBRANCH 34 35
BRANCH 34 56
ATOM     56  CB  GLU B   4     -15.698 -28.048 -11.945  1.00 22.38 LIG 0.04  C 
BRANCH 56 57
ATOM     57  CG  GLU B   4     -15.697 -26.563 -11.627  1.00 27.64 LIG 0.12  C 
BRANCH 57 58
ATOM     58  CD  GLU B   4     -14.327 -25.938 -11.805  1.00 30.78 LIG 0.17  C 
ATOM     59 OE2  GLU B   4     -13.545 -25.924 -10.830  1.00 32.62 LIG-0.65  OA
ATOM     60 OE1  GLU B   4     -14.033 -25.460 -12.921  1.00 32.75 LIG-0.65  OA
ENDBRANCH 57 58
ENDBRANCH 56 57
ENDBRANCH 34 56
ENDBRANCH 3 34
TORSDOF 22
ENDMDL
MODEL 37
USER: ADFR SOLUTION from run 58
USER: SCORE 18.245948 LL:  -5.922 LR: -13.952 RR:   0.000 FEB:  -7.389
USER: RMSD 6.757272
USER: SEED 57
USER: STATUS searching
USER: GENES 24
USER: genes 0 Translation |==|  0.40968 0.60856 0.32097
USER: genes 1 Rotation |==|  0.83274 0.37639 0.49079 0.85202
USER: genes 2 Torsion [N]-C--CA-[N] |==|  0.05000
USER: genes 3 Torsion [C]-CA--N-[C] |==|  0.74437
USER: genes 4 Torsion [N]-C--CA-[N] |==|  0.52237
USER: genes 5 Torsion [C]-CA--CB-[CG] |==|  0.92471
USER: genes 6 Torsion [CA]-CB--CG-[CD] |==|  0.41202
USER: genes 7 Torsion [CB]-CG--CD-[NE] |==|  0.93310
USER: genes 8 Torsion [CG]-CD--NE-[CZ] |==|  0.33723
USER: genes 9 Torsion [C]-CA--N-[C] |==|  0.16128
USER: genes 10 Torsion [N]-C--CA-[N] |==|  0.08933
USER: genes 11 Torsion [C]-CA--N-[H2] |==|  0.45204
USER: genes 12 Torsion [C]-N--CA-[C] |==|  0.61722
USER: genes 13 Torsion [N]-CA--C-[N] |==|  0.44714
USER: genes 14 Torsion [C]-N--CA-[CB] |==|  0.53412
USER: genes 15 Torsion [N]-CA--CB-[CG2] |==|  0.54725
USER: genes 16 Torsion [N]-CA--C-[N] |==|  0.38650
USER: genes 17 Torsion [C]-N--CA-[C] |==|  0.62053
USER: genes 18 Torsion [N]-CA--C-[O] |==|  0.96404
USER: genes 19 Torsion [N]-CA--CB-[CG] |==|  0.73498
USER: genes 20 Torsion [CA]-CB--CG-[CD2] |==|  0.11615
USER: genes 21 Torsion [N]-CA--CB-[CG] |==|  0.80045
USER: genes 22 Torsion [CA]-CB--CG-[CD] |==|  0.29578
USER: genes 23 Torsion [CB]-CG--CD-[OE2] |==|  0.75846
ROOT
ATOM      1  C   ALA B   3     -16.762 -25.565  -8.940  1.00 17.17 LIG 0.24  C 
ATOM      2 O    ALA B   3     -16.934 -24.736  -9.835  1.00 18.54 LIG-0.27  OA
ATOM      3  N   GLU B   4     -16.481 -26.843  -9.184  1.00 17.89 LIG-0.35  N 
ATOM      4 H    GLU B   4     -16.359 -27.430  -8.568  1.00 17.89 LIG 0.16  HD
ENDROOT
BRANCH 1 5
ATOM      5  CA  ALA B   3     -16.866 -25.151  -7.472  1.00 15.99 LIG 0.17  C 
ATOM      6  CB  ALA B   3     -16.252 -23.769  -7.275  1.00 16.21 LIG 0.04  C 
BRANCH 5 7
ATOM      7  N   ALA B   3     -16.243 -26.102  -6.560  1.00 13.91 LIG-0.35  N 
ATOM      8  C   ARG B   2     -16.939 -27.091  -6.006  1.00 12.46 LIG 0.24  C 
ATOM      9 O    ARG B   2     -18.135 -27.271  -6.232  1.00 11.56 LIG-0.27  OA
ATOM     10 H    ALA B   3     -15.406 -25.965  -6.419  1.00 13.91 LIG 0.16  HD
BRANCH 8 11
ATOM     11  CA  ARG B   2     -16.185 -28.014  -5.054  1.00 12.24 LIG 0.18  C 
BRANCH 11 12
ATOM     12  CB  ARG B   2     -14.874 -28.463  -5.703  1.00 10.58 LIG 0.04  C 
BRANCH 12 13
ATOM     13  CG  ARG B   2     -14.892 -28.486  -7.225  1.00  9.71 LIG 0.02  C 
BRANCH 13 14
ATOM     14  CD  ARG B   2     -13.511 -28.167  -7.776  1.00  9.44 LIG 0.14  C 
BRANCH 14 15
ATOM     15  NE  ARG B   2     -12.702 -27.398  -6.833  1.00  9.23 LIG-0.23  N 
ATOM     16  CZ  ARG B   2     -11.526 -27.791  -6.357  1.00  9.20 LIG 0.67  C 
ATOM     17  NH1 ARG B   2     -11.012 -28.954  -6.735  1.00  7.63 LIG-0.23  N 
ATOM     18  NH2 ARG B   2     -10.862 -27.020  -5.505  1.00  9.31 LIG-0.23  N 
ATOM     19 1HH1 ARG B   2     -11.441 -29.454  -7.288  1.00  7.63 LIG 0.17  HD
ATOM     20 2HH1 ARG B   2     -10.251 -29.209  -6.426  1.00  7.63 LIG 0.17  HD
ATOM     21 2HH2 ARG B   2     -10.100 -27.276  -5.198  1.00  9.31 LIG 0.17  HD
ATOM     22 1HH2 ARG B   2     -11.192 -26.266  -5.260  1.00  9.31 LIG 0.17  HD
ATOM     23 HE   ARG B   2     -13.007 -26.639  -6.567  1.00  9.23 LIG 0.18  HD
ENDBRANCH 14 15
ENDBRANCH 13 14
ENDBRANCH 12 13
ENDBRANCH 11 12
BRANCH 11 24
ATOM     24  N   ARG B   2     -16.925 -29.191  -4.609  1.00 12.50 LIG-0.35  N 
ATOM     25  C   ALA B   1     -17.424 -30.095  -5.443  1.00 14.33 LIG 0.25  C 
ATOM     26 O    ALA B   1     -17.278 -30.044  -6.663  1.00 14.72 LIG-0.27  OA
ATOM     27 H    ARG B   2     -17.007 -29.244  -3.755  1.00 12.50 LIG 0.16  HD
BRANCH 25 28
ATOM     28  CA  ALA B   1     -18.196 -31.237  -4.790  1.00 14.93 LIG 0.27  C 
ATOM     29  CB  ALA B   1     -19.207 -31.818  -5.771  1.00 16.58 LIG 0.05  C 
BRANCH 28 30
ATOM     30  N   ALA B   1     -18.886 -30.780  -3.552  1.00 16.58 LIG-0.07  N 
ATOM     31 H3   ALA B   1     -18.295 -30.714  -2.889  1.00 16.58 LIG 0.28  HD
ATOM     32 H1   ALA B   1     -19.260 -29.986  -3.696  1.00 16.58 LIG 0.28  HD
ATOM     33 H2   ALA B   1     -19.516 -31.368  -3.329  1.00 16.58 LIG 0.28  HD
ENDBRANCH 28 30
ENDBRANCH 25 28
ENDBRANCH 11 24
ENDBRANCH 8 11
ENDBRANCH 5 7
ENDBRANCH 1 5
BRANCH 3 34
ATOM     34  CA  GLU B   4     -16.354 -27.364 -10.544  1.00 20.15 LIG 0.18  C 
BRANCH 34 35
ATOM     35  C   GLU B   4     -17.038 -28.723 -10.671  1.00 19.92 LIG 0.24  C 
ATOM     36  N   VAL B   5     -17.338 -29.122 -11.903  1.00 19.46 LIG-0.35  N 
ATOM     37 H    VAL B   5     -17.170 -28.664 -12.612  1.00 19.46 LIG 0.16  HD
ATOM     38 O    GLU B   4     -17.279 -29.400  -9.672  1.00 20.03 LIG-0.27  OA
BRANCH 36 39
ATOM     39  CA  VAL B   5     -17.993 -30.403 -12.151  1.00 20.09 LIG 0.18  C 
BRANCH 39 40
ATOM     40  CB  VAL B   5     -17.956 -30.769 -13.654  1.00 20.49 LIG 0.01  C 
ATOM     41  CG2 VAL B   5     -18.975 -31.854 -13.954  1.00 19.70 LIG 0.01  C 
ATOM     42  CG1 VAL B   5     -16.562 -31.230 -14.045  1.00 21.00 LIG 0.01  C 
ENDBRANCH 39 40
BRANCH 39 43
ATOM     43  C   VAL B   5     -17.326 -31.531 -11.368  1.00 20.75 LIG 0.24  C 
ATOM     44  N   HIS B   6     -18.136 -32.428 -10.811  1.00 20.78 LIG-0.35  N 
ATOM     45 H    HIS B   6     -18.994 -32.397 -10.858  1.00 20.78 LIG 0.16  HD
ATOM     46 O    VAL B   5     -16.101 -31.584 -11.264  1.00 21.91 LIG-0.27  OA
BRANCH 44 47
ATOM     47  CA  HIS B   6     -17.610 -33.560 -10.056  1.00 21.28 LIG 0.17  C 
BRANCH 47 48
ATOM     48  C   HIS B   6     -18.369 -34.828 -10.431  1.00 23.03 LIG 0.22  C 
ATOM     49 O    HIS B   6     -19.429 -34.712 -11.082  1.00 25.39 LIG-0.29  OA
ENDBRANCH 47 48
BRANCH 47 50
ATOM     50  CB  HIS B   6     -17.742 -33.324  -8.549  1.00 19.33 LIG 0.09  C 
BRANCH 50 51
ATOM     51  CG  HIS B   6     -16.504 -32.763  -7.919  1.00 17.39 LIG 0.06  A 
ATOM     52  CD2 HIS B   6     -15.647 -31.803  -8.338  1.00 16.59 LIG 0.14  A 
ATOM     53 NE2  HIS B   6     -14.695 -31.651  -7.357  1.00 16.70 LIG-0.25  NA
ATOM     54  CE1 HIS B   6     -14.959 -32.491  -6.372  1.00 16.06 LIG 0.23  A 
ATOM     55 ND1  HIS B   6     -16.046 -33.174  -6.686  1.00 16.09 LIG-0.24  NA
ENDBRANCH 50 51
ENDBRANCH 47 50
ENDBRANCH 44 47
ENDBRANCH 39 43
ENDBRANCH 36 39
ENDBRANCH 34 35
BRANCH 34 56
ATOM     56  CB  GLU B   4     -14.877 -27.509 -10.919  1.00 22.38 LIG 0.04  C 
BRANCH 56 57
ATOM     57  CG  GLU B   4     -14.153 -26.196 -11.156  1.00 27.64 LIG 0.12  C 
BRANCH 57 58
ATOM     58  CD  GLU B   4     -13.207 -25.849 -10.022  1.00 30.78 LIG 0.17  C 
ATOM     59 OE2  GLU B   4     -13.657 -25.224  -9.038  1.00 32.62 LIG-0.65  OA
ATOM     60 OE1  GLU B   4     -12.013 -26.202 -10.117  1.00 32.75 LIG-0.65  OA
ENDBRANCH 57 58
ENDBRANCH 56 57
ENDBRANCH 34 56
ENDBRANCH 3 34
TORSDOF 22
ENDMDL
MODEL 38
USER: ADFR SOLUTION from run 98
USER: SCORE 16.838346 LL:  -4.650 LR: -13.940 RR:   0.000 FEB:  -7.378
USER: RMSD 9.217348
USER: SEED 97
USER: STATUS no improvement in best in 4 clusters for 5 generations
USER: GENES 24
USER: genes 0 Translation |==|  0.36644 0.50866 0.43711
USER: genes 1 Rotation |==|  0.98170 0.44804 0.60332 0.56776
USER: genes 2 Torsion [N]-C--CA-[N] |==|  0.06847
USER: genes 3 Torsion [C]-CA--N-[C] |==|  0.16640
USER: genes 4 Torsion [N]-C--CA-[N] |==|  0.39494
USER: genes 5 Torsion [C]-CA--CB-[CG] |==|  0.22099
USER: genes 6 Torsion [CA]-CB--CG-[CD] |==|  0.60578
USER: genes 7 Torsion [CB]-CG--CD-[NE] |==|  0.23573
USER: genes 8 Torsion [CG]-CD--NE-[CZ] |==|  0.23833
USER: genes 9 Torsion [C]-CA--N-[C] |==|  0.83331
USER: genes 10 Torsion [N]-C--CA-[N] |==|  0.54094
USER: genes 11 Torsion [C]-CA--N-[H2] |==|  0.84558
USER: genes 12 Torsion [C]-N--CA-[C] |==|  0.60556
USER: genes 13 Torsion [N]-CA--C-[N] |==|  0.70655
USER: genes 14 Torsion [C]-N--CA-[CB] |==|  0.50032
USER: genes 15 Torsion [N]-CA--CB-[CG2] |==|  0.27759
USER: genes 16 Torsion [N]-CA--C-[N] |==|  0.41538
USER: genes 17 Torsion [C]-N--CA-[C] |==|  0.69418
USER: genes 18 Torsion [N]-CA--C-[O] |==|  0.80143
USER: genes 19 Torsion [N]-CA--CB-[CG] |==|  0.73906
USER: genes 20 Torsion [CA]-CB--CG-[CD2] |==|  0.95035
USER: genes 21 Torsion [N]-CA--CB-[CG] |==|  0.56595
USER: genes 22 Torsion [CA]-CB--CG-[CD] |==|  0.06306
USER: genes 23 Torsion [CB]-CG--CD-[OE2] |==|  0.26261
ROOT
ATOM      1  C   ALA B   3     -17.540 -27.888  -6.414  1.00 17.17 LIG 0.24  C 
ATOM      2 O    ALA B   3     -18.275 -26.910  -6.267  1.00 18.54 LIG-0.27  OA
ATOM      3  N   GLU B   4     -16.467 -27.872  -7.200  1.00 17.89 LIG-0.35  N 
ATOM      4 H    GLU B   4     -15.946 -28.548  -7.311  1.00 17.89 LIG 0.16  HD
ENDROOT
BRANCH 1 5
ATOM      5  CA  ALA B   3     -17.836 -29.195  -5.679  1.00 15.99 LIG 0.17  C 
ATOM      6  CB  ALA B   3     -18.491 -28.901  -4.333  1.00 16.21 LIG 0.04  C 
BRANCH 5 7
ATOM      7  N   ALA B   3     -16.655 -30.026  -5.483  1.00 13.91 LIG-0.35  N 
ATOM      8  C   ARG B   2     -15.604 -29.589  -4.795  1.00 12.46 LIG 0.24  C 
ATOM      9 O    ARG B   2     -15.564 -28.473  -4.279  1.00 11.56 LIG-0.27  OA
ATOM     10 H    ALA B   3     -16.703 -30.805  -5.845  1.00 13.91 LIG 0.16  HD
BRANCH 8 11
ATOM     11  CA  ARG B   2     -14.419 -30.541  -4.670  1.00 12.24 LIG 0.18  C 
BRANCH 11 12
ATOM     12  CB  ARG B   2     -14.530 -31.333  -3.365  1.00 10.58 LIG 0.04  C 
BRANCH 12 13
ATOM     13  CG  ARG B   2     -15.498 -32.508  -3.413  1.00  9.71 LIG 0.02  C 
BRANCH 13 14
ATOM     14  CD  ARG B   2     -16.248 -32.631  -2.098  1.00  9.44 LIG 0.14  C 
BRANCH 14 15
ATOM     15  NE  ARG B   2     -17.427 -31.766  -2.049  1.00  9.23 LIG-0.23  N 
ATOM     16  CZ  ARG B   2     -18.623 -32.099  -2.519  1.00  9.20 LIG 0.67  C 
ATOM     17  NH1 ARG B   2     -18.808 -33.286  -3.081  1.00  7.63 LIG-0.23  N 
ATOM     18  NH2 ARG B   2     -19.635 -31.246  -2.426  1.00  9.31 LIG-0.23  N 
ATOM     19 1HH1 ARG B   2     -18.153 -33.840  -3.141  1.00  7.63 LIG 0.17  HD
ATOM     20 2HH1 ARG B   2     -19.583 -33.501  -3.386  1.00  7.63 LIG 0.17  HD
ATOM     21 2HH2 ARG B   2     -20.409 -31.463  -2.731  1.00  9.31 LIG 0.17  HD
ATOM     22 1HH2 ARG B   2     -19.517 -30.477  -2.061  1.00  9.31 LIG 0.17  HD
ATOM     23 HE   ARG B   2     -17.339 -30.989  -1.691  1.00  9.23 LIG 0.18  HD
ENDBRANCH 14 15
ENDBRANCH 13 14
ENDBRANCH 12 13
ENDBRANCH 11 12
BRANCH 11 24
ATOM     24  N   ARG B   2     -13.104 -29.913  -4.737  1.00 12.50 LIG-0.35  N 
ATOM     25  C   ALA B   1     -12.681 -29.221  -5.788  1.00 14.33 LIG 0.25  C 
ATOM     26 O    ALA B   1     -13.372 -29.014  -6.784  1.00 14.72 LIG-0.27  OA
ATOM     27 H    ARG B   2     -12.628 -30.034  -4.031  1.00 12.50 LIG 0.16  HD
BRANCH 25 28
ATOM     28  CA  ALA B   1     -11.263 -28.668  -5.685  1.00 14.93 LIG 0.27  C 
ATOM     29  CB  ALA B   1     -11.025 -28.086  -4.297  1.00 16.58 LIG 0.05  C 
BRANCH 28 30
ATOM     30  N   ALA B   1     -11.013 -27.633  -6.726  1.00 16.58 LIG-0.07  N 
ATOM     31 H3   ALA B   1     -11.544 -26.933  -6.583  1.00 16.58 LIG 0.28  HD
ATOM     32 H1   ALA B   1     -10.163 -27.373  -6.687  1.00 16.58 LIG 0.28  HD
ATOM     33 H2   ALA B   1     -11.182 -27.973  -7.530  1.00 16.58 LIG 0.28  HD
ENDBRANCH 28 30
ENDBRANCH 25 28
ENDBRANCH 11 24
ENDBRANCH 8 11
ENDBRANCH 5 7
ENDBRANCH 1 5
BRANCH 3 34
ATOM     34  CA  GLU B   4     -16.075 -26.684  -7.956  1.00 20.15 LIG 0.18  C 
BRANCH 34 35
ATOM     35  C   GLU B   4     -15.540 -27.068  -9.334  1.00 19.92 LIG 0.24  C 
ATOM     36  N   VAL B   5     -14.225 -26.981  -9.504  1.00 19.46 LIG-0.35  N 
ATOM     37 H    VAL B   5     -13.676 -26.726  -8.892  1.00 19.46 LIG 0.16  HD
ATOM     38 O    GLU B   4     -16.305 -27.443 -10.222  1.00 20.03 LIG-0.27  OA
BRANCH 36 39
ATOM     39  CA  VAL B   5     -13.596 -27.321 -10.778  1.00 20.09 LIG 0.18  C 
BRANCH 39 40
ATOM     40  CB  VAL B   5     -12.061 -27.137 -10.711  1.00 20.49 LIG 0.01  C 
ATOM     41  CG2 VAL B   5     -11.383 -28.479 -10.498  1.00 19.70 LIG 0.01  C 
ATOM     42  CG1 VAL B   5     -11.699 -26.178  -9.590  1.00 21.00 LIG 0.01  C 
ENDBRANCH 39 40
BRANCH 39 43
ATOM     43  C   VAL B   5     -13.889 -28.765 -11.176  1.00 20.75 LIG 0.24  C 
ATOM     44  N   HIS B   6     -13.947 -29.022 -12.480  1.00 20.78 LIG-0.35  N 
ATOM     45 H    HIS B   6     -13.843 -28.428 -13.093  1.00 20.78 LIG 0.16  HD
ATOM     46 O    VAL B   5     -14.067 -29.629 -10.318  1.00 21.91 LIG-0.27  OA
BRANCH 44 47
ATOM     47  CA  HIS B   6     -14.199 -30.370 -12.978  1.00 21.28 LIG 0.17  C 
BRANCH 47 48
ATOM     48  C   HIS B   6     -12.938 -30.925 -13.628  1.00 23.03 LIG 0.22  C 
ATOM     49 O    HIS B   6     -12.580 -30.448 -14.726  1.00 25.39 LIG-0.29  OA
ENDBRANCH 47 48
BRANCH 47 50
ATOM     50  CB  HIS B   6     -15.336 -30.371 -14.005  1.00 19.33 LIG 0.09  C 
BRANCH 50 51
ATOM     51  CG  HIS B   6     -16.680 -30.667 -13.412  1.00 17.39 LIG 0.06  A 
ATOM     52  CD2 HIS B   6     -17.030 -31.231 -12.231  1.00 16.59 LIG 0.14  A 
ATOM     53 NE2  HIS B   6     -18.403 -31.233 -12.173  1.00 16.70 LIG-0.25  NA
ATOM     54  CE1 HIS B   6     -18.879 -30.691 -13.280  1.00 16.06 LIG 0.23  A 
ATOM     55 ND1  HIS B   6     -17.860 -30.341 -14.045  1.00 16.09 LIG-0.24  NA
ENDBRANCH 50 51
ENDBRANCH 47 50
ENDBRANCH 44 47
ENDBRANCH 39 43
ENDBRANCH 36 39
ENDBRANCH 34 35
BRANCH 34 56
ATOM     56  CB  GLU B   4     -14.995 -25.907  -7.199  1.00 22.38 LIG 0.04  C 
BRANCH 56 57
ATOM     57  CG  GLU B   4     -14.911 -24.433  -7.554  1.00 27.64 LIG 0.12  C 
BRANCH 57 58
ATOM     58  CD  GLU B   4     -16.208 -23.909  -8.140  1.00 30.78 LIG 0.17  C 
ATOM     59 OE2  GLU B   4     -17.031 -23.361  -7.376  1.00 32.62 LIG-0.65  OA
ATOM     60 OE1  GLU B   4     -16.403 -24.045  -9.367  1.00 32.75 LIG-0.65  OA
ENDBRANCH 57 58
ENDBRANCH 56 57
ENDBRANCH 34 56
ENDBRANCH 3 34
TORSDOF 22
ENDMDL
MODEL 39
USER: ADFR SOLUTION from run 86
USER: SCORE 17.414567 LL:  -4.862 LR: -13.934 RR:   0.000 FEB:  -7.371
USER: RMSD 8.201294
USER: SEED 85
USER: STATUS 1 or 2 clusters left
USER: GENES 24
USER: genes 0 Translation |==|  0.70086 0.51094 0.26095
USER: genes 1 Rotation |==|  0.83783 0.45919 0.44435 0.86209
USER: genes 2 Torsion [N]-C--CA-[N] |==|  0.94480
USER: genes 3 Torsion [C]-CA--N-[C] |==|  0.77288
USER: genes 4 Torsion [N]-C--CA-[N] |==|  0.93333
USER: genes 5 Torsion [C]-CA--CB-[CG] |==|  0.48665
USER: genes 6 Torsion [CA]-CB--CG-[CD] |==|  0.90381
USER: genes 7 Torsion [CB]-CG--CD-[NE] |==|  0.47247
USER: genes 8 Torsion [CG]-CD--NE-[CZ] |==|  0.79296
USER: genes 9 Torsion [C]-CA--N-[C] |==|  0.76849
USER: genes 10 Torsion [N]-C--CA-[N] |==|  0.97071
USER: genes 11 Torsion [C]-CA--N-[H2] |==|  0.35920
USER: genes 12 Torsion [C]-N--CA-[C] |==|  0.78049
USER: genes 13 Torsion [N]-CA--C-[N] |==|  0.97317
USER: genes 14 Torsion [C]-N--CA-[CB] |==|  0.39247
USER: genes 15 Torsion [N]-CA--CB-[CG2] |==|  0.32685
USER: genes 16 Torsion [N]-CA--C-[N] |==|  0.91600
USER: genes 17 Torsion [C]-N--CA-[C] |==|  0.74881
USER: genes 18 Torsion [N]-CA--C-[O] |==|  0.95125
USER: genes 19 Torsion [N]-CA--CB-[CG] |==|  0.76721
USER: genes 20 Torsion [CA]-CB--CG-[CD2] |==|  0.58048
USER: genes 21 Torsion [N]-CA--CB-[CG] |==|  0.80199
USER: genes 22 Torsion [CA]-CB--CG-[CD] |==|  0.67767
USER: genes 23 Torsion [CB]-CG--CD-[OE2] |==|  0.46210
ROOT
ATOM      1  C   ALA B   3     -11.521 -27.835 -10.245  1.00 17.17 LIG 0.24  C 
ATOM      2 O    ALA B   3     -12.076 -27.008 -10.971  1.00 18.54 LIG-0.27  OA
ATOM      3  N   GLU B   4     -11.238 -29.072 -10.645  1.00 17.89 LIG-0.35  N 
ATOM      4 H    GLU B   4     -10.851 -29.658 -10.148  1.00 17.89 LIG 0.16  HD
ENDROOT
BRANCH 1 5
ATOM      5  CA  ALA B   3     -11.122 -27.465  -8.817  1.00 15.99 LIG 0.17  C 
ATOM      6  CB  ALA B   3      -9.866 -26.600  -8.833  1.00 16.21 LIG 0.04  C 
BRANCH 5 7
ATOM      7  N   ALA B   3     -10.912 -28.625  -7.958  1.00 13.91 LIG-0.35  N 
ATOM      8  C   ARG B   2     -11.931 -29.252  -7.378  1.00 12.46 LIG 0.24  C 
ATOM      9 O    ARG B   2     -13.101 -28.906  -7.532  1.00 11.56 LIG-0.27  OA
ATOM     10 H    ALA B   3     -10.089 -28.856  -7.867  1.00 13.91 LIG 0.16  HD
BRANCH 8 11
ATOM     11  CA  ARG B   2     -11.588 -30.443  -6.488  1.00 12.24 LIG 0.18  C 
BRANCH 11 12
ATOM     12  CB  ARG B   2     -11.602 -30.010  -5.020  1.00 10.58 LIG 0.04  C 
BRANCH 12 13
ATOM     13  CG  ARG B   2     -11.386 -31.139  -4.022  1.00  9.71 LIG 0.02  C 
BRANCH 13 14
ATOM     14  CD  ARG B   2     -12.022 -32.423  -4.529  1.00  9.44 LIG 0.14  C 
BRANCH 14 15
ATOM     15  NE  ARG B   2     -11.647 -33.584  -3.723  1.00  9.23 LIG-0.23  N 
ATOM     16  CZ  ARG B   2     -10.459 -34.174  -3.764  1.00  9.20 LIG 0.67  C 
ATOM     17  NH1 ARG B   2      -9.516 -33.715  -4.577  1.00  7.63 LIG-0.23  N 
ATOM     18  NH2 ARG B   2     -10.209 -35.223  -2.990  1.00  9.31 LIG-0.23  N 
ATOM     19 1HH1 ARG B   2      -9.676 -33.034  -5.078  1.00  7.63 LIG 0.17  HD
ATOM     20 2HH1 ARG B   2      -8.747 -34.097  -4.604  1.00  7.63 LIG 0.17  HD
ATOM     21 2HH2 ARG B   2      -9.439 -35.604  -3.017  1.00  9.31 LIG 0.17  HD
ATOM     22 1HH2 ARG B   2     -10.818 -35.521  -2.461  1.00  9.31 LIG 0.17  HD
ATOM     23 HE   ARG B   2     -12.236 -33.906  -3.186  1.00  9.23 LIG 0.18  HD
ENDBRANCH 14 15
ENDBRANCH 13 14
ENDBRANCH 12 13
ENDBRANCH 11 12
BRANCH 11 24
ATOM     24  N   ARG B   2     -10.316 -31.095  -6.782  1.00 12.50 LIG-0.35  N 
ATOM     25  C   ALA B   1     -10.171 -32.012  -7.731  1.00 14.33 LIG 0.25  C 
ATOM     26 O    ALA B   1     -11.085 -32.368  -8.473  1.00 14.72 LIG-0.27  OA
ATOM     27 H    ARG B   2      -9.669 -30.830  -6.282  1.00 12.50 LIG 0.16  HD
BRANCH 25 28
ATOM     28  CA  ALA B   1      -8.772 -32.604  -7.865  1.00 14.93 LIG 0.27  C 
ATOM     29  CB  ALA B   1      -8.776 -34.068  -7.442  1.00 16.58 LIG 0.05  C 
BRANCH 28 30
ATOM     30  N   ALA B   1      -7.784 -31.839  -7.055  1.00 16.58 LIG-0.07  N 
ATOM     31 H3   ALA B   1      -7.232 -31.399  -7.597  1.00 16.58 LIG 0.28  HD
ATOM     32 H1   ALA B   1      -8.214 -31.259  -6.535  1.00 16.58 LIG 0.28  HD
ATOM     33 H2   ALA B   1      -7.317 -32.401  -6.548  1.00 16.58 LIG 0.28  HD
ENDBRANCH 28 30
ENDBRANCH 25 28
ENDBRANCH 11 24
ENDBRANCH 8 11
ENDBRANCH 5 7
ENDBRANCH 1 5
BRANCH 3 34
ATOM     34  CA  GLU B   4     -11.567 -29.548 -11.987  1.00 20.15 LIG 0.18  C 
BRANCH 34 35
ATOM     35  C   GLU B   4     -13.045 -29.918 -12.086  1.00 19.92 LIG 0.24  C 
ATOM     36  N   VAL B   5     -13.726 -29.947 -10.946  1.00 19.46 LIG-0.35  N 
ATOM     37 H    VAL B   5     -13.384 -29.772 -10.176  1.00 19.46 LIG 0.16  HD
ATOM     38 O    GLU B   4     -13.559 -30.163 -13.178  1.00 20.03 LIG-0.27  OA
BRANCH 36 39
ATOM     39  CA  VAL B   5     -15.146 -30.286 -10.914  1.00 20.09 LIG 0.18  C 
BRANCH 39 40
ATOM     40  CB  VAL B   5     -15.486 -31.156  -9.680  1.00 20.49 LIG 0.01  C 
ATOM     41  CG2 VAL B   5     -16.470 -30.427  -8.782  1.00 19.70 LIG 0.01  C 
ATOM     42  CG1 VAL B   5     -14.219 -31.493  -8.914  1.00 21.00 LIG 0.01  C 
ENDBRANCH 39 40
BRANCH 39 43
ATOM     43  C   VAL B   5     -16.018 -29.034 -10.872  1.00 20.75 LIG 0.24  C 
ATOM     44  N   HIS B   6     -15.498 -27.968 -10.269  1.00 20.78 LIG-0.35  N 
ATOM     45 H    HIS B   6     -14.721 -27.954  -9.901  1.00 20.78 LIG 0.16  HD
ATOM     46 O    VAL B   5     -17.143 -29.036 -11.369  1.00 21.91 LIG-0.27  OA
BRANCH 44 47
ATOM     47  CA  HIS B   6     -16.231 -26.709 -10.186  1.00 21.28 LIG 0.17  C 
BRANCH 47 48
ATOM     48  C   HIS B   6     -15.902 -25.839 -11.394  1.00 23.03 LIG 0.22  C 
ATOM     49 O    HIS B   6     -14.880 -26.112 -12.058  1.00 25.39 LIG-0.29  OA
ENDBRANCH 47 48
BRANCH 47 50
ATOM     50  CB  HIS B   6     -15.872 -25.948  -8.907  1.00 19.33 LIG 0.09  C 
BRANCH 50 51
ATOM     51  CG  HIS B   6     -16.651 -26.392  -7.706  1.00 17.39 LIG 0.06  A 
ATOM     52  CD2 HIS B   6     -17.032 -25.723  -6.592  1.00 16.59 LIG 0.14  A 
ATOM     53 NE2  HIS B   6     -17.761 -26.597  -5.822  1.00 16.70 LIG-0.25  NA
ATOM     54  CE1 HIS B   6     -17.823 -27.762  -6.440  1.00 16.06 LIG 0.23  A 
ATOM     55 ND1  HIS B   6     -17.161 -27.666  -7.580  1.00 16.09 LIG-0.24  NA
ENDBRANCH 50 51
ENDBRANCH 47 50
ENDBRANCH 44 47
ENDBRANCH 39 43
ENDBRANCH 36 39
ENDBRANCH 34 35
BRANCH 34 56
ATOM     56  CB  GLU B   4     -10.721 -30.776 -12.336  1.00 22.38 LIG 0.04  C 
BRANCH 56 57
ATOM     57  CG  GLU B   4      -9.252 -30.481 -12.586  1.00 27.64 LIG 0.12  C 
BRANCH 57 58
ATOM     58  CD  GLU B   4      -8.839 -30.788 -14.012  1.00 30.78 LIG 0.17  C 
ATOM     59 OE2  GLU B   4      -7.741 -30.355 -14.423  1.00 32.62 LIG-0.65  OA
ATOM     60 OE1  GLU B   4      -9.614 -31.463 -14.722  1.00 32.75 LIG-0.65  OA
ENDBRANCH 57 58
ENDBRANCH 56 57
ENDBRANCH 34 56
ENDBRANCH 3 34
TORSDOF 22
ENDMDL
MODEL 40
USER: ADFR SOLUTION from run 119
USER: SCORE 17.087449 LL:  -4.954 LR: -13.922 RR:   0.000 FEB:  -7.359
USER: RMSD 9.319767
USER: SEED 118
USER: STATUS no improvement in best in 2 clusters for 5 generations
USER: GENES 24
USER: genes 0 Translation |==|  0.70617 0.47913 0.37180
USER: genes 1 Rotation |==|  0.76966 0.73092 0.82437 0.63692
USER: genes 2 Torsion [N]-C--CA-[N] |==|  0.69982
USER: genes 3 Torsion [C]-CA--N-[C] |==|  0.69343
USER: genes 4 Torsion [N]-C--CA-[N] |==|  0.91013
USER: genes 5 Torsion [C]-CA--CB-[CG] |==|  0.31777
USER: genes 6 Torsion [CA]-CB--CG-[CD] |==|  0.39019
USER: genes 7 Torsion [CB]-CG--CD-[NE] |==|  0.91398
USER: genes 8 Torsion [CG]-CD--NE-[CZ] |==|  0.44732
USER: genes 9 Torsion [C]-CA--N-[C] |==|  0.85188
USER: genes 10 Torsion [N]-C--CA-[N] |==|  0.75876
USER: genes 11 Torsion [C]-CA--N-[H2] |==|  0.14046
USER: genes 12 Torsion [C]-N--CA-[C] |==|  0.18043
USER: genes 13 Torsion [N]-CA--C-[N] |==|  0.05702
USER: genes 14 Torsion [C]-N--CA-[CB] |==|  0.19444
USER: genes 15 Torsion [N]-CA--CB-[CG2] |==|  0.05321
USER: genes 16 Torsion [N]-CA--C-[N] |==|  0.54464
USER: genes 17 Torsion [C]-N--CA-[C] |==|  0.13171
USER: genes 18 Torsion [N]-CA--C-[O] |==|  0.34172
USER: genes 19 Torsion [N]-CA--CB-[CG] |==|  0.95983
USER: genes 20 Torsion [CA]-CB--CG-[CD2] |==|  0.30300
USER: genes 21 Torsion [N]-CA--CB-[CG] |==|  0.80712
USER: genes 22 Torsion [CA]-CB--CG-[CD] |==|  0.45635
USER: genes 23 Torsion [CB]-CG--CD-[OE2] |==|  0.43493
ROOT
ATOM      1  C   ALA B   3     -11.425 -28.574  -7.834  1.00 17.17 LIG 0.24  C 
ATOM      2 O    ALA B   3     -11.993 -29.117  -8.783  1.00 18.54 LIG-0.27  OA
ATOM      3  N   GLU B   4     -10.626 -27.520  -7.978  1.00 17.89 LIG-0.35  N 
ATOM      4 H    GLU B   4     -10.224 -27.133  -7.324  1.00 17.89 LIG 0.16  HD
ENDROOT
BRANCH 1 5
ATOM      5  CA  ALA B   3     -11.619 -29.102  -6.413  1.00 15.99 LIG 0.17  C 
ATOM      6  CB  ALA B   3     -11.140 -28.066  -5.402  1.00 16.21 LIG 0.04  C 
BRANCH 5 7
ATOM      7  N   ALA B   3     -10.948 -30.373  -6.173  1.00 13.91 LIG-0.35  N 
ATOM      8  C   ARG B   2     -11.634 -31.499  -6.000  1.00 12.46 LIG 0.24  C 
ATOM      9 O    ARG B   2     -12.863 -31.542  -6.039  1.00 11.56 LIG-0.27  OA
ATOM     10 H    ALA B   3     -10.089 -30.325  -6.156  1.00 13.91 LIG 0.16  HD
BRANCH 8 11
ATOM     11  CA  ARG B   2     -10.825 -32.765  -5.740  1.00 12.24 LIG 0.18  C 
BRANCH 11 12
ATOM     12  CB  ARG B   2     -10.636 -32.956  -4.233  1.00 10.58 LIG 0.04  C 
BRANCH 12 13
ATOM     13  CG  ARG B   2     -11.325 -34.185  -3.656  1.00  9.71 LIG 0.02  C 
BRANCH 13 14
ATOM     14  CD  ARG B   2     -10.442 -34.847  -2.612  1.00  9.44 LIG 0.14  C 
BRANCH 14 15
ATOM     15  NE  ARG B   2      -9.019 -34.673  -2.898  1.00  9.23 LIG-0.23  N 
ATOM     16  CZ  ARG B   2      -8.049 -34.820  -2.004  1.00  9.20 LIG 0.67  C 
ATOM     17  NH1 ARG B   2      -8.344 -35.146  -0.752  1.00  7.63 LIG-0.23  N 
ATOM     18  NH2 ARG B   2      -6.783 -34.644  -2.360  1.00  9.31 LIG-0.23  N 
ATOM     19 1HH1 ARG B   2      -9.163 -35.262  -0.520  1.00  7.63 LIG 0.17  HD
ATOM     20 2HH1 ARG B   2      -7.715 -35.242  -0.173  1.00  7.63 LIG 0.17  HD
ATOM     21 2HH2 ARG B   2      -6.155 -34.740  -1.780  1.00  9.31 LIG 0.17  HD
ATOM     22 1HH2 ARG B   2      -6.589 -34.433  -3.171  1.00  9.31 LIG 0.17  HD
ATOM     23 HE   ARG B   2      -8.795 -34.460  -3.701  1.00  9.23 LIG 0.18  HD
ENDBRANCH 14 15
ENDBRANCH 13 14
ENDBRANCH 12 13
ENDBRANCH 11 12
BRANCH 11 24
ATOM     24  N   ARG B   2      -9.522 -32.818  -6.395  1.00 12.50 LIG-0.35  N 
ATOM     25  C   ALA B   1      -9.355 -32.632  -7.698  1.00 14.33 LIG 0.25  C 
ATOM     26 O    ALA B   1     -10.276 -32.361  -8.467  1.00 14.72 LIG-0.27  OA
ATOM     27 H    ARG B   2      -8.871 -32.982  -5.856  1.00 12.50 LIG 0.16  HD
BRANCH 25 28
ATOM     28  CA  ALA B   1      -7.921 -32.759  -8.203  1.00 14.93 LIG 0.27  C 
ATOM     29  CB  ALA B   1      -7.184 -33.844  -7.426  1.00 16.58 LIG 0.05  C 
BRANCH 28 30
ATOM     30  N   ALA B   1      -7.194 -31.464  -8.090  1.00 16.58 LIG-0.07  N 
ATOM     31 H3   ALA B   1      -6.330 -31.593  -8.259  1.00 16.58 LIG 0.28  HD
ATOM     32 H1   ALA B   1      -7.528 -30.885  -8.678  1.00 16.58 LIG 0.28  HD
ATOM     33 H2   ALA B   1      -7.291 -31.140  -7.267  1.00 16.58 LIG 0.28  HD
ENDBRANCH 28 30
ENDBRANCH 25 28
ENDBRANCH 11 24
ENDBRANCH 8 11
ENDBRANCH 5 7
ENDBRANCH 1 5
BRANCH 3 34
ATOM     34  CA  GLU B   4     -10.359 -26.921  -9.284  1.00 20.15 LIG 0.18  C 
BRANCH 34 35
ATOM     35  C   GLU B   4     -11.631 -26.319  -9.877  1.00 19.92 LIG 0.24  C 
ATOM     36  N   VAL B   5     -12.610 -26.042  -9.022  1.00 19.46 LIG-0.35  N 
ATOM     37 H    VAL B   5     -12.563 -26.182  -8.174  1.00 19.46 LIG 0.16  HD
ATOM     38 O    GLU B   4     -11.718 -26.102 -11.086  1.00 20.03 LIG-0.27  OA
BRANCH 36 39
ATOM     39  CA  VAL B   5     -13.874 -25.464  -9.470  1.00 20.09 LIG 0.18  C 
BRANCH 39 40
ATOM     40  CB  VAL B   5     -14.700 -26.488 -10.285  1.00 20.49 LIG 0.01  C 
ATOM     41  CG2 VAL B   5     -14.215 -27.898  -9.998  1.00 19.70 LIG 0.01  C 
ATOM     42  CG1 VAL B   5     -14.591 -26.183 -11.769  1.00 21.00 LIG 0.01  C 
ENDBRANCH 39 40
BRANCH 39 43
ATOM     43  C   VAL B   5     -14.721 -24.994  -8.291  1.00 20.75 LIG 0.24  C 
ATOM     44  N   HIS B   6     -16.007 -24.760  -8.539  1.00 20.78 LIG-0.35  N 
ATOM     45 H    HIS B   6     -16.372 -24.846  -9.314  1.00 20.78 LIG 0.16  HD
ATOM     46 O    VAL B   5     -14.218 -24.840  -7.179  1.00 21.91 LIG-0.27  OA
BRANCH 44 47
ATOM     47  CA  HIS B   6     -16.918 -24.328  -7.485  1.00 21.28 LIG 0.17  C 
BRANCH 47 48
ATOM     48  C   HIS B   6     -16.286 -23.191  -6.690  1.00 23.03 LIG 0.22  C 
ATOM     49 O    HIS B   6     -16.906 -22.109  -6.611  1.00 25.39 LIG-0.29  OA
ENDBRANCH 47 48
BRANCH 47 50
ATOM     50  CB  HIS B   6     -17.246 -25.483  -6.535  1.00 19.33 LIG 0.09  C 
BRANCH 50 51
ATOM     51  CG  HIS B   6     -16.862 -26.829  -7.072  1.00 17.39 LIG 0.06  A 
ATOM     52  CD2 HIS B   6     -15.879 -27.687  -6.709  1.00 16.59 LIG 0.14  A 
ATOM     53 NE2  HIS B   6     -15.994 -28.798  -7.510  1.00 16.70 LIG-0.25  NA
ATOM     54  CE1 HIS B   6     -17.010 -28.627  -8.336  1.00 16.06 LIG 0.23  A 
ATOM     55 ND1  HIS B   6     -17.552 -27.446  -8.093  1.00 16.09 LIG-0.24  NA
ENDBRANCH 50 51
ENDBRANCH 47 50
ENDBRANCH 44 47
ENDBRANCH 39 43
ENDBRANCH 36 39
ENDBRANCH 34 35
BRANCH 34 56
ATOM     56  CB  GLU B   4      -9.809 -27.976 -10.249  1.00 22.38 LIG 0.04  C 
BRANCH 56 57
ATOM     57  CG  GLU B   4      -8.409 -28.462  -9.921  1.00 27.64 LIG 0.12  C 
BRANCH 57 58
ATOM     58  CD  GLU B   4      -8.062 -29.747 -10.648  1.00 30.78 LIG 0.17  C 
ATOM     59 OE2  GLU B   4      -6.857 -30.021 -10.836  1.00 32.62 LIG-0.65  OA
ATOM     60 OE1  GLU B   4      -8.996 -30.482 -11.032  1.00 32.75 LIG-0.65  OA
ENDBRANCH 57 58
ENDBRANCH 56 57
ENDBRANCH 34 56
ENDBRANCH 3 34
TORSDOF 22
ENDMDL
MODEL 41
USER: ADFR SOLUTION from run 150
USER: SCORE 18.964800 LL:  -5.622 LR: -13.877 RR:   0.000 FEB:  -7.315
USER: RMSD 3.750856
USER: SEED 149
USER: STATUS no improvement in best in 3 clusters for 5 generations
USER: GENES 24
USER: genes 0 Translation |==|  0.41667 0.49444 0.23268
USER: genes 1 Rotation |==|  0.58077 0.60784 0.43289 0.97680
USER: genes 2 Torsion [N]-C--CA-[N] |==|  0.90248
USER: genes 3 Torsion [C]-CA--N-[C] |==|  0.81353
USER: genes 4 Torsion [N]-C--CA-[N] |==|  0.93224
USER: genes 5 Torsion [C]-CA--CB-[CG] |==|  0.15372
USER: genes 6 Torsion [CA]-CB--CG-[CD] |==|  0.50904
USER: genes 7 Torsion [CB]-CG--CD-[NE] |==|  0.69820
USER: genes 8 Torsion [CG]-CD--NE-[CZ] |==|  0.33892
USER: genes 9 Torsion [C]-CA--N-[C] |==|  0.80939
USER: genes 10 Torsion [N]-C--CA-[N] |==|  0.31904
USER: genes 11 Torsion [C]-CA--N-[H2] |==|  0.35627
USER: genes 12 Torsion [C]-N--CA-[C] |==|  0.64849
USER: genes 13 Torsion [N]-CA--C-[N] |==|  0.39444
USER: genes 14 Torsion [C]-N--CA-[CB] |==|  0.87564
USER: genes 15 Torsion [N]-CA--CB-[CG2] |==|  0.82679
USER: genes 16 Torsion [N]-CA--C-[N] |==|  0.88802
USER: genes 17 Torsion [C]-N--CA-[C] |==|  0.66836
USER: genes 18 Torsion [N]-CA--C-[O] |==|  0.59045
USER: genes 19 Torsion [N]-CA--CB-[CG] |==|  0.91141
USER: genes 20 Torsion [CA]-CB--CG-[CD2] |==|  0.82553
USER: genes 21 Torsion [N]-CA--CB-[CG] |==|  0.74131
USER: genes 22 Torsion [CA]-CB--CG-[CD] |==|  0.18458
USER: genes 23 Torsion [CB]-CG--CD-[OE2] |==|  0.13217
ROOT
ATOM      1  C   ALA B   3     -16.636 -28.218 -10.860  1.00 17.17 LIG 0.24  C 
ATOM      2 O    ALA B   3     -17.761 -28.464 -11.298  1.00 18.54 LIG-0.27  OA
ATOM      3  N   GLU B   4     -15.847 -29.151 -10.332  1.00 17.89 LIG-0.35  N 
ATOM      4 H    GLU B   4     -15.060 -28.991 -10.023  1.00 17.89 LIG 0.16  HD
ENDROOT
BRANCH 1 5
ATOM      5  CA  ALA B   3     -16.083 -26.794 -10.906  1.00 15.99 LIG 0.17  C 
ATOM      6  CB  ALA B   3     -15.297 -26.580 -12.196  1.00 16.21 LIG 0.04  C 
BRANCH 5 7
ATOM      7  N   ALA B   3     -15.248 -26.463  -9.758  1.00 13.91 LIG-0.35  N 
ATOM      8  C   ARG B   2     -15.757 -26.365  -8.533  1.00 12.46 LIG 0.24  C 
ATOM      9 O    ARG B   2     -16.948 -26.555  -8.291  1.00 11.56 LIG-0.27  OA
ATOM     10 H    ALA B   3     -14.417 -26.340  -9.945  1.00 13.91 LIG 0.16  HD
BRANCH 8 11
ATOM     11  CA  ARG B   2     -14.790 -25.996  -7.413  1.00 12.24 LIG 0.18  C 
BRANCH 11 12
ATOM     12  CB  ARG B   2     -14.905 -24.502  -7.104  1.00 10.58 LIG 0.04  C 
BRANCH 12 13
ATOM     13  CG  ARG B   2     -16.311 -24.030  -6.761  1.00  9.71 LIG 0.02  C 
BRANCH 13 14
ATOM     14  CD  ARG B   2     -16.328 -22.525  -6.551  1.00  9.44 LIG 0.14  C 
BRANCH 14 15
ATOM     15  NE  ARG B   2     -16.513 -22.163  -5.146  1.00  9.23 LIG-0.23  N 
ATOM     16  CZ  ARG B   2     -15.665 -21.422  -4.443  1.00  9.20 LIG 0.67  C 
ATOM     17  NH1 ARG B   2     -14.560 -20.957  -5.012  1.00  7.63 LIG-0.23  N 
ATOM     18  NH2 ARG B   2     -15.920 -21.144  -3.171  1.00  9.31 LIG-0.23  N 
ATOM     19 1HH1 ARG B   2     -14.393 -21.136  -5.837  1.00  7.63 LIG 0.17  HD
ATOM     20 2HH1 ARG B   2     -14.011 -20.477  -4.557  1.00  7.63 LIG 0.17  HD
ATOM     21 2HH2 ARG B   2     -15.370 -20.663  -2.717  1.00  9.31 LIG 0.17  HD
ATOM     22 1HH2 ARG B   2     -16.636 -21.443  -2.801  1.00  9.31 LIG 0.17  HD
ATOM     23 HE   ARG B   2     -17.219 -22.450  -4.748  1.00  9.23 LIG 0.18  HD
ENDBRANCH 14 15
ENDBRANCH 13 14
ENDBRANCH 12 13
ENDBRANCH 11 12
BRANCH 11 24
ATOM     24  N   ARG B   2     -13.391 -26.326  -7.664  1.00 12.50 LIG-0.35  N 
ATOM     25  C   ALA B   1     -12.936 -27.572  -7.722  1.00 14.33 LIG 0.25  C 
ATOM     26 O    ALA B   1     -13.656 -28.562  -7.607  1.00 14.72 LIG-0.27  OA
ATOM     27 H    ARG B   2     -12.888 -25.637  -7.771  1.00 12.50 LIG 0.16  HD
BRANCH 25 28
ATOM     28  CA  ALA B   1     -11.435 -27.714  -7.960  1.00 14.93 LIG 0.27  C 
ATOM     29  CB  ALA B   1     -11.177 -28.547  -9.209  1.00 16.58 LIG 0.05  C 
BRANCH 28 30
ATOM     30  N   ALA B   1     -10.761 -28.330  -6.784  1.00 16.58 LIG-0.07  N 
ATOM     31 H3   ALA B   1     -10.237 -27.727  -6.392  1.00 16.58 LIG 0.28  HD
ATOM     32 H1   ALA B   1     -11.374 -28.613  -6.204  1.00 16.58 LIG 0.28  HD
ATOM     33 H2   ALA B   1     -10.267 -29.020  -7.052  1.00 16.58 LIG 0.28  HD
ENDBRANCH 28 30
ENDBRANCH 25 28
ENDBRANCH 11 24
ENDBRANCH 8 11
ENDBRANCH 5 7
ENDBRANCH 1 5
BRANCH 3 34
ATOM     34  CA  GLU B   4     -16.258 -30.549 -10.231  1.00 20.15 LIG 0.18  C 
BRANCH 34 35
ATOM     35  C   GLU B   4     -16.115 -31.056  -8.798  1.00 19.92 LIG 0.24  C 
ATOM     36  N   VAL B   5     -17.062 -31.882  -8.364  1.00 19.46 LIG-0.35  N 
ATOM     37 H    VAL B   5     -17.732 -32.138  -8.838  1.00 19.46 LIG 0.16  HD
ATOM     38 O    GLU B   4     -15.159 -30.711  -8.103  1.00 20.03 LIG-0.27  OA
BRANCH 36 39
ATOM     39  CA  VAL B   5     -17.032 -32.433  -7.012  1.00 20.09 LIG 0.18  C 
BRANCH 39 40
ATOM     40  CB  VAL B   5     -15.614 -32.927  -6.639  1.00 20.49 LIG 0.01  C 
ATOM     41  CG2 VAL B   5     -15.192 -34.052  -7.568  1.00 19.70 LIG 0.01  C 
ATOM     42  CG1 VAL B   5     -15.588 -33.396  -5.195  1.00 21.00 LIG 0.01  C 
ENDBRANCH 39 40
BRANCH 39 43
ATOM     43  C   VAL B   5     -17.464 -31.396  -5.978  1.00 20.75 LIG 0.24  C 
ATOM     44  N   HIS B   6     -17.021 -30.154  -6.161  1.00 20.78 LIG-0.35  N 
ATOM     45 H    HIS B   6     -16.507 -29.916  -6.808  1.00 20.78 LIG 0.16  HD
ATOM     46 O    VAL B   5     -18.179 -31.716  -5.029  1.00 21.91 LIG-0.27  OA
BRANCH 44 47
ATOM     47  CA  HIS B   6     -17.387 -29.076  -5.249  1.00 21.28 LIG 0.17  C 
BRANCH 47 48
ATOM     48  C   HIS B   6     -18.136 -27.988  -6.008  1.00 23.03 LIG 0.22  C 
ATOM     49 O    HIS B   6     -17.996 -26.803  -5.635  1.00 25.39 LIG-0.29  OA
ENDBRANCH 47 48
BRANCH 47 50
ATOM     50  CB  HIS B   6     -16.143 -28.466  -4.594  1.00 19.33 LIG 0.09  C 
BRANCH 50 51
ATOM     51  CG  HIS B   6     -15.032 -29.449  -4.384  1.00 17.39 LIG 0.06  A 
ATOM     52  CD2 HIS B   6     -14.965 -30.571  -3.629  1.00 16.59 LIG 0.14  A 
ATOM     53 NE2  HIS B   6     -13.720 -31.120  -3.826  1.00 16.70 LIG-0.25  NA
ATOM     54  CE1 HIS B   6     -13.047 -30.360  -4.672  1.00 16.06 LIG 0.23  A 
ATOM     55 ND1  HIS B   6     -13.817 -29.345  -5.024  1.00 16.09 LIG-0.24  NA
ENDBRANCH 50 51
ENDBRANCH 47 50
ENDBRANCH 44 47
ENDBRANCH 39 43
ENDBRANCH 36 39
ENDBRANCH 34 35
BRANCH 34 56
ATOM     56  CB  GLU B   4     -15.406 -31.421 -11.157  1.00 22.38 LIG 0.04  C 
BRANCH 56 57
ATOM     57  CG  GLU B   4     -16.000 -31.648 -12.535  1.00 27.64 LIG 0.12  C 
BRANCH 57 58
ATOM     58  CD  GLU B   4     -16.066 -30.371 -13.350  1.00 30.78 LIG 0.17  C 
ATOM     59 OE2  GLU B   4     -15.052 -29.642 -13.403  1.00 32.62 LIG-0.65  OA
ATOM     60 OE1  GLU B   4     -17.134 -30.096 -13.938  1.00 32.75 LIG-0.65  OA
ENDBRANCH 57 58
ENDBRANCH 56 57
ENDBRANCH 34 56
ENDBRANCH 3 34
TORSDOF 22
ENDMDL
MODEL 42
USER: ADFR SOLUTION from run 177
USER: SCORE 16.432603 LL:  -3.972 LR: -13.871 RR:   0.000 FEB:  -7.308
USER: RMSD 6.171632
USER: SEED 176
USER: STATUS no improvement in best in 10 clusters for 5 generations
USER: GENES 24
USER: genes 0 Translation |==|  0.64406 0.50176 0.24672
USER: genes 1 Rotation |==|  0.59907 0.98527 0.50687 0.56819
USER: genes 2 Torsion [N]-C--CA-[N] |==|  0.36282
USER: genes 3 Torsion [C]-CA--N-[C] |==|  0.74190
USER: genes 4 Torsion [N]-C--CA-[N] |==|  0.42407
USER: genes 5 Torsion [C]-CA--CB-[CG] |==|  0.04560
USER: genes 6 Torsion [CA]-CB--CG-[CD] |==|  0.27701
USER: genes 7 Torsion [CB]-CG--CD-[NE] |==|  0.89231
USER: genes 8 Torsion [CG]-CD--NE-[CZ] |==|  0.59053
USER: genes 9 Torsion [C]-CA--N-[C] |==|  0.63721
USER: genes 10 Torsion [N]-C--CA-[N] |==|  0.02148
USER: genes 11 Torsion [C]-CA--N-[H2] |==|  0.40618
USER: genes 12 Torsion [C]-N--CA-[C] |==|  0.20556
USER: genes 13 Torsion [N]-CA--C-[N] |==|  0.14982
USER: genes 14 Torsion [C]-N--CA-[CB] |==|  0.76105
USER: genes 15 Torsion [N]-CA--CB-[CG2] |==|  0.18407
USER: genes 16 Torsion [N]-CA--C-[N] |==|  0.13634
USER: genes 17 Torsion [C]-N--CA-[C] |==|  0.15536
USER: genes 18 Torsion [N]-CA--C-[O] |==|  0.32817
USER: genes 19 Torsion [N]-CA--CB-[CG] |==|  0.74557
USER: genes 20 Torsion [CA]-CB--CG-[CD2] |==|  0.28797
USER: genes 21 Torsion [N]-CA--CB-[CG] |==|  0.62651
USER: genes 22 Torsion [CA]-CB--CG-[CD] |==|  0.28319
USER: genes 23 Torsion [CB]-CG--CD-[OE2] |==|  0.03008
ROOT
ATOM      1  C   ALA B   3     -12.543 -28.048 -10.555  1.00 17.17 LIG 0.24  C 
ATOM      2 O    ALA B   3     -12.348 -28.959  -9.749  1.00 18.54 LIG-0.27  OA
ATOM      3  N   GLU B   4     -12.975 -28.261 -11.795  1.00 17.89 LIG-0.35  N 
ATOM      4 H    GLU B   4     -13.114 -27.634 -12.367  1.00 17.89 LIG 0.16  HD
ENDROOT
BRANCH 1 5
ATOM      5  CA  ALA B   3     -12.290 -26.595 -10.154  1.00 15.99 LIG 0.17  C 
ATOM      6  CB  ALA B   3     -10.791 -26.324 -10.091  1.00 16.21 LIG 0.04  C 
BRANCH 5 7
ATOM      7  N   ALA B   3     -12.912 -26.230  -8.887  1.00 13.91 LIG-0.35  N 
ATOM      8  C   ARG B   2     -14.125 -25.687  -8.839  1.00 12.46 LIG 0.24  C 
ATOM      9 O    ARG B   2     -14.797 -25.470  -9.847  1.00 11.56 LIG-0.27  OA
ATOM     10 H    ALA B   3     -12.431 -26.395  -8.194  1.00 13.91 LIG 0.16  HD
BRANCH 8 11
ATOM     11  CA  ARG B   2     -14.666 -25.332  -7.458  1.00 12.24 LIG 0.18  C 
BRANCH 11 12
ATOM     12  CB  ARG B   2     -15.294 -26.570  -6.816  1.00 10.58 LIG 0.04  C 
BRANCH 12 13
ATOM     13  CG  ARG B   2     -14.907 -27.891  -7.467  1.00  9.71 LIG 0.02  C 
BRANCH 13 14
ATOM     14  CD  ARG B   2     -13.811 -28.575  -6.666  1.00  9.44 LIG 0.14  C 
BRANCH 14 15
ATOM     15  NE  ARG B   2     -12.828 -27.625  -6.147  1.00  9.23 LIG-0.23  N 
ATOM     16  CZ  ARG B   2     -11.539 -27.895  -5.980  1.00  9.20 LIG 0.67  C 
ATOM     17  NH1 ARG B   2     -11.065 -29.095  -6.291  1.00  7.63 LIG-0.23  N 
ATOM     18  NH2 ARG B   2     -10.721 -26.964  -5.504  1.00  9.31 LIG-0.23  N 
ATOM     19 1HH1 ARG B   2     -11.594 -29.698  -6.600  1.00  7.63 LIG 0.17  HD
ATOM     20 2HH1 ARG B   2     -10.230 -29.269  -6.182  1.00  7.63 LIG 0.17  HD
ATOM     21 2HH2 ARG B   2      -9.886 -27.140  -5.397  1.00  9.31 LIG 0.17  HD
ATOM     22 1HH2 ARG B   2     -11.026 -26.186  -5.303  1.00  9.31 LIG 0.17  HD
ATOM     23 HE   ARG B   2     -13.104 -26.839  -5.935  1.00  9.23 LIG 0.18  HD
ENDBRANCH 14 15
ENDBRANCH 13 14
ENDBRANCH 12 13
ENDBRANCH 11 12
BRANCH 11 24
ATOM     24  N   ARG B   2     -15.630 -24.237  -7.428  1.00 12.50 LIG-0.35  N 
ATOM     25  C   ALA B   1     -15.539 -23.210  -6.592  1.00 14.33 LIG 0.25  C 
ATOM     26 O    ALA B   1     -14.615 -23.068  -5.793  1.00 14.72 LIG-0.27  OA
ATOM     27 H    ARG B   2     -16.263 -24.319  -8.004  1.00 12.50 LIG 0.16  HD
BRANCH 25 28
ATOM     28  CA  ALA B   1     -16.661 -22.181  -6.689  1.00 14.93 LIG 0.27  C 
ATOM     29  CB  ALA B   1     -17.228 -21.888  -5.305  1.00 16.58 LIG 0.05  C 
BRANCH 28 30
ATOM     30  N   ALA B   1     -17.743 -22.650  -7.598  1.00 16.58 LIG-0.07  N 
ATOM     31 H3   ALA B   1     -17.599 -22.335  -8.419  1.00 16.58 LIG 0.28  HD
ATOM     32 H1   ALA B   1     -17.748 -23.540  -7.619  1.00 16.58 LIG 0.28  HD
ATOM     33 H2   ALA B   1     -18.528 -22.356  -7.302  1.00 16.58 LIG 0.28  HD
ENDBRANCH 28 30
ENDBRANCH 25 28
ENDBRANCH 11 24
ENDBRANCH 8 11
ENDBRANCH 5 7
ENDBRANCH 1 5
BRANCH 3 34
ATOM     34  CA  GLU B   4     -13.254 -29.604 -12.300  1.00 20.15 LIG 0.18  C 
BRANCH 34 35
ATOM     35  C   GLU B   4     -14.551 -30.150 -11.707  1.00 19.92 LIG 0.24  C 
ATOM     36  N   VAL B   5     -15.633 -29.390 -11.847  1.00 19.46 LIG-0.35  N 
ATOM     37 H    VAL B   5     -15.637 -28.627 -12.245  1.00 19.46 LIG 0.16  HD
ATOM     38 O    GLU B   4     -14.571 -31.243 -11.141  1.00 20.03 LIG-0.27  OA
BRANCH 36 39
ATOM     39  CA  VAL B   5     -16.930 -29.806 -11.322  1.00 20.09 LIG 0.18  C 
BRANCH 39 40
ATOM     40  CB  VAL B   5     -17.682 -30.702 -12.334  1.00 20.49 LIG 0.01  C 
ATOM     41  CG2 VAL B   5     -16.946 -32.018 -12.517  1.00 19.70 LIG 0.01  C 
ATOM     42  CG1 VAL B   5     -17.820 -29.984 -13.666  1.00 21.00 LIG 0.01  C 
ENDBRANCH 39 40
BRANCH 39 43
ATOM     43  C   VAL B   5     -16.780 -30.581 -10.016  1.00 20.75 LIG 0.24  C 
ATOM     44  N   HIS B   6     -16.007 -30.031  -9.083  1.00 20.78 LIG-0.35  N 
ATOM     45 H    HIS B   6     -15.588 -29.286  -9.182  1.00 20.78 LIG 0.16  HD
ATOM     46 O    VAL B   5     -17.348 -31.661  -9.858  1.00 21.91 LIG-0.27  OA
BRANCH 44 47
ATOM     47  CA  HIS B   6     -15.807 -30.670  -7.788  1.00 21.28 LIG 0.17  C 
BRANCH 47 48
ATOM     48  C   HIS B   6     -15.277 -32.086  -7.986  1.00 23.03 LIG 0.22  C 
ATOM     49 O    HIS B   6     -14.151 -32.366  -7.522  1.00 25.39 LIG-0.29  OA
ENDBRANCH 47 48
BRANCH 47 50
ATOM     50  CB  HIS B   6     -17.118 -30.731  -6.998  1.00 19.33 LIG 0.09  C 
BRANCH 50 51
ATOM     51  CG  HIS B   6     -17.332 -29.551  -6.100  1.00 17.39 LIG 0.06  A 
ATOM     52  CD2 HIS B   6     -18.134 -28.467  -6.227  1.00 16.59 LIG 0.14  A 
ATOM     53 NE2  HIS B   6     -17.970 -27.706  -5.095  1.00 16.70 LIG-0.25  NA
ATOM     54  CE1 HIS B   6     -17.097 -28.300  -4.302  1.00 16.06 LIG 0.23  A 
ATOM     55 ND1  HIS B   6     -16.696 -29.416  -4.885  1.00 16.09 LIG-0.24  NA
ENDBRANCH 50 51
ENDBRANCH 47 50
ENDBRANCH 44 47
ENDBRANCH 39 43
ENDBRANCH 36 39
ENDBRANCH 34 35
BRANCH 34 56
ATOM     56  CB  GLU B   4     -12.105 -30.552 -11.946  1.00 22.38 LIG 0.04  C 
BRANCH 56 57
ATOM     57  CG  GLU B   4     -11.648 -31.444 -13.087  1.00 27.64 LIG 0.12  C 
BRANCH 57 58
ATOM     58  CD  GLU B   4     -10.368 -30.945 -13.728  1.00 30.78 LIG 0.17  C 
ATOM     59 OE2  GLU B   4      -9.731 -30.032 -13.161  1.00 32.62 LIG-0.65  OA
ATOM     60 OE1  GLU B   4      -9.999 -31.467 -14.802  1.00 32.75 LIG-0.65  OA
ENDBRANCH 57 58
ENDBRANCH 56 57
ENDBRANCH 34 56
ENDBRANCH 3 34
TORSDOF 22
ENDMDL
MODEL 43
USER: ADFR SOLUTION from run 15
USER: SCORE 15.063079 LL:  -4.161 LR: -13.868 RR:   0.000 FEB:  -7.305
USER: RMSD 8.795531
USER: SEED 310011
USER: STATUS no improvement in best in 13 clusters for 5 generations
USER: GENES 24
USER: genes 0 Translation |==|  0.41949 0.49519 0.31272
USER: genes 1 Rotation |==|  0.50142 0.95752 0.69526 0.55044
USER: genes 2 Torsion [N]-C--CA-[N] |==|  0.51933
USER: genes 3 Torsion [C]-CA--N-[C] |==|  0.62378
USER: genes 4 Torsion [N]-C--CA-[N] |==|  0.64815
USER: genes 5 Torsion [C]-CA--CB-[CG] |==|  0.81635
USER: genes 6 Torsion [CA]-CB--CG-[CD] |==|  0.40138
USER: genes 7 Torsion [CB]-CG--CD-[NE] |==|  0.00613
USER: genes 8 Torsion [CG]-CD--NE-[CZ] |==|  0.36346
USER: genes 9 Torsion [C]-CA--N-[C] |==|  0.10657
USER: genes 10 Torsion [N]-C--CA-[N] |==|  0.17167
USER: genes 11 Torsion [C]-CA--N-[H2] |==|  0.77963
USER: genes 12 Torsion [C]-N--CA-[C] |==|  0.17746
USER: genes 13 Torsion [N]-CA--C-[N] |==|  0.63928
USER: genes 14 Torsion [C]-N--CA-[CB] |==|  0.82820
USER: genes 15 Torsion [N]-CA--CB-[CG2] |==|  0.85488
USER: genes 16 Torsion [N]-CA--C-[N] |==|  0.74599
USER: genes 17 Torsion [C]-N--CA-[C] |==|  0.58273
USER: genes 18 Torsion [N]-CA--C-[O] |==|  0.71523
USER: genes 19 Torsion [N]-CA--CB-[CG] |==|  0.80815
USER: genes 20 Torsion [CA]-CB--CG-[CD2] |==|  0.85069
USER: genes 21 Torsion [N]-CA--CB-[CG] |==|  0.87473
USER: genes 22 Torsion [CA]-CB--CG-[CD] |==|  0.85351
USER: genes 23 Torsion [CB]-CG--CD-[OE2] |==|  0.69812
ROOT
ATOM      1  C   ALA B   3     -16.585 -28.201  -9.119  1.00 17.17 LIG 0.24  C 
ATOM      2 O    ALA B   3     -15.944 -29.248  -9.015  1.00 18.54 LIG-0.27  OA
ATOM      3  N   GLU B   4     -16.957 -27.696 -10.293  1.00 17.89 LIG-0.35  N 
ATOM      4 H    GLU B   4     -17.404 -26.966 -10.378  1.00 17.89 LIG 0.16  HD
ENDROOT
BRANCH 1 5
ATOM      5  CA  ALA B   3     -16.992 -27.416  -7.872  1.00 15.99 LIG 0.17  C 
ATOM      6  CB  ALA B   3     -16.612 -25.948  -8.032  1.00 16.21 LIG 0.04  C 
BRANCH 5 7
ATOM      7  N   ALA B   3     -16.412 -27.945  -6.644  1.00 13.91 LIG-0.35  N 
ATOM      8  C   ARG B   2     -17.140 -28.095  -5.541  1.00 12.46 LIG 0.24  C 
ATOM      9 O    ARG B   2     -18.336 -27.810  -5.488  1.00 11.56 LIG-0.27  OA
ATOM     10 H    ALA B   3     -15.578 -28.145  -6.701  1.00 13.91 LIG 0.16  HD
BRANCH 8 11
ATOM     11  CA  ARG B   2     -16.422 -28.642  -4.311  1.00 12.24 LIG 0.18  C 
BRANCH 11 12
ATOM     12  CB  ARG B   2     -14.972 -28.978  -4.669  1.00 10.58 LIG 0.04  C 
BRANCH 12 13
ATOM     13  CG  ARG B   2     -14.809 -30.121  -5.661  1.00  9.71 LIG 0.02  C 
BRANCH 13 14
ATOM     14  CD  ARG B   2     -13.630 -29.858  -6.583  1.00  9.44 LIG 0.14  C 
BRANCH 14 15
ATOM     15  NE  ARG B   2     -12.932 -28.617  -6.251  1.00  9.23 LIG-0.23  N 
ATOM     16  CZ  ARG B   2     -11.617 -28.512  -6.101  1.00  9.20 LIG 0.67  C 
ATOM     17  NH1 ARG B   2     -10.844 -29.580  -6.251  1.00  7.63 LIG-0.23  N 
ATOM     18  NH2 ARG B   2     -11.073 -27.339  -5.801  1.00  9.31 LIG-0.23  N 
ATOM     19 1HH1 ARG B   2     -11.194 -30.340  -6.447  1.00  7.63 LIG 0.17  HD
ATOM     20 2HH1 ARG B   2      -9.992 -29.511  -6.154  1.00  7.63 LIG 0.17  HD
ATOM     21 2HH2 ARG B   2     -10.221 -27.273  -5.705  1.00  9.31 LIG 0.17  HD
ATOM     22 1HH2 ARG B   2     -11.572 -26.646  -5.704  1.00  9.31 LIG 0.17  HD
ATOM     23 HE   ARG B   2     -13.405 -27.907  -6.146  1.00  9.23 LIG 0.18  HD
ENDBRANCH 14 15
ENDBRANCH 13 14
ENDBRANCH 12 13
ENDBRANCH 11 12
BRANCH 11 24
ATOM     24  N   ARG B   2     -17.043 -29.809  -3.693  1.00 12.50 LIG-0.35  N 
ATOM     25  C   ALA B   1     -17.608 -30.788  -4.390  1.00 14.33 LIG 0.25  C 
ATOM     26 O    ALA B   1     -17.625 -30.820  -5.619  1.00 14.72 LIG-0.27  OA
ATOM     27 H    ARG B   2     -17.010 -29.802  -2.834  1.00 12.50 LIG 0.16  HD
BRANCH 25 28
ATOM     28  CA  ALA B   1     -18.235 -31.906  -3.564  1.00 14.93 LIG 0.27  C 
ATOM     29  CB  ALA B   1     -18.752 -33.010  -4.478  1.00 16.58 LIG 0.05  C 
BRANCH 28 30
ATOM     30  N   ALA B   1     -19.340 -31.388  -2.710  1.00 16.58 LIG-0.07  N 
ATOM     31 H3   ALA B   1     -19.819 -30.796  -3.171  1.00 16.58 LIG 0.28  HD
ATOM     32 H1   ALA B   1     -19.863 -32.064  -2.460  1.00 16.58 LIG 0.28  HD
ATOM     33 H2   ALA B   1     -18.999 -30.996  -1.988  1.00 16.58 LIG 0.28  HD
ENDBRANCH 28 30
ENDBRANCH 25 28
ENDBRANCH 11 24
ENDBRANCH 8 11
ENDBRANCH 5 7
ENDBRANCH 1 5
BRANCH 3 34
ATOM     34  CA  GLU B   4     -16.631 -28.350 -11.558  1.00 20.15 LIG 0.18  C 
BRANCH 34 35
ATOM     35  C   GLU B   4     -17.308 -29.715 -11.655  1.00 19.92 LIG 0.24  C 
ATOM     36  N   VAL B   5     -16.531 -30.740 -11.991  1.00 19.46 LIG-0.35  N 
ATOM     37 H    VAL B   5     -15.689 -30.673 -12.152  1.00 19.46 LIG 0.16  HD
ATOM     38 O    GLU B   4     -18.511 -29.837 -11.421  1.00 20.03 LIG-0.27  OA
BRANCH 36 39
ATOM     39  CA  VAL B   5     -17.065 -32.093 -12.116  1.00 20.09 LIG 0.18  C 
BRANCH 39 40
ATOM     40  CB  VAL B   5     -17.637 -32.595 -10.768  1.00 20.49 LIG 0.01  C 
ATOM     41  CG2 VAL B   5     -16.604 -32.430  -9.667  1.00 19.70 LIG 0.01  C 
ATOM     42  CG1 VAL B   5     -18.054 -34.051 -10.888  1.00 21.00 LIG 0.01  C 
ENDBRANCH 39 40
BRANCH 39 43
ATOM     43  C   VAL B   5     -18.175 -32.161 -13.162  1.00 20.75 LIG 0.24  C 
ATOM     44  N   HIS B   6     -19.417 -31.975 -12.723  1.00 20.78 LIG-0.35  N 
ATOM     45 H    HIS B   6     -19.622 -31.835 -11.899  1.00 20.78 LIG 0.16  HD
ATOM     46 O    VAL B   5     -17.911 -32.385 -14.342  1.00 21.91 LIG-0.27  OA
BRANCH 44 47
ATOM     47  CA  HIS B   6     -20.556 -31.997 -13.635  1.00 21.28 LIG 0.17  C 
BRANCH 47 48
ATOM     48  C   HIS B   6     -21.660 -31.089 -13.106  1.00 23.03 LIG 0.22  C 
ATOM     49 O    HIS B   6     -22.643 -31.618 -12.546  1.00 25.39 LIG-0.29  OA
ENDBRANCH 47 48
BRANCH 47 50
ATOM     50  CB  HIS B   6     -21.107 -33.418 -13.791  1.00 19.33 LIG 0.09  C 
BRANCH 50 51
ATOM     51  CG  HIS B   6     -20.186 -34.340 -14.530  1.00 17.39 LIG 0.06  A 
ATOM     52  CD2 HIS B   6     -19.593 -34.227 -15.742  1.00 16.59 LIG 0.14  A 
ATOM     53 NE2  HIS B   6     -18.818 -35.348 -15.921  1.00 16.70 LIG-0.25  NA
ATOM     54  CE1 HIS B   6     -18.933 -36.123 -14.857  1.00 16.06 LIG 0.23  A 
ATOM     55 ND1  HIS B   6     -19.753 -35.537 -14.002  1.00 16.09 LIG-0.24  NA
ENDBRANCH 50 51
ENDBRANCH 47 50
ENDBRANCH 44 47
ENDBRANCH 39 43
ENDBRANCH 36 39
ENDBRANCH 34 35
BRANCH 34 56
ATOM     56  CB  GLU B   4     -15.116 -28.534 -11.684  1.00 22.38 LIG 0.04  C 
BRANCH 56 57
ATOM     57  CG  GLU B   4     -14.298 -27.314 -11.300  1.00 27.64 LIG 0.12  C 
BRANCH 57 58
ATOM     58  CD  GLU B   4     -14.747 -26.066 -12.036  1.00 30.78 LIG 0.17  C 
ATOM     59 OE2  GLU B   4     -14.005 -25.598 -12.925  1.00 32.62 LIG-0.65  OA
ATOM     60 OE1  GLU B   4     -15.842 -25.555 -11.722  1.00 32.75 LIG-0.65  OA
ENDBRANCH 57 58
ENDBRANCH 56 57
ENDBRANCH 34 56
ENDBRANCH 3 34
TORSDOF 22
ENDMDL
MODEL 44
USER: ADFR SOLUTION from run 61
USER: SCORE 17.210013 LL:  -4.336 LR: -13.845 RR:   0.000 FEB:  -7.283
USER: RMSD 7.453004
USER: SEED 60
USER: STATUS searching
USER: GENES 24
USER: genes 0 Translation |==|  0.54108 0.61048 0.28643
USER: genes 1 Rotation |==|  0.29985 0.44285 0.28638 0.90130
USER: genes 2 Torsion [N]-C--CA-[N] |==|  0.10319
USER: genes 3 Torsion [C]-CA--N-[C] |==|  0.18314
USER: genes 4 Torsion [N]-C--CA-[N] |==|  0.38378
USER: genes 5 Torsion [C]-CA--CB-[CG] |==|  0.87315
USER: genes 6 Torsion [CA]-CB--CG-[CD] |==|  0.77489
USER: genes 7 Torsion [CB]-CG--CD-[NE] |==|  0.91762
USER: genes 8 Torsion [CG]-CD--NE-[CZ] |==|  0.66930
USER: genes 9 Torsion [C]-CA--N-[C] |==|  0.86111
USER: genes 10 Torsion [N]-C--CA-[N] |==|  0.03330
USER: genes 11 Torsion [C]-CA--N-[H2] |==|  0.54821
USER: genes 12 Torsion [C]-N--CA-[C] |==|  0.16850
USER: genes 13 Torsion [N]-CA--C-[N] |==|  0.08437
USER: genes 14 Torsion [C]-N--CA-[CB] |==|  0.53918
USER: genes 15 Torsion [N]-CA--CB-[CG2] |==|  0.74782
USER: genes 16 Torsion [N]-CA--C-[N] |==|  0.30609
USER: genes 17 Torsion [C]-N--CA-[C] |==|  0.13662
USER: genes 18 Torsion [N]-CA--C-[O] |==|  0.08900
USER: genes 19 Torsion [N]-CA--CB-[CG] |==|  0.80570
USER: genes 20 Torsion [CA]-CB--CG-[CD2] |==|  0.33279
USER: genes 21 Torsion [N]-CA--CB-[CG] |==|  0.77330
USER: genes 22 Torsion [CA]-CB--CG-[CD] |==|  0.85795
USER: genes 23 Torsion [CB]-CG--CD-[OE2] |==|  0.24262
ROOT
ATOM      1  C   ALA B   3     -14.396 -25.520  -9.691  1.00 17.17 LIG 0.24  C 
ATOM      2 O    ALA B   3     -15.499 -25.820 -10.152  1.00 18.54 LIG-0.27  OA
ATOM      3  N   GLU B   4     -14.205 -25.233  -8.406  1.00 17.89 LIG-0.35  N 
ATOM      4 H    GLU B   4     -13.441 -25.022  -8.073  1.00 17.89 LIG 0.16  HD
ENDROOT
BRANCH 1 5
ATOM      5  CA  ALA B   3     -13.168 -25.464 -10.599  1.00 15.99 LIG 0.17  C 
ATOM      6  CB  ALA B   3     -13.426 -26.259 -11.875  1.00 16.21 LIG 0.04  C 
BRANCH 5 7
ATOM      7  N   ALA B   3     -11.952 -25.945  -9.955  1.00 13.91 LIG-0.35  N 
ATOM      8  C   ARG B   2     -11.814 -27.217  -9.594  1.00 12.46 LIG 0.24  C 
ATOM      9 O    ARG B   2     -12.687 -28.063  -9.786  1.00 11.56 LIG-0.27  OA
ATOM     10 H    ALA B   3     -11.351 -25.342  -9.834  1.00 13.91 LIG 0.16  HD
BRANCH 8 11
ATOM     11  CA  ARG B   2     -10.504 -27.601  -8.913  1.00 12.24 LIG 0.18  C 
BRANCH 11 12
ATOM     12  CB  ARG B   2      -9.553 -28.223  -9.938  1.00 10.58 LIG 0.04  C 
BRANCH 12 13
ATOM     13  CG  ARG B   2     -10.192 -29.260 -10.851  1.00  9.71 LIG 0.02  C 
BRANCH 13 14
ATOM     14  CD  ARG B   2     -10.280 -30.604 -10.147  1.00  9.44 LIG 0.14  C 
BRANCH 14 15
ATOM     15  NE  ARG B   2      -9.206 -30.790  -9.171  1.00  9.23 LIG-0.23  N 
ATOM     16  CZ  ARG B   2      -8.299 -31.758  -9.228  1.00  9.20 LIG 0.67  C 
ATOM     17  NH1 ARG B   2      -8.330 -32.640 -10.219  1.00  7.63 LIG-0.23  N 
ATOM     18  NH2 ARG B   2      -7.359 -31.844  -8.296  1.00  9.31 LIG-0.23  N 
ATOM     19 1HH1 ARG B   2      -8.938 -32.584 -10.825  1.00  7.63 LIG 0.17  HD
ATOM     20 2HH1 ARG B   2      -7.743 -33.266 -10.256  1.00  7.63 LIG 0.17  HD
ATOM     21 2HH2 ARG B   2      -6.772 -32.471  -8.334  1.00  9.31 LIG 0.17  HD
ATOM     22 1HH2 ARG B   2      -7.337 -31.273  -7.654  1.00  9.31 LIG 0.17  HD
ATOM     23 HE   ARG B   2      -9.160 -30.235  -8.516  1.00  9.23 LIG 0.18  HD
ENDBRANCH 14 15
ENDBRANCH 13 14
ENDBRANCH 12 13
ENDBRANCH 11 12
BRANCH 11 24
ATOM     24  N   ARG B   2     -10.634 -28.502  -7.773  1.00 12.50 LIG-0.35  N 
ATOM     25  C   ALA B   1     -11.482 -28.293  -6.773  1.00 14.33 LIG 0.25  C 
ATOM     26 O    ALA B   1     -12.261 -27.342  -6.733  1.00 14.72 LIG-0.27  OA
ATOM     27 H    ARG B   2     -10.110 -29.182  -7.810  1.00 12.50 LIG 0.16  HD
BRANCH 25 28
ATOM     28  CA  ALA B   1     -11.449 -29.330  -5.654  1.00 14.93 LIG 0.27  C 
ATOM     29  CB  ALA B   1     -11.445 -28.639  -4.296  1.00 16.58 LIG 0.05  C 
BRANCH 28 30
ATOM     30  N   ALA B   1     -10.261 -30.219  -5.781  1.00 16.58 LIG-0.07  N 
ATOM     31 H3   ALA B   1     -10.150 -30.447  -6.634  1.00 16.58 LIG 0.28  HD
ATOM     32 H1   ALA B   1      -9.537 -29.790  -5.492  1.00 16.58 LIG 0.28  HD
ATOM     33 H2   ALA B   1     -10.385 -30.952  -5.293  1.00 16.58 LIG 0.28  HD
ENDBRANCH 28 30
ENDBRANCH 25 28
ENDBRANCH 11 24
ENDBRANCH 8 11
ENDBRANCH 5 7
ENDBRANCH 1 5
BRANCH 3 34
ATOM     34  CA  GLU B   4     -15.298 -25.251  -7.436  1.00 20.15 LIG 0.18  C 
BRANCH 34 35
ATOM     35  C   GLU B   4     -15.922 -26.642  -7.346  1.00 19.92 LIG 0.24  C 
ATOM     36  N   VAL B   5     -15.114 -27.671  -7.582  1.00 19.46 LIG-0.35  N 
ATOM     37 H    VAL B   5     -14.280 -27.593  -7.777  1.00 19.46 LIG 0.16  HD
ATOM     38 O    GLU B   4     -17.111 -26.779  -7.059  1.00 20.03 LIG-0.27  OA
BRANCH 36 39
ATOM     39  CA  VAL B   5     -15.596 -29.048  -7.525  1.00 20.09 LIG 0.18  C 
BRANCH 39 40
ATOM     40  CB  VAL B   5     -14.419 -30.052  -7.487  1.00 20.49 LIG 0.01  C 
ATOM     41  CG2 VAL B   5     -14.037 -30.464  -8.898  1.00 19.70 LIG 0.01  C 
ATOM     42  CG1 VAL B   5     -14.801 -31.271  -6.665  1.00 21.00 LIG 0.01  C 
ENDBRANCH 39 40
BRANCH 39 43
ATOM     43  C   VAL B   5     -16.467 -29.283  -6.293  1.00 20.75 LIG 0.24  C 
ATOM     44  N   HIS B   6     -17.765 -29.473  -6.511  1.00 20.78 LIG-0.35  N 
ATOM     45 H    HIS B   6     -18.131 -29.458  -7.290  1.00 20.78 LIG 0.16  HD
ATOM     46 O    VAL B   5     -15.972 -29.285  -5.167  1.00 21.91 LIG-0.27  OA
BRANCH 44 47
ATOM     47  CA  HIS B   6     -18.690 -29.729  -5.412  1.00 21.28 LIG 0.17  C 
BRANCH 47 48
ATOM     48  C   HIS B   6     -18.482 -28.696  -4.310  1.00 23.03 LIG 0.22  C 
ATOM     49 O    HIS B   6     -18.122 -27.546  -4.639  1.00 25.39 LIG-0.29  OA
ENDBRANCH 47 48
BRANCH 47 50
ATOM     50  CB  HIS B   6     -18.479 -31.131  -4.832  1.00 19.33 LIG 0.09  C 
BRANCH 50 51
ATOM     51  CG  HIS B   6     -18.914 -32.231  -5.751  1.00 17.39 LIG 0.06  A 
ATOM     52  CD2 HIS B   6     -18.222 -33.254  -6.307  1.00 16.59 LIG 0.14  A 
ATOM     53 NE2  HIS B   6     -19.115 -33.995  -7.044  1.00 16.70 LIG-0.25  NA
ATOM     54  CE1 HIS B   6     -20.312 -33.445  -6.946  1.00 16.06 LIG 0.23  A 
ATOM     55 ND1  HIS B   6     -20.218 -32.378  -6.171  1.00 16.09 LIG-0.24  NA
ENDBRANCH 50 51
ENDBRANCH 47 50
ENDBRANCH 44 47
ENDBRANCH 39 43
ENDBRANCH 36 39
ENDBRANCH 34 35
BRANCH 34 56
ATOM     56  CB  GLU B   4     -16.379 -24.244  -7.835  1.00 22.38 LIG 0.04  C 
BRANCH 56 57
ATOM     57  CG  GLU B   4     -16.085 -22.809  -7.433  1.00 27.64 LIG 0.12  C 
BRANCH 57 58
ATOM     58  CD  GLU B   4     -15.719 -22.688  -5.966  1.00 30.78 LIG 0.17  C 
ATOM     59 OE2  GLU B   4     -14.523 -22.836  -5.635  1.00 32.62 LIG-0.65  OA
ATOM     60 OE1  GLU B   4     -16.628 -22.444  -5.145  1.00 32.75 LIG-0.65  OA
ENDBRANCH 57 58
ENDBRANCH 56 57
ENDBRANCH 34 56
ENDBRANCH 3 34
TORSDOF 22
ENDMDL
MODEL 45
USER: ADFR SOLUTION from run 75
USER: SCORE 16.667598 LL:  -4.481 LR: -13.847 RR:   0.000 FEB:  -7.285
USER: RMSD 6.090478
USER: SEED 74
USER: STATUS no improvement in best in 13 clusters for 5 generations
USER: GENES 24
USER: genes 0 Translation |==|  0.56242 0.43974 0.48416
USER: genes 1 Rotation |==|  0.25698 0.20762 0.47571 0.82383
USER: genes 2 Torsion [N]-C--CA-[N] |==|  0.86193
USER: genes 3 Torsion [C]-CA--N-[C] |==|  0.81121
USER: genes 4 Torsion [N]-C--CA-[N] |==|  0.88813
USER: genes 5 Torsion [C]-CA--CB-[CG] |==|  0.91327
USER: genes 6 Torsion [CA]-CB--CG-[CD] |==|  0.28113
USER: genes 7 Torsion [CB]-CG--CD-[NE] |==|  0.63108
USER: genes 8 Torsion [CG]-CD--NE-[CZ] |==|  0.32365
USER: genes 9 Torsion [C]-CA--N-[C] |==|  0.70028
USER: genes 10 Torsion [N]-C--CA-[N] |==|  0.29604
USER: genes 11 Torsion [C]-CA--N-[H2] |==|  0.63421
USER: genes 12 Torsion [C]-N--CA-[C] |==|  0.14397
USER: genes 13 Torsion [N]-CA--C-[N] |==|  0.50857
USER: genes 14 Torsion [C]-N--CA-[CB] |==|  0.83187
USER: genes 15 Torsion [N]-CA--CB-[CG2] |==|  0.62977
USER: genes 16 Torsion [N]-CA--C-[N] |==|  0.43549
USER: genes 17 Torsion [C]-N--CA-[C] |==|  0.74479
USER: genes 18 Torsion [N]-CA--C-[O] |==|  0.15011
USER: genes 19 Torsion [N]-CA--CB-[CG] |==|  0.08034
USER: genes 20 Torsion [CA]-CB--CG-[CD2] |==|  0.75303
USER: genes 21 Torsion [N]-CA--CB-[CG] |==|  0.87108
USER: genes 22 Torsion [CA]-CB--CG-[CD] |==|  0.81745
USER: genes 23 Torsion [CB]-CG--CD-[OE2] |==|  0.07109
ROOT
ATOM      1  C   ALA B   3     -14.012 -29.490  -5.391  1.00 17.17 LIG 0.24  C 
ATOM      2 O    ALA B   3     -14.187 -30.707  -5.472  1.00 18.54 LIG-0.27  OA
ATOM      3  N   GLU B   4     -14.879 -28.674  -4.796  1.00 17.89 LIG-0.35  N 
ATOM      4 H    GLU B   4     -14.768 -27.823  -4.733  1.00 17.89 LIG 0.16  HD
ENDROOT
BRANCH 1 5
ATOM      5  CA  ALA B   3     -12.759 -28.848  -5.984  1.00 15.99 LIG 0.17  C 
ATOM      6  CB  ALA B   3     -11.802 -28.440  -4.868  1.00 16.21 LIG 0.04  C 
BRANCH 5 7
ATOM      7  N   ALA B   3     -13.047 -27.698  -6.833  1.00 13.91 LIG-0.35  N 
ATOM      8  C   ARG B   2     -13.671 -27.835  -7.999  1.00 12.46 LIG 0.24  C 
ATOM      9 O    ARG B   2     -14.050 -28.924  -8.428  1.00 11.56 LIG-0.27  OA
ATOM     10 H    ALA B   3     -12.781 -26.945  -6.515  1.00 13.91 LIG 0.16  HD
BRANCH 8 11
ATOM     11  CA  ARG B   2     -13.903 -26.563  -8.809  1.00 12.24 LIG 0.18  C 
BRANCH 11 12
ATOM     12  CB  ARG B   2     -12.646 -26.229  -9.615  1.00 10.58 LIG 0.04  C 
BRANCH 12 13
ATOM     13  CG  ARG B   2     -11.338 -26.653  -8.961  1.00  9.71 LIG 0.02  C 
BRANCH 13 14
ATOM     14  CD  ARG B   2     -10.824 -27.938  -9.589  1.00  9.44 LIG 0.14  C 
BRANCH 14 15
ATOM     15  NE  ARG B   2     -10.416 -28.920  -8.586  1.00  9.23 LIG-0.23  N 
ATOM     16  CZ  ARG B   2     -10.991 -30.104  -8.417  1.00  9.20 LIG 0.67  C 
ATOM     17  NH1 ARG B   2     -12.010 -30.464  -9.187  1.00  7.63 LIG-0.23  N 
ATOM     18  NH2 ARG B   2     -10.547 -30.932  -7.479  1.00  9.31 LIG-0.23  N 
ATOM     19 1HH1 ARG B   2     -12.298 -29.929  -9.795  1.00  7.63 LIG 0.17  HD
ATOM     20 2HH1 ARG B   2     -12.382 -31.231  -9.077  1.00  7.63 LIG 0.17  HD
ATOM     21 2HH2 ARG B   2     -10.921 -31.699  -7.371  1.00  9.31 LIG 0.17  HD
ATOM     22 1HH2 ARG B   2      -9.887 -30.702  -6.980  1.00  9.31 LIG 0.17  HD
ATOM     23 HE   ARG B   2      -9.759 -28.717  -8.070  1.00  9.23 LIG 0.18  HD
ENDBRANCH 14 15
ENDBRANCH 13 14
ENDBRANCH 12 13
ENDBRANCH 11 12
BRANCH 11 24
ATOM     24  N   ARG B   2     -14.296 -25.392  -8.032  1.00 12.50 LIG-0.35  N 
ATOM     25  C   ALA B   1     -15.523 -24.885  -8.051  1.00 14.33 LIG 0.25  C 
ATOM     26 O    ALA B   1     -16.448 -25.376  -8.695  1.00 14.72 LIG-0.27  OA
ATOM     27 H    ARG B   2     -13.659 -25.061  -7.559  1.00 12.50 LIG 0.16  HD
BRANCH 25 28
ATOM     28  CA  ALA B   1     -15.733 -23.638  -7.197  1.00 14.93 LIG 0.27  C 
ATOM     29  CB  ALA B   1     -16.975 -23.798  -6.328  1.00 16.58 LIG 0.05  C 
BRANCH 28 30
ATOM     30  N   ALA B   1     -15.854 -22.420  -8.046  1.00 16.58 LIG-0.07  N 
ATOM     31 H3   ALA B   1     -15.614 -22.615  -8.881  1.00 16.58 LIG 0.28  HD
ATOM     32 H1   ALA B   1     -16.697 -22.136  -8.038  1.00 16.58 LIG 0.28  HD
ATOM     33 H2   ALA B   1     -15.323 -21.782  -7.727  1.00 16.58 LIG 0.28  HD
ENDBRANCH 28 30
ENDBRANCH 25 28
ENDBRANCH 11 24
ENDBRANCH 8 11
ENDBRANCH 5 7
ENDBRANCH 1 5
BRANCH 3 34
ATOM     34  CA  GLU B   4     -16.115 -29.163  -4.189  1.00 20.15 LIG 0.18  C 
BRANCH 34 35
ATOM     35  C   GLU B   4     -15.830 -30.311  -3.223  1.00 19.92 LIG 0.24  C 
ATOM     36  N   VAL B   5     -16.886 -30.884  -2.655  1.00 19.46 LIG-0.35  N 
ATOM     37 H    VAL B   5     -17.700 -30.646  -2.801  1.00 19.46 LIG 0.16  HD
ATOM     38 O    GLU B   4     -14.674 -30.675  -3.005  1.00 20.03 LIG-0.27  OA
BRANCH 36 39
ATOM     39  CA  VAL B   5     -16.739 -31.990  -1.714  1.00 20.09 LIG 0.18  C 
BRANCH 39 40
ATOM     40  CB  VAL B   5     -16.046 -33.203  -2.380  1.00 20.49 LIG 0.01  C 
ATOM     41  CG2 VAL B   5     -16.801 -34.480  -2.056  1.00 19.70 LIG 0.01  C 
ATOM     42  CG1 VAL B   5     -14.606 -33.306  -1.906  1.00 21.00 LIG 0.01  C 
ENDBRANCH 39 40
BRANCH 39 43
ATOM     43  C   VAL B   5     -15.918 -31.580  -0.494  1.00 20.75 LIG 0.24  C 
ATOM     44  N   HIS B   6     -16.103 -32.292   0.614  1.00 20.78 LIG-0.35  N 
ATOM     45 H    HIS B   6     -16.657 -32.947   0.679  1.00 20.78 LIG 0.16  HD
ATOM     46 O    VAL B   5     -15.136 -30.631  -0.554  1.00 21.91 LIG-0.27  OA
BRANCH 44 47
ATOM     47  CA  HIS B   6     -15.358 -32.005   1.835  1.00 21.28 LIG 0.17  C 
BRANCH 47 48
ATOM     48  C   HIS B   6     -14.089 -32.848   1.877  1.00 23.03 LIG 0.22  C 
ATOM     49 O    HIS B   6     -13.310 -32.792   0.902  1.00 25.39 LIG-0.29  OA
ENDBRANCH 47 48
BRANCH 47 50
ATOM     50  CB  HIS B   6     -16.202 -32.306   3.077  1.00 19.33 LIG 0.09  C 
BRANCH 50 51
ATOM     51  CG  HIS B   6     -17.213 -33.392   2.866  1.00 17.39 LIG 0.06  A 
ATOM     52  CD2 HIS B   6     -18.493 -33.345   2.426  1.00 16.59 LIG 0.14  A 
ATOM     53 NE2  HIS B   6     -18.957 -34.639   2.387  1.00 16.70 LIG-0.25  NA
ATOM     54  CE1 HIS B   6     -17.996 -35.450   2.792  1.00 16.06 LIG 0.23  A 
ATOM     55 ND1  HIS B   6     -16.933 -34.722   3.086  1.00 16.09 LIG-0.24  NA
ENDBRANCH 50 51
ENDBRANCH 47 50
ENDBRANCH 44 47
ENDBRANCH 39 43
ENDBRANCH 36 39
ENDBRANCH 34 35
BRANCH 34 56
ATOM     56  CB  GLU B   4     -17.081 -29.651  -5.273  1.00 22.38 LIG 0.04  C 
BRANCH 56 57
ATOM     57  CG  GLU B   4     -17.236 -28.707  -6.452  1.00 27.64 LIG 0.12  C 
BRANCH 57 58
ATOM     58  CD  GLU B   4     -17.888 -27.396  -6.057  1.00 30.78 LIG 0.17  C 
ATOM     59 OE2  GLU B   4     -17.784 -27.010  -4.873  1.00 32.62 LIG-0.65  OA
ATOM     60 OE1  GLU B   4     -18.507 -26.754  -6.932  1.00 32.75 LIG-0.65  OA
ENDBRANCH 57 58
ENDBRANCH 56 57
ENDBRANCH 34 56
ENDBRANCH 3 34
TORSDOF 22
ENDMDL
MODEL 46
USER: ADFR SOLUTION from run 58
USER: SCORE 17.753213 LL:  -5.470 LR: -13.849 RR:   0.000 FEB:  -7.286
USER: RMSD 7.797416
USER: SEED 57
USER: STATUS searching
USER: GENES 24
USER: genes 0 Translation |==|  0.40968 0.60856 0.32097
USER: genes 1 Rotation |==|  0.83274 0.37639 0.49079 0.85202
USER: genes 2 Torsion [N]-C--CA-[N] |==|  0.05000
USER: genes 3 Torsion [C]-CA--N-[C] |==|  0.74437
USER: genes 4 Torsion [N]-C--CA-[N] |==|  0.52237
USER: genes 5 Torsion [C]-CA--CB-[CG] |==|  0.92471
USER: genes 6 Torsion [CA]-CB--CG-[CD] |==|  0.41202
USER: genes 7 Torsion [CB]-CG--CD-[NE] |==|  0.93310
USER: genes 8 Torsion [CG]-CD--NE-[CZ] |==|  0.33723
USER: genes 9 Torsion [C]-CA--N-[C] |==|  0.16128
USER: genes 10 Torsion [N]-C--CA-[N] |==|  0.08933
USER: genes 11 Torsion [C]-CA--N-[H2] |==|  0.45204
USER: genes 12 Torsion [C]-N--CA-[C] |==|  0.61722
USER: genes 13 Torsion [N]-CA--C-[N] |==|  0.44714
USER: genes 14 Torsion [C]-N--CA-[CB] |==|  0.53412
USER: genes 15 Torsion [N]-CA--CB-[CG2] |==|  0.54725
USER: genes 16 Torsion [N]-CA--C-[N] |==|  0.40557
USER: genes 17 Torsion [C]-N--CA-[C] |==|  0.18334
USER: genes 18 Torsion [N]-CA--C-[O] |==|  0.05412
USER: genes 19 Torsion [N]-CA--CB-[CG] |==|  0.86872
USER: genes 20 Torsion [CA]-CB--CG-[CD2] |==|  0.40510
USER: genes 21 Torsion [N]-CA--CB-[CG] |==|  0.80045
USER: genes 22 Torsion [CA]-CB--CG-[CD] |==|  0.29578
USER: genes 23 Torsion [CB]-CG--CD-[OE2] |==|  0.75846
ROOT
ATOM      1  C   ALA B   3     -16.762 -25.565  -8.940  1.00 17.17 LIG 0.24  C 
ATOM      2 O    ALA B   3     -16.934 -24.736  -9.835  1.00 18.54 LIG-0.27  OA
ATOM      3  N   GLU B   4     -16.481 -26.843  -9.184  1.00 17.89 LIG-0.35  N 
ATOM      4 H    GLU B   4     -16.359 -27.430  -8.568  1.00 17.89 LIG 0.16  HD
ENDROOT
BRANCH 1 5
ATOM      5  CA  ALA B   3     -16.866 -25.151  -7.472  1.00 15.99 LIG 0.17  C 
ATOM      6  CB  ALA B   3     -16.252 -23.769  -7.275  1.00 16.21 LIG 0.04  C 
BRANCH 5 7
ATOM      7  N   ALA B   3     -16.243 -26.102  -6.560  1.00 13.91 LIG-0.35  N 
ATOM      8  C   ARG B   2     -16.939 -27.091  -6.006  1.00 12.46 LIG 0.24  C 
ATOM      9 O    ARG B   2     -18.135 -27.271  -6.232  1.00 11.56 LIG-0.27  OA
ATOM     10 H    ALA B   3     -15.406 -25.965  -6.419  1.00 13.91 LIG 0.16  HD
BRANCH 8 11
ATOM     11  CA  ARG B   2     -16.185 -28.014  -5.054  1.00 12.24 LIG 0.18  C 
BRANCH 11 12
ATOM     12  CB  ARG B   2     -14.874 -28.463  -5.703  1.00 10.58 LIG 0.04  C 
BRANCH 12 13
ATOM     13  CG  ARG B   2     -14.892 -28.486  -7.225  1.00  9.71 LIG 0.02  C 
BRANCH 13 14
ATOM     14  CD  ARG B   2     -13.511 -28.167  -7.776  1.00  9.44 LIG 0.14  C 
BRANCH 14 15
ATOM     15  NE  ARG B   2     -12.702 -27.398  -6.833  1.00  9.23 LIG-0.23  N 
ATOM     16  CZ  ARG B   2     -11.526 -27.791  -6.357  1.00  9.20 LIG 0.67  C 
ATOM     17  NH1 ARG B   2     -11.012 -28.954  -6.735  1.00  7.63 LIG-0.23  N 
ATOM     18  NH2 ARG B   2     -10.862 -27.020  -5.505  1.00  9.31 LIG-0.23  N 
ATOM     19 1HH1 ARG B   2     -11.441 -29.454  -7.288  1.00  7.63 LIG 0.17  HD
ATOM     20 2HH1 ARG B   2     -10.251 -29.209  -6.426  1.00  7.63 LIG 0.17  HD
ATOM     21 2HH2 ARG B   2     -10.100 -27.276  -5.198  1.00  9.31 LIG 0.17  HD
ATOM     22 1HH2 ARG B   2     -11.192 -26.266  -5.260  1.00  9.31 LIG 0.17  HD
ATOM     23 HE   ARG B   2     -13.007 -26.639  -6.567  1.00  9.23 LIG 0.18  HD
ENDBRANCH 14 15
ENDBRANCH 13 14
ENDBRANCH 12 13
ENDBRANCH 11 12
BRANCH 11 24
ATOM     24  N   ARG B   2     -16.925 -29.191  -4.609  1.00 12.50 LIG-0.35  N 
ATOM     25  C   ALA B   1     -17.424 -30.095  -5.443  1.00 14.33 LIG 0.25  C 
ATOM     26 O    ALA B   1     -17.278 -30.044  -6.663  1.00 14.72 LIG-0.27  OA
ATOM     27 H    ARG B   2     -17.007 -29.244  -3.755  1.00 12.50 LIG 0.16  HD
BRANCH 25 28
ATOM     28  CA  ALA B   1     -18.196 -31.237  -4.790  1.00 14.93 LIG 0.27  C 
ATOM     29  CB  ALA B   1     -19.207 -31.818  -5.771  1.00 16.58 LIG 0.05  C 
BRANCH 28 30
ATOM     30  N   ALA B   1     -18.886 -30.780  -3.552  1.00 16.58 LIG-0.07  N 
ATOM     31 H3   ALA B   1     -18.295 -30.714  -2.889  1.00 16.58 LIG 0.28  HD
ATOM     32 H1   ALA B   1     -19.260 -29.986  -3.696  1.00 16.58 LIG 0.28  HD
ATOM     33 H2   ALA B   1     -19.516 -31.368  -3.329  1.00 16.58 LIG 0.28  HD
ENDBRANCH 28 30
ENDBRANCH 25 28
ENDBRANCH 11 24
ENDBRANCH 8 11
ENDBRANCH 5 7
ENDBRANCH 1 5
BRANCH 3 34
ATOM     34  CA  GLU B   4     -16.354 -27.364 -10.544  1.00 20.15 LIG 0.18  C 
BRANCH 34 35
ATOM     35  C   GLU B   4     -17.038 -28.723 -10.671  1.00 19.92 LIG 0.24  C 
ATOM     36  N   VAL B   5     -17.338 -29.122 -11.903  1.00 19.46 LIG-0.35  N 
ATOM     37 H    VAL B   5     -17.170 -28.664 -12.612  1.00 19.46 LIG 0.16  HD
ATOM     38 O    GLU B   4     -17.279 -29.400  -9.672  1.00 20.03 LIG-0.27  OA
BRANCH 36 39
ATOM     39  CA  VAL B   5     -17.993 -30.403 -12.151  1.00 20.09 LIG 0.18  C 
BRANCH 39 40
ATOM     40  CB  VAL B   5     -17.956 -30.769 -13.654  1.00 20.49 LIG 0.01  C 
ATOM     41  CG2 VAL B   5     -18.975 -31.854 -13.954  1.00 19.70 LIG 0.01  C 
ATOM     42  CG1 VAL B   5     -16.562 -31.230 -14.045  1.00 21.00 LIG 0.01  C 
ENDBRANCH 39 40
BRANCH 39 43
ATOM     43  C   VAL B   5     -17.326 -31.531 -11.368  1.00 20.75 LIG 0.24  C 
ATOM     44  N   HIS B   6     -18.122 -32.503 -10.931  1.00 20.78 LIG-0.35  N 
ATOM     45 H    HIS B   6     -18.973 -32.521 -11.054  1.00 20.78 LIG 0.16  HD
ATOM     46 O    VAL B   5     -16.114 -31.517 -11.157  1.00 21.91 LIG-0.27  OA
BRANCH 44 47
ATOM     47  CA  HIS B   6     -17.593 -33.643 -10.189  1.00 21.28 LIG 0.17  C 
BRANCH 47 48
ATOM     48  C   HIS B   6     -17.044 -33.176  -8.846  1.00 23.03 LIG 0.22  C 
ATOM     49 O    HIS B   6     -17.425 -32.072  -8.403  1.00 25.39 LIG-0.29  OA
ENDBRANCH 47 48
BRANCH 47 50
ATOM     50  CB  HIS B   6     -16.476 -34.337 -10.974  1.00 19.33 LIG 0.09  C 
BRANCH 50 51
ATOM     51  CG  HIS B   6     -16.821 -34.593 -12.410  1.00 17.39 LIG 0.06  A 
ATOM     52  CD2 HIS B   6     -16.055 -34.590 -13.526  1.00 16.59 LIG 0.14  A 
ATOM     53 NE2  HIS B   6     -16.871 -34.924 -14.580  1.00 16.70 LIG-0.25  NA
ATOM     54  CE1 HIS B   6     -18.095 -35.124 -14.127  1.00 16.06 LIG 0.23  A 
ATOM     55 ND1  HIS B   6     -18.093 -34.930 -12.820  1.00 16.09 LIG-0.24  NA
ENDBRANCH 50 51
ENDBRANCH 47 50
ENDBRANCH 44 47
ENDBRANCH 39 43
ENDBRANCH 36 39
ENDBRANCH 34 35
BRANCH 34 56
ATOM     56  CB  GLU B   4     -14.877 -27.509 -10.919  1.00 22.38 LIG 0.04  C 
BRANCH 56 57
ATOM     57  CG  GLU B   4     -14.153 -26.196 -11.156  1.00 27.64 LIG 0.12  C 
BRANCH 57 58
ATOM     58  CD  GLU B   4     -13.207 -25.849 -10.022  1.00 30.78 LIG 0.17  C 
ATOM     59 OE2  GLU B   4     -13.657 -25.224  -9.038  1.00 32.62 LIG-0.65  OA
ATOM     60 OE1  GLU B   4     -12.013 -26.202 -10.117  1.00 32.75 LIG-0.65  OA
ENDBRANCH 57 58
ENDBRANCH 56 57
ENDBRANCH 34 56
ENDBRANCH 3 34
TORSDOF 22
ENDMDL
MODEL 47
USER: ADFR SOLUTION from run 109
USER: SCORE 17.562755 LL:  -4.297 LR: -13.830 RR:   0.000 FEB:  -7.268
USER: RMSD 7.893817
USER: SEED 108
USER: STATUS no improvement in best in 5 clusters for 5 generations
USER: GENES 24
USER: genes 0 Translation |==|  0.54521 0.49403 0.29581
USER: genes 1 Rotation |==|  0.70283 0.23221 0.37723 0.84940
USER: genes 2 Torsion [N]-C--CA-[N] |==|  0.85782
USER: genes 3 Torsion [C]-CA--N-[C] |==|  0.83697
USER: genes 4 Torsion [N]-C--CA-[N] |==|  0.98376
USER: genes 5 Torsion [C]-CA--CB-[CG] |==|  0.94872
USER: genes 6 Torsion [CA]-CB--CG-[CD] |==|  0.50215
USER: genes 7 Torsion [CB]-CG--CD-[NE] |==|  0.18632
USER: genes 8 Torsion [CG]-CD--NE-[CZ] |==|  0.30026
USER: genes 9 Torsion [C]-CA--N-[C] |==|  0.78875
USER: genes 10 Torsion [N]-C--CA-[N] |==|  0.39658
USER: genes 11 Torsion [C]-CA--N-[H2] |==|  0.42710
USER: genes 12 Torsion [C]-N--CA-[C] |==|  0.14680
USER: genes 13 Torsion [N]-CA--C-[N] |==|  0.16094
USER: genes 14 Torsion [C]-N--CA-[CB] |==|  0.86463
USER: genes 15 Torsion [N]-CA--CB-[CG2] |==|  0.74875
USER: genes 16 Torsion [N]-CA--C-[N] |==|  0.35556
USER: genes 17 Torsion [C]-N--CA-[C] |==|  0.60783
USER: genes 18 Torsion [N]-CA--C-[O] |==|  0.51369
USER: genes 19 Torsion [N]-CA--CB-[CG] |==|  0.77225
USER: genes 20 Torsion [CA]-CB--CG-[CD2] |==|  0.45529
USER: genes 21 Torsion [N]-CA--CB-[CG] |==|  0.68292
USER: genes 22 Torsion [CA]-CB--CG-[CD] |==|  0.72175
USER: genes 23 Torsion [CB]-CG--CD-[OE2] |==|  0.82608
ROOT
ATOM      1  C   ALA B   3     -14.322 -28.228  -9.487  1.00 17.17 LIG 0.24  C 
ATOM      2 O    ALA B   3     -13.822 -27.829 -10.540  1.00 18.54 LIG-0.27  OA
ATOM      3  N   GLU B   4     -15.117 -29.294  -9.423  1.00 17.89 LIG-0.35  N 
ATOM      4 H    GLU B   4     -15.472 -29.581  -8.695  1.00 17.89 LIG 0.16  HD
ENDROOT
BRANCH 1 5
ATOM      5  CA  ALA B   3     -14.046 -27.496  -8.174  1.00 15.99 LIG 0.17  C 
ATOM      6  CB  ALA B   3     -13.118 -28.331  -7.297  1.00 16.21 LIG 0.04  C 
BRANCH 5 7
ATOM      7  N   ALA B   3     -15.256 -27.161  -7.434  1.00 13.91 LIG-0.35  N 
ATOM      8  C   ARG B   2     -16.208 -26.401  -7.968  1.00 12.46 LIG 0.24  C 
ATOM      9 O    ARG B   2     -16.135 -25.944  -9.108  1.00 11.56 LIG-0.27  OA
ATOM     10 H    ALA B   3     -15.294 -27.494  -6.642  1.00 13.91 LIG 0.16  HD
BRANCH 8 11
ATOM     11  CA  ARG B   2     -17.422 -26.104  -7.093  1.00 12.24 LIG 0.18  C 
BRANCH 11 12
ATOM     12  CB  ARG B   2     -17.521 -24.597  -6.843  1.00 10.58 LIG 0.04  C 
BRANCH 12 13
ATOM     13  CG  ARG B   2     -16.236 -23.823  -7.103  1.00  9.71 LIG 0.02  C 
BRANCH 13 14
ATOM     14  CD  ARG B   2     -16.437 -22.346  -6.807  1.00  9.44 LIG 0.14  C 
BRANCH 14 15
ATOM     15  NE  ARG B   2     -16.660 -22.091  -5.385  1.00  9.23 LIG-0.23  N 
ATOM     16  CZ  ARG B   2     -15.777 -21.515  -4.578  1.00  9.20 LIG 0.67  C 
ATOM     17  NH1 ARG B   2     -14.598 -21.130  -5.050  1.00  7.63 LIG-0.23  N 
ATOM     18  NH2 ARG B   2     -16.071 -21.322  -3.298  1.00  9.31 LIG-0.23  N 
ATOM     19 1HH1 ARG B   2     -14.406 -21.253  -5.879  1.00  7.63 LIG 0.17  HD
ATOM     20 2HH1 ARG B   2     -14.027 -20.757  -4.527  1.00  7.63 LIG 0.17  HD
ATOM     21 2HH2 ARG B   2     -15.498 -20.949  -2.777  1.00  9.31 LIG 0.17  HD
ATOM     22 1HH2 ARG B   2     -16.835 -21.570  -2.991  1.00  9.31 LIG 0.17  HD
ATOM     23 HE   ARG B   2     -17.414 -22.330  -5.048  1.00  9.23 LIG 0.18  HD
ENDBRANCH 14 15
ENDBRANCH 13 14
ENDBRANCH 12 13
ENDBRANCH 11 12
BRANCH 11 24
ATOM     24  N   ARG B   2     -17.455 -26.803  -5.813  1.00 12.50 LIG-0.35  N 
ATOM     25  C   ALA B   1     -17.771 -28.088  -5.694  1.00 14.33 LIG 0.25  C 
ATOM     26 O    ALA B   1     -18.027 -28.813  -6.653  1.00 14.72 LIG-0.27  OA
ATOM     27 H    ARG B   2     -17.251 -26.306  -5.143  1.00 12.50 LIG 0.16  HD
BRANCH 25 28
ATOM     28  CA  ALA B   1     -17.783 -28.633  -4.270  1.00 14.93 LIG 0.27  C 
ATOM     29  CB  ALA B   1     -16.442 -29.278  -3.941  1.00 16.58 LIG 0.05  C 
BRANCH 28 30
ATOM     30  N   ALA B   1     -18.886 -29.615  -4.080  1.00 16.58 LIG-0.07  N 
ATOM     31 H3   ALA B   1     -19.634 -29.184  -3.861  1.00 16.58 LIG 0.28  HD
ATOM     32 H1   ALA B   1     -19.014 -30.067  -4.836  1.00 16.58 LIG 0.28  HD
ATOM     33 H2   ALA B   1     -18.670 -30.182  -3.429  1.00 16.58 LIG 0.28  HD
ENDBRANCH 28 30
ENDBRANCH 25 28
ENDBRANCH 11 24
ENDBRANCH 8 11
ENDBRANCH 5 7
ENDBRANCH 1 5
BRANCH 3 34
ATOM     34  CA  GLU B   4     -15.458 -30.079 -10.608  1.00 20.15 LIG 0.18  C 
BRANCH 34 35
ATOM     35  C   GLU B   4     -14.199 -30.512 -11.355  1.00 19.92 LIG 0.24  C 
ATOM     36  N   VAL B   5     -13.317 -31.229 -10.666  1.00 19.46 LIG-0.35  N 
ATOM     37 H    VAL B   5     -13.419 -31.455  -9.842  1.00 19.46 LIG 0.16  HD
ATOM     38 O    GLU B   4     -14.035 -30.207 -12.537  1.00 20.03 LIG-0.27  OA
BRANCH 36 39
ATOM     39  CA  VAL B   5     -12.075 -31.699 -11.274  1.00 20.09 LIG 0.18  C 
BRANCH 39 40
ATOM     40  CB  VAL B   5     -12.342 -32.377 -12.639  1.00 20.49 LIG 0.01  C 
ATOM     41  CG2 VAL B   5     -12.578 -33.865 -12.447  1.00 19.70 LIG 0.01  C 
ATOM     42  CG1 VAL B   5     -11.169 -32.144 -13.575  1.00 21.00 LIG 0.01  C 
ENDBRANCH 39 40
BRANCH 39 43
ATOM     43  C   VAL B   5     -11.092 -30.553 -11.492  1.00 20.75 LIG 0.24  C 
ATOM     44  N   HIS B   6      -9.864 -30.723 -11.011  1.00 20.78 LIG-0.35  N 
ATOM     45 H    HIS B   6      -9.606 -31.424 -10.583  1.00 20.78 LIG 0.16  HD
ATOM     46 O    VAL B   5     -11.442 -29.530 -12.079  1.00 21.91 LIG-0.27  OA
BRANCH 44 47
ATOM     47  CA  HIS B   6      -8.834 -29.704 -11.179  1.00 21.28 LIG 0.17  C 
BRANCH 47 48
ATOM     48  C   HIS B   6      -7.491 -30.367 -11.461  1.00 23.03 LIG 0.22  C 
ATOM     49 O    HIS B   6      -6.477 -29.640 -11.539  1.00 25.39 LIG-0.29  OA
ENDBRANCH 47 48
BRANCH 47 50
ATOM     50  CB  HIS B   6      -8.711 -28.836  -9.923  1.00 19.33 LIG 0.09  C 
BRANCH 50 51
ATOM     51  CG  HIS B   6      -9.731 -27.741  -9.848  1.00 17.39 LIG 0.06  A 
ATOM     52  CD2 HIS B   6     -10.137 -26.970  -8.812  1.00 16.59 LIG 0.14  A 
ATOM     53 NE2  HIS B   6     -11.076 -26.094  -9.301  1.00 16.70 LIG-0.25  NA
ATOM     54  CE1 HIS B   6     -11.242 -26.321 -10.592  1.00 16.06 LIG 0.23  A 
ATOM     55 ND1  HIS B   6     -10.441 -27.311 -10.947  1.00 16.09 LIG-0.24  NA
ENDBRANCH 50 51
ENDBRANCH 47 50
ENDBRANCH 44 47
ENDBRANCH 39 43
ENDBRANCH 36 39
ENDBRANCH 34 35
BRANCH 34 56
ATOM     56  CB  GLU B   4     -16.342 -29.259 -11.551  1.00 22.38 LIG 0.04  C 
BRANCH 56 57
ATOM     57  CG  GLU B   4     -17.754 -29.791 -11.715  1.00 27.64 LIG 0.12  C 
BRANCH 57 58
ATOM     58  CD  GLU B   4     -17.925 -30.582 -12.997  1.00 30.78 LIG 0.17  C 
ATOM     59 OE2  GLU B   4     -17.761 -29.995 -14.088  1.00 32.62 LIG-0.65  OA
ATOM     60 OE1  GLU B   4     -18.225 -31.792 -12.912  1.00 32.75 LIG-0.65  OA
ENDBRANCH 57 58
ENDBRANCH 56 57
ENDBRANCH 34 56
ENDBRANCH 3 34
TORSDOF 22
ENDMDL
MODEL 48
USER: ADFR SOLUTION from run 117
USER: SCORE 16.040479 LL:  -4.692 LR: -13.832 RR:   0.000 FEB:  -7.270
USER: RMSD 5.765195
USER: SEED 116
USER: STATUS searching
USER: GENES 24
USER: genes 0 Translation |==|  0.36984 0.51479 0.45540
USER: genes 1 Rotation |==|  0.43995 0.78715 0.20746 0.77993
USER: genes 2 Torsion [N]-C--CA-[N] |==|  0.68801
USER: genes 3 Torsion [C]-CA--N-[C] |==|  0.58494
USER: genes 4 Torsion [N]-C--CA-[N] |==|  0.86667
USER: genes 5 Torsion [C]-CA--CB-[CG] |==|  0.08314
USER: genes 6 Torsion [CA]-CB--CG-[CD] |==|  0.66477
USER: genes 7 Torsion [CB]-CG--CD-[NE] |==|  0.98618
USER: genes 8 Torsion [CG]-CD--NE-[CZ] |==|  0.57173
USER: genes 9 Torsion [C]-CA--N-[C] |==|  0.81126
USER: genes 10 Torsion [N]-C--CA-[N] |==|  0.23294
USER: genes 11 Torsion [C]-CA--N-[H2] |==|  0.35476
USER: genes 12 Torsion [C]-N--CA-[C] |==|  0.62550
USER: genes 13 Torsion [N]-CA--C-[N] |==|  0.51090
USER: genes 14 Torsion [C]-N--CA-[CB] |==|  0.45254
USER: genes 15 Torsion [N]-CA--CB-[CG2] |==|  0.72024
USER: genes 16 Torsion [N]-CA--C-[N] |==|  0.91150
USER: genes 17 Torsion [C]-N--CA-[C] |==|  0.75356
USER: genes 18 Torsion [N]-CA--C-[O] |==|  0.44915
USER: genes 19 Torsion [N]-CA--CB-[CG] |==|  0.06457
USER: genes 20 Torsion [CA]-CB--CG-[CD2] |==|  0.21947
USER: genes 21 Torsion [N]-CA--CB-[CG] |==|  0.02703
USER: genes 22 Torsion [CA]-CB--CG-[CD] |==|  0.22456
USER: genes 23 Torsion [CB]-CG--CD-[OE2] |==|  0.37730
ROOT
ATOM      1  C   ALA B   3     -17.479 -27.745  -6.016  1.00 17.17 LIG 0.24  C 
ATOM      2 O    ALA B   3     -18.135 -26.988  -5.300  1.00 18.54 LIG-0.27  OA
ATOM      3  N   GLU B   4     -17.083 -28.952  -5.619  1.00 17.89 LIG-0.35  N 
ATOM      4 H    GLU B   4     -16.624 -29.489  -6.110  1.00 17.89 LIG 0.16  HD
ENDROOT
BRANCH 1 5
ATOM      5  CA  ALA B   3     -17.082 -27.321  -7.430  1.00 15.99 LIG 0.17  C 
ATOM      6  CB  ALA B   3     -16.524 -28.516  -8.196  1.00 16.21 LIG 0.04  C 
BRANCH 5 7
ATOM      7  N   ALA B   3     -16.119 -26.226  -7.454  1.00 13.91 LIG-0.35  N 
ATOM      8  C   ARG B   2     -16.096 -25.344  -8.449  1.00 12.46 LIG 0.24  C 
ATOM      9 O    ARG B   2     -16.879 -25.388  -9.397  1.00 11.56 LIG-0.27  OA
ATOM     10 H    ALA B   3     -15.584 -26.207  -6.781  1.00 13.91 LIG 0.16  HD
BRANCH 8 11
ATOM     11  CA  ARG B   2     -15.034 -24.251  -8.375  1.00 12.24 LIG 0.18  C 
BRANCH 11 12
ATOM     12  CB  ARG B   2     -13.668 -24.835  -8.743  1.00 10.58 LIG 0.04  C 
BRANCH 12 13
ATOM     13  CG  ARG B   2     -13.715 -25.998  -9.724  1.00  9.71 LIG 0.02  C 
BRANCH 13 14
ATOM     14  CD  ARG B   2     -13.091 -27.238  -9.106  1.00  9.44 LIG 0.14  C 
BRANCH 14 15
ATOM     15  NE  ARG B   2     -12.507 -26.969  -7.793  1.00  9.23 LIG-0.23  N 
ATOM     16  CZ  ARG B   2     -11.514 -27.668  -7.255  1.00  9.20 LIG 0.67  C 
ATOM     17  NH1 ARG B   2     -10.985 -28.689  -7.918  1.00  7.63 LIG-0.23  N 
ATOM     18  NH2 ARG B   2     -11.047 -27.346  -6.055  1.00  9.31 LIG-0.23  N 
ATOM     19 1HH1 ARG B   2     -11.286 -28.898  -8.696  1.00  7.63 LIG 0.17  HD
ATOM     20 2HH1 ARG B   2     -10.342 -29.141  -7.569  1.00  7.63 LIG 0.17  HD
ATOM     21 2HH2 ARG B   2     -10.404 -27.799  -5.709  1.00  9.31 LIG 0.17  HD
ATOM     22 1HH2 ARG B   2     -11.388 -26.684  -5.625  1.00  9.31 LIG 0.17  HD
ATOM     23 HE   ARG B   2     -12.828 -26.315  -7.338  1.00  9.23 LIG 0.18  HD
ENDBRANCH 14 15
ENDBRANCH 13 14
ENDBRANCH 12 13
ENDBRANCH 11 12
BRANCH 11 24
ATOM     24  N   ARG B   2     -14.931 -23.568  -7.090  1.00 12.50 LIG-0.35  N 
ATOM     25  C   ALA B   1     -15.879 -22.771  -6.612  1.00 14.33 LIG 0.25  C 
ATOM     26 O    ALA B   1     -16.945 -22.565  -7.190  1.00 14.72 LIG-0.27  OA
ATOM     27 H    ARG B   2     -14.198 -23.730  -6.671  1.00 12.50 LIG 0.16  HD
BRANCH 25 28
ATOM     28  CA  ALA B   1     -15.575 -22.119  -5.267  1.00 14.93 LIG 0.27  C 
ATOM     29  CB  ALA B   1     -16.871 -21.795  -4.533  1.00 16.58 LIG 0.05  C 
BRANCH 28 30
ATOM     30  N   ALA B   1     -14.761 -20.884  -5.440  1.00 16.58 LIG-0.07  N 
ATOM     31 H3   ALA B   1     -13.947 -21.015  -5.102  1.00 16.58 LIG 0.28  HD
ATOM     32 H1   ALA B   1     -14.695 -20.691  -6.306  1.00 16.58 LIG 0.28  HD
ATOM     33 H2   ALA B   1     -15.153 -20.208  -5.014  1.00 16.58 LIG 0.28  HD
ENDBRANCH 28 30
ENDBRANCH 25 28
ENDBRANCH 11 24
ENDBRANCH 8 11
ENDBRANCH 5 7
ENDBRANCH 1 5
BRANCH 3 34
ATOM     34  CA  GLU B   4     -17.398 -29.475  -4.291  1.00 20.15 LIG 0.18  C 
BRANCH 34 35
ATOM     35  C   GLU B   4     -16.170 -30.120  -3.654  1.00 19.92 LIG 0.24  C 
ATOM     36  N   VAL B   5     -16.352 -30.705  -2.474  1.00 19.46 LIG-0.35  N 
ATOM     37 H    VAL B   5     -17.108 -30.737  -2.064  1.00 19.46 LIG 0.16  HD
ATOM     38 O    GLU B   4     -15.080 -30.095  -4.226  1.00 20.03 LIG-0.27  OA
BRANCH 36 39
ATOM     39  CA  VAL B   5     -15.253 -31.355  -1.768  1.00 20.09 LIG 0.18  C 
BRANCH 39 40
ATOM     40  CB  VAL B   5     -15.598 -31.575  -0.275  1.00 20.49 LIG 0.01  C 
ATOM     41  CG2 VAL B   5     -14.936 -30.507   0.578  1.00 19.70 LIG 0.01  C 
ATOM     42  CG1 VAL B   5     -15.150 -32.957   0.166  1.00 21.00 LIG 0.01  C 
ENDBRANCH 39 40
BRANCH 39 43
ATOM     43  C   VAL B   5     -14.916 -32.710  -2.386  1.00 20.75 LIG 0.24  C 
ATOM     44  N   HIS B   6     -15.928 -33.383  -2.927  1.00 20.78 LIG-0.35  N 
ATOM     45 H    HIS B   6     -16.742 -33.106  -2.936  1.00 20.78 LIG 0.16  HD
ATOM     46 O    VAL B   5     -13.764 -33.140  -2.365  1.00 21.91 LIG-0.27  OA
BRANCH 44 47
ATOM     47  CA  HIS B   6     -15.722 -34.679  -3.566  1.00 21.28 LIG 0.17  C 
BRANCH 47 48
ATOM     48  C   HIS B   6     -15.383 -34.482  -5.038  1.00 23.03 LIG 0.22  C 
ATOM     49 O    HIS B   6     -14.842 -35.427  -5.651  1.00 25.39 LIG-0.29  OA
ENDBRANCH 47 48
BRANCH 47 50
ATOM     50  CB  HIS B   6     -16.976 -35.551  -3.452  1.00 19.33 LIG 0.09  C 
BRANCH 50 51
ATOM     51  CG  HIS B   6     -18.237 -34.767  -3.250  1.00 17.39 LIG 0.06  A 
ATOM     52  CD2 HIS B   6     -19.011 -34.082  -4.123  1.00 16.59 LIG 0.14  A 
ATOM     53 NE2  HIS B   6     -20.073 -33.575  -3.414  1.00 16.70 LIG-0.25  NA
ATOM     54  CE1 HIS B   6     -19.953 -33.934  -2.148  1.00 16.06 LIG 0.23  A 
ATOM     55 ND1  HIS B   6     -18.853 -34.655  -2.022  1.00 16.09 LIG-0.24  NA
ENDBRANCH 50 51
ENDBRANCH 47 50
ENDBRANCH 44 47
ENDBRANCH 39 43
ENDBRANCH 36 39
ENDBRANCH 34 35
BRANCH 34 56
ATOM     56  CB  GLU B   4     -18.518 -30.515  -4.384  1.00 22.38 LIG 0.04  C 
BRANCH 56 57
ATOM     57  CG  GLU B   4     -18.874 -30.935  -5.799  1.00 27.64 LIG 0.12  C 
BRANCH 57 58
ATOM     58  CD  GLU B   4     -17.914 -31.972  -6.349  1.00 30.78 LIG 0.17  C 
ATOM     59 OE2  GLU B   4     -18.382 -32.953  -6.965  1.00 32.62 LIG-0.65  OA
ATOM     60 OE1  GLU B   4     -16.690 -31.804  -6.166  1.00 32.75 LIG-0.65  OA
ENDBRANCH 57 58
ENDBRANCH 56 57
ENDBRANCH 34 56
ENDBRANCH 3 34
TORSDOF 22
ENDMDL
MODEL 49
USER: ADFR SOLUTION from run 54
USER: SCORE 16.661889 LL:  -5.069 LR: -13.810 RR:   0.000 FEB:  -7.248
USER: RMSD 6.449575
USER: SEED 53
USER: STATUS no improvement in best in 16 clusters for 5 generations
USER: GENES 24
USER: genes 0 Translation |==|  0.45384 0.41040 0.57526
USER: genes 1 Rotation |==|  0.46109 0.35070 0.66651 0.94550
USER: genes 2 Torsion [N]-C--CA-[N] |==|  0.40757
USER: genes 3 Torsion [C]-CA--N-[C] |==|  0.47222
USER: genes 4 Torsion [N]-C--CA-[N] |==|  0.99912
USER: genes 5 Torsion [C]-CA--CB-[CG] |==|  0.26024
USER: genes 6 Torsion [CA]-CB--CG-[CD] |==|  0.08677
USER: genes 7 Torsion [CB]-CG--CD-[NE] |==|  0.58236
USER: genes 8 Torsion [CG]-CD--NE-[CZ] |==|  0.18844
USER: genes 9 Torsion [C]-CA--N-[C] |==|  0.78494
USER: genes 10 Torsion [N]-C--CA-[N] |==|  0.45862
USER: genes 11 Torsion [C]-CA--N-[H2] |==|  0.69232
USER: genes 12 Torsion [C]-N--CA-[C] |==|  0.82683
USER: genes 13 Torsion [N]-CA--C-[N] |==|  0.89077
USER: genes 14 Torsion [C]-N--CA-[CB] |==|  0.42770
USER: genes 15 Torsion [N]-CA--CB-[CG2] |==|  0.44284
USER: genes 16 Torsion [N]-CA--C-[N] |==|  0.83970
USER: genes 17 Torsion [C]-N--CA-[C] |==|  0.61909
USER: genes 18 Torsion [N]-CA--C-[O] |==|  0.16543
USER: genes 19 Torsion [N]-CA--CB-[CG] |==|  0.69011
USER: genes 20 Torsion [CA]-CB--CG-[CD2] |==|  0.22927
USER: genes 21 Torsion [N]-CA--CB-[CG] |==|  0.51563
USER: genes 22 Torsion [CA]-CB--CG-[CD] |==|  0.74350
USER: genes 23 Torsion [CB]-CG--CD-[OE2] |==|  0.94350
ROOT
ATOM      1  C   ALA B   3     -15.967 -30.172  -3.409  1.00 17.17 LIG 0.24  C 
ATOM      2 O    ALA B   3     -15.617 -31.137  -4.091  1.00 18.54 LIG-0.27  OA
ATOM      3  N   GLU B   4     -15.975 -30.193  -2.078  1.00 17.89 LIG-0.35  N 
ATOM      4 H    GLU B   4     -16.217 -29.526  -1.592  1.00 17.89 LIG 0.16  HD
ENDROOT
BRANCH 1 5
ATOM      5  CA  ALA B   3     -16.419 -28.875  -4.079  1.00 15.99 LIG 0.17  C 
ATOM      6  CB  ALA B   3     -17.924 -28.910  -4.323  1.00 16.21 LIG 0.04  C 
BRANCH 5 7
ATOM      7  N   ALA B   3     -15.722 -28.600  -5.331  1.00 13.91 LIG-0.35  N 
ATOM      8  C   ARG B   2     -16.118 -27.627  -6.146  1.00 12.46 LIG 0.24  C 
ATOM      9 O    ARG B   2     -17.079 -26.899  -5.897  1.00 11.56 LIG-0.27  OA
ATOM     10 H    ALA B   3     -15.050 -29.114  -5.485  1.00 13.91 LIG 0.16  HD
BRANCH 8 11
ATOM     11  CA  ARG B   2     -15.323 -27.443  -7.434  1.00 12.24 LIG 0.18  C 
BRANCH 11 12
ATOM     12  CB  ARG B   2     -16.260 -27.551  -8.639  1.00 10.58 LIG 0.04  C 
BRANCH 12 13
ATOM     13  CG  ARG B   2     -16.808 -26.222  -9.140  1.00  9.71 LIG 0.02  C 
BRANCH 13 14
ATOM     14  CD  ARG B   2     -15.801 -25.109  -8.900  1.00  9.44 LIG 0.14  C 
BRANCH 14 15
ATOM     15  NE  ARG B   2     -16.446 -23.813  -8.693  1.00  9.23 LIG-0.23  N 
ATOM     16  CZ  ARG B   2     -17.187 -23.503  -7.637  1.00  9.20 LIG 0.67  C 
ATOM     17  NH1 ARG B   2     -17.386 -24.399  -6.678  1.00  7.63 LIG-0.23  N 
ATOM     18  NH2 ARG B   2     -17.730 -22.296  -7.536  1.00  9.31 LIG-0.23  N 
ATOM     19 1HH1 ARG B   2     -17.034 -25.181  -6.742  1.00  7.63 LIG 0.17  HD
ATOM     20 2HH1 ARG B   2     -17.867 -24.198  -5.995  1.00  7.63 LIG 0.17  HD
ATOM     21 2HH2 ARG B   2     -18.210 -22.097  -6.851  1.00  9.31 LIG 0.17  HD
ATOM     22 1HH2 ARG B   2     -17.602 -21.714  -8.155  1.00  9.31 LIG 0.17  HD
ATOM     23 HE   ARG B   2     -16.337 -23.211  -9.297  1.00  9.23 LIG 0.18  HD
ENDBRANCH 14 15
ENDBRANCH 13 14
ENDBRANCH 12 13
ENDBRANCH 11 12
BRANCH 11 24
ATOM     24  N   ARG B   2     -14.205 -28.364  -7.615  1.00 12.50 LIG-0.35  N 
ATOM     25  C   ALA B   1     -13.043 -28.229  -6.987  1.00 14.33 LIG 0.25  C 
ATOM     26 O    ALA B   1     -12.814 -27.340  -6.170  1.00 14.72 LIG-0.27  OA
ATOM     27 H    ARG B   2     -14.370 -29.003  -8.165  1.00 12.50 LIG 0.16  HD
BRANCH 25 28
ATOM     28  CA  ALA B   1     -11.985 -29.273  -7.331  1.00 14.93 LIG 0.27  C 
ATOM     29  CB  ALA B   1     -12.349 -30.616  -6.710  1.00 16.58 LIG 0.05  C 
BRANCH 28 30
ATOM     30  N   ALA B   1     -10.636 -28.843  -6.869  1.00 16.58 LIG-0.07  N 
ATOM     31 H3   ALA B   1     -10.714 -28.117  -6.359  1.00 16.58 LIG 0.28  HD
ATOM     32 H1   ALA B   1     -10.261 -29.498  -6.398  1.00 16.58 LIG 0.28  HD
ATOM     33 H2   ALA B   1     -10.126 -28.656  -7.574  1.00 16.58 LIG 0.28  HD
ENDBRANCH 28 30
ENDBRANCH 25 28
ENDBRANCH 11 24
ENDBRANCH 8 11
ENDBRANCH 5 7
ENDBRANCH 1 5
BRANCH 3 34
ATOM     34  CA  GLU B   4     -15.565 -31.372  -1.319  1.00 20.15 LIG 0.18  C 
BRANCH 34 35
ATOM     35  C   GLU B   4     -16.483 -32.556  -1.615  1.00 19.92 LIG 0.24  C 
ATOM     36  N   VAL B   5     -17.777 -32.285  -1.744  1.00 19.46 LIG-0.35  N 
ATOM     37 H    VAL B   5     -18.114 -31.497  -1.670  1.00 19.46 LIG 0.16  HD
ATOM     38 O    GLU B   4     -16.023 -33.692  -1.733  1.00 20.03 LIG-0.27  OA
BRANCH 36 39
ATOM     39  CA  VAL B   5     -18.752 -33.335  -2.027  1.00 20.09 LIG 0.18  C 
BRANCH 39 40
ATOM     40  CB  VAL B   5     -20.157 -32.949  -1.508  1.00 20.49 LIG 0.01  C 
ATOM     41  CG2 VAL B   5     -21.221 -33.762  -2.225  1.00 19.70 LIG 0.01  C 
ATOM     42  CG1 VAL B   5     -20.400 -31.464  -1.713  1.00 21.00 LIG 0.01  C 
ENDBRANCH 39 40
BRANCH 39 43
ATOM     43  C   VAL B   5     -18.854 -33.611  -3.525  1.00 20.75 LIG 0.24  C 
ATOM     44  N   HIS B   6     -19.179 -32.578  -4.299  1.00 20.78 LIG-0.35  N 
ATOM     45 H    HIS B   6     -19.342 -31.787  -4.003  1.00 20.78 LIG 0.16  HD
ATOM     46 O    VAL B   5     -18.649 -34.739  -3.971  1.00 21.91 LIG-0.27  OA
BRANCH 44 47
ATOM     47  CA  HIS B   6     -19.285 -32.718  -5.747  1.00 21.28 LIG 0.17  C 
BRANCH 47 48
ATOM     48  C   HIS B   6     -18.633 -31.523  -6.432  1.00 23.03 LIG 0.22  C 
ATOM     49 O    HIS B   6     -17.422 -31.306  -6.215  1.00 25.39 LIG-0.29  OA
ENDBRANCH 47 48
BRANCH 47 50
ATOM     50  CB  HIS B   6     -20.750 -32.809  -6.184  1.00 19.33 LIG 0.09  C 
BRANCH 50 51
ATOM     51  CG  HIS B   6     -21.136 -34.155  -6.716  1.00 17.39 LIG 0.06  A 
ATOM     52  CD2 HIS B   6     -21.501 -35.294  -6.082  1.00 16.59 LIG 0.14  A 
ATOM     53 NE2  HIS B   6     -21.784 -36.226  -7.052  1.00 16.70 LIG-0.25  NA
ATOM     54  CE1 HIS B   6     -21.597 -35.679  -8.239  1.00 16.06 LIG 0.23  A 
ATOM     55 ND1  HIS B   6     -21.205 -34.429  -8.065  1.00 16.09 LIG-0.24  NA
ENDBRANCH 50 51
ENDBRANCH 47 50
ENDBRANCH 44 47
ENDBRANCH 39 43
ENDBRANCH 36 39
ENDBRANCH 34 35
BRANCH 34 56
ATOM     56  CB  GLU B   4     -15.603 -31.075   0.183  1.00 22.38 LIG 0.04  C 
BRANCH 56 57
ATOM     57  CG  GLU B   4     -15.067 -32.190   1.062  1.00 27.64 LIG 0.12  C 
BRANCH 57 58
ATOM     58  CD  GLU B   4     -16.160 -33.137   1.519  1.00 30.78 LIG 0.17  C 
ATOM     59 OE2  GLU B   4     -17.344 -32.740   1.492  1.00 32.62 LIG-0.65  OA
ATOM     60 OE1  GLU B   4     -15.832 -34.279   1.907  1.00 32.75 LIG-0.65  OA
ENDBRANCH 57 58
ENDBRANCH 56 57
ENDBRANCH 34 56
ENDBRANCH 3 34
TORSDOF 22
ENDMDL
MODEL 50
USER: ADFR SOLUTION from run 175
USER: SCORE 16.165397 LL:  -4.233 LR: -13.768 RR:   0.000 FEB:  -7.206
USER: RMSD 7.015285
USER: SEED 174
USER: STATUS no improvement in best in 5 clusters for 5 generations
USER: GENES 24
USER: genes 0 Translation |==|  0.56274 0.49539 0.17763
USER: genes 1 Rotation |==|  0.80607 0.61614 0.40981 0.86701
USER: genes 2 Torsion [N]-C--CA-[N] |==|  0.66148
USER: genes 3 Torsion [C]-CA--N-[C] |==|  0.63431
USER: genes 4 Torsion [N]-C--CA-[N] |==|  0.58915
USER: genes 5 Torsion [C]-CA--CB-[CG] |==|  0.27271
USER: genes 6 Torsion [CA]-CB--CG-[CD] |==|  0.08604
USER: genes 7 Torsion [CB]-CG--CD-[NE] |==|  0.62277
USER: genes 8 Torsion [CG]-CD--NE-[CZ] |==|  0.36568
USER: genes 9 Torsion [C]-CA--N-[C] |==|  0.16250
USER: genes 10 Torsion [N]-C--CA-[N] |==|  0.55645
USER: genes 11 Torsion [C]-CA--N-[H2] |==|  0.58266
USER: genes 12 Torsion [C]-N--CA-[C] |==|  0.80260
USER: genes 13 Torsion [N]-CA--C-[N] |==|  0.40730
USER: genes 14 Torsion [C]-N--CA-[CB] |==|  0.51355
USER: genes 15 Torsion [N]-CA--CB-[CG2] |==|  0.59754
USER: genes 16 Torsion [N]-CA--C-[N] |==|  0.43023
USER: genes 17 Torsion [C]-N--CA-[C] |==|  0.56250
USER: genes 18 Torsion [N]-CA--C-[O] |==|  0.21265
USER: genes 19 Torsion [N]-CA--CB-[CG] |==|  0.09618
USER: genes 20 Torsion [CA]-CB--CG-[CD2] |==|  0.26210
USER: genes 21 Torsion [N]-CA--CB-[CG] |==|  0.82419
USER: genes 22 Torsion [CA]-CB--CG-[CD] |==|  0.31139
USER: genes 23 Torsion [CB]-CG--CD-[OE2] |==|  0.85309
ROOT
ATOM      1  C   ALA B   3     -14.007 -28.196 -12.058  1.00 17.17 LIG 0.24  C 
ATOM      2 O    ALA B   3     -15.083 -27.655 -12.315  1.00 18.54 LIG-0.27  OA
ATOM      3  N   GLU B   4     -13.616 -29.334 -12.628  1.00 17.89 LIG-0.35  N 
ATOM      4 H    GLU B   4     -12.868 -29.721 -12.456  1.00 17.89 LIG 0.16  HD
ENDROOT
BRANCH 1 5
ATOM      5  CA  ALA B   3     -13.048 -27.569 -11.046  1.00 15.99 LIG 0.17  C 
ATOM      6  CB  ALA B   3     -11.781 -28.410 -10.937  1.00 16.21 LIG 0.04  C 
BRANCH 5 7
ATOM      7  N   ALA B   3     -13.639 -27.391  -9.725  1.00 13.91 LIG-0.35  N 
ATOM      8  C   ARG B   2     -13.543 -26.237  -9.071  1.00 12.46 LIG 0.24  C 
ATOM      9 O    ARG B   2     -12.966 -25.255  -9.535  1.00 11.56 LIG-0.27  OA
ATOM     10 H    ALA B   3     -14.043 -28.086  -9.419  1.00 13.91 LIG 0.16  HD
BRANCH 8 11
ATOM     11  CA  ARG B   2     -14.186 -26.175  -7.689  1.00 12.24 LIG 0.18  C 
BRANCH 11 12
ATOM     12  CB  ARG B   2     -15.297 -27.222  -7.590  1.00 10.58 LIG 0.04  C 
BRANCH 12 13
ATOM     13  CG  ARG B   2     -14.891 -28.518  -6.901  1.00  9.71 LIG 0.02  C 
BRANCH 13 14
ATOM     14  CD  ARG B   2     -13.828 -28.248  -5.848  1.00  9.44 LIG 0.14  C 
BRANCH 14 15
ATOM     15  NE  ARG B   2     -12.743 -29.226  -5.892  1.00  9.23 LIG-0.23  N 
ATOM     16  CZ  ARG B   2     -11.452 -28.917  -5.891  1.00  9.20 LIG 0.67  C 
ATOM     17  NH1 ARG B   2     -11.074 -27.645  -5.850  1.00  7.63 LIG-0.23  N 
ATOM     18  NH2 ARG B   2     -10.537 -29.877  -5.930  1.00  9.31 LIG-0.23  N 
ATOM     19 1HH1 ARG B   2     -11.665 -27.022  -5.824  1.00  7.63 LIG 0.17  HD
ATOM     20 2HH1 ARG B   2     -10.238 -27.445  -5.850  1.00  7.63 LIG 0.17  HD
ATOM     21 2HH2 ARG B   2      -9.701 -29.675  -5.929  1.00  9.31 LIG 0.17  HD
ATOM     22 1HH2 ARG B   2     -10.780 -30.701  -5.956  1.00  9.31 LIG 0.17  HD
ATOM     23 HE   ARG B   2     -12.955 -30.059  -5.921  1.00  9.23 LIG 0.18  HD
ENDBRANCH 14 15
ENDBRANCH 13 14
ENDBRANCH 12 13
ENDBRANCH 11 12
BRANCH 11 24
ATOM     24  N   ARG B   2     -14.722 -24.872  -7.309  1.00 12.50 LIG-0.35  N 
ATOM     25  C   ALA B   1     -15.655 -24.237  -8.007  1.00 14.33 LIG 0.25  C 
ATOM     26 O    ALA B   1     -16.180 -24.704  -9.017  1.00 14.72 LIG-0.27  OA
ATOM     27 H    ARG B   2     -14.376 -24.554  -6.589  1.00 12.50 LIG 0.16  HD
BRANCH 25 28
ATOM     28  CA  ALA B   1     -16.064 -22.870  -7.469  1.00 14.93 LIG 0.27  C 
ATOM     29  CB  ALA B   1     -16.078 -22.887  -5.945  1.00 16.58 LIG 0.05  C 
BRANCH 28 30
ATOM     30  N   ALA B   1     -17.399 -22.464  -7.990  1.00 16.58 LIG-0.07  N 
ATOM     31 H3   ALA B   1     -17.522 -22.817  -8.798  1.00 16.58 LIG 0.28  HD
ATOM     32 H1   ALA B   1     -18.033 -22.755  -7.439  1.00 16.58 LIG 0.28  HD
ATOM     33 H2   ALA B   1     -17.438 -21.577  -8.046  1.00 16.58 LIG 0.28  HD
ENDBRANCH 28 30
ENDBRANCH 25 28
ENDBRANCH 11 24
ENDBRANCH 8 11
ENDBRANCH 5 7
ENDBRANCH 1 5
BRANCH 3 34
ATOM     34  CA  GLU B   4     -14.442 -30.032 -13.611  1.00 20.15 LIG 0.18  C 
BRANCH 34 35
ATOM     35  C   GLU B   4     -15.662 -30.664 -12.946  1.00 19.92 LIG 0.24  C 
ATOM     36  N   VAL B   5     -16.775 -30.712 -13.672  1.00 19.46 LIG-0.35  N 
ATOM     37 H    VAL B   5     -16.838 -30.413 -14.476  1.00 19.46 LIG 0.16  HD
ATOM     38 O    GLU B   4     -15.594 -31.107 -11.799  1.00 20.03 LIG-0.27  OA
BRANCH 36 39
ATOM     39  CA  VAL B   5     -18.006 -31.292 -13.144  1.00 20.09 LIG 0.18  C 
BRANCH 39 40
ATOM     40  CB  VAL B   5     -19.113 -31.335 -14.224  1.00 20.49 LIG 0.01  C 
ATOM     41  CG2 VAL B   5     -20.471 -31.089 -13.591  1.00 19.70 LIG 0.01  C 
ATOM     42  CG1 VAL B   5     -19.096 -32.678 -14.935  1.00 21.00 LIG 0.01  C 
ENDBRANCH 39 40
BRANCH 39 43
ATOM     43  C   VAL B   5     -17.779 -32.713 -12.635  1.00 20.75 LIG 0.24  C 
ATOM     44  N   HIS B   6     -18.619 -33.151 -11.700  1.00 20.78 LIG-0.35  N 
ATOM     45 H    HIS B   6     -19.259 -32.682 -11.369  1.00 20.78 LIG 0.16  HD
ATOM     46 O    VAL B   5     -16.855 -33.397 -13.074  1.00 21.91 LIG-0.27  OA
BRANCH 44 47
ATOM     47  CA  HIS B   6     -18.511 -34.500 -11.154  1.00 21.28 LIG 0.17  C 
BRANCH 47 48
ATOM     48  C   HIS B   6     -19.850 -34.927 -10.564  1.00 23.03 LIG 0.22  C 
ATOM     49 O    HIS B   6     -20.758 -35.274 -11.350  1.00 25.39 LIG-0.29  OA
ENDBRANCH 47 48
BRANCH 47 50
ATOM     50  CB  HIS B   6     -17.438 -34.566 -10.063  1.00 19.33 LIG 0.09  C 
BRANCH 50 51
ATOM     51  CG  HIS B   6     -17.340 -33.317  -9.242  1.00 17.39 LIG 0.06  A 
ATOM     52  CD2 HIS B   6     -17.909 -32.979  -8.061  1.00 16.59 LIG 0.14  A 
ATOM     53 NE2  HIS B   6     -17.454 -31.724  -7.735  1.00 16.70 LIG-0.25  NA
ATOM     54  CE1 HIS B   6     -16.636 -31.305  -8.684  1.00 16.06 LIG 0.23  A 
ATOM     55 ND1  HIS B   6     -16.549 -32.248  -9.605  1.00 16.09 LIG-0.24  NA
ENDBRANCH 50 51
ENDBRANCH 47 50
ENDBRANCH 44 47
ENDBRANCH 39 43
ENDBRANCH 36 39
ENDBRANCH 34 35
BRANCH 34 56
ATOM     56  CB  GLU B   4     -13.627 -31.128 -14.303  1.00 22.38 LIG 0.04  C 
BRANCH 56 57
ATOM     57  CG  GLU B   4     -12.447 -30.622 -15.113  1.00 27.64 LIG 0.12  C 
BRANCH 57 58
ATOM     58  CD  GLU B   4     -11.117 -31.023 -14.504  1.00 30.78 LIG 0.17  C 
ATOM     59 OE2  GLU B   4     -10.905 -30.754 -13.303  1.00 32.62 LIG-0.65  OA
ATOM     60 OE1  GLU B   4     -10.284 -31.607 -15.230  1.00 32.75 LIG-0.65  OA
ENDBRANCH 57 58
ENDBRANCH 56 57
ENDBRANCH 34 56
ENDBRANCH 3 34
TORSDOF 22
ENDMDL
MODEL 51
USER: ADFR SOLUTION from run 135
USER: SCORE 15.617229 LL:  -4.426 LR: -13.759 RR:   0.000 FEB:  -7.197
USER: RMSD 5.889868
USER: SEED 134
USER: STATUS no improvement in best in 7 clusters for 5 generations
USER: GENES 24
USER: genes 0 Translation |==|  0.67475 0.51102 0.24990
USER: genes 1 Rotation |==|  0.36186 0.93467 0.29695 0.52746
USER: genes 2 Torsion [N]-C--CA-[N] |==|  0.18345
USER: genes 3 Torsion [C]-CA--N-[C] |==|  0.74871
USER: genes 4 Torsion [N]-C--CA-[N] |==|  0.59923
USER: genes 5 Torsion [C]-CA--CB-[CG] |==|  0.23848
USER: genes 6 Torsion [CA]-CB--CG-[CD] |==|  0.54303
USER: genes 7 Torsion [CB]-CG--CD-[NE] |==|  0.34992
USER: genes 8 Torsion [CG]-CD--NE-[CZ] |==|  0.37394
USER: genes 9 Torsion [C]-CA--N-[C] |==|  0.73977
USER: genes 10 Torsion [N]-C--CA-[N] |==|  0.15624
USER: genes 11 Torsion [C]-CA--N-[H2] |==|  0.73452
USER: genes 12 Torsion [C]-N--CA-[C] |==|  0.19673
USER: genes 13 Torsion [N]-CA--C-[N] |==|  0.01139
USER: genes 14 Torsion [C]-N--CA-[CB] |==|  0.22742
USER: genes 15 Torsion [N]-CA--CB-[CG2] |==|  0.06064
USER: genes 16 Torsion [N]-CA--C-[N] |==|  0.56175
USER: genes 17 Torsion [C]-N--CA-[C] |==|  0.72502
USER: genes 18 Torsion [N]-CA--C-[O] |==|  0.48206
USER: genes 19 Torsion [N]-CA--CB-[CG] |==|  0.97565
USER: genes 20 Torsion [CA]-CB--CG-[CD2] |==|  0.33789
USER: genes 21 Torsion [N]-CA--CB-[CG] |==|  0.63802
USER: genes 22 Torsion [CA]-CB--CG-[CD] |==|  0.42257
USER: genes 23 Torsion [CB]-CG--CD-[OE2] |==|  0.25610
ROOT
ATOM      1  C   ALA B   3     -11.991 -27.833 -10.486  1.00 17.17 LIG 0.24  C 
ATOM      2 O    ALA B   3     -11.290 -27.337  -9.601  1.00 18.54 LIG-0.27  OA
ATOM      3  N   GLU B   4     -11.966 -29.129 -10.785  1.00 17.89 LIG-0.35  N 
ATOM      4 H    GLU B   4     -12.449 -29.486 -11.401  1.00 17.89 LIG 0.16  HD
ENDROOT
BRANCH 1 5
ATOM      5  CA  ALA B   3     -12.943 -26.957 -11.298  1.00 15.99 LIG 0.17  C 
ATOM      6  CB  ALA B   3     -12.685 -25.484 -10.996  1.00 16.21 LIG 0.04  C 
BRANCH 5 7
ATOM      7  N   ALA B   3     -14.349 -27.268 -11.070  1.00 13.91 LIG-0.35  N 
ATOM      8  C   ARG B   2     -14.992 -28.164 -11.815  1.00 12.46 LIG 0.24  C 
ATOM      9 O    ARG B   2     -14.447 -28.786 -12.725  1.00 11.56 LIG-0.27  OA
ATOM     10 H    ALA B   3     -14.712 -26.829 -10.426  1.00 13.91 LIG 0.16  HD
BRANCH 8 11
ATOM     11  CA  ARG B   2     -16.465 -28.395 -11.494  1.00 12.24 LIG 0.18  C 
BRANCH 11 12
ATOM     12  CB  ARG B   2     -16.762 -27.924 -10.068  1.00 10.58 LIG 0.04  C 
BRANCH 12 13
ATOM     13  CG  ARG B   2     -17.091 -26.443  -9.943  1.00  9.71 LIG 0.02  C 
BRANCH 13 14
ATOM     14  CD  ARG B   2     -16.994 -26.000  -8.492  1.00  9.44 LIG 0.14  C 
BRANCH 14 15
ATOM     15  NE  ARG B   2     -16.104 -24.852  -8.321  1.00  9.23 LIG-0.23  N 
ATOM     16  CZ  ARG B   2     -16.387 -23.785  -7.585  1.00  9.20 LIG 0.67  C 
ATOM     17  NH1 ARG B   2     -17.546 -23.710  -6.942  1.00  7.63 LIG-0.23  N 
ATOM     18  NH2 ARG B   2     -15.512 -22.792  -7.487  1.00  9.31 LIG-0.23  N 
ATOM     19 1HH1 ARG B   2     -18.113 -24.353  -7.003  1.00  7.63 LIG 0.17  HD
ATOM     20 2HH1 ARG B   2     -17.729 -23.019  -6.465  1.00  7.63 LIG 0.17  HD
ATOM     21 2HH2 ARG B   2     -15.697 -22.101  -7.010  1.00  9.31 LIG 0.17  HD
ATOM     22 1HH2 ARG B   2     -14.761 -22.839  -7.902  1.00  9.31 LIG 0.17  HD
ATOM     23 HE   ARG B   2     -15.346 -24.870  -8.726  1.00  9.23 LIG 0.18  HD
ENDBRANCH 14 15
ENDBRANCH 13 14
ENDBRANCH 12 13
ENDBRANCH 11 12
BRANCH 11 24
ATOM     24  N   ARG B   2     -16.930 -29.769 -11.650  1.00 12.50 LIG-0.35  N 
ATOM     25  C   ALA B   1     -17.489 -30.226 -12.764  1.00 14.33 LIG 0.25  C 
ATOM     26 O    ALA B   1     -17.634 -29.545 -13.777  1.00 14.72 LIG-0.27  OA
ATOM     27 H    ARG B   2     -16.807 -30.256 -10.952  1.00 12.50 LIG 0.16  HD
BRANCH 25 28
ATOM     28  CA  ALA B   1     -17.941 -31.682 -12.724  1.00 14.93 LIG 0.27  C 
ATOM     29  CB  ALA B   1     -18.593 -32.068 -14.046  1.00 16.58 LIG 0.05  C 
BRANCH 28 30
ATOM     30  N   ALA B   1     -18.886 -31.921 -11.597  1.00 16.58 LIG-0.07  N 
ATOM     31 H3   ALA B   1     -19.286 -31.156 -11.378  1.00 16.58 LIG 0.28  HD
ATOM     32 H1   ALA B   1     -19.499 -32.516 -11.846  1.00 16.58 LIG 0.28  HD
ATOM     33 H2   ALA B   1     -18.438 -32.232 -10.895  1.00 16.58 LIG 0.28  HD
ENDBRANCH 28 30
ENDBRANCH 25 28
ENDBRANCH 11 24
ENDBRANCH 8 11
ENDBRANCH 5 7
ENDBRANCH 1 5
BRANCH 3 34
ATOM     34  CA  GLU B   4     -11.099 -30.072 -10.082  1.00 20.15 LIG 0.18  C 
BRANCH 34 35
ATOM     35  C   GLU B   4     -11.589 -30.300  -8.654  1.00 19.92 LIG 0.24  C 
ATOM     36  N   VAL B   5     -12.726 -29.702  -8.315  1.00 19.46 LIG-0.35  N 
ATOM     37 H    VAL B   5     -13.187 -29.207  -8.846  1.00 19.46 LIG 0.16  HD
ATOM     38 O    GLU B   4     -10.951 -31.013  -7.878  1.00 20.03 LIG-0.27  OA
BRANCH 36 39
ATOM     39  CA  VAL B   5     -13.294 -29.846  -6.977  1.00 20.09 LIG 0.18  C 
BRANCH 39 40
ATOM     40  CB  VAL B   5     -12.624 -28.875  -5.976  1.00 20.49 LIG 0.01  C 
ATOM     41  CG2 VAL B   5     -11.985 -27.716  -6.721  1.00 19.70 LIG 0.01  C 
ATOM     42  CG1 VAL B   5     -11.582 -29.613  -5.153  1.00 21.00 LIG 0.01  C 
ENDBRANCH 39 40
BRANCH 39 43
ATOM     43  C   VAL B   5     -14.796 -29.572  -6.977  1.00 20.75 LIG 0.24  C 
ATOM     44  N   HIS B   6     -15.336 -29.224  -5.812  1.00 20.78 LIG-0.35  N 
ATOM     45 H    HIS B   6     -14.895 -29.160  -5.076  1.00 20.78 LIG 0.16  HD
ATOM     46 O    VAL B   5     -15.454 -29.681  -8.011  1.00 21.91 LIG-0.27  OA
BRANCH 44 47
ATOM     47  CA  HIS B   6     -16.758 -28.918  -5.696  1.00 21.28 LIG 0.17  C 
BRANCH 47 48
ATOM     48  C   HIS B   6     -16.965 -27.408  -5.717  1.00 23.03 LIG 0.22  C 
ATOM     49 O    HIS B   6     -18.136 -26.973  -5.750  1.00 25.39 LIG-0.29  OA
ENDBRANCH 47 48
BRANCH 47 50
ATOM     50  CB  HIS B   6     -17.337 -29.486  -4.396  1.00 19.33 LIG 0.09  C 
BRANCH 50 51
ATOM     51  CG  HIS B   6     -16.391 -30.385  -3.660  1.00 17.39 LIG 0.06  A 
ATOM     52  CD2 HIS B   6     -15.886 -30.314  -2.406  1.00 16.59 LIG 0.14  A 
ATOM     53 NE2  HIS B   6     -15.089 -31.419  -2.225  1.00 16.70 LIG-0.25  NA
ATOM     54  CE1 HIS B   6     -15.103 -32.142  -3.331  1.00 16.06 LIG 0.23  A 
ATOM     55 ND1  HIS B   6     -15.882 -31.540  -4.213  1.00 16.09 LIG-0.24  NA
ENDBRANCH 50 51
ENDBRANCH 47 50
ENDBRANCH 44 47
ENDBRANCH 39 43
ENDBRANCH 36 39
ENDBRANCH 34 35
BRANCH 34 56
ATOM     56  CB  GLU B   4      -9.663 -29.540 -10.038  1.00 22.38 LIG 0.04  C 
BRANCH 56 57
ATOM     57  CG  GLU B   4      -8.607 -30.537 -10.481  1.00 27.64 LIG 0.12  C 
BRANCH 57 58
ATOM     58  CD  GLU B   4      -7.383 -29.857 -11.063  1.00 30.78 LIG 0.17  C 
ATOM     59 OE2  GLU B   4      -6.429 -29.589 -10.301  1.00 32.62 LIG-0.65  OA
ATOM     60 OE1  GLU B   4      -7.376 -29.590 -12.283  1.00 32.75 LIG-0.65  OA
ENDBRANCH 57 58
ENDBRANCH 56 57
ENDBRANCH 34 56
ENDBRANCH 3 34
TORSDOF 22
ENDMDL
MODEL 52
USER: ADFR SOLUTION from run 109
USER: SCORE 18.321555 LL:  -5.258 LR: -13.743 RR:   0.000 FEB:  -7.181
USER: RMSD 4.217308
USER: SEED 108
USER: STATUS no improvement in best in 5 clusters for 5 generations
USER: GENES 24
USER: genes 0 Translation |==|  0.47910 0.46988 0.22243
USER: genes 1 Rotation |==|  0.49748 0.03047 0.55530 0.66271
USER: genes 2 Torsion [N]-C--CA-[N] |==|  0.36919
USER: genes 3 Torsion [C]-CA--N-[C] |==|  0.82264
USER: genes 4 Torsion [N]-C--CA-[N] |==|  0.86540
USER: genes 5 Torsion [C]-CA--CB-[CG] |==|  0.08480
USER: genes 6 Torsion [CA]-CB--CG-[CD] |==|  0.46844
USER: genes 7 Torsion [CB]-CG--CD-[NE] |==|  0.00188
USER: genes 8 Torsion [CG]-CD--NE-[CZ] |==|  0.66309
USER: genes 9 Torsion [C]-CA--N-[C] |==|  0.83758
USER: genes 10 Torsion [N]-C--CA-[N] |==|  0.39224
USER: genes 11 Torsion [C]-CA--N-[H2] |==|  0.31580
USER: genes 12 Torsion [C]-N--CA-[C] |==|  0.15556
USER: genes 13 Torsion [N]-CA--C-[N] |==|  0.17456
USER: genes 14 Torsion [C]-N--CA-[CB] |==|  0.86650
USER: genes 15 Torsion [N]-CA--CB-[CG2] |==|  0.73476
USER: genes 16 Torsion [N]-CA--C-[N] |==|  0.36641
USER: genes 17 Torsion [C]-N--CA-[C] |==|  0.72315
USER: genes 18 Torsion [N]-CA--C-[O] |==|  0.30817
USER: genes 19 Torsion [N]-CA--CB-[CG] |==|  0.96027
USER: genes 20 Torsion [CA]-CB--CG-[CD2] |==|  0.71182
USER: genes 21 Torsion [N]-CA--CB-[CG] |==|  0.70473
USER: genes 22 Torsion [CA]-CB--CG-[CD] |==|  0.05505
USER: genes 23 Torsion [CB]-CG--CD-[OE2] |==|  0.67176
ROOT
ATOM      1  C   ALA B   3     -15.512 -28.789 -11.083  1.00 17.17 LIG 0.24  C 
ATOM      2 O    ALA B   3     -14.462 -29.389 -10.851  1.00 18.54 LIG-0.27  OA
ATOM      3  N   GLU B   4     -16.636 -29.410 -11.434  1.00 17.89 LIG-0.35  N 
ATOM      4 H    GLU B   4     -17.375 -29.002 -11.599  1.00 17.89 LIG 0.16  HD
ENDROOT
BRANCH 1 5
ATOM      5  CA  ALA B   3     -15.572 -27.266 -10.975  1.00 15.99 LIG 0.17  C 
ATOM      6  CB  ALA B   3     -14.905 -26.630 -12.190  1.00 16.21 LIG 0.04  C 
BRANCH 5 7
ATOM      7  N   ALA B   3     -14.967 -26.750  -9.753  1.00 13.91 LIG-0.35  N 
ATOM      8  C   ARG B   2     -15.467 -27.039  -8.555  1.00 12.46 LIG 0.24  C 
ATOM      9 O    ARG B   2     -16.453 -27.759  -8.401  1.00 11.56 LIG-0.27  OA
ATOM     10 H    ALA B   3     -14.276 -26.255  -9.880  1.00 13.91 LIG 0.16  HD
BRANCH 8 11
ATOM     11  CA  ARG B   2     -14.760 -26.429  -7.349  1.00 12.24 LIG 0.18  C 
BRANCH 11 12
ATOM     12  CB  ARG B   2     -15.110 -24.943  -7.244  1.00 10.58 LIG 0.04  C 
BRANCH 12 13
ATOM     13  CG  ARG B   2     -16.492 -24.577  -7.767  1.00  9.71 LIG 0.02  C 
BRANCH 13 14
ATOM     14  CD  ARG B   2     -16.850 -23.155  -7.367  1.00  9.44 LIG 0.14  C 
BRANCH 14 15
ATOM     15  NE  ARG B   2     -15.782 -22.507  -6.606  1.00  9.23 LIG-0.23  N 
ATOM     16  CZ  ARG B   2     -15.922 -22.021  -5.379  1.00  9.20 LIG 0.67  C 
ATOM     17  NH1 ARG B   2     -17.094 -22.105  -4.761  1.00  7.63 LIG-0.23  N 
ATOM     18  NH2 ARG B   2     -14.891 -21.452  -4.767  1.00  9.31 LIG-0.23  N 
ATOM     19 1HH1 ARG B   2     -17.762 -22.474  -5.156  1.00  7.63 LIG 0.17  HD
ATOM     20 2HH1 ARG B   2     -17.184 -21.790  -3.966  1.00  7.63 LIG 0.17  HD
ATOM     21 2HH2 ARG B   2     -14.984 -21.138  -3.971  1.00  9.31 LIG 0.17  HD
ATOM     22 1HH2 ARG B   2     -14.131 -21.398  -5.165  1.00  9.31 LIG 0.17  HD
ATOM     23 HE   ARG B   2     -15.010 -22.436  -6.979  1.00  9.23 LIG 0.18  HD
ENDBRANCH 14 15
ENDBRANCH 13 14
ENDBRANCH 12 13
ENDBRANCH 11 12
BRANCH 11 24
ATOM     24  N   ARG B   2     -13.308 -26.580  -7.335  1.00 12.50 LIG-0.35  N 
ATOM     25  C   ALA B   1     -12.699 -27.759  -7.366  1.00 14.33 LIG 0.25  C 
ATOM     26 O    ALA B   1     -13.300 -28.830  -7.447  1.00 14.72 LIG-0.27  OA
ATOM     27 H    ARG B   2     -12.884 -25.833  -7.305  1.00 12.50 LIG 0.16  HD
BRANCH 25 28
ATOM     28  CA  ALA B   1     -11.176 -27.715  -7.310  1.00 14.93 LIG 0.27  C 
ATOM     29  CB  ALA B   1     -10.594 -27.794  -8.716  1.00 16.58 LIG 0.05  C 
BRANCH 28 30
ATOM     30  N   ALA B   1     -10.636 -28.819  -6.469  1.00 16.58 LIG-0.07  N 
ATOM     31 H3   ALA B   1     -10.097 -28.481  -5.845  1.00 16.58 LIG 0.28  HD
ATOM     32 H1   ALA B   1     -11.309 -29.250  -6.077  1.00 16.58 LIG 0.28  HD
ATOM     33 H2   ALA B   1     -10.179 -29.385  -6.980  1.00 16.58 LIG 0.28  HD
ENDBRANCH 28 30
ENDBRANCH 25 28
ENDBRANCH 11 24
ENDBRANCH 8 11
ENDBRANCH 5 7
ENDBRANCH 1 5
BRANCH 3 34
ATOM     34  CA  GLU B   4     -16.710 -30.863 -11.571  1.00 20.15 LIG 0.18  C 
BRANCH 34 35
ATOM     35  C   GLU B   4     -16.272 -31.554 -10.282  1.00 19.92 LIG 0.24  C 
ATOM     36  N   VAL B   5     -17.013 -31.321  -9.204  1.00 19.46 LIG-0.35  N 
ATOM     37 H    VAL B   5     -17.708 -30.813  -9.197  1.00 19.46 LIG 0.16  HD
ATOM     38 O    GLU B   4     -15.287 -32.292 -10.268  1.00 20.03 LIG-0.27  OA
BRANCH 36 39
ATOM     39  CA  VAL B   5     -16.694 -31.926  -7.913  1.00 20.09 LIG 0.18  C 
BRANCH 39 40
ATOM     40  CB  VAL B   5     -16.431 -33.444  -8.057  1.00 20.49 LIG 0.01  C 
ATOM     41  CG2 VAL B   5     -17.696 -34.225  -7.752  1.00 19.70 LIG 0.01  C 
ATOM     42  CG1 VAL B   5     -15.309 -33.869  -7.124  1.00 21.00 LIG 0.01  C 
ENDBRANCH 39 40
BRANCH 39 43
ATOM     43  C   VAL B   5     -15.460 -31.283  -7.286  1.00 20.75 LIG 0.24  C 
ATOM     44  N   HIS B   6     -15.561 -30.923  -6.009  1.00 20.78 LIG-0.35  N 
ATOM     45 H    HIS B   6     -16.272 -31.021  -5.536  1.00 20.78 LIG 0.16  HD
ATOM     46 O    VAL B   5     -14.438 -31.109  -7.949  1.00 21.91 LIG-0.27  OA
BRANCH 44 47
ATOM     47  CA  HIS B   6     -14.439 -30.319  -5.300  1.00 21.28 LIG 0.17  C 
BRANCH 47 48
ATOM     48  C   HIS B   6     -13.734 -31.372  -4.453  1.00 23.03 LIG 0.22  C 
ATOM     49 O    HIS B   6     -12.586 -31.731  -4.790  1.00 25.39 LIG-0.29  OA
ENDBRANCH 47 48
BRANCH 47 50
ATOM     50  CB  HIS B   6     -14.913 -29.180  -4.392  1.00 19.33 LIG 0.09  C 
BRANCH 50 51
ATOM     51  CG  HIS B   6     -16.311 -28.724  -4.681  1.00 17.39 LIG 0.06  A 
ATOM     52  CD2 HIS B   6     -16.776 -27.627  -5.324  1.00 16.59 LIG 0.14  A 
ATOM     53 NE2  HIS B   6     -18.148 -27.717  -5.340  1.00 16.70 LIG-0.25  NA
ATOM     54  CE1 HIS B   6     -18.511 -28.829  -4.726  1.00 16.06 LIG 0.23  A 
ATOM     55 ND1  HIS B   6     -17.421 -29.456  -4.319  1.00 16.09 LIG-0.24  NA
ENDBRANCH 50 51
ENDBRANCH 47 50
ENDBRANCH 44 47
ENDBRANCH 39 43
ENDBRANCH 36 39
ENDBRANCH 34 35
BRANCH 34 56
ATOM     56  CB  GLU B   4     -15.812 -31.333 -12.719  1.00 22.38 LIG 0.04  C 
BRANCH 56 57
ATOM     57  CG  GLU B   4     -16.559 -31.762 -13.970  1.00 27.64 LIG 0.12  C 
BRANCH 57 58
ATOM     58  CD  GLU B   4     -17.968 -31.205 -14.017  1.00 30.78 LIG 0.17  C 
ATOM     59 OE2  GLU B   4     -18.928 -32.005 -14.027  1.00 32.62 LIG-0.65  OA
ATOM     60 OE1  GLU B   4     -18.115 -29.964 -14.046  1.00 32.75 LIG-0.65  OA
ENDBRANCH 57 58
ENDBRANCH 56 57
ENDBRANCH 34 56
ENDBRANCH 3 34
TORSDOF 22
ENDMDL
MODEL 53
USER: ADFR SOLUTION from run 71
USER: SCORE 19.521225 LL:  -6.557 LR: -13.708 RR:   0.000 FEB:  -7.145
USER: RMSD 2.973018
USER: SEED 70
USER: STATUS no improvement in best in 2 clusters for 5 generations
USER: GENES 24
USER: genes 0 Translation |==|  0.43237 0.45995 0.24112
USER: genes 1 Rotation |==|  0.54824 0.58059 0.43150 0.98630
USER: genes 2 Torsion [N]-C--CA-[N] |==|  0.90723
USER: genes 3 Torsion [C]-CA--N-[C] |==|  0.77545
USER: genes 4 Torsion [N]-C--CA-[N] |==|  0.97553
USER: genes 5 Torsion [C]-CA--CB-[CG] |==|  0.19048
USER: genes 6 Torsion [CA]-CB--CG-[CD] |==|  0.48486
USER: genes 7 Torsion [CB]-CG--CD-[NE] |==|  0.67579
USER: genes 8 Torsion [CG]-CD--NE-[CZ] |==|  0.34321
USER: genes 9 Torsion [C]-CA--N-[C] |==|  0.76183
USER: genes 10 Torsion [N]-C--CA-[N] |==|  0.45527
USER: genes 11 Torsion [C]-CA--N-[H2] |==|  0.35997
USER: genes 12 Torsion [C]-N--CA-[C] |==|  0.75602
USER: genes 13 Torsion [N]-CA--C-[N] |==|  0.42862
USER: genes 14 Torsion [C]-N--CA-[CB] |==|  0.51667
USER: genes 15 Torsion [N]-CA--CB-[CG2] |==|  0.58918
USER: genes 16 Torsion [N]-CA--C-[N] |==|  0.40302
USER: genes 17 Torsion [C]-N--CA-[C] |==|  0.56903
USER: genes 18 Torsion [N]-CA--C-[O] |==|  0.06600
USER: genes 19 Torsion [N]-CA--CB-[CG] |==|  0.07403
USER: genes 20 Torsion [CA]-CB--CG-[CD2] |==|  0.13523
USER: genes 21 Torsion [N]-CA--CB-[CG] |==|  0.20323
USER: genes 22 Torsion [CA]-CB--CG-[CD] |==|  0.74009
USER: genes 23 Torsion [CB]-CG--CD-[OE2] |==|  0.05391
ROOT
ATOM      1  C   ALA B   3     -16.353 -29.020 -10.677  1.00 17.17 LIG 0.24  C 
ATOM      2 O    ALA B   3     -17.431 -29.346 -11.176  1.00 18.54 LIG-0.27  OA
ATOM      3  N   GLU B   4     -15.614 -29.852  -9.947  1.00 17.89 LIG-0.35  N 
ATOM      4 H    GLU B   4     -14.861 -29.636  -9.594  1.00 17.89 LIG 0.16  HD
ENDROOT
BRANCH 1 5
ATOM      5  CA  ALA B   3     -15.803 -27.608 -10.879  1.00 15.99 LIG 0.17  C 
ATOM      6  CB  ALA B   3     -14.934 -27.561 -12.131  1.00 16.21 LIG 0.04  C 
BRANCH 5 7
ATOM      7  N   ALA B   3     -15.047 -27.115  -9.734  1.00 13.91 LIG-0.35  N 
ATOM      8  C   ARG B   2     -15.656 -26.607  -8.666  1.00 12.46 LIG 0.24  C 
ATOM      9 O    ARG B   2     -16.881 -26.531  -8.571  1.00 11.56 LIG-0.27  OA
ATOM     10 H    ALA B   3     -14.194 -27.182  -9.815  1.00 13.91 LIG 0.16  HD
BRANCH 8 11
ATOM     11  CA  ARG B   2     -14.761 -26.107  -7.537  1.00 12.24 LIG 0.18  C 
BRANCH 11 12
ATOM     12  CB  ARG B   2     -14.919 -24.593  -7.385  1.00 10.58 LIG 0.04  C 
BRANCH 12 13
ATOM     13  CG  ARG B   2     -16.277 -24.144  -6.861  1.00  9.71 LIG 0.02  C 
BRANCH 13 14
ATOM     14  CD  ARG B   2     -16.282 -22.643  -6.622  1.00  9.44 LIG 0.14  C 
BRANCH 14 15
ATOM     15  NE  ARG B   2     -16.484 -22.307  -5.213  1.00  9.23 LIG-0.23  N 
ATOM     16  CZ  ARG B   2     -15.653 -21.563  -4.493  1.00  9.20 LIG 0.67  C 
ATOM     17  NH1 ARG B   2     -14.552 -21.071  -5.046  1.00  7.63 LIG-0.23  N 
ATOM     18  NH2 ARG B   2     -15.923 -21.309  -3.219  1.00  9.31 LIG-0.23  N 
ATOM     19 1HH1 ARG B   2     -14.377 -21.234  -5.872  1.00  7.63 LIG 0.17  HD
ATOM     20 2HH1 ARG B   2     -14.015 -20.589  -4.579  1.00  7.63 LIG 0.17  HD
ATOM     21 2HH2 ARG B   2     -15.384 -20.826  -2.753  1.00  9.31 LIG 0.17  HD
ATOM     22 1HH2 ARG B   2     -16.636 -21.626  -2.859  1.00  9.31 LIG 0.17  HD
ATOM     23 HE   ARG B   2     -17.187 -22.612  -4.825  1.00  9.23 LIG 0.18  HD
ENDBRANCH 14 15
ENDBRANCH 13 14
ENDBRANCH 12 13
ENDBRANCH 11 12
BRANCH 11 24
ATOM     24  N   ARG B   2     -13.344 -26.428  -7.675  1.00 12.50 LIG-0.35  N 
ATOM     25  C   ALA B   1     -12.815 -27.575  -7.267  1.00 14.33 LIG 0.25  C 
ATOM     26 O    ALA B   1     -13.474 -28.487  -6.771  1.00 14.72 LIG-0.27  OA
ATOM     27 H    ARG B   2     -12.884 -25.804  -8.046  1.00 12.50 LIG 0.16  HD
BRANCH 25 28
ATOM     28  CA  ALA B   1     -11.309 -27.713  -7.467  1.00 14.93 LIG 0.27  C 
ATOM     29  CB  ALA B   1     -10.991 -27.933  -8.941  1.00 16.58 LIG 0.05  C 
BRANCH 28 30
ATOM     30  N   ALA B   1     -10.758 -28.830  -6.651  1.00 16.58 LIG-0.07  N 
ATOM     31 H3   ALA B   1     -10.255 -28.499  -5.995  1.00 16.58 LIG 0.28  HD
ATOM     32 H1   ALA B   1     -11.428 -29.301  -6.303  1.00 16.58 LIG 0.28  HD
ATOM     33 H2   ALA B   1     -10.261 -29.358  -7.167  1.00 16.58 LIG 0.28  HD
ENDBRANCH 28 30
ENDBRANCH 25 28
ENDBRANCH 11 24
ENDBRANCH 8 11
ENDBRANCH 5 7
ENDBRANCH 1 5
BRANCH 3 34
ATOM     34  CA  GLU B   4     -16.029 -31.228  -9.682  1.00 20.15 LIG 0.18  C 
BRANCH 34 35
ATOM     35  C   GLU B   4     -16.905 -31.301  -8.433  1.00 19.92 LIG 0.24  C 
ATOM     36  N   VAL B   5     -17.756 -32.320  -8.365  1.00 19.46 LIG-0.35  N 
ATOM     37 H    VAL B   5     -17.835 -32.923  -8.973  1.00 19.46 LIG 0.16  HD
ATOM     38 O    GLU B   4     -16.804 -30.455  -7.545  1.00 20.03 LIG-0.27  OA
BRANCH 36 39
ATOM     39  CA  VAL B   5     -18.645 -32.495  -7.220  1.00 20.09 LIG 0.18  C 
BRANCH 39 40
ATOM     40  CB  VAL B   5     -19.423 -33.829  -7.315  1.00 20.49 LIG 0.01  C 
ATOM     41  CG2 VAL B   5     -20.795 -33.681  -6.680  1.00 19.70 LIG 0.01  C 
ATOM     42  CG1 VAL B   5     -18.642 -34.939  -6.632  1.00 21.00 LIG 0.01  C 
ENDBRANCH 39 40
BRANCH 39 43
ATOM     43  C   VAL B   5     -17.870 -32.486  -5.905  1.00 20.75 LIG 0.24  C 
ATOM     44  N   HIS B   6     -18.480 -31.935  -4.859  1.00 20.78 LIG-0.35  N 
ATOM     45 H    HIS B   6     -19.264 -31.582  -4.889  1.00 20.78 LIG 0.16  HD
ATOM     46 O    VAL B   5     -16.737 -32.961  -5.841  1.00 21.91 LIG-0.27  OA
BRANCH 44 47
ATOM     47  CA  HIS B   6     -17.844 -31.888  -3.547  1.00 21.28 LIG 0.17  C 
BRANCH 47 48
ATOM     48  C   HIS B   6     -18.908 -31.799  -2.459  1.00 23.03 LIG 0.22  C 
ATOM     49 O    HIS B   6     -20.056 -32.221  -2.719  1.00 25.39 LIG-0.29  OA
ENDBRANCH 47 48
BRANCH 47 50
ATOM     50  CB  HIS B   6     -16.909 -30.680  -3.433  1.00 19.33 LIG 0.09  C 
BRANCH 50 51
ATOM     51  CG  HIS B   6     -17.294 -29.537  -4.322  1.00 17.39 LIG 0.06  A 
ATOM     52  CD2 HIS B   6     -18.484 -28.925  -4.523  1.00 16.59 LIG 0.14  A 
ATOM     53 NE2  HIS B   6     -18.272 -27.907  -5.421  1.00 16.70 LIG-0.25  NA
ATOM     54  CE1 HIS B   6     -16.996 -27.897  -5.762  1.00 16.06 LIG 0.23  A 
ATOM     55 ND1  HIS B   6     -16.383 -28.871  -5.113  1.00 16.09 LIG-0.24  NA
ENDBRANCH 50 51
ENDBRANCH 47 50
ENDBRANCH 44 47
ENDBRANCH 39 43
ENDBRANCH 36 39
ENDBRANCH 34 35
BRANCH 34 56
ATOM     56  CB  GLU B   4     -14.802 -32.123  -9.484  1.00 22.38 LIG 0.04  C 
BRANCH 56 57
ATOM     57  CG  GLU B   4     -14.078 -31.919  -8.165  1.00 27.64 LIG 0.12  C 
BRANCH 57 58
ATOM     58  CD  GLU B   4     -12.938 -30.926  -8.282  1.00 30.78 LIG 0.17  C 
ATOM     59 OE2  GLU B   4     -12.932 -30.135  -9.249  1.00 32.62 LIG-0.65  OA
ATOM     60 OE1  GLU B   4     -12.048 -30.938  -7.405  1.00 32.75 LIG-0.65  OA
ENDBRANCH 57 58
ENDBRANCH 56 57
ENDBRANCH 34 56
ENDBRANCH 3 34
TORSDOF 22
ENDMDL
MODEL 54
USER: ADFR SOLUTION from run 61
USER: SCORE 16.451311 LL:  -4.942 LR: -13.701 RR:   0.000 FEB:  -7.139
USER: RMSD 6.884228
USER: SEED 60
USER: STATUS searching
USER: GENES 24
USER: genes 0 Translation |==|  0.50598 0.60812 0.27689
USER: genes 1 Rotation |==|  0.27398 0.47387 0.25366 0.87088
USER: genes 2 Torsion [N]-C--CA-[N] |==|  0.03896
USER: genes 3 Torsion [C]-CA--N-[C] |==|  0.21229
USER: genes 4 Torsion [N]-C--CA-[N] |==|  0.40553
USER: genes 5 Torsion [C]-CA--CB-[CG] |==|  0.89541
USER: genes 6 Torsion [CA]-CB--CG-[CD] |==|  0.80967
USER: genes 7 Torsion [CB]-CG--CD-[NE] |==|  0.87474
USER: genes 8 Torsion [CG]-CD--NE-[CZ] |==|  0.65117
USER: genes 9 Torsion [C]-CA--N-[C] |==|  0.87731
USER: genes 10 Torsion [N]-C--CA-[N] |==|  0.18766
USER: genes 11 Torsion [C]-CA--N-[H2] |==|  0.71229
USER: genes 12 Torsion [C]-N--CA-[C] |==|  0.16697
USER: genes 13 Torsion [N]-CA--C-[N] |==|  0.05680
USER: genes 14 Torsion [C]-N--CA-[CB] |==|  0.51712
USER: genes 15 Torsion [N]-CA--CB-[CG2] |==|  0.10299
USER: genes 16 Torsion [N]-CA--C-[N] |==|  0.80022
USER: genes 17 Torsion [C]-N--CA-[C] |==|  0.63052
USER: genes 18 Torsion [N]-CA--C-[O] |==|  0.56071
USER: genes 19 Torsion [N]-CA--CB-[CG] |==|  0.18254
USER: genes 20 Torsion [CA]-CB--CG-[CD2] |==|  0.33160
USER: genes 21 Torsion [N]-CA--CB-[CG] |==|  0.72804
USER: genes 22 Torsion [CA]-CB--CG-[CD] |==|  0.88974
USER: genes 23 Torsion [CB]-CG--CD-[OE2] |==|  0.23951
ROOT
ATOM      1  C   ALA B   3     -15.028 -25.575  -9.899  1.00 17.17 LIG 0.24  C 
ATOM      2 O    ALA B   3     -16.204 -25.651 -10.259  1.00 18.54 LIG-0.27  OA
ATOM      3  N   GLU B   4     -14.673 -25.266  -8.654  1.00 17.89 LIG-0.35  N 
ATOM      4 H    GLU B   4     -13.856 -25.210  -8.391  1.00 17.89 LIG 0.16  HD
ENDROOT
BRANCH 1 5
ATOM      5  CA  ALA B   3     -13.897 -25.840 -10.892  1.00 15.99 LIG 0.17  C 
ATOM      6  CB  ALA B   3     -14.232 -27.053 -11.753  1.00 16.21 LIG 0.04  C 
BRANCH 5 7
ATOM      7  N   ALA B   3     -12.601 -26.030 -10.253  1.00 13.91 LIG-0.35  N 
ATOM      8  C   ARG B   2     -12.289 -27.169  -9.641  1.00 12.46 LIG 0.24  C 
ATOM      9 O    ARG B   2     -13.059 -28.127  -9.583  1.00 11.56 LIG-0.27  OA
ATOM     10 H    ALA B   3     -12.073 -25.353 -10.309  1.00 13.91 LIG 0.16  HD
BRANCH 8 11
ATOM     11  CA  ARG B   2     -10.910 -27.246  -8.993  1.00 12.24 LIG 0.18  C 
BRANCH 11 12
ATOM     12  CB  ARG B   2      -9.897 -27.792 -10.002  1.00 10.58 LIG 0.04  C 
BRANCH 12 13
ATOM     13  CG  ARG B   2     -10.434 -28.887 -10.914  1.00  9.71 LIG 0.02  C 
BRANCH 13 14
ATOM     14  CD  ARG B   2     -10.706 -30.153 -10.119  1.00  9.44 LIG 0.14  C 
BRANCH 14 15
ATOM     15  NE  ARG B   2      -9.614 -30.477  -9.202  1.00  9.23 LIG-0.23  N 
ATOM     16  CZ  ARG B   2      -8.980 -31.642  -9.171  1.00  9.20 LIG 0.67  C 
ATOM     17  NH1 ARG B   2      -9.327 -32.610 -10.010  1.00  7.63 LIG-0.23  N 
ATOM     18  NH2 ARG B   2      -7.997 -31.842  -8.302  1.00  9.31 LIG-0.23  N 
ATOM     19 1HH1 ARG B   2      -9.962 -32.482 -10.574  1.00  7.63 LIG 0.17  HD
ATOM     20 2HH1 ARG B   2      -8.915 -33.365  -9.989  1.00  7.63 LIG 0.17  HD
ATOM     21 2HH2 ARG B   2      -7.587 -32.598  -8.283  1.00  9.31 LIG 0.17  HD
ATOM     22 1HH2 ARG B   2      -7.770 -31.216  -7.758  1.00  9.31 LIG 0.17  HD
ATOM     23 HE   ARG B   2      -9.366 -29.871  -8.644  1.00  9.23 LIG 0.18  HD
ENDBRANCH 14 15
ENDBRANCH 13 14
ENDBRANCH 12 13
ENDBRANCH 11 12
BRANCH 11 24
ATOM     24  N   ARG B   2     -10.839 -28.037  -7.769  1.00 12.50 LIG-0.35  N 
ATOM     25  C   ALA B   1     -11.742 -27.960  -6.800  1.00 14.33 LIG 0.25  C 
ATOM     26 O    ALA B   1     -12.740 -27.243  -6.859  1.00 14.72 LIG-0.27  OA
ATOM     27 H    ARG B   2     -10.157 -28.559  -7.735  1.00 12.50 LIG 0.16  HD
BRANCH 25 28
ATOM     28  CA  ALA B   1     -11.478 -28.841  -5.583  1.00 14.93 LIG 0.27  C 
ATOM     29  CB  ALA B   1     -12.694 -28.848  -4.664  1.00 16.58 LIG 0.05  C 
BRANCH 28 30
ATOM     30  N   ALA B   1     -10.274 -28.380  -4.836  1.00 16.58 LIG-0.07  N 
ATOM     31 H3   ALA B   1     -10.068 -27.551  -5.088  1.00 16.58 LIG 0.28  HD
ATOM     32 H1   ALA B   1     -10.445 -28.391  -3.963  1.00 16.58 LIG 0.28  HD
ATOM     33 H2   ALA B   1      -9.591 -28.921  -5.012  1.00 16.58 LIG 0.28  HD
ENDBRANCH 28 30
ENDBRANCH 25 28
ENDBRANCH 11 24
ENDBRANCH 8 11
ENDBRANCH 5 7
ENDBRANCH 1 5
BRANCH 3 34
ATOM     34  CA  GLU B   4     -15.658 -24.992  -7.611  1.00 20.15 LIG 0.18  C 
BRANCH 34 35
ATOM     35  C   GLU B   4     -16.565 -26.200  -7.387  1.00 19.92 LIG 0.24  C 
ATOM     36  N   VAL B   5     -16.101 -27.374  -7.803  1.00 19.46 LIG-0.35  N 
ATOM     37 H    VAL B   5     -15.336 -27.483  -8.181  1.00 19.46 LIG 0.16  HD
ATOM     38 O    GLU B   4     -17.660 -26.070  -6.840  1.00 20.03 LIG-0.27  OA
BRANCH 36 39
ATOM     39  CA  VAL B   5     -16.878 -28.600  -7.643  1.00 20.09 LIG 0.18  C 
BRANCH 39 40
ATOM     40  CB  VAL B   5     -16.057 -29.842  -8.065  1.00 20.49 LIG 0.01  C 
ATOM     41  CG2 VAL B   5     -14.604 -29.671  -7.657  1.00 19.70 LIG 0.01  C 
ATOM     42  CG1 VAL B   5     -16.163 -30.052  -9.566  1.00 21.00 LIG 0.01  C 
ENDBRANCH 39 40
BRANCH 39 43
ATOM     43  C   VAL B   5     -17.327 -28.792  -6.197  1.00 20.75 LIG 0.24  C 
ATOM     44  N   HIS B   6     -16.382 -29.125  -5.321  1.00 20.78 LIG-0.35  N 
ATOM     45 H    HIS B   6     -15.556 -29.247  -5.526  1.00 20.78 LIG 0.16  HD
ATOM     46 O    VAL B   5     -18.507 -28.648  -5.882  1.00 21.91 LIG-0.27  OA
BRANCH 44 47
ATOM     47  CA  HIS B   6     -16.690 -29.314  -3.908  1.00 21.28 LIG 0.17  C 
BRANCH 47 48
ATOM     48  C   HIS B   6     -15.667 -28.576  -3.052  1.00 23.03 LIG 0.22  C 
ATOM     49 O    HIS B   6     -15.511 -28.944  -1.868  1.00 25.39 LIG-0.29  OA
ENDBRANCH 47 48
BRANCH 47 50
ATOM     50  CB  HIS B   6     -16.675 -30.800  -3.537  1.00 19.33 LIG 0.09  C 
BRANCH 50 51
ATOM     51  CG  HIS B   6     -15.321 -31.433  -3.649  1.00 17.39 LIG 0.06  A 
ATOM     52  CD2 HIS B   6     -14.538 -32.034  -2.723  1.00 16.59 LIG 0.14  A 
ATOM     53 NE2  HIS B   6     -13.408 -32.473  -3.370  1.00 16.70 LIG-0.25  NA
ATOM     54  CE1 HIS B   6     -13.493 -32.151  -4.647  1.00 16.06 LIG 0.23  A 
ATOM     55 ND1  HIS B   6     -14.639 -31.522  -4.843  1.00 16.09 LIG-0.24  NA
ENDBRANCH 50 51
ENDBRANCH 47 50
ENDBRANCH 44 47
ENDBRANCH 39 43
ENDBRANCH 36 39
ENDBRANCH 34 35
BRANCH 34 56
ATOM     56  CB  GLU B   4     -16.519 -23.786  -7.999  1.00 22.38 LIG 0.04  C 
BRANCH 56 57
ATOM     57  CG  GLU B   4     -16.082 -22.472  -7.377  1.00 27.64 LIG 0.12  C 
BRANCH 57 58
ATOM     58  CD  GLU B   4     -15.642 -22.637  -5.935  1.00 30.78 LIG 0.17  C 
ATOM     59 OE2  GLU B   4     -14.456 -22.955  -5.705  1.00 32.62 LIG-0.65  OA
ATOM     60 OE1  GLU B   4     -16.484 -22.448  -5.032  1.00 32.75 LIG-0.65  OA
ENDBRANCH 57 58
ENDBRANCH 56 57
ENDBRANCH 34 56
ENDBRANCH 3 34
TORSDOF 22
ENDMDL
MODEL 55
USER: ADFR SOLUTION from run 131
USER: SCORE 14.245336 LL:  -4.490 LR: -13.694 RR:   0.000 FEB:  -7.131
USER: RMSD 5.570886
USER: SEED 130
USER: STATUS no improvement in best in 4 clusters for 5 generations
USER: GENES 24
USER: genes 0 Translation |==|  0.40801 0.41317 0.53793
USER: genes 1 Rotation |==|  0.51957 0.35990 0.64918 0.95578
USER: genes 2 Torsion [N]-C--CA-[N] |==|  0.30143
USER: genes 3 Torsion [C]-CA--N-[C] |==|  0.22634
USER: genes 4 Torsion [N]-C--CA-[N] |==|  0.21438
USER: genes 5 Torsion [C]-CA--CB-[CG] |==|  0.36181
USER: genes 6 Torsion [CA]-CB--CG-[CD] |==|  0.84448
USER: genes 7 Torsion [CB]-CG--CD-[NE] |==|  0.36165
USER: genes 8 Torsion [CG]-CD--NE-[CZ] |==|  0.54008
USER: genes 9 Torsion [C]-CA--N-[C] |==|  0.10003
USER: genes 10 Torsion [N]-C--CA-[N] |==|  0.94190
USER: genes 11 Torsion [C]-CA--N-[H2] |==|  0.70119
USER: genes 12 Torsion [C]-N--CA-[C] |==|  0.81129
USER: genes 13 Torsion [N]-CA--C-[N] |==|  0.90143
USER: genes 14 Torsion [C]-N--CA-[CB] |==|  0.46093
USER: genes 15 Torsion [N]-CA--CB-[CG2] |==|  0.90445
USER: genes 16 Torsion [N]-CA--C-[N] |==|  0.87441
USER: genes 17 Torsion [C]-N--CA-[C] |==|  0.17341
USER: genes 18 Torsion [N]-CA--C-[O] |==|  0.65847
USER: genes 19 Torsion [N]-CA--CB-[CG] |==|  0.76872
USER: genes 20 Torsion [CA]-CB--CG-[CD2] |==|  0.82425
USER: genes 21 Torsion [N]-CA--CB-[CG] |==|  0.48891
USER: genes 22 Torsion [CA]-CB--CG-[CD] |==|  0.31094
USER: genes 23 Torsion [CB]-CG--CD-[OE2] |==|  0.70483
ROOT
ATOM      1  C   ALA B   3     -16.792 -30.108  -4.221  1.00 17.17 LIG 0.24  C 
ATOM      2 O    ALA B   3     -16.544 -30.898  -5.133  1.00 18.54 LIG-0.27  OA
ATOM      3  N   GLU B   4     -16.646 -30.419  -2.935  1.00 17.89 LIG-0.35  N 
ATOM      4 H    GLU B   4     -16.816 -29.876  -2.291  1.00 17.89 LIG 0.16  HD
ENDROOT
BRANCH 1 5
ATOM      5  CA  ALA B   3     -17.290 -28.698  -4.535  1.00 15.99 LIG 0.17  C 
ATOM      6  CB  ALA B   3     -18.488 -28.765  -5.477  1.00 16.21 LIG 0.04  C 
BRANCH 5 7
ATOM      7  N   ALA B   3     -16.261 -27.836  -5.104  1.00 13.91 LIG-0.35  N 
ATOM      8  C   ARG B   2     -15.953 -27.884  -6.397  1.00 12.46 LIG 0.24  C 
ATOM      9 O    ARG B   2     -16.514 -28.641  -7.188  1.00 11.56 LIG-0.27  OA
ATOM     10 H    ALA B   3     -15.885 -27.309  -4.539  1.00 13.91 LIG 0.16  HD
BRANCH 8 11
ATOM     11  CA  ARG B   2     -14.848 -26.946  -6.876  1.00 12.24 LIG 0.18  C 
BRANCH 11 12
ATOM     12  CB  ARG B   2     -14.966 -26.741  -8.388  1.00 10.58 LIG 0.04  C 
BRANCH 12 13
ATOM     13  CG  ARG B   2     -14.937 -25.286  -8.836  1.00  9.71 LIG 0.02  C 
BRANCH 13 14
ATOM     14  CD  ARG B   2     -16.027 -24.493  -8.135  1.00  9.44 LIG 0.14  C 
BRANCH 14 15
ATOM     15  NE  ARG B   2     -15.519 -23.260  -7.536  1.00  9.23 LIG-0.23  N 
ATOM     16  CZ  ARG B   2     -16.178 -22.529  -6.646  1.00  9.20 LIG 0.67  C 
ATOM     17  NH1 ARG B   2     -17.386 -22.904  -6.243  1.00  7.63 LIG-0.23  N 
ATOM     18  NH2 ARG B   2     -15.632 -21.424  -6.155  1.00  9.31 LIG-0.23  N 
ATOM     19 1HH1 ARG B   2     -17.741 -23.620  -6.559  1.00  7.63 LIG 0.17  HD
ATOM     20 2HH1 ARG B   2     -17.813 -22.430  -5.666  1.00  7.63 LIG 0.17  HD
ATOM     21 2HH2 ARG B   2     -16.060 -20.952  -5.579  1.00  9.31 LIG 0.17  HD
ATOM     22 1HH2 ARG B   2     -14.849 -21.180  -6.414  1.00  9.31 LIG 0.17  HD
ATOM     23 HE   ARG B   2     -14.739 -22.990  -7.777  1.00  9.23 LIG 0.18  HD
ENDBRANCH 14 15
ENDBRANCH 13 14
ENDBRANCH 12 13
ENDBRANCH 11 12
BRANCH 11 24
ATOM     24  N   ARG B   2     -13.489 -27.369  -6.556  1.00 12.50 LIG-0.35  N 
ATOM     25  C   ALA B   1     -13.103 -28.639  -6.556  1.00 14.33 LIG 0.25  C 
ATOM     26 O    ALA B   1     -13.844 -29.572  -6.862  1.00 14.72 LIG-0.27  OA
ATOM     27 H    ARG B   2     -12.961 -26.718  -6.367  1.00 12.50 LIG 0.16  HD
BRANCH 25 28
ATOM     28  CA  ALA B   1     -11.650 -28.886  -6.163  1.00 14.93 LIG 0.27  C 
ATOM     29  CB  ALA B   1     -11.570 -29.368  -4.719  1.00 16.58 LIG 0.05  C 
BRANCH 28 30
ATOM     30  N   ALA B   1     -10.830 -27.655  -6.338  1.00 16.58 LIG-0.07  N 
ATOM     31 H3   ALA B   1     -11.366 -26.957  -6.469  1.00 16.58 LIG 0.28  HD
ATOM     32 H1   ALA B   1     -10.338 -27.520  -5.609  1.00 16.58 LIG 0.28  HD
ATOM     33 H2   ALA B   1     -10.295 -27.753  -7.043  1.00 16.58 LIG 0.28  HD
ENDBRANCH 28 30
ENDBRANCH 25 28
ENDBRANCH 11 24
ENDBRANCH 8 11
ENDBRANCH 5 7
ENDBRANCH 1 5
BRANCH 3 34
ATOM     34  CA  GLU B   4     -16.176 -31.735  -2.504  1.00 20.15 LIG 0.18  C 
BRANCH 34 35
ATOM     35  C   GLU B   4     -17.211 -32.812  -2.819  1.00 19.92 LIG 0.24  C 
ATOM     36  N   VAL B   5     -18.488 -32.459  -2.705  1.00 19.46 LIG-0.35  N 
ATOM     37 H    VAL B   5     -18.751 -31.675  -2.469  1.00 19.46 LIG 0.16  HD
ATOM     38 O    GLU B   4     -16.858 -33.939  -3.167  1.00 20.03 LIG-0.27  OA
BRANCH 36 39
ATOM     39  CA  VAL B   5     -19.567 -33.403  -2.980  1.00 20.09 LIG 0.18  C 
BRANCH 39 40
ATOM     40  CB  VAL B   5     -20.921 -32.876  -2.447  1.00 20.49 LIG 0.01  C 
ATOM     41  CG2 VAL B   5     -20.708 -32.088  -1.166  1.00 19.70 LIG 0.01  C 
ATOM     42  CG1 VAL B   5     -21.873 -34.035  -2.203  1.00 21.00 LIG 0.01  C 
ENDBRANCH 39 40
BRANCH 39 43
ATOM     43  C   VAL B   5     -19.711 -33.665  -4.477  1.00 20.75 LIG 0.24  C 
ATOM     44  N   HIS B   6     -19.678 -32.600  -5.272  1.00 20.78 LIG-0.35  N 
ATOM     45 H    HIS B   6     -19.594 -31.791  -4.992  1.00 20.78 LIG 0.16  HD
ATOM     46 O    VAL B   5     -19.857 -34.811  -4.902  1.00 21.91 LIG-0.27  OA
BRANCH 44 47
ATOM     47  CA  HIS B   6     -19.785 -32.730  -6.721  1.00 21.28 LIG 0.17  C 
BRANCH 47 48
ATOM     48  C   HIS B   6     -21.136 -33.334  -7.088  1.00 23.03 LIG 0.22  C 
ATOM     49 O    HIS B   6     -21.150 -34.387  -7.761  1.00 25.39 LIG-0.29  OA
ENDBRANCH 47 48
BRANCH 47 50
ATOM     50  CB  HIS B   6     -18.670 -33.623  -7.276  1.00 19.33 LIG 0.09  C 
BRANCH 50 51
ATOM     51  CG  HIS B   6     -17.378 -32.898  -7.501  1.00 17.39 LIG 0.06  A 
ATOM     52  CD2 HIS B   6     -17.061 -31.877  -8.333  1.00 16.59 LIG 0.14  A 
ATOM     53 NE2  HIS B   6     -15.740 -31.570  -8.113  1.00 16.70 LIG-0.25  NA
ATOM     54  CE1 HIS B   6     -15.262 -32.375  -7.181  1.00 16.06 LIG 0.23  A 
ATOM     55 ND1  HIS B   6     -16.231 -33.186  -6.795  1.00 16.09 LIG-0.24  NA
ENDBRANCH 50 51
ENDBRANCH 47 50
ENDBRANCH 44 47
ENDBRANCH 39 43
ENDBRANCH 36 39
ENDBRANCH 34 35
BRANCH 34 56
ATOM     56  CB  GLU B   4     -15.901 -31.731  -0.998  1.00 22.38 LIG 0.04  C 
BRANCH 56 57
ATOM     57  CG  GLU B   4     -15.498 -33.079  -0.427  1.00 27.64 LIG 0.12  C 
BRANCH 57 58
ATOM     58  CD  GLU B   4     -14.054 -33.098   0.037  1.00 30.78 LIG 0.17  C 
ATOM     59 OE2  GLU B   4     -13.213 -33.714  -0.652  1.00 32.62 LIG-0.65  OA
ATOM     60 OE1  GLU B   4     -13.762 -32.496   1.092  1.00 32.75 LIG-0.65  OA
ENDBRANCH 57 58
ENDBRANCH 56 57
ENDBRANCH 34 56
ENDBRANCH 3 34
TORSDOF 22
ENDMDL
MODEL 56
USER: ADFR SOLUTION from run 79
USER: SCORE 18.098668 LL:  -5.177 LR: -13.684 RR:   0.000 FEB:  -7.121
USER: RMSD 6.117168
USER: SEED 78
USER: STATUS no improvement in best in 4 clusters for 5 generations
USER: GENES 24
USER: genes 0 Translation |==|  0.45806 0.49473 0.24041
USER: genes 1 Rotation |==|  0.54545 0.07094 0.59225 0.73522
USER: genes 2 Torsion [N]-C--CA-[N] |==|  0.17216
USER: genes 3 Torsion [C]-CA--N-[C] |==|  0.15125
USER: genes 4 Torsion [N]-C--CA-[N] |==|  0.39481
USER: genes 5 Torsion [C]-CA--CB-[CG] |==|  0.20658
USER: genes 6 Torsion [CA]-CB--CG-[CD] |==|  0.49107
USER: genes 7 Torsion [CB]-CG--CD-[NE] |==|  0.86256
USER: genes 8 Torsion [CG]-CD--NE-[CZ] |==|  0.38450
USER: genes 9 Torsion [C]-CA--N-[C] |==|  0.73333
USER: genes 10 Torsion [N]-C--CA-[N] |==|  0.49954
USER: genes 11 Torsion [C]-CA--N-[H2] |==|  0.85788
USER: genes 12 Torsion [C]-N--CA-[C] |==|  0.17364
USER: genes 13 Torsion [N]-CA--C-[N] |==|  0.07599
USER: genes 14 Torsion [C]-N--CA-[CB] |==|  0.86493
USER: genes 15 Torsion [N]-CA--CB-[CG2] |==|  0.84233
USER: genes 16 Torsion [N]-CA--C-[N] |==|  0.34674
USER: genes 17 Torsion [C]-N--CA-[C] |==|  0.65160
USER: genes 18 Torsion [N]-CA--C-[O] |==|  0.00981
USER: genes 19 Torsion [N]-CA--CB-[CG] |==|  0.73389
USER: genes 20 Torsion [CA]-CB--CG-[CD2] |==|  0.84188
USER: genes 21 Torsion [N]-CA--CB-[CG] |==|  0.71066
USER: genes 22 Torsion [CA]-CB--CG-[CD] |==|  0.16799
USER: genes 23 Torsion [CB]-CG--CD-[OE2] |==|  0.68393
ROOT
ATOM      1  C   ALA B   3     -15.891 -28.212 -10.692  1.00 17.17 LIG 0.24  C 
ATOM      2 O    ALA B   3     -14.723 -28.585 -10.807  1.00 18.54 LIG-0.27  OA
ATOM      3  N   GLU B   4     -16.913 -29.058 -10.593  1.00 17.89 LIG-0.35  N 
ATOM      4 H    GLU B   4     -17.732 -28.810 -10.513  1.00 17.89 LIG 0.16  HD
ENDROOT
BRANCH 1 5
ATOM      5  CA  ALA B   3     -16.226 -26.721 -10.657  1.00 15.99 LIG 0.17  C 
ATOM      6  CB  ALA B   3     -14.969 -25.897 -10.912  1.00 16.21 LIG 0.04  C 
BRANCH 5 7
ATOM      7  N   ALA B   3     -16.849 -26.299  -9.408  1.00 13.91 LIG-0.35  N 
ATOM      8  C   ARG B   2     -16.276 -26.537  -8.232  1.00 12.46 LIG 0.24  C 
ATOM      9 O    ARG B   2     -15.193 -27.112  -8.122  1.00 11.56 LIG-0.27  OA
ATOM     10 H    ALA B   3     -17.601 -25.893  -9.504  1.00 13.91 LIG 0.16  HD
BRANCH 8 11
ATOM     11  CA  ARG B   2     -17.028 -26.063  -6.992  1.00 12.24 LIG 0.18  C 
BRANCH 11 12
ATOM     12  CB  ARG B   2     -16.528 -24.676  -6.585  1.00 10.58 LIG 0.04  C 
BRANCH 12 13
ATOM     13  CG  ARG B   2     -17.007 -23.539  -7.477  1.00  9.71 LIG 0.02  C 
BRANCH 13 14
ATOM     14  CD  ARG B   2     -16.520 -22.203  -6.941  1.00  9.44 LIG 0.14  C 
BRANCH 14 15
ATOM     15  NE  ARG B   2     -16.798 -22.044  -5.514  1.00  9.23 LIG-0.23  N 
ATOM     16  CZ  ARG B   2     -15.950 -21.518  -4.638  1.00  9.20 LIG 0.67  C 
ATOM     17  NH1 ARG B   2     -14.758 -21.096  -5.039  1.00  7.63 LIG-0.23  N 
ATOM     18  NH2 ARG B   2     -16.293 -21.412  -3.361  1.00  9.31 LIG-0.23  N 
ATOM     19 1HH1 ARG B   2     -14.534 -21.163  -5.867  1.00  7.63 LIG 0.17  HD
ATOM     20 2HH1 ARG B   2     -14.209 -20.756  -4.471  1.00  7.63 LIG 0.17  HD
ATOM     21 2HH2 ARG B   2     -15.743 -21.071  -2.795  1.00  9.31 LIG 0.17  HD
ATOM     22 1HH2 ARG B   2     -17.066 -21.684  -3.099  1.00  9.31 LIG 0.17  HD
ATOM     23 HE   ARG B   2     -17.562 -22.309  -5.222  1.00  9.23 LIG 0.18  HD
ENDBRANCH 14 15
ENDBRANCH 13 14
ENDBRANCH 12 13
ENDBRANCH 11 12
BRANCH 11 24
ATOM     24  N   ARG B   2     -16.954 -26.955  -5.839  1.00 12.50 LIG-0.35  N 
ATOM     25  C   ALA B   1     -17.890 -27.852  -5.553  1.00 14.33 LIG 0.25  C 
ATOM     26 O    ALA B   1     -18.884 -28.040  -6.251  1.00 14.72 LIG-0.27  OA
ATOM     27 H    ARG B   2     -16.247 -26.845  -5.363  1.00 12.50 LIG 0.16  HD
BRANCH 25 28
ATOM     28  CA  ALA B   1     -17.652 -28.669  -4.287  1.00 14.93 LIG 0.27  C 
ATOM     29  CB  ALA B   1     -16.320 -29.405  -4.377  1.00 16.58 LIG 0.05  C 
BRANCH 28 30
ATOM     30  N   ALA B   1     -18.759 -29.639  -4.057  1.00 16.58 LIG-0.07  N 
ATOM     31 H3   ALA B   1     -18.733 -30.272  -4.682  1.00 16.58 LIG 0.28  HD
ATOM     32 H1   ALA B   1     -18.665 -30.011  -3.254  1.00 16.58 LIG 0.28  HD
ATOM     33 H2   ALA B   1     -19.539 -29.214  -4.098  1.00 16.58 LIG 0.28  HD
ENDBRANCH 28 30
ENDBRANCH 25 28
ENDBRANCH 11 24
ENDBRANCH 8 11
ENDBRANCH 5 7
ENDBRANCH 1 5
BRANCH 3 34
ATOM     34  CA  GLU B   4     -16.725 -30.507 -10.613  1.00 20.15 LIG 0.18  C 
BRANCH 34 35
ATOM     35  C   GLU B   4     -15.882 -30.963  -9.424  1.00 19.92 LIG 0.24  C 
ATOM     36  N   VAL B   5     -15.932 -30.202  -8.336  1.00 19.46 LIG-0.35  N 
ATOM     37 H    VAL B   5     -16.403 -29.485  -8.271  1.00 19.46 LIG 0.16  HD
ATOM     38 O    GLU B   4     -15.206 -31.990  -9.491  1.00 20.03 LIG-0.27  OA
BRANCH 36 39
ATOM     39  CA  VAL B   5     -15.169 -30.536  -7.136  1.00 20.09 LIG 0.18  C 
BRANCH 39 40
ATOM     40  CB  VAL B   5     -15.365 -32.020  -6.744  1.00 20.49 LIG 0.01  C 
ATOM     41  CG2 VAL B   5     -16.840 -32.318  -6.545  1.00 19.70 LIG 0.01  C 
ATOM     42  CG1 VAL B   5     -14.587 -32.331  -5.476  1.00 21.00 LIG 0.01  C 
ENDBRANCH 39 40
BRANCH 39 43
ATOM     43  C   VAL B   5     -13.677 -30.286  -7.337  1.00 20.75 LIG 0.24  C 
ATOM     44  N   HIS B   6     -13.084 -29.485  -6.456  1.00 20.78 LIG-0.35  N 
ATOM     45 H    HIS B   6     -13.492 -29.100  -5.803  1.00 20.78 LIG 0.16  HD
ATOM     46 O    VAL B   5     -13.075 -30.805  -8.277  1.00 21.91 LIG-0.27  OA
BRANCH 44 47
ATOM     47  CA  HIS B   6     -11.658 -29.191  -6.536  1.00 21.28 LIG 0.17  C 
BRANCH 47 48
ATOM     48  C   HIS B   6     -10.986 -29.522  -5.208  1.00 23.03 LIG 0.22  C 
ATOM     49 O    HIS B   6     -11.682 -30.034  -4.306  1.00 25.39 LIG-0.29  OA
ENDBRANCH 47 48
BRANCH 47 50
ATOM     50  CB  HIS B   6     -11.419 -27.714  -6.865  1.00 19.33 LIG 0.09  C 
BRANCH 50 51
ATOM     51  CG  HIS B   6     -11.202 -27.452  -8.324  1.00 17.39 LIG 0.06  A 
ATOM     52  CD2 HIS B   6     -10.293 -27.950  -9.195  1.00 16.59 LIG 0.14  A 
ATOM     53 NE2  HIS B   6     -10.563 -27.398 -10.424  1.00 16.70 LIG-0.25  NA
ATOM     54  CE1 HIS B   6     -11.599 -26.587 -10.311  1.00 16.06 LIG 0.23  A 
ATOM     55 ND1  HIS B   6     -12.005 -26.602  -9.053  1.00 16.09 LIG-0.24  NA
ENDBRANCH 50 51
ENDBRANCH 47 50
ENDBRANCH 44 47
ENDBRANCH 39 43
ENDBRANCH 36 39
ENDBRANCH 34 35
BRANCH 34 56
ATOM     56  CB  GLU B   4     -16.032 -30.934 -11.910  1.00 22.38 LIG 0.04  C 
BRANCH 56 57
ATOM     57  CG  GLU B   4     -16.948 -31.579 -12.934  1.00 27.64 LIG 0.12  C 
BRANCH 57 58
ATOM     58  CD  GLU B   4     -18.062 -30.648 -13.375  1.00 30.78 LIG 0.17  C 
ATOM     59 OE2  GLU B   4     -19.240 -30.943 -13.078  1.00 32.62 LIG-0.65  OA
ATOM     60 OE1  GLU B   4     -17.758 -29.622 -14.020  1.00 32.75 LIG-0.65  OA
ENDBRANCH 57 58
ENDBRANCH 56 57
ENDBRANCH 34 56
ENDBRANCH 3 34
TORSDOF 22
ENDMDL
MODEL 57
USER: ADFR SOLUTION from run 53
USER: SCORE 18.192310 LL:  -5.512 LR: -13.678 RR:   0.000 FEB:  -7.115
USER: RMSD 5.594707
USER: SEED 52
USER: STATUS no improvement in best in 14 clusters for 5 generations
USER: GENES 24
USER: genes 0 Translation |==|  0.55953 0.46967 0.49731
USER: genes 1 Rotation |==|  0.23064 0.16469 0.75110 0.54430
USER: genes 2 Torsion [N]-C--CA-[N] |==|  0.15826
USER: genes 3 Torsion [C]-CA--N-[C] |==|  0.77458
USER: genes 4 Torsion [N]-C--CA-[N] |==|  0.81406
USER: genes 5 Torsion [C]-CA--CB-[CG] |==|  0.25495
USER: genes 6 Torsion [CA]-CB--CG-[CD] |==|  0.62312
USER: genes 7 Torsion [CB]-CG--CD-[NE] |==|  0.21597
USER: genes 8 Torsion [CG]-CD--NE-[CZ] |==|  0.73169
USER: genes 9 Torsion [C]-CA--N-[C] |==|  0.64029
USER: genes 10 Torsion [N]-C--CA-[N] |==|  0.67559
USER: genes 11 Torsion [C]-CA--N-[H2] |==|  0.93610
USER: genes 12 Torsion [C]-N--CA-[C] |==|  0.81011
USER: genes 13 Torsion [N]-CA--C-[N] |==|  0.39621
USER: genes 14 Torsion [C]-N--CA-[CB] |==|  0.85555
USER: genes 15 Torsion [N]-CA--CB-[CG2] |==|  0.84332
USER: genes 16 Torsion [N]-CA--C-[N] |==|  0.34711
USER: genes 17 Torsion [C]-N--CA-[C] |==|  0.76784
USER: genes 18 Torsion [N]-CA--C-[O] |==|  0.15014
USER: genes 19 Torsion [N]-CA--CB-[CG] |==|  0.08137
USER: genes 20 Torsion [CA]-CB--CG-[CD2] |==|  0.27262
USER: genes 21 Torsion [N]-CA--CB-[CG] |==|  0.96391
USER: genes 22 Torsion [CA]-CB--CG-[CD] |==|  0.75566
USER: genes 23 Torsion [CB]-CG--CD-[OE2] |==|  0.51648
ROOT
ATOM      1  C   ALA B   3     -14.065 -28.794  -5.105  1.00 17.17 LIG 0.24  C 
ATOM      2 O    ALA B   3     -13.751 -28.928  -3.921  1.00 18.54 LIG-0.27  OA
ATOM      3  N   GLU B   4     -15.322 -28.877  -5.532  1.00 17.89 LIG-0.35  N 
ATOM      4 H    GLU B   4     -15.553 -28.786  -6.355  1.00 17.89 LIG 0.16  HD
ENDROOT
BRANCH 1 5
ATOM      5  CA  ALA B   3     -12.995 -28.520  -6.161  1.00 15.99 LIG 0.17  C 
ATOM      6  CB  ALA B   3     -11.618 -28.463  -5.508  1.00 16.21 LIG 0.04  C 
BRANCH 5 7
ATOM      7  N   ALA B   3     -13.233 -27.297  -6.919  1.00 13.91 LIG-0.35  N 
ATOM      8  C   ARG B   2     -14.086 -27.267  -7.939  1.00 12.46 LIG 0.24  C 
ATOM      9 O    ARG B   2     -14.728 -28.253  -8.300  1.00 11.56 LIG-0.27  OA
ATOM     10 H    ALA B   3     -12.781 -26.617  -6.649  1.00 13.91 LIG 0.16  HD
BRANCH 8 11
ATOM     11  CA  ARG B   2     -14.241 -25.936  -8.667  1.00 12.24 LIG 0.18  C 
BRANCH 11 12
ATOM     12  CB  ARG B   2     -12.876 -25.464  -9.176  1.00 10.58 LIG 0.04  C 
BRANCH 12 13
ATOM     13  CG  ARG B   2     -12.538 -25.907 -10.592  1.00  9.71 LIG 0.02  C 
BRANCH 13 14
ATOM     14  CD  ARG B   2     -11.104 -26.408 -10.662  1.00  9.44 LIG 0.14  C 
BRANCH 14 15
ATOM     15  NE  ARG B   2     -10.962 -27.760 -10.124  1.00  9.23 LIG-0.23  N 
ATOM     16  CZ  ARG B   2     -10.573 -28.038  -8.886  1.00  9.20 LIG 0.67  C 
ATOM     17  NH1 ARG B   2     -10.282 -27.054  -8.044  1.00  7.63 LIG-0.23  N 
ATOM     18  NH2 ARG B   2     -10.476 -29.300  -8.486  1.00  9.31 LIG-0.23  N 
ATOM     19 1HH1 ARG B   2     -10.345 -26.236  -8.301  1.00  7.63 LIG 0.17  HD
ATOM     20 2HH1 ARG B   2     -10.030 -27.235  -7.242  1.00  7.63 LIG 0.17  HD
ATOM     21 2HH2 ARG B   2     -10.224 -29.478  -7.683  1.00  9.31 LIG 0.17  HD
ATOM     22 1HH2 ARG B   2     -10.665 -29.938  -9.029  1.00  9.31 LIG 0.17  HD
ATOM     23 HE   ARG B   2     -11.142 -28.419 -10.645  1.00  9.23 LIG 0.18  HD
ENDBRANCH 14 15
ENDBRANCH 13 14
ENDBRANCH 12 13
ENDBRANCH 11 12
BRANCH 11 24
ATOM     24  N   ARG B   2     -14.855 -24.866  -7.888  1.00 12.50 LIG-0.35  N 
ATOM     25  C   ALA B   1     -15.874 -24.138  -8.328  1.00 14.33 LIG 0.25  C 
ATOM     26 O    ALA B   1     -16.417 -24.321  -9.416  1.00 14.72 LIG-0.27  OA
ATOM     27 H    ARG B   2     -14.496 -24.752  -7.115  1.00 12.50 LIG 0.16  HD
BRANCH 25 28
ATOM     28  CA  ALA B   1     -16.358 -23.043  -7.382  1.00 14.93 LIG 0.27  C 
ATOM     29  CB  ALA B   1     -15.441 -22.952  -6.169  1.00 16.58 LIG 0.05  C 
BRANCH 28 30
ATOM     30  N   ALA B   1     -17.761 -23.290  -6.948  1.00 16.58 LIG-0.07  N 
ATOM     31 H3   ALA B   1     -17.759 -23.694  -6.154  1.00 16.58 LIG 0.28  HD
ATOM     32 H1   ALA B   1     -18.193 -22.515  -6.886  1.00 16.58 LIG 0.28  HD
ATOM     33 H2   ALA B   1     -18.169 -23.810  -7.543  1.00 16.58 LIG 0.28  HD
ENDBRANCH 28 30
ENDBRANCH 25 28
ENDBRANCH 11 24
ENDBRANCH 8 11
ENDBRANCH 5 7
ENDBRANCH 1 5
BRANCH 3 34
ATOM     34  CA  GLU B   4     -16.436 -29.135  -4.621  1.00 20.15 LIG 0.18  C 
BRANCH 34 35
ATOM     35  C   GLU B   4     -16.365 -30.555  -4.064  1.00 19.92 LIG 0.24  C 
ATOM     36  N   VAL B   5     -16.728 -30.712  -2.795  1.00 19.46 LIG-0.35  N 
ATOM     37 H    VAL B   5     -16.993 -30.071  -2.287  1.00 19.46 LIG 0.16  HD
ATOM     38 O    GLU B   4     -15.998 -31.491  -4.775  1.00 20.03 LIG-0.27  OA
BRANCH 36 39
ATOM     39  CA  VAL B   5     -16.703 -32.023  -2.152  1.00 20.09 LIG 0.18  C 
BRANCH 39 40
ATOM     40  CB  VAL B   5     -17.472 -33.072  -2.989  1.00 20.49 LIG 0.01  C 
ATOM     41  CG2 VAL B   5     -18.899 -32.608  -3.226  1.00 19.70 LIG 0.01  C 
ATOM     42  CG1 VAL B   5     -17.465 -34.414  -2.277  1.00 21.00 LIG 0.01  C 
ENDBRANCH 39 40
BRANCH 39 43
ATOM     43  C   VAL B   5     -15.273 -32.521  -1.957  1.00 20.75 LIG 0.24  C 
ATOM     44  N   HIS B   6     -14.924 -32.855  -0.717  1.00 20.78 LIG-0.35  N 
ATOM     45 H    HIS B   6     -15.446 -32.794  -0.036  1.00 20.78 LIG 0.16  HD
ATOM     46 O    VAL B   5     -14.499 -32.594  -2.910  1.00 21.91 LIG-0.27  OA
BRANCH 44 47
ATOM     47  CA  HIS B   6     -13.590 -33.363  -0.415  1.00 21.28 LIG 0.17  C 
BRANCH 47 48
ATOM     48  C   HIS B   6     -13.532 -34.861  -0.693  1.00 23.03 LIG 0.22  C 
ATOM     49 O    HIS B   6     -13.876 -35.266  -1.824  1.00 25.39 LIG-0.29  OA
ENDBRANCH 47 48
BRANCH 47 50
ATOM     50  CB  HIS B   6     -13.226 -33.111   1.051  1.00 19.33 LIG 0.09  C 
BRANCH 50 51
ATOM     51  CG  HIS B   6     -14.411 -33.083   1.968  1.00 17.39 LIG 0.06  A 
ATOM     52  CD2 HIS B   6     -14.938 -34.034   2.774  1.00 16.59 LIG 0.14  A 
ATOM     53 NE2  HIS B   6     -16.007 -33.468   3.426  1.00 16.70 LIG-0.25  NA
ATOM     54  CE1 HIS B   6     -16.134 -32.214   3.031  1.00 16.06 LIG 0.23  A 
ATOM     55 ND1  HIS B   6     -15.182 -31.956   2.151  1.00 16.09 LIG-0.24  NA
ENDBRANCH 50 51
ENDBRANCH 47 50
ENDBRANCH 44 47
ENDBRANCH 39 43
ENDBRANCH 36 39
ENDBRANCH 34 35
BRANCH 34 56
ATOM     56  CB  GLU B   4     -17.769 -28.950  -5.350  1.00 22.38 LIG 0.04  C 
BRANCH 56 57
ATOM     57  CG  GLU B   4     -17.662 -28.261  -6.699  1.00 27.64 LIG 0.12  C 
BRANCH 57 58
ATOM     58  CD  GLU B   4     -17.739 -26.751  -6.580  1.00 30.78 LIG 0.17  C 
ATOM     59 OE2  GLU B   4     -17.776 -26.070  -7.628  1.00 32.62 LIG-0.65  OA
ATOM     60 OE1  GLU B   4     -17.762 -26.245  -5.438  1.00 32.75 LIG-0.65  OA
ENDBRANCH 57 58
ENDBRANCH 56 57
ENDBRANCH 34 56
ENDBRANCH 3 34
TORSDOF 22
ENDMDL
MODEL 58
USER: ADFR SOLUTION from run 79
USER: SCORE 16.171760 LL:  -4.607 LR: -13.675 RR:   0.000 FEB:  -7.113
USER: RMSD 8.138841
USER: SEED 78
USER: STATUS no improvement in best in 4 clusters for 5 generations
USER: GENES 24
USER: genes 0 Translation |==|  0.49786 0.48974 0.18831
USER: genes 1 Rotation |==|  0.61925 0.14470 0.62810 0.80517
USER: genes 2 Torsion [N]-C--CA-[N] |==|  0.10949
USER: genes 3 Torsion [C]-CA--N-[C] |==|  0.12652
USER: genes 4 Torsion [N]-C--CA-[N] |==|  0.33300
USER: genes 5 Torsion [C]-CA--CB-[CG] |==|  0.03274
USER: genes 6 Torsion [CA]-CB--CG-[CD] |==|  0.40023
USER: genes 7 Torsion [CB]-CG--CD-[NE] |==|  0.79731
USER: genes 8 Torsion [CG]-CD--NE-[CZ] |==|  0.25030
USER: genes 9 Torsion [C]-CA--N-[C] |==|  0.54475
USER: genes 10 Torsion [N]-C--CA-[N] |==|  0.52157
USER: genes 11 Torsion [C]-CA--N-[H2] |==|  0.04969
USER: genes 12 Torsion [C]-N--CA-[C] |==|  0.16333
USER: genes 13 Torsion [N]-CA--C-[N] |==|  0.10138
USER: genes 14 Torsion [C]-N--CA-[CB] |==|  0.81339
USER: genes 15 Torsion [N]-CA--CB-[CG2] |==|  0.87734
USER: genes 16 Torsion [N]-CA--C-[N] |==|  0.70526
USER: genes 17 Torsion [C]-N--CA-[C] |==|  0.19611
USER: genes 18 Torsion [N]-CA--C-[O] |==|  0.43207
USER: genes 19 Torsion [N]-CA--CB-[CG] |==|  0.74398
USER: genes 20 Torsion [CA]-CB--CG-[CD2] |==|  0.86805
USER: genes 21 Torsion [N]-CA--CB-[CG] |==|  0.77658
USER: genes 22 Torsion [CA]-CB--CG-[CD] |==|  0.13817
USER: genes 23 Torsion [CB]-CG--CD-[OE2] |==|  0.73876
ROOT
ATOM      1  C   ALA B   3     -15.175 -28.328 -11.825  1.00 17.17 LIG 0.24  C 
ATOM      2 O    ALA B   3     -14.094 -28.379 -12.415  1.00 18.54 LIG-0.27  OA
ATOM      3  N   GLU B   4     -15.769 -29.401 -11.311  1.00 17.89 LIG-0.35  N 
ATOM      4 H    GLU B   4     -16.523 -29.378 -10.897  1.00 17.89 LIG 0.16  HD
ENDROOT
BRANCH 1 5
ATOM      5  CA  ALA B   3     -15.898 -26.992 -11.654  1.00 15.99 LIG 0.17  C 
ATOM      6  CB  ALA B   3     -14.930 -25.839 -11.897  1.00 16.21 LIG 0.04  C 
BRANCH 5 7
ATOM      7  N   ALA B   3     -16.528 -26.841 -10.347  1.00 13.91 LIG-0.35  N 
ATOM      8  C   ARG B   2     -15.886 -27.158  -9.226  1.00 12.46 LIG 0.24  C 
ATOM      9 O    ARG B   2     -14.732 -27.585  -9.217  1.00 11.56 LIG-0.27  OA
ATOM     10 H    ALA B   3     -17.331 -26.536 -10.372  1.00 13.91 LIG 0.16  HD
BRANCH 8 11
ATOM     11  CA  ARG B   2     -16.652 -26.974  -7.920  1.00 12.24 LIG 0.18  C 
BRANCH 11 12
ATOM     12  CB  ARG B   2     -15.958 -25.914  -7.061  1.00 10.58 LIG 0.04  C 
BRANCH 12 13
ATOM     13  CG  ARG B   2     -14.886 -25.111  -7.784  1.00  9.71 LIG 0.02  C 
BRANCH 13 14
ATOM     14  CD  ARG B   2     -14.885 -23.671  -7.300  1.00  9.44 LIG 0.14  C 
BRANCH 14 15
ATOM     15  NE  ARG B   2     -16.036 -22.918  -7.796  1.00  9.23 LIG-0.23  N 
ATOM     16  CZ  ARG B   2     -17.202 -22.827  -7.168  1.00  9.20 LIG 0.67  C 
ATOM     17  NH1 ARG B   2     -17.381 -23.445  -6.007  1.00  7.63 LIG-0.23  N 
ATOM     18  NH2 ARG B   2     -18.190 -22.116  -7.697  1.00  9.31 LIG-0.23  N 
ATOM     19 1HH1 ARG B   2     -16.741 -23.905  -5.662  1.00  7.63 LIG 0.17  HD
ATOM     20 2HH1 ARG B   2     -18.136 -23.386  -5.600  1.00  7.63 LIG 0.17  HD
ATOM     21 2HH2 ARG B   2     -18.944 -22.058  -7.288  1.00  9.31 LIG 0.17  HD
ATOM     22 1HH2 ARG B   2     -18.076 -21.714  -8.448  1.00  9.31 LIG 0.17  HD
ATOM     23 HE   ARG B   2     -15.953 -22.507  -8.547  1.00  9.23 LIG 0.18  HD
ENDBRANCH 14 15
ENDBRANCH 13 14
ENDBRANCH 12 13
ENDBRANCH 11 12
BRANCH 11 24
ATOM     24  N   ARG B   2     -16.835 -28.186  -7.128  1.00 12.50 LIG-0.35  N 
ATOM     25  C   ALA B   1     -17.720 -28.284  -6.143  1.00 14.33 LIG 0.25  C 
ATOM     26 O    ALA B   1     -18.492 -27.378  -5.833  1.00 14.72 LIG-0.27  OA
ATOM     27 H    ARG B   2     -16.316 -28.831  -7.359  1.00 12.50 LIG 0.16  HD
BRANCH 25 28
ATOM     28  CA  ALA B   1     -17.742 -29.621  -5.409  1.00 14.93 LIG 0.27  C 
ATOM     29  CB  ALA B   1     -17.817 -30.769  -6.408  1.00 16.58 LIG 0.05  C 
BRANCH 28 30
ATOM     30  N   ALA B   1     -18.885 -29.693  -4.457  1.00 16.58 LIG-0.07  N 
ATOM     31 H3   ALA B   1     -19.261 -30.499  -4.505  1.00 16.58 LIG 0.28  HD
ATOM     32 H1   ALA B   1     -18.591 -29.552  -3.629  1.00 16.58 LIG 0.28  HD
ATOM     33 H2   ALA B   1     -19.486 -29.072  -4.668  1.00 16.58 LIG 0.28  HD
ENDBRANCH 28 30
ENDBRANCH 25 28
ENDBRANCH 11 24
ENDBRANCH 8 11
ENDBRANCH 5 7
ENDBRANCH 1 5
BRANCH 3 34
ATOM     34  CA  GLU B   4     -15.180 -30.735 -11.408  1.00 20.15 LIG 0.18  C 
BRANCH 34 35
ATOM     35  C   GLU B   4     -13.799 -30.769 -10.756  1.00 19.92 LIG 0.24  C 
ATOM     36  N   VAL B   5     -13.642 -30.032  -9.661  1.00 19.46 LIG-0.35  N 
ATOM     37 H    VAL B   5     -14.264 -29.550  -9.312  1.00 19.46 LIG 0.16  HD
ATOM     38 O    GLU B   4     -12.897 -31.458 -11.232  1.00 20.03 LIG-0.27  OA
BRANCH 36 39
ATOM     39  CA  VAL B   5     -12.368 -29.984  -8.950  1.00 20.09 LIG 0.18  C 
BRANCH 39 40
ATOM     40  CB  VAL B   5     -12.037 -31.350  -8.302  1.00 20.49 LIG 0.01  C 
ATOM     41  CG2 VAL B   5     -13.270 -31.919  -7.623  1.00 19.70 LIG 0.01  C 
ATOM     42  CG1 VAL B   5     -10.907 -31.191  -7.300  1.00 21.00 LIG 0.01  C 
ENDBRANCH 39 40
BRANCH 39 43
ATOM     43  C   VAL B   5     -11.222 -29.607  -9.885  1.00 20.75 LIG 0.24  C 
ATOM     44  N   HIS B   6     -10.391 -30.587 -10.232  1.00 20.78 LIG-0.35  N 
ATOM     45 H    HIS B   6     -10.459 -31.398  -9.953  1.00 20.78 LIG 0.16  HD
ATOM     46 O    VAL B   5     -11.088 -28.449 -10.280  1.00 21.91 LIG-0.27  OA
BRANCH 44 47
ATOM     47  CA  HIS B   6      -9.272 -30.349 -11.137  1.00 21.28 LIG 0.17  C 
BRANCH 47 48
ATOM     48  C   HIS B   6      -8.210 -29.509 -10.437  1.00 23.03 LIG 0.22  C 
ATOM     49 O    HIS B   6      -7.031 -29.589 -10.844  1.00 25.39 LIG-0.29  OA
ENDBRANCH 47 48
BRANCH 47 50
ATOM     50  CB  HIS B   6      -9.735 -29.620 -12.402  1.00 19.33 LIG 0.09  C 
BRANCH 50 51
ATOM     51  CG  HIS B   6     -10.103 -30.542 -13.524  1.00 17.39 LIG 0.06  A 
ATOM     52  CD2 HIS B   6      -9.462 -31.614 -14.046  1.00 16.59 LIG 0.14  A 
ATOM     53 NE2  HIS B   6     -10.261 -32.120 -15.043  1.00 16.70 LIG-0.25  NA
ATOM     54  CE1 HIS B   6     -11.353 -31.383 -15.132  1.00 16.06 LIG 0.23  A 
ATOM     55 ND1  HIS B   6     -11.284 -30.424 -14.226  1.00 16.09 LIG-0.24  NA
ENDBRANCH 50 51
ENDBRANCH 47 50
ENDBRANCH 44 47
ENDBRANCH 39 43
ENDBRANCH 36 39
ENDBRANCH 34 35
BRANCH 34 56
ATOM     56  CB  GLU B   4     -15.050 -31.152 -12.875  1.00 22.38 LIG 0.04  C 
BRANCH 56 57
ATOM     57  CG  GLU B   4     -16.331 -31.676 -13.499  1.00 27.64 LIG 0.12  C 
BRANCH 57 58
ATOM     58  CD  GLU B   4     -17.509 -30.753 -13.255  1.00 30.78 LIG 0.17  C 
ATOM     59 OE2  GLU B   4     -18.249 -30.975 -12.273  1.00 32.62 LIG-0.65  OA
ATOM     60 OE1  GLU B   4     -17.694 -29.804 -14.046  1.00 32.75 LIG-0.65  OA
ENDBRANCH 57 58
ENDBRANCH 56 57
ENDBRANCH 34 56
ENDBRANCH 3 34
TORSDOF 22
ENDMDL
MODEL 59
USER: ADFR SOLUTION from run 189
USER: SCORE 17.869740 LL:  -5.019 LR: -13.674 RR:   0.000 FEB:  -7.112
USER: RMSD 3.735567
USER: SEED 188
USER: STATUS no improvement in best in 9 clusters for 5 generations
USER: GENES 24
USER: genes 0 Translation |==|  0.44026 0.39104 0.38681
USER: genes 1 Rotation |==|  0.36674 0.32111 0.66789 0.91479
USER: genes 2 Torsion [N]-C--CA-[N] |==|  0.18354
USER: genes 3 Torsion [C]-CA--N-[C] |==|  0.76787
USER: genes 4 Torsion [N]-C--CA-[N] |==|  0.91390
USER: genes 5 Torsion [C]-CA--CB-[CG] |==|  0.16615
USER: genes 6 Torsion [CA]-CB--CG-[CD] |==|  0.29569
USER: genes 7 Torsion [CB]-CG--CD-[NE] |==|  0.65557
USER: genes 8 Torsion [CG]-CD--NE-[CZ] |==|  0.39353
USER: genes 9 Torsion [C]-CA--N-[C] |==|  0.85526
USER: genes 10 Torsion [N]-C--CA-[N] |==|  0.45471
USER: genes 11 Torsion [C]-CA--N-[H2] |==|  0.37130
USER: genes 12 Torsion [C]-N--CA-[C] |==|  0.79834
USER: genes 13 Torsion [N]-CA--C-[N] |==|  0.92106
USER: genes 14 Torsion [C]-N--CA-[CB] |==|  0.78889
USER: genes 15 Torsion [N]-CA--CB-[CG2] |==|  0.91916
USER: genes 16 Torsion [N]-CA--C-[N] |==|  0.16125
USER: genes 17 Torsion [C]-N--CA-[C] |==|  0.68204
USER: genes 18 Torsion [N]-CA--C-[O] |==|  0.48852
USER: genes 19 Torsion [N]-CA--CB-[CG] |==|  0.81033
USER: genes 20 Torsion [CA]-CB--CG-[CD2] |==|  0.44992
USER: genes 21 Torsion [N]-CA--CB-[CG] |==|  0.96151
USER: genes 22 Torsion [CA]-CB--CG-[CD] |==|  0.23678
USER: genes 23 Torsion [CB]-CG--CD-[OE2] |==|  0.51974
ROOT
ATOM      1  C   ALA B   3     -16.211 -30.622  -7.508  1.00 17.17 LIG 0.24  C 
ATOM      2 O    ALA B   3     -15.797 -31.756  -7.755  1.00 18.54 LIG-0.27  OA
ATOM      3  N   GLU B   4     -16.557 -30.231  -6.284  1.00 17.89 LIG-0.35  N 
ATOM      4 H    GLU B   4     -16.848 -29.443  -6.099  1.00 17.89 LIG 0.16  HD
ENDROOT
BRANCH 1 5
ATOM      5  CA  ALA B   3     -16.350 -29.589  -8.626  1.00 15.99 LIG 0.17  C 
ATOM      6  CB  ALA B   3     -16.141 -30.256  -9.981  1.00 16.21 LIG 0.04  C 
BRANCH 5 7
ATOM      7  N   ALA B   3     -15.438 -28.460  -8.484  1.00 13.91 LIG-0.35  N 
ATOM      8  C   ARG B   2     -15.732 -27.423  -7.705  1.00 12.46 LIG 0.24  C 
ATOM      9 O    ARG B   2     -16.774 -27.354  -7.054  1.00 11.56 LIG-0.27  OA
ATOM     10 H    ALA B   3     -14.713 -28.529  -8.941  1.00 13.91 LIG 0.16  HD
BRANCH 8 11
ATOM     11  CA  ARG B   2     -14.709 -26.294  -7.649  1.00 12.24 LIG 0.18  C 
BRANCH 11 12
ATOM     12  CB  ARG B   2     -15.055 -25.232  -8.695  1.00 10.58 LIG 0.04  C 
BRANCH 12 13
ATOM     13  CG  ARG B   2     -16.427 -24.593  -8.524  1.00  9.71 LIG 0.02  C 
BRANCH 13 14
ATOM     14  CD  ARG B   2     -16.289 -23.176  -7.992  1.00  9.44 LIG 0.14  C 
BRANCH 14 15
ATOM     15  NE  ARG B   2     -17.041 -22.972  -6.756  1.00  9.23 LIG-0.23  N 
ATOM     16  CZ  ARG B   2     -16.620 -22.240  -5.732  1.00  9.20 LIG 0.67  C 
ATOM     17  NH1 ARG B   2     -15.440 -21.634  -5.789  1.00  7.63 LIG-0.23  N 
ATOM     18  NH2 ARG B   2     -17.377 -22.111  -4.649  1.00  9.31 LIG-0.23  N 
ATOM     19 1HH1 ARG B   2     -14.949 -21.716  -6.490  1.00  7.63 LIG 0.17  HD
ATOM     20 2HH1 ARG B   2     -15.168 -21.160  -5.126  1.00  7.63 LIG 0.17  HD
ATOM     21 2HH2 ARG B   2     -17.102 -21.636  -3.987  1.00  9.31 LIG 0.17  HD
ATOM     22 1HH2 ARG B   2     -18.141 -22.502  -4.611  1.00  9.31 LIG 0.17  HD
ATOM     23 HE   ARG B   2     -17.809 -23.353  -6.686  1.00  9.23 LIG 0.18  HD
ENDBRANCH 14 15
ENDBRANCH 13 14
ENDBRANCH 12 13
ENDBRANCH 11 12
BRANCH 11 24
ATOM     24  N   ARG B   2     -13.319 -26.701  -7.824  1.00 12.50 LIG-0.35  N 
ATOM     25  C   ALA B   1     -12.749 -27.666  -7.111  1.00 14.33 LIG 0.25  C 
ATOM     26 O    ALA B   1     -13.349 -28.329  -6.267  1.00 14.72 LIG-0.27  OA
ATOM     27 H    ARG B   2     -12.904 -26.258  -8.432  1.00 12.50 LIG 0.16  HD
BRANCH 25 28
ATOM     28  CA  ALA B   1     -11.277 -27.926  -7.416  1.00 14.93 LIG 0.27  C 
ATOM     29  CB  ALA B   1     -11.134 -28.647  -8.751  1.00 16.58 LIG 0.05  C 
BRANCH 28 30
ATOM     30  N   ALA B   1     -10.636 -28.722  -6.332  1.00 16.58 LIG-0.07  N 
ATOM     31 H3   ALA B   1     -10.104 -28.194  -5.851  1.00 16.58 LIG 0.28  HD
ATOM     32 H1   ALA B   1     -11.266 -29.067  -5.806  1.00 16.58 LIG 0.28  HD
ATOM     33 H2   ALA B   1     -10.156 -29.379  -6.690  1.00 16.58 LIG 0.28  HD
ENDBRANCH 28 30
ENDBRANCH 25 28
ENDBRANCH 11 24
ENDBRANCH 8 11
ENDBRANCH 5 7
ENDBRANCH 1 5
BRANCH 3 34
ATOM     34  CA  GLU B   4     -16.470 -31.123  -5.130  1.00 20.15 LIG 0.18  C 
BRANCH 34 35
ATOM     35  C   GLU B   4     -17.567 -32.185  -5.179  1.00 19.92 LIG 0.24  C 
ATOM     36  N   VAL B   5     -18.690 -31.848  -5.804  1.00 19.46 LIG-0.35  N 
ATOM     37 H    VAL B   5     -18.825 -31.082  -6.173  1.00 19.46 LIG 0.16  HD
ATOM     38 O    GLU B   4     -17.393 -33.291  -4.667  1.00 20.03 LIG-0.27  OA
BRANCH 36 39
ATOM     39  CA  VAL B   5     -19.809 -32.779  -5.916  1.00 20.09 LIG 0.18  C 
BRANCH 39 40
ATOM     40  CB  VAL B   5     -19.532 -33.862  -6.987  1.00 20.49 LIG 0.01  C 
ATOM     41  CG2 VAL B   5     -18.615 -33.309  -8.064  1.00 19.70 LIG 0.01  C 
ATOM     42  CG1 VAL B   5     -20.838 -34.339  -7.597  1.00 21.00 LIG 0.01  C 
ENDBRANCH 39 40
BRANCH 39 43
ATOM     43  C   VAL B   5     -20.087 -33.479  -4.588  1.00 20.75 LIG 0.24  C 
ATOM     44  N   HIS B   6     -20.361 -32.695  -3.549  1.00 20.78 LIG-0.35  N 
ATOM     45 H    HIS B   6     -20.378 -31.835  -3.585  1.00 20.78 LIG 0.16  HD
ATOM     46 O    VAL B   5     -20.046 -34.706  -4.505  1.00 21.91 LIG-0.27  OA
BRANCH 44 47
ATOM     47  CA  HIS B   6     -20.664 -33.253  -2.236  1.00 21.28 LIG 0.17  C 
BRANCH 47 48
ATOM     48  C   HIS B   6     -22.107 -32.939  -1.860  1.00 23.03 LIG 0.22  C 
ATOM     49 O    HIS B   6     -22.557 -33.413  -0.795  1.00 25.39 LIG-0.29  OA
ENDBRANCH 47 48
BRANCH 47 50
ATOM     50  CB  HIS B   6     -19.731 -32.676  -1.167  1.00 19.33 LIG 0.09  C 
BRANCH 50 51
ATOM     51  CG  HIS B   6     -18.306 -33.116  -1.314  1.00 17.39 LIG 0.06  A 
ATOM     52  CD2 HIS B   6     -17.158 -32.608  -0.807  1.00 16.59 LIG 0.14  A 
ATOM     53 NE2  HIS B   6     -16.133 -33.421  -1.227  1.00 16.70 LIG-0.25  NA
ATOM     54  CE1 HIS B   6     -16.633 -34.393  -1.968  1.00 16.06 LIG 0.23  A 
ATOM     55 ND1  HIS B   6     -17.943 -34.232  -2.036  1.00 16.09 LIG-0.24  NA
ENDBRANCH 50 51
ENDBRANCH 47 50
ENDBRANCH 44 47
ENDBRANCH 39 43
ENDBRANCH 36 39
ENDBRANCH 34 35
BRANCH 34 56
ATOM     56  CB  GLU B   4     -16.606 -30.325  -3.831  1.00 22.38 LIG 0.04  C 
BRANCH 56 57
ATOM     57  CG  GLU B   4     -16.463 -28.822  -3.995  1.00 27.64 LIG 0.12  C 
BRANCH 57 58
ATOM     58  CD  GLU B   4     -17.771 -28.159  -4.383  1.00 30.78 LIG 0.17  C 
ATOM     59 OE2  GLU B   4     -17.761 -26.946  -4.680  1.00 32.62 LIG-0.65  OA
ATOM     60 OE1  GLU B   4     -18.810 -28.854  -4.389  1.00 32.75 LIG-0.65  OA
ENDBRANCH 57 58
ENDBRANCH 56 57
ENDBRANCH 34 56
ENDBRANCH 3 34
TORSDOF 22
ENDMDL
MODEL 60
USER: ADFR SOLUTION from run 94
USER: SCORE 17.646086 LL:  -5.117 LR: -13.671 RR:   0.000 FEB:  -7.108
USER: RMSD 5.647196
USER: SEED 93
USER: STATUS no improvement in best in 3 clusters for 5 generations
USER: GENES 24
USER: genes 0 Translation |==|  0.52962 0.47985 0.18375
USER: genes 1 Rotation |==|  0.54790 0.96790 0.52254 0.66812
USER: genes 2 Torsion [N]-C--CA-[N] |==|  0.56650
USER: genes 3 Torsion [C]-CA--N-[C] |==|  0.77356
USER: genes 4 Torsion [N]-C--CA-[N] |==|  0.91474
USER: genes 5 Torsion [C]-CA--CB-[CG] |==|  0.02576
USER: genes 6 Torsion [CA]-CB--CG-[CD] |==|  0.45734
USER: genes 7 Torsion [CB]-CG--CD-[NE] |==|  0.11713
USER: genes 8 Torsion [CG]-CD--NE-[CZ] |==|  0.63994
USER: genes 9 Torsion [C]-CA--N-[C] |==|  0.82800
USER: genes 10 Torsion [N]-C--CA-[N] |==|  0.37837
USER: genes 11 Torsion [C]-CA--N-[H2] |==|  0.98880
USER: genes 12 Torsion [C]-N--CA-[C] |==|  0.13604
USER: genes 13 Torsion [N]-CA--C-[N] |==|  0.13978
USER: genes 14 Torsion [C]-N--CA-[CB] |==|  0.76807
USER: genes 15 Torsion [N]-CA--CB-[CG2] |==|  0.07021
USER: genes 16 Torsion [N]-CA--C-[N] |==|  0.15011
USER: genes 17 Torsion [C]-N--CA-[C] |==|  0.51147
USER: genes 18 Torsion [N]-CA--C-[O] |==|  0.15733
USER: genes 19 Torsion [N]-CA--CB-[CG] |==|  0.24400
USER: genes 20 Torsion [CA]-CB--CG-[CD2] |==|  0.26335
USER: genes 21 Torsion [N]-CA--CB-[CG] |==|  0.62233
USER: genes 22 Torsion [CA]-CB--CG-[CD] |==|  0.38790
USER: genes 23 Torsion [CB]-CG--CD-[OE2] |==|  0.96899
ROOT
ATOM      1  C   ALA B   3     -14.603 -28.558 -11.924  1.00 17.17 LIG 0.24  C 
ATOM      2 O    ALA B   3     -14.597 -29.410 -11.035  1.00 18.54 LIG-0.27  OA
ATOM      3  N   GLU B   4     -14.450 -28.856 -13.212  1.00 17.89 LIG-0.35  N 
ATOM      4 H    GLU B   4     -14.452 -28.270 -13.842  1.00 17.89 LIG 0.16  HD
ENDROOT
BRANCH 1 5
ATOM      5  CA  ALA B   3     -14.791 -27.081 -11.579  1.00 15.99 LIG 0.17  C 
ATOM      6  CB  ALA B   3     -14.008 -26.211 -12.557  1.00 16.21 LIG 0.04  C 
BRANCH 5 7
ATOM      7  N   ALA B   3     -14.406 -26.755 -10.211  1.00 13.91 LIG-0.35  N 
ATOM      8  C   ARG B   2     -15.226 -26.975  -9.187  1.00 12.46 LIG 0.24  C 
ATOM      9 O    ARG B   2     -16.345 -27.468  -9.324  1.00 11.56 LIG-0.27  OA
ATOM     10 H    ALA B   3     -13.619 -26.418 -10.133  1.00 13.91 LIG 0.16  HD
BRANCH 8 11
ATOM     11  CA  ARG B   2     -14.721 -26.579  -7.803  1.00 12.24 LIG 0.18  C 
BRANCH 11 12
ATOM     12  CB  ARG B   2     -15.176 -25.155  -7.476  1.00 10.58 LIG 0.04  C 
BRANCH 12 13
ATOM     13  CG  ARG B   2     -16.178 -24.565  -8.459  1.00  9.71 LIG 0.02  C 
BRANCH 13 14
ATOM     14  CD  ARG B   2     -16.845 -23.336  -7.863  1.00  9.44 LIG 0.14  C 
BRANCH 14 15
ATOM     15  NE  ARG B   2     -15.894 -22.476  -7.160  1.00  9.23 LIG-0.23  N 
ATOM     16  CZ  ARG B   2     -16.067 -22.017  -5.926  1.00  9.20 LIG 0.67  C 
ATOM     17  NH1 ARG B   2     -17.163 -22.333  -5.247  1.00  7.63 LIG-0.23  N 
ATOM     18  NH2 ARG B   2     -15.145 -21.243  -5.369  1.00  9.31 LIG-0.23  N 
ATOM     19 1HH1 ARG B   2     -17.761 -22.836  -5.607  1.00  7.63 LIG 0.17  HD
ATOM     20 2HH1 ARG B   2     -17.275 -22.036  -4.449  1.00  7.63 LIG 0.17  HD
ATOM     21 2HH2 ARG B   2     -15.259 -20.946  -4.569  1.00  9.31 LIG 0.17  HD
ATOM     22 1HH2 ARG B   2     -14.434 -21.038  -5.806  1.00  9.31 LIG 0.17  HD
ATOM     23 HE   ARG B   2     -15.174 -22.252  -7.573  1.00  9.23 LIG 0.18  HD
ENDBRANCH 14 15
ENDBRANCH 13 14
ENDBRANCH 12 13
ENDBRANCH 11 12
BRANCH 11 24
ATOM     24  N   ARG B   2     -13.277 -26.674  -7.616  1.00 12.50 LIG-0.35  N 
ATOM     25  C   ALA B   1     -12.604 -27.814  -7.714  1.00 14.33 LIG 0.25  C 
ATOM     26 O    ALA B   1     -13.128 -28.886  -8.008  1.00 14.72 LIG-0.27  OA
ATOM     27 H    ARG B   2     -12.902 -25.921  -7.437  1.00 12.50 LIG 0.16  HD
BRANCH 25 28
ATOM     28  CA  ALA B   1     -11.104 -27.717  -7.451  1.00 14.93 LIG 0.27  C 
ATOM     29  CB  ALA B   1     -10.338 -27.712  -8.769  1.00 16.58 LIG 0.05  C 
BRANCH 28 30
ATOM     30  N   ALA B   1     -10.636 -28.838  -6.590  1.00 16.58 LIG-0.07  N 
ATOM     31 H3   ALA B   1     -10.066 -29.346  -7.047  1.00 16.58 LIG 0.28  HD
ATOM     32 H1   ALA B   1     -10.229 -28.509  -5.870  1.00 16.58 LIG 0.28  HD
ATOM     33 H2   ALA B   1     -11.333 -29.329  -6.337  1.00 16.58 LIG 0.28  HD
ENDBRANCH 28 30
ENDBRANCH 25 28
ENDBRANCH 11 24
ENDBRANCH 8 11
ENDBRANCH 5 7
ENDBRANCH 1 5
BRANCH 3 34
ATOM     34  CA  GLU B   4     -14.262 -30.231 -13.673  1.00 20.15 LIG 0.18  C 
BRANCH 34 35
ATOM     35  C   GLU B   4     -15.310 -31.158 -13.061  1.00 19.92 LIG 0.24  C 
ATOM     36  N   VAL B   5     -16.576 -30.768 -13.159  1.00 19.46 LIG-0.35  N 
ATOM     37 H    VAL B   5     -16.827 -30.039 -13.541  1.00 19.46 LIG 0.16  HD
ATOM     38 O    GLU B   4     -14.975 -32.211 -12.517  1.00 20.03 LIG-0.27  OA
BRANCH 36 39
ATOM     39  CA  VAL B   5     -17.666 -31.571 -12.612  1.00 20.09 LIG 0.18  C 
BRANCH 39 40
ATOM     40  CB  VAL B   5     -18.092 -32.683 -13.600  1.00 20.49 LIG 0.01  C 
ATOM     41  CG2 VAL B   5     -16.937 -33.037 -14.519  1.00 19.70 LIG 0.01  C 
ATOM     42  CG1 VAL B   5     -19.294 -32.229 -14.411  1.00 21.00 LIG 0.01  C 
ENDBRANCH 39 40
BRANCH 39 43
ATOM     43  C   VAL B   5     -17.267 -32.228 -11.294  1.00 20.75 LIG 0.24  C 
ATOM     44  N   HIS B   6     -16.803 -31.421 -10.343  1.00 20.78 LIG-0.35  N 
ATOM     45 H    HIS B   6     -16.709 -30.571 -10.436  1.00 20.78 LIG 0.16  HD
ATOM     46 O    VAL B   5     -17.369 -33.445 -11.143  1.00 21.91 LIG-0.27  OA
BRANCH 44 47
ATOM     47  CA  HIS B   6     -16.411 -31.934  -9.035  1.00 21.28 LIG 0.17  C 
BRANCH 47 48
ATOM     48  C   HIS B   6     -16.019 -30.779  -8.122  1.00 23.03 LIG 0.22  C 
ATOM     49 O    HIS B   6     -16.855 -29.871  -7.926  1.00 25.39 LIG-0.29  OA
ENDBRANCH 47 48
BRANCH 47 50
ATOM     50  CB  HIS B   6     -15.229 -32.900  -9.157  1.00 19.33 LIG 0.09  C 
BRANCH 50 51
ATOM     51  CG  HIS B   6     -13.893 -32.223  -9.106  1.00 17.39 LIG 0.06  A 
ATOM     52  CD2 HIS B   6     -13.043 -32.003  -8.076  1.00 16.59 LIG 0.14  A 
ATOM     53 NE2  HIS B   6     -11.938 -31.367  -8.589  1.00 16.70 LIG-0.25  NA
ATOM     54  CE1 HIS B   6     -12.105 -31.200  -9.888  1.00 16.06 LIG 0.23  A 
ATOM     55 ND1  HIS B   6     -13.277 -31.708 -10.226  1.00 16.09 LIG-0.24  NA
ENDBRANCH 50 51
ENDBRANCH 47 50
ENDBRANCH 44 47
ENDBRANCH 39 43
ENDBRANCH 36 39
ENDBRANCH 34 35
BRANCH 34 56
ATOM     56  CB  GLU B   4     -12.867 -30.732 -13.290  1.00 22.38 LIG 0.04  C 
BRANCH 56 57
ATOM     57  CG  GLU B   4     -12.143 -31.487 -14.391  1.00 27.64 LIG 0.12  C 
BRANCH 57 58
ATOM     58  CD  GLU B   4     -10.669 -31.135 -14.456  1.00 30.78 LIG 0.17  C 
ATOM     59 OE2  GLU B   4     -10.258 -30.158 -13.793  1.00 32.62 LIG-0.65  OA
ATOM     60 OE1  GLU B   4      -9.922 -31.836 -15.171  1.00 32.75 LIG-0.65  OA
ENDBRANCH 57 58
ENDBRANCH 56 57
ENDBRANCH 34 56
ENDBRANCH 3 34
TORSDOF 22
ENDMDL
MODEL 61
USER: ADFR SOLUTION from run 15
USER: SCORE 15.184421 LL:  -4.498 LR: -13.660 RR:   0.000 FEB:  -7.098
USER: RMSD 8.304069
USER: SEED 310011
USER: STATUS no improvement in best in 13 clusters for 5 generations
USER: GENES 24
USER: genes 0 Translation |==|  0.45971 0.47569 0.32046
USER: genes 1 Rotation |==|  0.41700 0.96065 0.67210 0.53598
USER: genes 2 Torsion [N]-C--CA-[N] |==|  0.47572
USER: genes 3 Torsion [C]-CA--N-[C] |==|  0.55565
USER: genes 4 Torsion [N]-C--CA-[N] |==|  0.71111
USER: genes 5 Torsion [C]-CA--CB-[CG] |==|  0.74966
USER: genes 6 Torsion [CA]-CB--CG-[CD] |==|  0.41277
USER: genes 7 Torsion [CB]-CG--CD-[NE] |==|  0.00588
USER: genes 8 Torsion [CG]-CD--NE-[CZ] |==|  0.45258
USER: genes 9 Torsion [C]-CA--N-[C] |==|  0.06875
USER: genes 10 Torsion [N]-C--CA-[N] |==|  0.13748
USER: genes 11 Torsion [C]-CA--N-[H2] |==|  0.61231
USER: genes 12 Torsion [C]-N--CA-[C] |==|  0.77755
USER: genes 13 Torsion [N]-CA--C-[N] |==|  0.17251
USER: genes 14 Torsion [C]-N--CA-[CB] |==|  0.23823
USER: genes 15 Torsion [N]-CA--CB-[CG2] |==|  0.12564
USER: genes 16 Torsion [N]-CA--C-[N] |==|  0.21160
USER: genes 17 Torsion [C]-N--CA-[C] |==|  0.65923
USER: genes 18 Torsion [N]-CA--C-[O] |==|  0.23042
USER: genes 19 Torsion [N]-CA--CB-[CG] |==|  0.95795
USER: genes 20 Torsion [CA]-CB--CG-[CD2] |==|  0.70796
USER: genes 21 Torsion [N]-CA--CB-[CG] |==|  0.61546
USER: genes 22 Torsion [CA]-CB--CG-[CD] |==|  0.33503
USER: genes 23 Torsion [CB]-CG--CD-[OE2] |==|  0.27184
ROOT
ATOM      1  C   ALA B   3     -15.861 -28.654  -8.951  1.00 17.17 LIG 0.24  C 
ATOM      2 O    ALA B   3     -14.938 -29.421  -8.671  1.00 18.54 LIG-0.27  OA
ATOM      3  N   GLU B   4     -16.258 -28.427 -10.201  1.00 17.89 LIG-0.35  N 
ATOM      4 H    GLU B   4     -16.900 -27.894 -10.408  1.00 17.89 LIG 0.16  HD
ENDROOT
BRANCH 1 5
ATOM      5  CA  ALA B   3     -16.611 -27.911  -7.845  1.00 15.99 LIG 0.17  C 
ATOM      6  CB  ALA B   3     -16.367 -26.411  -7.967  1.00 16.21 LIG 0.04  C 
BRANCH 5 7
ATOM      7  N   ALA B   3     -16.256 -28.363  -6.505  1.00 13.91 LIG-0.35  N 
ATOM      8  C   ARG B   2     -17.052 -28.137  -5.463  1.00 12.46 LIG 0.24  C 
ATOM      9 O    ARG B   2     -18.128 -27.549  -5.563  1.00 11.56 LIG-0.27  OA
ATOM     10 H    ALA B   3     -15.504 -28.777  -6.456  1.00 13.91 LIG 0.16  HD
BRANCH 8 11
ATOM     11  CA  ARG B   2     -16.569 -28.641  -4.107  1.00 12.24 LIG 0.18  C 
BRANCH 11 12
ATOM     12  CB  ARG B   2     -15.057 -28.874  -4.152  1.00 10.58 LIG 0.04  C 
BRANCH 12 13
ATOM     13  CG  ARG B   2     -14.641 -30.275  -4.577  1.00  9.71 LIG 0.02  C 
BRANCH 13 14
ATOM     14  CD  ARG B   2     -13.314 -30.232  -5.318  1.00  9.44 LIG 0.14  C 
BRANCH 14 15
ATOM     15  NE  ARG B   2     -12.761 -28.881  -5.387  1.00  9.23 LIG-0.23  N 
ATOM     16  CZ  ARG B   2     -11.496 -28.601  -5.676  1.00  9.20 LIG 0.67  C 
ATOM     17  NH1 ARG B   2     -10.639 -29.582  -5.926  1.00  7.63 LIG-0.23  N 
ATOM     18  NH2 ARG B   2     -11.086 -27.339  -5.719  1.00  9.31 LIG-0.23  N 
ATOM     19 1HH1 ARG B   2     -10.903 -30.400  -5.900  1.00  7.63 LIG 0.17  HD
ATOM     20 2HH1 ARG B   2      -9.820 -29.401  -6.113  1.00  7.63 LIG 0.17  HD
ATOM     21 2HH2 ARG B   2     -10.267 -27.159  -5.907  1.00  9.31 LIG 0.17  HD
ATOM     22 1HH2 ARG B   2     -11.641 -26.702  -5.558  1.00  9.31 LIG 0.17  HD
ATOM     23 HE   ARG B   2     -13.291 -28.222  -5.229  1.00  9.23 LIG 0.18  HD
ENDBRANCH 14 15
ENDBRANCH 13 14
ENDBRANCH 12 13
ENDBRANCH 11 12
BRANCH 11 24
ATOM     24  N   ARG B   2     -17.224 -29.851  -3.622  1.00 12.50 LIG-0.35  N 
ATOM     25  C   ALA B   1     -17.795 -30.741  -4.425  1.00 14.33 LIG 0.25  C 
ATOM     26 O    ALA B   1     -17.793 -30.646  -5.651  1.00 14.72 LIG-0.27  OA
ATOM     27 H    ARG B   2     -17.205 -29.935  -2.767  1.00 12.50 LIG 0.16  HD
BRANCH 25 28
ATOM     28  CA  ALA B   1     -18.459 -31.925  -3.729  1.00 14.93 LIG 0.27  C 
ATOM     29  CB  ALA B   1     -19.242 -32.757  -4.737  1.00 16.58 LIG 0.05  C 
BRANCH 28 30
ATOM     30  N   ALA B   1     -19.357 -31.469  -2.632  1.00 16.58 LIG-0.07  N 
ATOM     31 H3   ALA B   1     -19.138 -30.640  -2.393  1.00 16.58 LIG 0.28  HD
ATOM     32 H1   ALA B   1     -20.201 -31.483  -2.915  1.00 16.58 LIG 0.28  HD
ATOM     33 H2   ALA B   1     -19.270 -32.011  -1.932  1.00 16.58 LIG 0.28  HD
ENDBRANCH 28 30
ENDBRANCH 25 28
ENDBRANCH 11 24
ENDBRANCH 8 11
ENDBRANCH 5 7
ENDBRANCH 1 5
BRANCH 3 34
ATOM     34  CA  GLU B   4     -15.623 -29.076 -11.346  1.00 20.15 LIG 0.18  C 
BRANCH 34 35
ATOM     35  C   GLU B   4     -14.320 -28.371 -11.718  1.00 19.92 LIG 0.24  C 
ATOM     36  N   VAL B   5     -13.364 -28.369 -10.795  1.00 19.46 LIG-0.35  N 
ATOM     37 H    VAL B   5     -13.441 -28.736 -10.021  1.00 19.46 LIG 0.16  HD
ATOM     38 O    GLU B   4     -14.183 -27.848 -12.824  1.00 20.03 LIG-0.27  OA
BRANCH 36 39
ATOM     39  CA  VAL B   5     -12.074 -27.727 -11.035  1.00 20.09 LIG 0.18  C 
BRANCH 39 40
ATOM     40  CB  VAL B   5     -12.128 -26.219 -10.693  1.00 20.49 LIG 0.01  C 
ATOM     41  CG2 VAL B   5     -12.831 -26.009  -9.363  1.00 19.70 LIG 0.01  C 
ATOM     42  CG1 VAL B   5     -12.844 -25.459 -11.796  1.00 21.00 LIG 0.01  C 
ENDBRANCH 39 40
BRANCH 39 43
ATOM     43  C   VAL B   5     -10.969 -28.369 -10.201  1.00 20.75 LIG 0.24  C 
ATOM     44  N   HIS B   6     -10.514 -29.546 -10.621  1.00 20.78 LIG-0.35  N 
ATOM     45 H    HIS B   6     -10.813 -29.959 -11.314  1.00 20.78 LIG 0.16  HD
ATOM     46 O    VAL B   5     -10.540 -27.811  -9.191  1.00 21.91 LIG-0.27  OA
BRANCH 44 47
ATOM     47  CA  HIS B   6      -9.444 -30.243  -9.915  1.00 21.28 LIG 0.17  C 
BRANCH 47 48
ATOM     48  C   HIS B   6      -8.283 -30.507 -10.867  1.00 23.03 LIG 0.22  C 
ATOM     49 O    HIS B   6      -7.458 -29.589 -11.060  1.00 25.39 LIG-0.29  OA
ENDBRANCH 47 48
BRANCH 47 50
ATOM     50  CB  HIS B   6      -9.939 -31.576  -9.347  1.00 19.33 LIG 0.09  C 
BRANCH 50 51
ATOM     51  CG  HIS B   6     -11.433 -31.699  -9.317  1.00 17.39 LIG 0.06  A 
ATOM     52  CD2 HIS B   6     -12.314 -31.624  -8.292  1.00 16.59 LIG 0.14  A 
ATOM     53 NE2  HIS B   6     -13.572 -31.772  -8.826  1.00 16.70 LIG-0.25  NA
ATOM     54  CE1 HIS B   6     -13.466 -31.933 -10.132  1.00 16.06 LIG 0.23  A 
ATOM     55 ND1  HIS B   6     -12.185 -31.893 -10.455  1.00 16.09 LIG-0.24  NA
ENDBRANCH 50 51
ENDBRANCH 47 50
ENDBRANCH 44 47
ENDBRANCH 39 43
ENDBRANCH 36 39
ENDBRANCH 34 35
BRANCH 34 56
ATOM     56  CB  GLU B   4     -16.564 -29.056 -12.554  1.00 22.38 LIG 0.04  C 
BRANCH 56 57
ATOM     57  CG  GLU B   4     -16.592 -30.346 -13.354  1.00 27.64 LIG 0.12  C 
BRANCH 57 58
ATOM     58  CD  GLU B   4     -17.978 -30.957 -13.411  1.00 30.78 LIG 0.17  C 
ATOM     59 OE2  GLU B   4     -18.683 -30.746 -14.421  1.00 32.62 LIG-0.65  OA
ATOM     60 OE1  GLU B   4     -18.362 -31.649 -12.445  1.00 32.75 LIG-0.65  OA
ENDBRANCH 57 58
ENDBRANCH 56 57
ENDBRANCH 34 56
ENDBRANCH 3 34
TORSDOF 22
ENDMDL
MODEL 62
USER: ADFR SOLUTION from run 48
USER: SCORE 17.155578 LL:  -5.277 LR: -13.650 RR:   0.000 FEB:  -7.088
USER: RMSD 4.806664
USER: SEED 47
USER: STATUS no improvement in best in 5 clusters for 5 generations
USER: GENES 24
USER: genes 0 Translation |==|  0.39764 0.50040 0.22921
USER: genes 1 Rotation |==|  0.68432 0.91041 0.40941 0.69844
USER: genes 2 Torsion [N]-C--CA-[N] |==|  0.56356
USER: genes 3 Torsion [C]-CA--N-[C] |==|  0.16693
USER: genes 4 Torsion [N]-C--CA-[N] |==|  0.59700
USER: genes 5 Torsion [C]-CA--CB-[CG] |==|  0.23743
USER: genes 6 Torsion [CA]-CB--CG-[CD] |==|  0.51246
USER: genes 7 Torsion [CB]-CG--CD-[NE] |==|  0.64044
USER: genes 8 Torsion [CG]-CD--NE-[CZ] |==|  0.30029
USER: genes 9 Torsion [C]-CA--N-[C] |==|  0.72072
USER: genes 10 Torsion [N]-C--CA-[N] |==|  0.13273
USER: genes 11 Torsion [C]-CA--N-[H2] |==|  0.28476
USER: genes 12 Torsion [C]-N--CA-[C] |==|  0.82039
USER: genes 13 Torsion [N]-CA--C-[N] |==|  0.39107
USER: genes 14 Torsion [C]-N--CA-[CB] |==|  0.86456
USER: genes 15 Torsion [N]-CA--CB-[CG2] |==|  0.67466
USER: genes 16 Torsion [N]-CA--C-[N] |==|  0.91550
USER: genes 17 Torsion [C]-N--CA-[C] |==|  0.17132
USER: genes 18 Torsion [N]-CA--C-[O] |==|  0.15991
USER: genes 19 Torsion [N]-CA--CB-[CG] |==|  0.66983
USER: genes 20 Torsion [CA]-CB--CG-[CD2] |==|  0.16584
USER: genes 21 Torsion [N]-CA--CB-[CG] |==|  0.53373
USER: genes 22 Torsion [CA]-CB--CG-[CD] |==|  0.73552
USER: genes 23 Torsion [CB]-CG--CD-[OE2] |==|  0.92718
ROOT
ATOM      1  C   ALA B   3     -16.978 -28.080 -10.936  1.00 17.17 LIG 0.24  C 
ATOM      2 O    ALA B   3     -17.561 -28.471  -9.923  1.00 18.54 LIG-0.27  OA
ATOM      3  N   GLU B   4     -17.019 -28.738 -12.092  1.00 17.89 LIG-0.35  N 
ATOM      4 H    GLU B   4     -16.617 -28.475 -12.805  1.00 17.89 LIG 0.16  HD
ENDROOT
BRANCH 1 5
ATOM      5  CA  ALA B   3     -16.162 -26.788 -10.908  1.00 15.99 LIG 0.17  C 
ATOM      6  CB  ALA B   3     -14.957 -26.911 -11.834  1.00 16.21 LIG 0.04  C 
BRANCH 5 7
ATOM      7  N   ALA B   3     -15.721 -26.413  -9.570  1.00 13.91 LIG-0.35  N 
ATOM      8  C   ARG B   2     -14.941 -27.211  -8.847  1.00 12.46 LIG 0.24  C 
ATOM      9 O    ARG B   2     -14.537 -28.298  -9.258  1.00 11.56 LIG-0.27  OA
ATOM     10 H    ALA B   3     -16.007 -25.648  -9.301  1.00 13.91 LIG 0.16  HD
BRANCH 8 11
ATOM     11  CA  ARG B   2     -14.557 -26.721  -7.454  1.00 12.24 LIG 0.18  C 
BRANCH 11 12
ATOM     12  CB  ARG B   2     -14.712 -25.200  -7.382  1.00 10.58 LIG 0.04  C 
BRANCH 12 13
ATOM     13  CG  ARG B   2     -16.116 -24.719  -7.043  1.00  9.71 LIG 0.02  C 
BRANCH 13 14
ATOM     14  CD  ARG B   2     -16.186 -23.202  -7.105  1.00  9.44 LIG 0.14  C 
BRANCH 14 15
ATOM     15  NE  ARG B   2     -16.779 -22.624  -5.900  1.00  9.23 LIG-0.23  N 
ATOM     16  CZ  ARG B   2     -16.102 -21.954  -4.976  1.00  9.20 LIG 0.67  C 
ATOM     17  NH1 ARG B   2     -14.794 -21.773  -5.113  1.00  7.63 LIG-0.23  N 
ATOM     18  NH2 ARG B   2     -16.730 -21.463  -3.916  1.00  9.31 LIG-0.23  N 
ATOM     19 1HH1 ARG B   2     -14.386 -22.089  -5.800  1.00  7.63 LIG 0.17  HD
ATOM     20 2HH1 ARG B   2     -14.356 -21.339  -4.514  1.00  7.63 LIG 0.17  HD
ATOM     21 2HH2 ARG B   2     -16.290 -21.029  -3.318  1.00  9.31 LIG 0.17  HD
ATOM     22 1HH2 ARG B   2     -17.577 -21.578  -3.826  1.00  9.31 LIG 0.17  HD
ATOM     23 HE   ARG B   2     -17.625 -22.725  -5.782  1.00  9.23 LIG 0.18  HD
ENDBRANCH 14 15
ENDBRANCH 13 14
ENDBRANCH 12 13
ENDBRANCH 11 12
BRANCH 11 24
ATOM     24  N   ARG B   2     -13.215 -27.086  -7.012  1.00 12.50 LIG-0.35  N 
ATOM     25  C   ALA B   1     -12.971 -28.093  -6.183  1.00 14.33 LIG 0.25  C 
ATOM     26 O    ALA B   1     -13.847 -28.834  -5.741  1.00 14.72 LIG-0.27  OA
ATOM     27 H    ARG B   2     -12.596 -26.587  -7.340  1.00 12.50 LIG 0.16  HD
BRANCH 25 28
ATOM     28  CA  ALA B   1     -11.506 -28.298  -5.810  1.00 14.93 LIG 0.27  C 
ATOM     29  CB  ALA B   1     -11.387 -29.314  -4.680  1.00 16.58 LIG 0.05  C 
BRANCH 28 30
ATOM     30  N   ALA B   1     -10.867 -27.013  -5.414  1.00 16.58 LIG-0.07  N 
ATOM     31 H3   ALA B   1     -10.055 -26.960  -5.775  1.00 16.58 LIG 0.28  HD
ATOM     32 H1   ALA B   1     -11.364 -26.333  -5.701  1.00 16.58 LIG 0.28  HD
ATOM     33 H2   ALA B   1     -10.799 -26.976  -4.527  1.00 16.58 LIG 0.28  HD
ENDBRANCH 28 30
ENDBRANCH 25 28
ENDBRANCH 11 24
ENDBRANCH 8 11
ENDBRANCH 5 7
ENDBRANCH 1 5
BRANCH 3 34
ATOM     34  CA  GLU B   4     -17.765 -29.985 -12.249  1.00 20.15 LIG 0.18  C 
BRANCH 34 35
ATOM     35  C   GLU B   4     -17.168 -31.089 -11.379  1.00 19.92 LIG 0.24  C 
ATOM     36  N   VAL B   5     -18.031 -31.905 -10.782  1.00 19.46 LIG-0.35  N 
ATOM     37 H    VAL B   5     -18.886 -31.843 -10.861  1.00 19.46 LIG 0.16  HD
ATOM     38 O    GLU B   4     -15.949 -31.203 -11.258  1.00 20.03 LIG-0.27  OA
BRANCH 36 39
ATOM     39  CA  VAL B   5     -17.580 -32.998  -9.925  1.00 20.09 LIG 0.18  C 
BRANCH 39 40
ATOM     40  CB  VAL B   5     -16.473 -33.829 -10.616  1.00 20.49 LIG 0.01  C 
ATOM     41  CG2 VAL B   5     -16.947 -35.256 -10.831  1.00 19.70 LIG 0.01  C 
ATOM     42  CG1 VAL B   5     -15.208 -33.814  -9.774  1.00 21.00 LIG 0.01  C 
ENDBRANCH 39 40
BRANCH 39 43
ATOM     43  C   VAL B   5     -17.032 -32.477  -8.599  1.00 20.75 LIG 0.24  C 
ATOM     44  N   HIS B   6     -16.464 -31.274  -8.622  1.00 20.78 LIG-0.35  N 
ATOM     45 H    HIS B   6     -16.382 -30.793  -9.331  1.00 20.78 LIG 0.16  HD
ATOM     46 O    VAL B   5     -17.115 -33.155  -7.576  1.00 21.91 LIG-0.27  OA
BRANCH 44 47
ATOM     47  CA  HIS B   6     -15.924 -30.666  -7.411  1.00 21.28 LIG 0.17  C 
BRANCH 47 48
ATOM     48  C   HIS B   6     -14.799 -31.531  -6.855  1.00 23.03 LIG 0.22  C 
ATOM     49 O    HIS B   6     -13.822 -31.777  -7.595  1.00 25.39 LIG-0.29  OA
ENDBRANCH 47 48
BRANCH 47 50
ATOM     50  CB  HIS B   6     -17.011 -30.510  -6.344  1.00 19.33 LIG 0.09  C 
BRANCH 50 51
ATOM     51  CG  HIS B   6     -17.259 -29.088  -5.943  1.00 17.39 LIG 0.06  A 
ATOM     52  CD2 HIS B   6     -17.655 -28.013  -6.666  1.00 16.59 LIG 0.14  A 
ATOM     53 NE2  HIS B   6     -17.761 -26.955  -5.796  1.00 16.70 LIG-0.25  NA
ATOM     54  CE1 HIS B   6     -17.440 -27.365  -4.582  1.00 16.06 LIG 0.23  A 
ATOM     55 ND1  HIS B   6     -17.133 -28.649  -4.643  1.00 16.09 LIG-0.24  NA
ENDBRANCH 50 51
ENDBRANCH 47 50
ENDBRANCH 44 47
ENDBRANCH 39 43
ENDBRANCH 36 39
ENDBRANCH 34 35
BRANCH 34 56
ATOM     56  CB  GLU B   4     -17.742 -30.435 -13.712  1.00 22.38 LIG 0.04  C 
BRANCH 56 57
ATOM     57  CG  GLU B   4     -18.717 -31.550 -14.045  1.00 27.64 LIG 0.12  C 
BRANCH 57 58
ATOM     58  CD  GLU B   4     -18.066 -32.919 -13.986  1.00 30.78 LIG 0.17  C 
ATOM     59 OE2  GLU B   4     -16.835 -33.004 -14.182  1.00 32.62 LIG-0.65  OA
ATOM     60 OE1  GLU B   4     -18.788 -33.909 -13.743  1.00 32.75 LIG-0.65  OA
ENDBRANCH 57 58
ENDBRANCH 56 57
ENDBRANCH 34 56
ENDBRANCH 3 34
TORSDOF 22
ENDMDL
MODEL 63
USER: ADFR SOLUTION from run 77
USER: SCORE 17.559227 LL:  -4.863 LR: -13.653 RR:   0.000 FEB:  -7.090
USER: RMSD 7.442670
USER: SEED 76
USER: STATUS no improvement in best in 5 clusters for 5 generations
USER: GENES 24
USER: genes 0 Translation |==|  0.68246 0.49117 0.24707
USER: genes 1 Rotation |==|  0.83699 0.51930 0.41756 0.85954
USER: genes 2 Torsion [N]-C--CA-[N] |==|  0.92209
USER: genes 3 Torsion [C]-CA--N-[C] |==|  0.84852
USER: genes 4 Torsion [N]-C--CA-[N] |==|  0.91922
USER: genes 5 Torsion [C]-CA--CB-[CG] |==|  0.85040
USER: genes 6 Torsion [CA]-CB--CG-[CD] |==|  0.31744
USER: genes 7 Torsion [CB]-CG--CD-[NE] |==|  0.72144
USER: genes 8 Torsion [CG]-CD--NE-[CZ] |==|  0.30292
USER: genes 9 Torsion [C]-CA--N-[C] |==|  0.77361
USER: genes 10 Torsion [N]-C--CA-[N] |==|  0.98699
USER: genes 11 Torsion [C]-CA--N-[H2] |==|  0.20740
USER: genes 12 Torsion [C]-N--CA-[C] |==|  0.80157
USER: genes 13 Torsion [N]-CA--C-[N] |==|  0.41396
USER: genes 14 Torsion [C]-N--CA-[CB] |==|  0.83885
USER: genes 15 Torsion [N]-CA--CB-[CG2] |==|  0.61586
USER: genes 16 Torsion [N]-CA--C-[N] |==|  0.02101
USER: genes 17 Torsion [C]-N--CA-[C] |==|  0.60180
USER: genes 18 Torsion [N]-CA--C-[O] |==|  0.97884
USER: genes 19 Torsion [N]-CA--CB-[CG] |==|  0.52119
USER: genes 20 Torsion [CA]-CB--CG-[CD2] |==|  0.26288
USER: genes 21 Torsion [N]-CA--CB-[CG] |==|  0.67480
USER: genes 22 Torsion [CA]-CB--CG-[CD] |==|  0.44144
USER: genes 23 Torsion [CB]-CG--CD-[OE2] |==|  0.38992
ROOT
ATOM      1  C   ALA B   3     -11.852 -28.294 -10.547  1.00 17.17 LIG 0.24  C 
ATOM      2 O    ALA B   3     -12.631 -27.499 -11.074  1.00 18.54 LIG-0.27  OA
ATOM      3  N   GLU B   4     -11.580 -29.490 -11.065  1.00 17.89 LIG-0.35  N 
ATOM      4 H    GLU B   4     -11.039 -30.054 -10.706  1.00 17.89 LIG 0.16  HD
ENDROOT
BRANCH 1 5
ATOM      5  CA  ALA B   3     -11.145 -27.933  -9.241  1.00 15.99 LIG 0.17  C 
ATOM      6  CB  ALA B   3      -9.884 -27.127  -9.536  1.00 16.21 LIG 0.04  C 
BRANCH 5 7
ATOM      7  N   ALA B   3     -10.808 -29.095  -8.427  1.00 13.91 LIG-0.35  N 
ATOM      8  C   ARG B   2     -11.732 -29.982  -8.068  1.00 12.46 LIG 0.24  C 
ATOM      9 O    ARG B   2     -12.912 -29.887  -8.402  1.00 11.56 LIG-0.27  OA
ATOM     10 H    ALA B   3      -9.978 -29.149  -8.208  1.00 13.91 LIG 0.16  HD
BRANCH 8 11
ATOM     11  CA  ARG B   2     -11.266 -31.148  -7.202  1.00 12.24 LIG 0.18  C 
BRANCH 11 12
ATOM     12  CB  ARG B   2     -11.492 -30.815  -5.725  1.00 10.58 LIG 0.04  C 
BRANCH 12 13
ATOM     13  CG  ARG B   2     -10.872 -29.503  -5.266  1.00  9.71 LIG 0.02  C 
BRANCH 13 14
ATOM     14  CD  ARG B   2     -11.957 -28.513  -4.874  1.00  9.44 LIG 0.14  C 
BRANCH 14 15
ATOM     15  NE  ARG B   2     -12.222 -27.534  -5.926  1.00  9.23 LIG-0.23  N 
ATOM     16  CZ  ARG B   2     -13.325 -27.505  -6.665  1.00  9.20 LIG 0.67  C 
ATOM     17  NH1 ARG B   2     -14.278 -28.407  -6.471  1.00  7.63 LIG-0.23  N 
ATOM     18  NH2 ARG B   2     -13.476 -26.573  -7.597  1.00  9.31 LIG-0.23  N 
ATOM     19 1HH1 ARG B   2     -14.182 -29.010  -5.867  1.00  7.63 LIG 0.17  HD
ATOM     20 2HH1 ARG B   2     -14.992 -28.387  -6.950  1.00  7.63 LIG 0.17  HD
ATOM     21 2HH2 ARG B   2     -14.191 -26.555  -8.075  1.00  9.31 LIG 0.17  HD
ATOM     22 1HH2 ARG B   2     -12.860 -25.987  -7.724  1.00  9.31 LIG 0.17  HD
ATOM     23 HE   ARG B   2     -11.623 -26.936  -6.078  1.00  9.23 LIG 0.18  HD
ENDBRANCH 14 15
ENDBRANCH 13 14
ENDBRANCH 12 13
ENDBRANCH 11 12
BRANCH 11 24
ATOM     24  N   ARG B   2      -9.877 -31.551  -7.394  1.00 12.50 LIG-0.35  N 
ATOM     25  C   ALA B   1      -9.479 -32.340  -8.384  1.00 14.33 LIG 0.25  C 
ATOM     26 O    ALA B   1     -10.236 -32.773  -9.251  1.00 14.72 LIG-0.27  OA
ATOM     27 H    ARG B   2      -9.340 -31.229  -6.805  1.00 12.50 LIG 0.16  HD
BRANCH 25 28
ATOM     28  CA  ALA B   1      -7.991 -32.678  -8.399  1.00 14.93 LIG 0.27  C 
ATOM     29  CB  ALA B   1      -7.790 -34.179  -8.231  1.00 16.58 LIG 0.05  C 
BRANCH 28 30
ATOM     30  N   ALA B   1      -7.262 -31.940  -7.331  1.00 16.58 LIG-0.07  N 
ATOM     31 H3   ALA B   1      -6.386 -31.981  -7.486  1.00 16.58 LIG 0.28  HD
ATOM     32 H1   ALA B   1      -7.523 -31.089  -7.326  1.00 16.58 LIG 0.28  HD
ATOM     33 H2   ALA B   1      -7.440 -32.308  -6.541  1.00 16.58 LIG 0.28  HD
ENDBRANCH 28 30
ENDBRANCH 25 28
ENDBRANCH 11 24
ENDBRANCH 8 11
ENDBRANCH 5 7
ENDBRANCH 1 5
BRANCH 3 34
ATOM     34  CA  GLU B   4     -12.191 -29.954 -12.309  1.00 20.15 LIG 0.18  C 
BRANCH 34 35
ATOM     35  C   GLU B   4     -13.670 -30.271 -12.104  1.00 19.92 LIG 0.24  C 
ATOM     36  N   VAL B   5     -14.467 -30.083 -13.150  1.00 19.46 LIG-0.35  N 
ATOM     37 H    VAL B   5     -14.198 -29.799 -13.916  1.00 19.46 LIG 0.16  HD
ATOM     38 O    GLU B   4     -14.078 -30.688 -11.020  1.00 20.03 LIG-0.27  OA
BRANCH 36 39
ATOM     39  CA  VAL B   5     -15.901 -30.353 -13.076  1.00 20.09 LIG 0.18  C 
BRANCH 39 40
ATOM     40  CB  VAL B   5     -16.173 -31.822 -12.676  1.00 20.49 LIG 0.01  C 
ATOM     41  CG2 VAL B   5     -17.315 -32.386 -13.504  1.00 19.70 LIG 0.01  C 
ATOM     42  CG1 VAL B   5     -16.503 -31.908 -11.195  1.00 21.00 LIG 0.01  C 
ENDBRANCH 39 40
BRANCH 39 43
ATOM     43  C   VAL B   5     -16.586 -29.444 -12.058  1.00 20.75 LIG 0.24  C 
ATOM     44  N   HIS B   6     -15.843 -28.475 -11.530  1.00 20.78 LIG-0.35  N 
ATOM     45 H    HIS B   6     -15.014 -28.346 -11.720  1.00 20.78 LIG 0.16  HD
ATOM     46 O    VAL B   5     -17.764 -29.623 -11.751  1.00 21.91 LIG-0.27  OA
BRANCH 44 47
ATOM     47  CA  HIS B   6     -16.397 -27.534 -10.564  1.00 21.28 LIG 0.17  C 
BRANCH 47 48
ATOM     48  C   HIS B   6     -15.802 -26.149 -10.790  1.00 23.03 LIG 0.22  C 
ATOM     49 O    HIS B   6     -14.869 -26.034 -11.613  1.00 25.39 LIG-0.29  OA
ENDBRANCH 47 48
BRANCH 47 50
ATOM     50  CB  HIS B   6     -16.098 -27.980  -9.129  1.00 19.33 LIG 0.09  C 
BRANCH 50 51
ATOM     51  CG  HIS B   6     -16.792 -27.157  -8.088  1.00 17.39 LIG 0.06  A 
ATOM     52  CD2 HIS B   6     -17.965 -27.344  -7.439  1.00 16.59 LIG 0.14  A 
ATOM     53 NE2  HIS B   6     -18.112 -26.301  -6.556  1.00 16.70 LIG-0.25  NA
ATOM     54  CE1 HIS B   6     -17.067 -25.501  -6.661  1.00 16.06 LIG 0.23  A 
ATOM     55 ND1  HIS B   6     -16.254 -25.995  -7.579  1.00 16.09 LIG-0.24  NA
ENDBRANCH 50 51
ENDBRANCH 47 50
ENDBRANCH 44 47
ENDBRANCH 39 43
ENDBRANCH 36 39
ENDBRANCH 34 35
BRANCH 34 56
ATOM     56  CB  GLU B   4     -11.475 -31.209 -12.814  1.00 22.38 LIG 0.04  C 
BRANCH 56 57
ATOM     57  CG  GLU B   4     -10.790 -31.048 -14.160  1.00 27.64 LIG 0.12  C 
BRANCH 57 58
ATOM     58  CD  GLU B   4      -9.705 -32.084 -14.380  1.00 30.78 LIG 0.17  C 
ATOM     59 OE2  GLU B   4      -9.583 -32.589 -15.517  1.00 32.62 LIG-0.65  OA
ATOM     60 OE1  GLU B   4      -8.975 -32.394 -13.415  1.00 32.75 LIG-0.65  OA
ENDBRANCH 57 58
ENDBRANCH 56 57
ENDBRANCH 34 56
ENDBRANCH 3 34
TORSDOF 22
ENDMDL
MODEL 64
USER: ADFR SOLUTION from run 48
USER: SCORE 16.800458 LL:  -5.523 LR: -13.639 RR:   0.000 FEB:  -7.076
USER: RMSD 4.397625
USER: SEED 47
USER: STATUS no improvement in best in 5 clusters for 5 generations
USER: GENES 24
USER: genes 0 Translation |==|  0.39885 0.51075 0.23272
USER: genes 1 Rotation |==|  0.65601 0.87878 0.43104 0.77826
USER: genes 2 Torsion [N]-C--CA-[N] |==|  0.64121
USER: genes 3 Torsion [C]-CA--N-[C] |==|  0.16924
USER: genes 4 Torsion [N]-C--CA-[N] |==|  0.55554
USER: genes 5 Torsion [C]-CA--CB-[CG] |==|  0.24032
USER: genes 6 Torsion [CA]-CB--CG-[CD] |==|  0.48607
USER: genes 7 Torsion [CB]-CG--CD-[NE] |==|  0.65864
USER: genes 8 Torsion [CG]-CD--NE-[CZ] |==|  0.38269
USER: genes 9 Torsion [C]-CA--N-[C] |==|  0.73850
USER: genes 10 Torsion [N]-C--CA-[N] |==|  0.12557
USER: genes 11 Torsion [C]-CA--N-[H2] |==|  0.35351
USER: genes 12 Torsion [C]-N--CA-[C] |==|  0.83780
USER: genes 13 Torsion [N]-CA--C-[N] |==|  0.93244
USER: genes 14 Torsion [C]-N--CA-[CB] |==|  0.45694
USER: genes 15 Torsion [N]-CA--CB-[CG2] |==|  0.85059
USER: genes 16 Torsion [N]-CA--C-[N] |==|  0.44398
USER: genes 17 Torsion [C]-N--CA-[C] |==|  0.12353
USER: genes 18 Torsion [N]-CA--C-[O] |==|  0.30342
USER: genes 19 Torsion [N]-CA--CB-[CG] |==|  0.23536
USER: genes 20 Torsion [CA]-CB--CG-[CD2] |==|  0.23837
USER: genes 21 Torsion [N]-CA--CB-[CG] |==|  0.23531
USER: genes 22 Torsion [CA]-CB--CG-[CD] |==|  0.78902
USER: genes 23 Torsion [CB]-CG--CD-[OE2] |==|  0.97916
ROOT
ATOM      1  C   ALA B   3     -16.957 -27.839 -10.859  1.00 17.17 LIG 0.24  C 
ATOM      2 O    ALA B   3     -17.787 -28.222 -10.034  1.00 18.54 LIG-0.27  OA
ATOM      3  N   GLU B   4     -16.541 -28.597 -11.871  1.00 17.89 LIG-0.35  N 
ATOM      4 H    GLU B   4     -15.962 -28.340 -12.453  1.00 17.89 LIG 0.16  HD
ENDROOT
BRANCH 1 5
ATOM      5  CA  ALA B   3     -16.352 -26.439 -10.754  1.00 15.99 LIG 0.17  C 
ATOM      6  CB  ALA B   3     -15.255 -26.264 -11.799  1.00 16.21 LIG 0.04  C 
BRANCH 5 7
ATOM      7  N   ALA B   3     -15.825 -26.137  -9.429  1.00 13.91 LIG-0.35  N 
ATOM      8  C   ARG B   2     -14.842 -26.854  -8.893  1.00 12.46 LIG 0.24  C 
ATOM      9 O    ARG B   2     -14.314 -27.801  -9.475  1.00 11.56 LIG-0.27  OA
ATOM     10 H    ALA B   3     -16.201 -25.468  -9.040  1.00 13.91 LIG 0.16  HD
BRANCH 8 11
ATOM     11  CA  ARG B   2     -14.383 -26.455  -7.494  1.00 12.24 LIG 0.18  C 
BRANCH 11 12
ATOM     12  CB  ARG B   2     -14.438 -24.932  -7.349  1.00 10.58 LIG 0.04  C 
BRANCH 12 13
ATOM     13  CG  ARG B   2     -15.790 -24.383  -6.915  1.00  9.71 LIG 0.02  C 
BRANCH 13 14
ATOM     14  CD  ARG B   2     -15.702 -22.883  -6.682  1.00  9.44 LIG 0.14  C 
BRANCH 14 15
ATOM     15  NE  ARG B   2     -16.108 -22.507  -5.329  1.00  9.23 LIG-0.23  N 
ATOM     16  CZ  ARG B   2     -15.480 -21.612  -4.578  1.00  9.20 LIG 0.67  C 
ATOM     17  NH1 ARG B   2     -14.404 -20.991  -5.045  1.00  7.63 LIG-0.23  N 
ATOM     18  NH2 ARG B   2     -15.926 -21.334  -3.359  1.00  9.31 LIG-0.23  N 
ATOM     19 1HH1 ARG B   2     -14.114 -21.169  -5.834  1.00  7.63 LIG 0.17  HD
ATOM     20 2HH1 ARG B   2     -13.997 -20.411  -4.557  1.00  7.63 LIG 0.17  HD
ATOM     21 2HH2 ARG B   2     -15.518 -20.753  -2.874  1.00  9.31 LIG 0.17  HD
ATOM     22 1HH2 ARG B   2     -16.624 -21.734  -3.056  1.00  9.31 LIG 0.17  HD
ATOM     23 HE   ARG B   2     -16.802 -22.893  -4.997  1.00  9.23 LIG 0.18  HD
ENDBRANCH 14 15
ENDBRANCH 13 14
ENDBRANCH 12 13
ENDBRANCH 11 12
BRANCH 11 24
ATOM     24  N   ARG B   2     -13.054 -26.923  -7.115  1.00 12.50 LIG-0.35  N 
ATOM     25  C   ALA B   1     -12.843 -28.049  -6.445  1.00 14.33 LIG 0.25  C 
ATOM     26 O    ALA B   1     -13.744 -28.819  -6.114  1.00 14.72 LIG-0.27  OA
ATOM     27 H    ARG B   2     -12.420 -26.401  -7.368  1.00 12.50 LIG 0.16  HD
BRANCH 25 28
ATOM     28  CA  ALA B   1     -11.386 -28.354  -6.112  1.00 14.93 LIG 0.27  C 
ATOM     29  CB  ALA B   1     -11.304 -29.487  -5.096  1.00 16.58 LIG 0.05  C 
BRANCH 28 30
ATOM     30  N   ALA B   1     -10.690 -27.145  -5.589  1.00 16.58 LIG-0.07  N 
ATOM     31 H3   ALA B   1     -10.072 -26.882  -6.174  1.00 16.58 LIG 0.28  HD
ATOM     32 H1   ALA B   1     -11.282 -26.491  -5.469  1.00 16.58 LIG 0.28  HD
ATOM     33 H2   ALA B   1     -10.300 -27.339  -4.814  1.00 16.58 LIG 0.28  HD
ENDBRANCH 28 30
ENDBRANCH 25 28
ENDBRANCH 11 24
ENDBRANCH 8 11
ENDBRANCH 5 7
ENDBRANCH 1 5
BRANCH 3 34
ATOM     34  CA  GLU B   4     -17.042 -29.953 -12.082  1.00 20.15 LIG 0.18  C 
BRANCH 34 35
ATOM     35  C   GLU B   4     -16.772 -30.829 -10.861  1.00 19.92 LIG 0.24  C 
ATOM     36  N   VAL B   5     -15.763 -30.461 -10.079  1.00 19.46 LIG-0.35  N 
ATOM     37 H    VAL B   5     -15.269 -29.771 -10.223  1.00 19.46 LIG 0.16  HD
ATOM     38 O    GLU B   4     -17.471 -31.816 -10.629  1.00 20.03 LIG-0.27  OA
BRANCH 36 39
ATOM     39  CA  VAL B   5     -15.408 -31.219  -8.883  1.00 20.09 LIG 0.18  C 
BRANCH 39 40
ATOM     40  CB  VAL B   5     -14.000 -30.832  -8.371  1.00 20.49 LIG 0.01  C 
ATOM     41  CG2 VAL B   5     -12.981 -30.970  -9.488  1.00 19.70 LIG 0.01  C 
ATOM     42  CG1 VAL B   5     -13.614 -31.708  -7.192  1.00 21.00 LIG 0.01  C 
ENDBRANCH 39 40
BRANCH 39 43
ATOM     43  C   VAL B   5     -16.409 -30.982  -7.755  1.00 20.75 LIG 0.24  C 
ATOM     44  N   HIS B   6     -16.445 -31.898  -6.790  1.00 20.78 LIG-0.35  N 
ATOM     45 H    HIS B   6     -15.954 -32.604  -6.777  1.00 20.78 LIG 0.16  HD
ATOM     46 O    VAL B   5     -17.140 -29.993  -7.763  1.00 21.91 LIG-0.27  OA
BRANCH 44 47
ATOM     47  CA  HIS B   6     -17.347 -31.766  -5.651  1.00 21.28 LIG 0.17  C 
BRANCH 47 48
ATOM     48  C   HIS B   6     -18.729 -31.341  -6.132  1.00 23.03 LIG 0.22  C 
ATOM     49 O    HIS B   6     -19.657 -32.176  -6.077  1.00 25.39 LIG-0.29  OA
ENDBRANCH 47 48
BRANCH 47 50
ATOM     50  CB  HIS B   6     -16.823 -30.729  -4.653  1.00 19.33 LIG 0.09  C 
BRANCH 50 51
ATOM     51  CG  HIS B   6     -17.205 -29.321  -4.995  1.00 17.39 LIG 0.06  A 
ATOM     52  CD2 HIS B   6     -18.318 -28.605  -4.710  1.00 16.59 LIG 0.14  A 
ATOM     53 NE2  HIS B   6     -18.136 -27.346  -5.233  1.00 16.70 LIG-0.25  NA
ATOM     54  CE1 HIS B   6     -16.954 -27.294  -5.820  1.00 16.06 LIG 0.23  A 
ATOM     55 ND1  HIS B   6     -16.371 -28.473  -5.690  1.00 16.09 LIG-0.24  NA
ENDBRANCH 50 51
ENDBRANCH 47 50
ENDBRANCH 44 47
ENDBRANCH 39 43
ENDBRANCH 36 39
ENDBRANCH 34 35
BRANCH 34 56
ATOM     56  CB  GLU B   4     -16.372 -30.582 -13.306  1.00 22.38 LIG 0.04  C 
BRANCH 56 57
ATOM     57  CG  GLU B   4     -15.027 -31.229 -13.027  1.00 27.64 LIG 0.12  C 
BRANCH 57 58
ATOM     58  CD  GLU B   4     -13.921 -30.206 -12.858  1.00 30.78 LIG 0.17  C 
ATOM     59 OE2  GLU B   4     -14.174 -29.006 -13.099  1.00 32.62 LIG-0.65  OA
ATOM     60 OE1  GLU B   4     -12.797 -30.603 -12.485  1.00 32.75 LIG-0.65  OA
ENDBRANCH 57 58
ENDBRANCH 56 57
ENDBRANCH 34 56
ENDBRANCH 3 34
TORSDOF 22
ENDMDL
MODEL 65
USER: ADFR SOLUTION from run 50
USER: SCORE 15.187593 LL:  -4.523 LR: -13.641 RR:   0.000 FEB:  -7.078
USER: RMSD 6.378267
USER: SEED 49
USER: STATUS no improvement in best in 29 clusters for 5 generations
USER: GENES 24
USER: genes 0 Translation |==|  0.52493 0.47189 0.18878
USER: genes 1 Rotation |==|  0.64263 0.68328 0.57671 0.93610
USER: genes 2 Torsion [N]-C--CA-[N] |==|  0.64752
USER: genes 3 Torsion [C]-CA--N-[C] |==|  0.16577
USER: genes 4 Torsion [N]-C--CA-[N] |==|  0.45502
USER: genes 5 Torsion [C]-CA--CB-[CG] |==|  0.97680
USER: genes 6 Torsion [CA]-CB--CG-[CD] |==|  0.32903
USER: genes 7 Torsion [CB]-CG--CD-[NE] |==|  0.32574
USER: genes 8 Torsion [CG]-CD--NE-[CZ] |==|  0.77068
USER: genes 9 Torsion [C]-CA--N-[C] |==|  0.50556
USER: genes 10 Torsion [N]-C--CA-[N] |==|  0.49347
USER: genes 11 Torsion [C]-CA--N-[H2] |==|  0.99419
USER: genes 12 Torsion [C]-N--CA-[C] |==|  0.61081
USER: genes 13 Torsion [N]-CA--C-[N] |==|  0.83838
USER: genes 14 Torsion [C]-N--CA-[CB] |==|  0.52269
USER: genes 15 Torsion [N]-CA--CB-[CG2] |==|  0.92872
USER: genes 16 Torsion [N]-CA--C-[N] |==|  0.79350
USER: genes 17 Torsion [C]-N--CA-[C] |==|  0.83465
USER: genes 18 Torsion [N]-CA--C-[O] |==|  0.27487
USER: genes 19 Torsion [N]-CA--CB-[CG] |==|  0.34298
USER: genes 20 Torsion [CA]-CB--CG-[CD2] |==|  0.69899
USER: genes 21 Torsion [N]-CA--CB-[CG] |==|  0.45617
USER: genes 22 Torsion [CA]-CB--CG-[CD] |==|  0.65756
USER: genes 23 Torsion [CB]-CG--CD-[OE2] |==|  0.00316
ROOT
ATOM      1  C   ALA B   3     -14.687 -28.742 -11.815  1.00 17.17 LIG 0.24  C 
ATOM      2 O    ALA B   3     -15.657 -29.377 -12.233  1.00 18.54 LIG-0.27  OA
ATOM      3  N   GLU B   4     -13.448 -29.228 -11.823  1.00 17.89 LIG-0.35  N 
ATOM      4 H    GLU B   4     -12.764 -28.794 -11.534  1.00 17.89 LIG 0.16  HD
ENDROOT
BRANCH 1 5
ATOM      5  CA  ALA B   3     -14.870 -27.333 -11.254  1.00 15.99 LIG 0.17  C 
ATOM      6  CB  ALA B   3     -13.541 -26.804 -10.726  1.00 16.21 LIG 0.04  C 
BRANCH 5 7
ATOM      7  N   ALA B   3     -15.883 -27.256 -10.208  1.00 13.91 LIG-0.35  N 
ATOM      8  C   ARG B   2     -15.777 -27.961  -9.085  1.00 12.46 LIG 0.24  C 
ATOM      9 O    ARG B   2     -14.826 -28.707  -8.855  1.00 11.56 LIG-0.27  OA
ATOM     10 H    ALA B   3     -16.537 -26.725 -10.383  1.00 13.91 LIG 0.16  HD
BRANCH 8 11
ATOM     11  CA  ARG B   2     -16.906 -27.812  -8.070  1.00 12.24 LIG 0.18  C 
BRANCH 11 12
ATOM     12  CB  ARG B   2     -16.816 -26.440  -7.398  1.00 10.58 LIG 0.04  C 
BRANCH 12 13
ATOM     13  CG  ARG B   2     -15.557 -25.651  -7.727  1.00  9.71 LIG 0.02  C 
BRANCH 13 14
ATOM     14  CD  ARG B   2     -15.915 -24.350  -8.427  1.00  9.44 LIG 0.14  C 
BRANCH 14 15
ATOM     15  NE  ARG B   2     -15.513 -23.176  -7.654  1.00  9.23 LIG-0.23  N 
ATOM     16  CZ  ARG B   2     -16.218 -22.655  -6.657  1.00  9.20 LIG 0.67  C 
ATOM     17  NH1 ARG B   2     -17.374 -23.203  -6.304  1.00  7.63 LIG-0.23  N 
ATOM     18  NH2 ARG B   2     -15.768 -21.587  -6.011  1.00  9.31 LIG-0.23  N 
ATOM     19 1HH1 ARG B   2     -17.666 -23.895  -6.721  1.00  7.63 LIG 0.17  HD
ATOM     20 2HH1 ARG B   2     -17.830 -22.865  -5.658  1.00  7.63 LIG 0.17  HD
ATOM     21 2HH2 ARG B   2     -16.226 -21.250  -5.365  1.00  9.31 LIG 0.17  HD
ATOM     22 1HH2 ARG B   2     -15.019 -21.231  -6.237  1.00  9.31 LIG 0.17  HD
ATOM     23 HE   ARG B   2     -14.769 -22.797  -7.859  1.00  9.23 LIG 0.18  HD
ENDBRANCH 14 15
ENDBRANCH 13 14
ENDBRANCH 12 13
ENDBRANCH 11 12
BRANCH 11 24
ATOM     24  N   ARG B   2     -16.961 -28.846  -7.042  1.00 12.50 LIG-0.35  N 
ATOM     25  C   ALA B   1     -17.900 -28.890  -6.104  1.00 14.33 LIG 0.25  C 
ATOM     26 O    ALA B   1     -18.830 -28.088  -6.039  1.00 14.72 LIG-0.27  OA
ATOM     27 H    ARG B   2     -16.327 -29.424  -7.100  1.00 12.50 LIG 0.16  HD
BRANCH 25 28
ATOM     28  CA  ALA B   1     -17.770 -30.028  -5.096  1.00 14.93 LIG 0.27  C 
ATOM     29  CB  ALA B   1     -17.825 -31.373  -5.810  1.00 16.58 LIG 0.05  C 
BRANCH 28 30
ATOM     30  N   ALA B   1     -18.837 -29.953  -4.060  1.00 16.58 LIG-0.07  N 
ATOM     31 H3   ALA B   1     -19.344 -30.683  -4.103  1.00 16.58 LIG 0.28  HD
ATOM     32 H1   ALA B   1     -18.464 -29.897  -3.254  1.00 16.58 LIG 0.28  HD
ATOM     33 H2   ALA B   1     -19.340 -29.234  -4.204  1.00 16.58 LIG 0.28  HD
ENDBRANCH 28 30
ENDBRANCH 25 28
ENDBRANCH 11 24
ENDBRANCH 8 11
ENDBRANCH 5 7
ENDBRANCH 1 5
BRANCH 3 34
ATOM     34  CA  GLU B   4     -13.141 -30.562 -12.334  1.00 20.15 LIG 0.18  C 
BRANCH 34 35
ATOM     35  C   GLU B   4     -12.099 -31.254 -11.457  1.00 19.92 LIG 0.24  C 
ATOM     36  N   VAL B   5     -10.935 -30.629 -11.316  1.00 19.46 LIG-0.35  N 
ATOM     37 H    VAL B   5     -10.745 -29.875 -11.684  1.00 19.46 LIG 0.16  HD
ATOM     38 O    GLU B   4     -12.351 -32.329 -10.913  1.00 20.03 LIG-0.27  OA
BRANCH 36 39
ATOM     39  CA  VAL B   5      -9.861 -31.193 -10.502  1.00 20.09 LIG 0.18  C 
BRANCH 39 40
ATOM     40  CB  VAL B   5      -8.698 -30.186 -10.335  1.00 20.49 LIG 0.01  C 
ATOM     41  CG2 VAL B   5      -8.676 -29.214 -11.502  1.00 19.70 LIG 0.01  C 
ATOM     42  CG1 VAL B   5      -7.376 -30.927 -10.239  1.00 21.00 LIG 0.01  C 
ENDBRANCH 39 40
BRANCH 39 43
ATOM     43  C   VAL B   5     -10.360 -31.582  -9.113  1.00 20.75 LIG 0.24  C 
ATOM     44  N   HIS B   6     -10.593 -30.585  -8.264  1.00 20.78 LIG-0.35  N 
ATOM     45 H    HIS B   6     -10.467 -29.754  -8.449  1.00 20.78 LIG 0.16  HD
ATOM     46 O    VAL B   5     -10.525 -32.764  -8.814  1.00 21.91 LIG-0.27  OA
BRANCH 44 47
ATOM     47  CA  HIS B   6     -11.092 -30.836  -6.916  1.00 21.28 LIG 0.17  C 
BRANCH 47 48
ATOM     48  C   HIS B   6     -12.433 -31.557  -6.987  1.00 23.03 LIG 0.22  C 
ATOM     49 O    HIS B   6     -12.446 -32.797  -6.831  1.00 25.39 LIG-0.29  OA
ENDBRANCH 47 48
BRANCH 47 50
ATOM     50  CB  HIS B   6     -11.267 -29.525  -6.143  1.00 19.33 LIG 0.09  C 
BRANCH 50 51
ATOM     51  CG  HIS B   6     -12.656 -29.318  -5.621  1.00 17.39 LIG 0.06  A 
ATOM     52  CD2 HIS B   6     -13.634 -28.463  -6.002  1.00 16.59 LIG 0.14  A 
ATOM     53 NE2  HIS B   6     -14.728 -28.716  -5.208  1.00 16.70 LIG-0.25  NA
ATOM     54  CE1 HIS B   6     -14.430 -29.690  -4.368  1.00 16.06 LIG 0.23  A 
ATOM     55 ND1  HIS B   6     -13.185 -30.072  -4.596  1.00 16.09 LIG-0.24  NA
ENDBRANCH 50 51
ENDBRANCH 47 50
ENDBRANCH 44 47
ENDBRANCH 39 43
ENDBRANCH 36 39
ENDBRANCH 34 35
BRANCH 34 56
ATOM     56  CB  GLU B   4     -12.607 -30.471 -13.766  1.00 22.38 LIG 0.04  C 
BRANCH 56 57
ATOM     57  CG  GLU B   4     -11.910 -31.726 -14.261  1.00 27.64 LIG 0.12  C 
BRANCH 57 58
ATOM     58  CD  GLU B   4     -10.491 -31.451 -14.720  1.00 30.78 LIG 0.17  C 
ATOM     59 OE2  GLU B   4     -10.048 -30.286 -14.629  1.00 32.62 LIG-0.65  OA
ATOM     60 OE1  GLU B   4      -9.818 -32.403 -15.171  1.00 32.75 LIG-0.65  OA
ENDBRANCH 57 58
ENDBRANCH 56 57
ENDBRANCH 34 56
ENDBRANCH 3 34
TORSDOF 22
ENDMDL
MODEL 66
USER: ADFR SOLUTION from run 139
USER: SCORE 17.028001 LL:  -4.376 LR: -13.631 RR:   0.000 FEB:  -7.069
USER: RMSD 9.362067
USER: SEED 138
USER: STATUS no improvement in best in 14 clusters for 5 generations
USER: GENES 24
USER: genes 0 Translation |==|  0.39182 0.49375 0.48180
USER: genes 1 Rotation |==|  0.95375 0.66066 0.55575 0.62324
USER: genes 2 Torsion [N]-C--CA-[N] |==|  0.99156
USER: genes 3 Torsion [C]-CA--N-[C] |==|  0.77591
USER: genes 4 Torsion [N]-C--CA-[N] |==|  0.87667
USER: genes 5 Torsion [C]-CA--CB-[CG] |==|  0.37131
USER: genes 6 Torsion [CA]-CB--CG-[CD] |==|  0.04817
USER: genes 7 Torsion [CB]-CG--CD-[NE] |==|  0.28221
USER: genes 8 Torsion [CG]-CD--NE-[CZ] |==|  0.20607
USER: genes 9 Torsion [C]-CA--N-[C] |==|  0.74983
USER: genes 10 Torsion [N]-C--CA-[N] |==|  0.03899
USER: genes 11 Torsion [C]-CA--N-[H2] |==|  0.07244
USER: genes 12 Torsion [C]-N--CA-[C] |==|  0.55813
USER: genes 13 Torsion [N]-CA--C-[N] |==|  0.52429
USER: genes 14 Torsion [C]-N--CA-[CB] |==|  0.76666
USER: genes 15 Torsion [N]-CA--CB-[CG2] |==|  0.50958
USER: genes 16 Torsion [N]-CA--C-[N] |==|  0.19515
USER: genes 17 Torsion [C]-N--CA-[C] |==|  0.78764
USER: genes 18 Torsion [N]-CA--C-[O] |==|  0.11745
USER: genes 19 Torsion [N]-CA--CB-[CG] |==|  0.27035
USER: genes 20 Torsion [CA]-CB--CG-[CD2] |==|  0.25754
USER: genes 21 Torsion [N]-CA--CB-[CG] |==|  0.26388
USER: genes 22 Torsion [CA]-CB--CG-[CD] |==|  0.79049
USER: genes 23 Torsion [CB]-CG--CD-[OE2] |==|  0.70057
ROOT
ATOM      1  C   ALA B   3     -17.083 -28.234  -5.442  1.00 17.17 LIG 0.24  C 
ATOM      2 O    ALA B   3     -18.270 -27.971  -5.242  1.00 18.54 LIG-0.27  OA
ATOM      3  N   GLU B   4     -16.459 -27.935  -6.578  1.00 17.89 LIG-0.35  N 
ATOM      4 H    GLU B   4     -15.631 -28.114  -6.729  1.00 17.89 LIG 0.16  HD
ENDROOT
BRANCH 1 5
ATOM      5  CA  ALA B   3     -16.255 -28.935  -4.365  1.00 15.99 LIG 0.17  C 
ATOM      6  CB  ALA B   3     -16.226 -28.090  -3.096  1.00 16.21 LIG 0.04  C 
BRANCH 5 7
ATOM      7  N   ALA B   3     -14.893 -29.235  -4.790  1.00 13.91 LIG-0.35  N 
ATOM      8  C   ARG B   2     -14.617 -30.296  -5.542  1.00 12.46 LIG 0.24  C 
ATOM      9 O    ARG B   2     -15.483 -31.079  -5.932  1.00 11.56 LIG-0.27  OA
ATOM     10 H    ALA B   3     -14.302 -28.674  -4.514  1.00 13.91 LIG 0.16  HD
BRANCH 8 11
ATOM     11  CA  ARG B   2     -13.154 -30.517  -5.910  1.00 12.24 LIG 0.18  C 
BRANCH 11 12
ATOM     12  CB  ARG B   2     -12.415 -31.152  -4.730  1.00 10.58 LIG 0.04  C 
BRANCH 12 13
ATOM     13  CG  ARG B   2     -11.525 -32.331  -5.096  1.00  9.71 LIG 0.02  C 
BRANCH 13 14
ATOM     14  CD  ARG B   2     -11.245 -32.340  -6.590  1.00  9.44 LIG 0.14  C 
BRANCH 14 15
ATOM     15  NE  ARG B   2      -9.918 -31.818  -6.909  1.00  9.23 LIG-0.23  N 
ATOM     16  CZ  ARG B   2      -8.782 -32.474  -6.702  1.00  9.20 LIG 0.67  C 
ATOM     17  NH1 ARG B   2      -8.805 -33.689  -6.170  1.00  7.63 LIG-0.23  N 
ATOM     18  NH2 ARG B   2      -7.623 -31.917  -7.027  1.00  9.31 LIG-0.23  N 
ATOM     19 1HH1 ARG B   2      -9.556 -34.052  -5.959  1.00  7.63 LIG 0.17  HD
ATOM     20 2HH1 ARG B   2      -8.070 -34.114  -6.035  1.00  7.63 LIG 0.17  HD
ATOM     21 2HH2 ARG B   2      -6.888 -32.343  -6.893  1.00  9.31 LIG 0.17  HD
ATOM     22 1HH2 ARG B   2      -7.606 -31.130  -7.373  1.00  9.31 LIG 0.17  HD
ATOM     23 HE   ARG B   2      -9.868 -31.032  -7.254  1.00  9.23 LIG 0.18  HD
ENDBRANCH 14 15
ENDBRANCH 13 14
ENDBRANCH 12 13
ENDBRANCH 11 12
BRANCH 11 24
ATOM     24  N   ARG B   2     -12.431 -29.324  -6.340  1.00 12.50 LIG-0.35  N 
ATOM     25  C   ALA B   1     -12.365 -28.930  -7.606  1.00 14.33 LIG 0.25  C 
ATOM     26 O    ALA B   1     -12.936 -29.511  -8.526  1.00 14.72 LIG-0.27  OA
ATOM     27 H    ARG B   2     -12.053 -28.899  -5.695  1.00 12.50 LIG 0.16  HD
BRANCH 25 28
ATOM     28  CA  ALA B   1     -11.535 -27.676  -7.862  1.00 14.93 LIG 0.27  C 
ATOM     29  CB  ALA B   1     -10.659 -27.867  -9.094  1.00 16.58 LIG 0.05  C 
BRANCH 28 30
ATOM     30  N   ALA B   1     -10.692 -27.339  -6.681  1.00 16.58 LIG-0.07  N 
ATOM     31 H3   ALA B   1      -9.924 -26.984  -6.956  1.00 16.58 LIG 0.28  HD
ATOM     32 H1   ALA B   1     -11.122 -26.754  -6.167  1.00 16.58 LIG 0.28  HD
ATOM     33 H2   ALA B   1     -10.526 -28.078  -6.214  1.00 16.58 LIG 0.28  HD
ENDBRANCH 28 30
ENDBRANCH 25 28
ENDBRANCH 11 24
ENDBRANCH 8 11
ENDBRANCH 5 7
ENDBRANCH 1 5
BRANCH 3 34
ATOM     34  CA  GLU B   4     -17.139 -27.265  -7.684  1.00 20.15 LIG 0.18  C 
BRANCH 34 35
ATOM     35  C   GLU B   4     -16.399 -27.497  -9.000  1.00 19.92 LIG 0.24  C 
ATOM     36  N   VAL B   5     -16.816 -26.794 -10.047  1.00 19.46 LIG-0.35  N 
ATOM     37 H    VAL B   5     -17.465 -26.229 -10.020  1.00 19.46 LIG 0.16  HD
ATOM     38 O    GLU B   4     -15.462 -28.294  -9.060  1.00 20.03 LIG-0.27  OA
BRANCH 36 39
ATOM     39  CA  VAL B   5     -16.186 -26.930 -11.357  1.00 20.09 LIG 0.18  C 
BRANCH 39 40
ATOM     40  CB  VAL B   5     -14.926 -26.039 -11.468  1.00 20.49 LIG 0.01  C 
ATOM     41  CG2 VAL B   5     -14.340 -26.134 -12.866  1.00 19.70 LIG 0.01  C 
ATOM     42  CG1 VAL B   5     -13.897 -26.459 -10.433  1.00 21.00 LIG 0.01  C 
ENDBRANCH 39 40
BRANCH 39 43
ATOM     43  C   VAL B   5     -15.776 -28.375 -11.631  1.00 20.75 LIG 0.24  C 
ATOM     44  N   HIS B   6     -16.762 -29.243 -11.839  1.00 20.78 LIG-0.35  N 
ATOM     45 H    HIS B   6     -17.598 -29.039 -11.816  1.00 20.78 LIG 0.16  HD
ATOM     46 O    VAL B   5     -14.589 -28.698 -11.646  1.00 21.91 LIG-0.27  OA
BRANCH 44 47
ATOM     47  CA  HIS B   6     -16.490 -30.646 -12.131  1.00 21.28 LIG 0.17  C 
BRANCH 47 48
ATOM     48  C   HIS B   6     -16.031 -30.794 -13.577  1.00 23.03 LIG 0.22  C 
ATOM     49 O    HIS B   6     -15.223 -29.955 -14.029  1.00 25.39 LIG-0.29  OA
ENDBRANCH 47 48
BRANCH 47 50
ATOM     50  CB  HIS B   6     -17.739 -31.505 -11.911  1.00 19.33 LIG 0.09  C 
BRANCH 50 51
ATOM     51  CG  HIS B   6     -18.503 -31.785 -13.169  1.00 17.39 LIG 0.06  A 
ATOM     52  CD2 HIS B   6     -18.438 -32.819 -14.041  1.00 16.59 LIG 0.14  A 
ATOM     53 NE2  HIS B   6     -19.389 -32.596 -15.008  1.00 16.70 LIG-0.25  NA
ATOM     54  CE1 HIS B   6     -20.014 -31.464 -14.740  1.00 16.06 LIG 0.23  A 
ATOM     55 ND1  HIS B   6     -19.499 -30.954 -13.635  1.00 16.09 LIG-0.24  NA
ENDBRANCH 50 51
ENDBRANCH 47 50
ENDBRANCH 44 47
ENDBRANCH 39 43
ENDBRANCH 36 39
ENDBRANCH 34 35
BRANCH 34 56
ATOM     56  CB  GLU B   4     -17.226 -25.760  -7.419  1.00 22.38 LIG 0.04  C 
BRANCH 56 57
ATOM     57  CG  GLU B   4     -16.111 -24.942  -8.047  1.00 27.64 LIG 0.12  C 
BRANCH 57 58
ATOM     58  CD  GLU B   4     -14.801 -25.083  -7.296  1.00 30.78 LIG 0.17  C 
ATOM     59 OE2  GLU B   4     -14.395 -24.117  -6.616  1.00 32.62 LIG-0.65  OA
ATOM     60 OE1  GLU B   4     -14.178 -26.162  -7.387  1.00 32.75 LIG-0.65  OA
ENDBRANCH 57 58
ENDBRANCH 56 57
ENDBRANCH 34 56
ENDBRANCH 3 34
TORSDOF 22
ENDMDL
MODEL 67
USER: ADFR SOLUTION from run 54
USER: SCORE 15.842981 LL:  -3.989 LR: -13.617 RR:   0.000 FEB:  -7.055
USER: RMSD 8.588829
USER: SEED 53
USER: STATUS no improvement in best in 16 clusters for 5 generations
USER: GENES 24
USER: genes 0 Translation |==|  0.67602 0.48171 0.40863
USER: genes 1 Rotation |==|  0.98821 0.46107 0.58675 0.55110
USER: genes 2 Torsion [N]-C--CA-[N] |==|  0.51374
USER: genes 3 Torsion [C]-CA--N-[C] |==|  0.56340
USER: genes 4 Torsion [N]-C--CA-[N] |==|  0.06352
USER: genes 5 Torsion [C]-CA--CB-[CG] |==|  0.37704
USER: genes 6 Torsion [CA]-CB--CG-[CD] |==|  0.22386
USER: genes 7 Torsion [CB]-CG--CD-[NE] |==|  0.11462
USER: genes 8 Torsion [CG]-CD--NE-[CZ] |==|  0.53160
USER: genes 9 Torsion [C]-CA--N-[C] |==|  0.69184
USER: genes 10 Torsion [N]-C--CA-[N] |==|  0.25554
USER: genes 11 Torsion [C]-CA--N-[H2] |==|  0.70309
USER: genes 12 Torsion [C]-N--CA-[C] |==|  0.84443
USER: genes 13 Torsion [N]-CA--C-[N] |==|  0.91513
USER: genes 14 Torsion [C]-N--CA-[CB] |==|  0.51111
USER: genes 15 Torsion [N]-CA--CB-[CG2] |==|  0.81054
USER: genes 16 Torsion [N]-CA--C-[N] |==|  0.92143
USER: genes 17 Torsion [C]-N--CA-[C] |==|  0.16546
USER: genes 18 Torsion [N]-CA--C-[O] |==|  0.14136
USER: genes 19 Torsion [N]-CA--CB-[CG] |==|  0.53585
USER: genes 20 Torsion [CA]-CB--CG-[CD2] |==|  0.76908
USER: genes 21 Torsion [N]-CA--CB-[CG] |==|  0.23031
USER: genes 22 Torsion [CA]-CB--CG-[CD] |==|  0.67985
USER: genes 23 Torsion [CB]-CG--CD-[OE2] |==|  0.79044
ROOT
ATOM      1  C   ALA B   3     -11.968 -28.514  -7.033  1.00 17.17 LIG 0.24  C 
ATOM      2 O    ALA B   3     -12.744 -27.593  -6.773  1.00 18.54 LIG-0.27  OA
ATOM      3  N   GLU B   4     -10.955 -28.386  -7.888  1.00 17.89 LIG-0.35  N 
ATOM      4 H    GLU B   4     -10.408 -29.022  -8.077  1.00 17.89 LIG 0.16  HD
ENDROOT
BRANCH 1 5
ATOM      5  CA  ALA B   3     -12.138 -29.879  -6.368  1.00 15.99 LIG 0.17  C 
ATOM      6  CB  ALA B   3     -12.160 -30.977  -7.427  1.00 16.21 LIG 0.04  C 
BRANCH 5 7
ATOM      7  N   ALA B   3     -13.333 -29.971  -5.537  1.00 13.91 LIG-0.35  N 
ATOM      8  C   ARG B   2     -13.429 -30.863  -4.555  1.00 12.46 LIG 0.24  C 
ATOM      9 O    ARG B   2     -12.525 -31.651  -4.281  1.00 11.56 LIG-0.27  OA
ATOM     10 H    ALA B   3     -13.951 -29.408  -5.739  1.00 13.91 LIG 0.16  HD
BRANCH 8 11
ATOM     11  CA  ARG B   2     -14.733 -30.876  -3.764  1.00 12.24 LIG 0.18  C 
BRANCH 11 12
ATOM     12  CB  ARG B   2     -15.056 -32.307  -3.327  1.00 10.58 LIG 0.04  C 
BRANCH 12 13
ATOM     13  CG  ARG B   2     -15.521 -32.442  -1.884  1.00  9.71 LIG 0.02  C 
BRANCH 13 14
ATOM     14  CD  ARG B   2     -16.993 -32.084  -1.765  1.00  9.44 LIG 0.14  C 
BRANCH 14 15
ATOM     15  NE  ARG B   2     -17.785 -32.618  -2.871  1.00  9.23 LIG-0.23  N 
ATOM     16  CZ  ARG B   2     -19.042 -32.278  -3.128  1.00  9.20 LIG 0.67  C 
ATOM     17  NH1 ARG B   2     -19.663 -31.396  -2.354  1.00  7.63 LIG-0.23  N 
ATOM     18  NH2 ARG B   2     -19.680 -32.816  -4.160  1.00  9.31 LIG-0.23  N 
ATOM     19 1HH1 ARG B   2     -19.251 -31.046  -1.686  1.00  7.63 LIG 0.17  HD
ATOM     20 2HH1 ARG B   2     -20.477 -31.176  -2.521  1.00  7.63 LIG 0.17  HD
ATOM     21 2HH2 ARG B   2     -20.494 -32.594  -4.325  1.00  9.31 LIG 0.17  HD
ATOM     22 1HH2 ARG B   2     -19.279 -33.386  -4.663  1.00  9.31 LIG 0.17  HD
ATOM     23 HE   ARG B   2     -17.412 -33.193  -3.390  1.00  9.23 LIG 0.18  HD
ENDBRANCH 14 15
ENDBRANCH 13 14
ENDBRANCH 12 13
ENDBRANCH 11 12
BRANCH 11 24
ATOM     24  N   ARG B   2     -15.889 -30.315  -4.456  1.00 12.50 LIG-0.35  N 
ATOM     25  C   ALA B   1     -16.467 -29.174  -4.099  1.00 14.33 LIG 0.25  C 
ATOM     26 O    ALA B   1     -16.061 -28.468  -3.177  1.00 14.72 LIG-0.27  OA
ATOM     27 H    ARG B   2     -16.160 -30.792  -5.117  1.00 12.50 LIG 0.16  HD
BRANCH 25 28
ATOM     28  CA  ALA B   1     -17.684 -28.768  -4.923  1.00 14.93 LIG 0.27  C 
ATOM     29  CB  ALA B   1     -17.745 -27.251  -5.061  1.00 16.58 LIG 0.05  C 
BRANCH 28 30
ATOM     30  N   ALA B   1     -18.943 -29.277  -4.311  1.00 16.58 LIG-0.07  N 
ATOM     31 H3   ALA B   1     -18.777 -29.561  -3.483  1.00 16.58 LIG 0.28  HD
ATOM     32 H1   ALA B   1     -19.546 -28.624  -4.285  1.00 16.58 LIG 0.28  HD
ATOM     33 H2   ALA B   1     -19.258 -29.952  -4.797  1.00 16.58 LIG 0.28  HD
ENDBRANCH 28 30
ENDBRANCH 25 28
ENDBRANCH 11 24
ENDBRANCH 8 11
ENDBRANCH 5 7
ENDBRANCH 1 5
BRANCH 3 34
ATOM     34  CA  GLU B   4     -10.685 -27.132  -8.588  1.00 20.15 LIG 0.18  C 
BRANCH 34 35
ATOM     35  C   GLU B   4     -11.912 -26.671  -9.371  1.00 19.92 LIG 0.24  C 
ATOM     36  N   VAL B   5     -12.715 -27.624  -9.831  1.00 19.46 LIG-0.35  N 
ATOM     37 H    VAL B   5     -12.580 -28.466  -9.713  1.00 19.46 LIG 0.16  HD
ATOM     38 O    GLU B   4     -12.131 -25.472  -9.545  1.00 20.03 LIG-0.27  OA
BRANCH 36 39
ATOM     39  CA  VAL B   5     -13.919 -27.305 -10.593  1.00 20.09 LIG 0.18  C 
BRANCH 39 40
ATOM     40  CB  VAL B   5     -14.727 -28.583 -10.925  1.00 20.49 LIG 0.01  C 
ATOM     41  CG2 VAL B   5     -13.960 -29.444 -11.913  1.00 19.70 LIG 0.01  C 
ATOM     42  CG1 VAL B   5     -16.085 -28.210 -11.492  1.00 21.00 LIG 0.01  C 
ENDBRANCH 39 40
BRANCH 39 43
ATOM     43  C   VAL B   5     -14.829 -26.351  -9.824  1.00 20.75 LIG 0.24  C 
ATOM     44  N   HIS B   6     -14.764 -26.408  -8.497  1.00 20.78 LIG-0.35  N 
ATOM     45 H    HIS B   6     -14.257 -26.950  -8.061  1.00 20.78 LIG 0.16  HD
ATOM     46 O    VAL B   5     -15.581 -25.582 -10.422  1.00 21.91 LIG-0.27  OA
BRANCH 44 47
ATOM     47  CA  HIS B   6     -15.572 -25.528  -7.658  1.00 21.28 LIG 0.17  C 
BRANCH 47 48
ATOM     48  C   HIS B   6     -17.051 -25.753  -7.947  1.00 23.03 LIG 0.22  C 
ATOM     49 O    HIS B   6     -17.486 -26.925  -7.925  1.00 25.39 LIG-0.29  OA
ENDBRANCH 47 48
BRANCH 47 50
ATOM     50  CB  HIS B   6     -15.228 -24.058  -7.915  1.00 19.33 LIG 0.09  C 
BRANCH 50 51
ATOM     51  CG  HIS B   6     -15.788 -23.123  -6.887  1.00 17.39 LIG 0.06  A 
ATOM     52  CD2 HIS B   6     -17.014 -22.560  -6.766  1.00 16.59 LIG 0.14  A 
ATOM     53 NE2  HIS B   6     -17.004 -21.808  -5.615  1.00 16.70 LIG-0.25  NA
ATOM     54  CE1 HIS B   6     -15.813 -21.904  -5.052  1.00 16.06 LIG 0.23  A 
ATOM     55 ND1  HIS B   6     -15.060 -22.693  -5.799  1.00 16.09 LIG-0.24  NA
ENDBRANCH 50 51
ENDBRANCH 47 50
ENDBRANCH 44 47
ENDBRANCH 39 43
ENDBRANCH 36 39
ENDBRANCH 34 35
BRANCH 34 56
ATOM     56  CB  GLU B   4      -9.513 -27.309  -9.557  1.00 22.38 LIG 0.04  C 
BRANCH 56 57
ATOM     57  CG  GLU B   4      -9.888 -27.910 -10.900  1.00 27.64 LIG 0.12  C 
BRANCH 57 58
ATOM     58  CD  GLU B   4      -9.251 -29.269 -11.120  1.00 30.78 LIG 0.17  C 
ATOM     59 OE2  GLU B   4      -8.035 -29.320 -11.404  1.00 32.62 LIG-0.65  OA
ATOM     60 OE1  GLU B   4      -9.968 -30.286 -11.008  1.00 32.75 LIG-0.65  OA
ENDBRANCH 57 58
ENDBRANCH 56 57
ENDBRANCH 34 56
ENDBRANCH 3 34
TORSDOF 22
ENDMDL
MODEL 68
USER: ADFR SOLUTION from run 62
USER: SCORE 16.728764 LL:  -4.169 LR: -13.624 RR:   0.000 FEB:  -7.062
USER: RMSD 7.740829
USER: SEED 61
USER: STATUS no improvement in best in 9 clusters for 5 generations
USER: GENES 24
USER: genes 0 Translation |==|  0.37831 0.37695 0.50384
USER: genes 1 Rotation |==|  0.50692 0.04566 0.45804 0.70436
USER: genes 2 Torsion [N]-C--CA-[N] |==|  0.62997
USER: genes 3 Torsion [C]-CA--N-[C] |==|  0.16122
USER: genes 4 Torsion [N]-C--CA-[N] |==|  0.22733
USER: genes 5 Torsion [C]-CA--CB-[CG] |==|  0.39032
USER: genes 6 Torsion [CA]-CB--CG-[CD] |==|  0.68386
USER: genes 7 Torsion [CB]-CG--CD-[NE] |==|  0.40934
USER: genes 8 Torsion [CG]-CD--NE-[CZ] |==|  0.60525
USER: genes 9 Torsion [C]-CA--N-[C] |==|  0.76244
USER: genes 10 Torsion [N]-C--CA-[N] |==|  0.41604
USER: genes 11 Torsion [C]-CA--N-[H2] |==|  0.53579
USER: genes 12 Torsion [C]-N--CA-[C] |==|  0.85000
USER: genes 13 Torsion [N]-CA--C-[N] |==|  0.90502
USER: genes 14 Torsion [C]-N--CA-[CB] |==|  0.85528
USER: genes 15 Torsion [N]-CA--CB-[CG2] |==|  0.77827
USER: genes 16 Torsion [N]-CA--C-[N] |==|  0.36088
USER: genes 17 Torsion [C]-N--CA-[C] |==|  0.71390
USER: genes 18 Torsion [N]-CA--C-[O] |==|  0.59647
USER: genes 19 Torsion [N]-CA--CB-[CG] |==|  0.67103
USER: genes 20 Torsion [CA]-CB--CG-[CD2] |==|  0.35865
USER: genes 21 Torsion [N]-CA--CB-[CG] |==|  0.43898
USER: genes 22 Torsion [CA]-CB--CG-[CD] |==|  0.29254
USER: genes 23 Torsion [CB]-CG--CD-[OE2] |==|  0.47684
ROOT
ATOM      1  C   ALA B   3     -17.326 -30.950  -4.962  1.00 17.17 LIG 0.24  C 
ATOM      2 O    ALA B   3     -16.348 -31.670  -5.166  1.00 18.54 LIG-0.27  OA
ATOM      3  N   GLU B   4     -18.567 -31.310  -5.284  1.00 17.89 LIG-0.35  N 
ATOM      4 H    GLU B   4     -19.258 -30.816  -5.147  1.00 17.89 LIG 0.16  HD
ENDROOT
BRANCH 1 5
ATOM      5  CA  ALA B   3     -17.154 -29.577  -4.314  1.00 15.99 LIG 0.17  C 
ATOM      6  CB  ALA B   3     -18.461 -28.794  -4.395  1.00 16.21 LIG 0.04  C 
BRANCH 5 7
ATOM      7  N   ALA B   3     -16.073 -28.794  -4.899  1.00 13.91 LIG-0.35  N 
ATOM      8  C   ARG B   2     -16.056 -28.493  -6.194  1.00 12.46 LIG 0.24  C 
ATOM      9 O    ARG B   2     -16.944 -28.841  -6.971  1.00 11.56 LIG-0.27  OA
ATOM     10 H    ALA B   3     -15.464 -28.554  -4.341  1.00 13.91 LIG 0.16  HD
BRANCH 8 11
ATOM     11  CA  ARG B   2     -14.864 -27.683  -6.696  1.00 12.24 LIG 0.18  C 
BRANCH 11 12
ATOM     12  CB  ARG B   2     -15.264 -26.902  -7.951  1.00 10.58 LIG 0.04  C 
BRANCH 12 13
ATOM     13  CG  ARG B   2     -14.695 -25.493  -8.031  1.00  9.71 LIG 0.02  C 
BRANCH 13 14
ATOM     14  CD  ARG B   2     -15.811 -24.465  -7.944  1.00  9.44 LIG 0.14  C 
BRANCH 14 15
ATOM     15  NE  ARG B   2     -15.383 -23.237  -7.275  1.00  9.23 LIG-0.23  N 
ATOM     16  CZ  ARG B   2     -16.143 -22.529  -6.448  1.00  9.20 LIG 0.67  C 
ATOM     17  NH1 ARG B   2     -17.382 -22.923  -6.182  1.00  7.63 LIG-0.23  N 
ATOM     18  NH2 ARG B   2     -15.665 -21.427  -5.884  1.00  9.31 LIG-0.23  N 
ATOM     19 1HH1 ARG B   2     -17.693 -23.637  -6.546  1.00  7.63 LIG 0.17  HD
ATOM     20 2HH1 ARG B   2     -17.874 -22.464  -5.647  1.00  7.63 LIG 0.17  HD
ATOM     21 2HH2 ARG B   2     -16.158 -20.969  -5.349  1.00  9.31 LIG 0.17  HD
ATOM     22 1HH2 ARG B   2     -14.862 -21.171  -6.054  1.00  9.31 LIG 0.17  HD
ATOM     23 HE   ARG B   2     -14.586 -22.955  -7.427  1.00  9.23 LIG 0.18  HD
ENDBRANCH 14 15
ENDBRANCH 13 14
ENDBRANCH 12 13
ENDBRANCH 11 12
BRANCH 11 24
ATOM     24  N   ARG B   2     -13.659 -28.455  -6.978  1.00 12.50 LIG-0.35  N 
ATOM     25  C   ALA B   1     -12.760 -28.764  -6.051  1.00 14.33 LIG 0.25  C 
ATOM     26 O    ALA B   1     -12.879 -28.461  -4.865  1.00 14.72 LIG-0.27  OA
ATOM     27 H    ARG B   2     -13.585 -28.692  -7.801  1.00 12.50 LIG 0.16  HD
BRANCH 25 28
ATOM     28  CA  ALA B   1     -11.549 -29.549  -6.545  1.00 14.93 LIG 0.27  C 
ATOM     29  CB  ALA B   1     -11.840 -31.045  -6.507  1.00 16.58 LIG 0.05  C 
BRANCH 28 30
ATOM     30  N   ALA B   1     -10.340 -29.241  -5.731  1.00 16.58 LIG-0.07  N 
ATOM     31 H3   ALA B   1     -10.265 -28.359  -5.634  1.00 16.58 LIG 0.28  HD
ATOM     32 H1   ALA B   1     -10.416 -29.622  -4.931  1.00 16.58 LIG 0.28  HD
ATOM     33 H2   ALA B   1      -9.617 -29.556  -6.142  1.00 16.58 LIG 0.28  HD
ENDBRANCH 28 30
ENDBRANCH 25 28
ENDBRANCH 11 24
ENDBRANCH 8 11
ENDBRANCH 5 7
ENDBRANCH 1 5
BRANCH 3 34
ATOM     34  CA  GLU B   4     -18.864 -32.597  -5.909  1.00 20.15 LIG 0.18  C 
BRANCH 34 35
ATOM     35  C   GLU B   4     -18.027 -32.796  -7.170  1.00 19.92 LIG 0.24  C 
ATOM     36  N   VAL B   5     -17.763 -31.707  -7.884  1.00 19.46 LIG-0.35  N 
ATOM     37 H    VAL B   5     -18.033 -30.917  -7.675  1.00 19.46 LIG 0.16  HD
ATOM     38 O    GLU B   4     -17.622 -33.915  -7.484  1.00 20.03 LIG-0.27  OA
BRANCH 36 39
ATOM     39  CA  VAL B   5     -16.971 -31.772  -9.110  1.00 20.09 LIG 0.18  C 
BRANCH 39 40
ATOM     40  CB  VAL B   5     -15.631 -32.507  -8.872  1.00 20.49 LIG 0.01  C 
ATOM     41  CG2 VAL B   5     -14.629 -31.570  -8.220  1.00 19.70 LIG 0.01  C 
ATOM     42  CG1 VAL B   5     -15.084 -33.033 -10.188  1.00 21.00 LIG 0.01  C 
ENDBRANCH 39 40
BRANCH 39 43
ATOM     43  C   VAL B   5     -17.725 -32.497 -10.222  1.00 20.75 LIG 0.24  C 
ATOM     44  N   HIS B   6     -17.785 -31.880 -11.399  1.00 20.78 LIG-0.35  N 
ATOM     45 H    HIS B   6     -17.440 -31.108 -11.557  1.00 20.78 LIG 0.16  HD
ATOM     46 O    VAL B   5     -18.248 -33.591 -10.015  1.00 21.91 LIG-0.27  OA
BRANCH 44 47
ATOM     47  CA  HIS B   6     -18.460 -32.487 -12.541  1.00 21.28 LIG 0.17  C 
BRANCH 47 48
ATOM     48  C   HIS B   6     -17.429 -33.058 -13.508  1.00 23.03 LIG 0.22  C 
ATOM     49 O    HIS B   6     -17.676 -33.009 -14.732  1.00 25.39 LIG-0.29  OA
ENDBRANCH 47 48
BRANCH 47 50
ATOM     50  CB  HIS B   6     -19.324 -31.460 -13.278  1.00 19.33 LIG 0.09  C 
BRANCH 50 51
ATOM     51  CG  HIS B   6     -20.783 -31.800 -13.288  1.00 17.39 LIG 0.06  A 
ATOM     52  CD2 HIS B   6     -21.872 -31.068 -12.956  1.00 16.59 LIG 0.14  A 
ATOM     53 NE2  HIS B   6     -22.976 -31.855 -13.185  1.00 16.70 LIG-0.25  NA
ATOM     54  CE1 HIS B   6     -22.578 -33.029 -13.640  1.00 16.06 LIG 0.23  A 
ATOM     55 ND1  HIS B   6     -21.258 -33.022 -13.712  1.00 16.09 LIG-0.24  NA
ENDBRANCH 50 51
ENDBRANCH 47 50
ENDBRANCH 44 47
ENDBRANCH 39 43
ENDBRANCH 36 39
ENDBRANCH 34 35
BRANCH 34 56
ATOM     56  CB  GLU B   4     -20.348 -32.677  -6.276  1.00 22.38 LIG 0.04  C 
BRANCH 56 57
ATOM     57  CG  GLU B   4     -20.676 -33.686  -7.362  1.00 27.64 LIG 0.12  C 
BRANCH 57 58
ATOM     58  CD  GLU B   4     -21.341 -34.931  -6.808  1.00 30.78 LIG 0.17  C 
ATOM     59 OE2  GLU B   4     -21.804 -35.769  -7.610  1.00 32.62 LIG-0.65  OA
ATOM     60 OE1  GLU B   4     -21.400 -35.071  -5.567  1.00 32.75 LIG-0.65  OA
ENDBRANCH 57 58
ENDBRANCH 56 57
ENDBRANCH 34 56
ENDBRANCH 3 34
TORSDOF 22
ENDMDL
MODEL 69
USER: ADFR SOLUTION from run 199
USER: SCORE 18.695650 LL:  -6.256 LR: -13.611 RR:   0.000 FEB:  -7.049
USER: RMSD 7.431835
USER: SEED 198
USER: STATUS searching
USER: GENES 24
USER: genes 0 Translation |==|  0.62486 0.45307 0.50832
USER: genes 1 Rotation |==|  0.27252 0.13736 0.63183 0.72219
USER: genes 2 Torsion [N]-C--CA-[N] |==|  0.95978
USER: genes 3 Torsion [C]-CA--N-[C] |==|  0.83751
USER: genes 4 Torsion [N]-C--CA-[N] |==|  0.92438
USER: genes 5 Torsion [C]-CA--CB-[CG] |==|  0.74910
USER: genes 6 Torsion [CA]-CB--CG-[CD] |==|  0.38467
USER: genes 7 Torsion [CB]-CG--CD-[NE] |==|  0.88071
USER: genes 8 Torsion [CG]-CD--NE-[CZ] |==|  0.80468
USER: genes 9 Torsion [C]-CA--N-[C] |==|  0.67900
USER: genes 10 Torsion [N]-C--CA-[N] |==|  0.24103
USER: genes 11 Torsion [C]-CA--N-[H2] |==|  0.50286
USER: genes 12 Torsion [C]-N--CA-[C] |==|  0.79156
USER: genes 13 Torsion [N]-CA--C-[N] |==|  0.89161
USER: genes 14 Torsion [C]-N--CA-[CB] |==|  0.21667
USER: genes 15 Torsion [N]-CA--CB-[CG2] |==|  0.75405
USER: genes 16 Torsion [N]-CA--C-[N] |==|  0.85249
USER: genes 17 Torsion [C]-N--CA-[C] |==|  0.75175
USER: genes 18 Torsion [N]-CA--C-[O] |==|  0.43180
USER: genes 19 Torsion [N]-CA--CB-[CG] |==|  0.25564
USER: genes 20 Torsion [CA]-CB--CG-[CD2] |==|  0.73874
USER: genes 21 Torsion [N]-CA--CB-[CG] |==|  0.27355
USER: genes 22 Torsion [CA]-CB--CG-[CD] |==|  0.73780
USER: genes 23 Torsion [CB]-CG--CD-[OE2] |==|  0.26933
ROOT
ATOM      1  C   ALA B   3     -12.889 -29.180  -4.865  1.00 17.17 LIG 0.24  C 
ATOM      2 O    ALA B   3     -12.429 -30.166  -4.286  1.00 18.54 LIG-0.27  OA
ATOM      3  N   GLU B   4     -14.161 -28.807  -4.756  1.00 17.89 LIG-0.35  N 
ATOM      4 H    GLU B   4     -14.494 -28.122  -5.155  1.00 17.89 LIG 0.16  HD
ENDROOT
BRANCH 1 5
ATOM      5  CA  ALA B   3     -11.994 -28.320  -5.757  1.00 15.99 LIG 0.17  C 
ATOM      6  CB  ALA B   3     -11.010 -27.528  -4.902  1.00 16.21 LIG 0.04  C 
BRANCH 5 7
ATOM      7  N   ALA B   3     -12.741 -27.412  -6.619  1.00 13.91 LIG-0.35  N 
ATOM      8  C   ARG B   2     -13.637 -27.863  -7.492  1.00 12.46 LIG 0.24  C 
ATOM      9 O    ARG B   2     -13.899 -29.059  -7.620  1.00 11.56 LIG-0.27  OA
ATOM     10 H    ALA B   3     -12.550 -26.581  -6.511  1.00 13.91 LIG 0.16  HD
BRANCH 8 11
ATOM     11  CA  ARG B   2     -14.345 -26.821  -8.352  1.00 12.24 LIG 0.18  C 
BRANCH 11 12
ATOM     12  CB  ARG B   2     -13.642 -26.707  -9.706  1.00 10.58 LIG 0.04  C 
BRANCH 12 13
ATOM     13  CG  ARG B   2     -12.528 -25.671  -9.760  1.00  9.71 LIG 0.02  C 
BRANCH 13 14
ATOM     14  CD  ARG B   2     -11.337 -26.213 -10.532  1.00  9.44 LIG 0.14  C 
BRANCH 14 15
ATOM     15  NE  ARG B   2     -11.034 -27.600 -10.182  1.00  9.23 LIG-0.23  N 
ATOM     16  CZ  ARG B   2     -10.527 -27.988  -9.018  1.00  9.20 LIG 0.67  C 
ATOM     17  NH1 ARG B   2     -10.261 -27.090  -8.078  1.00  7.63 LIG-0.23  N 
ATOM     18  NH2 ARG B   2     -10.289 -29.273  -8.791  1.00  9.31 LIG-0.23  N 
ATOM     19 1HH1 ARG B   2     -10.416 -26.257  -8.223  1.00  7.63 LIG 0.17  HD
ATOM     20 2HH1 ARG B   2      -9.933 -27.341  -7.324  1.00  7.63 LIG 0.17  HD
ATOM     21 2HH2 ARG B   2      -9.961 -29.523  -8.036  1.00  9.31 LIG 0.17  HD
ATOM     22 1HH2 ARG B   2     -10.462 -29.856  -9.398  1.00  9.31 LIG 0.17  HD
ATOM     23 HE   ARG B   2     -11.194 -28.206 -10.771  1.00  9.23 LIG 0.18  HD
ENDBRANCH 14 15
ENDBRANCH 13 14
ENDBRANCH 12 13
ENDBRANCH 11 12
BRANCH 11 24
ATOM     24  N   ARG B   2     -14.456 -25.493  -7.758  1.00 12.50 LIG-0.35  N 
ATOM     25  C   ALA B   1     -15.616 -24.931  -7.442  1.00 14.33 LIG 0.25  C 
ATOM     26 O    ALA B   1     -16.701 -25.492  -7.586  1.00 14.72 LIG-0.27  OA
ATOM     27 H    ARG B   2     -13.698 -25.108  -7.631  1.00 12.50 LIG 0.16  HD
BRANCH 25 28
ATOM     28  CA  ALA B   1     -15.530 -23.523  -6.861  1.00 14.93 LIG 0.27  C 
ATOM     29  CB  ALA B   1     -16.698 -23.270  -5.917  1.00 16.58 LIG 0.05  C 
BRANCH 28 30
ATOM     30  N   ALA B   1     -15.511 -22.497  -7.941  1.00 16.58 LIG-0.07  N 
ATOM     31 H3   ALA B   1     -14.814 -22.640  -8.475  1.00 16.58 LIG 0.28  HD
ATOM     32 H1   ALA B   1     -16.263 -22.550  -8.413  1.00 16.58 LIG 0.28  HD
ATOM     33 H2   ALA B   1     -15.446 -21.687  -7.579  1.00 16.58 LIG 0.28  HD
ENDBRANCH 28 30
ENDBRANCH 25 28
ENDBRANCH 11 24
ENDBRANCH 8 11
ENDBRANCH 5 7
ENDBRANCH 1 5
BRANCH 3 34
ATOM     34  CA  GLU B   4     -15.118 -29.545  -3.933  1.00 20.15 LIG 0.18  C 
BRANCH 34 35
ATOM     35  C   GLU B   4     -15.534 -30.845  -4.617  1.00 19.92 LIG 0.24  C 
ATOM     36  N   VAL B   5     -15.709 -30.794  -5.933  1.00 19.46 LIG-0.35  N 
ATOM     37 H    VAL B   5     -15.602 -30.083  -6.406  1.00 19.46 LIG 0.16  HD
ATOM     38 O    GLU B   4     -15.684 -31.878  -3.963  1.00 20.03 LIG-0.27  OA
BRANCH 36 39
ATOM     39  CA  VAL B   5     -16.106 -31.974  -6.697  1.00 20.09 LIG 0.18  C 
BRANCH 39 40
ATOM     40  CB  VAL B   5     -17.620 -32.256  -6.543  1.00 20.49 LIG 0.01  C 
ATOM     41  CG2 VAL B   5     -17.867 -33.145  -5.337  1.00 19.70 LIG 0.01  C 
ATOM     42  CG1 VAL B   5     -18.158 -32.912  -7.803  1.00 21.00 LIG 0.01  C 
ENDBRANCH 39 40
BRANCH 39 43
ATOM     43  C   VAL B   5     -15.798 -31.806  -8.182  1.00 20.75 LIG 0.24  C 
ATOM     44  N   HIS B   6     -16.276 -30.711  -8.768  1.00 20.78 LIG-0.35  N 
ATOM     45 H    HIS B   6     -16.747 -30.115  -8.365  1.00 20.78 LIG 0.16  HD
ATOM     46 O    VAL B   5     -15.147 -32.656  -8.788  1.00 21.91 LIG-0.27  OA
BRANCH 44 47
ATOM     47  CA  HIS B   6     -16.027 -30.435 -10.179  1.00 21.28 LIG 0.17  C 
BRANCH 47 48
ATOM     48  C   HIS B   6     -14.734 -29.641 -10.330  1.00 23.03 LIG 0.22  C 
ATOM     49 O    HIS B   6     -14.122 -29.710 -11.417  1.00 25.39 LIG-0.29  OA
ENDBRANCH 47 48
BRANCH 47 50
ATOM     50  CB  HIS B   6     -17.180 -29.636 -10.794  1.00 19.33 LIG 0.09  C 
BRANCH 50 51
ATOM     51  CG  HIS B   6     -16.980 -28.152 -10.737  1.00 17.39 LIG 0.06  A 
ATOM     52  CD2 HIS B   6     -17.387 -27.232  -9.832  1.00 16.59 LIG 0.14  A 
ATOM     53 NE2  HIS B   6     -16.900 -26.014 -10.243  1.00 16.70 LIG-0.25  NA
ATOM     54  CE1 HIS B   6     -16.220 -26.182 -11.363  1.00 16.06 LIG 0.23  A 
ATOM     55 ND1  HIS B   6     -16.253 -27.464 -11.683  1.00 16.09 LIG-0.24  NA
ENDBRANCH 50 51
ENDBRANCH 47 50
ENDBRANCH 44 47
ENDBRANCH 39 43
ENDBRANCH 36 39
ENDBRANCH 34 35
BRANCH 34 56
ATOM     56  CB  GLU B   4     -16.365 -28.693  -3.679  1.00 22.38 LIG 0.04  C 
BRANCH 56 57
ATOM     57  CG  GLU B   4     -17.538 -29.002  -4.593  1.00 27.64 LIG 0.12  C 
BRANCH 57 58
ATOM     58  CD  GLU B   4     -17.577 -28.092  -5.805  1.00 30.78 LIG 0.17  C 
ATOM     59 OE2  GLU B   4     -17.085 -28.503  -6.878  1.00 32.62 LIG-0.65  OA
ATOM     60 OE1  GLU B   4     -18.100 -26.964  -5.684  1.00 32.75 LIG-0.65  OA
ENDBRANCH 57 58
ENDBRANCH 56 57
ENDBRANCH 34 56
ENDBRANCH 3 34
TORSDOF 22
ENDMDL
MODEL 70
USER: ADFR SOLUTION from run 48
USER: SCORE 16.587739 LL:  -5.473 LR: -13.599 RR:   0.000 FEB:  -7.036
USER: RMSD 7.461636
USER: SEED 47
USER: STATUS no improvement in best in 5 clusters for 5 generations
USER: GENES 24
USER: genes 0 Translation |==|  0.47769 0.48636 0.17739
USER: genes 1 Rotation |==|  0.61364 0.85206 0.51522 0.83602
USER: genes 2 Torsion [N]-C--CA-[N] |==|  0.66811
USER: genes 3 Torsion [C]-CA--N-[C] |==|  0.15850
USER: genes 4 Torsion [N]-C--CA-[N] |==|  0.53062
USER: genes 5 Torsion [C]-CA--CB-[CG] |==|  0.28066
USER: genes 6 Torsion [CA]-CB--CG-[CD] |==|  0.54412
USER: genes 7 Torsion [CB]-CG--CD-[NE] |==|  0.59160
USER: genes 8 Torsion [CG]-CD--NE-[CZ] |==|  0.29798
USER: genes 9 Torsion [C]-CA--N-[C] |==|  0.71382
USER: genes 10 Torsion [N]-C--CA-[N] |==|  0.16850
USER: genes 11 Torsion [C]-CA--N-[H2] |==|  0.58371
USER: genes 12 Torsion [C]-N--CA-[C] |==|  0.80775
USER: genes 13 Torsion [N]-CA--C-[N] |==|  0.90301
USER: genes 14 Torsion [C]-N--CA-[CB] |==|  0.14456
USER: genes 15 Torsion [N]-CA--CB-[CG2] |==|  0.64609
USER: genes 16 Torsion [N]-CA--C-[N] |==|  0.93537
USER: genes 17 Torsion [C]-N--CA-[C] |==|  0.61043
USER: genes 18 Torsion [N]-CA--C-[O] |==|  0.06566
USER: genes 19 Torsion [N]-CA--CB-[CG] |==|  0.16535
USER: genes 20 Torsion [CA]-CB--CG-[CD2] |==|  0.90963
USER: genes 21 Torsion [N]-CA--CB-[CG] |==|  0.19723
USER: genes 22 Torsion [CA]-CB--CG-[CD] |==|  0.33478
USER: genes 23 Torsion [CB]-CG--CD-[OE2] |==|  0.82789
ROOT
ATOM      1  C   ALA B   3     -15.538 -28.406 -12.063  1.00 17.17 LIG 0.24  C 
ATOM      2 O    ALA B   3     -16.408 -29.114 -11.555  1.00 18.54 LIG-0.27  OA
ATOM      3  N   GLU B   4     -14.622 -28.879 -12.905  1.00 17.89 LIG-0.35  N 
ATOM      4 H    GLU B   4     -14.010 -28.394 -13.265  1.00 17.89 LIG 0.16  HD
ENDROOT
BRANCH 1 5
ATOM      5  CA  ALA B   3     -15.469 -26.914 -11.739  1.00 15.99 LIG 0.17  C 
ATOM      6  CB  ALA B   3     -14.371 -26.250 -12.563  1.00 16.21 LIG 0.04  C 
BRANCH 5 7
ATOM      7  N   ALA B   3     -15.258 -26.641 -10.322  1.00 13.91 LIG-0.35  N 
ATOM      8  C   ARG B   2     -14.206 -27.129  -9.670  1.00 12.46 LIG 0.24  C 
ATOM      9 O    ARG B   2     -13.350 -27.826 -10.214  1.00 11.56 LIG-0.27  OA
ATOM     10 H    ALA B   3     -15.862 -26.147  -9.961  1.00 13.91 LIG 0.16  HD
BRANCH 8 11
ATOM     11  CA  ARG B   2     -14.099 -26.790  -8.187  1.00 12.24 LIG 0.18  C 
BRANCH 11 12
ATOM     12  CB  ARG B   2     -14.387 -25.302  -7.977  1.00 10.58 LIG 0.04  C 
BRANCH 12 13
ATOM     13  CG  ARG B   2     -15.789 -24.991  -7.469  1.00  9.71 LIG 0.02  C 
BRANCH 13 14
ATOM     14  CD  ARG B   2     -16.108 -23.517  -7.663  1.00  9.44 LIG 0.14  C 
BRANCH 14 15
ATOM     15  NE  ARG B   2     -16.976 -22.995  -6.608  1.00  9.23 LIG-0.23  N 
ATOM     16  CZ  ARG B   2     -16.575 -22.177  -5.642  1.00  9.20 LIG 0.67  C 
ATOM     17  NH1 ARG B   2     -15.310 -21.782  -5.589  1.00  7.63 LIG-0.23  N 
ATOM     18  NH2 ARG B   2     -17.440 -21.752  -4.729  1.00  9.31 LIG-0.23  N 
ATOM     19 1HH1 ARG B   2     -14.749 -22.055  -6.180  1.00  7.63 LIG 0.17  HD
ATOM     20 2HH1 ARG B   2     -15.051 -21.252  -4.963  1.00  7.63 LIG 0.17  HD
ATOM     21 2HH2 ARG B   2     -17.179 -21.222  -4.104  1.00  9.31 LIG 0.17  HD
ATOM     22 1HH2 ARG B   2     -18.260 -22.007  -4.763  1.00  9.31 LIG 0.17  HD
ATOM     23 HE   ARG B   2     -17.802 -23.233  -6.614  1.00  9.23 LIG 0.18  HD
ENDBRANCH 14 15
ENDBRANCH 13 14
ENDBRANCH 12 13
ENDBRANCH 11 12
BRANCH 11 24
ATOM     24  N   ARG B   2     -12.823 -27.122  -7.562  1.00 12.50 LIG-0.35  N 
ATOM     25  C   ALA B   1     -12.649 -28.180  -6.780  1.00 14.33 LIG 0.25  C 
ATOM     26 O    ALA B   1     -13.536 -28.998  -6.540  1.00 14.72 LIG-0.27  OA
ATOM     27 H    ARG B   2     -12.193 -26.567  -7.748  1.00 12.50 LIG 0.16  HD
BRANCH 25 28
ATOM     28  CA  ALA B   1     -11.251 -28.342  -6.192  1.00 14.93 LIG 0.27  C 
ATOM     29  CB  ALA B   1     -11.167 -29.629  -5.380  1.00 16.58 LIG 0.05  C 
BRANCH 28 30
ATOM     30  N   ALA B   1     -10.888 -27.175  -5.341  1.00 16.58 LIG-0.07  N 
ATOM     31 H3   ALA B   1     -11.299 -26.446  -5.645  1.00 16.58 LIG 0.28  HD
ATOM     32 H1   ALA B   1     -11.140 -27.329  -4.502  1.00 16.58 LIG 0.28  HD
ATOM     33 H2   ALA B   1     -10.007 -27.050  -5.368  1.00 16.58 LIG 0.28  HD
ENDBRANCH 28 30
ENDBRANCH 25 28
ENDBRANCH 11 24
ENDBRANCH 8 11
ENDBRANCH 5 7
ENDBRANCH 1 5
BRANCH 3 34
ATOM     34  CA  GLU B   4     -14.580 -30.287 -13.295  1.00 20.15 LIG 0.18  C 
BRANCH 34 35
ATOM     35  C   GLU B   4     -14.156 -31.165 -12.120  1.00 19.92 LIG 0.24  C 
ATOM     36  N   VAL B   5     -13.266 -30.644 -11.282  1.00 19.46 LIG-0.35  N 
ATOM     37 H    VAL B   5     -12.927 -29.857 -11.367  1.00 19.46 LIG 0.16  HD
ATOM     38 O    GLU B   4     -14.634 -32.290 -11.973  1.00 20.03 LIG-0.27  OA
BRANCH 36 39
ATOM     39  CA  VAL B   5     -12.784 -31.388 -10.122  1.00 20.09 LIG 0.18  C 
BRANCH 39 40
ATOM     40  CB  VAL B   5     -12.273 -32.790 -10.529  1.00 20.49 LIG 0.01  C 
ATOM     41  CG2 VAL B   5     -12.943 -33.858  -9.682  1.00 19.70 LIG 0.01  C 
ATOM     42  CG1 VAL B   5     -10.764 -32.861 -10.373  1.00 21.00 LIG 0.01  C 
ENDBRANCH 39 40
BRANCH 39 43
ATOM     43  C   VAL B   5     -11.648 -30.650  -9.418  1.00 20.75 LIG 0.24  C 
ATOM     44  N   HIS B   6     -10.961 -29.779 -10.152  1.00 20.78 LIG-0.35  N 
ATOM     45 H    HIS B   6     -11.114 -29.623 -10.985  1.00 20.78 LIG 0.16  HD
ATOM     46 O    VAL B   5     -11.394 -30.872  -8.235  1.00 21.91 LIG-0.27  OA
BRANCH 44 47
ATOM     47  CA  HIS B   6      -9.868 -29.000  -9.581  1.00 21.28 LIG 0.17  C 
BRANCH 47 48
ATOM     48  C   HIS B   6      -9.909 -27.576 -10.123  1.00 23.03 LIG 0.22  C 
ATOM     49 O    HIS B   6     -10.999 -27.136 -10.546  1.00 25.39 LIG-0.29  OA
ENDBRANCH 47 48
BRANCH 47 50
ATOM     50  CB  HIS B   6      -8.512 -29.627  -9.921  1.00 19.33 LIG 0.09  C 
BRANCH 50 51
ATOM     51  CG  HIS B   6      -8.251 -29.730 -11.393  1.00 17.39 LIG 0.06  A 
ATOM     52  CD2 HIS B   6      -9.090 -29.930 -12.436  1.00 16.59 LIG 0.14  A 
ATOM     53 NE2  HIS B   6      -8.329 -29.904 -13.581  1.00 16.70 LIG-0.25  NA
ATOM     54  CE1 HIS B   6      -7.067 -29.698 -13.251  1.00 16.06 LIG 0.23  A 
ATOM     55 ND1  HIS B   6      -6.992 -29.589 -11.936  1.00 16.09 LIG-0.24  NA
ENDBRANCH 50 51
ENDBRANCH 47 50
ENDBRANCH 44 47
ENDBRANCH 39 43
ENDBRANCH 36 39
ENDBRANCH 34 35
BRANCH 34 56
ATOM     56  CB  GLU B   4     -13.595 -30.487 -14.450  1.00 22.38 LIG 0.04  C 
BRANCH 56 57
ATOM     57  CG  GLU B   4     -12.134 -30.339 -14.066  1.00 27.64 LIG 0.12  C 
BRANCH 57 58
ATOM     58  CD  GLU B   4     -11.336 -31.599 -14.344  1.00 30.78 LIG 0.17  C 
ATOM     59 OE2  GLU B   4     -11.648 -32.648 -13.742  1.00 32.62 LIG-0.65  OA
ATOM     60 OE1  GLU B   4     -10.396 -31.538 -15.164  1.00 32.75 LIG-0.65  OA
ENDBRANCH 57 58
ENDBRANCH 56 57
ENDBRANCH 34 56
ENDBRANCH 3 34
TORSDOF 22
ENDMDL
MODEL 71
USER: ADFR SOLUTION from run 80
USER: SCORE 16.545010 LL:  -5.182 LR: -13.598 RR:   0.000 FEB:  -7.035
USER: RMSD 9.900082
USER: SEED 79
USER: STATUS no improvement in best in 16 clusters for 5 generations
USER: GENES 24
USER: genes 0 Translation |==|  0.69001 0.47321 0.43950
USER: genes 1 Rotation |==|  0.99555 0.49717 0.52866 0.56004
USER: genes 2 Torsion [N]-C--CA-[N] |==|  0.00145
USER: genes 3 Torsion [C]-CA--N-[C] |==|  0.67441
USER: genes 4 Torsion [N]-C--CA-[N] |==|  0.88561
USER: genes 5 Torsion [C]-CA--CB-[CG] |==|  0.45922
USER: genes 6 Torsion [CA]-CB--CG-[CD] |==|  0.93101
USER: genes 7 Torsion [CB]-CG--CD-[NE] |==|  0.80349
USER: genes 8 Torsion [CG]-CD--NE-[CZ] |==|  0.39697
USER: genes 9 Torsion [C]-CA--N-[C] |==|  0.67193
USER: genes 10 Torsion [N]-C--CA-[N] |==|  0.89910
USER: genes 11 Torsion [C]-CA--N-[H2] |==|  0.94206
USER: genes 12 Torsion [C]-N--CA-[C] |==|  0.85859
USER: genes 13 Torsion [N]-CA--C-[N] |==|  0.43236
USER: genes 14 Torsion [C]-N--CA-[CB] |==|  0.90178
USER: genes 15 Torsion [N]-CA--CB-[CG2] |==|  0.81134
USER: genes 16 Torsion [N]-CA--C-[N] |==|  0.26759
USER: genes 17 Torsion [C]-N--CA-[C] |==|  0.70991
USER: genes 18 Torsion [N]-CA--C-[O] |==|  0.03904
USER: genes 19 Torsion [N]-CA--CB-[CG] |==|  0.43163
USER: genes 20 Torsion [CA]-CB--CG-[CD2] |==|  0.10966
USER: genes 21 Torsion [N]-CA--CB-[CG] |==|  0.20296
USER: genes 22 Torsion [CA]-CB--CG-[CD] |==|  0.62350
USER: genes 23 Torsion [CB]-CG--CD-[OE2] |==|  0.40016
ROOT
ATOM      1  C   ALA B   3     -11.716 -28.712  -6.362  1.00 17.17 LIG 0.24  C 
ATOM      2 O    ALA B   3     -12.507 -27.867  -5.939  1.00 18.54 LIG-0.27  OA
ATOM      3  N   GLU B   4     -10.966 -28.521  -7.444  1.00 17.89 LIG-0.35  N 
ATOM      4 H    GLU B   4     -10.411 -29.103  -7.749  1.00 17.89 LIG 0.16  HD
ENDROOT
BRANCH 1 5
ATOM      5  CA  ALA B   3     -11.557 -30.051  -5.642  1.00 15.99 LIG 0.17  C 
ATOM      6  CB  ALA B   3     -11.189 -29.817  -4.180  1.00 16.21 LIG 0.04  C 
BRANCH 5 7
ATOM      7  N   ALA B   3     -10.573 -30.928  -6.265  1.00 13.91 LIG-0.35  N 
ATOM      8  C   ARG B   2     -10.919 -32.103  -6.782  1.00 12.46 LIG 0.24  C 
ATOM      9 O    ARG B   2     -12.077 -32.519  -6.776  1.00 11.56 LIG-0.27  OA
ATOM     10 H    ALA B   3      -9.770 -30.619  -6.266  1.00 13.91 LIG 0.16  HD
BRANCH 8 11
ATOM     11  CA  ARG B   2      -9.801 -32.942  -7.393  1.00 12.24 LIG 0.18  C 
BRANCH 11 12
ATOM     12  CB  ARG B   2      -9.072 -33.712  -6.289  1.00 10.58 LIG 0.04  C 
BRANCH 12 13
ATOM     13  CG  ARG B   2      -8.178 -34.841  -6.785  1.00  9.71 LIG 0.02  C 
BRANCH 13 14
ATOM     14  CD  ARG B   2      -8.655 -35.339  -8.139  1.00  9.44 LIG 0.14  C 
BRANCH 14 15
ATOM     15  NE  ARG B   2      -9.915 -36.074  -8.047  1.00  9.23 LIG-0.23  N 
ATOM     16  CZ  ARG B   2     -10.885 -36.020  -8.952  1.00  9.20 LIG 0.67  C 
ATOM     17  NH1 ARG B   2     -10.745 -35.257 -10.030  1.00  7.63 LIG-0.23  N 
ATOM     18  NH2 ARG B   2     -11.994 -36.728  -8.783  1.00  9.31 LIG-0.23  N 
ATOM     19 1HH1 ARG B   2     -10.027 -34.799 -10.141  1.00  7.63 LIG 0.17  HD
ATOM     20 2HH1 ARG B   2     -11.374 -35.222 -10.616  1.00  7.63 LIG 0.17  HD
ATOM     21 2HH2 ARG B   2     -12.621 -36.691  -9.370  1.00  9.31 LIG 0.17  HD
ATOM     22 1HH2 ARG B   2     -12.086 -37.223  -8.086  1.00  9.31 LIG 0.17  HD
ATOM     23 HE   ARG B   2     -10.037 -36.577  -7.360  1.00  9.23 LIG 0.18  HD
ENDBRANCH 14 15
ENDBRANCH 13 14
ENDBRANCH 12 13
ENDBRANCH 11 12
BRANCH 11 24
ATOM     24  N   ARG B   2      -8.824 -32.199  -8.182  1.00 12.50 LIG-0.35  N 
ATOM     25  C   ALA B   1      -8.621 -32.411  -9.477  1.00 14.33 LIG 0.25  C 
ATOM     26 O    ALA B   1      -9.263 -33.226 -10.137  1.00 14.72 LIG-0.27  OA
ATOM     27 H    ARG B   2      -8.391 -31.610  -7.729  1.00 12.50 LIG 0.16  HD
BRANCH 25 28
ATOM     28  CA  ALA B   1      -7.533 -31.558 -10.121  1.00 14.93 LIG 0.27  C 
ATOM     29  CB  ALA B   1      -6.171 -32.218  -9.942  1.00 16.58 LIG 0.05  C 
BRANCH 28 30
ATOM     30  N   ALA B   1      -7.516 -30.184  -9.546  1.00 16.58 LIG-0.07  N 
ATOM     31 H3   ALA B   1      -6.874 -30.127  -8.932  1.00 16.58 LIG 0.28  HD
ATOM     32 H1   ALA B   1      -7.362 -29.594 -10.193  1.00 16.58 LIG 0.28  HD
ATOM     33 H2   ALA B   1      -8.303 -30.011  -9.168  1.00 16.58 LIG 0.28  HD
ENDBRANCH 28 30
ENDBRANCH 25 28
ENDBRANCH 11 24
ENDBRANCH 8 11
ENDBRANCH 5 7
ENDBRANCH 1 5
BRANCH 3 34
ATOM     34  CA  GLU B   4     -11.024 -27.284  -8.221  1.00 20.15 LIG 0.18  C 
BRANCH 34 35
ATOM     35  C   GLU B   4     -12.467 -26.932  -8.576  1.00 19.92 LIG 0.24  C 
ATOM     36  N   VAL B   5     -12.722 -25.651  -8.819  1.00 19.46 LIG-0.35  N 
ATOM     37 H    VAL B   5     -12.129 -25.028  -8.787  1.00 19.46 LIG 0.16  HD
ATOM     38 O    GLU B   4     -13.330 -27.808  -8.637  1.00 20.03 LIG-0.27  OA
BRANCH 36 39
ATOM     39  CA  VAL B   5     -14.063 -25.193  -9.169  1.00 20.09 LIG 0.18  C 
BRANCH 39 40
ATOM     40  CB  VAL B   5     -14.805 -26.241 -10.032  1.00 20.49 LIG 0.01  C 
ATOM     41  CG2 VAL B   5     -14.149 -26.353 -11.398  1.00 19.70 LIG 0.01  C 
ATOM     42  CG1 VAL B   5     -16.267 -25.857 -10.178  1.00 21.00 LIG 0.01  C 
ENDBRANCH 39 40
BRANCH 39 43
ATOM     43  C   VAL B   5     -14.902 -24.919  -7.923  1.00 20.75 LIG 0.24  C 
ATOM     44  N   HIS B   6     -14.950 -23.657  -7.505  1.00 20.78 LIG-0.35  N 
ATOM     45 H    HIS B   6     -14.533 -23.007  -7.884  1.00 20.78 LIG 0.16  HD
ATOM     46 O    VAL B   5     -15.488 -25.835  -7.348  1.00 21.91 LIG-0.27  OA
BRANCH 44 47
ATOM     47  CA  HIS B   6     -15.736 -23.274  -6.337  1.00 21.28 LIG 0.17  C 
BRANCH 47 48
ATOM     48  C   HIS B   6     -17.012 -22.569  -6.782  1.00 23.03 LIG 0.22  C 
ATOM     49 O    HIS B   6     -17.345 -22.651  -7.984  1.00 25.39 LIG-0.29  OA
ENDBRANCH 47 48
BRANCH 47 50
ATOM     50  CB  HIS B   6     -14.940 -22.339  -5.422  1.00 19.33 LIG 0.09  C 
BRANCH 50 51
ATOM     51  CG  HIS B   6     -15.801 -21.461  -4.565  1.00 17.39 LIG 0.06  A 
ATOM     52  CD2 HIS B   6     -16.957 -21.714  -3.909  1.00 16.59 LIG 0.14  A 
ATOM     53 NE2  HIS B   6     -17.306 -20.564  -3.242  1.00 16.70 LIG-0.25  NA
ATOM     54  CE1 HIS B   6     -16.397 -19.637  -3.484  1.00 16.06 LIG 0.23  A 
ATOM     55 ND1  HIS B   6     -15.476 -20.153  -4.280  1.00 16.09 LIG-0.24  NA
ENDBRANCH 50 51
ENDBRANCH 47 50
ENDBRANCH 44 47
ENDBRANCH 39 43
ENDBRANCH 36 39
ENDBRANCH 34 35
BRANCH 34 56
ATOM     56  CB  GLU B   4     -10.213 -27.430  -9.511  1.00 22.38 LIG 0.04  C 
BRANCH 56 57
ATOM     57  CG  GLU B   4     -10.858 -28.310 -10.567  1.00 27.64 LIG 0.12  C 
BRANCH 57 58
ATOM     58  CD  GLU B   4      -9.867 -29.268 -11.200  1.00 30.78 LIG 0.17  C 
ATOM     59 OE2  GLU B   4     -10.259 -30.412 -11.515  1.00 32.62 LIG-0.65  OA
ATOM     60 OE1  GLU B   4      -8.695 -28.875 -11.382  1.00 32.75 LIG-0.65  OA
ENDBRANCH 57 58
ENDBRANCH 56 57
ENDBRANCH 34 56
ENDBRANCH 3 34
TORSDOF 22
ENDMDL
MODEL 72
USER: ADFR SOLUTION from run 118
USER: SCORE 15.795048 LL:  -4.709 LR: -13.597 RR:   0.000 FEB:  -7.035
USER: RMSD 7.296273
USER: SEED 117
USER: STATUS no improvement in best in 3 clusters for 5 generations
USER: GENES 24
USER: genes 0 Translation |==|  0.60509 0.54663 0.32053
USER: genes 1 Rotation |==|  0.11841 0.18308 0.44996 0.53800
USER: genes 2 Torsion [N]-C--CA-[N] |==|  0.50676
USER: genes 3 Torsion [C]-CA--N-[C] |==|  0.17658
USER: genes 4 Torsion [N]-C--CA-[N] |==|  0.71385
USER: genes 5 Torsion [C]-CA--CB-[CG] |==|  0.35060
USER: genes 6 Torsion [CA]-CB--CG-[CD] |==|  0.76457
USER: genes 7 Torsion [CB]-CG--CD-[NE] |==|  0.46568
USER: genes 8 Torsion [CG]-CD--NE-[CZ] |==|  0.36348
USER: genes 9 Torsion [C]-CA--N-[C] |==|  0.73472
USER: genes 10 Torsion [N]-C--CA-[N] |==|  0.99430
USER: genes 11 Torsion [C]-CA--N-[H2] |==|  0.17176
USER: genes 12 Torsion [C]-N--CA-[C] |==|  0.14135
USER: genes 13 Torsion [N]-CA--C-[N] |==|  0.07222
USER: genes 14 Torsion [C]-N--CA-[CB] |==|  0.78231
USER: genes 15 Torsion [N]-CA--CB-[CG2] |==|  0.95432
USER: genes 16 Torsion [N]-CA--C-[N] |==|  0.15004
USER: genes 17 Torsion [C]-N--CA-[C] |==|  0.81651
USER: genes 18 Torsion [N]-CA--C-[O] |==|  0.02517
USER: genes 19 Torsion [N]-CA--CB-[CG] |==|  0.78174
USER: genes 20 Torsion [CA]-CB--CG-[CD2] |==|  0.48277
USER: genes 21 Torsion [N]-CA--CB-[CG] |==|  0.86283
USER: genes 22 Torsion [CA]-CB--CG-[CD] |==|  0.34401
USER: genes 23 Torsion [CB]-CG--CD-[OE2] |==|  0.78247
ROOT
ATOM      1  C   ALA B   3     -13.244 -27.005  -8.950  1.00 17.17 LIG 0.24  C 
ATOM      2 O    ALA B   3     -14.101 -27.745  -8.464  1.00 18.54 LIG-0.27  OA
ATOM      3  N   GLU B   4     -13.527 -26.065  -9.849  1.00 17.89 LIG-0.35  N 
ATOM      4 H    GLU B   4     -12.937 -25.543 -10.195  1.00 17.89 LIG 0.16  HD
ENDROOT
BRANCH 1 5
ATOM      5  CA  ALA B   3     -11.781 -27.137  -8.529  1.00 15.99 LIG 0.17  C 
ATOM      6  CB  ALA B   3     -10.899 -27.323  -9.759  1.00 16.21 LIG 0.04  C 
BRANCH 5 7
ATOM      7  N   ALA B   3     -11.548 -28.224  -7.585  1.00 13.91 LIG-0.35  N 
ATOM      8  C   ARG B   2     -11.764 -29.493  -7.921  1.00 12.46 LIG 0.24  C 
ATOM      9 O    ARG B   2     -12.159 -29.829  -9.036  1.00 11.56 LIG-0.27  OA
ATOM     10 H    ALA B   3     -11.266 -27.971  -6.813  1.00 13.91 LIG 0.16  HD
BRANCH 8 11
ATOM     11  CA  ARG B   2     -11.501 -30.542  -6.845  1.00 12.24 LIG 0.18  C 
BRANCH 11 12
ATOM     12  CB  ARG B   2     -11.531 -29.884  -5.464  1.00 10.58 LIG 0.04  C 
BRANCH 12 13
ATOM     13  CG  ARG B   2     -12.484 -30.534  -4.470  1.00  9.71 LIG 0.02  C 
BRANCH 13 14
ATOM     14  CD  ARG B   2     -13.890 -29.985  -4.647  1.00  9.44 LIG 0.14  C 
BRANCH 14 15
ATOM     15  NE  ARG B   2     -14.888 -30.773  -3.925  1.00  9.23 LIG-0.23  N 
ATOM     16  CZ  ARG B   2     -15.813 -30.261  -3.123  1.00  9.20 LIG 0.67  C 
ATOM     17  NH1 ARG B   2     -15.873 -28.949  -2.932  1.00  7.63 LIG-0.23  N 
ATOM     18  NH2 ARG B   2     -16.680 -31.058  -2.512  1.00  9.31 LIG-0.23  N 
ATOM     19 1HH1 ARG B   2     -15.313 -28.431  -3.328  1.00  7.63 LIG 0.17  HD
ATOM     20 2HH1 ARG B   2     -16.473 -28.617  -2.413  1.00  7.63 LIG 0.17  HD
ATOM     21 2HH2 ARG B   2     -17.279 -30.724  -1.993  1.00  9.31 LIG 0.17  HD
ATOM     22 1HH2 ARG B   2     -16.643 -31.908  -2.636  1.00  9.31 LIG 0.17  HD
ATOM     23 HE   ARG B   2     -14.874 -31.627  -4.027  1.00  9.23 LIG 0.18  HD
ENDBRANCH 14 15
ENDBRANCH 13 14
ENDBRANCH 12 13
ENDBRANCH 11 12
BRANCH 11 24
ATOM     24  N   ARG B   2     -10.256 -31.288  -6.992  1.00 12.50 LIG-0.35  N 
ATOM     25  C   ALA B   1     -10.183 -32.472  -7.588  1.00 14.33 LIG 0.25  C 
ATOM     26 O    ALA B   1     -11.149 -33.032  -8.103  1.00 14.72 LIG-0.27  OA
ATOM     27 H    ARG B   2      -9.573 -30.888  -6.657  1.00 12.50 LIG 0.16  HD
BRANCH 25 28
ATOM     28  CA  ALA B   1      -8.798 -33.111  -7.615  1.00 14.93 LIG 0.27  C 
ATOM     29  CB  ALA B   1      -8.825 -34.458  -6.902  1.00 16.58 LIG 0.05  C 
BRANCH 28 30
ATOM     30  N   ALA B   1      -7.783 -32.219  -6.989  1.00 16.58 LIG-0.07  N 
ATOM     31 H3   ALA B   1      -6.980 -32.601  -7.039  1.00 16.58 LIG 0.28  HD
ATOM     32 H1   ALA B   1      -7.768 -31.440  -7.417  1.00 16.58 LIG 0.28  HD
ATOM     33 H2   ALA B   1      -7.993 -32.084  -6.135  1.00 16.58 LIG 0.28  HD
ENDBRANCH 28 30
ENDBRANCH 25 28
ENDBRANCH 11 24
ENDBRANCH 8 11
ENDBRANCH 5 7
ENDBRANCH 1 5
BRANCH 3 34
ATOM     34  CA  GLU B   4     -14.887 -25.838 -10.332  1.00 20.15 LIG 0.18  C 
BRANCH 34 35
ATOM     35  C   GLU B   4     -15.861 -25.686  -9.166  1.00 19.92 LIG 0.24  C 
ATOM     36  N   VAL B   5     -15.349 -25.249  -8.020  1.00 19.46 LIG-0.35  N 
ATOM     37 H    VAL B   5     -14.519 -25.054  -7.906  1.00 19.46 LIG 0.16  HD
ATOM     38 O    GLU B   4     -17.055 -25.951  -9.307  1.00 20.03 LIG-0.27  OA
BRANCH 36 39
ATOM     39  CA  VAL B   5     -16.182 -25.064  -6.835  1.00 20.09 LIG 0.18  C 
BRANCH 39 40
ATOM     40  CB  VAL B   5     -16.994 -23.750  -6.921  1.00 20.49 LIG 0.01  C 
ATOM     41  CG2 VAL B   5     -16.409 -22.843  -7.990  1.00 19.70 LIG 0.01  C 
ATOM     42  CG1 VAL B   5     -16.995 -23.048  -5.574  1.00 21.00 LIG 0.01  C 
ENDBRANCH 39 40
BRANCH 39 43
ATOM     43  C   VAL B   5     -17.162 -26.221  -6.655  1.00 20.75 LIG 0.24  C 
ATOM     44  N   HIS B   6     -16.639 -27.444  -6.631  1.00 20.78 LIG-0.35  N 
ATOM     45 H    HIS B   6     -15.800 -27.612  -6.722  1.00 20.78 LIG 0.16  HD
ATOM     46 O    VAL B   5     -18.369 -26.010  -6.548  1.00 21.91 LIG-0.27  OA
BRANCH 44 47
ATOM     47  CA  HIS B   6     -17.476 -28.624  -6.444  1.00 21.28 LIG 0.17  C 
BRANCH 47 48
ATOM     48  C   HIS B   6     -18.085 -28.610  -5.047  1.00 23.03 LIG 0.22  C 
ATOM     49 O    HIS B   6     -17.952 -27.578  -4.355  1.00 25.39 LIG-0.29  OA
ENDBRANCH 47 48
BRANCH 47 50
ATOM     50  CB  HIS B   6     -16.661 -29.909  -6.623  1.00 19.33 LIG 0.09  C 
BRANCH 50 51
ATOM     51  CG  HIS B   6     -16.410 -30.266  -8.057  1.00 17.39 LIG 0.06  A 
ATOM     52  CD2 HIS B   6     -15.655 -31.241  -8.614  1.00 16.59 LIG 0.14  A 
ATOM     53 NE2  HIS B   6     -15.806 -31.143  -9.977  1.00 16.70 LIG-0.25  NA
ATOM     54  CE1 HIS B   6     -16.625 -30.142 -10.246  1.00 16.06 LIG 0.23  A 
ATOM     55 ND1  HIS B   6     -17.004 -29.596  -9.104  1.00 16.09 LIG-0.24  NA
ENDBRANCH 50 51
ENDBRANCH 47 50
ENDBRANCH 44 47
ENDBRANCH 39 43
ENDBRANCH 36 39
ENDBRANCH 34 35
BRANCH 34 56
ATOM     56  CB  GLU B   4     -15.339 -27.007 -11.212  1.00 22.38 LIG 0.04  C 
BRANCH 56 57
ATOM     57  CG  GLU B   4     -14.349 -27.404 -12.293  1.00 27.64 LIG 0.12  C 
BRANCH 57 58
ATOM     58  CD  GLU B   4     -13.957 -28.866 -12.204  1.00 30.78 LIG 0.17  C 
ATOM     59 OE2  GLU B   4     -13.120 -29.209 -11.342  1.00 32.62 LIG-0.65  OA
ATOM     60 OE1  GLU B   4     -14.486 -29.672 -12.999  1.00 32.75 LIG-0.65  OA
ENDBRANCH 57 58
ENDBRANCH 56 57
ENDBRANCH 34 56
ENDBRANCH 3 34
TORSDOF 22
ENDMDL
MODEL 73
USER: ADFR SOLUTION from run 41
USER: SCORE 17.203934 LL:  -5.648 LR: -13.590 RR:   0.000 FEB:  -7.028
USER: RMSD 8.101435
USER: SEED 40
USER: STATUS no improvement in best in 6 clusters for 5 generations
USER: GENES 24
USER: genes 0 Translation |==|  0.61354 0.44495 0.49524
USER: genes 1 Rotation |==|  0.64301 0.79729 0.26015 0.78921
USER: genes 2 Torsion [N]-C--CA-[N] |==|  0.31903
USER: genes 3 Torsion [C]-CA--N-[C] |==|  0.82427
USER: genes 4 Torsion [N]-C--CA-[N] |==|  0.88810
USER: genes 5 Torsion [C]-CA--CB-[CG] |==|  0.94736
USER: genes 6 Torsion [CA]-CB--CG-[CD] |==|  0.25981
USER: genes 7 Torsion [CB]-CG--CD-[NE] |==|  0.64236
USER: genes 8 Torsion [CG]-CD--NE-[CZ] |==|  0.34118
USER: genes 9 Torsion [C]-CA--N-[C] |==|  0.67183
USER: genes 10 Torsion [N]-C--CA-[N] |==|  0.28178
USER: genes 11 Torsion [C]-CA--N-[H2] |==|  0.20964
USER: genes 12 Torsion [C]-N--CA-[C] |==|  0.18742
USER: genes 13 Torsion [N]-CA--C-[N] |==|  0.02799
USER: genes 14 Torsion [C]-N--CA-[CB] |==|  0.22778
USER: genes 15 Torsion [N]-CA--CB-[CG2] |==|  0.09855
USER: genes 16 Torsion [N]-CA--C-[N] |==|  0.28459
USER: genes 17 Torsion [C]-N--CA-[C] |==|  0.50035
USER: genes 18 Torsion [N]-CA--C-[O] |==|  0.37541
USER: genes 19 Torsion [N]-CA--CB-[CG] |==|  0.67062
USER: genes 20 Torsion [CA]-CB--CG-[CD2] |==|  0.55036
USER: genes 21 Torsion [N]-CA--CB-[CG] |==|  0.28703
USER: genes 22 Torsion [CA]-CB--CG-[CD] |==|  0.41708
USER: genes 23 Torsion [CB]-CG--CD-[OE2] |==|  0.75388
ROOT
ATOM      1  C   ALA B   3     -13.092 -29.369  -5.150  1.00 17.17 LIG 0.24  C 
ATOM      2 O    ALA B   3     -13.884 -28.845  -4.365  1.00 18.54 LIG-0.27  OA
ATOM      3  N   GLU B   4     -13.161 -30.652  -5.497  1.00 17.89 LIG-0.35  N 
ATOM      4 H    GLU B   4     -12.614 -31.028  -6.043  1.00 17.89 LIG 0.16  HD
ENDROOT
BRANCH 1 5
ATOM      5  CA  ALA B   3     -11.966 -28.546  -5.775  1.00 15.99 LIG 0.17  C 
ATOM      6  CB  ALA B   3     -11.089 -27.945  -4.682  1.00 16.21 LIG 0.04  C 
BRANCH 5 7
ATOM      7  N   ALA B   3     -12.446 -27.491  -6.659  1.00 13.91 LIG-0.35  N 
ATOM      8  C   ARG B   2     -13.123 -27.769  -7.770  1.00 12.46 LIG 0.24  C 
ATOM      9 O    ARG B   2     -13.394 -28.919  -8.114  1.00 11.56 LIG-0.27  OA
ATOM     10 H    ALA B   3     -12.254 -26.694  -6.400  1.00 13.91 LIG 0.16  HD
BRANCH 8 11
ATOM     11  CA  ARG B   2     -13.560 -26.584  -8.625  1.00 12.24 LIG 0.18  C 
BRANCH 11 12
ATOM     12  CB  ARG B   2     -12.408 -26.152  -9.535  1.00 10.58 LIG 0.04  C 
BRANCH 12 13
ATOM     13  CG  ARG B   2     -11.034 -26.638  -9.096  1.00  9.71 LIG 0.02  C 
BRANCH 13 14
ATOM     14  CD  ARG B   2     -10.689 -27.948  -9.786  1.00  9.44 LIG 0.14  C 
BRANCH 14 15
ATOM     15  NE  ARG B   2     -10.262 -28.978  -8.840  1.00  9.23 LIG-0.23  N 
ATOM     16  CZ  ARG B   2     -10.841 -30.166  -8.712  1.00  9.20 LIG 0.67  C 
ATOM     17  NH1 ARG B   2     -11.881 -30.484  -9.472  1.00  7.63 LIG-0.23  N 
ATOM     18  NH2 ARG B   2     -10.379 -31.039  -7.825  1.00  9.31 LIG-0.23  N 
ATOM     19 1HH1 ARG B   2     -12.181 -29.920 -10.047  1.00  7.63 LIG 0.17  HD
ATOM     20 2HH1 ARG B   2     -12.256 -31.253  -9.388  1.00  7.63 LIG 0.17  HD
ATOM     21 2HH2 ARG B   2     -10.754 -31.808  -7.743  1.00  9.31 LIG 0.17  HD
ATOM     22 1HH2 ARG B   2      -9.704 -30.835  -7.333  1.00  9.31 LIG 0.17  HD
ATOM     23 HE   ARG B   2      -9.591 -28.802  -8.333  1.00  9.23 LIG 0.18  HD
ENDBRANCH 14 15
ENDBRANCH 13 14
ENDBRANCH 12 13
ENDBRANCH 11 12
BRANCH 11 24
ATOM     24  N   ARG B   2     -14.042 -25.424  -7.883  1.00 12.50 LIG-0.35  N 
ATOM     25  C   ALA B   1     -15.278 -24.950  -7.995  1.00 14.33 LIG 0.25  C 
ATOM     26 O    ALA B   1     -16.139 -25.467  -8.705  1.00 14.72 LIG-0.27  OA
ATOM     27 H    ARG B   2     -13.451 -25.075  -7.365  1.00 12.50 LIG 0.16  HD
BRANCH 25 28
ATOM     28  CA  ALA B   1     -15.585 -23.709  -7.163  1.00 14.93 LIG 0.27  C 
ATOM     29  CB  ALA B   1     -16.944 -23.850  -6.489  1.00 16.58 LIG 0.05  C 
BRANCH 28 30
ATOM     30  N   ALA B   1     -15.553 -22.479  -8.002  1.00 16.58 LIG-0.07  N 
ATOM     31 H3   ALA B   1     -15.511 -21.761  -7.477  1.00 16.58 LIG 0.28  HD
ATOM     32 H1   ALA B   1     -14.840 -22.500  -8.534  1.00 16.58 LIG 0.28  HD
ATOM     33 H2   ALA B   1     -16.291 -22.438  -8.498  1.00 16.58 LIG 0.28  HD
ENDBRANCH 28 30
ENDBRANCH 25 28
ENDBRANCH 11 24
ENDBRANCH 8 11
ENDBRANCH 5 7
ENDBRANCH 1 5
BRANCH 3 34
ATOM     34  CA  GLU B   4     -14.191 -31.544  -4.969  1.00 20.15 LIG 0.18  C 
BRANCH 34 35
ATOM     35  C   GLU B   4     -15.571 -31.149  -5.488  1.00 19.92 LIG 0.24  C 
ATOM     36  N   VAL B   5     -15.603 -30.241  -6.457  1.00 19.46 LIG-0.35  N 
ATOM     37 H    VAL B   5     -14.902 -29.875  -6.797  1.00 19.46 LIG 0.16  HD
ATOM     38 O    GLU B   4     -16.588 -31.665  -5.023  1.00 20.03 LIG-0.27  OA
BRANCH 36 39
ATOM     39  CA  VAL B   5     -16.864 -29.784  -7.034  1.00 20.09 LIG 0.18  C 
BRANCH 39 40
ATOM     40  CB  VAL B   5     -17.518 -28.691  -6.155  1.00 20.49 LIG 0.01  C 
ATOM     41  CG2 VAL B   5     -16.448 -27.809  -5.534  1.00 19.70 LIG 0.01  C 
ATOM     42  CG1 VAL B   5     -18.368 -29.332  -5.072  1.00 21.00 LIG 0.01  C 
ENDBRANCH 39 40
BRANCH 39 43
ATOM     43  C   VAL B   5     -16.662 -29.214  -8.435  1.00 20.75 LIG 0.24  C 
ATOM     44  N   HIS B   6     -17.010 -29.998  -9.452  1.00 20.78 LIG-0.35  N 
ATOM     45 H    HIS B   6     -17.323 -30.795  -9.361  1.00 20.78 LIG 0.16  HD
ATOM     46 O    VAL B   5     -16.193 -28.087  -8.593  1.00 21.91 LIG-0.27  OA
BRANCH 44 47
ATOM     47  CA  HIS B   6     -16.882 -29.552 -10.834  1.00 21.28 LIG 0.17  C 
BRANCH 47 48
ATOM     48  C   HIS B   6     -17.355 -30.650 -11.779  1.00 23.03 LIG 0.22  C 
ATOM     49 O    HIS B   6     -18.098 -30.331 -12.731  1.00 25.39 LIG-0.29  OA
ENDBRANCH 47 48
BRANCH 47 50
ATOM     50  CB  HIS B   6     -15.428 -29.198 -11.164  1.00 19.33 LIG 0.09  C 
BRANCH 50 51
ATOM     51  CG  HIS B   6     -15.233 -27.765 -11.557  1.00 17.39 LIG 0.06  A 
ATOM     52  CD2 HIS B   6     -14.221 -27.149 -12.211  1.00 16.59 LIG 0.14  A 
ATOM     53 NE2  HIS B   6     -14.567 -25.825 -12.341  1.00 16.70 LIG-0.25  NA
ATOM     54  CE1 HIS B   6     -15.749 -25.635 -11.784  1.00 16.06 LIG 0.23  A 
ATOM     55 ND1  HIS B   6     -16.174 -26.791 -11.303  1.00 16.09 LIG-0.24  NA
ENDBRANCH 50 51
ENDBRANCH 47 50
ENDBRANCH 44 47
ENDBRANCH 39 43
ENDBRANCH 36 39
ENDBRANCH 34 35
BRANCH 34 56
ATOM     56  CB  GLU B   4     -14.200 -31.496  -3.438  1.00 22.38 LIG 0.04  C 
BRANCH 56 57
ATOM     57  CG  GLU B   4     -15.332 -30.682  -2.838  1.00 27.64 LIG 0.12  C 
BRANCH 57 58
ATOM     58  CD  GLU B   4     -15.755 -31.201  -1.478  1.00 30.78 LIG 0.17  C 
ATOM     59 OE2  GLU B   4     -16.634 -32.088  -1.424  1.00 32.62 LIG-0.65  OA
ATOM     60 OE1  GLU B   4     -15.208 -30.721  -0.463  1.00 32.75 LIG-0.65  OA
ENDBRANCH 57 58
ENDBRANCH 56 57
ENDBRANCH 34 56
ENDBRANCH 3 34
TORSDOF 22
ENDMDL
MODEL 74
USER: ADFR SOLUTION from run 127
USER: SCORE 16.093959 LL:  -3.752 LR: -13.559 RR:   0.000 FEB:  -6.997
USER: RMSD 5.570080
USER: SEED 126
USER: STATUS no improvement in best in 27 clusters for 5 generations
USER: GENES 24
USER: genes 0 Translation |==|  0.39458 0.41217 0.52323
USER: genes 1 Rotation |==|  0.56876 0.33841 0.60561 0.95608
USER: genes 2 Torsion [N]-C--CA-[N] |==|  0.40977
USER: genes 3 Torsion [C]-CA--N-[C] |==|  0.85495
USER: genes 4 Torsion [N]-C--CA-[N] |==|  0.49966
USER: genes 5 Torsion [C]-CA--CB-[CG] |==|  0.35655
USER: genes 6 Torsion [CA]-CB--CG-[CD] |==|  0.07028
USER: genes 7 Torsion [CB]-CG--CD-[NE] |==|  0.59280
USER: genes 8 Torsion [CG]-CD--NE-[CZ] |==|  0.21405
USER: genes 9 Torsion [C]-CA--N-[C] |==|  0.16985
USER: genes 10 Torsion [N]-C--CA-[N] |==|  0.29862
USER: genes 11 Torsion [C]-CA--N-[H2] |==|  0.01370
USER: genes 12 Torsion [C]-N--CA-[C] |==|  0.80209
USER: genes 13 Torsion [N]-CA--C-[N] |==|  0.97211
USER: genes 14 Torsion [C]-N--CA-[CB] |==|  0.84959
USER: genes 15 Torsion [N]-CA--CB-[CG2] |==|  0.85101
USER: genes 16 Torsion [N]-CA--C-[N] |==|  0.41447
USER: genes 17 Torsion [C]-N--CA-[C] |==|  0.68971
USER: genes 18 Torsion [N]-CA--C-[O] |==|  0.91594
USER: genes 19 Torsion [N]-CA--CB-[CG] |==|  0.79084
USER: genes 20 Torsion [CA]-CB--CG-[CD2] |==|  0.04259
USER: genes 21 Torsion [N]-CA--CB-[CG] |==|  0.79156
USER: genes 22 Torsion [CA]-CB--CG-[CD] |==|  0.41790
USER: genes 23 Torsion [CB]-CG--CD-[OE2] |==|  0.74648
ROOT
ATOM      1  C   ALA B   3     -17.034 -30.131  -4.541  1.00 17.17 LIG 0.24  C 
ATOM      2 O    ALA B   3     -16.846 -30.690  -5.623  1.00 18.54 LIG-0.27  OA
ATOM      3  N   GLU B   4     -16.955 -30.769  -3.376  1.00 17.89 LIG-0.35  N 
ATOM      4 H    GLU B   4     -17.083 -30.390  -2.614  1.00 17.89 LIG 0.16  HD
ENDROOT
BRANCH 1 5
ATOM      5  CA  ALA B   3     -17.373 -28.642  -4.489  1.00 15.99 LIG 0.17  C 
ATOM      6  CB  ALA B   3     -18.886 -28.449  -4.528  1.00 16.21 LIG 0.04  C 
BRANCH 5 7
ATOM      7  N   ALA B   3     -16.749 -27.870  -5.557  1.00 13.91 LIG-0.35  N 
ATOM      8  C   ARG B   2     -15.442 -27.937  -5.789  1.00 12.46 LIG 0.24  C 
ATOM      9 O    ARG B   2     -14.684 -28.651  -5.134  1.00 11.56 LIG-0.27  OA
ATOM     10 H    ALA B   3     -17.294 -27.382  -6.009  1.00 13.91 LIG 0.16  HD
BRANCH 8 11
ATOM     11  CA  ARG B   2     -14.899 -27.072  -6.923  1.00 12.24 LIG 0.18  C 
BRANCH 11 12
ATOM     12  CB  ARG B   2     -15.633 -27.407  -8.223  1.00 10.58 LIG 0.04  C 
BRANCH 12 13
ATOM     13  CG  ARG B   2     -16.210 -26.205  -8.957  1.00  9.71 LIG 0.02  C 
BRANCH 13 14
ATOM     14  CD  ARG B   2     -15.434 -24.946  -8.603  1.00  9.44 LIG 0.14  C 
BRANCH 14 15
ATOM     15  NE  ARG B   2     -16.285 -23.758  -8.583  1.00  9.23 LIG-0.23  N 
ATOM     16  CZ  ARG B   2     -17.122 -23.449  -7.599  1.00  9.20 LIG 0.67  C 
ATOM     17  NH1 ARG B   2     -17.226 -24.245  -6.542  1.00  7.63 LIG-0.23  N 
ATOM     18  NH2 ARG B   2     -17.853 -22.344  -7.669  1.00  9.31 LIG-0.23  N 
ATOM     19 1HH1 ARG B   2     -16.753 -24.960  -6.495  1.00  7.63 LIG 0.17  HD
ATOM     20 2HH1 ARG B   2     -17.768 -24.044  -5.905  1.00  7.63 LIG 0.17  HD
ATOM     21 2HH2 ARG B   2     -18.394 -22.145  -7.031  1.00  9.31 LIG 0.17  HD
ATOM     22 1HH2 ARG B   2     -17.785 -21.826  -8.352  1.00  9.31 LIG 0.17  HD
ATOM     23 HE   ARG B   2     -16.242 -23.222  -9.254  1.00  9.23 LIG 0.18  HD
ENDBRANCH 14 15
ENDBRANCH 13 14
ENDBRANCH 12 13
ENDBRANCH 11 12
BRANCH 11 24
ATOM     24  N   ARG B   2     -13.461 -27.168  -7.148  1.00 12.50 LIG-0.35  N 
ATOM     25  C   ALA B   1     -12.851 -28.298  -7.485  1.00 14.33 LIG 0.25  C 
ATOM     26 O    ALA B   1     -13.446 -29.358  -7.675  1.00 14.72 LIG-0.27  OA
ATOM     27 H    ARG B   2     -13.045 -26.423  -7.041  1.00 12.50 LIG 0.16  HD
BRANCH 25 28
ATOM     28  CA  ALA B   1     -11.337 -28.206  -7.643  1.00 14.93 LIG 0.27  C 
ATOM     29  CB  ALA B   1     -10.908 -28.822  -8.969  1.00 16.58 LIG 0.05  C 
BRANCH 28 30
ATOM     30  N   ALA B   1     -10.636 -28.880  -6.515  1.00 16.58 LIG-0.07  N 
ATOM     31 H3   ALA B   1     -10.074 -29.491  -6.836  1.00 16.58 LIG 0.28  HD
ATOM     32 H1   ALA B   1     -10.182 -28.277  -6.045  1.00 16.58 LIG 0.28  HD
ATOM     33 H2   ALA B   1     -11.234 -29.277  -5.989  1.00 16.58 LIG 0.28  HD
ENDBRANCH 28 30
ENDBRANCH 25 28
ENDBRANCH 11 24
ENDBRANCH 8 11
ENDBRANCH 5 7
ENDBRANCH 1 5
BRANCH 3 34
ATOM     34  CA  GLU B   4     -16.637 -32.193  -3.290  1.00 20.15 LIG 0.18  C 
BRANCH 34 35
ATOM     35  C   GLU B   4     -17.804 -33.042  -3.790  1.00 19.92 LIG 0.24  C 
ATOM     36  N   VAL B   5     -18.949 -32.404  -4.011  1.00 19.46 LIG-0.35  N 
ATOM     37 H    VAL B   5     -19.061 -31.559  -3.890  1.00 19.46 LIG 0.16  HD
ATOM     38 O    GLU B   4     -17.665 -34.250  -3.979  1.00 20.03 LIG-0.27  OA
BRANCH 36 39
ATOM     39  CA  VAL B   5     -20.134 -33.109  -4.490  1.00 20.09 LIG 0.18  C 
BRANCH 39 40
ATOM     40  CB  VAL B   5     -19.830 -33.902  -5.783  1.00 20.49 LIG 0.01  C 
ATOM     41  CG2 VAL B   5     -19.216 -32.986  -6.826  1.00 19.70 LIG 0.01  C 
ATOM     42  CG1 VAL B   5     -21.102 -34.536  -6.318  1.00 21.00 LIG 0.01  C 
ENDBRANCH 39 40
BRANCH 39 43
ATOM     43  C   VAL B   5     -20.663 -34.085  -3.442  1.00 20.75 LIG 0.24  C 
ATOM     44  N   HIS B   6     -21.976 -34.300  -3.439  1.00 20.78 LIG-0.35  N 
ATOM     45 H    HIS B   6     -22.529 -33.917  -3.976  1.00 20.78 LIG 0.16  HD
ATOM     46 O    VAL B   5     -19.897 -34.628  -2.647  1.00 21.91 LIG-0.27  OA
BRANCH 44 47
ATOM     47  CA  HIS B   6     -22.592 -35.229  -2.498  1.00 21.28 LIG 0.17  C 
BRANCH 47 48
ATOM     48  C   HIS B   6     -23.126 -36.445  -3.245  1.00 23.03 LIG 0.22  C 
ATOM     49 O    HIS B   6     -23.515 -36.292  -4.422  1.00 25.39 LIG-0.29  OA
ENDBRANCH 47 48
BRANCH 47 50
ATOM     50  CB  HIS B   6     -23.743 -34.560  -1.741  1.00 19.33 LIG 0.09  C 
BRANCH 50 51
ATOM     51  CG  HIS B   6     -23.288 -33.608  -0.676  1.00 17.39 LIG 0.06  A 
ATOM     52  CD2 HIS B   6     -22.083 -33.036  -0.447  1.00 16.59 LIG 0.14  A 
ATOM     53 NE2  HIS B   6     -22.224 -32.214   0.646  1.00 16.70 LIG-0.25  NA
ATOM     54  CE1 HIS B   6     -23.472 -32.281   1.073  1.00 16.06 LIG 0.23  A 
ATOM     55 ND1  HIS B   6     -24.136 -33.116   0.292  1.00 16.09 LIG-0.24  NA
ENDBRANCH 50 51
ENDBRANCH 47 50
ENDBRANCH 44 47
ENDBRANCH 39 43
ENDBRANCH 36 39
ENDBRANCH 34 35
BRANCH 34 56
ATOM     56  CB  GLU B   4     -16.321 -32.580  -1.843  1.00 22.38 LIG 0.04  C 
BRANCH 56 57
ATOM     57  CG  GLU B   4     -14.958 -32.127  -1.351  1.00 27.64 LIG 0.12  C 
BRANCH 57 58
ATOM     58  CD  GLU B   4     -14.944 -31.866   0.143  1.00 30.78 LIG 0.17  C 
ATOM     59 OE2  GLU B   4     -15.197 -30.712   0.550  1.00 32.62 LIG-0.65  OA
ATOM     60 OE1  GLU B   4     -14.679 -32.816   0.909  1.00 32.75 LIG-0.65  OA
ENDBRANCH 57 58
ENDBRANCH 56 57
ENDBRANCH 34 56
ENDBRANCH 3 34
TORSDOF 22
ENDMDL
MODEL 75
USER: ADFR SOLUTION from run 185
USER: SCORE 17.416505 LL:  -5.255 LR: -13.548 RR:   0.000 FEB:  -6.985
USER: RMSD 8.890188
USER: SEED 184
USER: STATUS no improvement in best in 13 clusters for 5 generations
USER: GENES 24
USER: genes 0 Translation |==|  0.37661 0.54155 0.43518
USER: genes 1 Rotation |==|  0.95871 0.58064 0.67781 0.53832
USER: genes 2 Torsion [N]-C--CA-[N] |==|  0.92097
USER: genes 3 Torsion [C]-CA--N-[C] |==|  0.84395
USER: genes 4 Torsion [N]-C--CA-[N] |==|  0.92574
USER: genes 5 Torsion [C]-CA--CB-[CG] |==|  0.41155
USER: genes 6 Torsion [CA]-CB--CG-[CD] |==|  0.05457
USER: genes 7 Torsion [CB]-CG--CD-[NE] |==|  0.28650
USER: genes 8 Torsion [CG]-CD--NE-[CZ] |==|  0.57970
USER: genes 9 Torsion [C]-CA--N-[C] |==|  0.81868
USER: genes 10 Torsion [N]-C--CA-[N] |==|  0.47176
USER: genes 11 Torsion [C]-CA--N-[H2] |==|  0.10372
USER: genes 12 Torsion [C]-N--CA-[C] |==|  0.70556
USER: genes 13 Torsion [N]-CA--C-[N] |==|  0.94764
USER: genes 14 Torsion [C]-N--CA-[CB] |==|  0.26047
USER: genes 15 Torsion [N]-CA--CB-[CG2] |==|  0.01102
USER: genes 16 Torsion [N]-CA--C-[N] |==|  0.28995
USER: genes 17 Torsion [C]-N--CA-[C] |==|  0.53249
USER: genes 18 Torsion [N]-CA--C-[O] |==|  0.14899
USER: genes 19 Torsion [N]-CA--CB-[CG] |==|  0.51265
USER: genes 20 Torsion [CA]-CB--CG-[CD2] |==|  0.77635
USER: genes 21 Torsion [N]-CA--CB-[CG] |==|  0.62205
USER: genes 22 Torsion [CA]-CB--CG-[CD] |==|  0.30644
USER: genes 23 Torsion [CB]-CG--CD-[OE2] |==|  0.75653
ROOT
ATOM      1  C   ALA B   3     -17.357 -27.123  -6.456  1.00 17.17 LIG 0.24  C 
ATOM      2 O    ALA B   3     -18.510 -26.707  -6.583  1.00 18.54 LIG-0.27  OA
ATOM      3  N   GLU B   4     -16.303 -26.502  -6.980  1.00 17.89 LIG-0.35  N 
ATOM      4 H    GLU B   4     -15.494 -26.783  -6.898  1.00 17.89 LIG 0.16  HD
ENDROOT
BRANCH 1 5
ATOM      5  CA  ALA B   3     -17.080 -28.404  -5.670  1.00 15.99 LIG 0.17  C 
ATOM      6  CB  ALA B   3     -16.960 -28.089  -4.183  1.00 16.21 LIG 0.04  C 
BRANCH 5 7
ATOM      7  N   ALA B   3     -15.888 -29.112  -6.122  1.00 13.91 LIG-0.35  N 
ATOM      8  C   ARG B   2     -15.745 -29.493  -7.388  1.00 12.46 LIG 0.24  C 
ATOM      9 O    ARG B   2     -16.594 -29.269  -8.251  1.00 11.56 LIG-0.27  OA
ATOM     10 H    ALA B   3     -15.303 -29.254  -5.508  1.00 13.91 LIG 0.16  HD
BRANCH 8 11
ATOM     11  CA  ARG B   2     -14.463 -30.241  -7.741  1.00 12.24 LIG 0.18  C 
BRANCH 11 12
ATOM     12  CB  ARG B   2     -14.724 -31.749  -7.722  1.00 10.58 LIG 0.04  C 
BRANCH 12 13
ATOM     13  CG  ARG B   2     -13.894 -32.551  -8.714  1.00  9.71 LIG 0.02  C 
BRANCH 13 14
ATOM     14  CD  ARG B   2     -12.674 -31.755  -9.150  1.00  9.44 LIG 0.14  C 
BRANCH 14 15
ATOM     15  NE  ARG B   2     -11.450 -32.213  -8.494  1.00  9.23 LIG-0.23  N 
ATOM     16  CZ  ARG B   2     -10.401 -31.441  -8.240  1.00  9.20 LIG 0.67  C 
ATOM     17  NH1 ARG B   2     -10.418 -30.160  -8.587  1.00  7.63 LIG-0.23  N 
ATOM     18  NH2 ARG B   2      -9.333 -31.948  -7.636  1.00  9.31 LIG-0.23  N 
ATOM     19 1HH1 ARG B   2     -11.109 -29.831  -8.977  1.00  7.63 LIG 0.17  HD
ATOM     20 2HH1 ARG B   2      -9.738 -29.661  -8.422  1.00  7.63 LIG 0.17  HD
ATOM     21 2HH2 ARG B   2      -8.654 -31.446  -7.471  1.00  9.31 LIG 0.17  HD
ATOM     22 1HH2 ARG B   2      -9.320 -32.777  -7.409  1.00  9.31 LIG 0.17  HD
ATOM     23 HE   ARG B   2     -11.407 -33.038  -8.258  1.00  9.23 LIG 0.18  HD
ENDBRANCH 14 15
ENDBRANCH 13 14
ENDBRANCH 12 13
ENDBRANCH 11 12
BRANCH 11 24
ATOM     24  N   ARG B   2     -13.314 -29.944  -6.892  1.00 12.50 LIG-0.35  N 
ATOM     25  C   ALA B   1     -12.735 -28.751  -6.844  1.00 14.33 LIG 0.25  C 
ATOM     26 O    ALA B   1     -13.135 -27.777  -7.480  1.00 14.72 LIG-0.27  OA
ATOM     27 H    ARG B   2     -13.048 -30.615  -6.425  1.00 12.50 LIG 0.16  HD
BRANCH 25 28
ATOM     28  CA  ALA B   1     -11.525 -28.644  -5.921  1.00 14.93 LIG 0.27  C 
ATOM     29  CB  ALA B   1     -11.958 -28.784  -4.466  1.00 16.58 LIG 0.05  C 
BRANCH 28 30
ATOM     30  N   ALA B   1     -10.808 -27.354  -6.121  1.00 16.58 LIG-0.07  N 
ATOM     31 H3   ALA B   1     -10.336 -27.160  -5.392  1.00 16.58 LIG 0.28  HD
ATOM     32 H1   ALA B   1     -10.261 -27.424  -6.819  1.00 16.58 LIG 0.28  HD
ATOM     33 H2   ALA B   1     -11.399 -26.706  -6.272  1.00 16.58 LIG 0.28  HD
ENDBRANCH 28 30
ENDBRANCH 25 28
ENDBRANCH 11 24
ENDBRANCH 8 11
ENDBRANCH 5 7
ENDBRANCH 1 5
BRANCH 3 34
ATOM     34  CA  GLU B   4     -16.435 -25.268  -7.752  1.00 20.15 LIG 0.18  C 
BRANCH 34 35
ATOM     35  C   GLU B   4     -16.233 -25.535  -9.242  1.00 19.92 LIG 0.24  C 
ATOM     36  N   VAL B   5     -15.613 -26.665  -9.563  1.00 19.46 LIG-0.35  N 
ATOM     37 H    VAL B   5     -15.328 -27.238  -8.988  1.00 19.46 LIG 0.16  HD
ATOM     38 O    GLU B   4     -16.640 -24.734 -10.084  1.00 20.03 LIG-0.27  OA
BRANCH 36 39
ATOM     39  CA  VAL B   5     -15.362 -27.029 -10.955  1.00 20.09 LIG 0.18  C 
BRANCH 39 40
ATOM     40  CB  VAL B   5     -13.957 -26.568 -11.411  1.00 20.49 LIG 0.01  C 
ATOM     41  CG2 VAL B   5     -13.205 -25.954 -10.243  1.00 19.70 LIG 0.01  C 
ATOM     42  CG1 VAL B   5     -14.080 -25.567 -12.546  1.00 21.00 LIG 0.01  C 
ENDBRANCH 39 40
BRANCH 39 43
ATOM     43  C   VAL B   5     -15.462 -28.538 -11.163  1.00 20.75 LIG 0.24  C 
ATOM     44  N   HIS B   6     -16.563 -28.985 -11.761  1.00 20.78 LIG-0.35  N 
ATOM     45 H    HIS B   6     -17.211 -28.480 -12.018  1.00 20.78 LIG 0.16  HD
ATOM     46 O    VAL B   5     -14.561 -29.285 -10.783  1.00 21.91 LIG-0.27  OA
BRANCH 44 47
ATOM     47  CA  HIS B   6     -16.758 -30.405 -12.032  1.00 21.28 LIG 0.17  C 
BRANCH 47 48
ATOM     48  C   HIS B   6     -17.947 -30.595 -12.967  1.00 23.03 LIG 0.22  C 
ATOM     49 O    HIS B   6     -17.957 -29.964 -14.045  1.00 25.39 LIG-0.29  OA
ENDBRANCH 47 48
BRANCH 47 50
ATOM     50  CB  HIS B   6     -17.011 -31.181 -10.735  1.00 19.33 LIG 0.09  C 
BRANCH 50 51
ATOM     51  CG  HIS B   6     -17.112 -32.663 -10.933  1.00 17.39 LIG 0.06  A 
ATOM     52  CD2 HIS B   6     -18.138 -33.438 -11.357  1.00 16.59 LIG 0.14  A 
ATOM     53 NE2  HIS B   6     -17.681 -34.734 -11.389  1.00 16.70 LIG-0.25  NA
ATOM     54  CE1 HIS B   6     -16.420 -34.753 -10.997  1.00 16.06 LIG 0.23  A 
ATOM     55 ND1  HIS B   6     -16.052 -33.515 -10.716  1.00 16.09 LIG-0.24  NA
ENDBRANCH 50 51
ENDBRANCH 47 50
ENDBRANCH 44 47
ENDBRANCH 39 43
ENDBRANCH 36 39
ENDBRANCH 34 35
BRANCH 34 56
ATOM     56  CB  GLU B   4     -15.403 -24.238  -7.285  1.00 22.38 LIG 0.04  C 
BRANCH 56 57
ATOM     57  CG  GLU B   4     -15.946 -22.830  -7.122  1.00 27.64 LIG 0.12  C 
BRANCH 57 58
ATOM     58  CD  GLU B   4     -16.016 -22.406  -5.667  1.00 30.78 LIG 0.17  C 
ATOM     59 OE2  GLU B   4     -17.045 -22.679  -5.014  1.00 32.62 LIG-0.65  OA
ATOM     60 OE1  GLU B   4     -15.039 -21.798  -5.178  1.00 32.75 LIG-0.65  OA
ENDBRANCH 57 58
ENDBRANCH 56 57
ENDBRANCH 34 56
ENDBRANCH 3 34
TORSDOF 22
ENDMDL
MODEL 76
USER: ADFR SOLUTION from run 49
USER: SCORE 17.706476 LL:  -5.143 LR: -13.526 RR:   0.000 FEB:  -6.963
USER: RMSD 4.598457
USER: SEED 48
USER: STATUS no improvement in best in 20 clusters for 5 generations
USER: GENES 24
USER: genes 0 Translation |==|  0.37127 0.50948 0.44158
USER: genes 1 Rotation |==|  0.61581 0.79385 0.32212 0.84438
USER: genes 2 Torsion [N]-C--CA-[N] |==|  0.06713
USER: genes 3 Torsion [C]-CA--N-[C] |==|  0.16403
USER: genes 4 Torsion [N]-C--CA-[N] |==|  0.45712
USER: genes 5 Torsion [C]-CA--CB-[CG] |==|  0.26747
USER: genes 6 Torsion [CA]-CB--CG-[CD] |==|  0.03379
USER: genes 7 Torsion [CB]-CG--CD-[NE] |==|  0.63863
USER: genes 8 Torsion [CG]-CD--NE-[CZ] |==|  0.56931
USER: genes 9 Torsion [C]-CA--N-[C] |==|  0.56599
USER: genes 10 Torsion [N]-C--CA-[N] |==|  0.44963
USER: genes 11 Torsion [C]-CA--N-[H2] |==|  0.82348
USER: genes 12 Torsion [C]-N--CA-[C] |==|  0.80175
USER: genes 13 Torsion [N]-CA--C-[N] |==|  0.41819
USER: genes 14 Torsion [C]-N--CA-[CB] |==|  0.53333
USER: genes 15 Torsion [N]-CA--CB-[CG2] |==|  0.45835
USER: genes 16 Torsion [N]-CA--C-[N] |==|  0.31826
USER: genes 17 Torsion [C]-N--CA-[C] |==|  0.15923
USER: genes 18 Torsion [N]-CA--C-[O] |==|  0.11276
USER: genes 19 Torsion [N]-CA--CB-[CG] |==|  0.74174
USER: genes 20 Torsion [CA]-CB--CG-[CD2] |==|  0.77345
USER: genes 21 Torsion [N]-CA--CB-[CG] |==|  0.09790
USER: genes 22 Torsion [CA]-CB--CG-[CD] |==|  0.75153
USER: genes 23 Torsion [CB]-CG--CD-[OE2] |==|  0.40029
ROOT
ATOM      1  C   ALA B   3     -17.453 -27.869  -6.317  1.00 17.17 LIG 0.24  C 
ATOM      2 O    ALA B   3     -18.478 -27.642  -5.672  1.00 18.54 LIG-0.27  OA
ATOM      3  N   GLU B   4     -17.071 -29.097  -6.657  1.00 17.89 LIG-0.35  N 
ATOM      4 H    GLU B   4     -16.358 -29.268  -7.107  1.00 17.89 LIG 0.16  HD
ENDROOT
BRANCH 1 5
ATOM      5  CA  ALA B   3     -16.552 -26.719  -6.765  1.00 15.99 LIG 0.17  C 
ATOM      6  CB  ALA B   3     -17.391 -25.477  -7.049  1.00 16.21 LIG 0.04  C 
BRANCH 5 7
ATOM      7  N   ALA B   3     -15.740 -27.044  -7.932  1.00 13.91 LIG-0.35  N 
ATOM      8  C   ARG B   2     -16.296 -27.405  -9.085  1.00 12.46 LIG 0.24  C 
ATOM      9 O    ARG B   2     -17.514 -27.478  -9.244  1.00 11.56 LIG-0.27  OA
ATOM     10 H    ALA B   3     -14.892 -26.980  -7.805  1.00 13.91 LIG 0.16  HD
BRANCH 8 11
ATOM     11  CA  ARG B   2     -15.346 -27.737 -10.232  1.00 12.24 LIG 0.18  C 
BRANCH 11 12
ATOM     12  CB  ARG B   2     -14.697 -26.452 -10.752  1.00 10.58 LIG 0.04  C 
BRANCH 12 13
ATOM     13  CG  ARG B   2     -13.320 -26.155 -10.173  1.00  9.71 LIG 0.02  C 
BRANCH 13 14
ATOM     14  CD  ARG B   2     -12.785 -27.368  -9.430  1.00  9.44 LIG 0.14  C 
BRANCH 14 15
ATOM     15  NE  ARG B   2     -12.304 -27.031  -8.091  1.00  9.23 LIG-0.23  N 
ATOM     16  CZ  ARG B   2     -11.392 -27.726  -7.423  1.00  9.20 LIG 0.67  C 
ATOM     17  NH1 ARG B   2     -10.853 -28.810  -7.968  1.00  7.63 LIG-0.23  N 
ATOM     18  NH2 ARG B   2     -11.015 -27.339  -6.211  1.00  9.31 LIG-0.23  N 
ATOM     19 1HH1 ARG B   2     -11.095 -29.062  -8.753  1.00  7.63 LIG 0.17  HD
ATOM     20 2HH1 ARG B   2     -10.262 -29.260  -7.535  1.00  7.63 LIG 0.17  HD
ATOM     21 2HH2 ARG B   2     -10.424 -27.791  -5.780  1.00  9.31 LIG 0.17  HD
ATOM     22 1HH2 ARG B   2     -11.362 -26.637  -5.857  1.00  9.31 LIG 0.17  HD
ATOM     23 HE   ARG B   2     -12.634 -26.335  -7.710  1.00  9.23 LIG 0.18  HD
ENDBRANCH 14 15
ENDBRANCH 13 14
ENDBRANCH 12 13
ENDBRANCH 11 12
BRANCH 11 24
ATOM     24  N   ARG B   2     -15.946 -28.456 -11.351  1.00 12.50 LIG-0.35  N 
ATOM     25  C   ALA B   1     -15.247 -29.211 -12.189  1.00 14.33 LIG 0.25  C 
ATOM     26 O    ALA B   1     -14.037 -29.405 -12.078  1.00 14.72 LIG-0.27  OA
ATOM     27 H    ARG B   2     -16.796 -28.344 -11.416  1.00 12.50 LIG 0.16  HD
BRANCH 25 28
ATOM     28  CA  ALA B   1     -16.046 -29.856 -13.317  1.00 14.93 LIG 0.27  C 
ATOM     29  CB  ALA B   1     -16.853 -31.034 -12.784  1.00 16.58 LIG 0.05  C 
BRANCH 28 30
ATOM     30  N   ALA B   1     -15.153 -30.304 -14.421  1.00 16.58 LIG-0.07  N 
ATOM     31 H3   ALA B   1     -14.538 -30.861 -14.098  1.00 16.58 LIG 0.28  HD
ATOM     32 H1   ALA B   1     -15.635 -30.721 -15.042  1.00 16.58 LIG 0.28  HD
ATOM     33 H2   ALA B   1     -14.751 -29.598 -14.783  1.00 16.58 LIG 0.28  HD
ENDBRANCH 28 30
ENDBRANCH 25 28
ENDBRANCH 11 24
ENDBRANCH 8 11
ENDBRANCH 5 7
ENDBRANCH 1 5
BRANCH 3 34
ATOM     34  CA  GLU B   4     -17.846 -30.280  -6.290  1.00 20.15 LIG 0.18  C 
BRANCH 34 35
ATOM     35  C   GLU B   4     -17.739 -30.557  -4.792  1.00 19.92 LIG 0.24  C 
ATOM     36  N   VAL B   5     -18.782 -31.154  -4.223  1.00 19.46 LIG-0.35  N 
ATOM     37 H    VAL B   5     -19.494 -31.386  -4.647  1.00 19.46 LIG 0.16  HD
ATOM     38 O    GLU B   4     -16.727 -30.243  -4.166  1.00 20.03 LIG-0.27  OA
BRANCH 36 39
ATOM     39  CA  VAL B   5     -18.796 -31.470  -2.798  1.00 20.09 LIG 0.18  C 
BRANCH 39 40
ATOM     40  CB  VAL B   5     -19.969 -32.415  -2.445  1.00 20.49 LIG 0.01  C 
ATOM     41  CG2 VAL B   5     -19.758 -33.020  -1.068  1.00 19.70 LIG 0.01  C 
ATOM     42  CG1 VAL B   5     -20.089 -33.510  -3.491  1.00 21.00 LIG 0.01  C 
ENDBRANCH 39 40
BRANCH 39 43
ATOM     43  C   VAL B   5     -17.495 -32.139  -2.362  1.00 20.75 LIG 0.24  C 
ATOM     44  N   HIS B   6     -16.733 -31.459  -1.510  1.00 20.78 LIG-0.35  N 
ATOM     45 H    HIS B   6     -16.926 -30.677  -1.209  1.00 20.78 LIG 0.16  HD
ATOM     46 O    VAL B   5     -17.183 -33.248  -2.797  1.00 21.91 LIG-0.27  OA
BRANCH 44 47
ATOM     47  CA  HIS B   6     -15.478 -32.008  -1.008  1.00 21.28 LIG 0.17  C 
BRANCH 47 48
ATOM     48  C   HIS B   6     -14.557 -32.343  -2.175  1.00 23.03 LIG 0.22  C 
ATOM     49 O    HIS B   6     -14.505 -31.545  -3.135  1.00 25.39 LIG-0.29  OA
ENDBRANCH 47 48
BRANCH 47 50
ATOM     50  CB  HIS B   6     -15.724 -33.275  -0.184  1.00 19.33 LIG 0.09  C 
BRANCH 50 51
ATOM     51  CG  HIS B   6     -15.871 -33.017   1.285  1.00 17.39 LIG 0.06  A 
ATOM     52  CD2 HIS B   6     -14.944 -32.831   2.255  1.00 16.59 LIG 0.14  A 
ATOM     53 NE2  HIS B   6     -15.624 -32.596   3.426  1.00 16.70 LIG-0.25  NA
ATOM     54  CE1 HIS B   6     -16.922 -32.638   3.184  1.00 16.06 LIG 0.23  A 
ATOM     55 ND1  HIS B   6     -17.098 -32.890   1.898  1.00 16.09 LIG-0.24  NA
ENDBRANCH 50 51
ENDBRANCH 47 50
ENDBRANCH 44 47
ENDBRANCH 39 43
ENDBRANCH 36 39
ENDBRANCH 34 35
BRANCH 34 56
ATOM     56  CB  GLU B   4     -17.343 -31.504  -7.061  1.00 22.38 LIG 0.04  C 
BRANCH 56 57
ATOM     57  CG  GLU B   4     -15.845 -31.524  -7.305  1.00 27.64 LIG 0.12  C 
BRANCH 57 58
ATOM     58  CD  GLU B   4     -15.465 -30.834  -8.601  1.00 30.78 LIG 0.17  C 
ATOM     59 OE2  GLU B   4     -14.399 -30.183  -8.641  1.00 32.62 LIG-0.65  OA
ATOM     60 OE1  GLU B   4     -16.233 -30.944  -9.580  1.00 32.75 LIG-0.65  OA
ENDBRANCH 57 58
ENDBRANCH 56 57
ENDBRANCH 34 56
ENDBRANCH 3 34
TORSDOF 22
ENDMDL
MODEL 77
USER: ADFR SOLUTION from run 34
USER: SCORE 16.434536 LL:  -4.302 LR: -13.521 RR:   0.000 FEB:  -6.959
USER: RMSD 6.602917
USER: SEED 33
USER: STATUS no improvement in best in 5 clusters for 5 generations
USER: GENES 24
USER: genes 0 Translation |==|  0.61849 0.50395 0.23231
USER: genes 1 Rotation |==|  0.49067 0.77171 0.58798 0.91030
USER: genes 2 Torsion [N]-C--CA-[N] |==|  0.65968
USER: genes 3 Torsion [C]-CA--N-[C] |==|  0.61548
USER: genes 4 Torsion [N]-C--CA-[N] |==|  0.85649
USER: genes 5 Torsion [C]-CA--CB-[CG] |==|  0.36375
USER: genes 6 Torsion [CA]-CB--CG-[CD] |==|  0.32021
USER: genes 7 Torsion [CB]-CG--CD-[NE] |==|  0.25196
USER: genes 8 Torsion [CG]-CD--NE-[CZ] |==|  0.43599
USER: genes 9 Torsion [C]-CA--N-[C] |==|  0.83345
USER: genes 10 Torsion [N]-C--CA-[N] |==|  0.75698
USER: genes 11 Torsion [C]-CA--N-[H2] |==|  0.84603
USER: genes 12 Torsion [C]-N--CA-[C] |==|  0.79018
USER: genes 13 Torsion [N]-CA--C-[N] |==|  0.98184
USER: genes 14 Torsion [C]-N--CA-[CB] |==|  0.55003
USER: genes 15 Torsion [N]-CA--CB-[CG2] |==|  0.01161
USER: genes 16 Torsion [N]-CA--C-[N] |==|  0.29626
USER: genes 17 Torsion [C]-N--CA-[C] |==|  0.76164
USER: genes 18 Torsion [N]-CA--C-[O] |==|  0.06200
USER: genes 19 Torsion [N]-CA--CB-[CG] |==|  0.93187
USER: genes 20 Torsion [CA]-CB--CG-[CD2] |==|  0.76348
USER: genes 21 Torsion [N]-CA--CB-[CG] |==|  0.67486
USER: genes 22 Torsion [CA]-CB--CG-[CD] |==|  0.52953
USER: genes 23 Torsion [CB]-CG--CD-[OE2] |==|  0.06317
ROOT
ATOM      1  C   ALA B   3     -13.003 -27.997 -10.868  1.00 17.17 LIG 0.24  C 
ATOM      2 O    ALA B   3     -13.660 -29.006 -10.606  1.00 18.54 LIG-0.27  OA
ATOM      3  N   GLU B   4     -11.686 -28.022 -11.058  1.00 17.89 LIG-0.35  N 
ATOM      4 H    GLU B   4     -11.217 -27.325 -11.241  1.00 17.89 LIG 0.16  HD
ENDROOT
BRANCH 1 5
ATOM      5  CA  ALA B   3     -13.690 -26.638 -10.991  1.00 15.99 LIG 0.17  C 
ATOM      6  CB  ALA B   3     -12.665 -25.564 -11.340  1.00 16.21 LIG 0.04  C 
BRANCH 5 7
ATOM      7  N   ALA B   3     -14.422 -26.251  -9.791  1.00 13.91 LIG-0.35  N 
ATOM      8  C   ARG B   2     -15.620 -25.678  -9.863  1.00 12.46 LIG 0.24  C 
ATOM      9 O    ARG B   2     -16.186 -25.449 -10.931  1.00 11.56 LIG-0.27  OA
ATOM     10 H    ALA B   3     -14.015 -26.424  -9.054  1.00 13.91 LIG 0.16  HD
BRANCH 8 11
ATOM     11  CA  ARG B   2     -16.283 -25.302  -8.541  1.00 12.24 LIG 0.18  C 
BRANCH 11 12
ATOM     12  CB  ARG B   2     -15.561 -24.100  -7.927  1.00 10.58 LIG 0.04  C 
BRANCH 12 13
ATOM     13  CG  ARG B   2     -16.477 -22.971  -7.474  1.00  9.71 LIG 0.02  C 
BRANCH 13 14
ATOM     14  CD  ARG B   2     -16.403 -22.801  -5.966  1.00  9.44 LIG 0.14  C 
BRANCH 14 15
ATOM     15  NE  ARG B   2     -15.373 -21.845  -5.565  1.00  9.23 LIG-0.23  N 
ATOM     16  CZ  ARG B   2     -15.369 -21.184  -4.414  1.00  9.20 LIG 0.67  C 
ATOM     17  NH1 ARG B   2     -16.346 -21.371  -3.536  1.00  7.63 LIG-0.23  N 
ATOM     18  NH2 ARG B   2     -14.386 -20.336  -4.137  1.00  9.31 LIG-0.23  N 
ATOM     19 1HH1 ARG B   2     -16.983 -21.921  -3.714  1.00  7.63 LIG 0.17  HD
ATOM     20 2HH1 ARG B   2     -16.343 -20.943  -2.791  1.00  7.63 LIG 0.17  HD
ATOM     21 2HH2 ARG B   2     -14.384 -19.909  -3.390  1.00  9.31 LIG 0.17  HD
ATOM     22 1HH2 ARG B   2     -13.751 -20.214  -4.703  1.00  9.31 LIG 0.17  HD
ATOM     23 HE   ARG B   2     -14.726 -21.700  -6.112  1.00  9.23 LIG 0.18  HD
ENDBRANCH 14 15
ENDBRANCH 13 14
ENDBRANCH 12 13
ENDBRANCH 11 12
BRANCH 11 24
ATOM     24  N   ARG B   2     -16.356 -26.373  -7.553  1.00 12.50 LIG-0.35  N 
ATOM     25  C   ALA B   1     -16.991 -27.518  -7.767  1.00 14.33 LIG 0.25  C 
ATOM     26 O    ALA B   1     -17.545 -27.797  -8.829  1.00 14.72 LIG-0.27  OA
ATOM     27 H    ARG B   2     -15.947 -26.192  -6.818  1.00 12.50 LIG 0.16  HD
BRANCH 25 28
ATOM     28  CA  ALA B   1     -16.986 -28.502  -6.601  1.00 14.93 LIG 0.27  C 
ATOM     29  CB  ALA B   1     -17.052 -27.749  -5.277  1.00 16.58 LIG 0.05  C 
BRANCH 28 30
ATOM     30  N   ALA B   1     -15.777 -29.371  -6.637  1.00 16.58 LIG-0.07  N 
ATOM     31 H3   ALA B   1     -15.049 -28.872  -6.520  1.00 16.58 LIG 0.28  HD
ATOM     32 H1   ALA B   1     -15.828 -29.978  -5.988  1.00 16.58 LIG 0.28  HD
ATOM     33 H2   ALA B   1     -15.730 -29.782  -7.424  1.00 16.58 LIG 0.28  HD
ENDBRANCH 28 30
ENDBRANCH 25 28
ENDBRANCH 11 24
ENDBRANCH 8 11
ENDBRANCH 5 7
ENDBRANCH 1 5
BRANCH 3 34
ATOM     34  CA  GLU B   4     -10.913 -29.259 -10.968  1.00 20.15 LIG 0.18  C 
BRANCH 34 35
ATOM     35  C   GLU B   4     -10.724 -29.679  -9.512  1.00 19.92 LIG 0.24  C 
ATOM     36  N   VAL B   5     -11.151 -28.823  -8.588  1.00 19.46 LIG-0.35  N 
ATOM     37 H    VAL B   5     -11.517 -28.066  -8.767  1.00 19.46 LIG 0.16  HD
ATOM     38 O    GLU B   4     -10.210 -30.762  -9.232  1.00 20.03 LIG-0.27  OA
BRANCH 36 39
ATOM     39  CA  VAL B   5     -11.025 -29.114  -7.163  1.00 20.09 LIG 0.18  C 
BRANCH 39 40
ATOM     40  CB  VAL B   5     -11.966 -28.217  -6.324  1.00 20.49 LIG 0.01  C 
ATOM     41  CG2 VAL B   5     -12.826 -27.362  -7.237  1.00 19.70 LIG 0.01  C 
ATOM     42  CG1 VAL B   5     -11.153 -27.339  -5.389  1.00 21.00 LIG 0.01  C 
ENDBRANCH 39 40
BRANCH 39 43
ATOM     43  C   VAL B   5     -11.357 -30.573  -6.860  1.00 20.75 LIG 0.24  C 
ATOM     44  N   HIS B   6     -10.332 -31.367  -6.565  1.00 20.78 LIG-0.35  N 
ATOM     45 H    HIS B   6      -9.511 -31.109  -6.549  1.00 20.78 LIG 0.16  HD
ATOM     46 O    VAL B   5     -12.520 -30.973  -6.901  1.00 21.91 LIG-0.27  OA
BRANCH 44 47
ATOM     47  CA  HIS B   6     -10.531 -32.775  -6.238  1.00 21.28 LIG 0.17  C 
BRANCH 47 48
ATOM     48  C   HIS B   6     -10.839 -32.922  -4.753  1.00 23.03 LIG 0.22  C 
ATOM     49 O    HIS B   6     -11.293 -31.931  -4.142  1.00 25.39 LIG-0.29  OA
ENDBRANCH 47 48
BRANCH 47 50
ATOM     50  CB  HIS B   6      -9.284 -33.598  -6.576  1.00 19.33 LIG 0.09  C 
BRANCH 50 51
ATOM     51  CG  HIS B   6      -8.427 -32.981  -7.638  1.00 17.39 LIG 0.06  A 
ATOM     52  CD2 HIS B   6      -8.495 -33.046  -8.989  1.00 16.59 LIG 0.14  A 
ATOM     53 NE2  HIS B   6      -7.481 -32.262  -9.485  1.00 16.70 LIG-0.25  NA
ATOM     54  CE1 HIS B   6      -6.813 -31.736  -8.474  1.00 16.06 LIG 0.23  A 
ATOM     55 ND1  HIS B   6      -7.364 -32.154  -7.348  1.00 16.09 LIG-0.24  NA
ENDBRANCH 50 51
ENDBRANCH 47 50
ENDBRANCH 44 47
ENDBRANCH 39 43
ENDBRANCH 36 39
ENDBRANCH 34 35
BRANCH 34 56
ATOM     56  CB  GLU B   4      -9.538 -29.072 -11.616  1.00 22.38 LIG 0.04  C 
BRANCH 56 57
ATOM     57  CG  GLU B   4      -9.284 -29.956 -12.824  1.00 27.64 LIG 0.12  C 
BRANCH 57 58
ATOM     58  CD  GLU B   4      -7.834 -29.921 -13.267  1.00 30.78 LIG 0.17  C 
ATOM     59 OE2  GLU B   4      -6.963 -29.589 -12.435  1.00 32.62 LIG-0.65  OA
ATOM     60 OE1  GLU B   4      -7.566 -30.227 -14.448  1.00 32.75 LIG-0.65  OA
ENDBRANCH 57 58
ENDBRANCH 56 57
ENDBRANCH 34 56
ENDBRANCH 3 34
TORSDOF 22
ENDMDL
MODEL 78
USER: ADFR SOLUTION from run 156
USER: SCORE 17.563511 LL:  -5.477 LR: -13.515 RR:   0.000 FEB:  -6.952
USER: RMSD 8.849191
USER: SEED 155
USER: STATUS no improvement in best in 15 clusters for 5 generations
USER: GENES 24
USER: genes 0 Translation |==|  0.37347 0.56114 0.44663
USER: genes 1 Rotation |==|  0.97263 0.55029 0.65102 0.53582
USER: genes 2 Torsion [N]-C--CA-[N] |==|  0.92844
USER: genes 3 Torsion [C]-CA--N-[C] |==|  0.81037
USER: genes 4 Torsion [N]-C--CA-[N] |==|  0.96965
USER: genes 5 Torsion [C]-CA--CB-[CG] |==|  0.95927
USER: genes 6 Torsion [CA]-CB--CG-[CD] |==|  0.77859
USER: genes 7 Torsion [CB]-CG--CD-[NE] |==|  0.43410
USER: genes 8 Torsion [CG]-CD--NE-[CZ] |==|  0.61692
USER: genes 9 Torsion [C]-CA--N-[C] |==|  0.79893
USER: genes 10 Torsion [N]-C--CA-[N] |==|  0.38057
USER: genes 11 Torsion [C]-CA--N-[H2] |==|  0.72578
USER: genes 12 Torsion [C]-N--CA-[C] |==|  0.68923
USER: genes 13 Torsion [N]-CA--C-[N] |==|  0.94697
USER: genes 14 Torsion [C]-N--CA-[CB] |==|  0.25549
USER: genes 15 Torsion [N]-CA--CB-[CG2] |==|  0.57361
USER: genes 16 Torsion [N]-CA--C-[N] |==|  0.49787
USER: genes 17 Torsion [C]-N--CA-[C] |==|  0.22751
USER: genes 18 Torsion [N]-CA--C-[O] |==|  0.20177
USER: genes 19 Torsion [N]-CA--CB-[CG] |==|  0.82898
USER: genes 20 Torsion [CA]-CB--CG-[CD2] |==|  0.86782
USER: genes 21 Torsion [N]-CA--CB-[CG] |==|  0.62037
USER: genes 22 Torsion [CA]-CB--CG-[CD] |==|  0.24923
USER: genes 23 Torsion [CB]-CG--CD-[OE2] |==|  0.78026
ROOT
ATOM      1  C   ALA B   3     -17.414 -26.668  -6.207  1.00 17.17 LIG 0.24  C 
ATOM      2 O    ALA B   3     -18.511 -26.108  -6.190  1.00 18.54 LIG-0.27  OA
ATOM      3  N   GLU B   4     -16.352 -26.156  -6.826  1.00 17.89 LIG-0.35  N 
ATOM      4 H    GLU B   4     -15.581 -26.538  -6.845  1.00 17.89 LIG 0.16  HD
ENDROOT
BRANCH 1 5
ATOM      5  CA  ALA B   3     -17.218 -28.008  -5.499  1.00 15.99 LIG 0.17  C 
ATOM      6  CB  ALA B   3     -16.966 -27.781  -4.012  1.00 16.21 LIG 0.04  C 
BRANCH 5 7
ATOM      7  N   ALA B   3     -16.139 -28.808  -6.066  1.00 13.91 LIG-0.35  N 
ATOM      8  C   ARG B   2     -16.233 -29.337  -7.283  1.00 12.46 LIG 0.24  C 
ATOM      9 O    ARG B   2     -17.218 -29.181  -8.003  1.00 11.56 LIG-0.27  OA
ATOM     10 H    ALA B   3     -15.456 -28.901  -5.552  1.00 13.91 LIG 0.16  HD
BRANCH 8 11
ATOM     11  CA  ARG B   2     -15.048 -30.169  -7.764  1.00 12.24 LIG 0.18  C 
BRANCH 11 12
ATOM     12  CB  ARG B   2     -15.466 -31.636  -7.890  1.00 10.58 LIG 0.04  C 
BRANCH 12 13
ATOM     13  CG  ARG B   2     -16.778 -31.986  -7.202  1.00  9.71 LIG 0.02  C 
BRANCH 13 14
ATOM     14  CD  ARG B   2     -16.561 -32.166  -5.708  1.00  9.44 LIG 0.14  C 
BRANCH 14 15
ATOM     15  NE  ARG B   2     -17.786 -31.951  -4.940  1.00  9.23 LIG-0.23  N 
ATOM     16  CZ  ARG B   2     -17.848 -31.281  -3.796  1.00  9.20 LIG 0.67  C 
ATOM     17  NH1 ARG B   2     -16.747 -30.754  -3.275  1.00  7.63 LIG-0.23  N 
ATOM     18  NH2 ARG B   2     -19.010 -31.136  -3.171  1.00  9.31 LIG-0.23  N 
ATOM     19 1HH1 ARG B   2     -15.994 -30.846  -3.679  1.00  7.63 LIG 0.17  HD
ATOM     20 2HH1 ARG B   2     -16.788 -30.320  -2.533  1.00  7.63 LIG 0.17  HD
ATOM     21 2HH2 ARG B   2     -19.048 -30.701  -2.430  1.00  9.31 LIG 0.17  HD
ATOM     22 1HH2 ARG B   2     -19.724 -31.476  -3.507  1.00  9.31 LIG 0.17  HD
ATOM     23 HE   ARG B   2     -18.517 -32.281  -5.250  1.00  9.23 LIG 0.18  HD
ENDBRANCH 14 15
ENDBRANCH 13 14
ENDBRANCH 12 13
ENDBRANCH 11 12
BRANCH 11 24
ATOM     24  N   ARG B   2     -13.849 -30.083  -6.938  1.00 12.50 LIG-0.35  N 
ATOM     25  C   ALA B   1     -13.069 -29.009  -6.897  1.00 14.33 LIG 0.25  C 
ATOM     26 O    ALA B   1     -13.306 -27.977  -7.521  1.00 14.72 LIG-0.27  OA
ATOM     27 H    ARG B   2     -13.694 -30.793  -6.479  1.00 12.50 LIG 0.16  HD
BRANCH 25 28
ATOM     28  CA  ALA B   1     -11.841 -29.122  -5.999  1.00 14.93 LIG 0.27  C 
ATOM     29  CB  ALA B   1     -12.093 -28.416  -4.672  1.00 16.58 LIG 0.05  C 
BRANCH 28 30
ATOM     30  N   ALA B   1     -10.636 -28.552  -6.662  1.00 16.58 LIG-0.07  N 
ATOM     31 H3   ALA B   1     -10.888 -27.988  -7.303  1.00 16.58 LIG 0.28  HD
ATOM     32 H1   ALA B   1     -10.144 -28.117  -6.061  1.00 16.58 LIG 0.28  HD
ATOM     33 H2   ALA B   1     -10.155 -29.209  -7.019  1.00 16.58 LIG 0.28  HD
ENDBRANCH 28 30
ENDBRANCH 25 28
ENDBRANCH 11 24
ENDBRANCH 8 11
ENDBRANCH 5 7
ENDBRANCH 1 5
BRANCH 3 34
ATOM     34  CA  GLU B   4     -16.408 -24.882  -7.538  1.00 20.15 LIG 0.18  C 
BRANCH 34 35
ATOM     35  C   GLU B   4     -16.258 -25.092  -9.043  1.00 19.92 LIG 0.24  C 
ATOM     36  N   VAL B   5     -15.724 -26.247  -9.430  1.00 19.46 LIG-0.35  N 
ATOM     37 H    VAL B   5     -15.468 -26.864  -8.888  1.00 19.46 LIG 0.16  HD
ATOM     38 O    GLU B   4     -16.626 -24.227  -9.838  1.00 20.03 LIG-0.27  OA
BRANCH 36 39
ATOM     39  CA  VAL B   5     -15.530 -26.562 -10.842  1.00 20.09 LIG 0.18  C 
BRANCH 39 40
ATOM     40  CB  VAL B   5     -14.122 -26.136 -11.322  1.00 20.49 LIG 0.01  C 
ATOM     41  CG2 VAL B   5     -14.141 -25.852 -12.814  1.00 19.70 LIG 0.01  C 
ATOM     42  CG1 VAL B   5     -13.111 -27.225 -11.005  1.00 21.00 LIG 0.01  C 
ENDBRANCH 39 40
BRANCH 39 43
ATOM     43  C   VAL B   5     -15.695 -28.056 -11.108  1.00 20.75 LIG 0.24  C 
ATOM     44  N   HIS B   6     -15.554 -28.455 -12.369  1.00 20.78 LIG-0.35  N 
ATOM     45 H    HIS B   6     -15.391 -27.925 -13.027  1.00 20.78 LIG 0.16  HD
ATOM     46 O    VAL B   5     -15.952 -28.832 -10.188  1.00 21.91 LIG-0.27  OA
BRANCH 44 47
ATOM     47  CA  HIS B   6     -15.669 -29.861 -12.738  1.00 21.28 LIG 0.17  C 
BRANCH 47 48
ATOM     48  C   HIS B   6     -17.138 -30.239 -12.885  1.00 23.03 LIG 0.22  C 
ATOM     49 O    HIS B   6     -17.761 -29.814 -13.882  1.00 25.39 LIG-0.29  OA
ENDBRANCH 47 48
BRANCH 47 50
ATOM     50  CB  HIS B   6     -15.023 -30.761 -11.681  1.00 19.33 LIG 0.09  C 
BRANCH 50 51
ATOM     51  CG  HIS B   6     -13.555 -30.518 -11.501  1.00 17.39 LIG 0.06  A 
ATOM     52  CD2 HIS B   6     -12.554 -30.398 -12.405  1.00 16.59 LIG 0.14  A 
ATOM     53 NE2  HIS B   6     -11.401 -30.145 -11.702  1.00 16.70 LIG-0.25  NA
ATOM     54  CE1 HIS B   6     -11.684 -30.113 -10.412  1.00 16.06 LIG 0.23  A 
ATOM     55 ND1  HIS B   6     -12.978 -30.335 -10.264  1.00 16.09 LIG-0.24  NA
ENDBRANCH 50 51
ENDBRANCH 47 50
ENDBRANCH 44 47
ENDBRANCH 39 43
ENDBRANCH 36 39
ENDBRANCH 34 35
BRANCH 34 56
ATOM     56  CB  GLU B   4     -15.294 -23.952  -7.050  1.00 22.38 LIG 0.04  C 
BRANCH 56 57
ATOM     57  CG  GLU B   4     -15.725 -22.514  -6.824  1.00 27.64 LIG 0.12  C 
BRANCH 57 58
ATOM     58  CD  GLU B   4     -16.222 -22.278  -5.410  1.00 30.78 LIG 0.17  C 
ATOM     59 OE2  GLU B   4     -17.383 -22.636  -5.117  1.00 32.62 LIG-0.65  OA
ATOM     60 OE1  GLU B   4     -15.449 -21.734  -4.593  1.00 32.75 LIG-0.65  OA
ENDBRANCH 57 58
ENDBRANCH 56 57
ENDBRANCH 34 56
ENDBRANCH 3 34
TORSDOF 22
ENDMDL
MODEL 79
USER: ADFR SOLUTION from run 197
USER: SCORE 16.768722 LL:  -5.111 LR: -13.507 RR:   0.000 FEB:  -6.944
USER: RMSD 7.218727
USER: SEED 196
USER: STATUS no improvement in best in 6 clusters for 5 generations
USER: GENES 24
USER: genes 0 Translation |==|  0.36185 0.36928 0.50624
USER: genes 1 Rotation |==|  0.49872 0.01632 0.47913 0.62495
USER: genes 2 Torsion [N]-C--CA-[N] |==|  0.64989
USER: genes 3 Torsion [C]-CA--N-[C] |==|  0.16734
USER: genes 4 Torsion [N]-C--CA-[N] |==|  0.27553
USER: genes 5 Torsion [C]-CA--CB-[CG] |==|  0.20363
USER: genes 6 Torsion [CA]-CB--CG-[CD] |==|  0.45761
USER: genes 7 Torsion [CB]-CG--CD-[NE] |==|  0.65940
USER: genes 8 Torsion [CG]-CD--NE-[CZ] |==|  0.80493
USER: genes 9 Torsion [C]-CA--N-[C] |==|  0.67488
USER: genes 10 Torsion [N]-C--CA-[N] |==|  0.48654
USER: genes 11 Torsion [C]-CA--N-[H2] |==|  0.82894
USER: genes 12 Torsion [C]-N--CA-[C] |==|  0.84042
USER: genes 13 Torsion [N]-CA--C-[N] |==|  0.88062
USER: genes 14 Torsion [C]-N--CA-[CB] |==|  0.20556
USER: genes 15 Torsion [N]-CA--CB-[CG2] |==|  0.43238
USER: genes 16 Torsion [N]-CA--C-[N] |==|  0.83113
USER: genes 17 Torsion [C]-N--CA-[C] |==|  0.71880
USER: genes 18 Torsion [N]-CA--C-[O] |==|  0.79902
USER: genes 19 Torsion [N]-CA--CB-[CG] |==|  0.97362
USER: genes 20 Torsion [CA]-CB--CG-[CD2] |==|  0.22566
USER: genes 21 Torsion [N]-CA--CB-[CG] |==|  0.65596
USER: genes 22 Torsion [CA]-CB--CG-[CD] |==|  0.63505
USER: genes 23 Torsion [CB]-CG--CD-[OE2] |==|  0.99429
ROOT
ATOM      1  C   ALA B   3     -17.623 -31.128  -4.910  1.00 17.17 LIG 0.24  C 
ATOM      2 O    ALA B   3     -16.660 -31.871  -4.713  1.00 18.54 LIG-0.27  OA
ATOM      3  N   GLU B   4     -18.702 -31.509  -5.590  1.00 17.89 LIG-0.35  N 
ATOM      4 H    GLU B   4     -19.379 -30.999  -5.735  1.00 17.89 LIG 0.16  HD
ENDROOT
BRANCH 1 5
ATOM      5  CA  ALA B   3     -17.620 -29.699  -4.368  1.00 15.99 LIG 0.17  C 
ATOM      6  CB  ALA B   3     -18.888 -28.973  -4.803  1.00 16.21 LIG 0.04  C 
BRANCH 5 7
ATOM      7  N   ALA B   3     -16.448 -28.932  -4.772  1.00 13.91 LIG-0.35  N 
ATOM      8  C   ARG B   2     -16.174 -28.705  -6.053  1.00 12.46 LIG 0.24  C 
ATOM      9 O    ARG B   2     -16.886 -29.114  -6.969  1.00 11.56 LIG-0.27  OA
ATOM     10 H    ALA B   3     -15.965 -28.648  -4.119  1.00 13.91 LIG 0.16  HD
BRANCH 8 11
ATOM     11  CA  ARG B   2     -14.911 -27.904  -6.355  1.00 12.24 LIG 0.18  C 
BRANCH 11 12
ATOM     12  CB  ARG B   2     -15.201 -26.881  -7.456  1.00 10.58 LIG 0.04  C 
BRANCH 12 13
ATOM     13  CG  ARG B   2     -16.044 -25.693  -7.015  1.00  9.71 LIG 0.02  C 
BRANCH 13 14
ATOM     14  CD  ARG B   2     -15.961 -24.575  -8.042  1.00  9.44 LIG 0.14  C 
BRANCH 14 15
ATOM     15  NE  ARG B   2     -15.476 -23.324  -7.462  1.00  9.23 LIG-0.23  N 
ATOM     16  CZ  ARG B   2     -16.167 -22.572  -6.614  1.00  9.20 LIG 0.67  C 
ATOM     17  NH1 ARG B   2     -17.385 -22.941  -6.239  1.00  7.63 LIG-0.23  N 
ATOM     18  NH2 ARG B   2     -15.640 -21.451  -6.137  1.00  9.31 LIG-0.23  N 
ATOM     19 1HH1 ARG B   2     -17.727 -23.667  -6.546  1.00  7.63 LIG 0.17  HD
ATOM     20 2HH1 ARG B   2     -17.832 -22.453  -5.689  1.00  7.63 LIG 0.17  HD
ATOM     21 2HH2 ARG B   2     -16.088 -20.965  -5.587  1.00  9.31 LIG 0.17  HD
ATOM     22 1HH2 ARG B   2     -14.850 -21.211  -6.378  1.00  9.31 LIG 0.17  HD
ATOM     23 HE   ARG B   2     -14.690 -23.056  -7.686  1.00  9.23 LIG 0.18  HD
ENDBRANCH 14 15
ENDBRANCH 13 14
ENDBRANCH 12 13
ENDBRANCH 11 12
BRANCH 11 24
ATOM     24  N   ARG B   2     -13.745 -28.695  -6.733  1.00 12.50 LIG-0.35  N 
ATOM     25  C   ALA B   1     -12.626 -28.728  -6.019  1.00 14.33 LIG 0.25  C 
ATOM     26 O    ALA B   1     -12.483 -28.125  -4.957  1.00 14.72 LIG-0.27  OA
ATOM     27 H    ARG B   2     -13.851 -29.139  -7.461  1.00 12.50 LIG 0.16  HD
BRANCH 25 28
ATOM     28  CA  ALA B   1     -11.505 -29.588  -6.594  1.00 14.93 LIG 0.27  C 
ATOM     29  CB  ALA B   1     -11.942 -31.046  -6.663  1.00 16.58 LIG 0.05  C 
BRANCH 28 30
ATOM     30  N   ALA B   1     -10.262 -29.463  -5.782  1.00 16.58 LIG-0.07  N 
ATOM     31 H3   ALA B   1     -10.430 -29.706  -4.942  1.00 16.58 LIG 0.28  HD
ATOM     32 H1   ALA B   1      -9.631 -29.990  -6.122  1.00 16.58 LIG 0.28  HD
ATOM     33 H2   ALA B   1      -9.982 -28.619  -5.795  1.00 16.58 LIG 0.28  HD
ENDBRANCH 28 30
ENDBRANCH 25 28
ENDBRANCH 11 24
ENDBRANCH 8 11
ENDBRANCH 5 7
ENDBRANCH 1 5
BRANCH 3 34
ATOM     34  CA  GLU B   4     -18.827 -32.849  -6.160  1.00 20.15 LIG 0.18  C 
BRANCH 34 35
ATOM     35  C   GLU B   4     -17.674 -33.144  -7.116  1.00 19.92 LIG 0.24  C 
ATOM     36  N   VAL B   5     -17.329 -32.167  -7.948  1.00 19.46 LIG-0.35  N 
ATOM     37 H    VAL B   5     -17.712 -31.397  -7.972  1.00 19.46 LIG 0.16  HD
ATOM     38 O    GLU B   4     -17.104 -34.235  -7.093  1.00 20.03 LIG-0.27  OA
BRANCH 36 39
ATOM     39  CA  VAL B   5     -16.241 -32.332  -8.908  1.00 20.09 LIG 0.18  C 
BRANCH 39 40
ATOM     40  CB  VAL B   5     -16.665 -33.245 -10.083  1.00 20.49 LIG 0.01  C 
ATOM     41  CG2 VAL B   5     -15.823 -32.944 -11.310  1.00 19.70 LIG 0.01  C 
ATOM     42  CG1 VAL B   5     -18.139 -33.048 -10.391  1.00 21.00 LIG 0.01  C 
ENDBRANCH 39 40
BRANCH 39 43
ATOM     43  C   VAL B   5     -15.796 -30.989  -9.482  1.00 20.75 LIG 0.24  C 
ATOM     44  N   HIS B   6     -16.714 -30.294 -10.149  1.00 20.78 LIG-0.35  N 
ATOM     45 H    HIS B   6     -17.521 -30.563 -10.280  1.00 20.78 LIG 0.16  HD
ATOM     46 O    VAL B   5     -14.641 -30.594  -9.330  1.00 21.91 LIG-0.27  OA
BRANCH 44 47
ATOM     47  CA  HIS B   6     -16.409 -28.989 -10.723  1.00 21.28 LIG 0.17  C 
BRANCH 47 48
ATOM     48  C   HIS B   6     -16.962 -27.887  -9.827  1.00 23.03 LIG 0.22  C 
ATOM     49 O    HIS B   6     -18.199 -27.713  -9.800  1.00 25.39 LIG-0.29  OA
ENDBRANCH 47 48
BRANCH 47 50
ATOM     50  CB  HIS B   6     -17.016 -28.849 -12.123  1.00 19.33 LIG 0.09  C 
BRANCH 50 51
ATOM     51  CG  HIS B   6     -17.574 -30.130 -12.665  1.00 17.39 LIG 0.06  A 
ATOM     52  CD2 HIS B   6     -18.758 -30.750 -12.448  1.00 16.59 LIG 0.14  A 
ATOM     53 NE2  HIS B   6     -18.772 -31.883 -13.226  1.00 16.70 LIG-0.25  NA
ATOM     54  CE1 HIS B   6     -17.635 -31.957 -13.895  1.00 16.06 LIG 0.23  A 
ATOM     55 ND1  HIS B   6     -16.894 -30.910 -13.575  1.00 16.09 LIG-0.24  NA
ENDBRANCH 50 51
ENDBRANCH 47 50
ENDBRANCH 44 47
ENDBRANCH 39 43
ENDBRANCH 36 39
ENDBRANCH 34 35
BRANCH 34 56
ATOM     56  CB  GLU B   4     -20.151 -32.980  -6.918  1.00 22.38 LIG 0.04  C 
BRANCH 56 57
ATOM     57  CG  GLU B   4     -21.036 -34.121  -6.449  1.00 27.64 LIG 0.12  C 
BRANCH 57 58
ATOM     58  CD  GLU B   4     -21.545 -34.965  -7.602  1.00 30.78 LIG 0.17  C 
ATOM     59 OE2  GLU B   4     -21.236 -34.633  -8.767  1.00 32.62 LIG-0.65  OA
ATOM     60 OE1  GLU B   4     -22.254 -35.960  -7.343  1.00 32.75 LIG-0.65  OA
ENDBRANCH 57 58
ENDBRANCH 56 57
ENDBRANCH 34 56
ENDBRANCH 3 34
TORSDOF 22
ENDMDL
MODEL 80
USER: ADFR SOLUTION from run 104
USER: SCORE 16.301813 LL:  -4.500 LR: -13.484 RR:   0.000 FEB:  -6.921
USER: RMSD 9.694388
USER: SEED 103
USER: STATUS no improvement in best in 5 clusters for 5 generations
USER: GENES 24
USER: genes 0 Translation |==|  0.40995 0.39077 0.40465
USER: genes 1 Rotation |==|  0.34938 0.93672 0.68417 0.55171
USER: genes 2 Torsion [N]-C--CA-[N] |==|  0.30850
USER: genes 3 Torsion [C]-CA--N-[C] |==|  0.88265
USER: genes 4 Torsion [N]-C--CA-[N] |==|  0.07344
USER: genes 5 Torsion [C]-CA--CB-[CG] |==|  0.23543
USER: genes 6 Torsion [CA]-CB--CG-[CD] |==|  0.58679
USER: genes 7 Torsion [CB]-CG--CD-[NE] |==|  0.23776
USER: genes 8 Torsion [CG]-CD--NE-[CZ] |==|  0.33462
USER: genes 9 Torsion [C]-CA--N-[C] |==|  0.62778
USER: genes 10 Torsion [N]-C--CA-[N] |==|  0.91485
USER: genes 11 Torsion [C]-CA--N-[H2] |==|  0.27161
USER: genes 12 Torsion [C]-N--CA-[C] |==|  0.73810
USER: genes 13 Torsion [N]-CA--C-[N] |==|  0.95580
USER: genes 14 Torsion [C]-N--CA-[CB] |==|  0.24106
USER: genes 15 Torsion [N]-CA--CB-[CG2] |==|  0.57701
USER: genes 16 Torsion [N]-CA--C-[N] |==|  0.94462
USER: genes 17 Torsion [C]-N--CA-[C] |==|  0.47594
USER: genes 18 Torsion [N]-CA--C-[O] |==|  0.11694
USER: genes 19 Torsion [N]-CA--CB-[CG] |==|  0.53965
USER: genes 20 Torsion [CA]-CB--CG-[CD2] |==|  0.25117
USER: genes 21 Torsion [N]-CA--CB-[CG] |==|  0.30552
USER: genes 22 Torsion [CA]-CB--CG-[CD] |==|  0.55123
USER: genes 23 Torsion [CB]-CG--CD-[OE2] |==|  0.04497
ROOT
ATOM      1  C   ALA B   3     -16.757 -30.629  -7.120  1.00 17.17 LIG 0.24  C 
ATOM      2 O    ALA B   3     -15.720 -31.173  -6.737  1.00 18.54 LIG-0.27  OA
ATOM      3  N   GLU B   4     -17.019 -30.396  -8.404  1.00 17.89 LIG-0.35  N 
ATOM      4 H    GLU B   4     -17.738 -30.016  -8.683  1.00 17.89 LIG 0.16  HD
ENDROOT
BRANCH 1 5
ATOM      5  CA  ALA B   3     -17.815 -30.185  -6.110  1.00 15.99 LIG 0.17  C 
ATOM      6  CB  ALA B   3     -17.185 -29.277  -5.059  1.00 16.21 LIG 0.04  C 
BRANCH 5 7
ATOM      7  N   ALA B   3     -18.494 -31.298  -5.459  1.00 13.91 LIG-0.35  N 
ATOM      8  C   ARG B   2     -18.880 -32.372  -6.142  1.00 12.46 LIG 0.24  C 
ATOM      9 O    ARG B   2     -18.683 -32.499  -7.350  1.00 11.56 LIG-0.27  OA
ATOM     10 H    ALA B   3     -18.617 -31.196  -4.614  1.00 13.91 LIG 0.16  HD
BRANCH 8 11
ATOM     11  CA  ARG B   2     -19.596 -33.466  -5.357  1.00 12.24 LIG 0.18  C 
BRANCH 11 12
ATOM     12  CB  ARG B   2     -20.579 -34.199  -6.273  1.00 10.58 LIG 0.04  C 
BRANCH 12 13
ATOM     13  CG  ARG B   2     -19.966 -35.323  -7.096  1.00  9.71 LIG 0.02  C 
BRANCH 13 14
ATOM     14  CD  ARG B   2     -20.690 -35.463  -8.425  1.00  9.44 LIG 0.14  C 
BRANCH 14 15
ATOM     15  NE  ARG B   2     -20.160 -34.558  -9.444  1.00  9.23 LIG-0.23  N 
ATOM     16  CZ  ARG B   2     -19.639 -34.951 -10.600  1.00  9.20 LIG 0.67  C 
ATOM     17  NH1 ARG B   2     -19.573 -36.243 -10.893  1.00  7.63 LIG-0.23  N 
ATOM     18  NH2 ARG B   2     -19.185 -34.053 -11.465  1.00  9.31 LIG-0.23  N 
ATOM     19 1HH1 ARG B   2     -19.867 -36.826 -10.334  1.00  7.63 LIG 0.17  HD
ATOM     20 2HH1 ARG B   2     -19.235 -36.497 -11.642  1.00  7.63 LIG 0.17  HD
ATOM     21 2HH2 ARG B   2     -18.848 -34.309 -12.213  1.00  9.31 LIG 0.17  HD
ATOM     22 1HH2 ARG B   2     -19.228 -33.215 -11.277  1.00  9.31 LIG 0.17  HD
ATOM     23 HE   ARG B   2     -20.187 -33.714  -9.283  1.00  9.23 LIG 0.18  HD
ENDBRANCH 14 15
ENDBRANCH 13 14
ENDBRANCH 12 13
ENDBRANCH 11 12
BRANCH 11 24
ATOM     24  N   ARG B   2     -20.301 -33.017  -4.162  1.00 12.50 LIG-0.35  N 
ATOM     25  C   ALA B   1     -20.217 -33.638  -2.991  1.00 14.33 LIG 0.25  C 
ATOM     26 O    ALA B   1     -19.509 -34.625  -2.798  1.00 14.72 LIG-0.27  OA
ATOM     27 H    ARG B   2     -20.776 -32.311  -4.286  1.00 12.50 LIG 0.16  HD
BRANCH 25 28
ATOM     28  CA  ALA B   1     -21.054 -33.037  -1.866  1.00 14.93 LIG 0.27  C 
ATOM     29  CB  ALA B   1     -22.424 -33.701  -1.817  1.00 16.58 LIG 0.05  C 
BRANCH 28 30
ATOM     30  N   ALA B   1     -21.202 -31.565  -2.034  1.00 16.58 LIG-0.07  N 
ATOM     31 H3   ALA B   1     -21.170 -31.170  -1.237  1.00 16.58 LIG 0.28  HD
ATOM     32 H1   ALA B   1     -20.542 -31.256  -2.545  1.00 16.58 LIG 0.28  HD
ATOM     33 H2   ALA B   1     -21.983 -31.387  -2.421  1.00 16.58 LIG 0.28  HD
ENDBRANCH 28 30
ENDBRANCH 25 28
ENDBRANCH 11 24
ENDBRANCH 8 11
ENDBRANCH 5 7
ENDBRANCH 1 5
BRANCH 3 34
ATOM     34  CA  GLU B   4     -16.089 -30.773  -9.466  1.00 20.15 LIG 0.18  C 
BRANCH 34 35
ATOM     35  C   GLU B   4     -15.179 -29.603  -9.833  1.00 19.92 LIG 0.24  C 
ATOM     36  N   VAL B   5     -15.560 -28.401  -9.414  1.00 19.46 LIG-0.35  N 
ATOM     37 H    VAL B   5     -16.275 -28.255  -8.959  1.00 19.46 LIG 0.16  HD
ATOM     38 O    GLU B   4     -14.146 -29.789 -10.476  1.00 20.03 LIG-0.27  OA
BRANCH 36 39
ATOM     39  CA  VAL B   5     -14.772 -27.207  -9.703  1.00 20.09 LIG 0.18  C 
BRANCH 39 40
ATOM     40  CB  VAL B   5     -15.154 -26.603 -11.076  1.00 20.49 LIG 0.01  C 
ATOM     41  CG2 VAL B   5     -13.970 -25.858 -11.668  1.00 19.70 LIG 0.01  C 
ATOM     42  CG1 VAL B   5     -16.342 -25.669 -10.923  1.00 21.00 LIG 0.01  C 
ENDBRANCH 39 40
BRANCH 39 43
ATOM     43  C   VAL B   5     -14.972 -26.134  -8.636  1.00 20.75 LIG 0.24  C 
ATOM     44  N   HIS B   6     -16.067 -26.238  -7.888  1.00 20.78 LIG-0.35  N 
ATOM     45 H    HIS B   6     -16.658 -26.856  -7.981  1.00 20.78 LIG 0.16  HD
ATOM     46 O    VAL B   5     -14.154 -25.225  -8.498  1.00 21.91 LIG-0.27  OA
BRANCH 44 47
ATOM     47  CA  HIS B   6     -16.353 -25.282  -6.823  1.00 21.28 LIG 0.17  C 
BRANCH 47 48
ATOM     48  C   HIS B   6     -17.759 -25.515  -6.282  1.00 23.03 LIG 0.22  C 
ATOM     49 O    HIS B   6     -18.136 -26.693  -6.104  1.00 25.39 LIG-0.29  OA
ENDBRANCH 47 48
BRANCH 47 50
ATOM     50  CB  HIS B   6     -16.244 -23.843  -7.334  1.00 19.33 LIG 0.09  C 
BRANCH 50 51
ATOM     51  CG  HIS B   6     -16.188 -22.820  -6.240  1.00 17.39 LIG 0.06  A 
ATOM     52  CD2 HIS B   6     -15.139 -22.278  -5.578  1.00 16.59 LIG 0.14  A 
ATOM     53 NE2  HIS B   6     -15.649 -21.359  -4.692  1.00 16.70 LIG-0.25  NA
ATOM     54  CE1 HIS B   6     -16.964 -21.340  -4.804  1.00 16.06 LIG 0.23  A 
ATOM     55 ND1  HIS B   6     -17.316 -22.213  -5.732  1.00 16.09 LIG-0.24  NA
ENDBRANCH 50 51
ENDBRANCH 47 50
ENDBRANCH 44 47
ENDBRANCH 39 43
ENDBRANCH 36 39
ENDBRANCH 34 35
BRANCH 34 56
ATOM     56  CB  GLU B   4     -16.860 -31.216 -10.712  1.00 22.38 LIG 0.04  C 
BRANCH 56 57
ATOM     57  CG  GLU B   4     -16.771 -30.256 -11.885  1.00 27.64 LIG 0.12  C 
BRANCH 57 58
ATOM     58  CD  GLU B   4     -17.870 -30.488 -12.903  1.00 30.78 LIG 0.17  C 
ATOM     59 OE2  GLU B   4     -18.863 -31.168 -12.566  1.00 32.62 LIG-0.65  OA
ATOM     60 OE1  GLU B   4     -17.740 -29.990 -14.041  1.00 32.75 LIG-0.65  OA
ENDBRANCH 57 58
ENDBRANCH 56 57
ENDBRANCH 34 56
ENDBRANCH 3 34
TORSDOF 22
ENDMDL
MODEL 81
USER: ADFR SOLUTION from run 41
USER: SCORE 17.699803 LL:  -5.503 LR: -13.463 RR:   0.000 FEB:  -6.900
USER: RMSD 7.967571
USER: SEED 40
USER: STATUS no improvement in best in 6 clusters for 5 generations
USER: GENES 24
USER: genes 0 Translation |==|  0.61290 0.44442 0.49272
USER: genes 1 Rotation |==|  0.65155 0.80561 0.26835 0.78279
USER: genes 2 Torsion [N]-C--CA-[N] |==|  0.30815
USER: genes 3 Torsion [C]-CA--N-[C] |==|  0.82538
USER: genes 4 Torsion [N]-C--CA-[N] |==|  0.89351
USER: genes 5 Torsion [C]-CA--CB-[CG] |==|  0.94451
USER: genes 6 Torsion [CA]-CB--CG-[CD] |==|  0.25699
USER: genes 7 Torsion [CB]-CG--CD-[NE] |==|  0.64593
USER: genes 8 Torsion [CG]-CD--NE-[CZ] |==|  0.33879
USER: genes 9 Torsion [C]-CA--N-[C] |==|  0.67223
USER: genes 10 Torsion [N]-C--CA-[N] |==|  0.28557
USER: genes 11 Torsion [C]-CA--N-[H2] |==|  0.21246
USER: genes 12 Torsion [C]-N--CA-[C] |==|  0.17457
USER: genes 13 Torsion [N]-CA--C-[N] |==|  0.07690
USER: genes 14 Torsion [C]-N--CA-[CB] |==|  0.19444
USER: genes 15 Torsion [N]-CA--CB-[CG2] |==|  0.08208
USER: genes 16 Torsion [N]-CA--C-[N] |==|  0.12634
USER: genes 17 Torsion [C]-N--CA-[C] |==|  0.18764
USER: genes 18 Torsion [N]-CA--C-[O] |==|  0.57646
USER: genes 19 Torsion [N]-CA--CB-[CG] |==|  0.71920
USER: genes 20 Torsion [CA]-CB--CG-[CD2] |==|  0.18621
USER: genes 21 Torsion [N]-CA--CB-[CG] |==|  0.73953
USER: genes 22 Torsion [CA]-CB--CG-[CD] |==|  0.17539
USER: genes 23 Torsion [CB]-CG--CD-[OE2] |==|  0.09854
ROOT
ATOM      1  C   ALA B   3     -13.104 -29.381  -5.204  1.00 17.17 LIG 0.24  C 
ATOM      2 O    ALA B   3     -13.887 -28.905  -4.382  1.00 18.54 LIG-0.27  OA
ATOM      3  N   GLU B   4     -13.181 -30.640  -5.630  1.00 17.89 LIG-0.35  N 
ATOM      4 H    GLU B   4     -12.640 -30.983  -6.204  1.00 17.89 LIG 0.16  HD
ENDROOT
BRANCH 1 5
ATOM      5  CA  ALA B   3     -11.980 -28.525  -5.787  1.00 15.99 LIG 0.17  C 
ATOM      6  CB  ALA B   3     -11.148 -27.918  -4.662  1.00 16.21 LIG 0.04  C 
BRANCH 5 7
ATOM      7  N   ALA B   3     -12.458 -27.470  -6.672  1.00 13.91 LIG-0.35  N 
ATOM      8  C   ARG B   2     -13.103 -27.750  -7.801  1.00 12.46 LIG 0.24  C 
ATOM      9 O    ARG B   2     -13.344 -28.901  -8.163  1.00 11.56 LIG-0.27  OA
ATOM     10 H    ALA B   3     -12.287 -26.672  -6.400  1.00 13.91 LIG 0.16  HD
BRANCH 8 11
ATOM     11  CA  ARG B   2     -13.542 -26.564  -8.654  1.00 12.24 LIG 0.18  C 
BRANCH 11 12
ATOM     12  CB  ARG B   2     -12.392 -26.133  -9.568  1.00 10.58 LIG 0.04  C 
BRANCH 12 13
ATOM     13  CG  ARG B   2     -11.014 -26.599  -9.119  1.00  9.71 LIG 0.02  C 
BRANCH 13 14
ATOM     14  CD  ARG B   2     -10.665 -27.926  -9.772  1.00  9.44 LIG 0.14  C 
BRANCH 14 15
ATOM     15  NE  ARG B   2     -10.259 -28.935  -8.795  1.00  9.23 LIG-0.23  N 
ATOM     16  CZ  ARG B   2     -10.855 -30.110  -8.636  1.00  9.20 LIG 0.67  C 
ATOM     17  NH1 ARG B   2     -11.896 -30.434  -9.393  1.00  7.63 LIG-0.23  N 
ATOM     18  NH2 ARG B   2     -10.411 -30.964  -7.722  1.00  9.31 LIG-0.23  N 
ATOM     19 1HH1 ARG B   2     -12.184 -29.883  -9.986  1.00  7.63 LIG 0.17  HD
ATOM     20 2HH1 ARG B   2     -12.282 -31.195  -9.290  1.00  7.63 LIG 0.17  HD
ATOM     21 2HH2 ARG B   2     -10.799 -31.725  -7.621  1.00  9.31 LIG 0.17  HD
ATOM     22 1HH2 ARG B   2      -9.736 -30.756  -7.232  1.00  9.31 LIG 0.17  HD
ATOM     23 HE   ARG B   2      -9.588 -28.755  -8.288  1.00  9.23 LIG 0.18  HD
ENDBRANCH 14 15
ENDBRANCH 13 14
ENDBRANCH 12 13
ENDBRANCH 11 12
BRANCH 11 24
ATOM     24  N   ARG B   2     -14.022 -25.404  -7.911  1.00 12.50 LIG-0.35  N 
ATOM     25  C   ALA B   1     -15.258 -24.932  -8.018  1.00 14.33 LIG 0.25  C 
ATOM     26 O    ALA B   1     -16.122 -25.449  -8.724  1.00 14.72 LIG-0.27  OA
ATOM     27 H    ARG B   2     -13.429 -25.054  -7.396  1.00 12.50 LIG 0.16  HD
BRANCH 25 28
ATOM     28  CA  ALA B   1     -15.563 -23.690  -7.186  1.00 14.93 LIG 0.27  C 
ATOM     29  CB  ALA B   1     -16.903 -23.846  -6.478  1.00 16.58 LIG 0.05  C 
BRANCH 28 30
ATOM     30  N   ALA B   1     -15.568 -22.464  -8.031  1.00 16.58 LIG-0.07  N 
ATOM     31 H3   ALA B   1     -15.508 -21.744  -7.511  1.00 16.58 LIG 0.28  HD
ATOM     32 H1   ALA B   1     -14.876 -22.486  -8.590  1.00 16.58 LIG 0.28  HD
ATOM     33 H2   ALA B   1     -16.325 -22.429  -8.499  1.00 16.58 LIG 0.28  HD
ENDBRANCH 28 30
ENDBRANCH 25 28
ENDBRANCH 11 24
ENDBRANCH 8 11
ENDBRANCH 5 7
ENDBRANCH 1 5
BRANCH 3 34
ATOM     34  CA  GLU B   4     -14.210 -31.560  -5.150  1.00 20.15 LIG 0.18  C 
BRANCH 34 35
ATOM     35  C   GLU B   4     -15.603 -31.066  -5.534  1.00 19.92 LIG 0.24  C 
ATOM     36  N   VAL B   5     -15.686 -30.317  -6.629  1.00 19.46 LIG-0.35  N 
ATOM     37 H    VAL B   5     -15.011 -30.103  -7.118  1.00 19.46 LIG 0.16  HD
ATOM     38 O    GLU B   4     -16.585 -31.367  -4.855  1.00 20.03 LIG-0.27  OA
BRANCH 36 39
ATOM     39  CA  VAL B   5     -16.964 -29.787  -7.096  1.00 20.09 LIG 0.18  C 
BRANCH 39 40
ATOM     40  CB  VAL B   5     -17.494 -28.686  -6.147  1.00 20.49 LIG 0.01  C 
ATOM     41  CG2 VAL B   5     -16.334 -27.967  -5.481  1.00 19.70 LIG 0.01  C 
ATOM     42  CG1 VAL B   5     -18.409 -29.297  -5.099  1.00 21.00 LIG 0.01  C 
ENDBRANCH 39 40
BRANCH 39 43
ATOM     43  C   VAL B   5     -16.843 -29.194  -8.497  1.00 20.75 LIG 0.24  C 
ATOM     44  N   HIS B   6     -16.176 -29.916  -9.393  1.00 20.78 LIG-0.35  N 
ATOM     45 H    HIS B   6     -15.808 -30.675  -9.223  1.00 20.78 LIG 0.16  HD
ATOM     46 O    VAL B   5     -17.339 -28.099  -8.759  1.00 21.91 LIG-0.27  OA
BRANCH 44 47
ATOM     47  CA  HIS B   6     -16.014 -29.460 -10.769  1.00 21.28 LIG 0.17  C 
BRANCH 47 48
ATOM     48  C   HIS B   6     -15.120 -28.226 -10.803  1.00 23.03 LIG 0.22  C 
ATOM     49 O    HIS B   6     -15.274 -27.410 -11.737  1.00 25.39 LIG-0.29  OA
ENDBRANCH 47 48
BRANCH 47 50
ATOM     50  CB  HIS B   6     -17.369 -29.114 -11.395  1.00 19.33 LIG 0.09  C 
BRANCH 50 51
ATOM     51  CG  HIS B   6     -17.901 -30.183 -12.301  1.00 17.39 LIG 0.06  A 
ATOM     52  CD2 HIS B   6     -18.333 -31.439 -12.041  1.00 16.59 LIG 0.14  A 
ATOM     53 NE2  HIS B   6     -18.749 -31.981 -13.234  1.00 16.70 LIG-0.25  NA
ATOM     54  CE1 HIS B   6     -18.575 -31.089 -14.193  1.00 16.06 LIG 0.23  A 
ATOM     55 ND1  HIS B   6     -18.065 -29.994 -13.656  1.00 16.09 LIG-0.24  NA
ENDBRANCH 50 51
ENDBRANCH 47 50
ENDBRANCH 44 47
ENDBRANCH 39 43
ENDBRANCH 36 39
ENDBRANCH 34 35
BRANCH 34 56
ATOM     56  CB  GLU B   4     -14.131 -31.695  -3.627  1.00 22.38 LIG 0.04  C 
BRANCH 56 57
ATOM     57  CG  GLU B   4     -13.291 -32.863  -3.140  1.00 27.64 LIG 0.12  C 
BRANCH 57 58
ATOM     58  CD  GLU B   4     -11.835 -32.732  -3.544  1.00 30.78 LIG 0.17  C 
ATOM     59 OE2  GLU B   4     -11.322 -31.593  -3.570  1.00 32.62 LIG-0.65  OA
ATOM     60 OE1  GLU B   4     -11.205 -33.770  -3.837  1.00 32.75 LIG-0.65  OA
ENDBRANCH 57 58
ENDBRANCH 56 57
ENDBRANCH 34 56
ENDBRANCH 3 34
TORSDOF 22
ENDMDL
MODEL 82
USER: ADFR SOLUTION from run 175
USER: SCORE 15.669920 LL:  -3.772 LR: -13.451 RR:   0.000 FEB:  -6.888
USER: RMSD 9.489070
USER: SEED 174
USER: STATUS no improvement in best in 5 clusters for 5 generations
USER: GENES 24
USER: genes 0 Translation |==|  0.37250 0.53328 0.46436
USER: genes 1 Rotation |==|  0.90349 0.70141 0.70689 0.56184
USER: genes 2 Torsion [N]-C--CA-[N] |==|  0.54132
USER: genes 3 Torsion [C]-CA--N-[C] |==|  0.17218
USER: genes 4 Torsion [N]-C--CA-[N] |==|  0.52114
USER: genes 5 Torsion [C]-CA--CB-[CG] |==|  0.33320
USER: genes 6 Torsion [CA]-CB--CG-[CD] |==|  0.28157
USER: genes 7 Torsion [CB]-CG--CD-[NE] |==|  0.49986
USER: genes 8 Torsion [CG]-CD--NE-[CZ] |==|  0.17460
USER: genes 9 Torsion [C]-CA--N-[C] |==|  0.71519
USER: genes 10 Torsion [N]-C--CA-[N] |==|  0.67513
USER: genes 11 Torsion [C]-CA--N-[H2] |==|  0.02827
USER: genes 12 Torsion [C]-N--CA-[C] |==|  0.66667
USER: genes 13 Torsion [N]-CA--C-[N] |==|  0.08524
USER: genes 14 Torsion [C]-N--CA-[CB] |==|  0.86639
USER: genes 15 Torsion [N]-CA--CB-[CG2] |==|  0.69620
USER: genes 16 Torsion [N]-CA--C-[N] |==|  0.36541
USER: genes 17 Torsion [C]-N--CA-[C] |==|  0.57587
USER: genes 18 Torsion [N]-CA--C-[O] |==|  0.86901
USER: genes 19 Torsion [N]-CA--CB-[CG] |==|  0.05085
USER: genes 20 Torsion [CA]-CB--CG-[CD2] |==|  0.62679
USER: genes 21 Torsion [N]-CA--CB-[CG] |==|  0.14943
USER: genes 22 Torsion [CA]-CB--CG-[CD] |==|  0.57406
USER: genes 23 Torsion [CB]-CG--CD-[OE2] |==|  0.01396
ROOT
ATOM      1  C   ALA B   3     -17.431 -27.315  -5.821  1.00 17.17 LIG 0.24  C 
ATOM      2 O    ALA B   3     -18.595 -27.510  -6.174  1.00 18.54 LIG-0.27  OA
ATOM      3  N   GLU B   4     -16.646 -26.406  -6.393  1.00 17.89 LIG-0.35  N 
ATOM      4 H    GLU B   4     -15.832 -26.261  -6.155  1.00 17.89 LIG 0.16  HD
ENDROOT
BRANCH 1 5
ATOM      5  CA  ALA B   3     -16.823 -28.131  -4.681  1.00 15.99 LIG 0.17  C 
ATOM      6  CB  ALA B   3     -15.394 -28.533  -5.031  1.00 16.21 LIG 0.04  C 
BRANCH 5 7
ATOM      7  N   ALA B   3     -17.600 -29.316  -4.341  1.00 13.91 LIG-0.35  N 
ATOM      8  C   ARG B   2     -17.798 -30.293  -5.221  1.00 12.46 LIG 0.24  C 
ATOM      9 O    ARG B   2     -17.337 -30.266  -6.361  1.00 11.56 LIG-0.27  OA
ATOM     10 H    ALA B   3     -17.909 -29.321  -3.538  1.00 13.91 LIG 0.16  HD
BRANCH 8 11
ATOM     11  CA  ARG B   2     -18.642 -31.476  -4.757  1.00 12.24 LIG 0.18  C 
BRANCH 11 12
ATOM     12  CB  ARG B   2     -18.140 -31.966  -3.397  1.00 10.58 LIG 0.04  C 
BRANCH 12 13
ATOM     13  CG  ARG B   2     -19.171 -31.907  -2.279  1.00  9.71 LIG 0.02  C 
BRANCH 13 14
ATOM     14  CD  ARG B   2     -19.755 -33.286  -2.023  1.00  9.44 LIG 0.14  C 
BRANCH 14 15
ATOM     15  NE  ARG B   2     -20.752 -33.277  -0.954  1.00  9.23 LIG-0.23  N 
ATOM     16  CZ  ARG B   2     -21.896 -32.605  -0.999  1.00  9.20 LIG 0.67  C 
ATOM     17  NH1 ARG B   2     -22.198 -31.878  -2.067  1.00  7.63 LIG-0.23  N 
ATOM     18  NH2 ARG B   2     -22.741 -32.661   0.023  1.00  9.31 LIG-0.23  N 
ATOM     19 1HH1 ARG B   2     -21.652 -31.842  -2.730  1.00  7.63 LIG 0.17  HD
ATOM     20 2HH1 ARG B   2     -22.939 -31.443  -2.096  1.00  7.63 LIG 0.17  HD
ATOM     21 2HH2 ARG B   2     -23.482 -32.225  -0.008  1.00  9.31 LIG 0.17  HD
ATOM     22 1HH2 ARG B   2     -22.548 -33.132   0.715  1.00  9.31 LIG 0.17  HD
ATOM     23 HE   ARG B   2     -20.586 -33.737  -0.247  1.00  9.23 LIG 0.18  HD
ENDBRANCH 14 15
ENDBRANCH 13 14
ENDBRANCH 12 13
ENDBRANCH 11 12
BRANCH 11 24
ATOM     24  N   ARG B   2     -18.696 -32.604  -5.681  1.00 12.50 LIG-0.35  N 
ATOM     25  C   ALA B   1     -19.737 -32.852  -6.467  1.00 14.33 LIG 0.25  C 
ATOM     26 O    ALA B   1     -20.734 -32.134  -6.516  1.00 14.72 LIG-0.27  OA
ATOM     27 H    ARG B   2     -17.989 -33.094  -5.669  1.00 12.50 LIG 0.16  HD
BRANCH 25 28
ATOM     28  CA  ALA B   1     -19.620 -34.097  -7.340  1.00 14.93 LIG 0.27  C 
ATOM     29  CB  ALA B   1     -18.348 -34.863  -6.998  1.00 16.58 LIG 0.05  C 
BRANCH 28 30
ATOM     30  N   ALA B   1     -19.632 -33.743  -8.786  1.00 16.58 LIG-0.07  N 
ATOM     31 H3   ALA B   1     -18.950 -34.142  -9.196  1.00 16.58 LIG 0.28  HD
ATOM     32 H1   ALA B   1     -20.397 -34.014  -9.152  1.00 16.58 LIG 0.28  HD
ATOM     33 H2   ALA B   1     -19.557 -32.861  -8.877  1.00 16.58 LIG 0.28  HD
ENDBRANCH 28 30
ENDBRANCH 25 28
ENDBRANCH 11 24
ENDBRANCH 8 11
ENDBRANCH 5 7
ENDBRANCH 1 5
BRANCH 3 34
ATOM     34  CA  GLU B   4     -17.109 -25.562  -7.493  1.00 20.15 LIG 0.18  C 
BRANCH 34 35
ATOM     35  C   GLU B   4     -16.255 -25.776  -8.740  1.00 19.92 LIG 0.24  C 
ATOM     36  N   VAL B   5     -15.733 -26.988  -8.900  1.00 19.46 LIG-0.35  N 
ATOM     37 H    VAL B   5     -15.851 -27.640  -8.350  1.00 19.46 LIG 0.16  HD
ATOM     38 O    GLU B   4     -16.080 -24.862  -9.546  1.00 20.03 LIG-0.27  OA
BRANCH 36 39
ATOM     39  CA  VAL B   5     -14.899 -27.314 -10.054  1.00 20.09 LIG 0.18  C 
BRANCH 39 40
ATOM     40  CB  VAL B   5     -15.560 -26.843 -11.372  1.00 20.49 LIG 0.01  C 
ATOM     41  CG2 VAL B   5     -16.035 -28.041 -12.175  1.00 19.70 LIG 0.01  C 
ATOM     42  CG1 VAL B   5     -14.575 -26.019 -12.184  1.00 21.00 LIG 0.01  C 
ENDBRANCH 39 40
BRANCH 39 43
ATOM     43  C   VAL B   5     -13.523 -26.662  -9.949  1.00 20.75 LIG 0.24  C 
ATOM     44  N   HIS B   6     -12.474 -27.449 -10.174  1.00 20.78 LIG-0.35  N 
ATOM     45 H    HIS B   6     -12.531 -28.287 -10.359  1.00 20.78 LIG 0.16  HD
ATOM     46 O    VAL B   5     -13.413 -25.470  -9.661  1.00 21.91 LIG-0.27  OA
BRANCH 44 47
ATOM     47  CA  HIS B   6     -11.111 -26.931 -10.121  1.00 21.28 LIG 0.17  C 
BRANCH 47 48
ATOM     48  C   HIS B   6     -10.207 -27.762 -11.024  1.00 23.03 LIG 0.22  C 
ATOM     49 O    HIS B   6     -10.276 -29.007 -10.945  1.00 25.39 LIG-0.29  OA
ENDBRANCH 47 48
BRANCH 47 50
ATOM     50  CB  HIS B   6     -10.564 -26.969  -8.691  1.00 19.33 LIG 0.09  C 
BRANCH 50 51
ATOM     51  CG  HIS B   6     -11.322 -27.890  -7.783  1.00 17.39 LIG 0.06  A 
ATOM     52  CD2 HIS B   6     -11.782 -27.719  -6.522  1.00 16.59 LIG 0.14  A 
ATOM     53 NE2  HIS B   6     -12.443 -28.871  -6.170  1.00 16.70 LIG-0.25  NA
ATOM     54  CE1 HIS B   6     -12.389 -29.720  -7.181  1.00 16.06 LIG 0.23  A 
ATOM     55 ND1  HIS B   6     -11.718 -29.152  -8.167  1.00 16.09 LIG-0.24  NA
ENDBRANCH 50 51
ENDBRANCH 47 50
ENDBRANCH 44 47
ENDBRANCH 39 43
ENDBRANCH 36 39
ENDBRANCH 34 35
BRANCH 34 56
ATOM     56  CB  GLU B   4     -17.044 -24.086  -7.091  1.00 22.38 LIG 0.04  C 
BRANCH 56 57
ATOM     57  CG  GLU B   4     -15.689 -23.628  -6.584  1.00 27.64 LIG 0.12  C 
BRANCH 57 58
ATOM     58  CD  GLU B   4     -15.798 -22.450  -5.634  1.00 30.78 LIG 0.17  C 
ATOM     59 OE2  GLU B   4     -16.935 -22.056  -5.300  1.00 32.62 LIG-0.65  OA
ATOM     60 OE1  GLU B   4     -14.744 -21.920  -5.223  1.00 32.75 LIG-0.65  OA
ENDBRANCH 57 58
ENDBRANCH 56 57
ENDBRANCH 34 56
ENDBRANCH 3 34
TORSDOF 22
ENDMDL
MODEL 83
USER: ADFR SOLUTION from run 153
USER: SCORE 17.070416 LL:  -5.004 LR: -13.433 RR:   0.000 FEB:  -6.870
USER: RMSD 4.408324
USER: SEED 152
USER: STATUS no improvement in best in 18 clusters for 5 generations
USER: GENES 24
USER: genes 0 Translation |==|  0.37197 0.54271 0.43618
USER: genes 1 Rotation |==|  0.60510 0.63408 0.34582 0.94408
USER: genes 2 Torsion [N]-C--CA-[N] |==|  0.09986
USER: genes 3 Torsion [C]-CA--N-[C] |==|  0.14604
USER: genes 4 Torsion [N]-C--CA-[N] |==|  0.20057
USER: genes 5 Torsion [C]-CA--CB-[CG] |==|  0.27212
USER: genes 6 Torsion [CA]-CB--CG-[CD] |==|  0.14714
USER: genes 7 Torsion [CB]-CG--CD-[NE] |==|  0.16239
USER: genes 8 Torsion [CG]-CD--NE-[CZ] |==|  0.65840
USER: genes 9 Torsion [C]-CA--N-[C] |==|  0.76554
USER: genes 10 Torsion [N]-C--CA-[N] |==|  0.31721
USER: genes 11 Torsion [C]-CA--N-[H2] |==|  0.17459
USER: genes 12 Torsion [C]-N--CA-[C] |==|  0.66442
USER: genes 13 Torsion [N]-CA--C-[N] |==|  0.46623
USER: genes 14 Torsion [C]-N--CA-[CB] |==|  0.51738
USER: genes 15 Torsion [N]-CA--CB-[CG2] |==|  0.05202
USER: genes 16 Torsion [N]-CA--C-[N] |==|  0.27940
USER: genes 17 Torsion [C]-N--CA-[C] |==|  0.14959
USER: genes 18 Torsion [N]-CA--C-[O] |==|  0.13748
USER: genes 19 Torsion [N]-CA--CB-[CG] |==|  0.78010
USER: genes 20 Torsion [CA]-CB--CG-[CD2] |==|  0.90831
USER: genes 21 Torsion [N]-CA--CB-[CG] |==|  0.23824
USER: genes 22 Torsion [CA]-CB--CG-[CD] |==|  0.71041
USER: genes 23 Torsion [CB]-CG--CD-[OE2] |==|  0.44148
ROOT
ATOM      1  C   ALA B   3     -17.441 -27.096  -6.434  1.00 17.17 LIG 0.24  C 
ATOM      2 O    ALA B   3     -18.634 -26.905  -6.670  1.00 18.54 LIG-0.27  OA
ATOM      3  N   GLU B   4     -16.956 -28.282  -6.075  1.00 17.89 LIG-0.35  N 
ATOM      4 H    GLU B   4     -16.125 -28.427  -5.907  1.00 17.89 LIG 0.16  HD
ENDROOT
BRANCH 1 5
ATOM      5  CA  ALA B   3     -16.438 -25.948  -6.547  1.00 15.99 LIG 0.17  C 
ATOM      6  CB  ALA B   3     -17.007 -24.842  -7.428  1.00 16.21 LIG 0.04  C 
BRANCH 5 7
ATOM      7  N   ALA B   3     -15.138 -26.367  -7.057  1.00 13.91 LIG-0.35  N 
ATOM      8  C   ARG B   2     -15.025 -27.054  -8.191  1.00 12.46 LIG 0.24  C 
ATOM      9 O    ARG B   2     -15.996 -27.368  -8.878  1.00 11.56 LIG-0.27  OA
ATOM     10 H    ALA B   3     -14.470 -26.132  -6.568  1.00 13.91 LIG 0.16  HD
BRANCH 8 11
ATOM     11  CA  ARG B   2     -13.615 -27.451  -8.617  1.00 12.24 LIG 0.18  C 
BRANCH 11 12
ATOM     12  CB  ARG B   2     -13.620 -27.868 -10.089  1.00 10.58 LIG 0.04  C 
BRANCH 12 13
ATOM     13  CG  ARG B   2     -13.181 -26.781 -11.061  1.00  9.71 LIG 0.02  C 
BRANCH 13 14
ATOM     14  CD  ARG B   2     -11.833 -26.214 -10.647  1.00  9.44 LIG 0.14  C 
BRANCH 14 15
ATOM     15  NE  ARG B   2     -10.794 -27.240 -10.588  1.00  9.23 LIG-0.23  N 
ATOM     16  CZ  ARG B   2     -10.067 -27.513  -9.511  1.00  9.20 LIG 0.67  C 
ATOM     17  NH1 ARG B   2     -10.261 -26.832  -8.389  1.00  7.63 LIG-0.23  N 
ATOM     18  NH2 ARG B   2      -9.146 -28.468  -9.554  1.00  9.31 LIG-0.23  N 
ATOM     19 1HH1 ARG B   2     -10.858 -26.214  -8.359  1.00  7.63 LIG 0.17  HD
ATOM     20 2HH1 ARG B   2      -9.790 -27.009  -7.692  1.00  7.63 LIG 0.17  HD
ATOM     21 2HH2 ARG B   2      -8.676 -28.643  -8.856  1.00  9.31 LIG 0.17  HD
ATOM     22 1HH2 ARG B   2      -9.019 -28.911 -10.280  1.00  9.31 LIG 0.17  HD
ATOM     23 HE   ARG B   2     -10.642 -27.699 -11.300  1.00  9.23 LIG 0.18  HD
ENDBRANCH 14 15
ENDBRANCH 13 14
ENDBRANCH 12 13
ENDBRANCH 11 12
BRANCH 11 24
ATOM     24  N   ARG B   2     -12.997 -28.507  -7.823  1.00 12.50 LIG-0.35  N 
ATOM     25  C   ALA B   1     -12.358 -28.281  -6.682  1.00 14.33 LIG 0.25  C 
ATOM     26 O    ALA B   1     -12.259 -27.166  -6.171  1.00 14.72 LIG-0.27  OA
ATOM     27 H    ARG B   2     -13.087 -29.292  -8.163  1.00 12.50 LIG 0.16  HD
BRANCH 25 28
ATOM     28  CA  ALA B   1     -11.750 -29.509  -6.013  1.00 14.93 LIG 0.27  C 
ATOM     29  CB  ALA B   1     -12.285 -29.655  -4.594  1.00 16.58 LIG 0.05  C 
BRANCH 28 30
ATOM     30  N   ALA B   1     -10.262 -29.431  -5.995  1.00 16.58 LIG-0.07  N 
ATOM     31 H3   ALA B   1      -9.930 -30.175  -5.638  1.00 16.58 LIG 0.28  HD
ATOM     32 H1   ALA B   1      -9.960 -29.340  -6.827  1.00 16.58 LIG 0.28  HD
ATOM     33 H2   ALA B   1     -10.008 -28.730  -5.509  1.00 16.58 LIG 0.28  HD
ENDBRANCH 28 30
ENDBRANCH 25 28
ENDBRANCH 11 24
ENDBRANCH 8 11
ENDBRANCH 5 7
ENDBRANCH 1 5
BRANCH 3 34
ATOM     34  CA  GLU B   4     -17.811 -29.459  -5.932  1.00 20.15 LIG 0.18  C 
BRANCH 34 35
ATOM     35  C   GLU B   4     -17.736 -30.017  -4.513  1.00 19.92 LIG 0.24  C 
ATOM     36  N   VAL B   5     -18.648 -30.927  -4.185  1.00 19.46 LIG-0.35  N 
ATOM     37 H    VAL B   5     -19.261 -31.208  -4.719  1.00 19.46 LIG 0.16  HD
ATOM     38 O    GLU B   4     -16.862 -29.636  -3.734  1.00 20.03 LIG-0.27  OA
BRANCH 36 39
ATOM     39  CA  VAL B   5     -18.677 -31.533  -2.857  1.00 20.09 LIG 0.18  C 
BRANCH 39 40
ATOM     40  CB  VAL B   5     -19.729 -32.665  -2.781  1.00 20.49 LIG 0.01  C 
ATOM     41  CG2 VAL B   5     -20.094 -33.134  -4.179  1.00 19.70 LIG 0.01  C 
ATOM     42  CG1 VAL B   5     -20.966 -32.180  -2.046  1.00 21.00 LIG 0.01  C 
ENDBRANCH 39 40
BRANCH 39 43
ATOM     43  C   VAL B   5     -17.318 -32.116  -2.480  1.00 20.75 LIG 0.24  C 
ATOM     44  N   HIS B   6     -16.562 -31.383  -1.666  1.00 20.78 LIG-0.35  N 
ATOM     45 H    HIS B   6     -16.790 -30.612  -1.360  1.00 20.78 LIG 0.16  HD
ATOM     46 O    VAL B   5     -16.957 -33.205  -2.923  1.00 21.91 LIG-0.27  OA
BRANCH 44 47
ATOM     47  CA  HIS B   6     -15.253 -31.848  -1.222  1.00 21.28 LIG 0.17  C 
BRANCH 47 48
ATOM     48  C   HIS B   6     -14.396 -32.214  -2.428  1.00 23.03 LIG 0.22  C 
ATOM     49 O    HIS B   6     -14.312 -31.391  -3.364  1.00 25.39 LIG-0.29  OA
ENDBRANCH 47 48
BRANCH 47 50
ATOM     50  CB  HIS B   6     -15.386 -33.073  -0.311  1.00 19.33 LIG 0.09  C 
BRANCH 50 51
ATOM     51  CG  HIS B   6     -15.773 -32.734   1.096  1.00 17.39 LIG 0.06  A 
ATOM     52  CD2 HIS B   6     -15.482 -31.660   1.868  1.00 16.59 LIG 0.14  A 
ATOM     53 NE2  HIS B   6     -16.122 -31.839   3.071  1.00 16.70 LIG-0.25  NA
ATOM     54  CE1 HIS B   6     -16.779 -32.984   3.040  1.00 16.06 LIG 0.23  A 
ATOM     55 ND1  HIS B   6     -16.585 -33.544   1.859  1.00 16.09 LIG-0.24  NA
ENDBRANCH 50 51
ENDBRANCH 47 50
ENDBRANCH 44 47
ENDBRANCH 39 43
ENDBRANCH 36 39
ENDBRANCH 34 35
BRANCH 34 56
ATOM     56  CB  GLU B   4     -17.383 -30.547  -6.920  1.00 22.38 LIG 0.04  C 
BRANCH 56 57
ATOM     57  CG  GLU B   4     -16.268 -31.450  -6.423  1.00 27.64 LIG 0.12  C 
BRANCH 57 58
ATOM     58  CD  GLU B   4     -14.934 -31.121  -7.064  1.00 30.78 LIG 0.17  C 
ATOM     59 OE2  GLU B   4     -13.887 -31.485  -6.486  1.00 32.62 LIG-0.65  OA
ATOM     60 OE1  GLU B   4     -14.933 -30.498  -8.147  1.00 32.75 LIG-0.65  OA
ENDBRANCH 57 58
ENDBRANCH 56 57
ENDBRANCH 34 56
ENDBRANCH 3 34
TORSDOF 22
ENDMDL
MODEL 84
USER: ADFR SOLUTION from run 83
USER: SCORE 15.439571 LL:  -3.722 LR: -13.417 RR:   0.000 FEB:  -6.855
USER: RMSD 6.148110
USER: SEED 82
USER: STATUS no improvement in best in 7 clusters for 5 generations
USER: GENES 24
USER: genes 0 Translation |==|  0.35264 0.41452 0.50172
USER: genes 1 Rotation |==|  0.57668 0.55052 0.30586 0.95153
USER: genes 2 Torsion [N]-C--CA-[N] |==|  0.46364
USER: genes 3 Torsion [C]-CA--N-[C] |==|  0.54268
USER: genes 4 Torsion [N]-C--CA-[N] |==|  0.32421
USER: genes 5 Torsion [C]-CA--CB-[CG] |==|  0.01200
USER: genes 6 Torsion [CA]-CB--CG-[CD] |==|  0.68188
USER: genes 7 Torsion [CB]-CG--CD-[NE] |==|  0.20922
USER: genes 8 Torsion [CG]-CD--NE-[CZ] |==|  0.33742
USER: genes 9 Torsion [C]-CA--N-[C] |==|  0.77293
USER: genes 10 Torsion [N]-C--CA-[N] |==|  0.17637
USER: genes 11 Torsion [C]-CA--N-[H2] |==|  0.49649
USER: genes 12 Torsion [C]-N--CA-[C] |==|  0.65024
USER: genes 13 Torsion [N]-CA--C-[N] |==|  0.86501
USER: genes 14 Torsion [C]-N--CA-[CB] |==|  0.22222
USER: genes 15 Torsion [N]-CA--CB-[CG2] |==|  0.59140
USER: genes 16 Torsion [N]-CA--C-[N] |==|  0.45887
USER: genes 17 Torsion [C]-N--CA-[C] |==|  0.80382
USER: genes 18 Torsion [N]-CA--C-[O] |==|  0.44421
USER: genes 19 Torsion [N]-CA--CB-[CG] |==|  0.10556
USER: genes 20 Torsion [CA]-CB--CG-[CD2] |==|  0.31681
USER: genes 21 Torsion [N]-CA--CB-[CG] |==|  0.73616
USER: genes 22 Torsion [CA]-CB--CG-[CD] |==|  0.85496
USER: genes 23 Torsion [CB]-CG--CD-[OE2] |==|  0.26704
ROOT
ATOM      1  C   ALA B   3     -17.788 -30.077  -5.009  1.00 17.17 LIG 0.24  C 
ATOM      2 O    ALA B   3     -18.844 -29.792  -5.577  1.00 18.54 LIG-0.27  OA
ATOM      3  N   GLU B   4     -17.636 -31.178  -4.277  1.00 17.89 LIG-0.35  N 
ATOM      4 H    GLU B   4     -16.905 -31.387  -3.876  1.00 17.89 LIG 0.16  HD
ENDROOT
BRANCH 1 5
ATOM      5  CA  ALA B   3     -16.576 -29.153  -5.122  1.00 15.99 LIG 0.17  C 
ATOM      6  CB  ALA B   3     -16.308 -28.477  -3.781  1.00 16.21 LIG 0.04  C 
BRANCH 5 7
ATOM      7  N   ALA B   3     -16.716 -28.144  -6.165  1.00 13.91 LIG-0.35  N 
ATOM      8  C   ARG B   2     -15.668 -27.457  -6.611  1.00 12.46 LIG 0.24  C 
ATOM      9 O    ARG B   2     -14.526 -27.633  -6.187  1.00 11.56 LIG-0.27  OA
ATOM     10 H    ALA B   3     -17.519 -28.039  -6.454  1.00 13.91 LIG 0.16  HD
BRANCH 8 11
ATOM     11  CA  ARG B   2     -15.938 -26.416  -7.693  1.00 12.24 LIG 0.18  C 
BRANCH 11 12
ATOM     12  CB  ARG B   2     -15.145 -26.765  -8.954  1.00 10.58 LIG 0.04  C 
BRANCH 12 13
ATOM     13  CG  ARG B   2     -14.380 -28.079  -8.881  1.00  9.71 LIG 0.02  C 
BRANCH 13 14
ATOM     14  CD  ARG B   2     -12.882 -27.824  -8.930  1.00  9.44 LIG 0.14  C 
BRANCH 14 15
ATOM     15  NE  ARG B   2     -12.366 -27.305  -7.664  1.00  9.23 LIG-0.23  N 
ATOM     16  CZ  ARG B   2     -11.417 -27.890  -6.944  1.00  9.20 LIG 0.67  C 
ATOM     17  NH1 ARG B   2     -10.871 -29.026  -7.361  1.00  7.63 LIG-0.23  N 
ATOM     18  NH2 ARG B   2     -11.011 -27.341  -5.806  1.00  9.31 LIG-0.23  N 
ATOM     19 1HH1 ARG B   2     -11.132 -29.382  -8.099  1.00  7.63 LIG 0.17  HD
ATOM     20 2HH1 ARG B   2     -10.257 -29.404  -6.894  1.00  7.63 LIG 0.17  HD
ATOM     21 2HH2 ARG B   2     -10.396 -27.721  -5.341  1.00  9.31 LIG 0.17  HD
ATOM     22 1HH2 ARG B   2     -11.363 -26.605  -5.535  1.00  9.31 LIG 0.17  HD
ATOM     23 HE   ARG B   2     -12.700 -26.571  -7.366  1.00  9.23 LIG 0.18  HD
ENDBRANCH 14 15
ENDBRANCH 13 14
ENDBRANCH 12 13
ENDBRANCH 11 12
BRANCH 11 24
ATOM     24  N   ARG B   2     -15.652 -25.036  -7.315  1.00 12.50 LIG-0.35  N 
ATOM     25  C   ALA B   1     -16.494 -24.284  -6.616  1.00 14.33 LIG 0.25  C 
ATOM     26 O    ALA B   1     -17.573 -24.692  -6.191  1.00 14.72 LIG-0.27  OA
ATOM     27 H    ARG B   2     -14.887 -24.755  -7.588  1.00 12.50 LIG 0.16  HD
BRANCH 25 28
ATOM     28  CA  ALA B   1     -16.032 -22.855  -6.347  1.00 14.93 LIG 0.27  C 
ATOM     29  CB  ALA B   1     -17.013 -22.149  -5.419  1.00 16.58 LIG 0.05  C 
BRANCH 28 30
ATOM     30  N   ALA B   1     -15.886 -22.090  -7.617  1.00 16.58 LIG-0.07  N 
ATOM     31 H3   ALA B   1     -15.271 -22.479  -8.130  1.00 16.58 LIG 0.28  HD
ATOM     32 H1   ALA B   1     -16.665 -22.076  -8.046  1.00 16.58 LIG 0.28  HD
ATOM     33 H2   ALA B   1     -15.634 -21.256  -7.434  1.00 16.58 LIG 0.28  HD
ENDBRANCH 28 30
ENDBRANCH 25 28
ENDBRANCH 11 24
ENDBRANCH 8 11
ENDBRANCH 5 7
ENDBRANCH 1 5
BRANCH 3 34
ATOM     34  CA  GLU B   4     -18.719 -32.142  -4.092  1.00 20.15 LIG 0.18  C 
BRANCH 34 35
ATOM     35  C   GLU B   4     -18.972 -32.398  -2.608  1.00 19.92 LIG 0.24  C 
ATOM     36  N   VAL B   5     -17.904 -32.659  -1.861  1.00 19.46 LIG-0.35  N 
ATOM     37 H    VAL B   5     -17.099 -32.691  -2.165  1.00 19.46 LIG 0.16  HD
ATOM     38 O    GLU B   4     -20.113 -32.350  -2.148  1.00 20.03 LIG-0.27  OA
BRANCH 36 39
ATOM     39  CA  VAL B   5     -18.020 -32.920  -0.429  1.00 20.09 LIG 0.18  C 
BRANCH 39 40
ATOM     40  CB  VAL B   5     -18.467 -34.377  -0.160  1.00 20.49 LIG 0.01  C 
ATOM     41  CG2 VAL B   5     -19.327 -34.438   1.090  1.00 19.70 LIG 0.01  C 
ATOM     42  CG1 VAL B   5     -17.252 -35.276  -0.010  1.00 21.00 LIG 0.01  C 
ENDBRANCH 39 40
BRANCH 39 43
ATOM     43  C   VAL B   5     -16.693 -32.686   0.289  1.00 20.75 LIG 0.24  C 
ATOM     44  N   HIS B   6     -16.744 -32.595   1.615  1.00 20.78 LIG-0.35  N 
ATOM     45 H    HIS B   6     -17.470 -32.647   2.075  1.00 20.78 LIG 0.16  HD
ATOM     46 O    VAL B   5     -15.645 -32.583  -0.347  1.00 21.91 LIG-0.27  OA
BRANCH 44 47
ATOM     47  CA  HIS B   6     -15.537 -32.393   2.409  1.00 21.28 LIG 0.17  C 
BRANCH 47 48
ATOM     48  C   HIS B   6     -14.689 -33.659   2.392  1.00 23.03 LIG 0.22  C 
ATOM     49 O    HIS B   6     -13.477 -33.562   2.681  1.00 25.39 LIG-0.29  OA
ENDBRANCH 47 48
BRANCH 47 50
ATOM     50  CB  HIS B   6     -15.886 -32.042   3.859  1.00 19.33 LIG 0.09  C 
BRANCH 50 51
ATOM     51  CG  HIS B   6     -17.070 -32.792   4.389  1.00 17.39 LIG 0.06  A 
ATOM     52  CD2 HIS B   6     -17.173 -33.722   5.368  1.00 16.59 LIG 0.14  A 
ATOM     53 NE2  HIS B   6     -18.501 -34.058   5.472  1.00 16.70 LIG-0.25  NA
ATOM     54  CE1 HIS B   6     -19.189 -33.361   4.586  1.00 16.06 LIG 0.23  A 
ATOM     55 ND1  HIS B   6     -18.350 -32.589   3.919  1.00 16.09 LIG-0.24  NA
ENDBRANCH 50 51
ENDBRANCH 47 50
ENDBRANCH 44 47
ENDBRANCH 39 43
ENDBRANCH 36 39
ENDBRANCH 34 35
BRANCH 34 56
ATOM     56  CB  GLU B   4     -18.371 -33.467  -4.775  1.00 22.38 LIG 0.04  C 
BRANCH 56 57
ATOM     57  CG  GLU B   4     -18.925 -33.618  -6.181  1.00 27.64 LIG 0.12  C 
BRANCH 57 58
ATOM     58  CD  GLU B   4     -20.416 -33.350  -6.243  1.00 30.78 LIG 0.17  C 
ATOM     59 OE2  GLU B   4     -20.806 -32.210  -6.573  1.00 32.62 LIG-0.65  OA
ATOM     60 OE1  GLU B   4     -21.199 -34.282  -5.960  1.00 32.75 LIG-0.65  OA
ENDBRANCH 57 58
ENDBRANCH 56 57
ENDBRANCH 34 56
ENDBRANCH 3 34
TORSDOF 22
ENDMDL
MODEL 85
USER: ADFR SOLUTION from run 16
USER: SCORE 17.735950 LL:  -6.086 LR: -13.406 RR:   0.000 FEB:  -6.843
USER: RMSD 7.999612
USER: SEED 756258
USER: STATUS no improvement in best in 5 clusters for 5 generations
USER: GENES 24
USER: genes 0 Translation |==|  0.67913 0.51522 0.37712
USER: genes 1 Rotation |==|  0.94576 0.44679 0.59255 0.69976
USER: genes 2 Torsion [N]-C--CA-[N] |==|  0.89259
USER: genes 3 Torsion [C]-CA--N-[C] |==|  0.81744
USER: genes 4 Torsion [N]-C--CA-[N] |==|  0.90907
USER: genes 5 Torsion [C]-CA--CB-[CG] |==|  0.06451
USER: genes 6 Torsion [CA]-CB--CG-[CD] |==|  0.45760
USER: genes 7 Torsion [CB]-CG--CD-[NE] |==|  0.53302
USER: genes 8 Torsion [CG]-CD--NE-[CZ] |==|  0.75701
USER: genes 9 Torsion [C]-CA--N-[C] |==|  0.86104
USER: genes 10 Torsion [N]-C--CA-[N] |==|  0.63052
USER: genes 11 Torsion [C]-CA--N-[H2] |==|  0.47950
USER: genes 12 Torsion [C]-N--CA-[C] |==|  0.87581
USER: genes 13 Torsion [N]-CA--C-[N] |==|  0.88120
USER: genes 14 Torsion [C]-N--CA-[CB] |==|  0.50269
USER: genes 15 Torsion [N]-CA--CB-[CG2] |==|  0.80359
USER: genes 16 Torsion [N]-CA--C-[N] |==|  0.87015
USER: genes 17 Torsion [C]-N--CA-[C] |==|  0.59937
USER: genes 18 Torsion [N]-CA--C-[O] |==|  0.47634
USER: genes 19 Torsion [N]-CA--CB-[CG] |==|  0.21500
USER: genes 20 Torsion [CA]-CB--CG-[CD2] |==|  0.28283
USER: genes 21 Torsion [N]-CA--CB-[CG] |==|  0.78909
USER: genes 22 Torsion [CA]-CB--CG-[CD] |==|  0.45840
USER: genes 23 Torsion [CB]-CG--CD-[OE2] |==|  0.75321
ROOT
ATOM      1  C   ALA B   3     -11.912 -27.735  -7.719  1.00 17.17 LIG 0.24  C 
ATOM      2 O    ALA B   3     -12.514 -26.719  -8.067  1.00 18.54 LIG-0.27  OA
ATOM      3  N   GLU B   4     -10.926 -28.272  -8.434  1.00 17.89 LIG-0.35  N 
ATOM      4 H    GLU B   4     -10.499 -28.981  -8.201  1.00 17.89 LIG 0.16  HD
ENDROOT
BRANCH 1 5
ATOM      5  CA  ALA B   3     -12.279 -28.442  -6.415  1.00 15.99 LIG 0.17  C 
ATOM      6  CB  ALA B   3     -11.363 -27.972  -5.290  1.00 16.21 LIG 0.04  C 
BRANCH 5 7
ATOM      7  N   ALA B   3     -12.233 -29.896  -6.514  1.00 13.91 LIG-0.35  N 
ATOM      8  C   ARG B   2     -13.076 -30.566  -7.295  1.00 12.46 LIG 0.24  C 
ATOM      9 O    ARG B   2     -13.932 -30.010  -7.982  1.00 11.56 LIG-0.27  OA
ATOM     10 H    ALA B   3     -11.625 -30.267  -6.032  1.00 13.91 LIG 0.16  HD
BRANCH 8 11
ATOM     11  CA  ARG B   2     -12.944 -32.085  -7.305  1.00 12.24 LIG 0.18  C 
BRANCH 11 12
ATOM     12  CB  ARG B   2     -13.855 -32.689  -6.234  1.00 10.58 LIG 0.04  C 
BRANCH 12 13
ATOM     13  CG  ARG B   2     -15.026 -31.808  -5.824  1.00  9.71 LIG 0.02  C 
BRANCH 13 14
ATOM     14  CD  ARG B   2     -16.059 -32.620  -5.060  1.00  9.44 LIG 0.14  C 
BRANCH 14 15
ATOM     15  NE  ARG B   2     -17.317 -31.896  -4.888  1.00  9.23 LIG-0.23  N 
ATOM     16  CZ  ARG B   2     -17.577 -31.070  -3.882  1.00  9.20 LIG 0.67  C 
ATOM     17  NH1 ARG B   2     -16.662 -30.857  -2.944  1.00  7.63 LIG-0.23  N 
ATOM     18  NH2 ARG B   2     -18.750 -30.454  -3.812  1.00  9.31 LIG-0.23  N 
ATOM     19 1HH1 ARG B   2     -15.901 -31.255  -2.988  1.00  7.63 LIG 0.17  HD
ATOM     20 2HH1 ARG B   2     -16.831 -30.322  -2.293  1.00  7.63 LIG 0.17  HD
ATOM     21 2HH2 ARG B   2     -18.917 -29.919  -3.160  1.00  9.31 LIG 0.17  HD
ATOM     22 1HH2 ARG B   2     -19.344 -30.590  -4.419  1.00  9.31 LIG 0.17  HD
ATOM     23 HE   ARG B   2     -17.931 -32.014  -5.478  1.00  9.23 LIG 0.18  HD
ENDBRANCH 14 15
ENDBRANCH 13 14
ENDBRANCH 12 13
ENDBRANCH 11 12
BRANCH 11 24
ATOM     24  N   ARG B   2     -11.589 -32.595  -7.123  1.00 12.50 LIG-0.35  N 
ATOM     25  C   ALA B   1     -10.549 -32.165  -7.827  1.00 14.33 LIG 0.25  C 
ATOM     26 O    ALA B   1     -10.625 -31.272  -8.670  1.00 14.72 LIG-0.27  OA
ATOM     27 H    ARG B   2     -11.527 -33.201  -6.516  1.00 12.50 LIG 0.16  HD
BRANCH 25 28
ATOM     28  CA  ALA B   1      -9.218 -32.842  -7.516  1.00 14.93 LIG 0.27  C 
ATOM     29  CB  ALA B   1      -9.343 -33.699  -6.262  1.00 16.58 LIG 0.05  C 
BRANCH 28 30
ATOM     30  N   ALA B   1      -8.131 -31.839  -7.346  1.00 16.58 LIG-0.07  N 
ATOM     31 H3   ALA B   1      -7.968 -31.442  -8.126  1.00 16.58 LIG 0.28  HD
ATOM     32 H1   ALA B   1      -8.381 -31.229  -6.749  1.00 16.58 LIG 0.28  HD
ATOM     33 H2   ALA B   1      -7.393 -32.246  -7.062  1.00 16.58 LIG 0.28  HD
ENDBRANCH 28 30
ENDBRANCH 25 28
ENDBRANCH 11 24
ENDBRANCH 8 11
ENDBRANCH 5 7
ENDBRANCH 1 5
BRANCH 3 34
ATOM     34  CA  GLU B   4     -10.480 -27.691  -9.699  1.00 20.15 LIG 0.18  C 
BRANCH 34 35
ATOM     35  C   GLU B   4     -11.673 -27.304 -10.571  1.00 19.92 LIG 0.24  C 
ATOM     36  N   VAL B   5     -12.675 -28.176 -10.626  1.00 19.46 LIG-0.35  N 
ATOM     37 H    VAL B   5     -12.683 -28.927 -10.205  1.00 19.46 LIG 0.16  HD
ATOM     38 O    GLU B   4     -11.687 -26.232 -11.175  1.00 20.03 LIG-0.27  OA
BRANCH 36 39
ATOM     39  CA  VAL B   5     -13.868 -27.917 -11.426  1.00 20.09 LIG 0.18  C 
BRANCH 39 40
ATOM     40  CB  VAL B   5     -14.889 -29.073 -11.299  1.00 20.49 LIG 0.01  C 
ATOM     41  CG2 VAL B   5     -14.371 -30.308 -12.015  1.00 19.70 LIG 0.01  C 
ATOM     42  CG1 VAL B   5     -16.229 -28.651 -11.875  1.00 21.00 LIG 0.01  C 
ENDBRANCH 39 40
BRANCH 39 43
ATOM     43  C   VAL B   5     -14.556 -26.623 -10.998  1.00 20.75 LIG 0.24  C 
ATOM     44  N   HIS B   6     -14.730 -26.446  -9.691  1.00 20.78 LIG-0.35  N 
ATOM     45 H    HIS B   6     -14.492 -27.015  -9.092  1.00 20.78 LIG 0.16  HD
ATOM     46 O    VAL B   5     -14.928 -25.803 -11.837  1.00 21.91 LIG-0.27  OA
BRANCH 44 47
ATOM     47  CA  HIS B   6     -15.356 -25.238  -9.165  1.00 21.28 LIG 0.17  C 
BRANCH 47 48
ATOM     48  C   HIS B   6     -14.701 -24.848  -7.846  1.00 23.03 LIG 0.22  C 
ATOM     49 O    HIS B   6     -15.004 -23.747  -7.338  1.00 25.39 LIG-0.29  OA
ENDBRANCH 47 48
BRANCH 47 50
ATOM     50  CB  HIS B   6     -16.855 -25.451  -8.937  1.00 19.33 LIG 0.09  C 
BRANCH 50 51
ATOM     51  CG  HIS B   6     -17.168 -26.232  -7.696  1.00 17.39 LIG 0.06  A 
ATOM     52  CD2 HIS B   6     -17.599 -25.833  -6.477  1.00 16.59 LIG 0.14  A 
ATOM     53 NE2  HIS B   6     -17.761 -26.964  -5.713  1.00 16.70 LIG-0.25  NA
ATOM     54  CE1 HIS B   6     -17.438 -28.020  -6.438  1.00 16.06 LIG 0.23  A 
ATOM     55 ND1  HIS B   6     -17.077 -27.605  -7.640  1.00 16.09 LIG-0.24  NA
ENDBRANCH 50 51
ENDBRANCH 47 50
ENDBRANCH 44 47
ENDBRANCH 39 43
ENDBRANCH 36 39
ENDBRANCH 34 35
BRANCH 34 56
ATOM     56  CB  GLU B   4      -9.607 -28.690 -10.462  1.00 22.38 LIG 0.04  C 
BRANCH 56 57
ATOM     57  CG  GLU B   4      -8.196 -28.838  -9.921  1.00 27.64 LIG 0.12  C 
BRANCH 57 58
ATOM     58  CD  GLU B   4      -7.500 -30.073 -10.460  1.00 30.78 LIG 0.17  C 
ATOM     59 OE2  GLU B   4      -7.629 -31.150  -9.841  1.00 32.62 LIG-0.65  OA
ATOM     60 OE1  GLU B   4      -6.823 -29.964 -11.505  1.00 32.75 LIG-0.65  OA
ENDBRANCH 57 58
ENDBRANCH 56 57
ENDBRANCH 34 56
ENDBRANCH 3 34
TORSDOF 22
ENDMDL
MODEL 86
USER: ADFR SOLUTION from run 185
USER: SCORE 16.609256 LL:  -5.217 LR: -13.385 RR:   0.000 FEB:  -6.823
USER: RMSD 8.546559
USER: SEED 184
USER: STATUS no improvement in best in 13 clusters for 5 generations
USER: GENES 24
USER: genes 0 Translation |==|  0.35396 0.55320 0.43072
USER: genes 1 Rotation |==|  0.94764 0.56243 0.70421 0.56338
USER: genes 2 Torsion [N]-C--CA-[N] |==|  0.91745
USER: genes 3 Torsion [C]-CA--N-[C] |==|  0.83823
USER: genes 4 Torsion [N]-C--CA-[N] |==|  0.89640
USER: genes 5 Torsion [C]-CA--CB-[CG] |==|  0.09879
USER: genes 6 Torsion [CA]-CB--CG-[CD] |==|  0.75694
USER: genes 7 Torsion [CB]-CG--CD-[NE] |==|  0.91871
USER: genes 8 Torsion [CG]-CD--NE-[CZ] |==|  0.44462
USER: genes 9 Torsion [C]-CA--N-[C] |==|  0.62529
USER: genes 10 Torsion [N]-C--CA-[N] |==|  0.61447
USER: genes 11 Torsion [C]-CA--N-[H2] |==|  0.78440
USER: genes 12 Torsion [C]-N--CA-[C] |==|  0.70992
USER: genes 13 Torsion [N]-CA--C-[N] |==|  0.93889
USER: genes 14 Torsion [C]-N--CA-[CB] |==|  0.27656
USER: genes 15 Torsion [N]-CA--CB-[CG2] |==|  0.03326
USER: genes 16 Torsion [N]-CA--C-[N] |==|  0.29187
USER: genes 17 Torsion [C]-N--CA-[C] |==|  0.50476
USER: genes 18 Torsion [N]-CA--C-[O] |==|  0.23197
USER: genes 19 Torsion [N]-CA--CB-[CG] |==|  0.57960
USER: genes 20 Torsion [CA]-CB--CG-[CD2] |==|  0.78022
USER: genes 21 Torsion [N]-CA--CB-[CG] |==|  0.63913
USER: genes 22 Torsion [CA]-CB--CG-[CD] |==|  0.30317
USER: genes 23 Torsion [CB]-CG--CD-[OE2] |==|  0.79020
ROOT
ATOM      1  C   ALA B   3     -17.765 -26.852  -6.553  1.00 17.17 LIG 0.24  C 
ATOM      2 O    ALA B   3     -18.848 -26.350  -6.855  1.00 18.54 LIG-0.27  OA
ATOM      3  N   GLU B   4     -16.599 -26.353  -6.957  1.00 17.89 LIG-0.35  N 
ATOM      4 H    GLU B   4     -15.837 -26.695  -6.753  1.00 17.89 LIG 0.16  HD
ENDROOT
BRANCH 1 5
ATOM      5  CA  ALA B   3     -17.710 -28.104  -5.678  1.00 15.99 LIG 0.17  C 
ATOM      6  CB  ALA B   3     -17.728 -27.712  -4.204  1.00 16.21 LIG 0.04  C 
BRANCH 5 7
ATOM      7  N   ALA B   3     -16.554 -28.949  -5.951  1.00 13.91 LIG-0.35  N 
ATOM      8  C   ARG B   2     -16.331 -29.451  -7.162  1.00 12.46 LIG 0.24  C 
ATOM      9 O    ARG B   2     -17.071 -29.231  -8.121  1.00 11.56 LIG-0.27  OA
ATOM     10 H    ALA B   3     -16.045 -29.086  -5.272  1.00 13.91 LIG 0.16  HD
BRANCH 8 11
ATOM     11  CA  ARG B   2     -15.098 -30.334  -7.324  1.00 12.24 LIG 0.18  C 
BRANCH 11 12
ATOM     12  CB  ARG B   2     -15.446 -31.778  -6.954  1.00 10.58 LIG 0.04  C 
BRANCH 12 13
ATOM     13  CG  ARG B   2     -16.853 -32.212  -7.340  1.00  9.71 LIG 0.02  C 
BRANCH 13 14
ATOM     14  CD  ARG B   2     -17.836 -31.867  -6.233  1.00  9.44 LIG 0.14  C 
BRANCH 14 15
ATOM     15  NE  ARG B   2     -17.209 -31.872  -4.913  1.00  9.23 LIG-0.23  N 
ATOM     16  CZ  ARG B   2     -17.703 -31.259  -3.844  1.00  9.20 LIG 0.67  C 
ATOM     17  NH1 ARG B   2     -18.841 -30.582  -3.934  1.00  7.63 LIG-0.23  N 
ATOM     18  NH2 ARG B   2     -17.062 -31.323  -2.684  1.00  9.31 LIG-0.23  N 
ATOM     19 1HH1 ARG B   2     -19.258 -30.540  -4.684  1.00  7.63 LIG 0.17  HD
ATOM     20 2HH1 ARG B   2     -19.161 -30.185  -3.241  1.00  7.63 LIG 0.17  HD
ATOM     21 2HH2 ARG B   2     -17.384 -30.925  -1.993  1.00  9.31 LIG 0.17  HD
ATOM     22 1HH2 ARG B   2     -16.325 -31.762  -2.623  1.00  9.31 LIG 0.17  HD
ATOM     23 HE   ARG B   2     -16.469 -32.301  -4.822  1.00  9.23 LIG 0.18  HD
ENDBRANCH 14 15
ENDBRANCH 13 14
ENDBRANCH 12 13
ENDBRANCH 11 12
BRANCH 11 24
ATOM     24  N   ARG B   2     -13.926 -29.915  -6.563  1.00 12.50 LIG-0.35  N 
ATOM     25  C   ALA B   1     -12.702 -29.873  -7.076  1.00 14.33 LIG 0.25  C 
ATOM     26 O    ALA B   1     -12.449 -30.148  -8.248  1.00 14.72 LIG-0.27  OA
ATOM     27 H    ARG B   2     -14.102 -29.697  -5.750  1.00 12.50 LIG 0.16  HD
BRANCH 25 28
ATOM     28  CA  ALA B   1     -11.600 -29.441  -6.114  1.00 14.93 LIG 0.27  C 
ATOM     29  CB  ALA B   1     -12.205 -28.769  -4.887  1.00 16.58 LIG 0.05  C 
BRANCH 28 30
ATOM     30  N   ALA B   1     -10.636 -28.521  -6.779  1.00 16.58 LIG-0.07  N 
ATOM     31 H3   ALA B   1     -11.082 -27.934  -7.280  1.00 16.58 LIG 0.28  HD
ATOM     32 H1   ALA B   1     -10.165 -28.087  -6.162  1.00 16.58 LIG 0.28  HD
ATOM     33 H2   ALA B   1     -10.085 -28.991  -7.296  1.00 16.58 LIG 0.28  HD
ENDBRANCH 28 30
ENDBRANCH 25 28
ENDBRANCH 11 24
ENDBRANCH 8 11
ENDBRANCH 5 7
ENDBRANCH 1 5
BRANCH 3 34
ATOM     34  CA  GLU B   4     -16.516 -25.159  -7.797  1.00 20.15 LIG 0.18  C 
BRANCH 34 35
ATOM     35  C   GLU B   4     -16.183 -25.531  -9.239  1.00 19.92 LIG 0.24  C 
ATOM     36  N   VAL B   5     -15.594 -26.708  -9.428  1.00 19.46 LIG-0.35  N 
ATOM     37 H    VAL B   5     -15.398 -27.255  -8.793  1.00 19.46 LIG 0.16  HD
ATOM     38 O    GLU B   4     -16.462 -24.769 -10.165  1.00 20.03 LIG-0.27  OA
BRANCH 36 39
ATOM     39  CA  VAL B   5     -15.228 -27.173 -10.762  1.00 20.09 LIG 0.18  C 
BRANCH 39 40
ATOM     40  CB  VAL B   5     -13.725 -26.937 -11.044  1.00 20.49 LIG 0.01  C 
ATOM     41  CG2 VAL B   5     -13.004 -26.566  -9.760  1.00 19.70 LIG 0.01  C 
ATOM     42  CG1 VAL B   5     -13.554 -25.841 -12.082  1.00 21.00 LIG 0.01  C 
ENDBRANCH 39 40
BRANCH 39 43
ATOM     43  C   VAL B   5     -15.519 -28.661 -10.934  1.00 20.75 LIG 0.24  C 
ATOM     44  N   HIS B   6     -16.583 -28.978 -11.668  1.00 20.78 LIG-0.35  N 
ATOM     45 H    HIS B   6     -17.107 -28.400 -12.031  1.00 20.78 LIG 0.16  HD
ATOM     46 O    VAL B   5     -14.799 -29.507 -10.405  1.00 21.91 LIG-0.27  OA
BRANCH 44 47
ATOM     47  CA  HIS B   6     -16.946 -30.368 -11.918  1.00 21.28 LIG 0.17  C 
BRANCH 47 48
ATOM     48  C   HIS B   6     -18.175 -30.428 -12.819  1.00 23.03 LIG 0.22  C 
ATOM     49 O    HIS B   6     -18.007 -30.338 -14.054  1.00 25.39 LIG-0.29  OA
ENDBRANCH 47 48
BRANCH 47 50
ATOM     50  CB  HIS B   6     -17.250 -31.100 -10.607  1.00 19.33 LIG 0.09  C 
BRANCH 50 51
ATOM     51  CG  HIS B   6     -16.965 -32.570 -10.661  1.00 17.39 LIG 0.06  A 
ATOM     52  CD2 HIS B   6     -17.674 -33.597 -11.187  1.00 16.59 LIG 0.14  A 
ATOM     53 NE2  HIS B   6     -16.937 -34.741 -10.993  1.00 16.70 LIG-0.25  NA
ATOM     54  CE1 HIS B   6     -15.817 -34.427 -10.369  1.00 16.06 LIG 0.23  A 
ATOM     55 ND1  HIS B   6     -15.809 -33.123 -10.157  1.00 16.09 LIG-0.24  NA
ENDBRANCH 50 51
ENDBRANCH 47 50
ENDBRANCH 44 47
ENDBRANCH 39 43
ENDBRANCH 36 39
ENDBRANCH 34 35
BRANCH 34 56
ATOM     56  CB  GLU B   4     -15.438 -24.211  -7.264  1.00 22.38 LIG 0.04  C 
BRANCH 56 57
ATOM     57  CG  GLU B   4     -15.892 -22.772  -7.091  1.00 27.64 LIG 0.12  C 
BRANCH 57 58
ATOM     58  CD  GLU B   4     -16.023 -22.382  -5.632  1.00 30.78 LIG 0.17  C 
ATOM     59 OE2  GLU B   4     -17.010 -22.799  -4.988  1.00 32.62 LIG-0.65  OA
ATOM     60 OE1  GLU B   4     -15.139 -21.657  -5.129  1.00 32.75 LIG-0.65  OA
ENDBRANCH 57 58
ENDBRANCH 56 57
ENDBRANCH 34 56
ENDBRANCH 3 34
TORSDOF 22
ENDMDL
MODEL 87
USER: ADFR SOLUTION from run 161
USER: SCORE 17.560799 LL:  -5.085 LR: -13.382 RR:   0.000 FEB:  -6.819
USER: RMSD 5.294298
USER: SEED 160
USER: STATUS no improvement in best in 14 clusters for 5 generations
USER: GENES 24
USER: genes 0 Translation |==|  0.36538 0.49084 0.46181
USER: genes 1 Rotation |==|  0.62057 0.76354 0.26903 0.83565
USER: genes 2 Torsion [N]-C--CA-[N] |==|  0.07610
USER: genes 3 Torsion [C]-CA--N-[C] |==|  0.18573
USER: genes 4 Torsion [N]-C--CA-[N] |==|  0.40954
USER: genes 5 Torsion [C]-CA--CB-[CG] |==|  0.14197
USER: genes 6 Torsion [CA]-CB--CG-[CD] |==|  0.23230
USER: genes 7 Torsion [CB]-CG--CD-[NE] |==|  0.60547
USER: genes 8 Torsion [CG]-CD--NE-[CZ] |==|  0.43081
USER: genes 9 Torsion [C]-CA--N-[C] |==|  0.81598
USER: genes 10 Torsion [N]-C--CA-[N] |==|  0.54404
USER: genes 11 Torsion [C]-CA--N-[H2] |==|  0.41875
USER: genes 12 Torsion [C]-N--CA-[C] |==|  0.76272
USER: genes 13 Torsion [N]-CA--C-[N] |==|  0.47222
USER: genes 14 Torsion [C]-N--CA-[CB] |==|  0.51798
USER: genes 15 Torsion [N]-CA--CB-[CG2] |==|  0.85476
USER: genes 16 Torsion [N]-CA--C-[N] |==|  0.39230
USER: genes 17 Torsion [C]-N--CA-[C] |==|  0.77462
USER: genes 18 Torsion [N]-CA--C-[O] |==|  0.10278
USER: genes 19 Torsion [N]-CA--CB-[CG] |==|  0.24427
USER: genes 20 Torsion [CA]-CB--CG-[CD2] |==|  0.32420
USER: genes 21 Torsion [N]-CA--CB-[CG] |==|  0.55633
USER: genes 22 Torsion [CA]-CB--CG-[CD] |==|  0.41123
USER: genes 23 Torsion [CB]-CG--CD-[OE2] |==|  0.51893
ROOT
ATOM      1  C   ALA B   3     -17.559 -28.302  -5.877  1.00 17.17 LIG 0.24  C 
ATOM      2 O    ALA B   3     -18.523 -27.787  -5.308  1.00 18.54 LIG-0.27  OA
ATOM      3  N   GLU B   4     -17.426 -29.618  -6.024  1.00 17.89 LIG-0.35  N 
ATOM      4 H    GLU B   4     -16.758 -29.989  -6.419  1.00 17.89 LIG 0.16  HD
ENDROOT
BRANCH 1 5
ATOM      5  CA  ALA B   3     -16.445 -27.429  -6.454  1.00 15.99 LIG 0.17  C 
ATOM      6  CB  ALA B   3     -17.007 -26.073  -6.868  1.00 16.21 LIG 0.04  C 
BRANCH 5 7
ATOM      7  N   ALA B   3     -15.756 -28.044  -7.582  1.00 13.91 LIG-0.35  N 
ATOM      8  C   ARG B   2     -16.374 -28.258  -8.740  1.00 12.46 LIG 0.24  C 
ATOM      9 O    ARG B   2     -17.548 -27.945  -8.937  1.00 11.56 LIG-0.27  OA
ATOM     10 H    ALA B   3     -14.935 -28.250  -7.429  1.00 13.91 LIG 0.16  HD
BRANCH 8 11
ATOM     11  CA  ARG B   2     -15.557 -28.923  -9.843  1.00 12.24 LIG 0.18  C 
BRANCH 11 12
ATOM     12  CB  ARG B   2     -14.833 -27.854 -10.665  1.00 10.58 LIG 0.04  C 
BRANCH 12 13
ATOM     13  CG  ARG B   2     -14.035 -26.851  -9.843  1.00  9.71 LIG 0.02  C 
BRANCH 13 14
ATOM     14  CD  ARG B   2     -12.662 -27.413  -9.511  1.00  9.44 LIG 0.14  C 
BRANCH 14 15
ATOM     15  NE  ARG B   2     -12.227 -27.053  -8.162  1.00  9.23 LIG-0.23  N 
ATOM     16  CZ  ARG B   2     -11.353 -27.747  -7.444  1.00  9.20 LIG 0.67  C 
ATOM     17  NH1 ARG B   2     -10.811 -28.851  -7.944  1.00  7.63 LIG-0.23  N 
ATOM     18  NH2 ARG B   2     -11.017 -27.339  -6.227  1.00  9.31 LIG-0.23  N 
ATOM     19 1HH1 ARG B   2     -11.026 -29.116  -8.733  1.00  7.63 LIG 0.17  HD
ATOM     20 2HH1 ARG B   2     -10.244 -29.300  -7.479  1.00  7.63 LIG 0.17  HD
ATOM     21 2HH2 ARG B   2     -10.450 -27.790  -5.764  1.00  9.31 LIG 0.17  HD
ATOM     22 1HH2 ARG B   2     -11.366 -26.624  -5.902  1.00  9.31 LIG 0.17  HD
ATOM     23 HE   ARG B   2     -12.561 -26.344  -7.809  1.00  9.23 LIG 0.18  HD
ENDBRANCH 14 15
ENDBRANCH 13 14
ENDBRANCH 12 13
ENDBRANCH 11 12
BRANCH 11 24
ATOM     24  N   ARG B   2     -16.311 -29.788 -10.743  1.00 12.50 LIG-0.35  N 
ATOM     25  C   ALA B   1     -16.883 -30.922 -10.354  1.00 14.33 LIG 0.25  C 
ATOM     26 O    ALA B   1     -16.861 -31.327  -9.193  1.00 14.72 LIG-0.27  OA
ATOM     27 H    ARG B   2     -16.352 -29.495 -11.550  1.00 12.50 LIG 0.16  HD
BRANCH 25 28
ATOM     28  CA  ALA B   1     -17.600 -31.706 -11.448  1.00 14.93 LIG 0.27  C 
ATOM     29  CB  ALA B   1     -18.384 -30.759 -12.348  1.00 16.58 LIG 0.05  C 
BRANCH 28 30
ATOM     30  N   ALA B   1     -18.511 -32.731 -10.865  1.00 16.58 LIG-0.07  N 
ATOM     31 H3   ALA B   1     -18.065 -33.492 -10.747  1.00 16.58 LIG 0.28  HD
ATOM     32 H1   ALA B   1     -18.819 -32.442 -10.082  1.00 16.58 LIG 0.28  HD
ATOM     33 H2   ALA B   1     -19.193 -32.870 -11.419  1.00 16.58 LIG 0.28  HD
ENDBRANCH 28 30
ENDBRANCH 25 28
ENDBRANCH 11 24
ENDBRANCH 8 11
ENDBRANCH 5 7
ENDBRANCH 1 5
BRANCH 3 34
ATOM     34  CA  GLU B   4     -18.422 -30.560  -5.517  1.00 20.15 LIG 0.18  C 
BRANCH 34 35
ATOM     35  C   GLU B   4     -18.160 -30.892  -4.050  1.00 19.92 LIG 0.24  C 
ATOM     36  N   VAL B   5     -19.110 -31.574  -3.418  1.00 19.46 LIG-0.35  N 
ATOM     37 H    VAL B   5     -19.844 -31.831  -3.786  1.00 19.46 LIG 0.16  HD
ATOM     38 O    GLU B   4     -17.113 -30.544  -3.505  1.00 20.03 LIG-0.27  OA
BRANCH 36 39
ATOM     39  CA  VAL B   5     -18.973 -31.950  -2.014  1.00 20.09 LIG 0.18  C 
BRANCH 39 40
ATOM     40  CB  VAL B   5     -20.133 -32.870  -1.565  1.00 20.49 LIG 0.01  C 
ATOM     41  CG2 VAL B   5     -21.468 -32.237  -1.914  1.00 19.70 LIG 0.01  C 
ATOM     42  CG1 VAL B   5     -20.045 -33.129  -0.071  1.00 21.00 LIG 0.01  C 
ENDBRANCH 39 40
BRANCH 39 43
ATOM     43  C   VAL B   5     -17.656 -32.680  -1.758  1.00 20.75 LIG 0.24  C 
ATOM     44  N   HIS B   6     -17.031 -32.395  -0.619  1.00 20.78 LIG-0.35  N 
ATOM     45 H    HIS B   6     -17.318 -31.826  -0.041  1.00 20.78 LIG 0.16  HD
ATOM     46 O    VAL B   5     -17.212 -33.480  -2.580  1.00 21.91 LIG-0.27  OA
BRANCH 44 47
ATOM     47  CA  HIS B   6     -15.777 -33.046  -0.258  1.00 21.28 LIG 0.17  C 
BRANCH 47 48
ATOM     48  C   HIS B   6     -16.059 -34.421   0.336  1.00 23.03 LIG 0.22  C 
ATOM     49 O    HIS B   6     -16.997 -35.091  -0.147  1.00 25.39 LIG-0.29  OA
ENDBRANCH 47 48
BRANCH 47 50
ATOM     50  CB  HIS B   6     -14.998 -32.210   0.762  1.00 19.33 LIG 0.09  C 
BRANCH 50 51
ATOM     51  CG  HIS B   6     -15.364 -32.505   2.185  1.00 17.39 LIG 0.06  A 
ATOM     52  CD2 HIS B   6     -14.635 -33.010   3.208  1.00 16.59 LIG 0.14  A 
ATOM     53 NE2  HIS B   6     -15.452 -33.043   4.312  1.00 16.70 LIG-0.25  NA
ATOM     54  CE1 HIS B   6     -16.642 -32.578   3.978  1.00 16.06 LIG 0.23  A 
ATOM     55 ND1  HIS B   6     -16.616 -32.245   2.699  1.00 16.09 LIG-0.24  NA
ENDBRANCH 50 51
ENDBRANCH 47 50
ENDBRANCH 44 47
ENDBRANCH 39 43
ENDBRANCH 36 39
ENDBRANCH 34 35
BRANCH 34 56
ATOM     56  CB  GLU B   4     -18.392 -31.854  -6.336  1.00 22.38 LIG 0.04  C 
BRANCH 56 57
ATOM     57  CG  GLU B   4     -19.655 -32.691  -6.240  1.00 27.64 LIG 0.12  C 
BRANCH 57 58
ATOM     58  CD  GLU B   4     -19.938 -33.452  -7.521  1.00 30.78 LIG 0.17  C 
ATOM     59 OE2  GLU B   4     -21.016 -34.077  -7.619  1.00 32.62 LIG-0.65  OA
ATOM     60 OE1  GLU B   4     -19.082 -33.424  -8.430  1.00 32.75 LIG-0.65  OA
ENDBRANCH 57 58
ENDBRANCH 56 57
ENDBRANCH 34 56
ENDBRANCH 3 34
TORSDOF 22
ENDMDL
MODEL 88
USER: ADFR SOLUTION from run 34
USER: SCORE 15.516821 LL:  -4.030 LR: -13.359 RR:   0.000 FEB:  -6.796
USER: RMSD 8.350213
USER: SEED 33
USER: STATUS no improvement in best in 5 clusters for 5 generations
USER: GENES 24
USER: genes 0 Translation |==|  0.43442 0.35015 0.55408
USER: genes 1 Rotation |==|  0.44259 0.18714 0.17588 0.70921
USER: genes 2 Torsion [N]-C--CA-[N] |==|  0.58760
USER: genes 3 Torsion [C]-CA--N-[C] |==|  0.76770
USER: genes 4 Torsion [N]-C--CA-[N] |==|  0.95986
USER: genes 5 Torsion [C]-CA--CB-[CG] |==|  0.35559
USER: genes 6 Torsion [CA]-CB--CG-[CD] |==|  0.46412
USER: genes 7 Torsion [CB]-CG--CD-[NE] |==|  0.80986
USER: genes 8 Torsion [CG]-CD--NE-[CZ] |==|  0.29330
USER: genes 9 Torsion [C]-CA--N-[C] |==|  0.81696
USER: genes 10 Torsion [N]-C--CA-[N] |==|  0.36512
USER: genes 11 Torsion [C]-CA--N-[H2] |==|  0.87391
USER: genes 12 Torsion [C]-N--CA-[C] |==|  0.15514
USER: genes 13 Torsion [N]-CA--C-[N] |==|  0.22750
USER: genes 14 Torsion [C]-N--CA-[CB] |==|  0.53897
USER: genes 15 Torsion [N]-CA--CB-[CG2] |==|  0.86255
USER: genes 16 Torsion [N]-CA--C-[N] |==|  0.40845
USER: genes 17 Torsion [C]-N--CA-[C] |==|  0.66276
USER: genes 18 Torsion [N]-CA--C-[O] |==|  0.03292
USER: genes 19 Torsion [N]-CA--CB-[CG] |==|  0.89669
USER: genes 20 Torsion [CA]-CB--CG-[CD2] |==|  0.75988
USER: genes 21 Torsion [N]-CA--CB-[CG] |==|  0.83161
USER: genes 22 Torsion [CA]-CB--CG-[CD] |==|  0.56471
USER: genes 23 Torsion [CB]-CG--CD-[OE2] |==|  0.22400
ROOT
ATOM      1  C   ALA B   3     -16.316 -31.573  -3.870  1.00 17.17 LIG 0.24  C 
ATOM      2 O    ALA B   3     -16.077 -32.006  -4.998  1.00 18.54 LIG-0.27  OA
ATOM      3  N   GLU B   4     -17.426 -30.899  -3.575  1.00 17.89 LIG-0.35  N 
ATOM      4 H    GLU B   4     -17.604 -30.592  -2.792  1.00 17.89 LIG 0.16  HD
ENDROOT
BRANCH 1 5
ATOM      5  CA  ALA B   3     -15.324 -31.796  -2.729  1.00 15.99 LIG 0.17  C 
ATOM      6  CB  ALA B   3     -15.491 -30.710  -1.671  1.00 16.21 LIG 0.04  C 
BRANCH 5 7
ATOM      7  N   ALA B   3     -13.936 -31.843  -3.174  1.00 13.91 LIG-0.35  N 
ATOM      8  C   ARG B   2     -13.396 -32.961  -3.649  1.00 12.46 LIG 0.24  C 
ATOM      9 O    ARG B   2     -14.026 -34.013  -3.753  1.00 11.56 LIG-0.27  OA
ATOM     10 H    ALA B   3     -13.513 -31.097  -3.100  1.00 13.91 LIG 0.16  HD
BRANCH 8 11
ATOM     11  CA  ARG B   2     -11.931 -32.894  -4.068  1.00 12.24 LIG 0.18  C 
BRANCH 11 12
ATOM     12  CB  ARG B   2     -11.074 -33.681  -3.074  1.00 10.58 LIG 0.04  C 
BRANCH 12 13
ATOM     13  CG  ARG B   2     -10.150 -34.711  -3.708  1.00  9.71 LIG 0.02  C 
BRANCH 13 14
ATOM     14  CD  ARG B   2      -9.131 -35.204  -2.693  1.00  9.44 LIG 0.14  C 
BRANCH 14 15
ATOM     15  NE  ARG B   2      -8.169 -34.167  -2.324  1.00  9.23 LIG-0.23  N 
ATOM     16  CZ  ARG B   2      -8.175 -33.515  -1.167  1.00  9.20 LIG 0.67  C 
ATOM     17  NH1 ARG B   2      -9.098 -33.790  -0.254  1.00  7.63 LIG-0.23  N 
ATOM     18  NH2 ARG B   2      -7.257 -32.589  -0.921  1.00  9.31 LIG-0.23  N 
ATOM     19 1HH1 ARG B   2      -9.692 -34.390  -0.412  1.00  7.63 LIG 0.17  HD
ATOM     20 2HH1 ARG B   2      -9.101 -33.368   0.495  1.00  7.63 LIG 0.17  HD
ATOM     21 2HH2 ARG B   2      -7.261 -32.168  -0.171  1.00  9.31 LIG 0.17  HD
ATOM     22 1HH2 ARG B   2      -6.657 -32.410  -1.510  1.00  9.31 LIG 0.17  HD
ATOM     23 HE   ARG B   2      -7.559 -33.964  -2.895  1.00  9.23 LIG 0.18  HD
ENDBRANCH 14 15
ENDBRANCH 13 14
ENDBRANCH 12 13
ENDBRANCH 11 12
BRANCH 11 24
ATOM     24  N   ARG B   2     -11.384 -31.548  -4.209  1.00 12.50 LIG-0.35  N 
ATOM     25  C   ALA B   1     -11.791 -30.691  -5.137  1.00 14.33 LIG 0.25  C 
ATOM     26 O    ALA B   1     -12.692 -30.937  -5.938  1.00 14.72 LIG-0.27  OA
ATOM     27 H    ARG B   2     -10.772 -31.362  -3.634  1.00 12.50 LIG 0.16  HD
BRANCH 25 28
ATOM     28  CA  ALA B   1     -11.076 -29.344  -5.148  1.00 14.93 LIG 0.27  C 
ATOM     29  CB  ALA B   1     -11.987 -28.259  -4.584  1.00 16.58 LIG 0.05  C 
BRANCH 28 30
ATOM     30  N   ALA B   1     -10.636 -28.980  -6.523  1.00 16.58 LIG-0.07  N 
ATOM     31 H3   ALA B   1     -11.341 -28.723  -7.003  1.00 16.58 LIG 0.28  HD
ATOM     32 H1   ALA B   1     -10.048 -28.313  -6.480  1.00 16.58 LIG 0.28  HD
ATOM     33 H2   ALA B   1     -10.256 -29.685  -6.910  1.00 16.58 LIG 0.28  HD
ENDBRANCH 28 30
ENDBRANCH 25 28
ENDBRANCH 11 24
ENDBRANCH 8 11
ENDBRANCH 5 7
ENDBRANCH 1 5
BRANCH 3 34
ATOM     34  CA  GLU B   4     -18.453 -30.621  -4.577  1.00 20.15 LIG 0.18  C 
BRANCH 34 35
ATOM     35  C   GLU B   4     -18.943 -31.912  -5.228  1.00 19.92 LIG 0.24  C 
ATOM     36  N   VAL B   5     -19.860 -32.603  -4.559  1.00 19.46 LIG-0.35  N 
ATOM     37 H    VAL B   5     -20.182 -32.364  -3.798  1.00 19.46 LIG 0.16  HD
ATOM     38 O    GLU B   4     -18.502 -32.270  -6.321  1.00 20.03 LIG-0.27  OA
BRANCH 36 39
ATOM     39  CA  VAL B   5     -20.404 -33.853  -5.081  1.00 20.09 LIG 0.18  C 
BRANCH 39 40
ATOM     40  CB  VAL B   5     -21.679 -34.274  -4.311  1.00 20.49 LIG 0.01  C 
ATOM     41  CG2 VAL B   5     -21.428 -34.220  -2.815  1.00 19.70 LIG 0.01  C 
ATOM     42  CG1 VAL B   5     -22.102 -35.672  -4.727  1.00 21.00 LIG 0.01  C 
ENDBRANCH 39 40
BRANCH 39 43
ATOM     43  C   VAL B   5     -20.756 -33.733  -6.562  1.00 20.75 LIG 0.24  C 
ATOM     44  N   HIS B   6     -20.605 -34.830  -7.299  1.00 20.78 LIG-0.35  N 
ATOM     45 H    HIS B   6     -20.315 -35.580  -6.994  1.00 20.78 LIG 0.16  HD
ATOM     46 O    VAL B   5     -21.150 -32.665  -7.028  1.00 21.91 LIG-0.27  OA
BRANCH 44 47
ATOM     47  CA  HIS B   6     -20.931 -34.839  -8.721  1.00 21.28 LIG 0.17  C 
BRANCH 47 48
ATOM     48  C   HIS B   6     -21.992 -35.897  -9.002  1.00 23.03 LIG 0.22  C 
ATOM     49 O    HIS B   6     -22.581 -36.416  -8.030  1.00 25.39 LIG-0.29  OA
ENDBRANCH 47 48
BRANCH 47 50
ATOM     50  CB  HIS B   6     -19.689 -35.138  -9.567  1.00 19.33 LIG 0.09  C 
BRANCH 50 51
ATOM     51  CG  HIS B   6     -18.435 -34.517  -9.031  1.00 17.39 LIG 0.06  A 
ATOM     52  CD2 HIS B   6     -17.898 -33.289  -9.217  1.00 16.59 LIG 0.14  A 
ATOM     53 NE2  HIS B   6     -16.751 -33.228  -8.462  1.00 16.70 LIG-0.25  NA
ATOM     54  CE1 HIS B   6     -16.589 -34.379  -7.836  1.00 16.06 LIG 0.23  A 
ATOM     55 ND1  HIS B   6     -17.593 -35.176  -8.162  1.00 16.09 LIG-0.24  NA
ENDBRANCH 50 51
ENDBRANCH 47 50
ENDBRANCH 44 47
ENDBRANCH 39 43
ENDBRANCH 36 39
ENDBRANCH 34 35
BRANCH 34 56
ATOM     56  CB  GLU B   4     -17.898 -29.693  -5.661  1.00 22.38 LIG 0.04  C 
BRANCH 56 57
ATOM     57  CG  GLU B   4     -17.430 -28.340  -5.156  1.00 27.64 LIG 0.12  C 
BRANCH 57 58
ATOM     58  CD  GLU B   4     -17.429 -27.288  -6.248  1.00 30.78 LIG 0.17  C 
ATOM     59 OE2  GLU B   4     -18.509 -26.734  -6.546  1.00 32.62 LIG-0.65  OA
ATOM     60 OE1  GLU B   4     -16.347 -27.015  -6.809  1.00 32.75 LIG-0.65  OA
ENDBRANCH 57 58
ENDBRANCH 56 57
ENDBRANCH 34 56
ENDBRANCH 3 34
TORSDOF 22
ENDMDL
MODEL 89
USER: ADFR SOLUTION from run 58
USER: SCORE 16.962265 LL:  -5.273 LR: -13.342 RR:   0.000 FEB:  -6.780
USER: RMSD 7.201129
USER: SEED 57
USER: STATUS searching
USER: GENES 24
USER: genes 0 Translation |==|  0.39569 0.58045 0.32996
USER: genes 1 Rotation |==|  0.82727 0.38953 0.50154 0.86151
USER: genes 2 Torsion [N]-C--CA-[N] |==|  0.04430
USER: genes 3 Torsion [C]-CA--N-[C] |==|  0.73080
USER: genes 4 Torsion [N]-C--CA-[N] |==|  0.53208
USER: genes 5 Torsion [C]-CA--CB-[CG] |==|  0.90198
USER: genes 6 Torsion [CA]-CB--CG-[CD] |==|  0.43104
USER: genes 7 Torsion [CB]-CG--CD-[NE] |==|  0.92048
USER: genes 8 Torsion [CG]-CD--NE-[CZ] |==|  0.37996
USER: genes 9 Torsion [C]-CA--N-[C] |==|  0.15639
USER: genes 10 Torsion [N]-C--CA-[N] |==|  0.13029
USER: genes 11 Torsion [C]-CA--N-[H2] |==|  0.42774
USER: genes 12 Torsion [C]-N--CA-[C] |==|  0.62964
USER: genes 13 Torsion [N]-CA--C-[N] |==|  0.40980
USER: genes 14 Torsion [C]-N--CA-[CB] |==|  0.52090
USER: genes 15 Torsion [N]-CA--CB-[CG2] |==|  0.55078
USER: genes 16 Torsion [N]-CA--C-[N] |==|  0.43113
USER: genes 17 Torsion [C]-N--CA-[C] |==|  0.66931
USER: genes 18 Torsion [N]-CA--C-[O] |==|  0.96422
USER: genes 19 Torsion [N]-CA--CB-[CG] |==|  0.10031
USER: genes 20 Torsion [CA]-CB--CG-[CD2] |==|  0.18701
USER: genes 21 Torsion [N]-CA--CB-[CG] |==|  0.79021
USER: genes 22 Torsion [CA]-CB--CG-[CD] |==|  0.28149
USER: genes 23 Torsion [CB]-CG--CD-[OE2] |==|  0.77857
ROOT
ATOM      1  C   ALA B   3     -17.014 -26.218  -8.744  1.00 17.17 LIG 0.24  C 
ATOM      2 O    ALA B   3     -17.251 -25.448  -9.676  1.00 18.54 LIG-0.27  OA
ATOM      3  N   GLU B   4     -16.660 -27.488  -8.930  1.00 17.89 LIG-0.35  N 
ATOM      4 H    GLU B   4     -16.492 -28.035  -8.288  1.00 17.89 LIG 0.16  HD
ENDROOT
BRANCH 1 5
ATOM      5  CA  ALA B   3     -17.118 -25.738  -7.297  1.00 15.99 LIG 0.17  C 
ATOM      6  CB  ALA B   3     -16.540 -24.332  -7.171  1.00 16.21 LIG 0.04  C 
BRANCH 5 7
ATOM      7  N   ALA B   3     -16.464 -26.627  -6.345  1.00 13.91 LIG-0.35  N 
ATOM      8  C   ARG B   2     -17.149 -27.544  -5.668  1.00 12.46 LIG 0.24  C 
ATOM      9 O    ARG B   2     -18.361 -27.706  -5.805  1.00 11.56 LIG-0.27  OA
ATOM     10 H    ALA B   3     -15.616 -26.505  -6.268  1.00 13.91 LIG 0.16  HD
BRANCH 8 11
ATOM     11  CA  ARG B   2     -16.360 -28.407  -4.688  1.00 12.24 LIG 0.18  C 
BRANCH 11 12
ATOM     12  CB  ARG B   2     -15.061 -28.877  -5.345  1.00 10.58 LIG 0.04  C 
BRANCH 12 13
ATOM     13  CG  ARG B   2     -15.172 -29.171  -6.835  1.00  9.71 LIG 0.02  C 
BRANCH 13 14
ATOM     14  CD  ARG B   2     -13.815 -29.028  -7.505  1.00  9.44 LIG 0.14  C 
BRANCH 14 15
ATOM     15  NE  ARG B   2     -12.956 -28.065  -6.819  1.00  9.23 LIG-0.23  N 
ATOM     16  CZ  ARG B   2     -11.666 -28.254  -6.568  1.00  9.20 LIG 0.67  C 
ATOM     17  NH1 ARG B   2     -11.074 -29.379  -6.946  1.00  7.63 LIG-0.23  N 
ATOM     18  NH2 ARG B   2     -10.966 -27.317  -5.940  1.00  9.31 LIG-0.23  N 
ATOM     19 1HH1 ARG B   2     -11.526 -29.986  -7.354  1.00  7.63 LIG 0.17  HD
ATOM     20 2HH1 ARG B   2     -10.238 -29.501  -6.783  1.00  7.63 LIG 0.17  HD
ATOM     21 2HH2 ARG B   2     -10.130 -27.441  -5.778  1.00  9.31 LIG 0.17  HD
ATOM     22 1HH2 ARG B   2     -11.347 -26.587  -5.695  1.00  9.31 LIG 0.17  HD
ATOM     23 HE   ARG B   2     -13.310 -27.325  -6.560  1.00  9.23 LIG 0.18  HD
ENDBRANCH 14 15
ENDBRANCH 13 14
ENDBRANCH 12 13
ENDBRANCH 11 12
BRANCH 11 24
ATOM     24  N   ARG B   2     -17.075 -29.564  -4.160  1.00 12.50 LIG-0.35  N 
ATOM     25  C   ALA B   1     -17.615 -30.500  -4.932  1.00 14.33 LIG 0.25  C 
ATOM     26 O    ALA B   1     -17.530 -30.497  -6.159  1.00 14.72 LIG-0.27  OA
ATOM     27 H    ARG B   2     -17.114 -29.584  -3.301  1.00 12.50 LIG 0.16  HD
BRANCH 25 28
ATOM     28  CA  ALA B   1     -18.352 -31.615  -4.197  1.00 14.93 LIG 0.27  C 
ATOM     29  CB  ALA B   1     -19.139 -32.466  -5.185  1.00 16.58 LIG 0.05  C 
BRANCH 28 30
ATOM     30  N   ALA B   1     -19.262 -31.063  -3.156  1.00 16.58 LIG-0.07  N 
ATOM     31 H3   ALA B   1     -18.808 -30.937  -2.400  1.00 16.58 LIG 0.28  HD
ATOM     32 H1   ALA B   1     -19.595 -30.286  -3.434  1.00 16.58 LIG 0.28  HD
ATOM     33 H2   ALA B   1     -19.927 -31.635  -3.009  1.00 16.58 LIG 0.28  HD
ENDBRANCH 28 30
ENDBRANCH 25 28
ENDBRANCH 11 24
ENDBRANCH 8 11
ENDBRANCH 5 7
ENDBRANCH 1 5
BRANCH 3 34
ATOM     34  CA  GLU B   4     -16.524 -28.069 -10.264  1.00 20.15 LIG 0.18  C 
BRANCH 34 35
ATOM     35  C   GLU B   4     -17.222 -29.425 -10.341  1.00 19.92 LIG 0.24  C 
ATOM     36  N   VAL B   5     -17.759 -29.750 -11.512  1.00 19.46 LIG-0.35  N 
ATOM     37 H    VAL B   5     -17.732 -29.247 -12.210  1.00 19.46 LIG 0.16  HD
ATOM     38 O    GLU B   4     -17.264 -30.165  -9.358  1.00 20.03 LIG-0.27  OA
BRANCH 36 39
ATOM     39  CA  VAL B   5     -18.452 -31.020 -11.708  1.00 20.09 LIG 0.18  C 
BRANCH 39 40
ATOM     40  CB  VAL B   5     -18.817 -31.236 -13.196  1.00 20.49 LIG 0.01  C 
ATOM     41  CG2 VAL B   5     -19.898 -32.295 -13.321  1.00 19.70 LIG 0.01  C 
ATOM     42  CG1 VAL B   5     -17.582 -31.644 -13.981  1.00 21.00 LIG 0.01  C 
ENDBRANCH 39 40
BRANCH 39 43
ATOM     43  C   VAL B   5     -17.596 -32.198 -11.249  1.00 20.75 LIG 0.24  C 
ATOM     44  N   HIS B   6     -18.247 -33.303 -10.895  1.00 20.78 LIG-0.35  N 
ATOM     45 H    HIS B   6     -19.104 -33.380 -10.900  1.00 20.78 LIG 0.16  HD
ATOM     46 O    VAL B   5     -16.370 -32.105 -11.209  1.00 21.91 LIG-0.27  OA
BRANCH 44 47
ATOM     47  CA  HIS B   6     -17.533 -34.499 -10.460  1.00 21.28 LIG 0.17  C 
BRANCH 47 48
ATOM     48  C   HIS B   6     -17.843 -35.657 -11.401  1.00 23.03 LIG 0.22  C 
ATOM     49 O    HIS B   6     -18.791 -35.529 -12.204  1.00 25.39 LIG-0.29  OA
ENDBRANCH 47 48
BRANCH 47 50
ATOM     50  CB  HIS B   6     -17.934 -34.889  -9.034  1.00 19.33 LIG 0.09  C 
BRANCH 50 51
ATOM     51  CG  HIS B   6     -19.380 -34.639  -8.728  1.00 17.39 LIG 0.06  A 
ATOM     52  CD2 HIS B   6     -20.506 -35.218  -9.206  1.00 16.59 LIG 0.14  A 
ATOM     53 NE2  HIS B   6     -21.569 -34.634  -8.561  1.00 16.70 LIG-0.25  NA
ATOM     54  CE1 HIS B   6     -21.112 -33.726  -7.717  1.00 16.06 LIG 0.23  A 
ATOM     55 ND1  HIS B   6     -19.793 -33.710  -7.798  1.00 16.09 LIG-0.24  NA
ENDBRANCH 50 51
ENDBRANCH 47 50
ENDBRANCH 44 47
ENDBRANCH 39 43
ENDBRANCH 36 39
ENDBRANCH 34 35
BRANCH 34 56
ATOM     56  CB  GLU B   4     -15.045 -28.247 -10.616  1.00 22.38 LIG 0.04  C 
BRANCH 56 57
ATOM     57  CG  GLU B   4     -14.324 -26.963 -10.987  1.00 27.64 LIG 0.12  C 
BRANCH 57 58
ATOM     58  CD  GLU B   4     -13.481 -26.428  -9.846  1.00 30.78 LIG 0.17  C 
ATOM     59 OE2  GLU B   4     -14.047 -25.792  -8.931  1.00 32.62 LIG-0.65  OA
ATOM     60 OE1  GLU B   4     -12.250 -26.642  -9.866  1.00 32.75 LIG-0.65  OA
ENDBRANCH 57 58
ENDBRANCH 56 57
ENDBRANCH 34 56
ENDBRANCH 3 34
TORSDOF 22
ENDMDL
MODEL 90
USER: ADFR SOLUTION from run 127
USER: SCORE 15.157705 LL:  -4.080 LR: -13.333 RR:   0.000 FEB:  -6.770
USER: RMSD 5.523321
USER: SEED 126
USER: STATUS no improvement in best in 27 clusters for 5 generations
USER: GENES 24
USER: genes 0 Translation |==|  0.39752 0.40932 0.52218
USER: genes 1 Rotation |==|  0.57406 0.24954 0.59142 0.91645
USER: genes 2 Torsion [N]-C--CA-[N] |==|  0.48271
USER: genes 3 Torsion [C]-CA--N-[C] |==|  0.84273
USER: genes 4 Torsion [N]-C--CA-[N] |==|  0.50130
USER: genes 5 Torsion [C]-CA--CB-[CG] |==|  0.37276
USER: genes 6 Torsion [CA]-CB--CG-[CD] |==|  0.05028
USER: genes 7 Torsion [CB]-CG--CD-[NE] |==|  0.59695
USER: genes 8 Torsion [CG]-CD--NE-[CZ] |==|  0.21880
USER: genes 9 Torsion [C]-CA--N-[C] |==|  0.17503
USER: genes 10 Torsion [N]-C--CA-[N] |==|  0.27771
USER: genes 11 Torsion [C]-CA--N-[H2] |==|  0.69703
USER: genes 12 Torsion [C]-N--CA-[C] |==|  0.74443
USER: genes 13 Torsion [N]-CA--C-[N] |==|  0.04851
USER: genes 14 Torsion [C]-N--CA-[CB] |==|  0.81526
USER: genes 15 Torsion [N]-CA--CB-[CG2] |==|  0.88886
USER: genes 16 Torsion [N]-CA--C-[N] |==|  0.12327
USER: genes 17 Torsion [C]-N--CA-[C] |==|  0.55205
USER: genes 18 Torsion [N]-CA--C-[O] |==|  0.70574
USER: genes 19 Torsion [N]-CA--CB-[CG] |==|  0.71966
USER: genes 20 Torsion [CA]-CB--CG-[CD2] |==|  0.96667
USER: genes 21 Torsion [N]-CA--CB-[CG] |==|  0.80140
USER: genes 22 Torsion [CA]-CB--CG-[CD] |==|  0.25920
USER: genes 23 Torsion [CB]-CG--CD-[OE2] |==|  0.26807
ROOT
ATOM      1  C   ALA B   3     -16.981 -30.197  -4.564  1.00 17.17 LIG 0.24  C 
ATOM      2 O    ALA B   3     -16.436 -30.634  -5.578  1.00 18.54 LIG-0.27  OA
ATOM      3  N   GLU B   4     -17.349 -30.976  -3.549  1.00 17.89 LIG-0.35  N 
ATOM      4 H    GLU B   4     -17.730 -30.682  -2.836  1.00 17.89 LIG 0.16  HD
ENDROOT
BRANCH 1 5
ATOM      5  CA  ALA B   3     -17.264 -28.702  -4.422  1.00 15.99 LIG 0.17  C 
ATOM      6  CB  ALA B   3     -18.768 -28.463  -4.328  1.00 16.21 LIG 0.04  C 
BRANCH 5 7
ATOM      7  N   ALA B   3     -16.704 -27.904  -5.506  1.00 13.91 LIG-0.35  N 
ATOM      8  C   ARG B   2     -15.406 -27.935  -5.792  1.00 12.46 LIG 0.24  C 
ATOM      9 O    ARG B   2     -14.605 -28.638  -5.177  1.00 11.56 LIG-0.27  OA
ATOM     10 H    ALA B   3     -17.279 -27.424  -5.929  1.00 13.91 LIG 0.16  HD
BRANCH 8 11
ATOM     11  CA  ARG B   2     -14.932 -27.045  -6.936  1.00 12.24 LIG 0.18  C 
BRANCH 11 12
ATOM     12  CB  ARG B   2     -15.721 -27.374  -8.206  1.00 10.58 LIG 0.04  C 
BRANCH 12 13
ATOM     13  CG  ARG B   2     -16.233 -26.161  -8.969  1.00  9.71 LIG 0.02  C 
BRANCH 13 14
ATOM     14  CD  ARG B   2     -15.478 -24.911  -8.547  1.00  9.44 LIG 0.14  C 
BRANCH 14 15
ATOM     15  NE  ARG B   2     -16.329 -23.722  -8.546  1.00  9.23 LIG-0.23  N 
ATOM     16  CZ  ARG B   2     -17.194 -23.419  -7.585  1.00  9.20 LIG 0.67  C 
ATOM     17  NH1 ARG B   2     -17.329 -24.220  -6.536  1.00  7.63 LIG-0.23  N 
ATOM     18  NH2 ARG B   2     -17.923 -22.313  -7.671  1.00  9.31 LIG-0.23  N 
ATOM     19 1HH1 ARG B   2     -16.857 -24.936  -6.478  1.00  7.63 LIG 0.17  HD
ATOM     20 2HH1 ARG B   2     -17.889 -24.022  -5.914  1.00  7.63 LIG 0.17  HD
ATOM     21 2HH2 ARG B   2     -18.482 -22.118  -7.048  1.00  9.31 LIG 0.17  HD
ATOM     22 1HH2 ARG B   2     -17.836 -21.792  -8.349  1.00  9.31 LIG 0.17  HD
ATOM     23 HE   ARG B   2     -16.266 -23.184  -9.213  1.00  9.23 LIG 0.18  HD
ENDBRANCH 14 15
ENDBRANCH 13 14
ENDBRANCH 12 13
ENDBRANCH 11 12
BRANCH 11 24
ATOM     24  N   ARG B   2     -13.504 -27.113  -7.230  1.00 12.50 LIG-0.35  N 
ATOM     25  C   ALA B   1     -12.899 -28.218  -7.647  1.00 14.33 LIG 0.25  C 
ATOM     26 O    ALA B   1     -13.491 -29.275  -7.860  1.00 14.72 LIG-0.27  OA
ATOM     27 H    ARG B   2     -13.091 -26.369  -7.108  1.00 12.50 LIG 0.16  HD
BRANCH 25 28
ATOM     28  CA  ALA B   1     -11.394 -28.101  -7.869  1.00 14.93 LIG 0.27  C 
ATOM     29  CB  ALA B   1     -10.994 -28.814  -9.155  1.00 16.58 LIG 0.05  C 
BRANCH 28 30
ATOM     30  N   ALA B   1     -10.636 -28.660  -6.715  1.00 16.58 LIG-0.07  N 
ATOM     31 H3   ALA B   1     -11.193 -29.102  -6.179  1.00 16.58 LIG 0.28  HD
ATOM     32 H1   ALA B   1     -10.008 -29.216  -7.014  1.00 16.58 LIG 0.28  HD
ATOM     33 H2   ALA B   1     -10.253 -27.997  -6.262  1.00 16.58 LIG 0.28  HD
ENDBRANCH 28 30
ENDBRANCH 25 28
ENDBRANCH 11 24
ENDBRANCH 8 11
ENDBRANCH 5 7
ENDBRANCH 1 5
BRANCH 3 34
ATOM     34  CA  GLU B   4     -17.133 -32.421  -3.562  1.00 20.15 LIG 0.18  C 
BRANCH 34 35
ATOM     35  C   GLU B   4     -18.351 -33.148  -4.128  1.00 19.92 LIG 0.24  C 
ATOM     36  N   VAL B   5     -19.210 -32.412  -4.825  1.00 19.46 LIG-0.35  N 
ATOM     37 H    VAL B   5     -19.115 -31.569  -4.969  1.00 19.46 LIG 0.16  HD
ATOM     38 O    GLU B   4     -18.503 -34.356  -3.942  1.00 20.03 LIG-0.27  OA
BRANCH 36 39
ATOM     39  CA  VAL B   5     -20.411 -32.996  -5.415  1.00 20.09 LIG 0.18  C 
BRANCH 39 40
ATOM     40  CB  VAL B   5     -20.053 -33.999  -6.538  1.00 20.49 LIG 0.01  C 
ATOM     41  CG2 VAL B   5     -18.897 -33.465  -7.367  1.00 19.70 LIG 0.01  C 
ATOM     42  CG1 VAL B   5     -21.264 -34.250  -7.419  1.00 21.00 LIG 0.01  C 
ENDBRANCH 39 40
BRANCH 39 43
ATOM     43  C   VAL B   5     -21.247 -33.728  -4.369  1.00 20.75 LIG 0.24  C 
ATOM     44  N   HIS B   6     -21.422 -33.105  -3.206  1.00 20.78 LIG-0.35  N 
ATOM     45 H    HIS B   6     -21.086 -32.336  -3.016  1.00 20.78 LIG 0.16  HD
ATOM     46 O    VAL B   5     -21.719 -34.839  -4.607  1.00 21.91 LIG-0.27  OA
BRANCH 44 47
ATOM     47  CA  HIS B   6     -22.220 -33.698  -2.139  1.00 21.28 LIG 0.17  C 
BRANCH 47 48
ATOM     48  C   HIS B   6     -22.636 -32.622  -1.144  1.00 23.03 LIG 0.22  C 
ATOM     49 O    HIS B   6     -22.062 -32.590  -0.034  1.00 25.39 LIG-0.29  OA
ENDBRANCH 47 48
BRANCH 47 50
ATOM     50  CB  HIS B   6     -21.430 -34.784  -1.402  1.00 19.33 LIG 0.09  C 
BRANCH 50 51
ATOM     51  CG  HIS B   6     -21.791 -36.177  -1.821  1.00 17.39 LIG 0.06  A 
ATOM     52  CD2 HIS B   6     -22.820 -36.647  -2.565  1.00 16.59 LIG 0.14  A 
ATOM     53 NE2  HIS B   6     -22.656 -38.007  -2.674  1.00 16.70 LIG-0.25  NA
ATOM     54  CE1 HIS B   6     -21.565 -38.360  -2.019  1.00 16.06 LIG 0.23  A 
ATOM     55 ND1  HIS B   6     -21.024 -37.274  -1.494  1.00 16.09 LIG-0.24  NA
ENDBRANCH 50 51
ENDBRANCH 47 50
ENDBRANCH 44 47
ENDBRANCH 39 43
ENDBRANCH 36 39
ENDBRANCH 34 35
BRANCH 34 56
ATOM     56  CB  GLU B   4     -16.862 -32.929  -2.143  1.00 22.38 LIG 0.04  C 
BRANCH 56 57
ATOM     57  CG  GLU B   4     -15.508 -32.537  -1.580  1.00 27.64 LIG 0.12  C 
BRANCH 57 58
ATOM     58  CD  GLU B   4     -15.571 -31.255  -0.771  1.00 30.78 LIG 0.17  C 
ATOM     59 OE2  GLU B   4     -15.682 -31.337   0.471  1.00 32.62 LIG-0.65  OA
ATOM     60 OE1  GLU B   4     -15.511 -30.166  -1.380  1.00 32.75 LIG-0.65  OA
ENDBRANCH 57 58
ENDBRANCH 56 57
ENDBRANCH 34 56
ENDBRANCH 3 34
TORSDOF 22
ENDMDL
MODEL 91
USER: ADFR SOLUTION from run 132
USER: SCORE 17.199880 LL:  -4.590 LR: -13.318 RR:   0.000 FEB:  -6.755
USER: RMSD 8.079272
USER: SEED 131
USER: STATUS no improvement in best in 4 clusters for 5 generations
USER: GENES 24
USER: genes 0 Translation |==|  0.47116 0.41157 0.30404
USER: genes 1 Rotation |==|  0.97940 0.44087 0.56533 0.61141
USER: genes 2 Torsion [N]-C--CA-[N] |==|  0.39172
USER: genes 3 Torsion [C]-CA--N-[C] |==|  0.80969
USER: genes 4 Torsion [N]-C--CA-[N] |==|  0.04444
USER: genes 5 Torsion [C]-CA--CB-[CG] |==|  0.91459
USER: genes 6 Torsion [CA]-CB--CG-[CD] |==|  0.35692
USER: genes 7 Torsion [CB]-CG--CD-[NE] |==|  0.94185
USER: genes 8 Torsion [CG]-CD--NE-[CZ] |==|  0.66327
USER: genes 9 Torsion [C]-CA--N-[C] |==|  0.15634
USER: genes 10 Torsion [N]-C--CA-[N] |==|  0.94755
USER: genes 11 Torsion [C]-CA--N-[H2] |==|  0.06468
USER: genes 12 Torsion [C]-N--CA-[C] |==|  0.16560
USER: genes 13 Torsion [N]-CA--C-[N] |==|  0.09399
USER: genes 14 Torsion [C]-N--CA-[CB] |==|  0.76421
USER: genes 15 Torsion [N]-CA--CB-[CG2] |==|  0.14882
USER: genes 16 Torsion [N]-CA--C-[N] |==|  0.17553
USER: genes 17 Torsion [C]-N--CA-[C] |==|  0.75002
USER: genes 18 Torsion [N]-CA--C-[O] |==|  0.47836
USER: genes 19 Torsion [N]-CA--CB-[CG] |==|  0.14988
USER: genes 20 Torsion [CA]-CB--CG-[CD2] |==|  0.68670
USER: genes 21 Torsion [N]-CA--CB-[CG] |==|  0.78737
USER: genes 22 Torsion [CA]-CB--CG-[CD] |==|  0.34654
USER: genes 23 Torsion [CB]-CG--CD-[OE2] |==|  0.35110
ROOT
ATOM      1  C   ALA B   3     -15.655 -30.145  -9.308  1.00 17.17 LIG 0.24  C 
ATOM      2 O    ALA B   3     -16.283 -29.090  -9.204  1.00 18.54 LIG-0.27  OA
ATOM      3  N   GLU B   4     -14.727 -30.344 -10.241  1.00 17.89 LIG-0.35  N 
ATOM      4 H    GLU B   4     -14.283 -31.075 -10.324  1.00 17.89 LIG 0.16  HD
ENDROOT
BRANCH 1 5
ATOM      5  CA  ALA B   3     -15.922 -31.302  -8.345  1.00 15.99 LIG 0.17  C 
ATOM      6  CB  ALA B   3     -17.108 -32.126  -8.835  1.00 16.21 LIG 0.04  C 
BRANCH 5 7
ATOM      7  N   ALA B   3     -16.154 -30.868  -6.973  1.00 13.91 LIG-0.35  N 
ATOM      8  C   ARG B   2     -15.181 -30.338  -6.237  1.00 12.46 LIG 0.24  C 
ATOM      9 O    ARG B   2     -14.039 -30.173  -6.664  1.00 11.56 LIG-0.27  OA
ATOM     10 H    ALA B   3     -16.960 -30.984  -6.694  1.00 13.91 LIG 0.16  HD
BRANCH 8 11
ATOM     11  CA  ARG B   2     -15.539 -29.937  -4.810  1.00 12.24 LIG 0.18  C 
BRANCH 11 12
ATOM     12  CB  ARG B   2     -14.392 -30.309  -3.867  1.00 10.58 LIG 0.04  C 
BRANCH 12 13
ATOM     13  CG  ARG B   2     -13.594 -31.535  -4.289  1.00  9.71 LIG 0.02  C 
BRANCH 13 14
ATOM     14  CD  ARG B   2     -12.107 -31.219  -4.305  1.00  9.44 LIG 0.14  C 
BRANCH 14 15
ATOM     15  NE  ARG B   2     -11.846 -29.784  -4.405  1.00  9.23 LIG-0.23  N 
ATOM     16  CZ  ARG B   2     -11.150 -29.213  -5.380  1.00  9.20 LIG 0.67  C 
ATOM     17  NH1 ARG B   2     -10.636 -29.956  -6.352  1.00  7.63 LIG-0.23  N 
ATOM     18  NH2 ARG B   2     -10.968 -27.899  -5.387  1.00  9.31 LIG-0.23  N 
ATOM     19 1HH1 ARG B   2     -10.754 -30.808  -6.350  1.00  7.63 LIG 0.17  HD
ATOM     20 2HH1 ARG B   2     -10.185 -29.586  -6.984  1.00  7.63 LIG 0.17  HD
ATOM     21 2HH2 ARG B   2     -10.517 -27.530  -6.020  1.00  9.31 LIG 0.17  HD
ATOM     22 1HH2 ARG B   2     -11.301 -27.415  -4.759  1.00  9.31 LIG 0.17  HD
ATOM     23 HE   ARG B   2     -12.165 -29.275  -3.790  1.00  9.23 LIG 0.18  HD
ENDBRANCH 14 15
ENDBRANCH 13 14
ENDBRANCH 12 13
ENDBRANCH 11 12
BRANCH 11 24
ATOM     24  N   ARG B   2     -16.782 -30.501  -4.296  1.00 12.50 LIG-0.35  N 
ATOM     25  C   ALA B   1     -17.027 -31.805  -4.253  1.00 14.33 LIG 0.25  C 
ATOM     26 O    ALA B   1     -16.215 -32.658  -4.607  1.00 14.72 LIG-0.27  OA
ATOM     27 H    ARG B   2     -17.343 -29.909  -4.023  1.00 12.50 LIG 0.16  HD
BRANCH 25 28
ATOM     28  CA  ALA B   1     -18.398 -32.200  -3.713  1.00 14.93 LIG 0.27  C 
ATOM     29  CB  ALA B   1     -19.318 -32.604  -4.858  1.00 16.58 LIG 0.05  C 
BRANCH 28 30
ATOM     30  N   ALA B   1     -19.008 -31.089  -2.931  1.00 16.58 LIG-0.07  N 
ATOM     31 H3   ALA B   1     -19.886 -31.072  -3.075  1.00 16.58 LIG 0.28  HD
ATOM     32 H1   ALA B   1     -18.851 -31.215  -2.065  1.00 16.58 LIG 0.28  HD
ATOM     33 H2   ALA B   1     -18.652 -30.315  -3.188  1.00 16.58 LIG 0.28  HD
ENDBRANCH 28 30
ENDBRANCH 25 28
ENDBRANCH 11 24
ENDBRANCH 8 11
ENDBRANCH 5 7
ENDBRANCH 1 5
BRANCH 3 34
ATOM     34  CA  GLU B   4     -14.379 -29.316 -11.221  1.00 20.15 LIG 0.18  C 
BRANCH 34 35
ATOM     35  C   GLU B   4     -13.875 -28.052 -10.528  1.00 19.92 LIG 0.24  C 
ATOM     36  N   VAL B   5     -13.187 -28.226  -9.404  1.00 19.46 LIG-0.35  N 
ATOM     37 H    VAL B   5     -13.017 -28.996  -9.058  1.00 19.46 LIG 0.16  HD
ATOM     38 O    GLU B   4     -14.099 -26.941 -11.009  1.00 20.03 LIG-0.27  OA
BRANCH 36 39
ATOM     39  CA  VAL B   5     -12.654 -27.094  -8.653  1.00 20.09 LIG 0.18  C 
BRANCH 39 40
ATOM     40  CB  VAL B   5     -11.280 -26.650  -9.209  1.00 20.49 LIG 0.01  C 
ATOM     41  CG2 VAL B   5     -11.380 -26.386 -10.702  1.00 19.70 LIG 0.01  C 
ATOM     42  CG1 VAL B   5     -10.235 -27.716  -8.930  1.00 21.00 LIG 0.01  C 
ENDBRANCH 39 40
BRANCH 39 43
ATOM     43  C   VAL B   5     -13.600 -25.897  -8.703  1.00 20.75 LIG 0.24  C 
ATOM     44  N   HIS B   6     -14.799 -26.063  -8.151  1.00 20.78 LIG-0.35  N 
ATOM     45 H    HIS B   6     -15.065 -26.796  -7.787  1.00 20.78 LIG 0.16  HD
ATOM     46 O    VAL B   5     -13.253 -24.845  -9.239  1.00 21.91 LIG-0.27  OA
BRANCH 44 47
ATOM     47  CA  HIS B   6     -15.778 -24.982  -8.121  1.00 21.28 LIG 0.17  C 
BRANCH 47 48
ATOM     48  C   HIS B   6     -15.604 -24.162  -6.848  1.00 23.03 LIG 0.22  C 
ATOM     49 O    HIS B   6     -16.264 -23.107  -6.731  1.00 25.39 LIG-0.29  OA
ENDBRANCH 47 48
BRANCH 47 50
ATOM     50  CB  HIS B   6     -17.206 -25.534  -8.171  1.00 19.33 LIG 0.09  C 
BRANCH 50 51
ATOM     51  CG  HIS B   6     -17.494 -26.551  -7.110  1.00 17.39 LIG 0.06  A 
ATOM     52  CD2 HIS B   6     -17.749 -27.878  -7.192  1.00 16.59 LIG 0.14  A 
ATOM     53 NE2  HIS B   6     -17.909 -28.342  -5.908  1.00 16.70 LIG-0.25  NA
ATOM     54  CE1 HIS B   6     -17.759 -27.334  -5.068  1.00 16.06 LIG 0.23  A 
ATOM     55 ND1  HIS B   6     -17.507 -26.242  -5.768  1.00 16.09 LIG-0.24  NA
ENDBRANCH 50 51
ENDBRANCH 47 50
ENDBRANCH 44 47
ENDBRANCH 39 43
ENDBRANCH 36 39
ENDBRANCH 34 35
BRANCH 34 56
ATOM     56  CB  GLU B   4     -15.600 -28.965 -12.075  1.00 22.38 LIG 0.04  C 
BRANCH 56 57
ATOM     57  CG  GLU B   4     -15.938 -29.988 -13.145  1.00 27.64 LIG 0.12  C 
BRANCH 57 58
ATOM     58  CD  GLU B   4     -17.368 -30.481 -13.037  1.00 30.78 LIG 0.17  C 
ATOM     59 OE2  GLU B   4     -18.101 -30.413 -14.047  1.00 32.62 LIG-0.65  OA
ATOM     60 OE1  GLU B   4     -17.758 -30.935 -11.941  1.00 32.75 LIG-0.65  OA
ENDBRANCH 57 58
ENDBRANCH 56 57
ENDBRANCH 34 56
ENDBRANCH 3 34
TORSDOF 22
ENDMDL
MODEL 92
USER: ADFR SOLUTION from run 83
USER: SCORE 16.497629 LL:  -4.119 LR: -13.312 RR:   0.000 FEB:  -6.750
USER: RMSD 6.502027
USER: SEED 82
USER: STATUS no improvement in best in 7 clusters for 5 generations
USER: GENES 24
USER: genes 0 Translation |==|  0.35212 0.41862 0.49878
USER: genes 1 Rotation |==|  0.58185 0.55812 0.30504 0.94935
USER: genes 2 Torsion [N]-C--CA-[N] |==|  0.45702
USER: genes 3 Torsion [C]-CA--N-[C] |==|  0.54345
USER: genes 4 Torsion [N]-C--CA-[N] |==|  0.32222
USER: genes 5 Torsion [C]-CA--CB-[CG] |==|  0.02292
USER: genes 6 Torsion [CA]-CB--CG-[CD] |==|  0.67941
USER: genes 7 Torsion [CB]-CG--CD-[NE] |==|  0.20058
USER: genes 8 Torsion [CG]-CD--NE-[CZ] |==|  0.35015
USER: genes 9 Torsion [C]-CA--N-[C] |==|  0.78901
USER: genes 10 Torsion [N]-C--CA-[N] |==|  0.16219
USER: genes 11 Torsion [C]-CA--N-[H2] |==|  0.15060
USER: genes 12 Torsion [C]-N--CA-[C] |==|  0.69016
USER: genes 13 Torsion [N]-CA--C-[N] |==|  0.38555
USER: genes 14 Torsion [C]-N--CA-[CB] |==|  0.53060
USER: genes 15 Torsion [N]-CA--CB-[CG2] |==|  0.49956
USER: genes 16 Torsion [N]-CA--C-[N] |==|  0.39125
USER: genes 17 Torsion [C]-N--CA-[C] |==|  0.17123
USER: genes 18 Torsion [N]-CA--C-[O] |==|  0.25284
USER: genes 19 Torsion [N]-CA--CB-[CG] |==|  0.84344
USER: genes 20 Torsion [CA]-CB--CG-[CD2] |==|  0.87663
USER: genes 21 Torsion [N]-CA--CB-[CG] |==|  0.64724
USER: genes 22 Torsion [CA]-CB--CG-[CD] |==|  0.94503
USER: genes 23 Torsion [CB]-CG--CD-[OE2] |==|  0.24961
ROOT
ATOM      1  C   ALA B   3     -17.798 -29.981  -5.072  1.00 17.17 LIG 0.24  C 
ATOM      2 O    ALA B   3     -18.863 -29.675  -5.609  1.00 18.54 LIG-0.27  OA
ATOM      3  N   GLU B   4     -17.635 -31.106  -4.380  1.00 17.89 LIG-0.35  N 
ATOM      4 H    GLU B   4     -16.896 -31.330  -4.000  1.00 17.89 LIG 0.16  HD
ENDROOT
BRANCH 1 5
ATOM      5  CA  ALA B   3     -16.584 -29.059  -5.182  1.00 15.99 LIG 0.17  C 
ATOM      6  CB  ALA B   3     -16.321 -28.381  -3.841  1.00 16.21 LIG 0.04  C 
BRANCH 5 7
ATOM      7  N   ALA B   3     -16.718 -28.051  -6.227  1.00 13.91 LIG-0.35  N 
ATOM      8  C   ARG B   2     -15.667 -27.370  -6.674  1.00 12.46 LIG 0.24  C 
ATOM      9 O    ARG B   2     -14.527 -27.550  -6.248  1.00 11.56 LIG-0.27  OA
ATOM     10 H    ALA B   3     -17.521 -27.943  -6.517  1.00 13.91 LIG 0.16  HD
BRANCH 8 11
ATOM     11  CA  ARG B   2     -15.932 -26.329  -7.758  1.00 12.24 LIG 0.18  C 
BRANCH 11 12
ATOM     12  CB  ARG B   2     -15.125 -26.674  -9.011  1.00 10.58 LIG 0.04  C 
BRANCH 12 13
ATOM     13  CG  ARG B   2     -14.430 -28.028  -8.969  1.00  9.71 LIG 0.02  C 
BRANCH 13 14
ATOM     14  CD  ARG B   2     -12.921 -27.851  -8.994  1.00  9.44 LIG 0.14  C 
BRANCH 14 15
ATOM     15  NE  ARG B   2     -12.403 -27.327  -7.731  1.00  9.23 LIG-0.23  N 
ATOM     16  CZ  ARG B   2     -11.437 -27.897  -7.022  1.00  9.20 LIG 0.67  C 
ATOM     17  NH1 ARG B   2     -10.874 -29.021  -7.448  1.00  7.63 LIG-0.23  N 
ATOM     18  NH2 ARG B   2     -11.030 -27.344  -5.886  1.00  9.31 LIG-0.23  N 
ATOM     19 1HH1 ARG B   2     -11.136 -29.380  -8.184  1.00  7.63 LIG 0.17  HD
ATOM     20 2HH1 ARG B   2     -10.249 -29.390  -6.988  1.00  7.63 LIG 0.17  HD
ATOM     21 2HH2 ARG B   2     -10.404 -27.715  -5.428  1.00  9.31 LIG 0.17  HD
ATOM     22 1HH2 ARG B   2     -11.392 -26.615  -5.609  1.00  9.31 LIG 0.17  HD
ATOM     23 HE   ARG B   2     -12.747 -26.600  -7.427  1.00  9.23 LIG 0.18  HD
ENDBRANCH 14 15
ENDBRANCH 13 14
ENDBRANCH 12 13
ENDBRANCH 11 12
BRANCH 11 24
ATOM     24  N   ARG B   2     -15.656 -24.948  -7.377  1.00 12.50 LIG-0.35  N 
ATOM     25  C   ALA B   1     -16.457 -24.236  -6.593  1.00 14.33 LIG 0.25  C 
ATOM     26 O    ALA B   1     -17.483 -24.686  -6.086  1.00 14.72 LIG-0.27  OA
ATOM     27 H    ARG B   2     -14.926 -24.638  -7.708  1.00 12.50 LIG 0.16  HD
BRANCH 25 28
ATOM     28  CA  ALA B   1     -16.016 -22.798  -6.335  1.00 14.93 LIG 0.27  C 
ATOM     29  CB  ALA B   1     -17.007 -22.102  -5.409  1.00 16.58 LIG 0.05  C 
BRANCH 28 30
ATOM     30  N   ALA B   1     -15.885 -22.040  -7.610  1.00 16.58 LIG-0.07  N 
ATOM     31 H3   ALA B   1     -15.710 -21.185  -7.431  1.00 16.58 LIG 0.28  HD
ATOM     32 H1   ALA B   1     -15.222 -22.383  -8.093  1.00 16.58 LIG 0.28  HD
ATOM     33 H2   ALA B   1     -16.645 -22.096  -8.069  1.00 16.58 LIG 0.28  HD
ENDBRANCH 28 30
ENDBRANCH 25 28
ENDBRANCH 11 24
ENDBRANCH 8 11
ENDBRANCH 5 7
ENDBRANCH 1 5
BRANCH 3 34
ATOM     34  CA  GLU B   4     -18.718 -32.071  -4.202  1.00 20.15 LIG 0.18  C 
BRANCH 34 35
ATOM     35  C   GLU B   4     -19.180 -32.109  -2.747  1.00 19.92 LIG 0.24  C 
ATOM     36  N   VAL B   5     -20.491 -32.187  -2.543  1.00 19.46 LIG-0.35  N 
ATOM     37 H    VAL B   5     -21.075 -32.217  -3.174  1.00 19.46 LIG 0.16  HD
ATOM     38 O    GLU B   4     -18.362 -32.077  -1.828  1.00 20.03 LIG-0.27  OA
BRANCH 36 39
ATOM     39  CA  VAL B   5     -21.052 -32.230  -1.196  1.00 20.09 LIG 0.18  C 
BRANCH 39 40
ATOM     40  CB  VAL B   5     -22.556 -32.594  -1.228  1.00 20.49 LIG 0.01  C 
ATOM     41  CG2 VAL B   5     -23.113 -32.636   0.185  1.00 19.70 LIG 0.01  C 
ATOM     42  CG1 VAL B   5     -22.754 -33.934  -1.914  1.00 21.00 LIG 0.01  C 
ENDBRANCH 39 40
BRANCH 39 43
ATOM     43  C   VAL B   5     -20.330 -33.254  -0.324  1.00 20.75 LIG 0.24  C 
ATOM     44  N   HIS B   6     -20.115 -32.909   0.943  1.00 20.78 LIG-0.35  N 
ATOM     45 H    HIS B   6     -20.346 -32.153   1.283  1.00 20.78 LIG 0.16  HD
ATOM     46 O    VAL B   5     -19.968 -34.333  -0.792  1.00 21.91 LIG-0.27  OA
BRANCH 44 47
ATOM     47  CA  HIS B   6     -19.453 -33.815   1.875  1.00 21.28 LIG 0.17  C 
BRANCH 47 48
ATOM     48  C   HIS B   6     -18.040 -34.115   1.390  1.00 23.03 LIG 0.22  C 
ATOM     49 O    HIS B   6     -17.111 -33.381   1.787  1.00 25.39 LIG-0.29  OA
ENDBRANCH 47 48
BRANCH 47 50
ATOM     50  CB  HIS B   6     -20.228 -35.130   2.006  1.00 19.33 LIG 0.09  C 
BRANCH 50 51
ATOM     51  CG  HIS B   6     -21.656 -34.946   2.423  1.00 17.39 LIG 0.06  A 
ATOM     52  CD2 HIS B   6     -22.212 -34.162   3.377  1.00 16.59 LIG 0.14  A 
ATOM     53 NE2  HIS B   6     -23.572 -34.351   3.315  1.00 16.70 LIG-0.25  NA
ATOM     54  CE1 HIS B   6     -23.841 -35.222   2.359  1.00 16.06 LIG 0.23  A 
ATOM     55 ND1  HIS B   6     -22.701 -35.597   1.805  1.00 16.09 LIG-0.24  NA
ENDBRANCH 50 51
ENDBRANCH 47 50
ENDBRANCH 44 47
ENDBRANCH 39 43
ENDBRANCH 36 39
ENDBRANCH 34 35
BRANCH 34 56
ATOM     56  CB  GLU B   4     -18.253 -33.470  -4.615  1.00 22.38 LIG 0.04  C 
BRANCH 56 57
ATOM     57  CG  GLU B   4     -19.150 -34.161  -5.627  1.00 27.64 LIG 0.12  C 
BRANCH 57 58
ATOM     58  CD  GLU B   4     -20.541 -33.559  -5.666  1.00 30.78 LIG 0.17  C 
ATOM     59 OE2  GLU B   4     -20.762 -32.614  -6.452  1.00 32.62 LIG-0.65  OA
ATOM     60 OE1  GLU B   4     -21.415 -34.033  -4.908  1.00 32.75 LIG-0.65  OA
ENDBRANCH 57 58
ENDBRANCH 56 57
ENDBRANCH 34 56
ENDBRANCH 3 34
TORSDOF 22
ENDMDL
MODEL 93
USER: ADFR SOLUTION from run 110
USER: SCORE 19.410440 LL:  -6.782 LR: -13.302 RR:   0.000 FEB:  -6.739
USER: RMSD 3.841919
USER: SEED 109
USER: STATUS no improvement in best in 7 clusters for 5 generations
USER: GENES 24
USER: genes 0 Translation |==|  0.41015 0.48130 0.25497
USER: genes 1 Rotation |==|  0.54419 0.60566 0.43380 0.98218
USER: genes 2 Torsion [N]-C--CA-[N] |==|  0.91116
USER: genes 3 Torsion [C]-CA--N-[C] |==|  0.83838
USER: genes 4 Torsion [N]-C--CA-[N] |==|  0.90487
USER: genes 5 Torsion [C]-CA--CB-[CG] |==|  0.13642
USER: genes 6 Torsion [CA]-CB--CG-[CD] |==|  0.47458
USER: genes 7 Torsion [CB]-CG--CD-[NE] |==|  0.71940
USER: genes 8 Torsion [CG]-CD--NE-[CZ] |==|  0.33831
USER: genes 9 Torsion [C]-CA--N-[C] |==|  0.77877
USER: genes 10 Torsion [N]-C--CA-[N] |==|  0.46510
USER: genes 11 Torsion [C]-CA--N-[H2] |==|  0.04725
USER: genes 12 Torsion [C]-N--CA-[C] |==|  0.68491
USER: genes 13 Torsion [N]-CA--C-[N] |==|  0.01215
USER: genes 14 Torsion [C]-N--CA-[CB] |==|  0.51667
USER: genes 15 Torsion [N]-CA--CB-[CG2] |==|  0.56862
USER: genes 16 Torsion [N]-CA--C-[N] |==|  0.41739
USER: genes 17 Torsion [C]-N--CA-[C] |==|  0.59458
USER: genes 18 Torsion [N]-CA--C-[O] |==|  0.70315
USER: genes 19 Torsion [N]-CA--CB-[CG] |==|  0.74702
USER: genes 20 Torsion [CA]-CB--CG-[CD2] |==|  0.73175
USER: genes 21 Torsion [N]-CA--CB-[CG] |==|  0.24872
USER: genes 22 Torsion [CA]-CB--CG-[CD] |==|  0.80080
USER: genes 23 Torsion [CB]-CG--CD-[OE2] |==|  0.96309
ROOT
ATOM      1  C   ALA B   3     -16.753 -28.524 -10.375  1.00 17.17 LIG 0.24  C 
ATOM      2 O    ALA B   3     -17.870 -28.870 -10.764  1.00 18.54 LIG-0.27  OA
ATOM      3  N   GLU B   4     -15.929 -29.342  -9.726  1.00 17.89 LIG-0.35  N 
ATOM      4 H    GLU B   4     -15.147 -29.112  -9.450  1.00 17.89 LIG 0.16  HD
ENDROOT
BRANCH 1 5
ATOM      5  CA  ALA B   3     -16.254 -27.102 -10.629  1.00 15.99 LIG 0.17  C 
ATOM      6  CB  ALA B   3     -15.548 -27.030 -11.979  1.00 16.21 LIG 0.04  C 
BRANCH 5 7
ATOM      7  N   ALA B   3     -15.368 -26.606  -9.582  1.00 13.91 LIG-0.35  N 
ATOM      8  C   ARG B   2     -15.764 -26.536  -8.314  1.00 12.46 LIG 0.24  C 
ATOM      9 O    ARG B   2     -16.883 -26.889  -7.945  1.00 11.56 LIG-0.27  OA
ATOM     10 H    ALA B   3     -14.588 -26.371  -9.857  1.00 13.91 LIG 0.16  HD
BRANCH 8 11
ATOM     11  CA  ARG B   2     -14.757 -25.986  -7.309  1.00 12.24 LIG 0.18  C 
BRANCH 11 12
ATOM     12  CB  ARG B   2     -14.906 -24.466  -7.210  1.00 10.58 LIG 0.04  C 
BRANCH 12 13
ATOM     13  CG  ARG B   2     -16.334 -23.978  -7.015  1.00  9.71 LIG 0.02  C 
BRANCH 13 14
ATOM     14  CD  ARG B   2     -16.348 -22.490  -6.705  1.00  9.44 LIG 0.14  C 
BRANCH 14 15
ATOM     15  NE  ARG B   2     -16.526 -22.222  -5.279  1.00  9.23 LIG-0.23  N 
ATOM     16  CZ  ARG B   2     -15.672 -21.533  -4.532  1.00  9.20 LIG 0.67  C 
ATOM     17  NH1 ARG B   2     -14.566 -21.036  -5.074  1.00  7.63 LIG-0.23  N 
ATOM     18  NH2 ARG B   2     -15.921 -21.338  -3.243  1.00  9.31 LIG-0.23  N 
ATOM     19 1HH1 ARG B   2     -14.404 -21.160  -5.909  1.00  7.63 LIG 0.17  HD
ATOM     20 2HH1 ARG B   2     -14.013 -20.590  -4.589  1.00  7.63 LIG 0.17  HD
ATOM     21 2HH2 ARG B   2     -15.367 -20.892  -2.761  1.00  9.31 LIG 0.17  HD
ATOM     22 1HH2 ARG B   2     -16.637 -21.658  -2.891  1.00  9.31 LIG 0.17  HD
ATOM     23 HE   ARG B   2     -17.232 -22.531  -4.898  1.00  9.23 LIG 0.18  HD
ENDBRANCH 14 15
ENDBRANCH 13 14
ENDBRANCH 12 13
ENDBRANCH 11 12
BRANCH 11 24
ATOM     24  N   ARG B   2     -13.361 -26.313  -7.581  1.00 12.50 LIG-0.35  N 
ATOM     25  C   ALA B   1     -12.818 -27.487  -7.284  1.00 14.33 LIG 0.25  C 
ATOM     26 O    ALA B   1     -13.448 -28.419  -6.788  1.00 14.72 LIG-0.27  OA
ATOM     27 H    ARG B   2     -12.923 -25.673  -7.953  1.00 12.50 LIG 0.16  HD
BRANCH 25 28
ATOM     28  CA  ALA B   1     -11.335 -27.628  -7.615  1.00 14.93 LIG 0.27  C 
ATOM     29  CB  ALA B   1     -11.135 -27.678  -9.125  1.00 16.58 LIG 0.05  C 
BRANCH 28 30
ATOM     30  N   ALA B   1     -10.756 -28.844  -6.980  1.00 16.58 LIG-0.07  N 
ATOM     31 H3   ALA B   1     -10.227 -29.260  -7.562  1.00 16.58 LIG 0.28  HD
ATOM     32 H1   ALA B   1     -10.283 -28.609  -6.264  1.00 16.58 LIG 0.28  HD
ATOM     33 H2   ALA B   1     -11.413 -29.392  -6.734  1.00 16.58 LIG 0.28  HD
ENDBRANCH 28 30
ENDBRANCH 25 28
ENDBRANCH 11 24
ENDBRANCH 8 11
ENDBRANCH 5 7
ENDBRANCH 1 5
BRANCH 3 34
ATOM     34  CA  GLU B   4     -16.288 -30.726  -9.423  1.00 20.15 LIG 0.18  C 
BRANCH 34 35
ATOM     35  C   GLU B   4     -16.435 -30.932  -7.917  1.00 19.92 LIG 0.24  C 
ATOM     36  N   VAL B   5     -16.312 -29.849  -7.156  1.00 19.46 LIG-0.35  N 
ATOM     37 H    VAL B   5     -16.157 -29.060  -7.462  1.00 19.46 LIG 0.16  HD
ATOM     38 O    GLU B   4     -16.665 -32.050  -7.456  1.00 20.03 LIG-0.27  OA
BRANCH 36 39
ATOM     39  CA  VAL B   5     -16.433 -29.921  -5.702  1.00 20.09 LIG 0.18  C 
BRANCH 39 40
ATOM     40  CB  VAL B   5     -16.398 -28.511  -5.067  1.00 20.49 LIG 0.01  C 
ATOM     41  CG2 VAL B   5     -15.920 -28.596  -3.628  1.00 19.70 LIG 0.01  C 
ATOM     42  CG1 VAL B   5     -17.777 -27.877  -5.129  1.00 21.00 LIG 0.01  C 
ENDBRANCH 39 40
BRANCH 39 43
ATOM     43  C   VAL B   5     -17.733 -30.603  -5.284  1.00 20.75 LIG 0.24  C 
ATOM     44  N   HIS B   6     -17.713 -31.265  -4.131  1.00 20.78 LIG-0.35  N 
ATOM     45 H    HIS B   6     -17.018 -31.337  -3.628  1.00 20.78 LIG 0.16  HD
ATOM     46 O    VAL B   5     -18.734 -30.536  -5.997  1.00 21.91 LIG-0.27  OA
BRANCH 44 47
ATOM     47  CA  HIS B   6     -18.902 -31.938  -3.620  1.00 21.28 LIG 0.17  C 
BRANCH 47 48
ATOM     48  C   HIS B   6     -18.924 -31.865  -2.098  1.00 23.03 LIG 0.22  C 
ATOM     49 O    HIS B   6     -18.673 -32.906  -1.453  1.00 25.39 LIG-0.29  OA
ENDBRANCH 47 48
BRANCH 47 50
ATOM     50  CB  HIS B   6     -18.930 -33.407  -4.053  1.00 19.33 LIG 0.09  C 
BRANCH 50 51
ATOM     51  CG  HIS B   6     -19.649 -33.637  -5.347  1.00 17.39 LIG 0.06  A 
ATOM     52  CD2 HIS B   6     -20.922 -34.020  -5.605  1.00 16.59 LIG 0.14  A 
ATOM     53 NE2  HIS B   6     -21.070 -34.043  -6.971  1.00 16.70 LIG-0.25  NA
ATOM     54  CE1 HIS B   6     -19.928 -33.689  -7.532  1.00 16.06 LIG 0.23  A 
ATOM     55 ND1  HIS B   6     -19.053 -33.438  -6.573  1.00 16.09 LIG-0.24  NA
ENDBRANCH 50 51
ENDBRANCH 47 50
ENDBRANCH 44 47
ENDBRANCH 39 43
ENDBRANCH 36 39
ENDBRANCH 34 35
BRANCH 34 56
ATOM     56  CB  GLU B   4     -15.216 -31.681  -9.955  1.00 22.38 LIG 0.04  C 
BRANCH 56 57
ATOM     57  CG  GLU B   4     -14.093 -31.978  -8.978  1.00 27.64 LIG 0.12  C 
BRANCH 57 58
ATOM     58  CD  GLU B   4     -13.170 -30.790  -8.785  1.00 30.78 LIG 0.17  C 
ATOM     59 OE2  GLU B   4     -13.249 -29.835  -9.587  1.00 32.62 LIG-0.65  OA
ATOM     60 OE1  GLU B   4     -12.364 -30.814  -7.831  1.00 32.75 LIG-0.65  OA
ENDBRANCH 57 58
ENDBRANCH 56 57
ENDBRANCH 34 56
ENDBRANCH 3 34
TORSDOF 22
ENDMDL
MODEL 94
USER: ADFR SOLUTION from run 53
USER: SCORE 18.121921 LL:  -5.963 LR: -13.298 RR:   0.000 FEB:  -6.735
USER: RMSD 5.952687
USER: SEED 52
USER: STATUS no improvement in best in 14 clusters for 5 generations
USER: GENES 24
USER: genes 0 Translation |==|  0.55974 0.46953 0.49181
USER: genes 1 Rotation |==|  0.22583 0.15141 0.72612 0.54675
USER: genes 2 Torsion [N]-C--CA-[N] |==|  0.13773
USER: genes 3 Torsion [C]-CA--N-[C] |==|  0.77893
USER: genes 4 Torsion [N]-C--CA-[N] |==|  0.83586
USER: genes 5 Torsion [C]-CA--CB-[CG] |==|  0.22740
USER: genes 6 Torsion [CA]-CB--CG-[CD] |==|  0.62148
USER: genes 7 Torsion [CB]-CG--CD-[NE] |==|  0.24828
USER: genes 8 Torsion [CG]-CD--NE-[CZ] |==|  0.73222
USER: genes 9 Torsion [C]-CA--N-[C] |==|  0.65865
USER: genes 10 Torsion [N]-C--CA-[N] |==|  0.64842
USER: genes 11 Torsion [C]-CA--N-[H2] |==|  0.74659
USER: genes 12 Torsion [C]-N--CA-[C] |==|  0.84708
USER: genes 13 Torsion [N]-CA--C-[N] |==|  0.34485
USER: genes 14 Torsion [C]-N--CA-[CB] |==|  0.86667
USER: genes 15 Torsion [N]-CA--CB-[CG2] |==|  0.85181
USER: genes 16 Torsion [N]-CA--C-[N] |==|  0.89703
USER: genes 17 Torsion [C]-N--CA-[C] |==|  0.47110
USER: genes 18 Torsion [N]-CA--C-[O] |==|  0.02475
USER: genes 19 Torsion [N]-CA--CB-[CG] |==|  0.63886
USER: genes 20 Torsion [CA]-CB--CG-[CD2] |==|  0.35516
USER: genes 21 Torsion [N]-CA--CB-[CG] |==|  0.89221
USER: genes 22 Torsion [CA]-CB--CG-[CD] |==|  0.82912
USER: genes 23 Torsion [CB]-CG--CD-[OE2] |==|  0.00090
ROOT
ATOM      1  C   ALA B   3     -14.061 -28.797  -5.224  1.00 17.17 LIG 0.24  C 
ATOM      2 O    ALA B   3     -13.819 -29.046  -4.042  1.00 18.54 LIG-0.27  OA
ATOM      3  N   GLU B   4     -15.289 -28.837  -5.734  1.00 17.89 LIG-0.35  N 
ATOM      4 H    GLU B   4     -15.470 -28.666  -6.558  1.00 17.89 LIG 0.16  HD
ENDROOT
BRANCH 1 5
ATOM      5  CA  ALA B   3     -12.930 -28.423  -6.182  1.00 15.99 LIG 0.17  C 
ATOM      6  CB  ALA B   3     -11.626 -28.252  -5.409  1.00 16.21 LIG 0.04  C 
BRANCH 5 7
ATOM      7  N   ALA B   3     -13.206 -27.219  -6.957  1.00 13.91 LIG-0.35  N 
ATOM      8  C   ARG B   2     -13.989 -27.249  -8.031  1.00 12.46 LIG 0.24  C 
ATOM      9 O    ARG B   2     -14.532 -28.278  -8.431  1.00 11.56 LIG-0.27  OA
ATOM     10 H    ALA B   3     -12.823 -26.509  -6.660  1.00 13.91 LIG 0.16  HD
BRANCH 8 11
ATOM     11  CA  ARG B   2     -14.191 -25.931  -8.772  1.00 12.24 LIG 0.18  C 
BRANCH 11 12
ATOM     12  CB  ARG B   2     -12.859 -25.460  -9.359  1.00 10.58 LIG 0.04  C 
BRANCH 12 13
ATOM     13  CG  ARG B   2     -12.481 -26.111 -10.683  1.00  9.71 LIG 0.02  C 
BRANCH 13 14
ATOM     14  CD  ARG B   2     -11.013 -26.503 -10.680  1.00  9.44 LIG 0.14  C 
BRANCH 14 15
ATOM     15  NE  ARG B   2     -10.801 -27.854 -10.162  1.00  9.23 LIG-0.23  N 
ATOM     16  CZ  ARG B   2     -10.466 -28.133  -8.909  1.00  9.20 LIG 0.67  C 
ATOM     17  NH1 ARG B   2     -10.300 -27.152  -8.031  1.00  7.63 LIG-0.23  N 
ATOM     18  NH2 ARG B   2     -10.297 -29.394  -8.530  1.00  9.31 LIG-0.23  N 
ATOM     19 1HH1 ARG B   2     -10.410 -26.335  -8.274  1.00  7.63 LIG 0.17  HD
ATOM     20 2HH1 ARG B   2     -10.083 -27.333  -7.219  1.00  7.63 LIG 0.17  HD
ATOM     21 2HH2 ARG B   2     -10.081 -29.573  -7.717  1.00  9.31 LIG 0.17  HD
ATOM     22 1HH2 ARG B   2     -10.405 -30.031  -9.097  1.00  9.31 LIG 0.17  HD
ATOM     23 HE   ARG B   2     -10.899 -28.512 -10.707  1.00  9.23 LIG 0.18  HD
ENDBRANCH 14 15
ENDBRANCH 13 14
ENDBRANCH 12 13
ENDBRANCH 11 12
BRANCH 11 24
ATOM     24  N   ARG B   2     -14.772 -24.853  -7.979  1.00 12.50 LIG-0.35  N 
ATOM     25  C   ALA B   1     -15.891 -24.223  -8.315  1.00 14.33 LIG 0.25  C 
ATOM     26 O    ALA B   1     -16.560 -24.515  -9.305  1.00 14.72 LIG-0.27  OA
ATOM     27 H    ARG B   2     -14.321 -24.663  -7.272  1.00 12.50 LIG 0.16  HD
BRANCH 25 28
ATOM     28  CA  ALA B   1     -16.322 -23.100  -7.377  1.00 14.93 LIG 0.27  C 
ATOM     29  CB  ALA B   1     -15.385 -23.028  -6.177  1.00 16.58 LIG 0.05  C 
BRANCH 28 30
ATOM     30  N   ALA B   1     -17.727 -23.290  -6.921  1.00 16.58 LIG-0.07  N 
ATOM     31 H3   ALA B   1     -17.921 -24.159  -6.912  1.00 16.58 LIG 0.28  HD
ATOM     32 H1   ALA B   1     -17.820 -22.956  -6.101  1.00 16.58 LIG 0.28  HD
ATOM     33 H2   ALA B   1     -18.279 -22.869  -7.477  1.00 16.58 LIG 0.28  HD
ENDBRANCH 28 30
ENDBRANCH 25 28
ENDBRANCH 11 24
ENDBRANCH 8 11
ENDBRANCH 5 7
ENDBRANCH 1 5
BRANCH 3 34
ATOM     34  CA  GLU B   4     -16.455 -29.181  -4.923  1.00 20.15 LIG 0.18  C 
BRANCH 34 35
ATOM     35  C   GLU B   4     -16.261 -30.530  -4.234  1.00 19.92 LIG 0.24  C 
ATOM     36  N   VAL B   5     -16.383 -30.543  -2.911  1.00 19.46 LIG-0.35  N 
ATOM     37 H    VAL B   5     -16.562 -29.847  -2.437  1.00 19.46 LIG 0.16  HD
ATOM     38 O    GLU B   4     -16.013 -31.540  -4.892  1.00 20.03 LIG-0.27  OA
BRANCH 36 39
ATOM     39  CA  VAL B   5     -16.219 -31.773  -2.142  1.00 20.09 LIG 0.18  C 
BRANCH 39 40
ATOM     40  CB  VAL B   5     -17.033 -32.934  -2.762  1.00 20.49 LIG 0.01  C 
ATOM     41  CG2 VAL B   5     -18.484 -32.519  -2.937  1.00 19.70 LIG 0.01  C 
ATOM     42  CG1 VAL B   5     -16.938 -34.167  -1.880  1.00 21.00 LIG 0.01  C 
ENDBRANCH 39 40
BRANCH 39 43
ATOM     43  C   VAL B   5     -14.754 -32.198  -2.076  1.00 20.75 LIG 0.24  C 
ATOM     44  N   HIS B   6     -14.026 -31.993  -3.170  1.00 20.78 LIG-0.35  N 
ATOM     45 H    HIS B   6     -14.334 -31.653  -3.898  1.00 20.78 LIG 0.16  HD
ATOM     46 O    VAL B   5     -14.294 -32.708  -1.055  1.00 21.91 LIG-0.27  OA
BRANCH 44 47
ATOM     47  CA  HIS B   6     -12.610 -32.340  -3.216  1.00 21.28 LIG 0.17  C 
BRANCH 47 48
ATOM     48  C   HIS B   6     -12.099 -32.241  -4.649  1.00 23.03 LIG 0.22  C 
ATOM     49 O    HIS B   6     -12.851 -31.739  -5.511  1.00 25.39 LIG-0.29  OA
ENDBRANCH 47 48
BRANCH 47 50
ATOM     50  CB  HIS B   6     -12.376 -33.762  -2.697  1.00 19.33 LIG 0.09  C 
BRANCH 50 51
ATOM     51  CG  HIS B   6     -11.295 -33.853  -1.664  1.00 17.39 LIG 0.06  A 
ATOM     52  CD2 HIS B   6     -11.287 -34.402  -0.426  1.00 16.59 LIG 0.14  A 
ATOM     53 NE2  HIS B   6     -10.021 -34.238   0.084  1.00 16.70 LIG-0.25  NA
ATOM     54  CE1 HIS B   6      -9.279 -33.609  -0.809  1.00 16.06 LIG 0.23  A 
ATOM     55 ND1  HIS B   6     -10.023 -33.366  -1.874  1.00 16.09 LIG-0.24  NA
ENDBRANCH 50 51
ENDBRANCH 47 50
ENDBRANCH 44 47
ENDBRANCH 39 43
ENDBRANCH 36 39
ENDBRANCH 34 35
BRANCH 34 56
ATOM     56  CB  GLU B   4     -17.710 -29.244  -5.799  1.00 22.38 LIG 0.04  C 
BRANCH 56 57
ATOM     57  CG  GLU B   4     -17.782 -28.176  -6.876  1.00 27.64 LIG 0.12  C 
BRANCH 57 58
ATOM     58  CD  GLU B   4     -17.806 -26.775  -6.296  1.00 30.78 LIG 0.17  C 
ATOM     59 OE2  GLU B   4     -17.760 -26.642  -5.054  1.00 32.62 LIG-0.65  OA
ATOM     60 OE1  GLU B   4     -17.872 -25.807  -7.083  1.00 32.75 LIG-0.65  OA
ENDBRANCH 57 58
ENDBRANCH 56 57
ENDBRANCH 34 56
ENDBRANCH 3 34
TORSDOF 22
ENDMDL
MODEL 95
USER: ADFR SOLUTION from run 185
USER: SCORE 18.248850 LL:  -6.390 LR: -13.291 RR:   0.000 FEB:  -6.728
USER: RMSD 9.106896
USER: SEED 184
USER: STATUS no improvement in best in 13 clusters for 5 generations
USER: GENES 24
USER: genes 0 Translation |==|  0.36527 0.52613 0.42793
USER: genes 1 Rotation |==|  0.97379 0.57168 0.63041 0.55808
USER: genes 2 Torsion [N]-C--CA-[N] |==|  0.97948
USER: genes 3 Torsion [C]-CA--N-[C] |==|  0.77405
USER: genes 4 Torsion [N]-C--CA-[N] |==|  0.95626
USER: genes 5 Torsion [C]-CA--CB-[CG] |==|  0.39377
USER: genes 6 Torsion [CA]-CB--CG-[CD] |==|  0.15469
USER: genes 7 Torsion [CB]-CG--CD-[NE] |==|  0.29387
USER: genes 8 Torsion [CG]-CD--NE-[CZ] |==|  0.55410
USER: genes 9 Torsion [C]-CA--N-[C] |==|  0.65882
USER: genes 10 Torsion [N]-C--CA-[N] |==|  0.66027
USER: genes 11 Torsion [C]-CA--N-[H2] |==|  0.21826
USER: genes 12 Torsion [C]-N--CA-[C] |==|  0.68638
USER: genes 13 Torsion [N]-CA--C-[N] |==|  0.01582
USER: genes 14 Torsion [C]-N--CA-[CB] |==|  0.24444
USER: genes 15 Torsion [N]-CA--CB-[CG2] |==|  0.12439
USER: genes 16 Torsion [N]-CA--C-[N] |==|  0.42649
USER: genes 17 Torsion [C]-N--CA-[C] |==|  0.74868
USER: genes 18 Torsion [N]-CA--C-[O] |==|  0.05194
USER: genes 19 Torsion [N]-CA--CB-[CG] |==|  0.63941
USER: genes 20 Torsion [CA]-CB--CG-[CD2] |==|  0.29338
USER: genes 21 Torsion [N]-CA--CB-[CG] |==|  0.22848
USER: genes 22 Torsion [CA]-CB--CG-[CD] |==|  0.80928
USER: genes 23 Torsion [CB]-CG--CD-[OE2] |==|  0.94318
ROOT
ATOM      1  C   ALA B   3     -17.561 -27.481  -6.614  1.00 17.17 LIG 0.24  C 
ATOM      2 O    ALA B   3     -18.682 -26.972  -6.575  1.00 18.54 LIG-0.27  OA
ATOM      3  N   GLU B   4     -16.576 -27.003  -7.370  1.00 17.89 LIG-0.35  N 
ATOM      4 H    GLU B   4     -15.790 -27.350  -7.405  1.00 17.89 LIG 0.16  HD
ENDROOT
BRANCH 1 5
ATOM      5  CA  ALA B   3     -17.245 -28.718  -5.773  1.00 15.99 LIG 0.17  C 
ATOM      6  CB  ALA B   3     -17.344 -28.380  -4.289  1.00 16.21 LIG 0.04  C 
BRANCH 5 7
ATOM      7  N   ALA B   3     -15.936 -29.293  -6.062  1.00 13.91 LIG-0.35  N 
ATOM      8  C   ARG B   2     -15.746 -30.098  -7.103  1.00 12.46 LIG 0.24  C 
ATOM      9 O    ARG B   2     -16.647 -30.398  -7.886  1.00 11.56 LIG-0.27  OA
ATOM     10 H    ALA B   3     -15.318 -29.066  -5.509  1.00 13.91 LIG 0.16  HD
BRANCH 8 11
ATOM     11  CA  ARG B   2     -14.338 -30.652  -7.296  1.00 12.24 LIG 0.18  C 
BRANCH 11 12
ATOM     12  CB  ARG B   2     -14.317 -32.141  -6.943  1.00 10.58 LIG 0.04  C 
BRANCH 12 13
ATOM     13  CG  ARG B   2     -13.437 -32.996  -7.843  1.00  9.71 LIG 0.02  C 
BRANCH 13 14
ATOM     14  CD  ARG B   2     -12.016 -32.459  -7.861  1.00  9.44 LIG 0.14  C 
BRANCH 14 15
ATOM     15  NE  ARG B   2     -11.098 -33.291  -7.084  1.00  9.23 LIG-0.23  N 
ATOM     16  CZ  ARG B   2      -9.921 -32.884  -6.625  1.00  9.20 LIG 0.67  C 
ATOM     17  NH1 ARG B   2      -9.506 -31.646  -6.865  1.00  7.63 LIG-0.23  N 
ATOM     18  NH2 ARG B   2      -9.157 -33.713  -5.925  1.00  9.31 LIG-0.23  N 
ATOM     19 1HH1 ARG B   2     -10.001 -31.108  -7.318  1.00  7.63 LIG 0.17  HD
ATOM     20 2HH1 ARG B   2      -8.744 -31.383  -6.568  1.00  7.63 LIG 0.17  HD
ATOM     21 2HH2 ARG B   2      -8.395 -33.448  -5.628  1.00  9.31 LIG 0.17  HD
ATOM     22 1HH2 ARG B   2      -9.425 -34.514  -5.768  1.00  9.31 LIG 0.17  HD
ATOM     23 HE   ARG B   2     -11.338 -34.098  -6.913  1.00  9.23 LIG 0.18  HD
ENDBRANCH 14 15
ENDBRANCH 13 14
ENDBRANCH 12 13
ENDBRANCH 11 12
BRANCH 11 24
ATOM     24  N   ARG B   2     -13.290 -29.968  -6.546  1.00 12.50 LIG-0.35  N 
ATOM     25  C   ALA B   1     -12.226 -29.418  -7.119  1.00 14.33 LIG 0.25  C 
ATOM     26 O    ALA B   1     -12.044 -29.403  -8.335  1.00 14.72 LIG-0.27  OA
ATOM     27 H    ARG B   2     -13.427 -29.954  -5.697  1.00 12.50 LIG 0.16  HD
BRANCH 25 28
ATOM     28  CA  ALA B   1     -11.223 -28.778  -6.164  1.00 14.93 LIG 0.27  C 
ATOM     29  CB  ALA B   1     -11.696 -28.928  -4.724  1.00 16.58 LIG 0.05  C 
BRANCH 28 30
ATOM     30  N   ALA B   1     -11.016 -27.339  -6.489  1.00 16.58 LIG-0.07  N 
ATOM     31 H3   ALA B   1     -10.257 -27.057  -6.118  1.00 16.58 LIG 0.28  HD
ATOM     32 H1   ALA B   1     -10.970 -27.238  -7.372  1.00 16.58 LIG 0.28  HD
ATOM     33 H2   ALA B   1     -11.696 -26.862  -6.171  1.00 16.58 LIG 0.28  HD
ENDBRANCH 28 30
ENDBRANCH 25 28
ENDBRANCH 11 24
ENDBRANCH 8 11
ENDBRANCH 5 7
ENDBRANCH 1 5
BRANCH 3 34
ATOM     34  CA  GLU B   4     -16.751 -25.826  -8.218  1.00 20.15 LIG 0.18  C 
BRANCH 34 35
ATOM     35  C   GLU B   4     -16.675 -26.204  -9.696  1.00 19.92 LIG 0.24  C 
ATOM     36  N   VAL B   5     -16.588 -27.501  -9.972  1.00 19.46 LIG-0.35  N 
ATOM     37 H    VAL B   5     -16.574 -28.121  -9.375  1.00 19.46 LIG 0.16  HD
ATOM     38 O    GLU B   4     -16.704 -25.336 -10.568  1.00 20.03 LIG-0.27  OA
BRANCH 36 39
ATOM     39  CA  VAL B   5     -16.510 -27.985 -11.347  1.00 20.09 LIG 0.18  C 
BRANCH 39 40
ATOM     40  CB  VAL B   5     -15.044 -28.038 -11.839  1.00 20.49 LIG 0.01  C 
ATOM     41  CG2 VAL B   5     -14.156 -28.653 -10.772  1.00 19.70 LIG 0.01  C 
ATOM     42  CG1 VAL B   5     -14.560 -26.641 -12.189  1.00 21.00 LIG 0.01  C 
ENDBRANCH 39 40
BRANCH 39 43
ATOM     43  C   VAL B   5     -17.111 -29.382 -11.482  1.00 20.75 LIG 0.24  C 
ATOM     44  N   HIS B   6     -17.593 -29.708 -12.679  1.00 20.78 LIG-0.35  N 
ATOM     45 H    HIS B   6     -17.594 -29.180 -13.358  1.00 20.78 LIG 0.16  HD
ATOM     46 O    VAL B   5     -17.144 -30.146 -10.519  1.00 21.91 LIG-0.27  OA
BRANCH 44 47
ATOM     47  CA  HIS B   6     -18.172 -31.023 -12.931  1.00 21.28 LIG 0.17  C 
BRANCH 47 48
ATOM     48  C   HIS B   6     -17.090 -31.980 -13.418  1.00 23.03 LIG 0.22  C 
ATOM     49 O    HIS B   6     -15.896 -31.681 -13.201  1.00 25.39 LIG-0.29  OA
ENDBRANCH 47 48
BRANCH 47 50
ATOM     50  CB  HIS B   6     -19.281 -30.941 -13.985  1.00 19.33 LIG 0.09  C 
BRANCH 50 51
ATOM     51  CG  HIS B   6     -20.555 -31.609 -13.569  1.00 17.39 LIG 0.06  A 
ATOM     52  CD2 HIS B   6     -21.741 -31.095 -13.166  1.00 16.59 LIG 0.14  A 
ATOM     53 NE2  HIS B   6     -22.586 -32.154 -12.936  1.00 16.70 LIG-0.25  NA
ATOM     54  CE1 HIS B   6     -21.941 -33.279 -13.186  1.00 16.06 LIG 0.23  A 
ATOM     55 ND1  HIS B   6     -20.712 -32.978 -13.570  1.00 16.09 LIG-0.24  NA
ENDBRANCH 50 51
ENDBRANCH 47 50
ENDBRANCH 44 47
ENDBRANCH 39 43
ENDBRANCH 36 39
ENDBRANCH 34 35
BRANCH 34 56
ATOM     56  CB  GLU B   4     -15.669 -24.787  -7.912  1.00 22.38 LIG 0.04  C 
BRANCH 56 57
ATOM     57  CG  GLU B   4     -14.341 -25.035  -8.606  1.00 27.64 LIG 0.12  C 
BRANCH 57 58
ATOM     58  CD  GLU B   4     -13.632 -26.263  -8.068  1.00 30.78 LIG 0.17  C 
ATOM     59 OE2  GLU B   4     -13.951 -26.690  -6.937  1.00 32.62 LIG-0.65  OA
ATOM     60 OE1  GLU B   4     -12.756 -26.801  -8.777  1.00 32.75 LIG-0.65  OA
ENDBRANCH 57 58
ENDBRANCH 56 57
ENDBRANCH 34 56
ENDBRANCH 3 34
TORSDOF 22
ENDMDL
MODEL 96
USER: ADFR SOLUTION from run 24
USER: SCORE 18.181896 LL:  -6.654 LR: -13.293 RR:   0.000 FEB:  -6.730
USER: RMSD 8.300237
USER: SEED 23
USER: STATUS no improvement in best in 8 clusters for 5 generations
USER: GENES 24
USER: genes 0 Translation |==|  0.35763 0.52321 0.43228
USER: genes 1 Rotation |==|  0.98853 0.44692 0.58400 0.53824
USER: genes 2 Torsion [N]-C--CA-[N] |==|  0.08768
USER: genes 3 Torsion [C]-CA--N-[C] |==|  0.17922
USER: genes 4 Torsion [N]-C--CA-[N] |==|  0.36772
USER: genes 5 Torsion [C]-CA--CB-[CG] |==|  0.97377
USER: genes 6 Torsion [CA]-CB--CG-[CD] |==|  0.33955
USER: genes 7 Torsion [CB]-CG--CD-[NE] |==|  0.81095
USER: genes 8 Torsion [CG]-CD--NE-[CZ] |==|  0.71118
USER: genes 9 Torsion [C]-CA--N-[C] |==|  0.57778
USER: genes 10 Torsion [N]-C--CA-[N] |==|  0.72477
USER: genes 11 Torsion [C]-CA--N-[H2] |==|  0.42304
USER: genes 12 Torsion [C]-N--CA-[C] |==|  0.65716
USER: genes 13 Torsion [N]-CA--C-[N] |==|  0.95409
USER: genes 14 Torsion [C]-N--CA-[CB] |==|  0.24402
USER: genes 15 Torsion [N]-CA--CB-[CG2] |==|  0.11638
USER: genes 16 Torsion [N]-CA--C-[N] |==|  0.88790
USER: genes 17 Torsion [C]-N--CA-[C] |==|  0.52696
USER: genes 18 Torsion [N]-CA--C-[O] |==|  0.00928
USER: genes 19 Torsion [N]-CA--CB-[CG] |==|  0.06612
USER: genes 20 Torsion [CA]-CB--CG-[CD2] |==|  0.21575
USER: genes 21 Torsion [N]-CA--CB-[CG] |==|  0.25546
USER: genes 22 Torsion [CA]-CB--CG-[CD] |==|  0.75927
USER: genes 23 Torsion [CB]-CG--CD-[OE2] |==|  0.05939
ROOT
ATOM      1  C   ALA B   3     -17.699 -27.549  -6.519  1.00 17.17 LIG 0.24  C 
ATOM      2 O    ALA B   3     -18.430 -26.611  -6.201  1.00 18.54 LIG-0.27  OA
ATOM      3  N   GLU B   4     -16.681 -27.417  -7.367  1.00 17.89 LIG-0.35  N 
ATOM      4 H    GLU B   4     -16.164 -28.065  -7.596  1.00 17.89 LIG 0.16  HD
ENDROOT
BRANCH 1 5
ATOM      5  CA  ALA B   3     -17.934 -28.943  -5.938  1.00 15.99 LIG 0.17  C 
ATOM      6  CB  ALA B   3     -18.655 -28.835  -4.598  1.00 16.21 LIG 0.04  C 
BRANCH 5 7
ATOM      7  N   ALA B   3     -16.708 -29.716  -5.778  1.00 13.91 LIG-0.35  N 
ATOM      8  C   ARG B   2     -15.752 -29.335  -4.936  1.00 12.46 LIG 0.24  C 
ATOM      9 O    ARG B   2     -15.842 -28.326  -4.238  1.00 11.56 LIG-0.27  OA
ATOM     10 H    ALA B   3     -16.665 -30.421  -6.269  1.00 13.91 LIG 0.16  HD
BRANCH 8 11
ATOM     11  CA  ARG B   2     -14.507 -30.214  -4.866  1.00 12.24 LIG 0.18  C 
BRANCH 11 12
ATOM     12  CB  ARG B   2     -14.542 -31.057  -3.588  1.00 10.58 LIG 0.04  C 
BRANCH 12 13
ATOM     13  CG  ARG B   2     -15.640 -30.676  -2.605  1.00  9.71 LIG 0.02  C 
BRANCH 13 14
ATOM     14  CD  ARG B   2     -16.537 -31.871  -2.325  1.00  9.44 LIG 0.14  C 
BRANCH 14 15
ATOM     15  NE  ARG B   2     -17.328 -32.257  -3.493  1.00  9.23 LIG-0.23  N 
ATOM     16  CZ  ARG B   2     -18.620 -31.995  -3.645  1.00  9.20 LIG 0.67  C 
ATOM     17  NH1 ARG B   2     -19.282 -31.343  -2.697  1.00  7.63 LIG-0.23  N 
ATOM     18  NH2 ARG B   2     -19.253 -32.384  -4.744  1.00  9.31 LIG-0.23  N 
ATOM     19 1HH1 ARG B   2     -18.873 -31.089  -1.985  1.00  7.63 LIG 0.17  HD
ATOM     20 2HH1 ARG B   2     -20.119 -31.174  -2.796  1.00  7.63 LIG 0.17  HD
ATOM     21 2HH2 ARG B   2     -20.091 -32.214  -4.841  1.00  9.31 LIG 0.17  HD
ATOM     22 1HH2 ARG B   2     -18.826 -32.806  -5.359  1.00  9.31 LIG 0.17  HD
ATOM     23 HE   ARG B   2     -16.928 -32.682  -4.124  1.00  9.23 LIG 0.18  HD
ENDBRANCH 14 15
ENDBRANCH 13 14
ENDBRANCH 12 13
ENDBRANCH 11 12
BRANCH 11 24
ATOM     24  N   ARG B   2     -13.236 -29.502  -4.933  1.00 12.50 LIG-0.35  N 
ATOM     25  C   ALA B   1     -12.123 -30.043  -5.415  1.00 14.33 LIG 0.25  C 
ATOM     26 O    ALA B   1     -12.070 -31.179  -5.882  1.00 14.72 LIG-0.27  OA
ATOM     27 H    ARG B   2     -13.274 -28.697  -4.632  1.00 12.50 LIG 0.16  HD
BRANCH 25 28
ATOM     28  CA  ALA B   1     -10.886 -29.151  -5.372  1.00 14.93 LIG 0.27  C 
ATOM     29  CB  ALA B   1     -11.043 -28.084  -4.296  1.00 16.58 LIG 0.05  C 
BRANCH 28 30
ATOM     30  N   ALA B   1     -10.636 -28.514  -6.694  1.00 16.58 LIG-0.07  N 
ATOM     31 H3   ALA B   1     -10.135 -29.054  -7.195  1.00 16.58 LIG 0.28  HD
ATOM     32 H1   ALA B   1     -11.412 -28.365  -7.103  1.00 16.58 LIG 0.28  HD
ATOM     33 H2   ALA B   1     -10.211 -27.741  -6.576  1.00 16.58 LIG 0.28  HD
ENDBRANCH 28 30
ENDBRANCH 25 28
ENDBRANCH 11 24
ENDBRANCH 8 11
ENDBRANCH 5 7
ENDBRANCH 1 5
BRANCH 3 34
ATOM     34  CA  GLU B   4     -16.352 -26.137  -7.990  1.00 20.15 LIG 0.18  C 
BRANCH 34 35
ATOM     35  C   GLU B   4     -16.356 -26.257  -9.513  1.00 19.92 LIG 0.24  C 
ATOM     36  N   VAL B   5     -16.305 -27.488 -10.011  1.00 19.46 LIG-0.35  N 
ATOM     37 H    VAL B   5     -16.272 -28.201  -9.530  1.00 19.46 LIG 0.16  HD
ATOM     38 O    GLU B   4     -16.412 -25.251 -10.221  1.00 20.03 LIG-0.27  OA
BRANCH 36 39
ATOM     39  CA  VAL B   5     -16.303 -27.728 -11.451  1.00 20.09 LIG 0.18  C 
BRANCH 39 40
ATOM     40  CB  VAL B   5     -14.865 -27.704 -12.021  1.00 20.49 LIG 0.01  C 
ATOM     41  CG2 VAL B   5     -13.920 -28.439 -11.086  1.00 19.70 LIG 0.01  C 
ATOM     42  CG1 VAL B   5     -14.405 -26.270 -12.217  1.00 21.00 LIG 0.01  C 
ENDBRANCH 39 40
BRANCH 39 43
ATOM     43  C   VAL B   5     -16.931 -29.077 -11.792  1.00 20.75 LIG 0.24  C 
ATOM     44  N   HIS B   6     -16.631 -30.093 -10.986  1.00 20.78 LIG-0.35  N 
ATOM     45 H    HIS B   6     -16.106 -30.031 -10.308  1.00 20.78 LIG 0.16  HD
ATOM     46 O    VAL B   5     -17.666 -29.198 -12.771  1.00 21.91 LIG-0.27  OA
BRANCH 44 47
ATOM     47  CA  HIS B   6     -17.189 -31.423 -11.201  1.00 21.28 LIG 0.17  C 
BRANCH 47 48
ATOM     48  C   HIS B   6     -16.873 -32.316 -10.008  1.00 23.03 LIG 0.22  C 
ATOM     49 O    HIS B   6     -16.276 -31.811  -9.033  1.00 25.39 LIG-0.29  OA
ENDBRANCH 47 48
BRANCH 47 50
ATOM     50  CB  HIS B   6     -16.615 -32.060 -12.470  1.00 19.33 LIG 0.09  C 
BRANCH 50 51
ATOM     51  CG  HIS B   6     -15.282 -31.504 -12.871  1.00 17.39 LIG 0.06  A 
ATOM     52  CD2 HIS B   6     -14.039 -31.730 -12.385  1.00 16.59 LIG 0.14  A 
ATOM     53 NE2  HIS B   6     -13.166 -30.986 -13.141  1.00 16.70 LIG-0.25  NA
ATOM     54  CE1 HIS B   6     -13.849 -30.324 -14.057  1.00 16.06 LIG 0.23  A 
ATOM     55 ND1  HIS B   6     -15.130 -30.620 -13.916  1.00 16.09 LIG-0.24  NA
ENDBRANCH 50 51
ENDBRANCH 47 50
ENDBRANCH 44 47
ENDBRANCH 39 43
ENDBRANCH 36 39
ENDBRANCH 34 35
BRANCH 34 56
ATOM     56  CB  GLU B   4     -14.971 -25.664  -7.530  1.00 22.38 LIG 0.04  C 
BRANCH 56 57
ATOM     57  CG  GLU B   4     -13.824 -26.096  -8.426  1.00 27.64 LIG 0.12  C 
BRANCH 57 58
ATOM     58  CD  GLU B   4     -13.293 -27.468  -8.059  1.00 30.78 LIG 0.17  C 
ATOM     59 OE2  GLU B   4     -14.032 -28.242  -7.414  1.00 32.62 LIG-0.65  OA
ATOM     60 OE1  GLU B   4     -12.135 -27.771  -8.417  1.00 32.75 LIG-0.65  OA
ENDBRANCH 57 58
ENDBRANCH 56 57
ENDBRANCH 34 56
ENDBRANCH 3 34
TORSDOF 22
ENDMDL
MODEL 97
USER: ADFR SOLUTION from run 141
USER: SCORE 16.037124 LL:  -3.742 LR: -13.290 RR:   0.000 FEB:  -6.727
USER: RMSD 5.998141
USER: SEED 140
USER: STATUS no improvement in best in 19 clusters for 5 generations
USER: GENES 24
USER: genes 0 Translation |==|  0.44993 0.44943 0.53864
USER: genes 1 Rotation |==|  0.54925 0.15560 0.79570 0.70378
USER: genes 2 Torsion [N]-C--CA-[N] |==|  0.46666
USER: genes 3 Torsion [C]-CA--N-[C] |==|  0.55488
USER: genes 4 Torsion [N]-C--CA-[N] |==|  0.10361
USER: genes 5 Torsion [C]-CA--CB-[CG] |==|  0.29260
USER: genes 6 Torsion [CA]-CB--CG-[CD] |==|  0.11657
USER: genes 7 Torsion [CB]-CG--CD-[NE] |==|  0.67068
USER: genes 8 Torsion [CG]-CD--NE-[CZ] |==|  0.52705
USER: genes 9 Torsion [C]-CA--N-[C] |==|  0.17698
USER: genes 10 Torsion [N]-C--CA-[N] |==|  0.02805
USER: genes 11 Torsion [C]-CA--N-[H2] |==|  0.03696
USER: genes 12 Torsion [C]-N--CA-[C] |==|  0.82606
USER: genes 13 Torsion [N]-CA--C-[N] |==|  0.41083
USER: genes 14 Torsion [C]-N--CA-[CB] |==|  0.18015
USER: genes 15 Torsion [N]-CA--CB-[CG2] |==|  0.48956
USER: genes 16 Torsion [N]-CA--C-[N] |==|  0.19749
USER: genes 17 Torsion [C]-N--CA-[C] |==|  0.17593
USER: genes 18 Torsion [N]-CA--C-[O] |==|  0.26863
USER: genes 19 Torsion [N]-CA--CB-[CG] |==|  0.35053
USER: genes 20 Torsion [CA]-CB--CG-[CD2] |==|  0.22944
USER: genes 21 Torsion [N]-CA--CB-[CG] |==|  0.57443
USER: genes 22 Torsion [CA]-CB--CG-[CD] |==|  0.77379
USER: genes 23 Torsion [CB]-CG--CD-[OE2] |==|  0.87423
ROOT
ATOM      1  C   ALA B   3     -16.037 -29.265  -4.206  1.00 17.17 LIG 0.24  C 
ATOM      2 O    ALA B   3     -14.818 -29.091  -4.212  1.00 18.54 LIG-0.27  OA
ATOM      3  N   GLU B   4     -16.637 -30.149  -3.412  1.00 17.89 LIG-0.35  N 
ATOM      4 H    GLU B   4     -17.487 -30.279  -3.399  1.00 17.89 LIG 0.16  HD
ENDROOT
BRANCH 1 5
ATOM      5  CA  ALA B   3     -16.938 -28.451  -5.134  1.00 15.99 LIG 0.17  C 
ATOM      6  CB  ALA B   3     -17.536 -29.355  -6.206  1.00 16.21 LIG 0.04  C 
BRANCH 5 7
ATOM      7  N   ALA B   3     -16.255 -27.326  -5.761  1.00 13.91 LIG-0.35  N 
ATOM      8  C   ARG B   2     -16.929 -26.301  -6.273  1.00 12.46 LIG 0.24  C 
ATOM      9 O    ARG B   2     -18.157 -26.231  -6.244  1.00 11.56 LIG-0.27  OA
ATOM     10 H    ALA B   3     -15.397 -27.389  -5.767  1.00 13.91 LIG 0.16  HD
BRANCH 8 11
ATOM     11  CA  ARG B   2     -16.107 -25.190  -6.919  1.00 12.24 LIG 0.18  C 
BRANCH 11 12
ATOM     12  CB  ARG B   2     -16.998 -24.363  -7.848  1.00 10.58 LIG 0.04  C 
BRANCH 12 13
ATOM     13  CG  ARG B   2     -17.386 -22.994  -7.306  1.00  9.71 LIG 0.02  C 
BRANCH 13 14
ATOM     14  CD  ARG B   2     -16.192 -22.330  -6.640  1.00  9.44 LIG 0.14  C 
BRANCH 14 15
ATOM     15  NE  ARG B   2     -16.422 -22.069  -5.220  1.00  9.23 LIG-0.23  N 
ATOM     16  CZ  ARG B   2     -15.624 -21.338  -4.452  1.00  9.20 LIG 0.67  C 
ATOM     17  NH1 ARG B   2     -14.530 -20.788  -4.963  1.00  7.63 LIG-0.23  N 
ATOM     18  NH2 ARG B   2     -15.919 -21.154  -3.171  1.00  9.31 LIG-0.23  N 
ATOM     19 1HH1 ARG B   2     -14.338 -20.906  -5.793  1.00  7.63 LIG 0.17  HD
ATOM     20 2HH1 ARG B   2     -14.013 -20.315  -4.465  1.00  7.63 LIG 0.17  HD
ATOM     21 2HH2 ARG B   2     -15.401 -20.680  -2.674  1.00  9.31 LIG 0.17  HD
ATOM     22 1HH2 ARG B   2     -16.628 -21.508  -2.838  1.00  9.31 LIG 0.17  HD
ATOM     23 HE   ARG B   2     -17.123 -22.412  -4.858  1.00  9.23 LIG 0.18  HD
ENDBRANCH 14 15
ENDBRANCH 13 14
ENDBRANCH 12 13
ENDBRANCH 11 12
BRANCH 11 24
ATOM     24  N   ARG B   2     -14.929 -25.634  -7.657  1.00 12.50 LIG-0.35  N 
ATOM     25  C   ALA B   1     -14.995 -26.398  -8.741  1.00 14.33 LIG 0.25  C 
ATOM     26 O    ALA B   1     -16.054 -26.771  -9.243  1.00 14.72 LIG-0.27  OA
ATOM     27 H    ARG B   2     -14.188 -25.354  -7.324  1.00 12.50 LIG 0.16  HD
BRANCH 25 28
ATOM     28  CA  ALA B   1     -13.653 -26.786  -9.354  1.00 14.93 LIG 0.27  C 
ATOM     29  CB  ALA B   1     -13.621 -28.281  -9.648  1.00 16.58 LIG 0.05  C 
BRANCH 28 30
ATOM     30  N   ALA B   1     -12.524 -26.416  -8.456  1.00 16.58 LIG-0.07  N 
ATOM     31 H3   ALA B   1     -11.960 -27.102  -8.390  1.00 16.58 LIG 0.28  HD
ATOM     32 H1   ALA B   1     -12.097 -25.712  -8.792  1.00 16.58 LIG 0.28  HD
ATOM     33 H2   ALA B   1     -12.841 -26.214  -7.650  1.00 16.58 LIG 0.28  HD
ENDBRANCH 28 30
ENDBRANCH 25 28
ENDBRANCH 11 24
ENDBRANCH 8 11
ENDBRANCH 5 7
ENDBRANCH 1 5
BRANCH 3 34
ATOM     34  CA  GLU B   4     -15.888 -30.988  -2.479  1.00 20.15 LIG 0.18  C 
BRANCH 34 35
ATOM     35  C   GLU B   4     -14.927 -31.909  -3.227  1.00 19.92 LIG 0.24  C 
ATOM     36  N   VAL B   5     -13.792 -32.212  -2.605  1.00 19.46 LIG-0.35  N 
ATOM     37 H    VAL B   5     -13.579 -31.923  -1.824  1.00 19.46 LIG 0.16  HD
ATOM     38 O    GLU B   4     -15.214 -32.343  -4.342  1.00 20.03 LIG-0.27  OA
BRANCH 36 39
ATOM     39  CA  VAL B   5     -12.795 -33.085  -3.220  1.00 20.09 LIG 0.18  C 
BRANCH 39 40
ATOM     40  CB  VAL B   5     -12.196 -32.440  -4.493  1.00 20.49 LIG 0.01  C 
ATOM     41  CG2 VAL B   5     -11.099 -33.323  -5.060  1.00 19.70 LIG 0.01  C 
ATOM     42  CG1 VAL B   5     -11.650 -31.060  -4.170  1.00 21.00 LIG 0.01  C 
ENDBRANCH 39 40
BRANCH 39 43
ATOM     43  C   VAL B   5     -11.653 -33.392  -2.256  1.00 20.75 LIG 0.24  C 
ATOM     44  N   HIS B   6     -11.936 -34.198  -1.236  1.00 20.78 LIG-0.35  N 
ATOM     45 H    HIS B   6     -12.714 -34.535  -1.090  1.00 20.78 LIG 0.16  HD
ATOM     46 O    VAL B   5     -10.537 -32.903  -2.429  1.00 21.91 LIG-0.27  OA
BRANCH 44 47
ATOM     47  CA  HIS B   6     -10.918 -34.578  -0.263  1.00 21.28 LIG 0.17  C 
BRANCH 47 48
ATOM     48  C   HIS B   6     -10.429 -33.343   0.484  1.00 23.03 LIG 0.22  C 
ATOM     49 O    HIS B   6     -10.935 -33.086   1.597  1.00 25.39 LIG-0.29  OA
ENDBRANCH 47 48
BRANCH 47 50
ATOM     50  CB  HIS B   6      -9.727 -35.254  -0.950  1.00 19.33 LIG 0.09  C 
BRANCH 50 51
ATOM     51  CG  HIS B   6      -8.409 -34.621  -0.625  1.00 17.39 LIG 0.06  A 
ATOM     52  CD2 HIS B   6      -7.581 -34.777   0.435  1.00 16.59 LIG 0.14  A 
ATOM     53 NE2  HIS B   6      -6.483 -33.981   0.214  1.00 16.70 LIG-0.25  NA
ATOM     54  CE1 HIS B   6      -6.633 -33.355  -0.940  1.00 16.06 LIG 0.23  A 
ATOM     55 ND1  HIS B   6      -7.787 -33.724  -1.467  1.00 16.09 LIG-0.24  NA
ENDBRANCH 50 51
ENDBRANCH 47 50
ENDBRANCH 44 47
ENDBRANCH 39 43
ENDBRANCH 36 39
ENDBRANCH 34 35
BRANCH 34 56
ATOM     56  CB  GLU B   4     -16.848 -31.839  -1.643  1.00 22.38 LIG 0.04  C 
BRANCH 56 57
ATOM     57  CG  GLU B   4     -16.313 -32.240  -0.280  1.00 27.64 LIG 0.12  C 
BRANCH 57 58
ATOM     58  CD  GLU B   4     -15.391 -33.442  -0.355  1.00 30.78 LIG 0.17  C 
ATOM     59 OE2  GLU B   4     -15.740 -34.420  -1.050  1.00 32.62 LIG-0.65  OA
ATOM     60 OE1  GLU B   4     -14.317 -33.407   0.282  1.00 32.75 LIG-0.65  OA
ENDBRANCH 57 58
ENDBRANCH 56 57
ENDBRANCH 34 56
ENDBRANCH 3 34
TORSDOF 22
ENDMDL
MODEL 98
USER: ADFR SOLUTION from run 181
USER: SCORE 17.922124 LL:  -5.081 LR: -13.280 RR:   0.000 FEB:  -6.718
USER: RMSD 7.417946
USER: SEED 180
USER: STATUS no improvement in best in 3 clusters for 5 generations
USER: GENES 24
USER: genes 0 Translation |==|  0.53179 0.42086 0.21613
USER: genes 1 Rotation |==|  0.76628 0.12719 0.65008 0.63258
USER: genes 2 Torsion [N]-C--CA-[N] |==|  0.38698
USER: genes 3 Torsion [C]-CA--N-[C] |==|  0.81898
USER: genes 4 Torsion [N]-C--CA-[N] |==|  0.42433
USER: genes 5 Torsion [C]-CA--CB-[CG] |==|  0.25128
USER: genes 6 Torsion [CA]-CB--CG-[CD] |==|  0.18209
USER: genes 7 Torsion [CB]-CG--CD-[NE] |==|  0.28141
USER: genes 8 Torsion [CG]-CD--NE-[CZ] |==|  0.58251
USER: genes 9 Torsion [C]-CA--N-[C] |==|  0.67737
USER: genes 10 Torsion [N]-C--CA-[N] |==|  0.69080
USER: genes 11 Torsion [C]-CA--N-[H2] |==|  0.18056
USER: genes 12 Torsion [C]-N--CA-[C] |==|  0.15969
USER: genes 13 Torsion [N]-CA--C-[N] |==|  0.10373
USER: genes 14 Torsion [C]-N--CA-[CB] |==|  0.86667
USER: genes 15 Torsion [N]-CA--CB-[CG2] |==|  0.88940
USER: genes 16 Torsion [N]-CA--C-[N] |==|  0.91315
USER: genes 17 Torsion [C]-N--CA-[C] |==|  0.63512
USER: genes 18 Torsion [N]-CA--C-[O] |==|  0.46106
USER: genes 19 Torsion [N]-CA--CB-[CG] |==|  0.09608
USER: genes 20 Torsion [CA]-CB--CG-[CD2] |==|  0.13745
USER: genes 21 Torsion [N]-CA--CB-[CG] |==|  0.55999
USER: genes 22 Torsion [CA]-CB--CG-[CD] |==|  0.49370
USER: genes 23 Torsion [CB]-CG--CD-[OE2] |==|  0.03305
ROOT
ATOM      1  C   ALA B   3     -14.564 -29.929 -11.220  1.00 17.17 LIG 0.24  C 
ATOM      2 O    ALA B   3     -13.629 -29.130 -11.156  1.00 18.54 LIG-0.27  OA
ATOM      3  N   GLU B   4     -14.388 -31.230 -11.435  1.00 17.89 LIG-0.35  N 
ATOM      4 H    GLU B   4     -15.032 -31.798 -11.482  1.00 17.89 LIG 0.16  HD
ENDROOT
BRANCH 1 5
ATOM      5  CA  ALA B   3     -16.005 -29.448 -11.051  1.00 15.99 LIG 0.17  C 
ATOM      6  CB  ALA B   3     -16.529 -28.893 -12.371  1.00 16.21 LIG 0.04  C 
BRANCH 5 7
ATOM      7  N   ALA B   3     -16.160 -28.451  -9.999  1.00 13.91 LIG-0.35  N 
ATOM      8  C   ARG B   2     -15.935 -28.747  -8.722  1.00 12.46 LIG 0.24  C 
ATOM      9 O    ARG B   2     -15.578 -29.864  -8.350  1.00 11.56 LIG-0.27  OA
ATOM     10 H    ALA B   3     -16.403 -27.674 -10.277  1.00 13.91 LIG 0.16  HD
BRANCH 8 11
ATOM     11  CA  ARG B   2     -16.146 -27.627  -7.708  1.00 12.24 LIG 0.18  C 
BRANCH 11 12
ATOM     12  CB  ARG B   2     -14.889 -26.756  -7.634  1.00 10.58 LIG 0.04  C 
BRANCH 12 13
ATOM     13  CG  ARG B   2     -14.874 -25.577  -8.596  1.00  9.71 LIG 0.02  C 
BRANCH 13 14
ATOM     14  CD  ARG B   2     -15.966 -24.583  -8.235  1.00  9.44 LIG 0.14  C 
BRANCH 14 15
ATOM     15  NE  ARG B   2     -15.444 -23.427  -7.508  1.00  9.23 LIG-0.23  N 
ATOM     16  CZ  ARG B   2     -16.134 -22.728  -6.614  1.00  9.20 LIG 0.67  C 
ATOM     17  NH1 ARG B   2     -17.385 -23.065  -6.329  1.00  7.63 LIG-0.23  N 
ATOM     18  NH2 ARG B   2     -15.572 -21.693  -6.002  1.00  9.31 LIG-0.23  N 
ATOM     19 1HH1 ARG B   2     -17.750 -23.737  -6.724  1.00  7.63 LIG 0.17  HD
ATOM     20 2HH1 ARG B   2     -17.831 -22.613  -5.750  1.00  7.63 LIG 0.17  HD
ATOM     21 2HH2 ARG B   2     -16.020 -21.242  -5.423  1.00  9.31 LIG 0.17  HD
ATOM     22 1HH2 ARG B   2     -14.762 -21.474  -6.184  1.00  9.31 LIG 0.17  HD
ATOM     23 HE   ARG B   2     -14.637 -23.182  -7.671  1.00  9.23 LIG 0.18  HD
ENDBRANCH 14 15
ENDBRANCH 13 14
ENDBRANCH 12 13
ENDBRANCH 11 12
BRANCH 11 24
ATOM     24  N   ARG B   2     -16.506 -28.062  -6.363  1.00 12.50 LIG-0.35  N 
ATOM     25  C   ALA B   1     -17.668 -27.771  -5.791  1.00 14.33 LIG 0.25  C 
ATOM     26 O    ALA B   1     -18.562 -27.142  -6.355  1.00 14.72 LIG-0.27  OA
ATOM     27 H    ARG B   2     -15.894 -28.525  -5.975  1.00 12.50 LIG 0.16  HD
BRANCH 25 28
ATOM     28  CA  ALA B   1     -17.848 -28.286  -4.367  1.00 14.93 LIG 0.27  C 
ATOM     29  CB  ALA B   1     -16.520 -28.797  -3.820  1.00 16.58 LIG 0.05  C 
BRANCH 28 30
ATOM     30  N   ALA B   1     -18.874 -29.364  -4.310  1.00 16.58 LIG-0.07  N 
ATOM     31 H3   ALA B   1     -19.013 -29.598  -3.462  1.00 16.58 LIG 0.28  HD
ATOM     32 H1   ALA B   1     -19.635 -29.069  -4.665  1.00 16.58 LIG 0.28  HD
ATOM     33 H2   ALA B   1     -18.588 -30.071  -4.769  1.00 16.58 LIG 0.28  HD
ENDBRANCH 28 30
ENDBRANCH 25 28
ENDBRANCH 11 24
ENDBRANCH 8 11
ENDBRANCH 5 7
ENDBRANCH 1 5
BRANCH 3 34
ATOM     34  CA  GLU B   4     -13.060 -31.815 -11.613  1.00 20.15 LIG 0.18  C 
BRANCH 34 35
ATOM     35  C   GLU B   4     -12.172 -31.526 -10.406  1.00 19.92 LIG 0.24  C 
ATOM     36  N   VAL B   5     -12.763 -31.550  -9.216  1.00 19.46 LIG-0.35  N 
ATOM     37 H    VAL B   5     -13.599 -31.716  -9.096  1.00 19.46 LIG 0.16  HD
ATOM     38 O    GLU B   4     -10.971 -31.293 -10.551  1.00 20.03 LIG-0.27  OA
BRANCH 36 39
ATOM     39  CA  VAL B   5     -12.017 -31.289  -7.988  1.00 20.09 LIG 0.18  C 
BRANCH 39 40
ATOM     40  CB  VAL B   5     -10.705 -32.108  -7.945  1.00 20.49 LIG 0.01  C 
ATOM     41  CG2 VAL B   5     -10.942 -33.504  -8.494  1.00 19.70 LIG 0.01  C 
ATOM     42  CG1 VAL B   5     -10.181 -32.181  -6.521  1.00 21.00 LIG 0.01  C 
ENDBRANCH 39 40
BRANCH 39 43
ATOM     43  C   VAL B   5     -11.663 -29.810  -7.854  1.00 20.75 LIG 0.24  C 
ATOM     44  N   HIS B   6     -11.460 -29.143  -8.988  1.00 20.78 LIG-0.35  N 
ATOM     45 H    HIS B   6     -11.506 -29.497  -9.770  1.00 20.78 LIG 0.16  HD
ATOM     46 O    VAL B   5     -11.567 -29.285  -6.746  1.00 21.91 LIG-0.27  OA
BRANCH 44 47
ATOM     47  CA  HIS B   6     -11.137 -27.720  -8.984  1.00 21.28 LIG 0.17  C 
BRANCH 47 48
ATOM     48  C   HIS B   6     -12.030 -26.984  -9.976  1.00 23.03 LIG 0.22  C 
ATOM     49 O    HIS B   6     -12.078 -25.737  -9.914  1.00 25.39 LIG-0.29  OA
ENDBRANCH 47 48
BRANCH 47 50
ATOM     50  CB  HIS B   6      -9.671 -27.490  -9.362  1.00 19.33 LIG 0.09  C 
BRANCH 50 51
ATOM     51  CG  HIS B   6      -9.151 -28.467 -10.372  1.00 17.39 LIG 0.06  A 
ATOM     52  CD2 HIS B   6      -9.654 -28.874 -11.561  1.00 16.59 LIG 0.14  A 
ATOM     53 NE2  HIS B   6      -8.755 -29.762 -12.101  1.00 16.70 LIG-0.25  NA
ATOM     54  CE1 HIS B   6      -7.737 -29.898 -11.271  1.00 16.06 LIG 0.23  A 
ATOM     55 ND1  HIS B   6      -7.951 -29.126 -10.219  1.00 16.09 LIG-0.24  NA
ENDBRANCH 50 51
ENDBRANCH 47 50
ENDBRANCH 44 47
ENDBRANCH 39 43
ENDBRANCH 36 39
ENDBRANCH 34 35
BRANCH 34 56
ATOM     56  CB  GLU B   4     -12.395 -31.247 -12.870  1.00 22.38 LIG 0.04  C 
BRANCH 56 57
ATOM     57  CG  GLU B   4     -11.286 -32.110 -13.443  1.00 27.64 LIG 0.12  C 
BRANCH 57 58
ATOM     58  CD  GLU B   4     -10.702 -31.527 -14.715  1.00 30.78 LIG 0.17  C 
ATOM     59 OE2  GLU B   4     -10.999 -30.353 -15.025  1.00 32.62 LIG-0.65  OA
ATOM     60 OE1  GLU B   4      -9.947 -32.244 -15.406  1.00 32.75 LIG-0.65  OA
ENDBRANCH 57 58
ENDBRANCH 56 57
ENDBRANCH 34 56
ENDBRANCH 3 34
TORSDOF 22
ENDMDL
MODEL 99
USER: ADFR SOLUTION from run 158
USER: SCORE 17.265688 LL:  -5.508 LR: -13.282 RR:   0.000 FEB:  -6.719
USER: RMSD 7.406575
USER: SEED 157
USER: STATUS no improvement in best in 14 clusters for 5 generations
USER: GENES 24
USER: genes 0 Translation |==|  0.40211 0.46348 0.38620
USER: genes 1 Rotation |==|  0.78134 0.85998 0.62074 0.66335
USER: genes 2 Torsion [N]-C--CA-[N] |==|  0.05156
USER: genes 3 Torsion [C]-CA--N-[C] |==|  0.17618
USER: genes 4 Torsion [N]-C--CA-[N] |==|  0.10774
USER: genes 5 Torsion [C]-CA--CB-[CG] |==|  0.25482
USER: genes 6 Torsion [CA]-CB--CG-[CD] |==|  0.08664
USER: genes 7 Torsion [CB]-CG--CD-[NE] |==|  0.61254
USER: genes 8 Torsion [CG]-CD--NE-[CZ] |==|  0.55699
USER: genes 9 Torsion [C]-CA--N-[C] |==|  0.18832
USER: genes 10 Torsion [N]-C--CA-[N] |==|  0.17589
USER: genes 11 Torsion [C]-CA--N-[H2] |==|  0.59829
USER: genes 12 Torsion [C]-N--CA-[C] |==|  0.83887
USER: genes 13 Torsion [N]-CA--C-[N] |==|  0.42186
USER: genes 14 Torsion [C]-N--CA-[CB] |==|  0.22722
USER: genes 15 Torsion [N]-CA--CB-[CG2] |==|  0.72991
USER: genes 16 Torsion [N]-CA--C-[N] |==|  0.91393
USER: genes 17 Torsion [C]-N--CA-[C] |==|  0.74759
USER: genes 18 Torsion [N]-CA--C-[O] |==|  0.93540
USER: genes 19 Torsion [N]-CA--CB-[CG] |==|  0.77334
USER: genes 20 Torsion [CA]-CB--CG-[CD2] |==|  0.88605
USER: genes 21 Torsion [N]-CA--CB-[CG] |==|  0.25324
USER: genes 22 Torsion [CA]-CB--CG-[CD] |==|  0.77153
USER: genes 23 Torsion [CB]-CG--CD-[OE2] |==|  0.05777
ROOT
ATOM      1  C   ALA B   3     -16.898 -28.938  -7.521  1.00 17.17 LIG 0.24  C 
ATOM      2 O    ALA B   3     -17.760 -29.811  -7.408  1.00 18.54 LIG-0.27  OA
ATOM      3  N   GLU B   4     -16.490 -28.474  -8.700  1.00 17.89 LIG-0.35  N 
ATOM      4 H    GLU B   4     -15.889 -27.865  -8.791  1.00 17.89 LIG 0.16  HD
ENDROOT
BRANCH 1 5
ATOM      5  CA  ALA B   3     -16.242 -28.334  -6.280  1.00 15.99 LIG 0.17  C 
ATOM      6  CB  ALA B   3     -17.276 -28.170  -5.171  1.00 16.21 LIG 0.04  C 
BRANCH 5 7
ATOM      7  N   ALA B   3     -15.587 -27.058  -6.537  1.00 13.91 LIG-0.35  N 
ATOM      8  C   ARG B   2     -16.276 -25.990  -6.928  1.00 12.46 LIG 0.24  C 
ATOM      9 O    ARG B   2     -17.496 -26.005  -7.086  1.00 11.56 LIG-0.27  OA
ATOM     10 H    ALA B   3     -14.735 -27.063  -6.414  1.00 13.91 LIG 0.16  HD
BRANCH 8 11
ATOM     11  CA  ARG B   2     -15.480 -24.713  -7.182  1.00 12.24 LIG 0.18  C 
BRANCH 11 12
ATOM     12  CB  ARG B   2     -16.316 -23.743  -8.020  1.00 10.58 LIG 0.04  C 
BRANCH 12 13
ATOM     13  CG  ARG B   2     -17.150 -22.759  -7.212  1.00  9.71 LIG 0.02  C 
BRANCH 13 14
ATOM     14  CD  ARG B   2     -16.453 -22.425  -5.903  1.00  9.44 LIG 0.14  C 
BRANCH 14 15
ATOM     15  NE  ARG B   2     -17.388 -22.348  -4.782  1.00  9.23 LIG-0.23  N 
ATOM     16  CZ  ARG B   2     -17.144 -21.713  -3.642  1.00  9.20 LIG 0.67  C 
ATOM     17  NH1 ARG B   2     -15.984 -21.092  -3.463  1.00  7.63 LIG-0.23  N 
ATOM     18  NH2 ARG B   2     -18.058 -21.695  -2.680  1.00  9.31 LIG-0.23  N 
ATOM     19 1HH1 ARG B   2     -15.391 -21.102  -4.085  1.00  7.63 LIG 0.17  HD
ATOM     20 2HH1 ARG B   2     -15.826 -20.681  -2.724  1.00  7.63 LIG 0.17  HD
ATOM     21 2HH2 ARG B   2     -17.898 -21.283  -1.942  1.00  9.31 LIG 0.17  HD
ATOM     22 1HH2 ARG B   2     -18.810 -22.096  -2.794  1.00  9.31 LIG 0.17  HD
ATOM     23 HE   ARG B   2     -18.148 -22.741  -4.866  1.00  9.23 LIG 0.18  HD
ENDBRANCH 14 15
ENDBRANCH 13 14
ENDBRANCH 12 13
ENDBRANCH 11 12
BRANCH 11 24
ATOM     24  N   ARG B   2     -14.183 -24.904  -7.824  1.00 12.50 LIG-0.35  N 
ATOM     25  C   ALA B   1     -14.046 -25.321  -9.076  1.00 14.33 LIG 0.25  C 
ATOM     26 O    ALA B   1     -14.996 -25.549  -9.822  1.00 14.72 LIG-0.27  OA
ATOM     27 H    ARG B   2     -13.516 -24.720  -7.314  1.00 12.50 LIG 0.16  HD
BRANCH 25 28
ATOM     28  CA  ALA B   1     -12.609 -25.492  -9.559  1.00 14.93 LIG 0.27  C 
ATOM     29  CB  ALA B   1     -12.589 -25.835 -11.043  1.00 16.58 LIG 0.05  C 
BRANCH 28 30
ATOM     30  N   ALA B   1     -11.902 -26.546  -8.779  1.00 16.58 LIG-0.07  N 
ATOM     31 H3   ALA B   1     -12.285 -26.632  -7.980  1.00 16.58 LIG 0.28  HD
ATOM     32 H1   ALA B   1     -11.949 -27.320  -9.216  1.00 16.58 LIG 0.28  HD
ATOM     33 H2   ALA B   1     -11.049 -26.316  -8.675  1.00 16.58 LIG 0.28  HD
ENDBRANCH 28 30
ENDBRANCH 25 28
ENDBRANCH 11 24
ENDBRANCH 8 11
ENDBRANCH 5 7
ENDBRANCH 1 5
BRANCH 3 34
ATOM     34  CA  GLU B   4     -17.039 -28.968  -9.961  1.00 20.15 LIG 0.18  C 
BRANCH 34 35
ATOM     35  C   GLU B   4     -16.838 -30.476 -10.088  1.00 19.92 LIG 0.24  C 
ATOM     36  N   VAL B   5     -17.729 -31.134 -10.823  1.00 19.46 LIG-0.35  N 
ATOM     37 H    VAL B   5     -18.395 -30.761 -11.220  1.00 19.46 LIG 0.16  HD
ATOM     38 O    GLU B   4     -15.887 -31.031  -9.537  1.00 20.03 LIG-0.27  OA
BRANCH 36 39
ATOM     39  CA  VAL B   5     -17.640 -32.578 -11.018  1.00 20.09 LIG 0.18  C 
BRANCH 39 40
ATOM     40  CB  VAL B   5     -18.242 -33.343  -9.815  1.00 20.49 LIG 0.01  C 
ATOM     41  CG2 VAL B   5     -17.141 -33.765  -8.858  1.00 19.70 LIG 0.01  C 
ATOM     42  CG1 VAL B   5     -19.013 -34.558 -10.302  1.00 21.00 LIG 0.01  C 
ENDBRANCH 39 40
BRANCH 39 43
ATOM     43  C   VAL B   5     -18.376 -33.017 -12.281  1.00 20.75 LIG 0.24  C 
ATOM     44  N   HIS B   6     -19.436 -32.294 -12.633  1.00 20.78 LIG-0.35  N 
ATOM     45 H    HIS B   6     -19.726 -31.616 -12.189  1.00 20.78 LIG 0.16  HD
ATOM     46 O    VAL B   5     -17.995 -33.997 -12.921  1.00 21.91 LIG-0.27  OA
BRANCH 44 47
ATOM     47  CA  HIS B   6     -20.204 -32.606 -13.833  1.00 21.28 LIG 0.17  C 
BRANCH 47 48
ATOM     48  C   HIS B   6     -19.644 -31.834 -15.021  1.00 23.03 LIG 0.22  C 
ATOM     49 O    HIS B   6     -18.996 -30.790 -14.796  1.00 25.39 LIG-0.29  OA
ENDBRANCH 47 48
BRANCH 47 50
ATOM     50  CB  HIS B   6     -21.681 -32.243 -13.649  1.00 19.33 LIG 0.09  C 
BRANCH 50 51
ATOM     51  CG  HIS B   6     -22.467 -33.282 -12.909  1.00 17.39 LIG 0.06  A 
ATOM     52  CD2 HIS B   6     -22.449 -34.633 -12.981  1.00 16.59 LIG 0.14  A 
ATOM     53 NE2  HIS B   6     -23.348 -35.102 -12.054  1.00 16.70 LIG-0.25  NA
ATOM     54  CE1 HIS B   6     -23.901 -34.074 -11.436  1.00 16.06 LIG 0.23  A 
ATOM     55 ND1  HIS B   6     -23.386 -32.963 -11.933  1.00 16.09 LIG-0.24  NA
ENDBRANCH 50 51
ENDBRANCH 47 50
ENDBRANCH 44 47
ENDBRANCH 39 43
ENDBRANCH 36 39
ENDBRANCH 34 35
BRANCH 34 56
ATOM     56  CB  GLU B   4     -16.361 -28.272 -11.143  1.00 22.38 LIG 0.04  C 
BRANCH 56 57
ATOM     57  CG  GLU B   4     -15.135 -28.989 -11.680  1.00 27.64 LIG 0.12  C 
BRANCH 57 58
ATOM     58  CD  GLU B   4     -13.889 -28.682 -10.871  1.00 30.78 LIG 0.17  C 
ATOM     59 OE2  GLU B   4     -14.024 -28.256  -9.704  1.00 32.62 LIG-0.65  OA
ATOM     60 OE1  GLU B   4     -12.775 -28.867 -11.404  1.00 32.75 LIG-0.65  OA
ENDBRANCH 57 58
ENDBRANCH 56 57
ENDBRANCH 34 56
ENDBRANCH 3 34
TORSDOF 22
ENDMDL
MODEL 100
USER: ADFR SOLUTION from run 48
USER: SCORE 18.364513 LL:  -7.066 LR: -13.272 RR:   0.000 FEB:  -6.709
USER: RMSD 3.898868
USER: SEED 47
USER: STATUS no improvement in best in 5 clusters for 5 generations
USER: GENES 24
USER: genes 0 Translation |==|  0.42821 0.49411 0.22424
USER: genes 1 Rotation |==|  0.61797 0.66687 0.57326 0.95041
USER: genes 2 Torsion [N]-C--CA-[N] |==|  0.84280
USER: genes 3 Torsion [C]-CA--N-[C] |==|  0.20603
USER: genes 4 Torsion [N]-C--CA-[N] |==|  0.41915
USER: genes 5 Torsion [C]-CA--CB-[CG] |==|  0.21267
USER: genes 6 Torsion [CA]-CB--CG-[CD] |==|  0.49068
USER: genes 7 Torsion [CB]-CG--CD-[NE] |==|  0.72268
USER: genes 8 Torsion [CG]-CD--NE-[CZ] |==|  0.36163
USER: genes 9 Torsion [C]-CA--N-[C] |==|  0.81811
USER: genes 10 Torsion [N]-C--CA-[N] |==|  0.88699
USER: genes 11 Torsion [C]-CA--N-[H2] |==|  0.68883
USER: genes 12 Torsion [C]-N--CA-[C] |==|  0.81670
USER: genes 13 Torsion [N]-CA--C-[N] |==|  0.92425
USER: genes 14 Torsion [C]-N--CA-[CB] |==|  0.23632
USER: genes 15 Torsion [N]-CA--CB-[CG2] |==|  0.52701
USER: genes 16 Torsion [N]-CA--C-[N] |==|  0.93473
USER: genes 17 Torsion [C]-N--CA-[C] |==|  0.65861
USER: genes 18 Torsion [N]-CA--C-[O] |==|  0.60503
USER: genes 19 Torsion [N]-CA--CB-[CG] |==|  0.80845
USER: genes 20 Torsion [CA]-CB--CG-[CD2] |==|  0.46695
USER: genes 21 Torsion [N]-CA--CB-[CG] |==|  0.12941
USER: genes 22 Torsion [CA]-CB--CG-[CD] |==|  0.67994
USER: genes 23 Torsion [CB]-CG--CD-[OE2] |==|  0.43709
ROOT
ATOM      1  C   ALA B   3     -16.428 -28.226 -11.044  1.00 17.17 LIG 0.24  C 
ATOM      2 O    ALA B   3     -17.361 -28.899 -11.483  1.00 18.54 LIG-0.27  OA
ATOM      3  N   GLU B   4     -15.197 -28.708 -10.894  1.00 17.89 LIG-0.35  N 
ATOM      4 H    GLU B   4     -14.538 -28.248 -10.588  1.00 17.89 LIG 0.16  HD
ENDROOT
BRANCH 1 5
ATOM      5  CA  ALA B   3     -16.650 -26.768 -10.641  1.00 15.99 LIG 0.17  C 
ATOM      6  CB  ALA B   3     -15.881 -25.844 -11.579  1.00 16.21 LIG 0.04  C 
BRANCH 5 7
ATOM      7  N   ALA B   3     -16.277 -26.489  -9.259  1.00 13.91 LIG-0.35  N 
ATOM      8  C   ARG B   2     -15.003 -26.409  -8.886  1.00 12.46 LIG 0.24  C 
ATOM      9 O    ARG B   2     -14.068 -26.553  -9.672  1.00 11.56 LIG-0.27  OA
ATOM     10 H    ALA B   3     -16.943 -26.385  -8.724  1.00 13.91 LIG 0.16  HD
BRANCH 8 11
ATOM     11  CA  ARG B   2     -14.735 -26.129  -7.410  1.00 12.24 LIG 0.18  C 
BRANCH 11 12
ATOM     12  CB  ARG B   2     -14.768 -24.620  -7.158  1.00 10.58 LIG 0.04  C 
BRANCH 12 13
ATOM     13  CG  ARG B   2     -16.163 -24.012  -7.111  1.00  9.71 LIG 0.02  C 
BRANCH 13 14
ATOM     14  CD  ARG B   2     -16.085 -22.532  -6.775  1.00  9.44 LIG 0.14  C 
BRANCH 14 15
ATOM     15  NE  ARG B   2     -16.370 -22.268  -5.365  1.00  9.23 LIG-0.23  N 
ATOM     16  CZ  ARG B   2     -15.609 -21.525  -4.572  1.00  9.20 LIG 0.67  C 
ATOM     17  NH1 ARG B   2     -14.504 -20.964  -5.046  1.00  7.63 LIG-0.23  N 
ATOM     18  NH2 ARG B   2     -15.952 -21.339  -3.303  1.00  9.31 LIG-0.23  N 
ATOM     19 1HH1 ARG B   2     -14.281 -21.082  -5.868  1.00  7.63 LIG 0.17  HD
ATOM     20 2HH1 ARG B   2     -14.011 -20.483  -4.531  1.00  7.63 LIG 0.17  HD
ATOM     21 2HH2 ARG B   2     -15.458 -20.857  -2.790  1.00  9.31 LIG 0.17  HD
ATOM     22 1HH2 ARG B   2     -16.669 -21.700  -2.994  1.00  9.31 LIG 0.17  HD
ATOM     23 HE   ARG B   2     -17.079 -22.618  -5.027  1.00  9.23 LIG 0.18  HD
ENDBRANCH 14 15
ENDBRANCH 13 14
ENDBRANCH 12 13
ENDBRANCH 11 12
BRANCH 11 24
ATOM     24  N   ARG B   2     -13.486 -26.674  -6.889  1.00 12.50 LIG-0.35  N 
ATOM     25  C   ALA B   1     -13.243 -27.975  -6.795  1.00 14.33 LIG 0.25  C 
ATOM     26 O    ALA B   1     -14.032 -28.840  -7.172  1.00 14.72 LIG-0.27  OA
ATOM     27 H    ARG B   2     -12.921 -26.072  -6.648  1.00 12.50 LIG 0.16  HD
BRANCH 25 28
ATOM     28  CA  ALA B   1     -11.893 -28.351  -6.192  1.00 14.93 LIG 0.27  C 
ATOM     29  CB  ALA B   1     -11.961 -28.296  -4.671  1.00 16.58 LIG 0.05  C 
BRANCH 28 30
ATOM     30  N   ALA B   1     -10.814 -27.453  -6.690  1.00 16.58 LIG-0.07  N 
ATOM     31 H3   ALA B   1     -11.174 -26.788  -7.160  1.00 16.58 LIG 0.28  HD
ATOM     32 H1   ALA B   1     -10.364 -27.118  -5.999  1.00 16.58 LIG 0.28  HD
ATOM     33 H2   ALA B   1     -10.259 -27.915  -7.209  1.00 16.58 LIG 0.28  HD
ENDBRANCH 28 30
ENDBRANCH 25 28
ENDBRANCH 11 24
ENDBRANCH 8 11
ENDBRANCH 5 7
ENDBRANCH 1 5
BRANCH 3 34
ATOM     34  CA  GLU B   4     -14.856 -30.086 -11.244  1.00 20.15 LIG 0.18  C 
BRANCH 34 35
ATOM     35  C   GLU B   4     -15.574 -31.074 -10.327  1.00 19.92 LIG 0.24  C 
ATOM     36  N   VAL B   5     -15.886 -30.635  -9.112  1.00 19.46 LIG-0.35  N 
ATOM     37 H    VAL B   5     -15.709 -29.844  -8.825  1.00 19.46 LIG 0.16  HD
ATOM     38 O    GLU B   4     -15.847 -32.209 -10.718  1.00 20.03 LIG-0.27  OA
BRANCH 36 39
ATOM     39  CA  VAL B   5     -16.574 -31.488  -8.147  1.00 20.09 LIG 0.18  C 
BRANCH 39 40
ATOM     40  CB  VAL B   5     -15.571 -32.372  -7.366  1.00 20.49 LIG 0.01  C 
ATOM     41  CG2 VAL B   5     -16.317 -33.412  -6.548  1.00 19.70 LIG 0.01  C 
ATOM     42  CG1 VAL B   5     -14.709 -31.508  -6.463  1.00 21.00 LIG 0.01  C 
ENDBRANCH 39 40
BRANCH 39 43
ATOM     43  C   VAL B   5     -17.369 -30.662  -7.139  1.00 20.75 LIG 0.24  C 
ATOM     44  N   HIS B   6     -16.971 -29.406  -6.954  1.00 20.78 LIG-0.35  N 
ATOM     45 H    HIS B   6     -16.298 -29.050  -7.355  1.00 20.78 LIG 0.16  HD
ATOM     46 O    VAL B   5     -18.321 -31.155  -6.536  1.00 21.91 LIG-0.27  OA
BRANCH 44 47
ATOM     47  CA  HIS B   6     -17.668 -28.517  -6.032  1.00 21.28 LIG 0.17  C 
BRANCH 47 48
ATOM     48  C   HIS B   6     -18.136 -27.269  -6.772  1.00 23.03 LIG 0.22  C 
ATOM     49 O    HIS B   6     -18.080 -26.172  -6.175  1.00 25.39 LIG-0.29  OA
ENDBRANCH 47 48
BRANCH 47 50
ATOM     50  CB  HIS B   6     -16.754 -28.100  -4.875  1.00 19.33 LIG 0.09  C 
BRANCH 50 51
ATOM     51  CG  HIS B   6     -16.428 -29.221  -3.936  1.00 17.39 LIG 0.06  A 
ATOM     52  CD2 HIS B   6     -15.511 -29.315  -2.944  1.00 16.59 LIG 0.14  A 
ATOM     53 NE2  HIS B   6     -15.658 -30.555  -2.370  1.00 16.70 LIG-0.25  NA
ATOM     54  CE1 HIS B   6     -16.630 -31.200  -2.990  1.00 16.06 LIG 0.23  A 
ATOM     55 ND1  HIS B   6     -17.111 -30.417  -3.940  1.00 16.09 LIG-0.24  NA
ENDBRANCH 50 51
ENDBRANCH 47 50
ENDBRANCH 44 47
ENDBRANCH 39 43
ENDBRANCH 36 39
ENDBRANCH 34 35
BRANCH 34 56
ATOM     56  CB  GLU B   4     -13.345 -30.303 -11.126  1.00 22.38 LIG 0.04  C 
BRANCH 56 57
ATOM     57  CG  GLU B   4     -12.726 -29.761  -9.851  1.00 27.64 LIG 0.12  C 
BRANCH 57 58
ATOM     58  CD  GLU B   4     -11.749 -28.632 -10.120  1.00 30.78 LIG 0.17  C 
ATOM     59 OE2  GLU B   4     -11.500 -27.825  -9.200  1.00 32.62 LIG-0.65  OA
ATOM     60 OE1  GLU B   4     -11.232 -28.553 -11.255  1.00 32.75 LIG-0.65  OA
ENDBRANCH 57 58
ENDBRANCH 56 57
ENDBRANCH 34 56
ENDBRANCH 3 34
TORSDOF 22
ENDMDL
MODEL 101
USER: ADFR SOLUTION from run 77
USER: SCORE 17.498875 LL:  -5.749 LR: -13.274 RR:   0.000 FEB:  -6.711
USER: RMSD 8.560641
USER: SEED 76
USER: STATUS no improvement in best in 5 clusters for 5 generations
USER: GENES 24
USER: genes 0 Translation |==|  0.73714 0.49665 0.24181
USER: genes 1 Rotation |==|  0.85603 0.51391 0.54839 0.84743
USER: genes 2 Torsion [N]-C--CA-[N] |==|  0.89480
USER: genes 3 Torsion [C]-CA--N-[C] |==|  0.81404
USER: genes 4 Torsion [N]-C--CA-[N] |==|  0.87766
USER: genes 5 Torsion [C]-CA--CB-[CG] |==|  0.87357
USER: genes 6 Torsion [CA]-CB--CG-[CD] |==|  0.32026
USER: genes 7 Torsion [CB]-CG--CD-[NE] |==|  0.70469
USER: genes 8 Torsion [CG]-CD--NE-[CZ] |==|  0.28928
USER: genes 9 Torsion [C]-CA--N-[C] |==|  0.82378
USER: genes 10 Torsion [N]-C--CA-[N] |==|  0.93637
USER: genes 11 Torsion [C]-CA--N-[H2] |==|  0.19331
USER: genes 12 Torsion [C]-N--CA-[C] |==|  0.80308
USER: genes 13 Torsion [N]-CA--C-[N] |==|  0.94764
USER: genes 14 Torsion [C]-N--CA-[CB] |==|  0.46199
USER: genes 15 Torsion [N]-CA--CB-[CG2] |==|  0.78779
USER: genes 16 Torsion [N]-CA--C-[N] |==|  0.84637
USER: genes 17 Torsion [C]-N--CA-[C] |==|  0.59241
USER: genes 18 Torsion [N]-CA--C-[O] |==|  0.96740
USER: genes 19 Torsion [N]-CA--CB-[CG] |==|  0.76626
USER: genes 20 Torsion [CA]-CB--CG-[CD2] |==|  0.34476
USER: genes 21 Torsion [N]-CA--CB-[CG] |==|  0.74596
USER: genes 22 Torsion [CA]-CB--CG-[CD] |==|  0.64765
USER: genes 23 Torsion [CB]-CG--CD-[OE2] |==|  0.31560
ROOT
ATOM      1  C   ALA B   3     -10.868 -28.167 -10.662  1.00 17.17 LIG 0.24  C 
ATOM      2 O    ALA B   3     -11.644 -27.585 -11.420  1.00 18.54 LIG-0.27  OA
ATOM      3  N   GLU B   4     -10.024 -29.110 -11.076  1.00 17.89 LIG-0.35  N 
ATOM      4 H    GLU B   4      -9.478 -29.523 -10.556  1.00 17.89 LIG 0.16  HD
ENDROOT
BRANCH 1 5
ATOM      5  CA  ALA B   3     -10.838 -27.822  -9.173  1.00 15.99 LIG 0.17  C 
ATOM      6  CB  ALA B   3      -9.754 -26.785  -8.899  1.00 16.21 LIG 0.04  C 
BRANCH 5 7
ATOM      7  N   ALA B   3     -10.636 -28.985  -8.316  1.00 13.91 LIG-0.35  N 
ATOM      8  C   ARG B   2     -11.556 -29.940  -8.213  1.00 12.46 LIG 0.24  C 
ATOM      9 O    ARG B   2     -12.619 -29.910  -8.834  1.00 11.56 LIG-0.27  OA
ATOM     10 H    ALA B   3      -9.886 -28.992  -7.896  1.00 13.91 LIG 0.16  HD
BRANCH 8 11
ATOM     11  CA  ARG B   2     -11.242 -31.099  -7.274  1.00 12.24 LIG 0.18  C 
BRANCH 11 12
ATOM     12  CB  ARG B   2     -11.516 -30.680  -5.828  1.00 10.58 LIG 0.04  C 
BRANCH 12 13
ATOM     13  CG  ARG B   2     -10.974 -29.308  -5.449  1.00  9.71 LIG 0.02  C 
BRANCH 13 14
ATOM     14  CD  ARG B   2     -12.116 -28.360  -5.121  1.00  9.44 LIG 0.14  C 
BRANCH 14 15
ATOM     15  NE  ARG B   2     -12.336 -27.372  -6.176  1.00  9.23 LIG-0.23  N 
ATOM     16  CZ  ARG B   2     -13.334 -27.417  -7.051  1.00  9.20 LIG 0.67  C 
ATOM     17  NH1 ARG B   2     -14.215 -28.408  -7.003  1.00  7.63 LIG-0.23  N 
ATOM     18  NH2 ARG B   2     -13.454 -26.470  -7.973  1.00  9.31 LIG-0.23  N 
ATOM     19 1HH1 ARG B   2     -14.139 -29.022  -6.406  1.00  7.63 LIG 0.17  HD
ATOM     20 2HH1 ARG B   2     -14.861 -28.437  -7.570  1.00  7.63 LIG 0.17  HD
ATOM     21 2HH2 ARG B   2     -14.101 -26.501  -8.539  1.00  9.31 LIG 0.17  HD
ATOM     22 1HH2 ARG B   2     -12.885 -25.826  -8.005  1.00  9.31 LIG 0.17  HD
ATOM     23 HE   ARG B   2     -11.782 -26.717  -6.235  1.00  9.23 LIG 0.18  HD
ENDBRANCH 14 15
ENDBRANCH 13 14
ENDBRANCH 12 13
ENDBRANCH 11 12
BRANCH 11 24
ATOM     24  N   ARG B   2      -9.886 -31.629  -7.368  1.00 12.50 LIG-0.35  N 
ATOM     25  C   ALA B   1      -9.405 -32.205  -8.464  1.00 14.33 LIG 0.25  C 
ATOM     26 O    ALA B   1     -10.044 -32.311  -9.509  1.00 14.72 LIG-0.27  OA
ATOM     27 H    ARG B   2      -9.427 -31.533  -6.648  1.00 12.50 LIG 0.16  HD
BRANCH 25 28
ATOM     28  CA  ALA B   1      -7.975 -32.727  -8.359  1.00 14.93 LIG 0.27  C 
ATOM     29  CB  ALA B   1      -7.981 -34.230  -8.105  1.00 16.58 LIG 0.05  C 
BRANCH 28 30
ATOM     30  N   ALA B   1      -7.225 -32.028  -7.279  1.00 16.58 LIG-0.07  N 
ATOM     31 H3   ALA B   1      -6.364 -32.246  -7.326  1.00 16.58 LIG 0.28  HD
ATOM     32 H1   ALA B   1      -7.315 -31.148  -7.378  1.00 16.58 LIG 0.28  HD
ATOM     33 H2   ALA B   1      -7.549 -32.271  -6.487  1.00 16.58 LIG 0.28  HD
ENDBRANCH 28 30
ENDBRANCH 25 28
ENDBRANCH 11 24
ENDBRANCH 8 11
ENDBRANCH 5 7
ENDBRANCH 1 5
BRANCH 3 34
ATOM     34  CA  GLU B   4      -9.955 -29.529 -12.474  1.00 20.15 LIG 0.18  C 
BRANCH 34 35
ATOM     35  C   GLU B   4     -11.201 -30.320 -12.867  1.00 19.92 LIG 0.24  C 
ATOM     36  N   VAL B   5     -11.918 -30.830 -11.871  1.00 19.46 LIG-0.35  N 
ATOM     37 H    VAL B   5     -11.720 -30.738 -11.039  1.00 19.46 LIG 0.16  HD
ATOM     38 O    GLU B   4     -11.509 -30.458 -14.051  1.00 20.03 LIG-0.27  OA
BRANCH 36 39
ATOM     39  CA  VAL B   5     -13.130 -31.605 -12.123  1.00 20.09 LIG 0.18  C 
BRANCH 39 40
ATOM     40  CB  VAL B   5     -13.584 -32.362 -10.852  1.00 20.49 LIG 0.01  C 
ATOM     41  CG2 VAL B   5     -12.703 -33.579 -10.626  1.00 19.70 LIG 0.01  C 
ATOM     42  CG1 VAL B   5     -15.038 -32.779 -10.985  1.00 21.00 LIG 0.01  C 
ENDBRANCH 39 40
BRANCH 39 43
ATOM     43  C   VAL B   5     -14.278 -30.710 -12.582  1.00 20.75 LIG 0.24  C 
ATOM     44  N   HIS B   6     -14.596 -29.694 -11.785  1.00 20.78 LIG-0.35  N 
ATOM     45 H    HIS B   6     -14.204 -29.527 -11.037  1.00 20.78 LIG 0.16  HD
ATOM     46 O    VAL B   5     -14.871 -30.942 -13.636  1.00 21.91 LIG-0.27  OA
BRANCH 44 47
ATOM     47  CA  HIS B   6     -15.662 -28.761 -12.132  1.00 21.28 LIG 0.17  C 
BRANCH 47 48
ATOM     48  C   HIS B   6     -15.320 -27.368 -11.614  1.00 23.03 LIG 0.22  C 
ATOM     49 O    HIS B   6     -14.367 -27.253 -10.815  1.00 25.39 LIG-0.29  OA
ENDBRANCH 47 48
BRANCH 47 50
ATOM     50  CB  HIS B   6     -16.998 -29.206 -11.530  1.00 19.33 LIG 0.09  C 
BRANCH 50 51
ATOM     51  CG  HIS B   6     -17.725 -30.216 -12.365  1.00 17.39 LIG 0.06  A 
ATOM     52  CD2 HIS B   6     -18.188 -31.452 -12.067  1.00 16.59 LIG 0.14  A 
ATOM     53 NE2  HIS B   6     -18.812 -31.935 -13.193  1.00 16.70 LIG-0.25  NA
ATOM     54  CE1 HIS B   6     -18.733 -31.027 -14.148  1.00 16.06 LIG 0.23  A 
ATOM     55 ND1  HIS B   6     -18.082 -29.979 -13.675  1.00 16.09 LIG-0.24  NA
ENDBRANCH 50 51
ENDBRANCH 47 50
ENDBRANCH 44 47
ENDBRANCH 39 43
ENDBRANCH 36 39
ENDBRANCH 34 35
BRANCH 34 56
ATOM     56  CB  GLU B   4      -8.717 -30.400 -12.705  1.00 22.38 LIG 0.04  C 
BRANCH 56 57
ATOM     57  CG  GLU B   4      -7.479 -29.635 -13.136  1.00 27.64 LIG 0.12  C 
BRANCH 57 58
ATOM     58  CD  GLU B   4      -6.869 -30.197 -14.406  1.00 30.78 LIG 0.17  C 
ATOM     59 OE2  GLU B   4      -6.886 -29.494 -15.439  1.00 32.62 LIG-0.65  OA
ATOM     60 OE1  GLU B   4      -6.372 -31.343 -14.369  1.00 32.75 LIG-0.65  OA
ENDBRANCH 57 58
ENDBRANCH 56 57
ENDBRANCH 34 56
ENDBRANCH 3 34
TORSDOF 22
ENDMDL
MODEL 102
USER: ADFR SOLUTION from run 177
USER: SCORE 17.492916 LL:  -5.041 LR: -13.259 RR:   0.000 FEB:  -6.697
USER: RMSD 8.102798
USER: SEED 176
USER: STATUS no improvement in best in 10 clusters for 5 generations
USER: GENES 24
USER: genes 0 Translation |==|  0.74838 0.51884 0.24162
USER: genes 1 Rotation |==|  0.69099 0.18130 0.45810 0.83196
USER: genes 2 Torsion [N]-C--CA-[N] |==|  0.96280
USER: genes 3 Torsion [C]-CA--N-[C] |==|  0.71883
USER: genes 4 Torsion [N]-C--CA-[N] |==|  0.46714
USER: genes 5 Torsion [C]-CA--CB-[CG] |==|  0.18835
USER: genes 6 Torsion [CA]-CB--CG-[CD] |==|  0.17645
USER: genes 7 Torsion [CB]-CG--CD-[NE] |==|  0.80233
USER: genes 8 Torsion [CG]-CD--NE-[CZ] |==|  0.72263
USER: genes 9 Torsion [C]-CA--N-[C] |==|  0.79130
USER: genes 10 Torsion [N]-C--CA-[N] |==|  0.18699
USER: genes 11 Torsion [C]-CA--N-[H2] |==|  0.26477
USER: genes 12 Torsion [C]-N--CA-[C] |==|  0.55322
USER: genes 13 Torsion [N]-CA--C-[N] |==|  0.45533
USER: genes 14 Torsion [C]-N--CA-[CB] |==|  0.76748
USER: genes 15 Torsion [N]-CA--CB-[CG2] |==|  0.16156
USER: genes 16 Torsion [N]-CA--C-[N] |==|  0.14448
USER: genes 17 Torsion [C]-N--CA-[C] |==|  0.61517
USER: genes 18 Torsion [N]-CA--C-[O] |==|  0.11260
USER: genes 19 Torsion [N]-CA--CB-[CG] |==|  0.18647
USER: genes 20 Torsion [CA]-CB--CG-[CD2] |==|  0.29517
USER: genes 21 Torsion [N]-CA--CB-[CG] |==|  0.50937
USER: genes 22 Torsion [CA]-CB--CG-[CD] |==|  0.20657
USER: genes 23 Torsion [CB]-CG--CD-[OE2] |==|  0.06556
ROOT
ATOM      1  C   ALA B   3     -10.665 -27.651 -10.666  1.00 17.17 LIG 0.24  C 
ATOM      2 O    ALA B   3      -9.894 -27.418 -11.598  1.00 18.54 LIG-0.27  OA
ATOM      3  N   GLU B   4     -11.370 -28.776 -10.576  1.00 17.89 LIG-0.35  N 
ATOM      4 H    GLU B   4     -11.912 -28.950  -9.931  1.00 17.89 LIG 0.16  HD
ENDROOT
BRANCH 1 5
ATOM      5  CA  ALA B   3     -10.850 -26.632  -9.542  1.00 15.99 LIG 0.17  C 
ATOM      6  CB  ALA B   3      -9.588 -26.560  -8.689  1.00 16.21 LIG 0.04  C 
BRANCH 5 7
ATOM      7  N   ALA B   3     -12.004 -26.910  -8.695  1.00 13.91 LIG-0.35  N 
ATOM      8  C   ARG B   2     -13.147 -26.244  -8.838  1.00 12.46 LIG 0.24  C 
ATOM      9 O    ARG B   2     -13.306 -25.369  -9.688  1.00 11.56 LIG-0.27  OA
ATOM     10 H    ALA B   3     -11.877 -27.528  -8.112  1.00 13.91 LIG 0.16  HD
BRANCH 8 11
ATOM     11  CA  ARG B   2     -14.279 -26.610  -7.884  1.00 12.24 LIG 0.18  C 
BRANCH 11 12
ATOM     12  CB  ARG B   2     -14.778 -28.024  -8.195  1.00 10.58 LIG 0.04  C 
BRANCH 12 13
ATOM     13  CG  ARG B   2     -13.783 -29.132  -7.882  1.00  9.71 LIG 0.02  C 
BRANCH 13 14
ATOM     14  CD  ARG B   2     -13.491 -29.178  -6.392  1.00  9.44 LIG 0.14  C 
BRANCH 14 15
ATOM     15  NE  ARG B   2     -12.690 -28.038  -5.948  1.00  9.23 LIG-0.23  N 
ATOM     16  CZ  ARG B   2     -11.380 -28.076  -5.739  1.00  9.20 LIG 0.67  C 
ATOM     17  NH1 ARG B   2     -10.709 -29.206  -5.931  1.00  7.63 LIG-0.23  N 
ATOM     18  NH2 ARG B   2     -10.737 -26.986  -5.339  1.00  9.31 LIG-0.23  N 
ATOM     19 1HH1 ARG B   2     -11.124 -29.912  -6.192  1.00  7.63 LIG 0.17  HD
ATOM     20 2HH1 ARG B   2      -9.860 -29.230  -5.796  1.00  7.63 LIG 0.17  HD
ATOM     21 2HH2 ARG B   2      -9.888 -27.013  -5.205  1.00  9.31 LIG 0.17  HD
ATOM     22 1HH2 ARG B   2     -11.169 -26.254  -5.215  1.00  9.31 LIG 0.17  HD
ATOM     23 HE   ARG B   2     -13.095 -27.292  -5.814  1.00  9.23 LIG 0.18  HD
ENDBRANCH 14 15
ENDBRANCH 13 14
ENDBRANCH 12 13
ENDBRANCH 11 12
BRANCH 11 24
ATOM     24  N   ARG B   2     -15.414 -25.693  -7.882  1.00 12.50 LIG-0.35  N 
ATOM     25  C   ALA B   1     -15.383 -24.499  -7.302  1.00 14.33 LIG 0.25  C 
ATOM     26 O    ALA B   1     -14.386 -24.042  -6.746  1.00 14.72 LIG-0.27  OA
ATOM     27 H    ARG B   2     -16.105 -25.998  -8.292  1.00 12.50 LIG 0.16  HD
BRANCH 25 28
ATOM     28  CA  ALA B   1     -16.679 -23.698  -7.376  1.00 14.93 LIG 0.27  C 
ATOM     29  CB  ALA B   1     -16.445 -22.272  -6.894  1.00 16.58 LIG 0.05  C 
BRANCH 28 30
ATOM     30  N   ALA B   1     -17.755 -24.341  -6.572  1.00 16.58 LIG-0.07  N 
ATOM     31 H3   ALA B   1     -18.539 -24.226  -6.979  1.00 16.58 LIG 0.28  HD
ATOM     32 H1   ALA B   1     -17.587 -25.211  -6.493  1.00 16.58 LIG 0.28  HD
ATOM     33 H2   ALA B   1     -17.784 -23.970  -5.764  1.00 16.58 LIG 0.28  HD
ENDBRANCH 28 30
ENDBRANCH 25 28
ENDBRANCH 11 24
ENDBRANCH 8 11
ENDBRANCH 5 7
ENDBRANCH 1 5
BRANCH 3 34
ATOM     34  CA  GLU B   4     -11.282 -29.830 -11.585  1.00 20.15 LIG 0.18  C 
BRANCH 34 35
ATOM     35  C   GLU B   4     -12.492 -30.758 -11.510  1.00 19.92 LIG 0.24  C 
ATOM     36  N   VAL B   5     -12.703 -31.543 -12.561  1.00 19.46 LIG-0.35  N 
ATOM     37 H    VAL B   5     -12.205 -31.553 -13.262  1.00 19.46 LIG 0.16  HD
ATOM     38 O    GLU B   4     -13.215 -30.767 -10.513  1.00 20.03 LIG-0.27  OA
BRANCH 36 39
ATOM     39  CA  VAL B   5     -13.829 -32.473 -12.605  1.00 20.09 LIG 0.18  C 
BRANCH 39 40
ATOM     40  CB  VAL B   5     -13.488 -33.798 -11.883  1.00 20.49 LIG 0.01  C 
ATOM     41  CG2 VAL B   5     -13.106 -33.524 -10.438  1.00 19.70 LIG 0.01  C 
ATOM     42  CG1 VAL B   5     -12.355 -34.508 -12.603  1.00 21.00 LIG 0.01  C 
ENDBRANCH 39 40
BRANCH 39 43
ATOM     43  C   VAL B   5     -15.071 -31.876 -11.949  1.00 20.75 LIG 0.24  C 
ATOM     44  N   HIS B   6     -15.446 -30.672 -12.373  1.00 20.78 LIG-0.35  N 
ATOM     45 H    HIS B   6     -15.027 -30.220 -12.973  1.00 20.78 LIG 0.16  HD
ATOM     46 O    VAL B   5     -15.674 -32.491 -11.071  1.00 21.91 LIG-0.27  OA
BRANCH 44 47
ATOM     47  CA  HIS B   6     -16.630 -30.012 -11.833  1.00 21.28 LIG 0.17  C 
BRANCH 47 48
ATOM     48  C   HIS B   6     -17.405 -29.338 -12.959  1.00 23.03 LIG 0.22  C 
ATOM     49 O    HIS B   6     -17.516 -29.945 -14.046  1.00 25.39 LIG-0.29  OA
ENDBRANCH 47 48
BRANCH 47 50
ATOM     50  CB  HIS B   6     -16.244 -28.958 -10.790  1.00 19.33 LIG 0.09  C 
BRANCH 50 51
ATOM     51  CG  HIS B   6     -15.504 -27.788 -11.365  1.00 17.39 LIG 0.06  A 
ATOM     52  CD2 HIS B   6     -15.895 -26.514 -11.599  1.00 16.59 LIG 0.14  A 
ATOM     53 NE2  HIS B   6     -14.809 -25.842 -12.106  1.00 16.70 LIG-0.25  NA
ATOM     54  CE1 HIS B   6     -13.787 -26.676 -12.182  1.00 16.06 LIG 0.23  A 
ATOM     55 ND1  HIS B   6     -14.180 -27.858 -11.740  1.00 16.09 LIG-0.24  NA
ENDBRANCH 50 51
ENDBRANCH 47 50
ENDBRANCH 44 47
ENDBRANCH 39 43
ENDBRANCH 36 39
ENDBRANCH 34 35
BRANCH 34 56
ATOM     56  CB  GLU B   4     -10.008 -30.653 -11.382  1.00 22.38 LIG 0.04  C 
BRANCH 56 57
ATOM     57  CG  GLU B   4      -9.776 -31.728 -12.429  1.00 27.64 LIG 0.12  C 
BRANCH 57 58
ATOM     58  CD  GLU B   4      -9.317 -31.150 -13.753  1.00 30.78 LIG 0.17  C 
ATOM     59 OE2  GLU B   4      -8.759 -30.032 -13.757  1.00 32.62 LIG-0.65  OA
ATOM     60 OE1  GLU B   4      -9.516 -31.816 -14.792  1.00 32.75 LIG-0.65  OA
ENDBRANCH 57 58
ENDBRANCH 56 57
ENDBRANCH 34 56
ENDBRANCH 3 34
TORSDOF 22
ENDMDL
MODEL 103
USER: ADFR SOLUTION from run 62
USER: SCORE 15.222946 LL:  -5.484 LR: -13.256 RR:   0.000 FEB:  -6.694
USER: RMSD 4.848887
USER: SEED 61
USER: STATUS no improvement in best in 9 clusters for 5 generations
USER: GENES 24
USER: genes 0 Translation |==|  0.42293 0.43689 0.54987
USER: genes 1 Rotation |==|  0.37478 0.93656 0.29671 0.54901
USER: genes 2 Torsion [N]-C--CA-[N] |==|  0.67575
USER: genes 3 Torsion [C]-CA--N-[C] |==|  0.14383
USER: genes 4 Torsion [N]-C--CA-[N] |==|  0.39349
USER: genes 5 Torsion [C]-CA--CB-[CG] |==|  0.44722
USER: genes 6 Torsion [CA]-CB--CG-[CD] |==|  0.76585
USER: genes 7 Torsion [CB]-CG--CD-[NE] |==|  0.32467
USER: genes 8 Torsion [CG]-CD--NE-[CZ] |==|  0.60391
USER: genes 9 Torsion [C]-CA--N-[C] |==|  0.18408
USER: genes 10 Torsion [N]-C--CA-[N] |==|  0.27704
USER: genes 11 Torsion [C]-CA--N-[H2] |==|  0.66096
USER: genes 12 Torsion [C]-N--CA-[C] |==|  0.19140
USER: genes 13 Torsion [N]-CA--C-[N] |==|  0.52359
USER: genes 14 Torsion [C]-N--CA-[CB] |==|  0.80441
USER: genes 15 Torsion [N]-CA--CB-[CG2] |==|  0.95200
USER: genes 16 Torsion [N]-CA--C-[N] |==|  0.54444
USER: genes 17 Torsion [C]-N--CA-[C] |==|  0.77579
USER: genes 18 Torsion [N]-CA--C-[O] |==|  0.70099
USER: genes 19 Torsion [N]-CA--CB-[CG] |==|  0.09027
USER: genes 20 Torsion [CA]-CB--CG-[CD2] |==|  0.28817
USER: genes 21 Torsion [N]-CA--CB-[CG] |==|  0.73197
USER: genes 22 Torsion [CA]-CB--CG-[CD] |==|  0.35280
USER: genes 23 Torsion [CB]-CG--CD-[OE2] |==|  0.04038
ROOT
ATOM      1  C   ALA B   3     -16.523 -29.556  -3.961  1.00 17.17 LIG 0.24  C 
ATOM      2 O    ALA B   3     -15.906 -29.096  -3.000  1.00 18.54 LIG-0.27  OA
ATOM      3  N   GLU B   4     -16.484 -30.844  -4.295  1.00 17.89 LIG-0.35  N 
ATOM      4 H    GLU B   4     -16.910 -31.177  -4.964  1.00 17.89 LIG 0.16  HD
ENDROOT
BRANCH 1 5
ATOM      5  CA  ALA B   3     -17.384 -28.645  -4.835  1.00 15.99 LIG 0.17  C 
ATOM      6  CB  ALA B   3     -18.165 -29.477  -5.847  1.00 16.21 LIG 0.04  C 
BRANCH 5 7
ATOM      7  N   ALA B   3     -16.617 -27.617  -5.528  1.00 13.91 LIG-0.35  N 
ATOM      8  C   ARG B   2     -15.546 -27.922  -6.255  1.00 12.46 LIG 0.24  C 
ATOM      9 O    ARG B   2     -15.144 -29.076  -6.397  1.00 11.56 LIG-0.27  OA
ATOM     10 H    ALA B   3     -16.916 -26.818  -5.424  1.00 13.91 LIG 0.16  HD
BRANCH 8 11
ATOM     11  CA  ARG B   2     -14.813 -26.762  -6.921  1.00 12.24 LIG 0.18  C 
BRANCH 11 12
ATOM     12  CB  ARG B   2     -15.318 -26.589  -8.355  1.00 10.58 LIG 0.04  C 
BRANCH 12 13
ATOM     13  CG  ARG B   2     -15.024 -25.229  -8.974  1.00  9.71 LIG 0.02  C 
BRANCH 13 14
ATOM     14  CD  ARG B   2     -16.092 -24.224  -8.576  1.00  9.44 LIG 0.14  C 
BRANCH 14 15
ATOM     15  NE  ARG B   2     -15.549 -23.122  -7.783  1.00  9.23 LIG-0.23  N 
ATOM     16  CZ  ARG B   2     -16.179 -22.547  -6.765  1.00  9.20 LIG 0.67  C 
ATOM     17  NH1 ARG B   2     -17.386 -22.967  -6.409  1.00  7.63 LIG-0.23  N 
ATOM     18  NH2 ARG B   2     -15.602 -21.553  -6.102  1.00  9.31 LIG-0.23  N 
ATOM     19 1HH1 ARG B   2     -17.760 -23.611  -6.837  1.00  7.63 LIG 0.17  HD
ATOM     20 2HH1 ARG B   2     -17.794 -22.594  -5.750  1.00  7.63 LIG 0.17  HD
ATOM     21 2HH2 ARG B   2     -16.011 -21.182  -5.443  1.00  9.31 LIG 0.17  HD
ATOM     22 1HH2 ARG B   2     -14.819 -21.280  -6.330  1.00  9.31 LIG 0.17  HD
ATOM     23 HE   ARG B   2     -14.768 -22.826  -7.989  1.00  9.23 LIG 0.18  HD
ENDBRANCH 14 15
ENDBRANCH 13 14
ENDBRANCH 12 13
ENDBRANCH 11 12
BRANCH 11 24
ATOM     24  N   ARG B   2     -13.358 -26.869  -6.936  1.00 12.50 LIG-0.35  N 
ATOM     25  C   ALA B   1     -12.704 -27.798  -7.623  1.00 14.33 LIG 0.25  C 
ATOM     26 O    ALA B   1     -13.261 -28.629  -8.338  1.00 14.72 LIG-0.27  OA
ATOM     27 H    ARG B   2     -12.963 -26.273  -6.458  1.00 12.50 LIG 0.16  HD
BRANCH 25 28
ATOM     28  CA  ALA B   1     -11.185 -27.769  -7.487  1.00 14.93 LIG 0.27  C 
ATOM     29  CB  ALA B   1     -10.530 -27.996  -8.844  1.00 16.58 LIG 0.05  C 
BRANCH 28 30
ATOM     30  N   ALA B   1     -10.713 -28.792  -6.512  1.00 16.58 LIG-0.07  N 
ATOM     31 H3   ALA B   1     -11.414 -29.215  -6.163  1.00 16.58 LIG 0.28  HD
ATOM     32 H1   ALA B   1     -10.189 -29.378  -6.928  1.00 16.58 LIG 0.28  HD
ATOM     33 H2   ALA B   1     -10.255 -28.393  -5.862  1.00 16.58 LIG 0.28  HD
ENDBRANCH 28 30
ENDBRANCH 25 28
ENDBRANCH 11 24
ENDBRANCH 8 11
ENDBRANCH 5 7
ENDBRANCH 1 5
BRANCH 3 34
ATOM     34  CA  GLU B   4     -15.698 -31.818  -3.540  1.00 20.15 LIG 0.18  C 
BRANCH 34 35
ATOM     35  C   GLU B   4     -16.298 -32.044  -2.155  1.00 19.92 LIG 0.24  C 
ATOM     36  N   VAL B   5     -15.579 -32.775  -1.309  1.00 19.46 LIG-0.35  N 
ATOM     37 H    VAL B   5     -14.812 -33.116  -1.499  1.00 19.46 LIG 0.16  HD
ATOM     38 O    GLU B   4     -17.390 -31.558  -1.856  1.00 20.03 LIG-0.27  OA
BRANCH 36 39
ATOM     39  CA  VAL B   5     -16.049 -33.059   0.044  1.00 20.09 LIG 0.18  C 
BRANCH 39 40
ATOM     40  CB  VAL B   5     -16.018 -31.789   0.926  1.00 20.49 LIG 0.01  C 
ATOM     41  CG2 VAL B   5     -15.131 -30.732   0.291  1.00 19.70 LIG 0.01  C 
ATOM     42  CG1 VAL B   5     -15.517 -32.132   2.319  1.00 21.00 LIG 0.01  C 
ENDBRANCH 39 40
BRANCH 39 43
ATOM     43  C   VAL B   5     -17.476 -33.602   0.036  1.00 20.75 LIG 0.24  C 
ATOM     44  N   HIS B   6     -18.124 -33.587   1.197  1.00 20.78 LIG-0.35  N 
ATOM     45 H    HIS B   6     -17.784 -33.306   1.936  1.00 20.78 LIG 0.16  HD
ATOM     46 O    VAL B   5     -17.978 -34.032  -1.002  1.00 21.91 LIG-0.27  OA
BRANCH 44 47
ATOM     47  CA  HIS B   6     -19.500 -34.061   1.306  1.00 21.28 LIG 0.17  C 
BRANCH 47 48
ATOM     48  C   HIS B   6     -20.460 -32.973   0.839  1.00 23.03 LIG 0.22  C 
ATOM     49 O    HIS B   6     -21.142 -32.378   1.700  1.00 25.39 LIG-0.29  OA
ENDBRANCH 47 48
BRANCH 47 50
ATOM     50  CB  HIS B   6     -19.837 -34.441   2.751  1.00 19.33 LIG 0.09  C 
BRANCH 50 51
ATOM     51  CG  HIS B   6     -19.125 -33.608   3.772  1.00 17.39 LIG 0.06  A 
ATOM     52  CD2 HIS B   6     -19.558 -32.590   4.552  1.00 16.59 LIG 0.14  A 
ATOM     53 NE2  HIS B   6     -18.500 -32.202   5.339  1.00 16.70 LIG-0.25  NA
ATOM     54  CE1 HIS B   6     -17.454 -32.954   5.050  1.00 16.06 LIG 0.23  A 
ATOM     55 ND1  HIS B   6     -17.804 -33.811   4.107  1.00 16.09 LIG-0.24  NA
ENDBRANCH 50 51
ENDBRANCH 47 50
ENDBRANCH 44 47
ENDBRANCH 39 43
ENDBRANCH 36 39
ENDBRANCH 34 35
BRANCH 34 56
ATOM     56  CB  GLU B   4     -14.255 -31.329  -3.385  1.00 22.38 LIG 0.04  C 
BRANCH 56 57
ATOM     57  CG  GLU B   4     -13.285 -31.888  -4.410  1.00 27.64 LIG 0.12  C 
BRANCH 57 58
ATOM     58  CD  GLU B   4     -12.509 -30.798  -5.123  1.00 30.78 LIG 0.17  C 
ATOM     59 OE2  GLU B   4     -12.518 -29.645  -4.641  1.00 32.62 LIG-0.65  OA
ATOM     60 OE1  GLU B   4     -11.891 -31.095  -6.167  1.00 32.75 LIG-0.65  OA
ENDBRANCH 57 58
ENDBRANCH 56 57
ENDBRANCH 34 56
ENDBRANCH 3 34
TORSDOF 22
ENDMDL
MODEL 104
USER: ADFR SOLUTION from run 84
USER: SCORE 16.896303 LL:  -4.923 LR: -13.225 RR:   0.000 FEB:  -6.663
USER: RMSD 5.282162
USER: SEED 83
USER: STATUS no improvement in best in 12 clusters for 5 generations
USER: GENES 24
USER: genes 0 Translation |==|  0.37736 0.38378 0.53217
USER: genes 1 Rotation |==|  0.49008 0.28225 0.61539 0.93494
USER: genes 2 Torsion [N]-C--CA-[N] |==|  0.38953
USER: genes 3 Torsion [C]-CA--N-[C] |==|  0.49656
USER: genes 4 Torsion [N]-C--CA-[N] |==|  0.99677
USER: genes 5 Torsion [C]-CA--CB-[CG] |==|  0.40312
USER: genes 6 Torsion [CA]-CB--CG-[CD] |==|  0.84347
USER: genes 7 Torsion [CB]-CG--CD-[NE] |==|  0.74265
USER: genes 8 Torsion [CG]-CD--NE-[CZ] |==|  0.28794
USER: genes 9 Torsion [C]-CA--N-[C] |==|  0.66781
USER: genes 10 Torsion [N]-C--CA-[N] |==|  0.47868
USER: genes 11 Torsion [C]-CA--N-[H2] |==|  0.69828
USER: genes 12 Torsion [C]-N--CA-[C] |==|  0.77166
USER: genes 13 Torsion [N]-CA--C-[N] |==|  0.96204
USER: genes 14 Torsion [C]-N--CA-[CB] |==|  0.88562
USER: genes 15 Torsion [N]-CA--CB-[CG2] |==|  0.76273
USER: genes 16 Torsion [N]-CA--C-[N] |==|  0.89988
USER: genes 17 Torsion [C]-N--CA-[C] |==|  0.69921
USER: genes 18 Torsion [N]-CA--C-[O] |==|  0.94897
USER: genes 19 Torsion [N]-CA--CB-[CG] |==|  0.08379
USER: genes 20 Torsion [CA]-CB--CG-[CD2] |==|  0.65766
USER: genes 21 Torsion [N]-CA--CB-[CG] |==|  0.73538
USER: genes 22 Torsion [CA]-CB--CG-[CD] |==|  0.25392
USER: genes 23 Torsion [CB]-CG--CD-[OE2] |==|  0.35620
ROOT
ATOM      1  C   ALA B   3     -17.343 -30.791  -4.346  1.00 17.17 LIG 0.24  C 
ATOM      2 O    ALA B   3     -16.917 -31.608  -5.164  1.00 18.54 LIG-0.27  OA
ATOM      3  N   GLU B   4     -17.678 -31.123  -3.102  1.00 17.89 LIG-0.35  N 
ATOM      4 H    GLU B   4     -17.976 -30.562  -2.522  1.00 17.89 LIG 0.16  HD
ENDROOT
BRANCH 1 5
ATOM      5  CA  ALA B   3     -17.512 -29.323  -4.736  1.00 15.99 LIG 0.17  C 
ATOM      6  CB  ALA B   3     -18.847 -29.120  -5.445  1.00 16.21 LIG 0.04  C 
BRANCH 5 7
ATOM      7  N   ALA B   3     -16.427 -28.820  -5.571  1.00 13.91 LIG-0.35  N 
ATOM      8  C   ARG B   2     -16.422 -27.570  -6.024  1.00 12.46 LIG 0.24  C 
ATOM      9 O    ARG B   2     -17.314 -26.763  -5.763  1.00 11.56 LIG-0.27  OA
ATOM     10 H    ALA B   3     -15.810 -29.395  -5.737  1.00 13.91 LIG 0.16  HD
BRANCH 8 11
ATOM     11  CA  ARG B   2     -15.244 -27.161  -6.902  1.00 12.24 LIG 0.18  C 
BRANCH 11 12
ATOM     12  CB  ARG B   2     -15.758 -26.668  -8.257  1.00 10.58 LIG 0.04  C 
BRANCH 12 13
ATOM     13  CG  ARG B   2     -14.947 -25.535  -8.871  1.00  9.71 LIG 0.02  C 
BRANCH 13 14
ATOM     14  CD  ARG B   2     -14.871 -24.358  -7.911  1.00  9.44 LIG 0.14  C 
BRANCH 14 15
ATOM     15  NE  ARG B   2     -15.936 -23.384  -8.143  1.00  9.23 LIG-0.23  N 
ATOM     16  CZ  ARG B   2     -17.017 -23.257  -7.382  1.00  9.20 LIG 0.67  C 
ATOM     17  NH1 ARG B   2     -17.185 -24.048  -6.330  1.00  7.63 LIG-0.23  N 
ATOM     18  NH2 ARG B   2     -17.930 -22.339  -7.671  1.00  9.31 LIG-0.23  N 
ATOM     19 1HH1 ARG B   2     -16.593 -24.642  -6.141  1.00  7.63 LIG 0.17  HD
ATOM     20 2HH1 ARG B   2     -17.885 -23.965  -5.837  1.00  7.63 LIG 0.17  HD
ATOM     21 2HH2 ARG B   2     -18.630 -22.258  -7.177  1.00  9.31 LIG 0.17  HD
ATOM     22 1HH2 ARG B   2     -17.823 -21.825  -8.352  1.00  9.31 LIG 0.17  HD
ATOM     23 HE   ARG B   2     -15.858 -22.857  -8.818  1.00  9.23 LIG 0.18  HD
ENDBRANCH 14 15
ENDBRANCH 13 14
ENDBRANCH 12 13
ENDBRANCH 11 12
BRANCH 11 24
ATOM     24  N   ARG B   2     -14.240 -28.197  -7.121  1.00 12.50 LIG-0.35  N 
ATOM     25  C   ALA B   1     -12.969 -28.067  -6.757  1.00 14.33 LIG 0.25  C 
ATOM     26 O    ALA B   1     -12.531 -27.079  -6.171  1.00 14.72 LIG-0.27  OA
ATOM     27 H    ARG B   2     -14.548 -28.901  -7.507  1.00 12.50 LIG 0.16  HD
BRANCH 25 28
ATOM     28  CA  ALA B   1     -12.063 -29.245  -7.101  1.00 14.93 LIG 0.27  C 
ATOM     29  CB  ALA B   1     -12.487 -30.482  -6.317  1.00 16.58 LIG 0.05  C 
BRANCH 28 30
ATOM     30  N   ALA B   1     -10.636 -28.925  -6.820  1.00 16.58 LIG-0.07  N 
ATOM     31 H3   ALA B   1     -10.588 -28.169  -6.352  1.00 16.58 LIG 0.28  HD
ATOM     32 H1   ALA B   1     -10.270 -29.588  -6.353  1.00 16.58 LIG 0.28  HD
ATOM     33 H2   ALA B   1     -10.197 -28.826  -7.587  1.00 16.58 LIG 0.28  HD
ENDBRANCH 28 30
ENDBRANCH 25 28
ENDBRANCH 11 24
ENDBRANCH 8 11
ENDBRANCH 5 7
ENDBRANCH 1 5
BRANCH 3 34
ATOM     34  CA  GLU B   4     -17.563 -32.493  -2.606  1.00 20.15 LIG 0.18  C 
BRANCH 34 35
ATOM     35  C   GLU B   4     -18.775 -33.325  -3.020  1.00 19.92 LIG 0.24  C 
ATOM     36  N   VAL B   5     -19.824 -32.653  -3.482  1.00 19.46 LIG-0.35  N 
ATOM     37 H    VAL B   5     -19.853 -31.797  -3.558  1.00 19.46 LIG 0.16  HD
ATOM     38 O    GLU B   4     -18.754 -34.552  -2.929  1.00 20.03 LIG-0.27  OA
BRANCH 36 39
ATOM     39  CA  VAL B   5     -21.041 -33.339  -3.908  1.00 20.09 LIG 0.18  C 
BRANCH 39 40
ATOM     40  CB  VAL B   5     -20.709 -34.624  -4.705  1.00 20.49 LIG 0.01  C 
ATOM     41  CG2 VAL B   5     -20.485 -34.288  -6.169  1.00 19.70 LIG 0.01  C 
ATOM     42  CG1 VAL B   5     -21.836 -35.632  -4.560  1.00 21.00 LIG 0.01  C 
ENDBRANCH 39 40
BRANCH 39 43
ATOM     43  C   VAL B   5     -21.910 -33.727  -2.715  1.00 20.75 LIG 0.24  C 
ATOM     44  N   HIS B   6     -21.269 -34.103  -1.611  1.00 20.78 LIG-0.35  N 
ATOM     45 H    HIS B   6     -20.413 -34.149  -1.542  1.00 20.78 LIG 0.16  HD
ATOM     46 O    VAL B   5     -23.137 -33.693  -2.795  1.00 21.91 LIG-0.27  OA
BRANCH 44 47
ATOM     47  CA  HIS B   6     -21.995 -34.475  -0.401  1.00 21.28 LIG 0.17  C 
BRANCH 47 48
ATOM     48  C   HIS B   6     -21.826 -33.392   0.658  1.00 23.03 LIG 0.22  C 
ATOM     49 O    HIS B   6     -20.884 -32.582   0.529  1.00 25.39 LIG-0.29  OA
ENDBRANCH 47 48
BRANCH 47 50
ATOM     50  CB  HIS B   6     -21.484 -35.807   0.157  1.00 19.33 LIG 0.09  C 
BRANCH 50 51
ATOM     51  CG  HIS B   6     -20.036 -36.061  -0.129  1.00 17.39 LIG 0.06  A 
ATOM     52  CD2 HIS B   6     -19.418 -37.088  -0.760  1.00 16.59 LIG 0.14  A 
ATOM     53 NE2  HIS B   6     -18.074 -36.803  -0.779  1.00 16.70 LIG-0.25  NA
ATOM     54  CE1 HIS B   6     -17.873 -35.644  -0.180  1.00 16.06 LIG 0.23  A 
ATOM     55 ND1  HIS B   6     -19.042 -35.174   0.222  1.00 16.09 LIG-0.24  NA
ENDBRANCH 50 51
ENDBRANCH 47 50
ENDBRANCH 44 47
ENDBRANCH 39 43
ENDBRANCH 36 39
ENDBRANCH 34 35
BRANCH 34 56
ATOM     56  CB  GLU B   4     -17.451 -32.497  -1.079  1.00 22.38 LIG 0.04  C 
BRANCH 56 57
ATOM     57  CG  GLU B   4     -16.029 -32.546  -0.550  1.00 27.64 LIG 0.12  C 
BRANCH 57 58
ATOM     58  CD  GLU B   4     -15.455 -31.162  -0.317  1.00 30.78 LIG 0.17  C 
ATOM     59 OE2  GLU B   4     -14.947 -30.905   0.796  1.00 32.62 LIG-0.65  OA
ATOM     60 OE1  GLU B   4     -15.511 -30.331  -1.248  1.00 32.75 LIG-0.65  OA
ENDBRANCH 57 58
ENDBRANCH 56 57
ENDBRANCH 34 56
ENDBRANCH 3 34
TORSDOF 22
ENDMDL
MODEL 105
USER: ADFR SOLUTION from run 20
USER: SCORE 16.442202 LL:  -4.170 LR: -13.228 RR:   0.000 FEB:  -6.665
USER: RMSD 5.605401
USER: SEED 19
USER: STATUS searching
USER: GENES 24
USER: genes 0 Translation |==|  0.34540 0.38968 0.48387
USER: genes 1 Rotation |==|  0.43654 0.03274 0.52436 0.66446
USER: genes 2 Torsion [N]-C--CA-[N] |==|  0.80760
USER: genes 3 Torsion [C]-CA--N-[C] |==|  0.63964
USER: genes 4 Torsion [N]-C--CA-[N] |==|  0.35631
USER: genes 5 Torsion [C]-CA--CB-[CG] |==|  0.75753
USER: genes 6 Torsion [CA]-CB--CG-[CD] |==|  0.28275
USER: genes 7 Torsion [CB]-CG--CD-[NE] |==|  0.65458
USER: genes 8 Torsion [CG]-CD--NE-[CZ] |==|  0.54884
USER: genes 9 Torsion [C]-CA--N-[C] |==|  0.86258
USER: genes 10 Torsion [N]-C--CA-[N] |==|  0.29003
USER: genes 11 Torsion [C]-CA--N-[H2] |==|  0.48924
USER: genes 12 Torsion [C]-N--CA-[C] |==|  0.16667
USER: genes 13 Torsion [N]-CA--C-[N] |==|  0.10554
USER: genes 14 Torsion [C]-N--CA-[CB] |==|  0.86097
USER: genes 15 Torsion [N]-CA--CB-[CG2] |==|  0.84425
USER: genes 16 Torsion [N]-CA--C-[N] |==|  0.34482
USER: genes 17 Torsion [C]-N--CA-[C] |==|  0.18089
USER: genes 18 Torsion [N]-CA--C-[O] |==|  0.12705
USER: genes 19 Torsion [N]-CA--CB-[CG] |==|  0.84926
USER: genes 20 Torsion [CA]-CB--CG-[CD2] |==|  0.45811
USER: genes 21 Torsion [N]-CA--CB-[CG] |==|  0.61199
USER: genes 22 Torsion [CA]-CB--CG-[CD] |==|  0.96044
USER: genes 23 Torsion [CB]-CG--CD-[OE2] |==|  0.73032
ROOT
ATOM      1  C   ALA B   3     -17.919 -30.654  -5.397  1.00 17.17 LIG 0.24  C 
ATOM      2 O    ALA B   3     -17.072 -31.521  -5.174  1.00 18.54 LIG-0.27  OA
ATOM      3  N   GLU B   4     -19.159 -30.939  -5.786  1.00 17.89 LIG-0.35  N 
ATOM      4 H    GLU B   4     -19.758 -30.343  -5.945  1.00 17.89 LIG 0.16  HD
ENDROOT
BRANCH 1 5
ATOM      5  CA  ALA B   3     -17.572 -29.175  -5.232  1.00 15.99 LIG 0.17  C 
ATOM      6  CB  ALA B   3     -18.573 -28.505  -4.296  1.00 16.21 LIG 0.04  C 
BRANCH 5 7
ATOM      7  N   ALA B   3     -17.517 -28.451  -6.496  1.00 13.91 LIG-0.35  N 
ATOM      8  C   ARG B   2     -16.476 -27.688  -6.816  1.00 12.46 LIG 0.24  C 
ATOM      9 O    ARG B   2     -15.499 -27.552  -6.079  1.00 11.56 LIG-0.27  OA
ATOM     10 H    ALA B   3     -18.205 -28.563  -7.001  1.00 13.91 LIG 0.16  HD
BRANCH 8 11
ATOM     11  CA  ARG B   2     -16.538 -26.966  -8.158  1.00 12.24 LIG 0.18  C 
BRANCH 11 12
ATOM     12  CB  ARG B   2     -15.557 -27.614  -9.137  1.00 10.58 LIG 0.04  C 
BRANCH 12 13
ATOM     13  CG  ARG B   2     -14.140 -27.060  -9.078  1.00  9.71 LIG 0.02  C 
BRANCH 13 14
ATOM     14  CD  ARG B   2     -13.234 -28.004  -8.305  1.00  9.44 LIG 0.14  C 
BRANCH 14 15
ATOM     15  NE  ARG B   2     -12.563 -27.339  -7.189  1.00  9.23 LIG-0.23  N 
ATOM     16  CZ  ARG B   2     -11.491 -27.813  -6.567  1.00  9.20 LIG 0.67  C 
ATOM     17  NH1 ARG B   2     -10.956 -28.966  -6.949  1.00  7.63 LIG-0.23  N 
ATOM     18  NH2 ARG B   2     -10.949 -27.134  -5.563  1.00  9.31 LIG-0.23  N 
ATOM     19 1HH1 ARG B   2     -11.305 -29.406  -7.600  1.00  7.63 LIG 0.17  HD
ATOM     20 2HH1 ARG B   2     -10.261 -29.272  -6.546  1.00  7.63 LIG 0.17  HD
ATOM     21 2HH2 ARG B   2     -10.254 -27.442  -5.161  1.00  9.31 LIG 0.17  HD
ATOM     22 1HH2 ARG B   2     -11.293 -26.387  -5.314  1.00  9.31 LIG 0.17  HD
ATOM     23 HE   ARG B   2     -12.886 -26.590  -6.916  1.00  9.23 LIG 0.18  HD
ENDBRANCH 14 15
ENDBRANCH 13 14
ENDBRANCH 12 13
ENDBRANCH 11 12
BRANCH 11 24
ATOM     24  N   ARG B   2     -16.284 -25.530  -8.106  1.00 12.50 LIG-0.35  N 
ATOM     25  C   ALA B   1     -16.889 -24.714  -7.252  1.00 14.33 LIG 0.25  C 
ATOM     26 O    ALA B   1     -17.691 -25.098  -6.402  1.00 14.72 LIG-0.27  OA
ATOM     27 H    ARG B   2     -15.704 -25.261  -8.682  1.00 12.50 LIG 0.16  HD
BRANCH 25 28
ATOM     28  CA  ALA B   1     -16.517 -23.240  -7.373  1.00 14.93 LIG 0.27  C 
ATOM     29  CB  ALA B   1     -16.221 -22.656  -5.997  1.00 16.58 LIG 0.05  C 
BRANCH 28 30
ATOM     30  N   ALA B   1     -17.601 -22.464  -8.037  1.00 16.58 LIG-0.07  N 
ATOM     31 H3   ALA B   1     -17.703 -22.753  -8.873  1.00 16.58 LIG 0.28  HD
ATOM     32 H1   ALA B   1     -18.362 -22.576  -7.590  1.00 16.58 LIG 0.28  HD
ATOM     33 H2   ALA B   1     -17.386 -21.601  -8.046  1.00 16.58 LIG 0.28  HD
ENDBRANCH 28 30
ENDBRANCH 25 28
ENDBRANCH 11 24
ENDBRANCH 8 11
ENDBRANCH 5 7
ENDBRANCH 1 5
BRANCH 3 34
ATOM     34  CA  GLU B   4     -19.615 -32.314  -5.979  1.00 20.15 LIG 0.18  C 
BRANCH 34 35
ATOM     35  C   GLU B   4     -19.500 -33.113  -4.683  1.00 19.92 LIG 0.24  C 
ATOM     36  N   VAL B   5     -19.795 -32.467  -3.560  1.00 19.46 LIG-0.35  N 
ATOM     37 H    VAL B   5     -20.041 -31.643  -3.529  1.00 19.46 LIG 0.16  HD
ATOM     38 O    GLU B   4     -19.158 -34.295  -4.703  1.00 20.03 LIG-0.27  OA
BRANCH 36 39
ATOM     39  CA  VAL B   5     -19.721 -33.125  -2.259  1.00 20.09 LIG 0.18  C 
BRANCH 39 40
ATOM     40  CB  VAL B   5     -20.479 -34.474  -2.271  1.00 20.49 LIG 0.01  C 
ATOM     41  CG2 VAL B   5     -21.920 -34.260  -2.701  1.00 19.70 LIG 0.01  C 
ATOM     42  CG1 VAL B   5     -20.428 -35.113  -0.894  1.00 21.00 LIG 0.01  C 
ENDBRANCH 39 40
BRANCH 39 43
ATOM     43  C   VAL B   5     -18.274 -33.393  -1.851  1.00 20.75 LIG 0.24  C 
ATOM     44  N   HIS B   6     -17.886 -32.896  -0.679  1.00 20.78 LIG-0.35  N 
ATOM     45 H    HIS B   6     -18.392 -32.433  -0.160  1.00 20.78 LIG 0.16  HD
ATOM     46 O    VAL B   5     -17.523 -34.031  -2.586  1.00 21.91 LIG-0.27  OA
BRANCH 44 47
ATOM     47  CA  HIS B   6     -16.533 -33.107  -0.177  1.00 21.28 LIG 0.17  C 
BRANCH 47 48
ATOM     48  C   HIS B   6     -15.528 -32.408  -1.085  1.00 23.03 LIG 0.22  C 
ATOM     49 O    HIS B   6     -15.774 -31.238  -1.449  1.00 25.39 LIG-0.29  OA
ENDBRANCH 47 48
BRANCH 47 50
ATOM     50  CB  HIS B   6     -16.197 -34.600  -0.113  1.00 19.33 LIG 0.09  C 
BRANCH 50 51
ATOM     51  CG  HIS B   6     -17.189 -35.405   0.671  1.00 17.39 LIG 0.06  A 
ATOM     52  CD2 HIS B   6     -17.401 -36.740   0.737  1.00 16.59 LIG 0.14  A 
ATOM     53 NE2  HIS B   6     -18.416 -36.946   1.641  1.00 16.70 LIG-0.25  NA
ATOM     54  CE1 HIS B   6     -18.815 -35.778   2.111  1.00 16.06 LIG 0.23  A 
ATOM     55 ND1  HIS B   6     -18.090 -34.830   1.542  1.00 16.09 LIG-0.24  NA
ENDBRANCH 50 51
ENDBRANCH 47 50
ENDBRANCH 44 47
ENDBRANCH 39 43
ENDBRANCH 36 39
ENDBRANCH 34 35
BRANCH 34 56
ATOM     56  CB  GLU B   4     -18.783 -33.000  -7.065  1.00 22.38 LIG 0.04  C 
BRANCH 56 57
ATOM     57  CG  GLU B   4     -19.579 -33.886  -8.007  1.00 27.64 LIG 0.12  C 
BRANCH 57 58
ATOM     58  CD  GLU B   4     -20.969 -34.183  -7.478  1.00 30.78 LIG 0.17  C 
ATOM     59 OE2  GLU B   4     -21.161 -35.258  -6.872  1.00 32.62 LIG-0.65  OA
ATOM     60 OE1  GLU B   4     -21.871 -33.339  -7.670  1.00 32.75 LIG-0.65  OA
ENDBRANCH 57 58
ENDBRANCH 56 57
ENDBRANCH 34 56
ENDBRANCH 3 34
TORSDOF 22
ENDMDL
MODEL 106
USER: ADFR SOLUTION from run 177
USER: SCORE 16.233195 LL:  -4.446 LR: -13.218 RR:   0.000 FEB:  -6.656
USER: RMSD 7.665429
USER: SEED 176
USER: STATUS no improvement in best in 10 clusters for 5 generations
USER: GENES 24
USER: genes 0 Translation |==|  0.68483 0.49536 0.25431
USER: genes 1 Rotation |==|  0.44737 0.00314 0.48561 0.51237
USER: genes 2 Torsion [N]-C--CA-[N] |==|  0.28987
USER: genes 3 Torsion [C]-CA--N-[C] |==|  0.73203
USER: genes 4 Torsion [N]-C--CA-[N] |==|  0.40558
USER: genes 5 Torsion [C]-CA--CB-[CG] |==|  0.08072
USER: genes 6 Torsion [CA]-CB--CG-[CD] |==|  0.24895
USER: genes 7 Torsion [CB]-CG--CD-[NE] |==|  0.87084
USER: genes 8 Torsion [CG]-CD--NE-[CZ] |==|  0.62730
USER: genes 9 Torsion [C]-CA--N-[C] |==|  0.65191
USER: genes 10 Torsion [N]-C--CA-[N] |==|  0.05064
USER: genes 11 Torsion [C]-CA--N-[H2] |==|  0.01421
USER: genes 12 Torsion [C]-N--CA-[C] |==|  0.15530
USER: genes 13 Torsion [N]-CA--C-[N] |==|  0.62325
USER: genes 14 Torsion [C]-N--CA-[CB] |==|  0.76100
USER: genes 15 Torsion [N]-CA--CB-[CG2] |==|  0.16462
USER: genes 16 Torsion [N]-CA--C-[N] |==|  0.14707
USER: genes 17 Torsion [C]-N--CA-[C] |==|  0.59430
USER: genes 18 Torsion [N]-CA--C-[O] |==|  0.00461
USER: genes 19 Torsion [N]-CA--CB-[CG] |==|  0.19026
USER: genes 20 Torsion [CA]-CB--CG-[CD2] |==|  0.35520
USER: genes 21 Torsion [N]-CA--CB-[CG] |==|  0.65803
USER: genes 22 Torsion [CA]-CB--CG-[CD] |==|  0.48838
USER: genes 23 Torsion [CB]-CG--CD-[OE2] |==|  0.38473
ROOT
ATOM      1  C   ALA B   3     -11.809 -28.197 -10.390  1.00 17.17 LIG 0.24  C 
ATOM      2 O    ALA B   3     -11.209 -29.076  -9.771  1.00 18.54 LIG-0.27  OA
ATOM      3  N   GLU B   4     -12.559 -28.450 -11.459  1.00 17.89 LIG-0.35  N 
ATOM      4 H    GLU B   4     -12.983 -27.845 -11.900  1.00 17.89 LIG 0.16  HD
ENDROOT
BRANCH 1 5
ATOM      5  CA  ALA B   3     -11.716 -26.738  -9.944  1.00 15.99 LIG 0.17  C 
ATOM      6  CB  ALA B   3     -10.260 -26.361  -9.691  1.00 16.21 LIG 0.04  C 
BRANCH 5 7
ATOM      7  N   ALA B   3     -12.516 -26.444  -8.761  1.00 13.91 LIG-0.35  N 
ATOM      8  C   ARG B   2     -13.737 -25.926  -8.859  1.00 12.46 LIG 0.24  C 
ATOM      9 O    ARG B   2     -14.268 -25.673  -9.940  1.00 11.56 LIG-0.27  OA
ATOM     10 H    ALA B   3     -12.132 -26.633  -8.015  1.00 13.91 LIG 0.16  HD
BRANCH 8 11
ATOM     11  CA  ARG B   2     -14.472 -25.646  -7.552  1.00 12.24 LIG 0.18  C 
BRANCH 11 12
ATOM     12  CB  ARG B   2     -15.288 -26.875  -7.146  1.00 10.58 LIG 0.04  C 
BRANCH 12 13
ATOM     13  CG  ARG B   2     -14.714 -28.204  -7.617  1.00  9.71 LIG 0.02  C 
BRANCH 13 14
ATOM     14  CD  ARG B   2     -13.755 -28.764  -6.579  1.00  9.44 LIG 0.14  C 
BRANCH 14 15
ATOM     15  NE  ARG B   2     -12.818 -27.754  -6.089  1.00  9.23 LIG-0.23  N 
ATOM     16  CZ  ARG B   2     -11.512 -27.946  -5.949  1.00  9.20 LIG 0.67  C 
ATOM     17  NH1 ARG B   2     -10.975 -29.119  -6.262  1.00  7.63 LIG-0.23  N 
ATOM     18  NH2 ARG B   2     -10.739 -26.966  -5.498  1.00  9.31 LIG-0.23  N 
ATOM     19 1HH1 ARG B   2     -11.474 -29.755  -6.556  1.00  7.63 LIG 0.17  HD
ATOM     20 2HH1 ARG B   2     -10.130 -29.243  -6.172  1.00  7.63 LIG 0.17  HD
ATOM     21 2HH2 ARG B   2      -9.893 -27.092  -5.408  1.00  9.31 LIG 0.17  HD
ATOM     22 1HH2 ARG B   2     -11.084 -26.205  -5.295  1.00  9.31 LIG 0.17  HD
ATOM     23 HE   ARG B   2     -13.134 -26.983  -5.876  1.00  9.23 LIG 0.18  HD
ENDBRANCH 14 15
ENDBRANCH 13 14
ENDBRANCH 12 13
ENDBRANCH 11 12
BRANCH 11 24
ATOM     24  N   ARG B   2     -15.344 -24.476  -7.566  1.00 12.50 LIG-0.35  N 
ATOM     25  C   ALA B   1     -15.249 -23.488  -6.684  1.00 14.33 LIG 0.25  C 
ATOM     26 O    ALA B   1     -14.396 -23.449  -5.799  1.00 14.72 LIG-0.27  OA
ATOM     27 H    ARG B   2     -15.925 -24.486  -8.199  1.00 12.50 LIG 0.16  HD
BRANCH 25 28
ATOM     28  CA  ALA B   1     -16.272 -22.367  -6.840  1.00 14.93 LIG 0.27  C 
ATOM     29  CB  ALA B   1     -16.751 -21.896  -5.472  1.00 16.58 LIG 0.05  C 
BRANCH 28 30
ATOM     30  N   ALA B   1     -17.431 -22.807  -7.665  1.00 16.58 LIG-0.07  N 
ATOM     31 H3   ALA B   1     -18.186 -22.675  -7.212  1.00 16.58 LIG 0.28  HD
ATOM     32 H1   ALA B   1     -17.452 -22.338  -8.421  1.00 16.58 LIG 0.28  HD
ATOM     33 H2   ALA B   1     -17.348 -23.672  -7.855  1.00 16.58 LIG 0.28  HD
ENDBRANCH 28 30
ENDBRANCH 25 28
ENDBRANCH 11 24
ENDBRANCH 8 11
ENDBRANCH 5 7
ENDBRANCH 1 5
BRANCH 3 34
ATOM     34  CA  GLU B   4     -12.729 -29.803 -11.985  1.00 20.15 LIG 0.18  C 
BRANCH 34 35
ATOM     35  C   GLU B   4     -13.261 -30.743 -10.906  1.00 19.92 LIG 0.24  C 
ATOM     36  N   VAL B   5     -12.681 -31.936 -10.820  1.00 19.46 LIG-0.35  N 
ATOM     37 H    VAL B   5     -12.038 -32.196 -11.329  1.00 19.46 LIG 0.16  HD
ATOM     38 O    GLU B   4     -14.174 -30.390 -10.160  1.00 20.03 LIG-0.27  OA
BRANCH 36 39
ATOM     39  CA  VAL B   5     -13.103 -32.920  -9.828  1.00 20.09 LIG 0.18  C 
BRANCH 39 40
ATOM     40  CB  VAL B   5     -12.377 -32.701  -8.479  1.00 20.49 LIG 0.01  C 
ATOM     41  CG2 VAL B   5     -12.672 -31.310  -7.946  1.00 19.70 LIG 0.01  C 
ATOM     42  CG1 VAL B   5     -10.881 -32.894  -8.654  1.00 21.00 LIG 0.01  C 
ENDBRANCH 39 40
BRANCH 39 43
ATOM     43  C   VAL B   5     -14.607 -32.851  -9.579  1.00 20.75 LIG 0.24  C 
ATOM     44  N   HIS B   6     -15.391 -32.928 -10.651  1.00 20.78 LIG-0.35  N 
ATOM     45 H    HIS B   6     -15.100 -33.000 -11.457  1.00 20.78 LIG 0.16  HD
ATOM     46 O    VAL B   5     -15.049 -32.723  -8.438  1.00 21.91 LIG-0.27  OA
BRANCH 44 47
ATOM     47  CA  HIS B   6     -16.845 -32.893 -10.533  1.00 21.28 LIG 0.17  C 
BRANCH 47 48
ATOM     48  C   HIS B   6     -17.472 -33.776 -11.606  1.00 23.03 LIG 0.22  C 
ATOM     49 O    HIS B   6     -16.712 -34.401 -12.376  1.00 25.39 LIG-0.29  OA
ENDBRANCH 47 48
BRANCH 47 50
ATOM     50  CB  HIS B   6     -17.374 -31.464 -10.686  1.00 19.33 LIG 0.09  C 
BRANCH 50 51
ATOM     51  CG  HIS B   6     -17.218 -30.912 -12.070  1.00 17.39 LIG 0.06  A 
ATOM     52  CD2 HIS B   6     -18.113 -30.337 -12.908  1.00 16.59 LIG 0.14  A 
ATOM     53 NE2  HIS B   6     -17.431 -29.977 -14.046  1.00 16.70 LIG-0.25  NA
ATOM     54  CE1 HIS B   6     -16.163 -30.322 -13.912  1.00 16.06 LIG 0.23  A 
ATOM     55 ND1  HIS B   6     -16.008 -30.888 -12.729  1.00 16.09 LIG-0.24  NA
ENDBRANCH 50 51
ENDBRANCH 47 50
ENDBRANCH 44 47
ENDBRANCH 39 43
ENDBRANCH 36 39
ENDBRANCH 34 35
BRANCH 34 56
ATOM     56  CB  GLU B   4     -11.393 -30.342 -12.503  1.00 22.38 LIG 0.04  C 
BRANCH 56 57
ATOM     57  CG  GLU B   4     -11.409 -30.775 -13.958  1.00 27.64 LIG 0.12  C 
BRANCH 57 58
ATOM     58  CD  GLU B   4     -10.038 -31.204 -14.445  1.00 30.78 LIG 0.17  C 
ATOM     59 OE2  GLU B   4      -9.951 -32.214 -15.175  1.00 32.62 LIG-0.65  OA
ATOM     60 OE1  GLU B   4      -9.046 -30.528 -14.096  1.00 32.75 LIG-0.65  OA
ENDBRANCH 57 58
ENDBRANCH 56 57
ENDBRANCH 34 56
ENDBRANCH 3 34
TORSDOF 22
ENDMDL
MODEL 107
USER: ADFR SOLUTION from run 116
USER: SCORE 17.170993 LL:  -5.141 LR: -13.217 RR:   0.000 FEB:  -6.654
USER: RMSD 8.190525
USER: SEED 115
USER: STATUS searching
USER: GENES 24
USER: genes 0 Translation |==|  0.39593 0.48306 0.40659
USER: genes 1 Rotation |==|  0.73643 0.89701 0.61558 0.65207
USER: genes 2 Torsion [N]-C--CA-[N] |==|  0.07625
USER: genes 3 Torsion [C]-CA--N-[C] |==|  0.17877
USER: genes 4 Torsion [N]-C--CA-[N] |==|  0.85261
USER: genes 5 Torsion [C]-CA--CB-[CG] |==|  0.76533
USER: genes 6 Torsion [CA]-CB--CG-[CD] |==|  0.30169
USER: genes 7 Torsion [CB]-CG--CD-[NE] |==|  0.53236
USER: genes 8 Torsion [CG]-CD--NE-[CZ] |==|  0.70209
USER: genes 9 Torsion [C]-CA--N-[C] |==|  0.66377
USER: genes 10 Torsion [N]-C--CA-[N] |==|  0.16107
USER: genes 11 Torsion [C]-CA--N-[H2] |==|  0.11129
USER: genes 12 Torsion [C]-N--CA-[C] |==|  0.82136
USER: genes 13 Torsion [N]-CA--C-[N] |==|  0.43229
USER: genes 14 Torsion [C]-N--CA-[CB] |==|  0.22690
USER: genes 15 Torsion [N]-CA--CB-[CG2] |==|  0.56075
USER: genes 16 Torsion [N]-CA--C-[N] |==|  0.02962
USER: genes 17 Torsion [C]-N--CA-[C] |==|  0.78410
USER: genes 18 Torsion [N]-CA--C-[O] |==|  0.98866
USER: genes 19 Torsion [N]-CA--CB-[CG] |==|  0.76859
USER: genes 20 Torsion [CA]-CB--CG-[CD2] |==|  0.90365
USER: genes 21 Torsion [N]-CA--CB-[CG] |==|  0.28626
USER: genes 22 Torsion [CA]-CB--CG-[CD] |==|  0.69902
USER: genes 23 Torsion [CB]-CG--CD-[OE2] |==|  0.85204
ROOT
ATOM      1  C   ALA B   3     -17.009 -28.483  -7.078  1.00 17.17 LIG 0.24  C 
ATOM      2 O    ALA B   3     -17.656 -29.506  -6.847  1.00 18.54 LIG-0.27  OA
ATOM      3  N   GLU B   4     -16.759 -28.049  -8.311  1.00 17.89 LIG-0.35  N 
ATOM      4 H    GLU B   4     -16.309 -27.337  -8.484  1.00 17.89 LIG 0.16  HD
ENDROOT
BRANCH 1 5
ATOM      5  CA  ALA B   3     -16.452 -27.646  -5.927  1.00 15.99 LIG 0.17  C 
ATOM      6  CB  ALA B   3     -17.344 -27.786  -4.698  1.00 16.21 LIG 0.04  C 
BRANCH 5 7
ATOM      7  N   ALA B   3     -16.293 -26.236  -6.264  1.00 13.91 LIG-0.35  N 
ATOM      8  C   ARG B   2     -17.341 -25.468  -6.549  1.00 12.46 LIG 0.24  C 
ATOM      9 O    ARG B   2     -18.497 -25.888  -6.537  1.00 11.56 LIG-0.27  OA
ATOM     10 H    ALA B   3     -15.479 -25.958  -6.260  1.00 13.91 LIG 0.16  HD
BRANCH 8 11
ATOM     11  CA  ARG B   2     -17.051 -24.013  -6.902  1.00 12.24 LIG 0.18  C 
BRANCH 11 12
ATOM     12  CB  ARG B   2     -16.376 -23.940  -8.274  1.00 10.58 LIG 0.04  C 
BRANCH 12 13
ATOM     13  CG  ARG B   2     -14.867 -24.142  -8.253  1.00  9.71 LIG 0.02  C 
BRANCH 13 14
ATOM     14  CD  ARG B   2     -14.505 -25.490  -8.854  1.00  9.44 LIG 0.14  C 
BRANCH 14 15
ATOM     15  NE  ARG B   2     -13.108 -25.848  -8.611  1.00  9.23 LIG-0.23  N 
ATOM     16  CZ  ARG B   2     -12.159 -25.839  -9.539  1.00  9.20 LIG 0.67  C 
ATOM     17  NH1 ARG B   2     -12.451 -25.489 -10.785  1.00  7.63 LIG-0.23  N 
ATOM     18  NH2 ARG B   2     -10.915 -26.177  -9.222  1.00  9.31 LIG-0.23  N 
ATOM     19 1HH1 ARG B   2     -13.256 -25.269 -10.992  1.00  7.63 LIG 0.17  HD
ATOM     20 2HH1 ARG B   2     -11.836 -25.483 -11.386  1.00  7.63 LIG 0.17  HD
ATOM     21 2HH2 ARG B   2     -10.301 -26.170  -9.824  1.00  9.31 LIG 0.17  HD
ATOM     22 1HH2 ARG B   2     -10.723 -26.402  -8.415  1.00  9.31 LIG 0.17  HD
ATOM     23 HE   ARG B   2     -12.886 -26.080  -7.814  1.00  9.23 LIG 0.18  HD
ENDBRANCH 14 15
ENDBRANCH 13 14
ENDBRANCH 12 13
ENDBRANCH 11 12
BRANCH 11 24
ATOM     24  N   ARG B   2     -16.240 -23.285  -5.932  1.00 12.50 LIG-0.35  N 
ATOM     25  C   ALA B   1     -16.655 -22.184  -5.317  1.00 14.33 LIG 0.25  C 
ATOM     26 O    ALA B   1     -17.773 -21.698  -5.479  1.00 14.72 LIG-0.27  OA
ATOM     27 H    ARG B   2     -15.467 -23.636  -5.795  1.00 12.50 LIG 0.16  HD
BRANCH 25 28
ATOM     28  CA  ALA B   1     -15.651 -21.546  -4.361  1.00 14.93 LIG 0.27  C 
ATOM     29  CB  ALA B   1     -16.254 -20.303  -3.717  1.00 16.58 LIG 0.05  C 
BRANCH 28 30
ATOM     30  N   ALA B   1     -14.386 -21.197  -5.064  1.00 16.58 LIG-0.07  N 
ATOM     31 H3   ALA B   1     -13.942 -20.586  -4.593  1.00 16.58 LIG 0.28  HD
ATOM     32 H1   ALA B   1     -13.884 -21.927  -5.152  1.00 16.58 LIG 0.28  HD
ATOM     33 H2   ALA B   1     -14.575 -20.869  -5.870  1.00 16.58 LIG 0.28  HD
ENDBRANCH 28 30
ENDBRANCH 25 28
ENDBRANCH 11 24
ENDBRANCH 8 11
ENDBRANCH 5 7
ENDBRANCH 1 5
BRANCH 3 34
ATOM     34  CA  GLU B   4     -17.237 -28.759  -9.495  1.00 20.15 LIG 0.18  C 
BRANCH 34 35
ATOM     35  C   GLU B   4     -16.595 -30.140  -9.598  1.00 19.92 LIG 0.24  C 
ATOM     36  N   VAL B   5     -17.267 -31.057 -10.287  1.00 19.46 LIG-0.35  N 
ATOM     37 H    VAL B   5     -18.025 -30.913 -10.667  1.00 19.46 LIG 0.16  HD
ATOM     38 O    GLU B   4     -15.507 -30.367  -9.069  1.00 20.03 LIG-0.27  OA
BRANCH 36 39
ATOM     39  CA  VAL B   5     -16.754 -32.413 -10.454  1.00 20.09 LIG 0.18  C 
BRANCH 39 40
ATOM     40  CB  VAL B   5     -17.063 -33.285  -9.213  1.00 20.49 LIG 0.01  C 
ATOM     41  CG2 VAL B   5     -16.105 -34.462  -9.149  1.00 19.70 LIG 0.01  C 
ATOM     42  CG1 VAL B   5     -18.500 -33.776  -9.265  1.00 21.00 LIG 0.01  C 
ENDBRANCH 39 40
BRANCH 39 43
ATOM     43  C   VAL B   5     -17.361 -33.092 -11.679  1.00 20.75 LIG 0.24  C 
ATOM     44  N   HIS B   6     -18.057 -32.315 -12.505  1.00 20.78 LIG-0.35  N 
ATOM     45 H    HIS B   6     -18.188 -31.474 -12.380  1.00 20.78 LIG 0.16  HD
ATOM     46 O    VAL B   5     -17.208 -34.298 -11.869  1.00 21.91 LIG-0.27  OA
BRANCH 44 47
ATOM     47  CA  HIS B   6     -18.664 -32.850 -13.719  1.00 21.28 LIG 0.17  C 
BRANCH 47 48
ATOM     48  C   HIS B   6     -17.600 -33.026 -14.796  1.00 23.03 LIG 0.22  C 
ATOM     49 O    HIS B   6     -16.438 -32.640 -14.547  1.00 25.39 LIG-0.29  OA
ENDBRANCH 47 48
BRANCH 47 50
ATOM     50  CB  HIS B   6     -19.758 -31.914 -14.243  1.00 19.33 LIG 0.09  C 
BRANCH 50 51
ATOM     51  CG  HIS B   6     -21.084 -32.107 -13.573  1.00 17.39 LIG 0.06  A 
ATOM     52  CD2 HIS B   6     -21.690 -33.220 -13.098  1.00 16.59 LIG 0.14  A 
ATOM     53 NE2  HIS B   6     -22.886 -32.828 -12.546  1.00 16.70 LIG-0.25  NA
ATOM     54  CE1 HIS B   6     -23.011 -31.520 -12.680  1.00 16.06 LIG 0.23  A 
ATOM     55 ND1  HIS B   6     -21.936 -31.060 -13.297  1.00 16.09 LIG-0.24  NA
ENDBRANCH 50 51
ENDBRANCH 47 50
ENDBRANCH 44 47
ENDBRANCH 39 43
ENDBRANCH 36 39
ENDBRANCH 34 35
BRANCH 34 56
ATOM     56  CB  GLU B   4     -16.909 -27.960 -10.760  1.00 22.38 LIG 0.04  C 
BRANCH 56 57
ATOM     57  CG  GLU B   4     -15.726 -28.489 -11.551  1.00 27.64 LIG 0.12  C 
BRANCH 57 58
ATOM     58  CD  GLU B   4     -14.512 -27.586 -11.442  1.00 30.78 LIG 0.17  C 
ATOM     59 OE2  GLU B   4     -14.643 -26.374 -11.716  1.00 32.62 LIG-0.65  OA
ATOM     60 OE1  GLU B   4     -13.427 -28.090 -11.083  1.00 32.75 LIG-0.65  OA
ENDBRANCH 57 58
ENDBRANCH 56 57
ENDBRANCH 34 56
ENDBRANCH 3 34
TORSDOF 22
ENDMDL
MODEL 108
USER: ADFR SOLUTION from run 57
USER: SCORE 17.399290 LL:  -5.511 LR: -13.211 RR:   0.000 FEB:  -6.648
USER: RMSD 8.506696
USER: SEED 56
USER: STATUS no improvement in best in 3 clusters for 5 generations
USER: GENES 24
USER: genes 0 Translation |==|  0.36413 0.51690 0.44077
USER: genes 1 Rotation |==|  0.98632 0.41415 0.55812 0.55241
USER: genes 2 Torsion [N]-C--CA-[N] |==|  0.08822
USER: genes 3 Torsion [C]-CA--N-[C] |==|  0.17099
USER: genes 4 Torsion [N]-C--CA-[N] |==|  0.41418
USER: genes 5 Torsion [C]-CA--CB-[CG] |==|  0.92963
USER: genes 6 Torsion [CA]-CB--CG-[CD] |==|  0.37966
USER: genes 7 Torsion [CB]-CG--CD-[NE] |==|  0.84493
USER: genes 8 Torsion [CG]-CD--NE-[CZ] |==|  0.72120
USER: genes 9 Torsion [C]-CA--N-[C] |==|  0.81395
USER: genes 10 Torsion [N]-C--CA-[N] |==|  0.47241
USER: genes 11 Torsion [C]-CA--N-[H2] |==|  0.37041
USER: genes 12 Torsion [C]-N--CA-[C] |==|  0.60188
USER: genes 13 Torsion [N]-CA--C-[N] |==|  0.81125
USER: genes 14 Torsion [C]-N--CA-[CB] |==|  0.22699
USER: genes 15 Torsion [N]-CA--CB-[CG2] |==|  0.08762
USER: genes 16 Torsion [N]-CA--C-[N] |==|  0.01982
USER: genes 17 Torsion [C]-N--CA-[C] |==|  0.60879
USER: genes 18 Torsion [N]-CA--C-[O] |==|  0.92448
USER: genes 19 Torsion [N]-CA--CB-[CG] |==|  0.85429
USER: genes 20 Torsion [CA]-CB--CG-[CD2] |==|  0.30462
USER: genes 21 Torsion [N]-CA--CB-[CG] |==|  0.59670
USER: genes 22 Torsion [CA]-CB--CG-[CD] |==|  0.04019
USER: genes 23 Torsion [CB]-CG--CD-[OE2] |==|  0.26106
ROOT
ATOM      1  C   ALA B   3     -17.582 -27.696  -6.334  1.00 17.17 LIG 0.24  C 
ATOM      2 O    ALA B   3     -18.135 -26.655  -5.978  1.00 18.54 LIG-0.27  OA
ATOM      3  N   GLU B   4     -16.643 -27.729  -7.277  1.00 17.89 LIG-0.35  N 
ATOM      4 H    GLU B   4     -16.250 -28.449  -7.534  1.00 17.89 LIG 0.16  HD
ENDROOT
BRANCH 1 5
ATOM      5  CA  ALA B   3     -17.959 -29.031  -5.692  1.00 15.99 LIG 0.17  C 
ATOM      6  CB  ALA B   3     -18.527 -28.796  -4.296  1.00 16.21 LIG 0.04  C 
BRANCH 5 7
ATOM      7  N   ALA B   3     -16.847 -29.971  -5.621  1.00 13.91 LIG-0.35  N 
ATOM      8  C   ARG B   2     -15.746 -29.694  -4.927  1.00 12.46 LIG 0.24  C 
ATOM      9 O    ARG B   2     -15.601 -28.645  -4.300  1.00 11.56 LIG-0.27  OA
ATOM     10 H    ALA B   3     -16.968 -30.701  -6.059  1.00 13.91 LIG 0.16  HD
BRANCH 8 11
ATOM     11  CA  ARG B   2     -14.643 -30.747  -4.938  1.00 12.24 LIG 0.18  C 
BRANCH 11 12
ATOM     12  CB  ARG B   2     -14.887 -31.762  -3.819  1.00 10.58 LIG 0.04  C 
BRANCH 12 13
ATOM     13  CG  ARG B   2     -15.700 -31.232  -2.646  1.00  9.71 LIG 0.02  C 
BRANCH 13 14
ATOM     14  CD  ARG B   2     -16.733 -32.259  -2.212  1.00  9.44 LIG 0.14  C 
BRANCH 14 15
ATOM     15  NE  ARG B   2     -17.610 -32.662  -3.310  1.00  9.23 LIG-0.23  N 
ATOM     16  CZ  ARG B   2     -18.838 -32.197  -3.501  1.00  9.20 LIG 0.67  C 
ATOM     17  NH1 ARG B   2     -19.348 -31.304  -2.661  1.00  7.63 LIG-0.23  N 
ATOM     18  NH2 ARG B   2     -19.559 -32.622  -4.531  1.00  9.31 LIG-0.23  N 
ATOM     19 1HH1 ARG B   2     -18.882 -31.027  -1.994  1.00  7.63 LIG 0.17  HD
ATOM     20 2HH1 ARG B   2     -20.144 -31.003  -2.785  1.00  7.63 LIG 0.17  HD
ATOM     21 2HH2 ARG B   2     -20.354 -32.319  -4.653  1.00  9.31 LIG 0.17  HD
ATOM     22 1HH2 ARG B   2     -19.230 -33.199  -5.077  1.00  9.31 LIG 0.17  HD
ATOM     23 HE   ARG B   2     -17.309 -33.240  -3.871  1.00  9.23 LIG 0.18  HD
ENDBRANCH 14 15
ENDBRANCH 13 14
ENDBRANCH 12 13
ENDBRANCH 11 12
BRANCH 11 24
ATOM     24  N   ARG B   2     -13.284 -30.227  -4.825  1.00 12.50 LIG-0.35  N 
ATOM     25  C   ALA B   1     -12.705 -29.492  -5.766  1.00 14.33 LIG 0.25  C 
ATOM     26 O    ALA B   1     -13.272 -29.150  -6.802  1.00 14.72 LIG-0.27  OA
ATOM     27 H    ARG B   2     -12.893 -30.442  -4.090  1.00 12.50 LIG 0.16  HD
BRANCH 25 28
ATOM     28  CA  ALA B   1     -11.267 -29.070  -5.480  1.00 14.93 LIG 0.27  C 
ATOM     29  CB  ALA B   1     -11.229 -28.089  -4.314  1.00 16.58 LIG 0.05  C 
BRANCH 28 30
ATOM     30  N   ALA B   1     -10.636 -28.461  -6.683  1.00 16.58 LIG-0.07  N 
ATOM     31 H3   ALA B   1     -10.047 -29.031  -7.031  1.00 16.58 LIG 0.28  HD
ATOM     32 H1   ALA B   1     -11.264 -28.278  -7.287  1.00 16.58 LIG 0.28  HD
ATOM     33 H2   ALA B   1     -10.219 -27.710  -6.452  1.00 16.58 LIG 0.28  HD
ENDBRANCH 28 30
ENDBRANCH 25 28
ENDBRANCH 11 24
ENDBRANCH 8 11
ENDBRANCH 5 7
ENDBRANCH 1 5
BRANCH 3 34
ATOM     34  CA  GLU B   4     -16.194 -26.521  -7.967  1.00 20.15 LIG 0.18  C 
BRANCH 34 35
ATOM     35  C   GLU B   4     -15.894 -26.813  -9.436  1.00 19.92 LIG 0.24  C 
ATOM     36  N   VAL B   5     -14.848 -27.593  -9.684  1.00 19.46 LIG-0.35  N 
ATOM     37 H    VAL B   5     -14.345 -27.933  -9.074  1.00 19.46 LIG 0.16  HD
ATOM     38 O    GLU B   4     -16.605 -26.346 -10.326  1.00 20.03 LIG-0.27  OA
BRANCH 36 39
ATOM     39  CA  VAL B   5     -14.463 -27.943 -11.048  1.00 20.09 LIG 0.18  C 
BRANCH 39 40
ATOM     40  CB  VAL B   5     -13.630 -26.814 -11.701  1.00 20.49 LIG 0.01  C 
ATOM     41  CG2 VAL B   5     -12.812 -26.090 -10.646  1.00 19.70 LIG 0.01  C 
ATOM     42  CG1 VAL B   5     -14.546 -25.839 -12.420  1.00 21.00 LIG 0.01  C 
ENDBRANCH 39 40
BRANCH 39 43
ATOM     43  C   VAL B   5     -13.640 -29.227 -11.084  1.00 20.75 LIG 0.24  C 
ATOM     44  N   HIS B   6     -13.527 -29.893  -9.938  1.00 20.78 LIG-0.35  N 
ATOM     45 H    HIS B   6     -13.876 -29.636  -9.195  1.00 20.78 LIG 0.16  HD
ATOM     46 O    VAL B   5     -13.110 -29.604 -12.129  1.00 21.91 LIG-0.27  OA
BRANCH 44 47
ATOM     47  CA  HIS B   6     -12.782 -31.145  -9.857  1.00 21.28 LIG 0.17  C 
BRANCH 47 48
ATOM     48  C   HIS B   6     -13.508 -32.121  -8.938  1.00 23.03 LIG 0.22  C 
ATOM     49 O    HIS B   6     -14.232 -31.653  -8.033  1.00 25.39 LIG-0.29  OA
ENDBRANCH 47 48
BRANCH 47 50
ATOM     50  CB  HIS B   6     -11.368 -30.907  -9.319  1.00 19.33 LIG 0.09  C 
BRANCH 50 51
ATOM     51  CG  HIS B   6     -10.614 -29.847 -10.061  1.00 17.39 LIG 0.06  A 
ATOM     52  CD2 HIS B   6     -10.235 -28.599  -9.696  1.00 16.59 LIG 0.14  A 
ATOM     53 NE2  HIS B   6      -9.534 -28.062 -10.749  1.00 16.70 LIG-0.25  NA
ATOM     54  CE1 HIS B   6      -9.486 -28.948 -11.727  1.00 16.06 LIG 0.23  A 
ATOM     55 ND1  HIS B   6     -10.130 -30.034 -11.338  1.00 16.09 LIG-0.24  NA
ENDBRANCH 50 51
ENDBRANCH 47 50
ENDBRANCH 44 47
ENDBRANCH 39 43
ENDBRANCH 36 39
ENDBRANCH 34 35
BRANCH 34 56
ATOM     56  CB  GLU B   4     -14.931 -25.969  -7.300  1.00 22.38 LIG 0.04  C 
BRANCH 56 57
ATOM     57  CG  GLU B   4     -14.829 -24.454  -7.298  1.00 27.64 LIG 0.12  C 
BRANCH 57 58
ATOM     58  CD  GLU B   4     -16.148 -23.789  -7.639  1.00 30.78 LIG 0.17  C 
ATOM     59 OE2  GLU B   4     -16.901 -23.441  -6.705  1.00 32.62 LIG-0.65  OA
ATOM     60 OE1  GLU B   4     -16.430 -23.614  -8.843  1.00 32.75 LIG-0.65  OA
ENDBRANCH 57 58
ENDBRANCH 56 57
ENDBRANCH 34 56
ENDBRANCH 3 34
TORSDOF 22
ENDMDL
MODEL 109
USER: ADFR SOLUTION from run 112
USER: SCORE 19.110852 LL:  -7.116 LR: -13.195 RR:   0.000 FEB:  -6.633
USER: RMSD 8.711912
USER: SEED 111
USER: STATUS no improvement in best in 7 clusters for 5 generations
USER: GENES 24
USER: genes 0 Translation |==|  0.37277 0.37336 0.43067
USER: genes 1 Rotation |==|  0.10205 0.48070 0.35228 0.76352
USER: genes 2 Torsion [N]-C--CA-[N] |==|  0.01102
USER: genes 3 Torsion [C]-CA--N-[C] |==|  0.77604
USER: genes 4 Torsion [N]-C--CA-[N] |==|  0.72959
USER: genes 5 Torsion [C]-CA--CB-[CG] |==|  0.41635
USER: genes 6 Torsion [CA]-CB--CG-[CD] |==|  0.27607
USER: genes 7 Torsion [CB]-CG--CD-[NE] |==|  0.21268
USER: genes 8 Torsion [CG]-CD--NE-[CZ] |==|  0.47318
USER: genes 9 Torsion [C]-CA--N-[C] |==|  0.60701
USER: genes 10 Torsion [N]-C--CA-[N] |==|  0.17561
USER: genes 11 Torsion [C]-CA--N-[H2] |==|  0.80236
USER: genes 12 Torsion [C]-N--CA-[C] |==|  0.70685
USER: genes 13 Torsion [N]-CA--C-[N] |==|  0.98889
USER: genes 14 Torsion [C]-N--CA-[CB] |==|  0.17297
USER: genes 15 Torsion [N]-CA--CB-[CG2] |==|  0.54549
USER: genes 16 Torsion [N]-CA--C-[N] |==|  0.06840
USER: genes 17 Torsion [C]-N--CA-[C] |==|  0.57851
USER: genes 18 Torsion [N]-CA--C-[O] |==|  0.66719
USER: genes 19 Torsion [N]-CA--CB-[CG] |==|  0.77758
USER: genes 20 Torsion [CA]-CB--CG-[CD2] |==|  0.33816
USER: genes 21 Torsion [N]-CA--CB-[CG] |==|  0.99883
USER: genes 22 Torsion [CA]-CB--CG-[CD] |==|  0.22888
USER: genes 23 Torsion [CB]-CG--CD-[OE2] |==|  0.43250
ROOT
ATOM      1  C   ALA B   3     -17.426 -31.033  -6.554  1.00 17.17 LIG 0.24  C 
ATOM      2 O    ALA B   3     -18.592 -31.142  -6.170  1.00 18.54 LIG-0.27  OA
ATOM      3  N   GLU B   4     -16.622 -30.052  -6.153  1.00 17.89 LIG-0.35  N 
ATOM      4 H    GLU B   4     -15.807 -29.965  -6.414  1.00 17.89 LIG 0.16  HD
ENDROOT
BRANCH 1 5
ATOM      5  CA  ALA B   3     -16.838 -32.048  -7.534  1.00 15.99 LIG 0.17  C 
ATOM      6  CB  ALA B   3     -17.045 -33.464  -7.006  1.00 16.21 LIG 0.04  C 
BRANCH 5 7
ATOM      7  N   ALA B   3     -15.424 -31.827  -7.813  1.00 13.91 LIG-0.35  N 
ATOM      8  C   ARG B   2     -15.024 -30.908  -8.688  1.00 12.46 LIG 0.24  C 
ATOM      9 O    ARG B   2     -15.810 -30.188  -9.303  1.00 11.56 LIG-0.27  OA
ATOM     10 H    ALA B   3     -14.889 -32.334  -7.369  1.00 13.91 LIG 0.16  HD
BRANCH 8 11
ATOM     11  CA  ARG B   2     -13.521 -30.778  -8.910  1.00 12.24 LIG 0.18  C 
BRANCH 11 12
ATOM     12  CB  ARG B   2     -12.836 -32.110  -8.596  1.00 10.58 LIG 0.04  C 
BRANCH 12 13
ATOM     13  CG  ARG B   2     -11.571 -32.380  -9.399  1.00  9.71 LIG 0.02  C 
BRANCH 13 14
ATOM     14  CD  ARG B   2     -10.339 -32.050  -8.573  1.00  9.44 LIG 0.14  C 
BRANCH 14 15
ATOM     15  NE  ARG B   2     -10.047 -33.078  -7.576  1.00  9.23 LIG-0.23  N 
ATOM     16  CZ  ARG B   2      -8.935 -33.130  -6.853  1.00  9.20 LIG 0.67  C 
ATOM     17  NH1 ARG B   2      -7.995 -32.207  -7.014  1.00  7.63 LIG-0.23  N 
ATOM     18  NH2 ARG B   2      -8.761 -34.103  -5.968  1.00  9.31 LIG-0.23  N 
ATOM     19 1HH1 ARG B   2      -8.106 -31.575  -7.587  1.00  7.63 LIG 0.17  HD
ATOM     20 2HH1 ARG B   2      -7.274 -32.241  -6.546  1.00  7.63 LIG 0.17  HD
ATOM     21 2HH2 ARG B   2      -8.040 -34.135  -5.500  1.00  9.31 LIG 0.17  HD
ATOM     22 1HH2 ARG B   2      -9.369 -34.701  -5.861  1.00  9.31 LIG 0.17  HD
ATOM     23 HE   ARG B   2     -10.636 -33.691  -7.449  1.00  9.23 LIG 0.18  HD
ENDBRANCH 14 15
ENDBRANCH 13 14
ENDBRANCH 12 13
ENDBRANCH 11 12
BRANCH 11 24
ATOM     24  N   ARG B   2     -12.868 -29.715  -8.153  1.00 12.50 LIG-0.35  N 
ATOM     25  C   ALA B   1     -11.894 -28.962  -8.648  1.00 14.33 LIG 0.25  C 
ATOM     26 O    ALA B   1     -11.479 -29.064  -9.801  1.00 14.72 LIG-0.27  OA
ATOM     27 H    ARG B   2     -13.174 -29.623  -7.354  1.00 12.50 LIG 0.16  HD
BRANCH 25 28
ATOM     28  CA  ALA B   1     -11.313 -27.924  -7.692  1.00 14.93 LIG 0.27  C 
ATOM     29  CB  ALA B   1     -10.309 -27.039  -8.421  1.00 16.58 LIG 0.05  C 
BRANCH 28 30
ATOM     30  N   ALA B   1     -10.666 -28.577  -6.520  1.00 16.58 LIG-0.07  N 
ATOM     31 H3   ALA B   1     -10.121 -29.222  -6.803  1.00 16.58 LIG 0.28  HD
ATOM     32 H1   ALA B   1     -10.199 -27.972  -6.065  1.00 16.58 LIG 0.28  HD
ATOM     33 H2   ALA B   1     -11.290 -28.927  -5.993  1.00 16.58 LIG 0.28  HD
ENDBRANCH 28 30
ENDBRANCH 25 28
ENDBRANCH 11 24
ENDBRANCH 8 11
ENDBRANCH 5 7
ENDBRANCH 1 5
BRANCH 3 34
ATOM     34  CA  GLU B   4     -17.065 -29.020  -5.217  1.00 20.15 LIG 0.18  C 
BRANCH 34 35
ATOM     35  C   GLU B   4     -17.305 -27.697  -5.941  1.00 19.92 LIG 0.24  C 
ATOM     36  N   VAL B   5     -17.006 -27.666  -7.235  1.00 19.46 LIG-0.35  N 
ATOM     37 H    VAL B   5     -16.692 -28.337  -7.673  1.00 19.46 LIG 0.16  HD
ATOM     38 O    GLU B   4     -17.761 -26.725  -5.337  1.00 20.03 LIG-0.27  OA
BRANCH 36 39
ATOM     39  CA  VAL B   5     -17.192 -26.457  -8.033  1.00 20.09 LIG 0.18  C 
BRANCH 39 40
ATOM     40  CB  VAL B   5     -16.305 -25.301  -7.513  1.00 20.49 LIG 0.01  C 
ATOM     41  CG2 VAL B   5     -16.793 -23.976  -8.071  1.00 19.70 LIG 0.01  C 
ATOM     42  CG1 VAL B   5     -14.857 -25.538  -7.905  1.00 21.00 LIG 0.01  C 
ENDBRANCH 39 40
BRANCH 39 43
ATOM     43  C   VAL B   5     -16.851 -26.700  -9.501  1.00 20.75 LIG 0.24  C 
ATOM     44  N   HIS B   6     -16.945 -27.954  -9.934  1.00 20.78 LIG-0.35  N 
ATOM     45 H    HIS B   6     -17.171 -28.620  -9.437  1.00 20.78 LIG 0.16  HD
ATOM     46 O    VAL B   5     -16.502 -25.769 -10.226  1.00 21.91 LIG-0.27  OA
BRANCH 44 47
ATOM     47  CA  HIS B   6     -16.664 -28.302 -11.322  1.00 21.28 LIG 0.17  C 
BRANCH 47 48
ATOM     48  C   HIS B   6     -17.470 -29.533 -11.721  1.00 23.03 LIG 0.22  C 
ATOM     49 O    HIS B   6     -16.848 -30.551 -12.092  1.00 25.39 LIG-0.29  OA
ENDBRANCH 47 48
BRANCH 47 50
ATOM     50  CB  HIS B   6     -15.174 -28.590 -11.525  1.00 19.33 LIG 0.09  C 
BRANCH 50 51
ATOM     51  CG  HIS B   6     -14.336 -27.355 -11.658  1.00 17.39 LIG 0.06  A 
ATOM     52  CD2 HIS B   6     -13.281 -26.910 -10.936  1.00 16.59 LIG 0.14  A 
ATOM     53 NE2  HIS B   6     -12.863 -25.733 -11.510  1.00 16.70 LIG-0.25  NA
ATOM     54  CE1 HIS B   6     -13.636 -25.464 -12.546  1.00 16.06 LIG 0.23  A 
ATOM     55 ND1  HIS B   6     -14.534 -26.427 -12.658  1.00 16.09 LIG-0.24  NA
ENDBRANCH 50 51
ENDBRANCH 47 50
ENDBRANCH 44 47
ENDBRANCH 39 43
ENDBRANCH 36 39
ENDBRANCH 34 35
BRANCH 34 56
ATOM     56  CB  GLU B   4     -16.012 -28.808  -4.125  1.00 22.38 LIG 0.04  C 
BRANCH 56 57
ATOM     57  CG  GLU B   4     -14.788 -29.697  -4.248  1.00 27.64 LIG 0.12  C 
BRANCH 57 58
ATOM     58  CD  GLU B   4     -13.774 -29.147  -5.232  1.00 30.78 LIG 0.17  C 
ATOM     59 OE2  GLU B   4     -12.577 -29.482  -5.107  1.00 32.62 LIG-0.65  OA
ATOM     60 OE1  GLU B   4     -14.176 -28.378  -6.131  1.00 32.75 LIG-0.65  OA
ENDBRANCH 57 58
ENDBRANCH 56 57
ENDBRANCH 34 56
ENDBRANCH 3 34
TORSDOF 22
ENDMDL
