MODEL 1
USER: ADFR SOLUTION from run 97
USER: SCORE 17.949278 LL:  -2.955 LR: -15.596 RR:   0.000 FEB: -11.420
USER: RMSD 1.030616
USER: SEED 96
USER: STATUS 1 or 2 clusters left
USER: GENES 16
USER: genes 0 Translation |==|  0.52497 0.52378 0.51779
USER: genes 1 Rotation |==|  0.50890 0.48814 0.41903 0.99318
USER: genes 2 Torsion [N]-C--CA-[N] |==|  0.25704
USER: genes 3 Torsion [C]-CA--N-[C] |==|  0.55579
USER: genes 4 Torsion [N]-C--CA-[CB] |==|  0.70308
USER: genes 5 Torsion [C]-CA--CB-[CG] |==|  0.26508
USER: genes 6 Torsion [CA]-CB--CG-[CD1] |==|  0.32446
USER: genes 7 Torsion [CE2]-CZ--OH-[HH] |==|  0.62907
USER: genes 8 Torsion [C]-N--CA-[C] |==|  0.79499
USER: genes 9 Torsion [N]-CA--CB-[CG2] |==|  0.53051
USER: genes 10 Torsion [CA]-CB--CG1-[CD1] |==|  0.77387
USER: genes 11 Torsion [N]-CA--C-[N] |==|  0.42020
USER: genes 12 Torsion [C]-N--CA-[C] |==|  0.56583
USER: genes 13 Torsion [N]-CA--C-[O] |==|  0.46738
USER: genes 14 Torsion [N]-CA--CB-[CG] |==|  0.65928
USER: genes 15 Torsion [CA]-CB--CG-[CD1] |==|  0.25086
ROOT
ATOM      1  C   TYR N  11      15.362  75.399  29.907  1.00 56.96 LIG 0.24  C 
ATOM      2 O    TYR N  11      14.179  75.685  29.759  1.00 54.60 LIG-0.27  OA
ATOM      3  N   ILE N  12      16.014  75.584  31.050  1.00 55.40 LIG-0.35  N 
ATOM      4 H    ILE N  12      16.869  75.518  31.128  1.00 55.40 LIG 0.16  HD
ENDROOT
BRANCH 1 5
ATOM      5  CA  TYR N  11      16.140  74.841  28.728  1.00 58.62 LIG 0.18  C 
BRANCH 5 6
ATOM      6  N   TYR N  11      15.964  73.387  28.781  1.00 60.03 LIG-0.35  N 
ATOM      7 H    TYR N  11      15.277  73.165  29.248  1.00 60.03 LIG 0.16  HD
ATOM      8  C   PRO N  10      16.732  72.465  28.203  1.00 61.18 LIG 0.25  C 
ATOM      9 O    PRO N  10      17.904  72.645  27.890  1.00 61.93 LIG-0.27  OA
BRANCH 8 10
ATOM     10  CA  PRO N  10      16.074  71.100  27.980  1.00 61.60 LIG 0.35  C 
ATOM     11  CB  PRO N  10      16.610  70.044  28.951  1.00 62.04 LIG 0.05  C 
ATOM     12  CG  PRO N  10      16.437  68.733  28.199  1.00 62.43 LIG 0.04  C 
ATOM     13  CD  PRO N  10      16.546  69.055  26.710  1.00 61.79 LIG 0.32  C 
ATOM     14  N   PRO N  10      16.370  70.522  26.659  1.00 62.25 LIG 0.32  N 
ENDBRANCH 8 10
ENDBRANCH 5 6
BRANCH 5 15
ATOM     15  CB  TYR N  11      15.332  75.310  27.544  1.00 60.02 LIG 0.07  C 
BRANCH 15 16
ATOM     16  CG  TYR N  11      15.714  76.552  26.850  1.00 61.42 LIG-0.06  A 
ATOM     17  CD2 TYR N  11      15.717  77.744  27.564  1.00 63.03 LIG 0.01  A 
ATOM     18  CE2 TYR N  11      16.080  78.929  26.973  1.00 63.91 LIG 0.04  A 
ATOM     19  CZ  TYR N  11      16.470  78.951  25.644  1.00 62.76 LIG 0.07  A 
ATOM     20  CE1 TYR N  11      16.489  77.763  24.901  1.00 63.08 LIG 0.04  A 
ATOM     21  CD1 TYR N  11      16.123  76.561  25.520  1.00 63.28 LIG 0.01  A 
BRANCH 19 22
ATOM     22 OH   TYR N  11      16.825  80.184  25.102  1.00 61.08 LIG-0.36  OA
ATOM     23 HH   TYR N  11      16.453  80.280  24.356  1.00 61.08 LIG 0.22  HD
ENDBRANCH 19 22
ENDBRANCH 15 16
ENDBRANCH 5 15
ENDBRANCH 1 5
BRANCH 3 24
ATOM     24  CA  ILE N  12      15.323  75.922  32.294  1.00 53.88 LIG 0.18  C 
BRANCH 24 25
ATOM     25  CB  ILE N  12      16.252  75.679  33.490  1.00 53.93 LIG 0.01  C 
ATOM     26  CG2 ILE N  12      15.497  75.759  34.808  1.00 53.11 LIG 0.01  C 
BRANCH 25 27
ATOM     27  CG1 ILE N  12      16.999  74.350  33.311  1.00 51.92 LIG 0.00  C 
ATOM     28  CD1 ILE N  12      16.237  73.122  33.694  1.00 50.97 LIG 0.01  C 
ENDBRANCH 25 27
ENDBRANCH 24 25
BRANCH 24 29
ATOM     29  C   ILE N  12      14.829  77.363  32.319  1.00 53.48 LIG 0.24  C 
ATOM     30  N   LEU N  13      13.756  77.584  33.051  1.00 52.60 LIG-0.34  N 
ATOM     31 H    LEU N  13      13.330  76.961  33.464  1.00 52.60 LIG 0.16  HD
ATOM     32 O    ILE N  12      15.413  78.247  31.701  1.00 54.19 LIG-0.27  OA
BRANCH 30 33
ATOM     33  CA  LEU N  13      13.178  78.912  33.238  1.00 51.71 LIG 0.18  C 
BRANCH 33 34
ATOM     34  C   LEU N  13      12.345  78.979  34.550  1.00 51.36 LIG 0.20  C 
ATOM     35 O    LEU N  13      11.950  80.081  35.005  1.00 50.70 LIG-0.65  OA
ATOM     36 OXT  LEU N  13      12.032  77.934  35.172  1.00 50.18 LIG-0.65  OA
ENDBRANCH 33 34
BRANCH 33 37
ATOM     37  CB  LEU N  13      12.272  79.256  32.043  1.00 52.27 LIG 0.04  C 
BRANCH 37 38
ATOM     38  CG  LEU N  13      12.473  80.501  31.157  1.00 53.15 LIG-0.02  C 
ATOM     39  CD1 LEU N  13      13.399  80.185  29.966  1.00 53.09 LIG 0.01  C 
ATOM     40  CD2 LEU N  13      11.137  81.046  30.682  1.00 52.44 LIG 0.01  C 
ENDBRANCH 37 38
ENDBRANCH 33 37
ENDBRANCH 30 33
ENDBRANCH 24 29
ENDBRANCH 3 24
TORSDOF 14
ENDMDL
MODEL 2
USER: ADFR SOLUTION from run 165
USER: SCORE 15.692114 LL:  -2.952 LR: -14.214 RR:   0.000 FEB: -10.038
USER: RMSD 6.332532
USER: SEED 164
USER: STATUS no improvement in best in 5 clusters for 5 generations
USER: GENES 16
USER: genes 0 Translation |==|  0.57201 0.52003 0.62498
USER: genes 1 Rotation |==|  0.64883 0.06517 0.32174 0.58366
USER: genes 2 Torsion [N]-C--CA-[N] |==|  0.28877
USER: genes 3 Torsion [C]-CA--N-[C] |==|  0.14499
USER: genes 4 Torsion [N]-C--CA-[CB] |==|  0.14952
USER: genes 5 Torsion [C]-CA--CB-[CG] |==|  0.42592
USER: genes 6 Torsion [CA]-CB--CG-[CD1] |==|  0.63403
USER: genes 7 Torsion [CE2]-CZ--OH-[HH] |==|  0.10917
USER: genes 8 Torsion [C]-N--CA-[C] |==|  0.74497
USER: genes 9 Torsion [N]-CA--CB-[CG2] |==|  0.19247
USER: genes 10 Torsion [CA]-CB--CG1-[CD1] |==|  0.65257
USER: genes 11 Torsion [N]-CA--C-[N] |==|  0.88723
USER: genes 12 Torsion [C]-N--CA-[C] |==|  0.48739
USER: genes 13 Torsion [N]-CA--C-[O] |==|  0.10155
USER: genes 14 Torsion [N]-CA--CB-[CG] |==|  0.08884
USER: genes 15 Torsion [CA]-CB--CG-[CD1] |==|  0.17216
ROOT
ATOM      1  C   TYR N  11      16.138  75.326  32.078  1.00 56.96 LIG 0.24  C 
ATOM      2 O    TYR N  11      17.163  75.988  31.966  1.00 54.60 LIG-0.27  OA
ATOM      3  N   ILE N  12      14.948  75.759  31.677  1.00 55.40 LIG-0.35  N 
ATOM      4 H    ILE N  12      14.207  75.367  31.872  1.00 55.40 LIG 0.16  HD
ENDROOT
BRANCH 1 5
ATOM      5  CA  TYR N  11      16.211  73.959  32.738  1.00 58.62 LIG 0.18  C 
BRANCH 5 6
ATOM      6  N   TYR N  11      16.766  73.054  31.728  1.00 60.03 LIG-0.35  N 
ATOM      7 H    TYR N  11      16.276  72.355  31.621  1.00 60.03 LIG 0.16  HD
ATOM      8  C   PRO N  10      17.885  73.227  31.026  1.00 61.18 LIG 0.25  C 
ATOM      9 O    PRO N  10      18.819  73.935  31.385  1.00 61.93 LIG-0.27  OA
BRANCH 8 10
ATOM     10  CA  PRO N  10      17.976  72.433  29.720  1.00 61.60 LIG 0.35  C 
ATOM     11  CB  PRO N  10      16.763  72.680  28.817  1.00 62.04 LIG 0.05  C 
ATOM     12  CG  PRO N  10      16.647  71.401  28.001  1.00 62.43 LIG 0.04  C 
ATOM     13  CD  PRO N  10      17.198  70.269  28.865  1.00 61.79 LIG 0.32  C 
ATOM     14  N   PRO N  10      17.951  70.975  29.923  1.00 62.25 LIG 0.32  N 
ENDBRANCH 8 10
ENDBRANCH 5 6
BRANCH 5 15
ATOM     15  CB  TYR N  11      17.297  74.144  33.767  1.00 60.02 LIG 0.07  C 
BRANCH 15 16
ATOM     16  CG  TYR N  11      17.297  73.311  34.982  1.00 61.42 LIG-0.06  A 
ATOM     17  CD2 TYR N  11      17.190  71.932  34.848  1.00 63.03 LIG 0.01  A 
ATOM     18  CE2 TYR N  11      17.201  71.105  35.944  1.00 63.91 LIG 0.04  A 
ATOM     19  CZ  TYR N  11      17.337  71.639  37.215  1.00 62.76 LIG 0.07  A 
ATOM     20  CE1 TYR N  11      17.459  73.025  37.382  1.00 63.08 LIG 0.04  A 
ATOM     21  CD1 TYR N  11      17.454  73.855  36.253  1.00 63.28 LIG 0.01  A 
BRANCH 19 22
ATOM     22 OH   TYR N  11      17.339  70.749  38.286  1.00 61.08 LIG-0.36  OA
ATOM     23 HH   TYR N  11      17.771  70.060  38.077  1.00 61.08 LIG 0.22  HD
ENDBRANCH 19 22
ENDBRANCH 15 16
ENDBRANCH 5 15
ENDBRANCH 1 5
BRANCH 3 24
ATOM     24  CA  ILE N  12      14.794  76.960  30.856  1.00 53.88 LIG 0.18  C 
BRANCH 24 25
ATOM     25  CB  ILE N  12      13.618  76.783  29.887  1.00 53.93 LIG 0.01  C 
ATOM     26  CG2 ILE N  12      12.287  76.774  30.621  1.00 53.11 LIG 0.01  C 
BRANCH 25 27
ATOM     27  CG1 ILE N  12      13.682  77.851  28.785  1.00 51.92 LIG 0.00  C 
ATOM     28  CD1 ILE N  12      12.454  78.688  28.622  1.00 50.97 LIG 0.01  C 
ENDBRANCH 25 27
ENDBRANCH 24 25
BRANCH 24 29
ATOM     29  C   ILE N  12      14.582  78.217  31.688  1.00 53.48 LIG 0.24  C 
ATOM     30  N   LEU N  13      13.787  78.082  32.731  1.00 52.60 LIG-0.34  N 
ATOM     31 H    LEU N  13      13.380  77.348  32.921  1.00 52.60 LIG 0.16  HD
ATOM     32 O    ILE N  12      15.132  79.274  31.398  1.00 54.19 LIG-0.27  OA
BRANCH 30 33
ATOM     33  CA  LEU N  13      13.516  79.164  33.673  1.00 51.71 LIG 0.18  C 
BRANCH 33 34
ATOM     34  C   LEU N  13      12.457  78.734  34.728  1.00 51.36 LIG 0.20  C 
ATOM     35 O    LEU N  13      12.434  77.560  35.173  1.00 50.70 LIG-0.65  OA
ATOM     36 OXT  LEU N  13      11.616  79.554  35.172  1.00 50.18 LIG-0.65  OA
ENDBRANCH 33 34
BRANCH 33 37
ATOM     37  CB  LEU N  13      13.002  80.398  32.911  1.00 52.27 LIG 0.04  C 
BRANCH 37 38
ATOM     38  CG  LEU N  13      12.163  80.308  31.621  1.00 53.15 LIG-0.02  C 
ATOM     39  CD1 LEU N  13      10.826  79.586  31.883  1.00 53.09 LIG 0.01  C 
ATOM     40  CD2 LEU N  13      11.932  81.690  31.031  1.00 52.44 LIG 0.01  C 
ENDBRANCH 37 38
ENDBRANCH 33 37
ENDBRANCH 30 33
ENDBRANCH 24 29
ENDBRANCH 3 24
TORSDOF 14
ENDMDL
MODEL 3
USER: ADFR SOLUTION from run 151
USER: SCORE 15.876453 LL:  -2.720 LR: -13.940 RR:   0.000 FEB:  -9.763
USER: RMSD 4.662004
USER: SEED 150
USER: STATUS no improvement in best in 3 clusters for 5 generations
USER: GENES 16
USER: genes 0 Translation |==|  0.46647 0.60779 0.53725
USER: genes 1 Rotation |==|  0.19919 0.49934 0.62647 0.87884
USER: genes 2 Torsion [N]-C--CA-[N] |==|  0.44087
USER: genes 3 Torsion [C]-CA--N-[C] |==|  0.79569
USER: genes 4 Torsion [N]-C--CA-[CB] |==|  0.51910
USER: genes 5 Torsion [C]-CA--CB-[CG] |==|  0.22980
USER: genes 6 Torsion [CA]-CB--CG-[CD1] |==|  0.22712
USER: genes 7 Torsion [CE2]-CZ--OH-[HH] |==|  0.81441
USER: genes 8 Torsion [C]-N--CA-[C] |==|  0.19883
USER: genes 9 Torsion [N]-CA--CB-[CG2] |==|  0.30444
USER: genes 10 Torsion [CA]-CB--CG1-[CD1] |==|  0.80585
USER: genes 11 Torsion [N]-CA--C-[N] |==|  0.88889
USER: genes 12 Torsion [C]-N--CA-[C] |==|  0.18566
USER: genes 13 Torsion [N]-CA--C-[O] |==|  0.76226
USER: genes 14 Torsion [N]-CA--CB-[CG] |==|  0.45682
USER: genes 15 Torsion [CA]-CB--CG-[CD1] |==|  0.14110
ROOT
ATOM      1  C   TYR N  11      14.397  77.037  30.301  1.00 56.96 LIG 0.24  C 
ATOM      2 O    TYR N  11      13.407  76.466  30.746  1.00 54.60 LIG-0.27  OA
ATOM      3  N   ILE N  12      14.422  78.337  30.028  1.00 55.40 LIG-0.35  N 
ATOM      4 H    ILE N  12      15.057  78.721  29.592  1.00 55.40 LIG 0.16  HD
ENDROOT
BRANCH 1 5
ATOM      5  CA  TYR N  11      15.648  76.226  30.009  1.00 58.62 LIG 0.18  C 
BRANCH 5 6
ATOM      6  N   TYR N  11      15.552  75.024  30.842  1.00 60.03 LIG-0.35  N 
ATOM      7 H    TYR N  11      15.362  74.326  30.377  1.00 60.03 LIG 0.16  HD
ATOM      8  C   PRO N  10      15.725  74.948  32.161  1.00 61.18 LIG 0.25  C 
ATOM      9 O    PRO N  10      15.588  75.894  32.928  1.00 61.93 LIG-0.27  OA
BRANCH 8 10
ATOM     10  CA  PRO N  10      16.073  73.558  32.703  1.00 61.60 LIG 0.35  C 
ATOM     11  CB  PRO N  10      16.087  73.532  34.234  1.00 62.04 LIG 0.05  C 
ATOM     12  CG  PRO N  10      17.067  72.418  34.573  1.00 62.43 LIG 0.04  C 
ATOM     13  CD  PRO N  10      18.083  72.357  33.434  1.00 61.79 LIG 0.32  C 
ATOM     14  N   PRO N  10      17.432  73.119  32.348  1.00 62.25 LIG 0.32  N 
ENDBRANCH 8 10
ENDBRANCH 5 6
BRANCH 5 15
ATOM     15  CB  TYR N  11      15.420  75.763  28.592  1.00 60.02 LIG 0.07  C 
BRANCH 15 16
ATOM     16  CG  TYR N  11      15.745  76.664  27.472  1.00 61.42 LIG-0.06  A 
ATOM     17  CD2 TYR N  11      14.732  77.439  26.922  1.00 63.03 LIG 0.01  A 
ATOM     18  CE2 TYR N  11      14.980  78.309  25.888  1.00 63.91 LIG 0.04  A 
ATOM     19  CZ  TYR N  11      16.264  78.440  25.384  1.00 62.76 LIG 0.07  A 
ATOM     20  CE1 TYR N  11      17.309  77.680  25.928  1.00 63.08 LIG 0.04  A 
ATOM     21  CD1 TYR N  11      17.042  76.803  26.987  1.00 63.28 LIG 0.01  A 
BRANCH 19 22
ATOM     22 OH   TYR N  11      16.451  79.336  24.335  1.00 61.08 LIG-0.36  OA
ATOM     23 HH   TYR N  11      16.052  79.055  23.652  1.00 61.08 LIG 0.22  HD
ENDBRANCH 19 22
ENDBRANCH 15 16
ENDBRANCH 5 15
ENDBRANCH 1 5
BRANCH 3 24
ATOM     24  CA  ILE N  12      13.354  79.241  30.454  1.00 53.88 LIG 0.18  C 
BRANCH 24 25
ATOM     25  CB  ILE N  12      11.991  78.674  30.037  1.00 53.93 LIG 0.01  C 
ATOM     26  CG2 ILE N  12      11.194  78.195  31.239  1.00 53.11 LIG 0.01  C 
BRANCH 25 27
ATOM     27  CG1 ILE N  12      11.231  79.706  29.191  1.00 51.92 LIG 0.00  C 
ATOM     28  CD1 ILE N  12      10.745  80.914  29.927  1.00 50.97 LIG 0.01  C 
ENDBRANCH 25 27
ENDBRANCH 24 25
BRANCH 24 29
ATOM     29  C   ILE N  12      13.360  79.491  31.957  1.00 53.48 LIG 0.24  C 
ATOM     30  N   LEU N  13      13.619  78.439  32.708  1.00 52.60 LIG-0.34  N 
ATOM     31 H    LEU N  13      13.743  77.651  32.387  1.00 52.60 LIG 0.16  HD
ATOM     32 O    ILE N  12      13.148  80.608  32.418  1.00 54.19 LIG-0.27  OA
BRANCH 30 33
ATOM     33  CA  LEU N  13      13.724  78.504  34.163  1.00 51.71 LIG 0.18  C 
BRANCH 33 34
ATOM     34  C   LEU N  13      12.350  78.843  34.807  1.00 51.36 LIG 0.20  C 
ATOM     35 O    LEU N  13      11.976  80.036  34.934  1.00 50.70 LIG-0.65  OA
ATOM     36 OXT  LEU N  13      11.575  77.935  35.195  1.00 50.18 LIG-0.65  OA
ENDBRANCH 33 34
BRANCH 33 37
ATOM     37  CB  LEU N  13      14.751  79.580  34.560  1.00 52.27 LIG 0.04  C 
BRANCH 37 38
ATOM     38  CG  LEU N  13      14.864  80.158  35.984  1.00 53.15 LIG-0.02  C 
ATOM     39  CD1 LEU N  13      14.956  79.030  37.031  1.00 53.09 LIG 0.01  C 
ATOM     40  CD2 LEU N  13      16.051  81.101  36.090  1.00 52.44 LIG 0.01  C 
ENDBRANCH 37 38
ENDBRANCH 33 37
ENDBRANCH 30 33
ENDBRANCH 24 29
ENDBRANCH 3 24
TORSDOF 14
ENDMDL
MODEL 4
USER: ADFR SOLUTION from run 11
USER: SCORE 16.495893 LL:  -2.821 LR: -13.927 RR:   0.000 FEB:  -9.750
USER: RMSD 2.174849
USER: SEED 132424
USER: STATUS no improvement in best in 3 clusters for 5 generations
USER: GENES 16
USER: genes 0 Translation |==|  0.52034 0.53668 0.49859
USER: genes 1 Rotation |==|  0.51483 0.47586 0.47165 0.99839
USER: genes 2 Torsion [N]-C--CA-[N] |==|  0.31946
USER: genes 3 Torsion [C]-CA--N-[C] |==|  0.73779
USER: genes 4 Torsion [N]-C--CA-[CB] |==|  0.67953
USER: genes 5 Torsion [C]-CA--CB-[CG] |==|  0.58770
USER: genes 6 Torsion [CA]-CB--CG-[CD1] |==|  0.93524
USER: genes 7 Torsion [CE2]-CZ--OH-[HH] |==|  0.55124
USER: genes 8 Torsion [C]-N--CA-[C] |==|  0.74637
USER: genes 9 Torsion [N]-CA--CB-[CG2] |==|  0.42571
USER: genes 10 Torsion [CA]-CB--CG1-[CD1] |==|  0.27435
USER: genes 11 Torsion [N]-CA--C-[N] |==|  0.42149
USER: genes 12 Torsion [C]-N--CA-[C] |==|  0.61327
USER: genes 13 Torsion [N]-CA--C-[O] |==|  0.47008
USER: genes 14 Torsion [N]-CA--CB-[CG] |==|  0.78730
USER: genes 15 Torsion [CA]-CB--CG-[CD1] |==|  0.32727
ROOT
ATOM      1  C   TYR N  11      15.286  75.650  29.518  1.00 56.96 LIG 0.24  C 
ATOM      2 O    TYR N  11      14.079  75.685  29.305  1.00 54.60 LIG-0.27  OA
ATOM      3  N   ILE N  12      15.822  75.949  30.696  1.00 55.40 LIG-0.35  N 
ATOM      4 H    ILE N  12      16.666  76.062  30.822  1.00 55.40 LIG 0.16  HD
ENDROOT
BRANCH 1 5
ATOM      5  CA  TYR N  11      16.226  75.286  28.382  1.00 58.62 LIG 0.18  C 
BRANCH 5 6
ATOM      6  N   TYR N  11      15.945  73.884  28.061  1.00 60.03 LIG-0.35  N 
ATOM      7 H    TYR N  11      15.292  73.809  27.506  1.00 60.03 LIG 0.16  HD
ATOM      8  C   PRO N  10      16.579  72.812  28.531  1.00 61.18 LIG 0.25  C 
ATOM      9 O    PRO N  10      17.203  72.790  29.586  1.00 61.93 LIG-0.27  OA
BRANCH 8 10
ATOM     10  CA  PRO N  10      16.450  71.542  27.684  1.00 61.60 LIG 0.35  C 
ATOM     11  CB  PRO N  10      15.697  70.435  28.428  1.00 62.04 LIG 0.05  C 
ATOM     12  CG  PRO N  10      16.245  69.150  27.825  1.00 62.43 LIG 0.04  C 
ATOM     13  CD  PRO N  10      17.678  69.440  27.385  1.00 61.79 LIG 0.32  C 
ATOM     14  N   PRO N  10      17.746  70.916  27.374  1.00 62.25 LIG 0.32  N 
ENDBRANCH 8 10
ENDBRANCH 5 6
BRANCH 5 15
ATOM     15  CB  TYR N  11      15.681  76.091  27.229  1.00 60.02 LIG 0.07  C 
BRANCH 15 16
ATOM     16  CG  TYR N  11      15.801  75.567  25.857  1.00 61.42 LIG-0.06  A 
ATOM     17  CD2 TYR N  11      14.950  76.060  24.876  1.00 63.03 LIG 0.01  A 
ATOM     18  CE2 TYR N  11      15.027  75.621  23.577  1.00 63.91 LIG 0.04  A 
ATOM     19  CZ  TYR N  11      15.977  74.679  23.218  1.00 62.76 LIG 0.07  A 
ATOM     20  CE1 TYR N  11      16.858  74.172  24.183  1.00 63.08 LIG 0.04  A 
ATOM     21  CD1 TYR N  11      16.772  74.635  25.502  1.00 63.28 LIG 0.01  A 
BRANCH 19 22
ATOM     22 OH   TYR N  11      16.004  74.273  21.886  1.00 61.08 LIG-0.36  OA
ATOM     23 HH   TYR N  11      16.420  73.546  21.824  1.00 61.08 LIG 0.22  HD
ENDBRANCH 19 22
ENDBRANCH 15 16
ENDBRANCH 5 15
ENDBRANCH 1 5
BRANCH 3 24
ATOM     24  CA  ILE N  12      15.008  76.116  31.901  1.00 53.88 LIG 0.18  C 
BRANCH 24 25
ATOM     25  CB  ILE N  12      15.789  75.630  33.130  1.00 53.93 LIG 0.01  C 
ATOM     26  CG2 ILE N  12      15.331  76.335  34.396  1.00 53.11 LIG 0.01  C 
BRANCH 25 27
ATOM     27  CG1 ILE N  12      15.700  74.100  33.234  1.00 51.92 LIG 0.00  C 
ATOM     28  CD1 ILE N  12      16.878  73.346  32.705  1.00 50.97 LIG 0.01  C 
ENDBRANCH 25 27
ENDBRANCH 24 25
BRANCH 24 29
ATOM     29  C   ILE N  12      14.568  77.557  32.118  1.00 53.48 LIG 0.24  C 
ATOM     30  N   LEU N  13      13.432  77.713  32.770  1.00 52.60 LIG-0.34  N 
ATOM     31 H    LEU N  13      12.944  77.055  33.030  1.00 52.60 LIG 0.16  HD
ATOM     32 O    ILE N  12      15.244  78.498  31.715  1.00 54.19 LIG-0.27  OA
BRANCH 30 33
ATOM     33  CA  LEU N  13      12.887  79.022  33.119  1.00 51.71 LIG 0.18  C 
BRANCH 33 34
ATOM     34  C   LEU N  13      12.286  79.012  34.554  1.00 51.36 LIG 0.20  C 
ATOM     35 O    LEU N  13      11.950  80.083  35.118  1.00 50.70 LIG-0.65  OA
ATOM     36 OXT  LEU N  13      12.105  77.934  35.172  1.00 50.18 LIG-0.65  OA
ENDBRANCH 33 34
BRANCH 33 37
ATOM     37  CB  LEU N  13      11.791  79.412  32.112  1.00 52.27 LIG 0.04  C 
BRANCH 37 38
ATOM     38  CG  LEU N  13      12.089  79.920  30.689  1.00 53.15 LIG-0.02  C 
ATOM     39  CD1 LEU N  13      11.509  78.962  29.629  1.00 53.09 LIG 0.01  C 
ATOM     40  CD2 LEU N  13      11.560  81.332  30.498  1.00 52.44 LIG 0.01  C 
ENDBRANCH 37 38
ENDBRANCH 33 37
ENDBRANCH 30 33
ENDBRANCH 24 29
ENDBRANCH 3 24
TORSDOF 14
ENDMDL
MODEL 5
USER: ADFR SOLUTION from run 172
USER: SCORE 16.801668 LL:  -3.127 LR: -13.869 RR:   0.000 FEB:  -9.693
USER: RMSD 6.789852
USER: SEED 171
USER: STATUS no improvement in best in 5 clusters for 5 generations
USER: GENES 16
USER: genes 0 Translation |==|  0.56542 0.53400 0.64166
USER: genes 1 Rotation |==|  0.69736 0.07040 0.34478 0.54895
USER: genes 2 Torsion [N]-C--CA-[N] |==|  0.38267
USER: genes 3 Torsion [C]-CA--N-[C] |==|  0.74178
USER: genes 4 Torsion [N]-C--CA-[CB] |==|  0.17246
USER: genes 5 Torsion [C]-CA--CB-[CG] |==|  0.55510
USER: genes 6 Torsion [CA]-CB--CG-[CD1] |==|  0.43525
USER: genes 7 Torsion [CE2]-CZ--OH-[HH] |==|  0.95788
USER: genes 8 Torsion [C]-N--CA-[C] |==|  0.78334
USER: genes 9 Torsion [N]-CA--CB-[CG2] |==|  0.17571
USER: genes 10 Torsion [CA]-CB--CG1-[CD1] |==|  0.65471
USER: genes 11 Torsion [N]-CA--C-[N] |==|  0.89946
USER: genes 12 Torsion [C]-N--CA-[C] |==|  0.47098
USER: genes 13 Torsion [N]-CA--C-[O] |==|  0.09595
USER: genes 14 Torsion [N]-CA--CB-[CG] |==|  0.19042
USER: genes 15 Torsion [CA]-CB--CG-[CD1] |==|  0.61047
ROOT
ATOM      1  C   TYR N  11      16.029  75.598  32.416  1.00 56.96 LIG 0.24  C 
ATOM      2 O    TYR N  11      16.952  76.399  32.515  1.00 54.60 LIG-0.27  OA
ATOM      3  N   ILE N  12      14.903  75.867  31.765  1.00 55.40 LIG-0.35  N 
ATOM      4 H    ILE N  12      14.199  75.373  31.804  1.00 55.40 LIG 0.16  HD
ENDROOT
BRANCH 1 5
ATOM      5  CA  TYR N  11      16.151  74.244  33.095  1.00 58.62 LIG 0.18  C 
BRANCH 5 6
ATOM      6  N   TYR N  11      17.510  73.774  32.814  1.00 60.03 LIG-0.35  N 
ATOM      7 H    TYR N  11      18.074  74.062  33.395  1.00 60.03 LIG 0.16  HD
ATOM      8  C   PRO N  10      17.895  72.995  31.804  1.00 61.18 LIG 0.25  C 
ATOM      9 O    PRO N  10      17.282  72.887  30.748  1.00 61.93 LIG-0.27  OA
BRANCH 8 10
ATOM     10  CA  PRO N  10      19.215  72.248  32.011  1.00 61.60 LIG 0.35  C 
ATOM     11  CB  PRO N  10      19.142  71.280  33.195  1.00 62.04 LIG 0.05  C 
ATOM     12  CG  PRO N  10      20.581  71.185  33.681  1.00 62.43 LIG 0.04  C 
ATOM     13  CD  PRO N  10      21.251  72.517  33.352  1.00 61.79 LIG 0.32  C 
ATOM     14  N   PRO N  10      20.335  73.134  32.370  1.00 62.25 LIG 0.32  N 
ENDBRANCH 8 10
ENDBRANCH 5 6
BRANCH 5 15
ATOM     15  CB  TYR N  11      16.135  74.605  34.559  1.00 60.02 LIG 0.07  C 
BRANCH 15 16
ATOM     16  CG  TYR N  11      16.662  73.649  35.549  1.00 61.42 LIG-0.06  A 
ATOM     17  CD2 TYR N  11      16.757  72.308  35.199  1.00 63.03 LIG 0.01  A 
ATOM     18  CE2 TYR N  11      17.256  71.375  36.075  1.00 63.91 LIG 0.04  A 
ATOM     19  CZ  TYR N  11      17.694  71.766  37.329  1.00 62.76 LIG 0.07  A 
ATOM     20  CE1 TYR N  11      17.623  73.114  37.707  1.00 63.08 LIG 0.04  A 
ATOM     21  CD1 TYR N  11      17.118  74.054  36.800  1.00 63.28 LIG 0.01  A 
BRANCH 19 22
ATOM     22 OH   TYR N  11      18.188  70.773  38.172  1.00 61.08 LIG-0.36  OA
ATOM     23 HH   TYR N  11      17.965  70.019  37.878  1.00 61.08 LIG 0.22  HD
ENDBRANCH 19 22
ENDBRANCH 15 16
ENDBRANCH 5 15
ENDBRANCH 1 5
BRANCH 3 24
ATOM     24  CA  ILE N  12      14.760  77.048  30.913  1.00 53.88 LIG 0.18  C 
BRANCH 24 25
ATOM     25  CB  ILE N  12      13.602  76.845  29.928  1.00 53.93 LIG 0.01  C 
ATOM     26  CG2 ILE N  12      12.273  76.700  30.651  1.00 53.11 LIG 0.01  C 
BRANCH 25 27
ATOM     27  CG1 ILE N  12      13.595  77.975  28.888  1.00 51.92 LIG 0.00  C 
ATOM     28  CD1 ILE N  12      12.317  78.743  28.777  1.00 50.97 LIG 0.01  C 
ENDBRANCH 25 27
ENDBRANCH 24 25
BRANCH 24 29
ATOM     29  C   ILE N  12      14.528  78.324  31.712  1.00 53.48 LIG 0.24  C 
ATOM     30  N   LEU N  13      13.788  78.191  32.795  1.00 52.60 LIG-0.34  N 
ATOM     31 H    LEU N  13      13.424  77.448  33.028  1.00 52.60 LIG 0.16  HD
ATOM     32 O    ILE N  12      15.016  79.393  31.361  1.00 54.19 LIG-0.27  OA
BRANCH 30 33
ATOM     33  CA  LEU N  13      13.511  79.294  33.712  1.00 51.71 LIG 0.18  C 
BRANCH 33 34
ATOM     34  C   LEU N  13      12.410  78.902  34.738  1.00 51.36 LIG 0.20  C 
ATOM     35 O    LEU N  13      12.325  77.726  35.172  1.00 50.70 LIG-0.65  OA
ATOM     36 OXT  LEU N  13      11.597  79.754  35.172  1.00 50.18 LIG-0.65  OA
ENDBRANCH 33 34
BRANCH 33 37
ATOM     37  CB  LEU N  13      13.047  80.526  32.915  1.00 52.27 LIG 0.04  C 
BRANCH 37 38
ATOM     38  CG  LEU N  13      11.699  80.596  32.171  1.00 53.15 LIG-0.02  C 
ATOM     39  CD1 LEU N  13      11.857  81.310  30.814  1.00 53.09 LIG 0.01  C 
ATOM     40  CD2 LEU N  13      11.108  79.208  31.994  1.00 52.44 LIG 0.01  C 
ENDBRANCH 37 38
ENDBRANCH 33 37
ENDBRANCH 30 33
ENDBRANCH 24 29
ENDBRANCH 3 24
TORSDOF 14
ENDMDL
MODEL 6
USER: ADFR SOLUTION from run 183
USER: SCORE 16.155831 LL:  -3.220 LR: -13.766 RR:   0.000 FEB:  -9.590
USER: RMSD 6.788421
USER: SEED 182
USER: STATUS no improvement in best in 8 clusters for 5 generations
USER: GENES 16
USER: genes 0 Translation |==|  0.59377 0.52436 0.67966
USER: genes 1 Rotation |==|  0.56436 0.03437 0.40080 0.63857
USER: genes 2 Torsion [N]-C--CA-[N] |==|  0.39019
USER: genes 3 Torsion [C]-CA--N-[C] |==|  0.53889
USER: genes 4 Torsion [N]-C--CA-[CB] |==|  0.11073
USER: genes 5 Torsion [C]-CA--CB-[CG] |==|  0.26733
USER: genes 6 Torsion [CA]-CB--CG-[CD1] |==|  0.81894
USER: genes 7 Torsion [CE2]-CZ--OH-[HH] |==|  0.78806
USER: genes 8 Torsion [C]-N--CA-[C] |==|  0.63386
USER: genes 9 Torsion [N]-CA--CB-[CG2] |==|  0.34353
USER: genes 10 Torsion [CA]-CB--CG1-[CD1] |==|  0.73385
USER: genes 11 Torsion [N]-CA--C-[N] |==|  0.91466
USER: genes 12 Torsion [C]-N--CA-[C] |==|  0.55589
USER: genes 13 Torsion [N]-CA--C-[O] |==|  0.97755
USER: genes 14 Torsion [N]-CA--CB-[CG] |==|  0.80226
USER: genes 15 Torsion [CA]-CB--CG-[CD1] |==|  0.37539
ROOT
ATOM      1  C   TYR N  11      16.497  75.410  33.185  1.00 56.96 LIG 0.24  C 
ATOM      2 O    TYR N  11      17.555  75.708  32.642  1.00 54.60 LIG-0.27  OA
ATOM      3  N   ILE N  12      15.325  75.910  32.812  1.00 55.40 LIG-0.35  N 
ATOM      4 H    ILE N  12      14.600  75.819  33.266  1.00 55.40 LIG 0.16  HD
ENDROOT
BRANCH 1 5
ATOM      5  CA  TYR N  11      16.517  74.454  34.366  1.00 58.62 LIG 0.18  C 
BRANCH 5 6
ATOM      6  N   TYR N  11      17.483  73.407  34.020  1.00 60.03 LIG-0.35  N 
ATOM      7 H    TYR N  11      17.970  73.632  33.347  1.00 60.03 LIG 0.16  HD
ATOM      8  C   PRO N  10      17.642  72.232  34.626  1.00 61.18 LIG 0.25  C 
ATOM      9 O    PRO N  10      16.770  71.674  35.282  1.00 61.93 LIG-0.27  OA
BRANCH 8 10
ATOM     10  CA  PRO N  10      19.002  71.560  34.420  1.00 61.60 LIG 0.35  C 
ATOM     11  CB  PRO N  10      20.150  72.573  34.461  1.00 62.04 LIG 0.05  C 
ATOM     12  CG  PRO N  10      21.229  71.940  33.594  1.00 62.43 LIG 0.04  C 
ATOM     13  CD  PRO N  10      20.516  71.085  32.549  1.00 61.79 LIG 0.32  C 
ATOM     14  N   PRO N  10      19.150  70.941  33.092  1.00 62.25 LIG 0.32  N 
ENDBRANCH 8 10
ENDBRANCH 5 6
BRANCH 5 15
ATOM     15  CB  TYR N  11      17.172  75.276  35.448  1.00 60.02 LIG 0.07  C 
BRANCH 15 16
ATOM     16  CG  TYR N  11      16.333  75.993  36.424  1.00 61.42 LIG-0.06  A 
ATOM     17  CD2 TYR N  11      16.429  75.652  37.767  1.00 63.03 LIG 0.01  A 
ATOM     18  CE2 TYR N  11      15.683  76.298  38.723  1.00 63.91 LIG 0.04  A 
ATOM     19  CZ  TYR N  11      14.827  77.324  38.358  1.00 62.76 LIG 0.07  A 
ATOM     20  CE1 TYR N  11      14.718  77.700  37.012  1.00 63.08 LIG 0.04  A 
ATOM     21  CD1 TYR N  11      15.491  77.036  36.050  1.00 63.28 LIG 0.01  A 
BRANCH 19 22
ATOM     22 OH   TYR N  11      14.097  77.939  39.373  1.00 61.08 LIG-0.36  OA
ATOM     23 HH   TYR N  11      13.462  77.440  39.603  1.00 61.08 LIG 0.22  HD
ENDBRANCH 19 22
ENDBRANCH 15 16
ENDBRANCH 5 15
ENDBRANCH 1 5
BRANCH 3 24
ATOM     24  CA  ILE N  12      15.164  76.674  31.574  1.00 53.88 LIG 0.18  C 
BRANCH 24 25
ATOM     25  CB  ILE N  12      14.441  75.820  30.524  1.00 53.93 LIG 0.01  C 
ATOM     26  CG2 ILE N  12      13.185  76.506  30.015  1.00 53.11 LIG 0.01  C 
BRANCH 25 27
ATOM     27  CG1 ILE N  12      15.414  75.444  29.396  1.00 51.92 LIG 0.00  C 
ATOM     28  CD1 ILE N  12      15.379  76.329  28.191  1.00 50.97 LIG 0.01  C 
ENDBRANCH 25 27
ENDBRANCH 24 25
BRANCH 24 29
ATOM     29  C   ILE N  12      14.401  77.975  31.781  1.00 53.48 LIG 0.24  C 
ATOM     30  N   LEU N  13      13.500  77.960  32.744  1.00 52.60 LIG-0.34  N 
ATOM     31 H    LEU N  13      13.319  77.259  33.208  1.00 52.60 LIG 0.16  HD
ATOM     32 O    ILE N  12      14.631  78.966  31.095  1.00 54.19 LIG-0.27  OA
BRANCH 30 33
ATOM     33  CA  LEU N  13      12.717  79.133  33.122  1.00 51.71 LIG 0.18  C 
BRANCH 33 34
ATOM     34  C   LEU N  13      12.134  78.977  34.555  1.00 51.36 LIG 0.20  C 
ATOM     35 O    LEU N  13      12.229  77.886  35.172  1.00 50.70 LIG-0.65  OA
ATOM     36 OXT  LEU N  13      11.575  79.939  35.136  1.00 50.18 LIG-0.65  OA
ENDBRANCH 33 34
BRANCH 33 37
ATOM     37  CB  LEU N  13      11.563  79.329  32.123  1.00 52.27 LIG 0.04  C 
BRANCH 37 38
ATOM     38  CG  LEU N  13      11.770  79.804  30.672  1.00 53.15 LIG-0.02  C 
ATOM     39  CD1 LEU N  13      10.934  78.957  29.692  1.00 53.09 LIG 0.01  C 
ATOM     40  CD2 LEU N  13      11.442  81.282  30.535  1.00 52.44 LIG 0.01  C 
ENDBRANCH 37 38
ENDBRANCH 33 37
ENDBRANCH 30 33
ENDBRANCH 24 29
ENDBRANCH 3 24
TORSDOF 14
ENDMDL
MODEL 7
USER: ADFR SOLUTION from run 44
USER: SCORE 16.467510 LL:  -3.362 LR: -13.644 RR:   0.000 FEB:  -9.468
USER: RMSD 2.721278
USER: SEED 43
USER: STATUS no improvement in best in 2 clusters for 5 generations
USER: GENES 16
USER: genes 0 Translation |==|  0.53803 0.53891 0.51096
USER: genes 1 Rotation |==|  0.50406 0.47305 0.48284 0.99896
USER: genes 2 Torsion [N]-C--CA-[N] |==|  0.53258
USER: genes 3 Torsion [C]-CA--N-[C] |==|  0.56111
USER: genes 4 Torsion [N]-C--CA-[CB] |==|  0.57311
USER: genes 5 Torsion [C]-CA--CB-[CG] |==|  0.68987
USER: genes 6 Torsion [CA]-CB--CG-[CD1] |==|  0.70024
USER: genes 7 Torsion [CE2]-CZ--OH-[HH] |==|  0.83075
USER: genes 8 Torsion [C]-N--CA-[C] |==|  0.75774
USER: genes 9 Torsion [N]-CA--CB-[CG2] |==|  0.51559
USER: genes 10 Torsion [CA]-CB--CG1-[CD1] |==|  0.78272
USER: genes 11 Torsion [N]-CA--C-[N] |==|  0.43544
USER: genes 12 Torsion [C]-N--CA-[C] |==|  0.58734
USER: genes 13 Torsion [N]-CA--C-[O] |==|  0.94449
USER: genes 14 Torsion [N]-CA--CB-[CG] |==|  0.77560
USER: genes 15 Torsion [CA]-CB--CG-[CD1] |==|  0.34256
ROOT
ATOM      1  C   TYR N  11      15.578  75.694  29.769  1.00 56.96 LIG 0.24  C 
ATOM      2 O    TYR N  11      14.373  75.668  29.543  1.00 54.60 LIG-0.27  OA
ATOM      3  N   ILE N  12      16.088  76.069  30.937  1.00 55.40 LIG-0.35  N 
ATOM      4 H    ILE N  12      16.925  76.223  31.065  1.00 55.40 LIG 0.16  HD
ENDROOT
BRANCH 1 5
ATOM      5  CA  TYR N  11      16.545  75.318  28.659  1.00 58.62 LIG 0.18  C 
BRANCH 5 6
ATOM      6  N   TYR N  11      15.741  75.231  27.437  1.00 60.03 LIG-0.35  N 
ATOM      7 H    TYR N  11      15.010  75.679  27.503  1.00 60.03 LIG 0.16  HD
ATOM      8  C   PRO N  10      16.042  74.560  26.327  1.00 61.18 LIG 0.25  C 
ATOM      9 O    PRO N  10      16.808  73.603  26.288  1.00 61.93 LIG-0.27  OA
BRANCH 8 10
ATOM     10  CA  PRO N  10      15.325  75.026  25.057  1.00 61.60 LIG 0.35  C 
ATOM     11  CB  PRO N  10      15.195  73.898  24.029  1.00 62.04 LIG 0.05  C 
ATOM     12  CG  PRO N  10      15.145  74.622  22.693  1.00 62.43 LIG 0.04  C 
ATOM     13  CD  PRO N  10      15.946  75.913  22.855  1.00 61.79 LIG 0.32  C 
ATOM     14  N   PRO N  10      16.063  76.066  24.320  1.00 62.25 LIG 0.32  N 
ENDBRANCH 8 10
ENDBRANCH 5 6
BRANCH 5 15
ATOM     15  CB  TYR N  11      17.382  76.565  28.513  1.00 60.02 LIG 0.07  C 
BRANCH 15 16
ATOM     16  CG  TYR N  11      17.269  77.376  27.289  1.00 61.42 LIG-0.06  A 
ATOM     17  CD2 TYR N  11      16.144  78.174  27.117  1.00 63.03 LIG 0.01  A 
ATOM     18  CE2 TYR N  11      15.992  78.964  26.004  1.00 63.91 LIG 0.04  A 
ATOM     19  CZ  TYR N  11      16.979  78.991  25.032  1.00 62.76 LIG 0.07  A 
ATOM     20  CE1 TYR N  11      18.131  78.207  25.183  1.00 63.08 LIG 0.04  A 
ATOM     21  CD1 TYR N  11      18.275  77.411  26.328  1.00 63.28 LIG 0.01  A 
BRANCH 19 22
ATOM     22 OH   TYR N  11      16.767  79.810  23.926  1.00 61.08 LIG-0.36  OA
ATOM     23 HH   TYR N  11      16.075  79.560  23.521  1.00 61.08 LIG 0.22  HD
ENDBRANCH 19 22
ENDBRANCH 15 16
ENDBRANCH 5 15
ENDBRANCH 1 5
BRANCH 3 24
ATOM     24  CA  ILE N  12      15.255  76.255  32.125  1.00 53.88 LIG 0.18  C 
BRANCH 24 25
ATOM     25  CB  ILE N  12      16.073  75.957  33.388  1.00 53.93 LIG 0.01  C 
ATOM     26  CG2 ILE N  12      15.208  76.005  34.637  1.00 53.11 LIG 0.01  C 
BRANCH 25 27
ATOM     27  CG1 ILE N  12      16.815  74.622  33.229  1.00 51.92 LIG 0.00  C 
ATOM     28  CD1 ILE N  12      15.986  73.393  33.429  1.00 50.97 LIG 0.01  C 
ENDBRANCH 25 27
ENDBRANCH 24 25
BRANCH 24 29
ATOM     29  C   ILE N  12      14.670  77.658  32.219  1.00 53.48 LIG 0.24  C 
ATOM     30  N   LEU N  13      13.576  77.772  32.946  1.00 52.60 LIG-0.34  N 
ATOM     31 H    LEU N  13      13.186  77.101  33.318  1.00 52.60 LIG 0.16  HD
ATOM     32 O    ILE N  12      15.203  78.609  31.658  1.00 54.19 LIG-0.27  OA
BRANCH 30 33
ATOM     33  CA  LEU N  13      12.913  79.049  33.194  1.00 51.71 LIG 0.18  C 
BRANCH 33 34
ATOM     34  C   LEU N  13      12.222  79.057  34.587  1.00 51.36 LIG 0.20  C 
ATOM     35 O    LEU N  13      11.947  77.981  35.175  1.00 50.70 LIG-0.65  OA
ATOM     36 OXT  LEU N  13      11.941  80.136  35.165  1.00 50.18 LIG-0.65  OA
ENDBRANCH 33 34
BRANCH 33 37
ATOM     37  CB  LEU N  13      11.859  79.306  32.103  1.00 52.27 LIG 0.04  C 
BRANCH 37 38
ATOM     38  CG  LEU N  13      12.202  79.860  30.706  1.00 53.15 LIG-0.02  C 
ATOM     39  CD1 LEU N  13      11.709  78.907  29.600  1.00 53.09 LIG 0.01  C 
ATOM     40  CD2 LEU N  13      11.627  81.255  30.523  1.00 52.44 LIG 0.01  C 
ENDBRANCH 37 38
ENDBRANCH 33 37
ENDBRANCH 30 33
ENDBRANCH 24 29
ENDBRANCH 3 24
TORSDOF 14
ENDMDL
