MODEL 1
USER: ADFR SOLUTION from run 142
USER: SCORE 17.918464 LL:  -1.616 LR: -18.216 RR:   0.000 FEB: -11.952
USER: RMSD 6.419749
USER: SEED 141
USER: STATUS searching
USER: GENES 23
USER: genes 0 Translation |==|  0.42988 0.60805 0.45325
USER: genes 1 Rotation |==|  0.41767 0.28035 0.06335 0.56568
USER: genes 2 Torsion [CB]-CA--N-[C] |==|  0.54106
USER: genes 3 Torsion [N]-C--CA-[N] |==|  0.96927
USER: genes 4 Torsion [C]-CA--CB-[CG] |==|  0.89904
USER: genes 5 Torsion [CA]-CB--CG-[CD] |==|  0.25439
USER: genes 6 Torsion [CB]-CG--CD-[OE1] |==|  0.07968
USER: genes 7 Torsion [C]-CA--N-[C] |==|  0.81662
USER: genes 8 Torsion [N]-C--CA-[N] |==|  0.12412
USER: genes 9 Torsion [C]-CA--CB-[CG] |==|  0.46718
USER: genes 10 Torsion [CA]-CB--CG-[SD] |==|  0.82821
USER: genes 11 Torsion [CB]-CG--SD-[CE] |==|  0.70791
USER: genes 12 Torsion [N]-CA--C-[N] |==|  0.80618
USER: genes 13 Torsion [C]-N--CA-[CB] |==|  0.48426
USER: genes 14 Torsion [N]-CA--CB-[CG1] |==|  0.84702
USER: genes 15 Torsion [N]-CA--C-[N] |==|  0.38679
USER: genes 16 Torsion [C]-N--CA-[CB] |==|  0.31735
USER: genes 17 Torsion [N]-CA--CB-[CG] |==|  0.87126
USER: genes 18 Torsion [CA]-CB--CG-[OD2] |==|  0.74014
USER: genes 19 Torsion [N]-CA--C-[O] |==|  0.07728
USER: genes 20 Torsion [N]-CA--CB-[CG] |==|  0.75514
USER: genes 21 Torsion [CA]-CB--CG-[CD] |==|  0.80231
USER: genes 22 Torsion [CB]-CG--CD-[OE2] |==|  0.21467
ROOT
ATOM      1  CA  GLU Q 707      -3.058  21.079  54.575  1.00 49.62 LIG 0.18  C 
ENDROOT
BRANCH 1 2
ATOM      2  N   GLU Q 707      -3.322  19.630  54.575  1.00 50.42 LIG-0.35  N 
ATOM      3 H    GLU Q 707      -3.988  19.393  54.086  1.00 50.42 LIG 0.16  HD
ATOM      4  C   GLU Q 706      -2.583  18.780  55.275  1.00 51.37 LIG 0.24  C 
ATOM      5 O    GLU Q 706      -1.661  19.164  55.989  1.00 51.66 LIG-0.27  OA
BRANCH 4 6
ATOM      6  CA  GLU Q 706      -2.927  17.267  55.135  1.00 52.25 LIG 0.18  C 
BRANCH 6 7
ATOM      7  CB  GLU Q 706      -1.786  16.547  54.394  1.00 52.83 LIG 0.04  C 
BRANCH 7 8
ATOM      8  CG  GLU Q 706      -1.130  17.383  53.274  1.00 56.79 LIG 0.12  C 
BRANCH 8 9
ATOM      9  CD  GLU Q 706       0.096  18.214  53.735  1.00 61.53 LIG 0.17  C 
ATOM     10 OE1  GLU Q 706       0.793  17.797  54.698  1.00 62.14 LIG-0.65  OA
ATOM     11 OE2  GLU Q 706       0.349  19.294  53.128  1.00 62.79 LIG-0.65  OA
ENDBRANCH 8 9
ENDBRANCH 7 8
ENDBRANCH 6 7
BRANCH 6 12
ATOM     12  N   GLU Q 706      -4.206  17.038  54.430  1.00 51.83 LIG-0.35  N 
ATOM     13 H    GLU Q 706      -4.107  16.646  53.671  1.00 51.83 LIG 0.16  HD
ATOM     14  C   MET Q 705      -5.409  17.394  54.904  1.00 52.04 LIG 0.26  C 
ATOM     15 O    MET Q 705      -5.598  17.863  56.034  1.00 51.63 LIG-0.27  OA
BRANCH 14 16
ATOM     16  CA  MET Q 705      -6.594  17.202  53.956  1.00 52.15 LIG 0.40  C 
ATOM     17  N   MET Q 705      -6.543  15.871  53.267  1.00 52.08 LIG 0.61  N 
BRANCH 16 18
ATOM     18  CB  MET Q 705      -7.922  17.415  54.693  1.00 52.13 LIG 0.06  C 
BRANCH 18 19
ATOM     19  CG  MET Q 705      -9.145  17.525  53.782  1.00 53.37 LIG 0.08  C 
BRANCH 19 20
ATOM     20 SD   MET Q 705      -9.096  18.932  52.631  1.00 56.30 LIG-0.17  SA
ATOM     21  CE  MET Q 705     -10.263  20.065  53.377  1.00 57.25 LIG 0.09  C 
ENDBRANCH 19 20
ENDBRANCH 18 19
ENDBRANCH 16 18
ENDBRANCH 14 16
ENDBRANCH 6 12
ENDBRANCH 4 6
ENDBRANCH 1 2
BRANCH 1 22
ATOM     22  C   GLU Q 707      -2.790  21.576  56.003  1.00 47.30 LIG 0.24  C 
ATOM     23  N   VAL Q 708      -3.826  21.586  56.839  1.00 45.52 LIG-0.35  N 
ATOM     24 H    VAL Q 708      -4.641  21.459  56.594  1.00 45.52 LIG 0.16  HD
ATOM     25 O    GLU Q 707      -1.653  21.921  56.335  1.00 46.84 LIG-0.27  OA
BRANCH 23 26
ATOM     26  CA  VAL Q 708      -3.654  21.822  58.282  1.00 44.03 LIG 0.18  C 
BRANCH 26 27
ATOM     27  CB  VAL Q 708      -5.006  21.924  59.007  1.00 43.64 LIG 0.01  C 
ATOM     28  CG1 VAL Q 708      -5.866  23.000  58.349  1.00 41.62 LIG 0.01  C 
ATOM     29  CG2 VAL Q 708      -5.725  20.579  58.985  1.00 42.17 LIG 0.01  C 
ENDBRANCH 26 27
BRANCH 26 30
ATOM     30  C   VAL Q 708      -2.760  20.741  58.913  1.00 43.98 LIG 0.24  C 
ATOM     31 O    VAL Q 708      -2.853  19.578  58.546  1.00 43.91 LIG-0.27  OA
ATOM     32  N   ASP Q 709      -1.870  21.143  59.818  1.00 43.53 LIG-0.34  N 
ATOM     33 H    ASP Q 709      -1.779  21.966  60.053  1.00 43.53 LIG 0.16  HD
BRANCH 32 34
ATOM     34  CA  ASP Q 709      -0.950  20.229  60.510  1.00 43.18 LIG 0.20  C 
BRANCH 34 35
ATOM     35  CB  ASP Q 709       0.482  20.529  60.109  1.00 43.21 LIG 0.15  C 
BRANCH 35 36
ATOM     36  CG  ASP Q 709       0.649  20.695  58.627  1.00 45.24 LIG 0.17  C 
ATOM     37 OD2  ASP Q 709       0.982  19.671  57.976  1.00 45.66 LIG-0.65  OA
ATOM     38 OD1  ASP Q 709       0.416  21.836  58.131  1.00 45.75 LIG-0.65  OA
ENDBRANCH 35 36
ENDBRANCH 34 35
BRANCH 34 39
ATOM     39  C   ASP Q 709      -1.010  20.368  62.042  1.00 42.83 LIG 0.20  C 
ATOM     40 O    ASP Q 709      -2.033  20.747  62.608  1.00 42.06 LIG-0.65  OA
ATOM     41 OXT  ASP Q 709      -0.003  20.163  62.741  1.00 42.11 LIG-0.65  OA
ENDBRANCH 34 39
ENDBRANCH 32 34
ENDBRANCH 26 30
ENDBRANCH 23 26
ENDBRANCH 1 22
BRANCH 1 42
ATOM     42  CB  GLU Q 707      -4.263  21.839  53.993  1.00 49.18 LIG 0.04  C 
BRANCH 42 43
ATOM     43  CG  GLU Q 707      -4.244  22.024  52.461  1.00 51.82 LIG 0.12  C 
BRANCH 43 44
ATOM     44  CD  GLU Q 707      -3.173  23.035  51.997  1.00 52.55 LIG 0.17  C 
ATOM     45 OE2  GLU Q 707      -1.976  22.671  51.958  1.00 56.45 LIG-0.65  OA
ATOM     46 OE1  GLU Q 707      -3.525  24.204  51.689  1.00 56.78 LIG-0.65  OA
ENDBRANCH 43 44
ENDBRANCH 42 43
ENDBRANCH 1 42
TORSDOF 21
ENDMDL
MODEL 2
USER: ADFR SOLUTION from run 24
USER: SCORE 18.551463 LL:  -2.317 LR: -17.852 RR:   0.000 FEB: -11.588
USER: RMSD 6.721145
USER: SEED 23
USER: STATUS no improvement in best in 2 clusters for 5 generations
USER: GENES 23
USER: genes 0 Translation |==|  0.39804 0.56916 0.45290
USER: genes 1 Rotation |==|  0.62912 0.75128 0.90666 0.56934
USER: genes 2 Torsion [CB]-CA--N-[C] |==|  0.20513
USER: genes 3 Torsion [N]-C--CA-[N] |==|  0.95396
USER: genes 4 Torsion [C]-CA--CB-[CG] |==|  0.44210
USER: genes 5 Torsion [CA]-CB--CG-[CD] |==|  0.49822
USER: genes 6 Torsion [CB]-CG--CD-[OE1] |==|  0.75731
USER: genes 7 Torsion [C]-CA--N-[C] |==|  0.84297
USER: genes 8 Torsion [N]-C--CA-[N] |==|  0.94739
USER: genes 9 Torsion [C]-CA--CB-[CG] |==|  0.41478
USER: genes 10 Torsion [CA]-CB--CG-[SD] |==|  0.38636
USER: genes 11 Torsion [CB]-CG--SD-[CE] |==|  0.93651
USER: genes 12 Torsion [N]-CA--C-[N] |==|  0.90008
USER: genes 13 Torsion [C]-N--CA-[CB] |==|  0.48889
USER: genes 14 Torsion [N]-CA--CB-[CG1] |==|  0.81220
USER: genes 15 Torsion [N]-CA--C-[N] |==|  0.45557
USER: genes 16 Torsion [C]-N--CA-[CB] |==|  0.28034
USER: genes 17 Torsion [N]-CA--CB-[CG] |==|  0.84967
USER: genes 18 Torsion [CA]-CB--CG-[OD2] |==|  0.25646
USER: genes 19 Torsion [N]-CA--C-[O] |==|  0.07530
USER: genes 20 Torsion [N]-CA--CB-[CG] |==|  0.68001
USER: genes 21 Torsion [CA]-CB--CG-[CD] |==|  0.79613
USER: genes 22 Torsion [CB]-CG--CD-[OE2] |==|  0.71555
ROOT
ATOM      1  CA  GLU Q 707      -3.703  20.437  54.567  1.00 49.62 LIG 0.18  C 
ENDROOT
BRANCH 1 2
ATOM      2  N   GLU Q 707      -4.661  19.365  54.887  1.00 50.42 LIG-0.35  N 
ATOM      3 H    GLU Q 707      -4.965  19.393  55.690  1.00 50.42 LIG 0.16  HD
ATOM      4  C   GLU Q 706      -5.010  18.445  53.999  1.00 51.37 LIG 0.24  C 
ATOM      5 O    GLU Q 706      -4.523  18.419  52.872  1.00 51.66 LIG-0.27  OA
BRANCH 4 6
ATOM      6  CA  GLU Q 706      -6.082  17.406  54.444  1.00 52.25 LIG 0.18  C 
BRANCH 6 7
ATOM      7  CB  GLU Q 706      -7.424  17.728  53.762  1.00 52.83 LIG 0.04  C 
BRANCH 7 8
ATOM      8  CG  GLU Q 706      -8.407  16.539  53.700  1.00 56.79 LIG 0.12  C 
BRANCH 8 9
ATOM      9  CD  GLU Q 706      -9.764  16.869  53.026  1.00 61.53 LIG 0.17  C 
ATOM     10 OE1  GLU Q 706     -10.700  17.339  53.728  1.00 62.14 LIG-0.65  OA
ATOM     11 OE2  GLU Q 706      -9.888  16.645  51.788  1.00 62.79 LIG-0.65  OA
ENDBRANCH 8 9
ENDBRANCH 7 8
ENDBRANCH 6 7
BRANCH 6 12
ATOM     12  N   GLU Q 706      -6.262  17.369  55.911  1.00 51.83 LIG-0.35  N 
ATOM     13 H    GLU Q 706      -7.074  17.514  56.155  1.00 51.83 LIG 0.16  HD
ATOM     14  C   MET Q 705      -5.278  17.137  56.791  1.00 52.04 LIG 0.26  C 
ATOM     15 O    MET Q 705      -4.123  16.824  56.474  1.00 51.63 LIG-0.27  OA
BRANCH 14 16
ATOM     16  CA  MET Q 705      -5.642  17.287  58.270  1.00 52.15 LIG 0.40  C 
ATOM     17  N   MET Q 705      -6.890  18.097  58.454  1.00 52.08 LIG 0.61  N 
BRANCH 16 18
ATOM     18  CB  MET Q 705      -5.742  15.916  58.949  1.00 52.13 LIG 0.06  C 
BRANCH 18 19
ATOM     19  CG  MET Q 705      -5.370  15.911  60.432  1.00 53.37 LIG 0.08  C 
BRANCH 19 20
ATOM     20 SD   MET Q 705      -6.451  14.884  61.471  1.00 56.30 LIG-0.17  SA
ATOM     21  CE  MET Q 705      -7.944  14.802  60.489  1.00 57.25 LIG 0.09  C 
ENDBRANCH 19 20
ENDBRANCH 18 19
ENDBRANCH 16 18
ENDBRANCH 14 16
ENDBRANCH 6 12
ENDBRANCH 4 6
ENDBRANCH 1 2
BRANCH 1 22
ATOM     22  C   GLU Q 707      -3.215  21.122  55.852  1.00 47.30 LIG 0.24  C 
ATOM     23  N   VAL Q 708      -4.104  21.259  56.833  1.00 45.52 LIG-0.35  N 
ATOM     24 H    VAL Q 708      -4.946  21.109  56.741  1.00 45.52 LIG 0.16  HD
ATOM     25 O    GLU Q 707      -2.043  21.496  55.947  1.00 46.84 LIG-0.27  OA
BRANCH 23 26
ATOM     26  CA  VAL Q 708      -3.707  21.690  58.184  1.00 44.03 LIG 0.18  C 
BRANCH 26 27
ATOM     27  CB  VAL Q 708      -4.923  21.867  59.106  1.00 43.64 LIG 0.01  C 
ATOM     28  CG1 VAL Q 708      -5.764  23.049  58.632  1.00 41.62 LIG 0.01  C 
ATOM     29  CG2 VAL Q 708      -5.761  20.592  59.133  1.00 42.17 LIG 0.01  C 
ENDBRANCH 26 27
BRANCH 26 30
ATOM     30  C   VAL Q 708      -2.680  20.717  58.790  1.00 43.98 LIG 0.24  C 
ATOM     31 O    VAL Q 708      -2.491  19.625  58.273  1.00 43.91 LIG-0.27  OA
ATOM     32  N   ASP Q 709      -1.993  21.142  59.849  1.00 43.53 LIG-0.34  N 
ATOM     33 H    ASP Q 709      -2.100  21.923  60.193  1.00 43.53 LIG 0.16  HD
BRANCH 32 34
ATOM     34  CA  ASP Q 709      -0.983  20.327  60.539  1.00 43.18 LIG 0.20  C 
BRANCH 34 35
ATOM     35  CB  ASP Q 709       0.409  20.750  60.110  1.00 43.21 LIG 0.15  C 
BRANCH 35 36
ATOM     36  CG  ASP Q 709       0.591  20.728  58.621  1.00 45.24 LIG 0.17  C 
ATOM     37 OD2  ASP Q 709       0.361  21.801  58.006  1.00 45.66 LIG-0.65  OA
ATOM     38 OD1  ASP Q 709       0.991  19.650  58.091  1.00 45.75 LIG-0.65  OA
ENDBRANCH 35 36
ENDBRANCH 34 35
BRANCH 34 39
ATOM     39  C   ASP Q 709      -1.034  20.485  62.070  1.00 42.83 LIG 0.20  C 
ATOM     40 O    ASP Q 709      -2.075  20.790  62.645  1.00 42.06 LIG-0.65  OA
ATOM     41 OXT  ASP Q 709      -0.004  20.370  62.756  1.00 42.11 LIG-0.65  OA
ENDBRANCH 34 39
ENDBRANCH 32 34
ENDBRANCH 26 30
ENDBRANCH 23 26
ENDBRANCH 1 22
BRANCH 1 42
ATOM     42  CB  GLU Q 707      -4.362  21.486  53.654  1.00 49.18 LIG 0.04  C 
BRANCH 42 43
ATOM     43  CG  GLU Q 707      -3.755  21.600  52.240  1.00 51.82 LIG 0.12  C 
BRANCH 43 44
ATOM     44  CD  GLU Q 707      -2.377  22.296  52.239  1.00 52.55 LIG 0.17  C 
ATOM     45 OE2  GLU Q 707      -2.304  23.492  51.876  1.00 56.45 LIG-0.65  OA
ATOM     46 OE1  GLU Q 707      -1.358  21.641  52.584  1.00 56.78 LIG-0.65  OA
ENDBRANCH 43 44
ENDBRANCH 42 43
ENDBRANCH 1 42
TORSDOF 21
ENDMDL
MODEL 3
USER: ADFR SOLUTION from run 104
USER: SCORE 17.205368 LL:  -1.713 LR: -17.593 RR:   0.000 FEB: -11.329
USER: RMSD 7.047642
USER: SEED 103
USER: STATUS no improvement in best in 4 clusters for 5 generations
USER: GENES 23
USER: genes 0 Translation |==|  0.41247 0.53002 0.44677
USER: genes 1 Rotation |==|  0.57678 0.82489 0.84880 0.62995
USER: genes 2 Torsion [CB]-CA--N-[C] |==|  0.17473
USER: genes 3 Torsion [N]-C--CA-[N] |==|  0.92397
USER: genes 4 Torsion [C]-CA--CB-[CG] |==|  0.38757
USER: genes 5 Torsion [CA]-CB--CG-[CD] |==|  0.50774
USER: genes 6 Torsion [CB]-CG--CD-[OE1] |==|  0.34840
USER: genes 7 Torsion [C]-CA--N-[C] |==|  0.85249
USER: genes 8 Torsion [N]-C--CA-[N] |==|  0.01165
USER: genes 9 Torsion [C]-CA--CB-[CG] |==|  0.83565
USER: genes 10 Torsion [CA]-CB--CG-[SD] |==|  0.66353
USER: genes 11 Torsion [CB]-CG--SD-[CE] |==|  0.35090
USER: genes 12 Torsion [N]-CA--C-[N] |==|  0.94625
USER: genes 13 Torsion [C]-N--CA-[CB] |==|  0.55348
USER: genes 14 Torsion [N]-CA--CB-[CG1] |==|  0.73639
USER: genes 15 Torsion [N]-CA--C-[N] |==|  0.74608
USER: genes 16 Torsion [C]-N--CA-[CB] |==|  0.51780
USER: genes 17 Torsion [N]-CA--CB-[CG] |==|  0.73832
USER: genes 18 Torsion [CA]-CB--CG-[OD2] |==|  0.21320
USER: genes 19 Torsion [N]-CA--C-[O] |==|  0.82136
USER: genes 20 Torsion [N]-CA--CB-[CG] |==|  0.59546
USER: genes 21 Torsion [CA]-CB--CG-[CD] |==|  0.81189
USER: genes 22 Torsion [CB]-CG--CD-[OE2] |==|  0.25848
ROOT
ATOM      1  CA  GLU Q 707      -3.410  19.791  54.429  1.00 49.62 LIG 0.18  C 
ENDROOT
BRANCH 1 2
ATOM      2  N   GLU Q 707      -4.502  18.972  54.983  1.00 50.42 LIG-0.35  N 
ATOM      3 H    GLU Q 707      -4.841  19.281  55.709  1.00 50.42 LIG 0.16  HD
ATOM      4  C   GLU Q 706      -4.911  17.855  54.397  1.00 51.37 LIG 0.24  C 
ATOM      5 O    GLU Q 706      -4.374  17.428  53.379  1.00 51.66 LIG-0.27  OA
BRANCH 4 6
ATOM      6  CA  GLU Q 706      -6.118  17.117  55.050  1.00 52.25 LIG 0.18  C 
BRANCH 6 7
ATOM      7  CB  GLU Q 706      -7.421  17.547  54.353  1.00 52.83 LIG 0.04  C 
BRANCH 7 8
ATOM      8  CG  GLU Q 706      -8.423  16.397  54.114  1.00 56.79 LIG 0.12  C 
BRANCH 8 9
ATOM      9  CD  GLU Q 706      -9.706  16.819  53.351  1.00 61.53 LIG 0.17  C 
ATOM     10 OE1  GLU Q 706     -10.029  16.199  52.303  1.00 62.14 LIG-0.65  OA
ATOM     11 OE2  GLU Q 706     -10.383  17.785  53.807  1.00 62.79 LIG-0.65  OA
ENDBRANCH 8 9
ENDBRANCH 7 8
ENDBRANCH 6 7
BRANCH 6 12
ATOM     12  N   GLU Q 706      -6.219  17.371  56.503  1.00 51.83 LIG-0.35  N 
ATOM     13 H    GLU Q 706      -6.996  17.653  56.742  1.00 51.83 LIG 0.16  HD
ATOM     14  C   MET Q 705      -5.220  17.187  57.378  1.00 52.04 LIG 0.26  C 
ATOM     15 O    MET Q 705      -4.127  16.686  57.086  1.00 51.63 LIG-0.27  OA
BRANCH 14 16
ATOM     16  CA  MET Q 705      -5.483  17.647  58.813  1.00 52.15 LIG 0.40  C 
ATOM     17  N   MET Q 705      -6.888  18.140  58.989  1.00 52.08 LIG 0.61  N 
BRANCH 16 18
ATOM     18  CB  MET Q 705      -5.135  16.538  59.814  1.00 52.13 LIG 0.06  C 
BRANCH 18 19
ATOM     19  CG  MET Q 705      -5.916  15.237  59.619  1.00 53.37 LIG 0.08  C 
BRANCH 19 20
ATOM     20 SD   MET Q 705      -6.893  14.728  61.065  1.00 56.30 LIG-0.17  SA
ATOM     21  CE  MET Q 705      -8.523  14.521  60.359  1.00 57.25 LIG 0.09  C 
ENDBRANCH 19 20
ENDBRANCH 18 19
ENDBRANCH 16 18
ENDBRANCH 14 16
ENDBRANCH 6 12
ENDBRANCH 4 6
ENDBRANCH 1 2
BRANCH 1 22
ATOM     22  C   GLU Q 707      -3.096  20.968  55.364  1.00 47.30 LIG 0.24  C 
ATOM     23  N   VAL Q 708      -4.037  21.305  56.242  1.00 45.52 LIG-0.35  N 
ATOM     24 H    VAL Q 708      -4.840  20.994  56.228  1.00 45.52 LIG 0.16  HD
ATOM     25 O    GLU Q 707      -2.005  21.540  55.293  1.00 46.84 LIG-0.27  OA
BRANCH 23 26
ATOM     26  CA  VAL Q 708      -3.773  22.258  57.334  1.00 44.03 LIG 0.18  C 
BRANCH 26 27
ATOM     27  CB  VAL Q 708      -4.809  22.132  58.463  1.00 43.64 LIG 0.01  C 
ATOM     28  CG1 VAL Q 708      -5.926  23.151  58.255  1.00 41.62 LIG 0.01  C 
ATOM     29  CG2 VAL Q 708      -5.377  20.717  58.508  1.00 42.17 LIG 0.01  C 
ENDBRANCH 26 27
BRANCH 26 30
ATOM     30  C   VAL Q 708      -2.339  22.098  57.867  1.00 43.98 LIG 0.24  C 
ATOM     31 O    VAL Q 708      -1.429  22.760  57.387  1.00 43.91 LIG-0.27  OA
ATOM     32  N   ASP Q 709      -2.161  21.259  58.886  1.00 43.53 LIG-0.34  N 
ATOM     33 H    ASP Q 709      -2.805  20.818  59.247  1.00 43.53 LIG 0.16  HD
BRANCH 32 34
ATOM     34  CA  ASP Q 709      -0.851  20.997  59.499  1.00 43.18 LIG 0.20  C 
BRANCH 34 35
ATOM     35  CB  ASP Q 709      -0.968  19.882  60.521  1.00 43.21 LIG 0.15  C 
BRANCH 35 36
ATOM     36  CG  ASP Q 709      -1.189  20.392  61.916  1.00 45.24 LIG 0.17  C 
ATOM     37 OD2  ASP Q 709      -2.347  20.795  62.196  1.00 45.66 LIG-0.65  OA
ATOM     38 OD1  ASP Q 709      -0.211  20.354  62.719  1.00 45.75 LIG-0.65  OA
ENDBRANCH 35 36
ENDBRANCH 34 35
BRANCH 34 39
ATOM     39  C   ASP Q 709       0.206  20.540  58.477  1.00 42.83 LIG 0.20  C 
ATOM     40 O    ASP Q 709       0.086  19.480  57.867  1.00 42.06 LIG-0.65  OA
ATOM     41 OXT  ASP Q 709       1.241  21.202  58.292  1.00 42.11 LIG-0.65  OA
ENDBRANCH 34 39
ENDBRANCH 32 34
ENDBRANCH 26 30
ENDBRANCH 23 26
ENDBRANCH 1 22
BRANCH 1 42
ATOM     42  CB  GLU Q 707      -3.804  20.336  53.045  1.00 49.18 LIG 0.04  C 
BRANCH 42 43
ATOM     43  CG  GLU Q 707      -2.644  20.461  52.035  1.00 51.82 LIG 0.12  C 
BRANCH 43 44
ATOM     44  CD  GLU Q 707      -1.622  21.547  52.435  1.00 52.55 LIG 0.17  C 
ATOM     45 OE2  GLU Q 707      -0.620  21.216  53.107  1.00 56.45 LIG-0.65  OA
ATOM     46 OE1  GLU Q 707      -1.830  22.742  52.093  1.00 56.78 LIG-0.65  OA
ENDBRANCH 43 44
ENDBRANCH 42 43
ENDBRANCH 1 42
TORSDOF 21
ENDMDL
MODEL 4
USER: ADFR SOLUTION from run 54
USER: SCORE 17.074910 LL:  -1.784 LR: -17.262 RR:   0.000 FEB: -10.998
USER: RMSD 6.730462
USER: SEED 53
USER: STATUS no improvement in best in 9 clusters for 5 generations
USER: GENES 23
USER: genes 0 Translation |==|  0.42687 0.60074 0.45132
USER: genes 1 Rotation |==|  0.42802 0.27955 0.07351 0.61969
USER: genes 2 Torsion [CB]-CA--N-[C] |==|  0.54680
USER: genes 3 Torsion [N]-C--CA-[N] |==|  0.85892
USER: genes 4 Torsion [C]-CA--CB-[CG] |==|  0.23114
USER: genes 5 Torsion [CA]-CB--CG-[CD] |==|  0.82459
USER: genes 6 Torsion [CB]-CG--CD-[OE1] |==|  0.89121
USER: genes 7 Torsion [C]-CA--N-[C] |==|  0.83740
USER: genes 8 Torsion [N]-C--CA-[N] |==|  0.88548
USER: genes 9 Torsion [C]-CA--CB-[CG] |==|  0.25242
USER: genes 10 Torsion [CA]-CB--CG-[SD] |==|  0.01461
USER: genes 11 Torsion [CB]-CG--SD-[CE] |==|  0.39472
USER: genes 12 Torsion [N]-CA--C-[N] |==|  0.78772
USER: genes 13 Torsion [C]-N--CA-[CB] |==|  0.48995
USER: genes 14 Torsion [N]-CA--CB-[CG1] |==|  0.83534
USER: genes 15 Torsion [N]-CA--C-[N] |==|  0.40806
USER: genes 16 Torsion [C]-N--CA-[CB] |==|  0.30134
USER: genes 17 Torsion [N]-CA--CB-[CG] |==|  0.83386
USER: genes 18 Torsion [CA]-CB--CG-[OD2] |==|  0.79512
USER: genes 19 Torsion [N]-CA--C-[O] |==|  0.57051
USER: genes 20 Torsion [N]-CA--CB-[CG] |==|  0.72496
USER: genes 21 Torsion [CA]-CB--CG-[CD] |==|  0.84503
USER: genes 22 Torsion [CB]-CG--CD-[OE2] |==|  0.71128
ROOT
ATOM      1  CA  GLU Q 707      -3.119  20.958  54.532  1.00 49.62 LIG 0.18  C 
ENDROOT
BRANCH 1 2
ATOM      2  N   GLU Q 707      -3.071  19.486  54.509  1.00 50.42 LIG-0.35  N 
ATOM      3 H    GLU Q 707      -3.687  19.121  54.033  1.00 50.42 LIG 0.16  HD
ATOM      4  C   GLU Q 706      -2.148  18.802  55.171  1.00 51.37 LIG 0.24  C 
ATOM      5 O    GLU Q 706      -1.307  19.361  55.868  1.00 51.66 LIG-0.27  OA
BRANCH 4 6
ATOM      6  CA  GLU Q 706      -2.169  17.252  55.009  1.00 52.25 LIG 0.18  C 
BRANCH 6 7
ATOM      7  CB  GLU Q 706      -1.684  16.876  53.597  1.00 52.83 LIG 0.04  C 
BRANCH 7 8
ATOM      8  CG  GLU Q 706      -0.149  16.816  53.448  1.00 56.79 LIG 0.12  C 
BRANCH 8 9
ATOM      9  CD  GLU Q 706       0.567  18.172  53.682  1.00 61.53 LIG 0.17  C 
ATOM     10 OE1  GLU Q 706       0.037  19.229  53.247  1.00 62.14 LIG-0.65  OA
ATOM     11 OE2  GLU Q 706       1.671  18.167  54.298  1.00 62.79 LIG-0.65  OA
ENDBRANCH 8 9
ENDBRANCH 7 8
ENDBRANCH 6 7
BRANCH 6 12
ATOM     12  N   GLU Q 706      -3.508  16.674  55.250  1.00 51.83 LIG-0.35  N 
ATOM     13 H    GLU Q 706      -3.812  16.235  54.576  1.00 51.83 LIG 0.16  HD
ATOM     14  C   MET Q 705      -4.198  16.807  56.392  1.00 52.04 LIG 0.26  C 
ATOM     15 O    MET Q 705      -3.751  17.341  57.414  1.00 51.63 LIG-0.27  OA
BRANCH 14 16
ATOM     16  CA  MET Q 705      -5.627  16.259  56.387  1.00 52.15 LIG 0.40  C 
ATOM     17  N   MET Q 705      -6.338  16.575  55.106  1.00 52.08 LIG 0.61  N 
BRANCH 16 18
ATOM     18  CB  MET Q 705      -5.636  14.756  56.692  1.00 52.13 LIG 0.06  C 
BRANCH 18 19
ATOM     19  CG  MET Q 705      -5.771  14.407  58.175  1.00 53.37 LIG 0.08  C 
BRANCH 19 20
ATOM     20 SD   MET Q 705      -6.044  15.841  59.258  1.00 56.30 LIG-0.17  SA
ATOM     21  CE  MET Q 705      -7.202  15.189  60.455  1.00 57.25 LIG 0.09  C 
ENDBRANCH 19 20
ENDBRANCH 18 19
ENDBRANCH 16 18
ENDBRANCH 14 16
ENDBRANCH 6 12
ENDBRANCH 4 6
ENDBRANCH 1 2
BRANCH 1 22
ATOM     22  C   GLU Q 707      -2.867  21.482  55.953  1.00 47.30 LIG 0.24  C 
ATOM     23  N   VAL Q 708      -3.875  21.383  56.816  1.00 45.52 LIG-0.35  N 
ATOM     24 H    VAL Q 708      -4.679  21.171  56.592  1.00 45.52 LIG 0.16  HD
ATOM     25 O    GLU Q 707      -1.764  21.945  56.255  1.00 46.84 LIG-0.27  OA
BRANCH 23 26
ATOM     26  CA  VAL Q 708      -3.692  21.637  58.255  1.00 44.03 LIG 0.18  C 
BRANCH 26 27
ATOM     27  CB  VAL Q 708      -5.019  21.547  59.023  1.00 43.64 LIG 0.01  C 
ATOM     28  CG1 VAL Q 708      -6.009  22.568  58.468  1.00 41.62 LIG 0.01  C 
ATOM     29  CG2 VAL Q 708      -5.596  20.138  58.926  1.00 42.17 LIG 0.01  C 
ENDBRANCH 26 27
BRANCH 26 30
ATOM     30  C   VAL Q 708      -2.634  20.691  58.848  1.00 43.98 LIG 0.24  C 
ATOM     31 O    VAL Q 708      -2.482  19.571  58.380  1.00 43.91 LIG-0.27  OA
ATOM     32  N   ASP Q 709      -1.883  21.166  59.839  1.00 43.53 LIG-0.34  N 
ATOM     33 H    ASP Q 709      -1.965  21.965  60.148  1.00 43.53 LIG 0.16  HD
BRANCH 32 34
ATOM     34  CA  ASP Q 709      -0.836  20.381  60.510  1.00 43.18 LIG 0.20  C 
BRANCH 34 35
ATOM     35  CB  ASP Q 709       0.535  20.896  60.115  1.00 43.21 LIG 0.15  C 
BRANCH 35 36
ATOM     36  CG  ASP Q 709       0.784  20.815  58.637  1.00 45.24 LIG 0.17  C 
ATOM     37 OD2  ASP Q 709       0.999  19.671  58.161  1.00 45.66 LIG-0.65  OA
ATOM     38 OD1  ASP Q 709       0.730  21.889  57.969  1.00 45.75 LIG-0.65  OA
ENDBRANCH 35 36
ENDBRANCH 34 35
BRANCH 34 39
ATOM     39  C   ASP Q 709      -0.910  20.476  62.045  1.00 42.83 LIG 0.20  C 
ATOM     40 O    ASP Q 709       0.085  20.298  62.743  1.00 42.06 LIG-0.65  OA
ATOM     41 OXT  ASP Q 709      -1.995  20.671  62.619  1.00 42.11 LIG-0.65  OA
ENDBRANCH 34 39
ENDBRANCH 32 34
ENDBRANCH 26 30
ENDBRANCH 23 26
ENDBRANCH 1 22
BRANCH 1 42
ATOM     42  CB  GLU Q 707      -4.493  21.454  54.047  1.00 49.18 LIG 0.04  C 
BRANCH 42 43
ATOM     43  CG  GLU Q 707      -4.544  21.908  52.573  1.00 51.82 LIG 0.12  C 
BRANCH 43 44
ATOM     44  CD  GLU Q 707      -3.506  23.005  52.252  1.00 52.55 LIG 0.17  C 
ATOM     45 OE2  GLU Q 707      -3.896  24.188  52.132  1.00 56.45 LIG-0.65  OA
ATOM     46 OE1  GLU Q 707      -2.298  22.682  52.100  1.00 56.78 LIG-0.65  OA
ENDBRANCH 43 44
ENDBRANCH 42 43
ENDBRANCH 1 42
TORSDOF 21
ENDMDL
MODEL 5
USER: ADFR SOLUTION from run 190
USER: SCORE 17.666064 LL:  -2.641 LR: -16.867 RR:   0.000 FEB: -10.603
USER: RMSD 5.439608
USER: SEED 189
USER: STATUS no improvement in best in 1 clusters for 5 generations
USER: GENES 23
USER: genes 0 Translation |==|  0.41603 0.51267 0.45380
USER: genes 1 Rotation |==|  0.49845 0.75812 0.75541 0.84371
USER: genes 2 Torsion [CB]-CA--N-[C] |==|  0.18631
USER: genes 3 Torsion [N]-C--CA-[N] |==|  0.17743
USER: genes 4 Torsion [C]-CA--CB-[CG] |==|  0.42235
USER: genes 5 Torsion [CA]-CB--CG-[CD] |==|  0.30276
USER: genes 6 Torsion [CB]-CG--CD-[OE1] |==|  0.34580
USER: genes 7 Torsion [C]-CA--N-[C] |==|  0.59273
USER: genes 8 Torsion [N]-C--CA-[N] |==|  0.49574
USER: genes 9 Torsion [C]-CA--CB-[CG] |==|  0.68820
USER: genes 10 Torsion [CA]-CB--CG-[SD] |==|  0.45372
USER: genes 11 Torsion [CB]-CG--SD-[CE] |==|  0.92012
USER: genes 12 Torsion [N]-CA--C-[N] |==|  0.11168
USER: genes 13 Torsion [C]-N--CA-[CB] |==|  0.54517
USER: genes 14 Torsion [N]-CA--CB-[CG1] |==|  0.74775
USER: genes 15 Torsion [N]-CA--C-[N] |==|  0.78375
USER: genes 16 Torsion [C]-N--CA-[CB] |==|  0.48794
USER: genes 17 Torsion [N]-CA--CB-[CG] |==|  0.74751
USER: genes 18 Torsion [CA]-CB--CG-[OD2] |==|  0.97460
USER: genes 19 Torsion [N]-CA--C-[O] |==|  0.33561
USER: genes 20 Torsion [N]-CA--CB-[CG] |==|  0.14920
USER: genes 21 Torsion [CA]-CB--CG-[CD] |==|  0.28102
USER: genes 22 Torsion [CB]-CG--CD-[OE2] |==|  0.08500
ROOT
ATOM      1  CA  GLU Q 707      -3.338  19.505  54.588  1.00 49.62 LIG 0.18  C 
ENDROOT
BRANCH 1 2
ATOM      2  N   GLU Q 707      -4.743  19.464  54.147  1.00 50.42 LIG-0.35  N 
ATOM      3 H    GLU Q 707      -5.184  20.185  54.308  1.00 50.42 LIG 0.16  HD
ATOM      4  C   GLU Q 706      -5.265  18.399  53.554  1.00 51.37 LIG 0.24  C 
ATOM      5 O    GLU Q 706      -4.610  17.376  53.375  1.00 51.66 LIG-0.27  OA
BRANCH 4 6
ATOM      6  CA  GLU Q 706      -6.744  18.510  53.078  1.00 52.25 LIG 0.18  C 
BRANCH 6 7
ATOM      7  CB  GLU Q 706      -7.223  17.141  52.564  1.00 52.83 LIG 0.04  C 
BRANCH 7 8
ATOM      8  CG  GLU Q 706      -8.743  16.907  52.702  1.00 56.79 LIG 0.12  C 
BRANCH 8 9
ATOM      9  CD  GLU Q 706      -9.513  16.916  51.356  1.00 61.53 LIG 0.17  C 
ATOM     10 OE1  GLU Q 706     -10.221  15.921  51.047  1.00 62.14 LIG-0.65  OA
ATOM     11 OE2  GLU Q 706      -9.394  17.927  50.605  1.00 62.79 LIG-0.65  OA
ENDBRANCH 8 9
ENDBRANCH 7 8
ENDBRANCH 6 7
BRANCH 6 12
ATOM     12  N   GLU Q 706      -6.925  19.533  52.024  1.00 51.83 LIG-0.35  N 
ATOM     13 H    GLU Q 706      -6.245  19.603  51.502  1.00 51.83 LIG 0.16  HD
ATOM     14  C   MET Q 705      -8.025  20.284  51.877  1.00 52.04 LIG 0.26  C 
ATOM     15 O    MET Q 705      -9.058  20.139  52.542  1.00 51.63 LIG-0.27  OA
BRANCH 14 16
ATOM     16  CA  MET Q 705      -7.956  21.386  50.817  1.00 52.15 LIG 0.40  C 
ATOM     17  N   MET Q 705      -9.249  22.137  50.713  1.00 52.08 LIG 0.61  N 
BRANCH 16 18
ATOM     18  CB  MET Q 705      -6.769  22.321  51.079  1.00 52.13 LIG 0.06  C 
BRANCH 18 19
ATOM     19  CG  MET Q 705      -7.157  23.741  51.492  1.00 53.37 LIG 0.08  C 
BRANCH 19 20
ATOM     20 SD   MET Q 705      -5.808  24.693  52.252  1.00 56.30 LIG-0.17  SA
ATOM     21  CE  MET Q 705      -4.818  23.405  53.002  1.00 57.25 LIG 0.09  C 
ENDBRANCH 19 20
ENDBRANCH 18 19
ENDBRANCH 16 18
ENDBRANCH 14 16
ENDBRANCH 6 12
ENDBRANCH 4 6
ENDBRANCH 1 2
BRANCH 1 22
ATOM     22  C   GLU Q 707      -3.069  20.775  55.407  1.00 47.30 LIG 0.24  C 
ATOM     23  N   VAL Q 708      -4.019  21.151  56.260  1.00 45.52 LIG-0.35  N 
ATOM     24 H    VAL Q 708      -4.808  20.807  56.282  1.00 45.52 LIG 0.16  HD
ATOM     25 O    GLU Q 707      -2.004  21.383  55.274  1.00 46.84 LIG-0.27  OA
BRANCH 23 26
ATOM     26  CA  VAL Q 708      -3.791  22.211  57.257  1.00 44.03 LIG 0.18  C 
BRANCH 26 27
ATOM     27  CB  VAL Q 708      -4.857  22.192  58.363  1.00 43.64 LIG 0.01  C 
ATOM     28  CG1 VAL Q 708      -6.021  23.100  57.975  1.00 41.62 LIG 0.01  C 
ATOM     29  CG2 VAL Q 708      -5.349  20.768  58.604  1.00 42.17 LIG 0.01  C 
ENDBRANCH 26 27
BRANCH 26 30
ATOM     30  C   VAL Q 708      -2.372  22.115  57.844  1.00 43.98 LIG 0.24  C 
ATOM     31 O    VAL Q 708      -1.508  22.907  57.493  1.00 43.91 LIG-0.27  OA
ATOM     32  N   ASP Q 709      -2.159  21.178  58.766  1.00 43.53 LIG-0.34  N 
ATOM     33 H    ASP Q 709      -2.774  20.641  59.039  1.00 43.53 LIG 0.16  HD
BRANCH 32 34
ATOM     34  CA  ASP Q 709      -0.857  20.961  59.414  1.00 43.18 LIG 0.20  C 
BRANCH 34 35
ATOM     35  CB  ASP Q 709      -0.981  19.895  60.486  1.00 43.21 LIG 0.15  C 
BRANCH 35 36
ATOM     36  CG  ASP Q 709      -1.309  20.462  61.836  1.00 45.24 LIG 0.17  C 
ATOM     37 OD2  ASP Q 709      -1.263  21.715  61.951  1.00 45.66 LIG-0.65  OA
ATOM     38 OD1  ASP Q 709      -1.638  19.654  62.752  1.00 45.75 LIG-0.65  OA
ENDBRANCH 35 36
ENDBRANCH 34 35
BRANCH 34 39
ATOM     39  C   ASP Q 709       0.223  20.468  58.433  1.00 42.83 LIG 0.20  C 
ATOM     40 O    ASP Q 709       1.258  21.104  58.252  1.00 42.06 LIG-0.65  OA
ATOM     41 OXT  ASP Q 709       0.043  19.445  57.750  1.00 42.11 LIG-0.65  OA
ENDBRANCH 34 39
ENDBRANCH 32 34
ENDBRANCH 26 30
ENDBRANCH 23 26
ENDBRANCH 1 22
BRANCH 1 42
ATOM     42  CB  GLU Q 707      -2.397  19.480  53.370  1.00 49.18 LIG 0.04  C 
BRANCH 42 43
ATOM     43  CG  GLU Q 707      -2.670  20.565  52.307  1.00 51.82 LIG 0.12  C 
BRANCH 43 44
ATOM     44  CD  GLU Q 707      -1.690  21.754  52.405  1.00 52.55 LIG 0.17  C 
ATOM     45 OE2  GLU Q 707      -0.527  21.545  52.820  1.00 56.45 LIG-0.65  OA
ATOM     46 OE1  GLU Q 707      -2.087  22.906  52.086  1.00 56.78 LIG-0.65  OA
ENDBRANCH 43 44
ENDBRANCH 42 43
ENDBRANCH 1 42
TORSDOF 21
ENDMDL
MODEL 6
USER: ADFR SOLUTION from run 114
USER: SCORE 18.675610 LL:  -3.406 LR: -16.813 RR:   0.000 FEB: -10.548
USER: RMSD 2.214875
USER: SEED 113
USER: STATUS no improvement in best in 3 clusters for 5 generations
USER: GENES 23
USER: genes 0 Translation |==|  0.40047 0.55229 0.45151
USER: genes 1 Rotation |==|  0.50535 0.50478 0.46120 0.99844
USER: genes 2 Torsion [CB]-CA--N-[C] |==|  0.48889
USER: genes 3 Torsion [N]-C--CA-[N] |==|  0.95315
USER: genes 4 Torsion [C]-CA--CB-[CG] |==|  0.24450
USER: genes 5 Torsion [CA]-CB--CG-[CD] |==|  0.04923
USER: genes 6 Torsion [CB]-CG--CD-[OE1] |==|  0.62596
USER: genes 7 Torsion [C]-CA--N-[C] |==|  0.79581
USER: genes 8 Torsion [N]-C--CA-[N] |==|  0.02563
USER: genes 9 Torsion [C]-CA--CB-[CG] |==|  0.87360
USER: genes 10 Torsion [CA]-CB--CG-[SD] |==|  0.30585
USER: genes 11 Torsion [CB]-CG--SD-[CE] |==|  0.21460
USER: genes 12 Torsion [N]-CA--C-[N] |==|  0.39101
USER: genes 13 Torsion [C]-N--CA-[CB] |==|  0.47920
USER: genes 14 Torsion [N]-CA--CB-[CG1] |==|  0.79471
USER: genes 15 Torsion [N]-CA--C-[N] |==|  0.45826
USER: genes 16 Torsion [C]-N--CA-[CB] |==|  0.28660
USER: genes 17 Torsion [N]-CA--CB-[CG] |==|  0.83616
USER: genes 18 Torsion [CA]-CB--CG-[OD2] |==|  0.28405
USER: genes 19 Torsion [N]-CA--C-[O] |==|  0.06127
USER: genes 20 Torsion [N]-CA--CB-[CG] |==|  0.20004
USER: genes 21 Torsion [CA]-CB--CG-[CD] |==|  0.77329
USER: genes 22 Torsion [CB]-CG--CD-[OE2] |==|  0.49362
ROOT
ATOM      1  CA  GLU Q 707      -3.654  20.159  54.536  1.00 49.62 LIG 0.18  C 
ENDROOT
BRANCH 1 2
ATOM      2  N   GLU Q 707      -3.201  20.862  53.324  1.00 50.42 LIG-0.35  N 
ATOM      3 H    GLU Q 707      -2.643  20.417  52.846  1.00 50.42 LIG 0.16  HD
ATOM      4  C   GLU Q 706      -3.630  22.078  53.014  1.00 51.37 LIG 0.24  C 
ATOM      5 O    GLU Q 706      -4.401  22.695  53.744  1.00 51.66 LIG-0.27  OA
BRANCH 4 6
ATOM      6  CA  GLU Q 706      -3.126  22.683  51.670  1.00 52.25 LIG 0.18  C 
BRANCH 6 7
ATOM      7  CB  GLU Q 706      -4.263  22.651  50.632  1.00 52.83 LIG 0.04  C 
BRANCH 7 8
ATOM      8  CG  GLU Q 706      -5.178  23.894  50.655  1.00 56.79 LIG 0.12  C 
BRANCH 8 9
ATOM      9  CD  GLU Q 706      -4.568  25.120  51.383  1.00 61.53 LIG 0.17  C 
ATOM     10 OE1  GLU Q 706      -5.280  25.770  52.194  1.00 62.14 LIG-0.65  OA
ATOM     11 OE2  GLU Q 706      -3.370  25.433  51.126  1.00 62.79 LIG-0.65  OA
ENDBRANCH 8 9
ENDBRANCH 7 8
ENDBRANCH 6 7
BRANCH 6 12
ATOM     12  N   GLU Q 706      -1.941  21.974  51.138  1.00 51.83 LIG-0.35  N 
ATOM     13 H    GLU Q 706      -2.122  21.480  50.458  1.00 51.83 LIG 0.16  HD
ATOM     14  C   MET Q 705      -0.705  22.075  51.646  1.00 52.04 LIG 0.26  C 
ATOM     15 O    MET Q 705      -0.390  22.853  52.555  1.00 51.63 LIG-0.27  OA
BRANCH 14 16
ATOM     16  CA  MET Q 705       0.352  21.148  51.043  1.00 52.15 LIG 0.40  C 
ATOM     17  N   MET Q 705      -0.160  20.440  49.824  1.00 52.08 LIG 0.61  N 
BRANCH 16 18
ATOM     18  CB  MET Q 705       1.650  21.912  50.758  1.00 52.13 LIG 0.06  C 
BRANCH 18 19
ATOM     19  CG  MET Q 705       1.455  23.265  50.072  1.00 53.37 LIG 0.08  C 
BRANCH 19 20
ATOM     20 SD   MET Q 705       1.822  24.699  51.127  1.00 56.30 LIG-0.17  SA
ATOM     21  CE  MET Q 705       3.610  24.726  51.113  1.00 57.25 LIG 0.09  C 
ENDBRANCH 19 20
ENDBRANCH 18 19
ENDBRANCH 16 18
ENDBRANCH 14 16
ENDBRANCH 6 12
ENDBRANCH 4 6
ENDBRANCH 1 2
BRANCH 1 22
ATOM     22  C   GLU Q 707      -3.215  20.921  55.794  1.00 47.30 LIG 0.24  C 
ATOM     23  N   VAL Q 708      -4.086  20.969  56.800  1.00 45.52 LIG-0.35  N 
ATOM     24 H    VAL Q 708      -4.906  20.718  56.737  1.00 45.52 LIG 0.16  HD
ATOM     25 O    GLU Q 707      -2.095  21.435  55.848  1.00 46.84 LIG-0.27  OA
BRANCH 23 26
ATOM     26  CA  VAL Q 708      -3.705  21.470  58.132  1.00 44.03 LIG 0.18  C 
BRANCH 26 27
ATOM     27  CB  VAL Q 708      -4.921  21.598  59.062  1.00 43.64 LIG 0.01  C 
ATOM     28  CG1 VAL Q 708      -5.761  22.805  58.652  1.00 41.62 LIG 0.01  C 
ATOM     29  CG2 VAL Q 708      -5.761  20.325  59.019  1.00 42.17 LIG 0.01  C 
ENDBRANCH 26 27
BRANCH 26 30
ATOM     30  C   VAL Q 708      -2.611  20.587  58.757  1.00 43.98 LIG 0.24  C 
ATOM     31 O    VAL Q 708      -2.344  19.499  58.264  1.00 43.91 LIG-0.27  OA
ATOM     32  N   ASP Q 709      -1.957  21.083  59.806  1.00 43.53 LIG-0.34  N 
ATOM     33 H    ASP Q 709      -2.120  21.861  60.134  1.00 43.53 LIG 0.16  HD
BRANCH 32 34
ATOM     34  CA  ASP Q 709      -0.892  20.356  60.513  1.00 43.18 LIG 0.20  C 
BRANCH 34 35
ATOM     35  CB  ASP Q 709       0.465  20.906  60.115  1.00 43.21 LIG 0.15  C 
BRANCH 35 36
ATOM     36  CG  ASP Q 709       0.725  20.804  58.640  1.00 45.24 LIG 0.17  C 
ATOM     37 OD2  ASP Q 709       0.591  21.859  57.967  1.00 45.66 LIG-0.65  OA
ATOM     38 OD1  ASP Q 709       1.088  19.682  58.181  1.00 45.75 LIG-0.65  OA
ENDBRANCH 35 36
ENDBRANCH 34 35
BRANCH 34 39
ATOM     39  C   ASP Q 709      -0.987  20.498  62.043  1.00 42.83 LIG 0.20  C 
ATOM     40 O    ASP Q 709      -2.045  20.795  62.591  1.00 42.06 LIG-0.65  OA
ATOM     41 OXT  ASP Q 709       0.023  20.379  62.757  1.00 42.11 LIG-0.65  OA
ENDBRANCH 34 39
ENDBRANCH 32 34
ENDBRANCH 26 30
ENDBRANCH 23 26
ENDBRANCH 1 22
BRANCH 1 42
ATOM     42  CB  GLU Q 707      -3.066  18.737  54.576  1.00 49.18 LIG 0.04  C 
BRANCH 42 43
ATOM     43  CG  GLU Q 707      -1.555  18.659  54.879  1.00 51.82 LIG 0.12  C 
BRANCH 43 44
ATOM     44  CD  GLU Q 707      -0.685  18.913  53.629  1.00 52.55 LIG 0.17  C 
ATOM     45 OE2  GLU Q 707       0.561  18.921  53.752  1.00 56.45 LIG-0.65  OA
ATOM     46 OE1  GLU Q 707      -1.247  19.127  52.522  1.00 56.78 LIG-0.65  OA
ENDBRANCH 43 44
ENDBRANCH 42 43
ENDBRANCH 1 42
TORSDOF 21
ENDMDL
MODEL 7
USER: ADFR SOLUTION from run 83
USER: SCORE 16.789739 LL:  -1.781 LR: -16.781 RR:   0.000 FEB: -10.517
USER: RMSD 4.726753
USER: SEED 82
USER: STATUS no improvement in best in 5 clusters for 5 generations
USER: GENES 23
USER: genes 0 Translation |==|  0.41192 0.51565 0.45169
USER: genes 1 Rotation |==|  0.40190 0.52781 0.51307 0.98932
USER: genes 2 Torsion [CB]-CA--N-[C] |==|  0.52152
USER: genes 3 Torsion [N]-C--CA-[N] |==|  0.43497
USER: genes 4 Torsion [C]-CA--CB-[CG] |==|  0.72933
USER: genes 5 Torsion [CA]-CB--CG-[CD] |==|  0.33436
USER: genes 6 Torsion [CB]-CG--CD-[OE1] |==|  0.00491
USER: genes 7 Torsion [C]-CA--N-[C] |==|  0.83192
USER: genes 8 Torsion [N]-C--CA-[N] |==|  0.49298
USER: genes 9 Torsion [C]-CA--CB-[CG] |==|  0.91284
USER: genes 10 Torsion [CA]-CB--CG-[SD] |==|  0.38536
USER: genes 11 Torsion [CB]-CG--SD-[CE] |==|  0.96703
USER: genes 12 Torsion [N]-CA--C-[N] |==|  0.37200
USER: genes 13 Torsion [C]-N--CA-[CB] |==|  0.53392
USER: genes 14 Torsion [N]-CA--CB-[CG1] |==|  0.75591
USER: genes 15 Torsion [N]-CA--C-[N] |==|  0.74990
USER: genes 16 Torsion [C]-N--CA-[CB] |==|  0.53953
USER: genes 17 Torsion [N]-CA--CB-[CG] |==|  0.76629
USER: genes 18 Torsion [CA]-CB--CG-[OD2] |==|  0.18798
USER: genes 19 Torsion [N]-CA--C-[O] |==|  0.78883
USER: genes 20 Torsion [N]-CA--CB-[CG] |==|  0.00404
USER: genes 21 Torsion [CA]-CB--CG-[CD] |==|  0.23777
USER: genes 22 Torsion [CB]-CG--CD-[OE2] |==|  0.25070
ROOT
ATOM      1  CA  GLU Q 707      -3.422  19.554  54.540  1.00 49.62 LIG 0.18  C 
ENDROOT
BRANCH 1 2
ATOM      2  N   GLU Q 707      -3.236  19.776  53.096  1.00 50.42 LIG-0.35  N 
ATOM      3 H    GLU Q 707      -2.750  19.182  52.708  1.00 50.42 LIG 0.16  HD
ATOM      4  C   GLU Q 706      -3.779  20.808  52.466  1.00 51.37 LIG 0.24  C 
ATOM      5 O    GLU Q 706      -4.437  21.654  53.065  1.00 51.66 LIG-0.27  OA
BRANCH 4 6
ATOM      6  CA  GLU Q 706      -3.560  20.890  50.926  1.00 52.25 LIG 0.18  C 
BRANCH 6 7
ATOM      7  CB  GLU Q 706      -2.169  21.482  50.635  1.00 52.83 LIG 0.04  C 
BRANCH 7 8
ATOM      8  CG  GLU Q 706      -2.174  22.994  50.326  1.00 56.79 LIG 0.12  C 
BRANCH 8 9
ATOM      9  CD  GLU Q 706      -1.321  23.846  51.302  1.00 61.53 LIG 0.17  C 
ATOM     10 OE1  GLU Q 706      -0.681  23.270  52.220  1.00 62.14 LIG-0.65  OA
ATOM     11 OE2  GLU Q 706      -1.307  25.101  51.145  1.00 62.79 LIG-0.65  OA
ENDBRANCH 8 9
ENDBRANCH 7 8
ENDBRANCH 6 7
BRANCH 6 12
ATOM     12  N   GLU Q 706      -4.599  21.694  50.247  1.00 51.83 LIG-0.35  N 
ATOM     13 H    GLU Q 706      -4.280  22.377  49.834  1.00 51.83 LIG 0.16  HD
ATOM     14  C   MET Q 705      -5.909  21.408  50.259  1.00 52.04 LIG 0.26  C 
ATOM     15 O    MET Q 705      -6.390  20.381  50.754  1.00 51.63 LIG-0.27  OA
BRANCH 14 16
ATOM     16  CA  MET Q 705      -6.834  22.446  49.620  1.00 52.15 LIG 0.40  C 
ATOM     17  N   MET Q 705      -8.265  21.997  49.635  1.00 52.08 LIG 0.61  N 
BRANCH 16 18
ATOM     18  CB  MET Q 705      -6.657  23.817  50.283  1.00 52.13 LIG 0.06  C 
BRANCH 18 19
ATOM     19  CG  MET Q 705      -6.279  23.764  51.764  1.00 53.37 LIG 0.08  C 
BRANCH 19 20
ATOM     20 SD   MET Q 705      -5.018  24.976  52.258  1.00 56.30 LIG-0.17  SA
ATOM     21  CE  MET Q 705      -4.428  25.567  50.676  1.00 57.25 LIG 0.09  C 
ENDBRANCH 19 20
ENDBRANCH 18 19
ENDBRANCH 16 18
ENDBRANCH 14 16
ENDBRANCH 6 12
ENDBRANCH 4 6
ENDBRANCH 1 2
BRANCH 1 22
ATOM     22  C   GLU Q 707      -3.074  20.825  55.327  1.00 47.30 LIG 0.24  C 
ATOM     23  N   VAL Q 708      -3.931  21.197  56.276  1.00 45.52 LIG-0.35  N 
ATOM     24 H    VAL Q 708      -4.711  20.850  56.380  1.00 45.52 LIG 0.16  HD
ATOM     25 O    GLU Q 707      -2.031  21.438  55.084  1.00 46.84 LIG-0.27  OA
BRANCH 23 26
ATOM     26  CA  VAL Q 708      -3.603  22.258  57.244  1.00 44.03 LIG 0.18  C 
BRANCH 26 27
ATOM     27  CB  VAL Q 708      -4.608  22.298  58.406  1.00 43.64 LIG 0.01  C 
ATOM     28  CG1 VAL Q 708      -5.787  23.194  58.039  1.00 41.62 LIG 0.01  C 
ATOM     29  CG2 VAL Q 708      -5.091  20.890  58.741  1.00 42.17 LIG 0.01  C 
ENDBRANCH 26 27
BRANCH 26 30
ATOM     30  C   VAL Q 708      -2.160  22.108  57.754  1.00 43.98 LIG 0.24  C 
ATOM     31 O    VAL Q 708      -1.246  22.697  57.194  1.00 43.91 LIG-0.27  OA
ATOM     32  N   ASP Q 709      -1.976  21.360  58.841  1.00 43.53 LIG-0.34  N 
ATOM     33 H    ASP Q 709      -2.621  20.972  59.257  1.00 43.53 LIG 0.16  HD
BRANCH 32 34
ATOM     34  CA  ASP Q 709      -0.656  21.119  59.444  1.00 43.18 LIG 0.20  C 
BRANCH 34 35
ATOM     35  CB  ASP Q 709      -0.738  19.971  60.432  1.00 43.21 LIG 0.15  C 
BRANCH 35 36
ATOM     36  CG  ASP Q 709      -1.205  20.404  61.791  1.00 45.24 LIG 0.17  C 
ATOM     37 OD2  ASP Q 709      -2.398  20.796  61.882  1.00 45.66 LIG-0.65  OA
ATOM     38 OD1  ASP Q 709      -0.386  20.318  62.752  1.00 45.75 LIG-0.65  OA
ENDBRANCH 35 36
ENDBRANCH 34 35
BRANCH 34 39
ATOM     39  C   ASP Q 709       0.411  20.726  58.407  1.00 42.83 LIG 0.20  C 
ATOM     40 O    ASP Q 709       0.442  19.598  57.921  1.00 42.06 LIG-0.65  OA
ATOM     41 OXT  ASP Q 709       1.309  21.521  58.084  1.00 42.11 LIG-0.65  OA
ENDBRANCH 34 39
ENDBRANCH 32 34
ENDBRANCH 26 30
ENDBRANCH 23 26
ENDBRANCH 1 22
BRANCH 1 42
ATOM     42  CB  GLU Q 707      -2.525  18.400  55.021  1.00 49.18 LIG 0.04  C 
BRANCH 42 43
ATOM     43  CG  GLU Q 707      -1.628  17.768  53.935  1.00 51.82 LIG 0.12  C 
BRANCH 43 44
ATOM     44  CD  GLU Q 707      -0.294  18.524  53.752  1.00 52.55 LIG 0.17  C 
ATOM     45 OE2  GLU Q 707       0.696  18.176  54.435  1.00 56.45 LIG-0.65  OA
ATOM     46 OE1  GLU Q 707      -0.239  19.484  52.938  1.00 56.78 LIG-0.65  OA
ENDBRANCH 43 44
ENDBRANCH 42 43
ENDBRANCH 1 42
TORSDOF 21
ENDMDL
MODEL 8
USER: ADFR SOLUTION from run 100
USER: SCORE 16.331118 LL:  -1.356 LR: -16.699 RR:   0.000 FEB: -10.435
USER: RMSD 6.490587
USER: SEED 99
USER: STATUS no improvement in best in 14 clusters for 5 generations
USER: GENES 23
USER: genes 0 Translation |==|  0.42529 0.60692 0.42305
USER: genes 1 Rotation |==|  0.43596 0.28494 0.06352 0.59555
USER: genes 2 Torsion [CB]-CA--N-[C] |==|  0.53354
USER: genes 3 Torsion [N]-C--CA-[N] |==|  0.03723
USER: genes 4 Torsion [C]-CA--CB-[CG] |==|  0.85453
USER: genes 5 Torsion [CA]-CB--CG-[CD] |==|  0.25865
USER: genes 6 Torsion [CB]-CG--CD-[OE1] |==|  0.17021
USER: genes 7 Torsion [C]-CA--N-[C] |==|  0.72214
USER: genes 8 Torsion [N]-C--CA-[N] |==|  0.21859
USER: genes 9 Torsion [C]-CA--CB-[CG] |==|  0.16071
USER: genes 10 Torsion [CA]-CB--CG-[SD] |==|  0.61194
USER: genes 11 Torsion [CB]-CG--SD-[CE] |==|  0.86744
USER: genes 12 Torsion [N]-CA--C-[N] |==|  0.76255
USER: genes 13 Torsion [C]-N--CA-[CB] |==|  0.52549
USER: genes 14 Torsion [N]-CA--CB-[CG1] |==|  0.35945
USER: genes 15 Torsion [N]-CA--C-[N] |==|  0.34268
USER: genes 16 Torsion [C]-N--CA-[CB] |==|  0.82531
USER: genes 17 Torsion [N]-CA--CB-[CG] |==|  0.67878
USER: genes 18 Torsion [CA]-CB--CG-[OD2] |==|  0.28800
USER: genes 19 Torsion [N]-CA--C-[O] |==|  0.21121
USER: genes 20 Torsion [N]-CA--CB-[CG] |==|  0.71352
USER: genes 21 Torsion [CA]-CB--CG-[CD] |==|  0.83847
USER: genes 22 Torsion [CB]-CG--CD-[OE2] |==|  0.69257
ROOT
ATOM      1  CA  GLU Q 707      -3.151  21.060  53.896  1.00 49.62 LIG 0.18  C 
ENDROOT
BRANCH 1 2
ATOM      2  N   GLU Q 707      -3.219  19.590  53.828  1.00 50.42 LIG-0.35  N 
ATOM      3 H    GLU Q 707      -3.867  19.289  53.351  1.00 50.42 LIG 0.16  HD
ATOM      4  C   GLU Q 706      -2.346  18.815  54.456  1.00 51.37 LIG 0.24  C 
ATOM      5 O    GLU Q 706      -1.454  19.286  55.158  1.00 51.66 LIG-0.27  OA
BRANCH 4 6
ATOM      6  CA  GLU Q 706      -2.490  17.278  54.249  1.00 52.25 LIG 0.18  C 
BRANCH 6 7
ATOM      7  CB  GLU Q 706      -1.101  16.660  54.007  1.00 52.83 LIG 0.04  C 
BRANCH 7 8
ATOM      8  CG  GLU Q 706      -0.289  17.341  52.884  1.00 56.79 LIG 0.12  C 
BRANCH 8 9
ATOM      9  CD  GLU Q 706       0.663  18.461  53.377  1.00 61.53 LIG 0.17  C 
ATOM     10 OE1  GLU Q 706       1.586  18.171  54.184  1.00 62.14 LIG-0.65  OA
ATOM     11 OE2  GLU Q 706       0.473  19.638  52.955  1.00 62.79 LIG-0.65  OA
ENDBRANCH 8 9
ENDBRANCH 7 8
ENDBRANCH 6 7
BRANCH 6 12
ATOM     12  N   GLU Q 706      -3.392  16.939  53.128  1.00 51.83 LIG-0.35  N 
ATOM     13 H    GLU Q 706      -3.013  17.005  52.358  1.00 51.83 LIG 0.16  HD
ATOM     14  C   MET Q 705      -4.672  16.564  53.269  1.00 52.04 LIG 0.26  C 
ATOM     15 O    MET Q 705      -5.217  16.359  54.361  1.00 51.63 LIG-0.27  OA
BRANCH 14 16
ATOM     16  CA  MET Q 705      -5.476  16.400  51.978  1.00 52.15 LIG 0.40  C 
ATOM     17  N   MET Q 705      -5.171  15.100  51.296  1.00 52.08 LIG 0.61  N 
BRANCH 16 18
ATOM     18  CB  MET Q 705      -6.976  16.570  52.245  1.00 52.13 LIG 0.06  C 
BRANCH 18 19
ATOM     19  CG  MET Q 705      -7.365  17.911  52.868  1.00 53.37 LIG 0.08  C 
BRANCH 19 20
ATOM     20 SD   MET Q 705      -8.641  17.796  54.157  1.00 56.30 LIG-0.17  SA
ATOM     21  CE  MET Q 705      -9.868  16.755  53.376  1.00 57.25 LIG 0.09  C 
ENDBRANCH 19 20
ENDBRANCH 18 19
ENDBRANCH 16 18
ENDBRANCH 14 16
ENDBRANCH 6 12
ENDBRANCH 4 6
ENDBRANCH 1 2
BRANCH 1 22
ATOM     22  C   GLU Q 707      -2.960  21.523  55.347  1.00 47.30 LIG 0.24  C 
ATOM     23  N   VAL Q 708      -4.061  21.662  56.082  1.00 45.52 LIG-0.35  N 
ATOM     24 H    VAL Q 708      -4.859  21.636  55.760  1.00 45.52 LIG 0.16  HD
ATOM     25 O    GLU Q 707      -1.825  21.726  55.788  1.00 46.84 LIG-0.27  OA
BRANCH 23 26
ATOM     26  CA  VAL Q 708      -3.999  21.878  57.537  1.00 44.03 LIG 0.18  C 
BRANCH 26 27
ATOM     27  CB  VAL Q 708      -5.388  21.782  58.187  1.00 43.64 LIG 0.01  C 
ATOM     28  CG1 VAL Q 708      -5.338  20.828  59.377  1.00 41.62 LIG 0.01  C 
ATOM     29  CG2 VAL Q 708      -5.866  23.162  58.629  1.00 42.17 LIG 0.01  C 
ENDBRANCH 26 27
BRANCH 26 30
ATOM     30  C   VAL Q 708      -3.004  20.906  58.194  1.00 43.98 LIG 0.24  C 
ATOM     31 O    VAL Q 708      -3.115  19.701  58.014  1.00 43.91 LIG-0.27  OA
ATOM     32  N   ASP Q 709      -2.015  21.441  58.908  1.00 43.53 LIG-0.34  N 
ATOM     33 H    ASP Q 709      -1.916  22.290  59.008  1.00 43.53 LIG 0.16  HD
BRANCH 32 34
ATOM     34  CA  ASP Q 709      -0.992  20.642  59.599  1.00 43.18 LIG 0.20  C 
BRANCH 34 35
ATOM     35  CB  ASP Q 709      -1.638  19.778  60.665  1.00 43.21 LIG 0.15  C 
BRANCH 35 36
ATOM     36  CG  ASP Q 709      -1.199  20.140  62.053  1.00 45.24 LIG 0.17  C 
ATOM     37 OD2  ASP Q 709      -2.013  20.796  62.753  1.00 45.66 LIG-0.65  OA
ATOM     38 OD1  ASP Q 709      -0.061  19.738  62.436  1.00 45.75 LIG-0.65  OA
ENDBRANCH 35 36
ENDBRANCH 34 35
BRANCH 34 39
ATOM     39  C   ASP Q 709      -0.246  19.683  58.654  1.00 42.83 LIG 0.20  C 
ATOM     40 O    ASP Q 709       0.615  20.092  57.880  1.00 42.06 LIG-0.65  OA
ATOM     41 OXT  ASP Q 709      -0.544  18.477  58.606  1.00 42.11 LIG-0.65  OA
ENDBRANCH 34 39
ENDBRANCH 32 34
ENDBRANCH 26 30
ENDBRANCH 23 26
ENDBRANCH 1 22
BRANCH 1 42
ATOM     42  CB  GLU Q 707      -4.443  21.679  53.333  1.00 49.18 LIG 0.04  C 
BRANCH 42 43
ATOM     43  CG  GLU Q 707      -4.325  22.265  51.911  1.00 51.82 LIG 0.12  C 
BRANCH 43 44
ATOM     44  CD  GLU Q 707      -3.244  23.363  51.808  1.00 52.55 LIG 0.17  C 
ATOM     45 OE2  GLU Q 707      -3.603  24.549  51.626  1.00 56.45 LIG-0.65  OA
ATOM     46 OE1  GLU Q 707      -2.030  23.039  51.888  1.00 56.78 LIG-0.65  OA
ENDBRANCH 43 44
ENDBRANCH 42 43
ENDBRANCH 1 42
TORSDOF 21
ENDMDL
MODEL 9
USER: ADFR SOLUTION from run 138
USER: SCORE 18.585619 LL:  -3.247 LR: -16.604 RR:   0.000 FEB: -10.340
USER: RMSD 2.938350
USER: SEED 137
USER: STATUS no improvement in best in 4 clusters for 5 generations
USER: GENES 23
USER: genes 0 Translation |==|  0.40690 0.56989 0.44715
USER: genes 1 Rotation |==|  0.55947 0.57986 0.58815 0.98199
USER: genes 2 Torsion [CB]-CA--N-[C] |==|  0.53889
USER: genes 3 Torsion [N]-C--CA-[N] |==|  0.98430
USER: genes 4 Torsion [C]-CA--CB-[CG] |==|  0.69149
USER: genes 5 Torsion [CA]-CB--CG-[CD] |==|  0.76706
USER: genes 6 Torsion [CB]-CG--CD-[OE1] |==|  0.19452
USER: genes 7 Torsion [C]-CA--N-[C] |==|  0.74009
USER: genes 8 Torsion [N]-C--CA-[N] |==|  0.17486
USER: genes 9 Torsion [C]-CA--CB-[CG] |==|  0.81382
USER: genes 10 Torsion [CA]-CB--CG-[SD] |==|  0.31667
USER: genes 11 Torsion [CB]-CG--SD-[CE] |==|  0.04719
USER: genes 12 Torsion [N]-CA--C-[N] |==|  0.28176
USER: genes 13 Torsion [C]-N--CA-[CB] |==|  0.48968
USER: genes 14 Torsion [N]-CA--CB-[CG1] |==|  0.80912
USER: genes 15 Torsion [N]-CA--C-[N] |==|  0.46524
USER: genes 16 Torsion [C]-N--CA-[CB] |==|  0.27971
USER: genes 17 Torsion [N]-CA--CB-[CG] |==|  0.83235
USER: genes 18 Torsion [CA]-CB--CG-[OD2] |==|  0.75484
USER: genes 19 Torsion [N]-CA--C-[O] |==|  0.51129
USER: genes 20 Torsion [N]-CA--CB-[CG] |==|  0.00553
USER: genes 21 Torsion [CA]-CB--CG-[CD] |==|  0.22490
USER: genes 22 Torsion [CB]-CG--CD-[OE2] |==|  0.76670
ROOT
ATOM      1  CA  GLU Q 707      -3.523  20.449  54.438  1.00 49.62 LIG 0.18  C 
ENDROOT
BRANCH 1 2
ATOM      2  N   GLU Q 707      -3.852  21.471  53.430  1.00 50.42 LIG-0.35  N 
ATOM      3 H    GLU Q 707      -3.524  21.316  52.651  1.00 50.42 LIG 0.16  HD
ATOM      4  C   GLU Q 706      -4.592  22.533  53.718  1.00 51.37 LIG 0.24  C 
ATOM      5 O    GLU Q 706      -5.012  22.736  54.854  1.00 51.66 LIG-0.27  OA
BRANCH 4 6
ATOM      6  CA  GLU Q 706      -4.921  23.504  52.545  1.00 52.25 LIG 0.18  C 
BRANCH 6 7
ATOM      7  CB  GLU Q 706      -6.442  23.528  52.309  1.00 52.83 LIG 0.04  C 
BRANCH 7 8
ATOM      8  CG  GLU Q 706      -6.889  22.877  50.982  1.00 56.79 LIG 0.12  C 
BRANCH 8 9
ATOM      9  CD  GLU Q 706      -6.809  23.820  49.753  1.00 61.53 LIG 0.17  C 
ATOM     10 OE1  GLU Q 706      -5.678  24.159  49.312  1.00 62.14 LIG-0.65  OA
ATOM     11 OE2  GLU Q 706      -7.890  24.226  49.239  1.00 62.79 LIG-0.65  OA
ENDBRANCH 8 9
ENDBRANCH 7 8
ENDBRANCH 6 7
BRANCH 6 12
ATOM     12  N   GLU Q 706      -4.225  23.137  51.293  1.00 51.83 LIG-0.35  N 
ATOM     13 H    GLU Q 706      -4.656  22.559  50.825  1.00 51.83 LIG 0.16  HD
ATOM     14  C   MET Q 705      -3.044  23.639  50.906  1.00 52.04 LIG 0.26  C 
ATOM     15 O    MET Q 705      -2.447  24.545  51.501  1.00 51.63 LIG-0.27  OA
BRANCH 14 16
ATOM     16  CA  MET Q 705      -2.424  23.021  49.651  1.00 52.15 LIG 0.40  C 
ATOM     17  N   MET Q 705      -3.281  23.243  48.441  1.00 52.08 LIG 0.61  N 
BRANCH 16 18
ATOM     18  CB  MET Q 705      -0.993  23.532  49.442  1.00 52.13 LIG 0.06  C 
BRANCH 18 19
ATOM     19  CG  MET Q 705      -0.891  25.019  49.101  1.00 53.37 LIG 0.08  C 
BRANCH 19 20
ATOM     20 SD   MET Q 705      -0.072  26.024  50.375  1.00 56.30 LIG-0.17  SA
ATOM     21  CE  MET Q 705       0.765  24.780  51.351  1.00 57.25 LIG 0.09  C 
ENDBRANCH 19 20
ENDBRANCH 18 19
ENDBRANCH 16 18
ENDBRANCH 14 16
ENDBRANCH 6 12
ENDBRANCH 4 6
ENDBRANCH 1 2
BRANCH 1 22
ATOM     22  C   GLU Q 707      -3.086  21.112  55.752  1.00 47.30 LIG 0.24  C 
ATOM     23  N   VAL Q 708      -3.990  21.164  56.727  1.00 45.52 LIG-0.35  N 
ATOM     24 H    VAL Q 708      -4.822  20.971  56.621  1.00 45.52 LIG 0.16  HD
ATOM     25 O    GLU Q 707      -1.937  21.547  55.873  1.00 46.84 LIG-0.27  OA
BRANCH 23 26
ATOM     26  CA  VAL Q 708      -3.629  21.565  58.098  1.00 44.03 LIG 0.18  C 
BRANCH 26 27
ATOM     27  CB  VAL Q 708      -4.860  21.633  59.014  1.00 43.64 LIG 0.01  C 
ATOM     28  CG1 VAL Q 708      -5.754  22.797  58.595  1.00 41.62 LIG 0.01  C 
ATOM     29  CG2 VAL Q 708      -5.635  20.320  58.964  1.00 42.17 LIG 0.01  C 
ENDBRANCH 26 27
BRANCH 26 30
ATOM     30  C   VAL Q 708      -2.550  20.633  58.676  1.00 43.98 LIG 0.24  C 
ATOM     31 O    VAL Q 708      -2.247  19.605  58.086  1.00 43.91 LIG-0.27  OA
ATOM     32  N   ASP Q 709      -1.948  21.025  59.797  1.00 43.53 LIG-0.34  N 
ATOM     33 H    ASP Q 709      -2.135  21.764  60.196  1.00 43.53 LIG 0.16  HD
BRANCH 32 34
ATOM     34  CA  ASP Q 709      -0.902  20.241  60.471  1.00 43.18 LIG 0.20  C 
BRANCH 34 35
ATOM     35  CB  ASP Q 709       0.466  20.806  60.141  1.00 43.21 LIG 0.15  C 
BRANCH 35 36
ATOM     36  CG  ASP Q 709       0.769  20.777  58.671  1.00 45.24 LIG 0.17  C 
ATOM     37 OD2  ASP Q 709       1.303  19.730  58.223  1.00 45.66 LIG-0.65  OA
ATOM     38 OD1  ASP Q 709       0.443  21.787  57.981  1.00 45.75 LIG-0.65  OA
ENDBRANCH 35 36
ENDBRANCH 34 35
BRANCH 34 39
ATOM     39  C   ASP Q 709      -1.027  20.274  62.005  1.00 42.83 LIG 0.20  C 
ATOM     40 O    ASP Q 709      -0.192  19.732  62.725  1.00 42.06 LIG-0.65  OA
ATOM     41 OXT  ASP Q 709      -2.014  20.794  62.552  1.00 42.11 LIG-0.65  OA
ENDBRANCH 34 39
ENDBRANCH 32 34
ENDBRANCH 26 30
ENDBRANCH 23 26
ENDBRANCH 1 22
BRANCH 1 42
ATOM     42  CB  GLU Q 707      -2.389  19.543  53.927  1.00 49.18 LIG 0.04  C 
BRANCH 42 43
ATOM     43  CG  GLU Q 707      -1.826  19.916  52.539  1.00 51.82 LIG 0.12  C 
BRANCH 43 44
ATOM     44  CD  GLU Q 707      -0.805  21.072  52.603  1.00 52.55 LIG 0.17  C 
ATOM     45 OE2  GLU Q 707      -1.226  22.251  52.608  1.00 56.45 LIG-0.65  OA
ATOM     46 OE1  GLU Q 707       0.426  20.804  52.629  1.00 56.78 LIG-0.65  OA
ENDBRANCH 43 44
ENDBRANCH 42 43
ENDBRANCH 1 42
TORSDOF 21
ENDMDL
MODEL 10
USER: ADFR SOLUTION from run 199
USER: SCORE 18.723324 LL:  -3.597 LR: -16.385 RR:   0.000 FEB: -10.120
USER: RMSD 6.215704
USER: SEED 198
USER: STATUS 1 or 2 clusters left
USER: GENES 23
USER: genes 0 Translation |==|  0.39549 0.59800 0.43020
USER: genes 1 Rotation |==|  0.63354 0.73068 0.92302 0.50257
USER: genes 2 Torsion [CB]-CA--N-[C] |==|  0.18695
USER: genes 3 Torsion [N]-C--CA-[N] |==|  0.90668
USER: genes 4 Torsion [C]-CA--CB-[CG] |==|  0.41587
USER: genes 5 Torsion [CA]-CB--CG-[CD] |==|  0.57329
USER: genes 6 Torsion [CB]-CG--CD-[OE1] |==|  0.36553
USER: genes 7 Torsion [C]-CA--N-[C] |==|  0.84351
USER: genes 8 Torsion [N]-C--CA-[N] |==|  0.70155
USER: genes 9 Torsion [C]-CA--CB-[CG] |==|  0.57761
USER: genes 10 Torsion [CA]-CB--CG-[SD] |==|  0.21544
USER: genes 11 Torsion [CB]-CG--SD-[CE] |==|  0.15026
USER: genes 12 Torsion [N]-CA--C-[N] |==|  0.81679
USER: genes 13 Torsion [C]-N--CA-[CB] |==|  0.51670
USER: genes 14 Torsion [N]-CA--CB-[CG1] |==|  0.85475
USER: genes 15 Torsion [N]-CA--C-[N] |==|  0.38171
USER: genes 16 Torsion [C]-N--CA-[CB] |==|  0.82963
USER: genes 17 Torsion [N]-CA--CB-[CG] |==|  0.69173
USER: genes 18 Torsion [CA]-CB--CG-[OD2] |==|  0.78417
USER: genes 19 Torsion [N]-CA--C-[O] |==|  0.70545
USER: genes 20 Torsion [N]-CA--CB-[CG] |==|  0.68804
USER: genes 21 Torsion [CA]-CB--CG-[CD] |==|  0.80569
USER: genes 22 Torsion [CB]-CG--CD-[OE2] |==|  0.67772
ROOT
ATOM      1  CA  GLU Q 707      -3.754  20.913  54.057  1.00 49.62 LIG 0.18  C 
ENDROOT
BRANCH 1 2
ATOM      2  N   GLU Q 707      -4.447  19.631  54.273  1.00 50.42 LIG-0.35  N 
ATOM      3 H    GLU Q 707      -4.560  19.428  55.100  1.00 50.42 LIG 0.16  HD
ATOM      4  C   GLU Q 706      -4.851  18.870  53.265  1.00 51.37 LIG 0.24  C 
ATOM      5 O    GLU Q 706      -4.637  19.181  52.097  1.00 51.66 LIG-0.27  OA
BRANCH 4 6
ATOM      6  CA  GLU Q 706      -5.630  17.572  53.630  1.00 52.25 LIG 0.18  C 
BRANCH 6 7
ATOM      7  CB  GLU Q 706      -7.134  17.884  53.726  1.00 52.83 LIG 0.04  C 
BRANCH 7 8
ATOM      8  CG  GLU Q 706      -8.053  16.701  53.351  1.00 56.79 LIG 0.12  C 
BRANCH 8 9
ATOM      9  CD  GLU Q 706      -9.449  17.123  52.823  1.00 61.53 LIG 0.17  C 
ATOM     10 OE1  GLU Q 706      -9.888  16.601  51.763  1.00 62.14 LIG-0.65  OA
ATOM     11 OE2  GLU Q 706     -10.099  17.989  53.475  1.00 62.79 LIG-0.65  OA
ENDBRANCH 8 9
ENDBRANCH 7 8
ENDBRANCH 6 7
BRANCH 6 12
ATOM     12  N   GLU Q 706      -5.162  16.966  54.895  1.00 51.83 LIG-0.35  N 
ATOM     13 H    GLU Q 706      -5.791  16.864  55.473  1.00 51.83 LIG 0.16  HD
ATOM     14  C   MET Q 705      -3.894  16.604  55.141  1.00 52.04 LIG 0.26  C 
ATOM     15 O    MET Q 705      -2.988  16.640  54.300  1.00 51.63 LIG-0.27  OA
BRANCH 14 16
ATOM     16  CA  MET Q 705      -3.588  16.133  56.564  1.00 52.15 LIG 0.40  C 
ATOM     17  N   MET Q 705      -2.790  17.149  57.325  1.00 52.08 LIG 0.61  N 
BRANCH 16 18
ATOM     18  CB  MET Q 705      -4.877  15.748  57.300  1.00 52.13 LIG 0.06  C 
BRANCH 18 19
ATOM     19  CG  MET Q 705      -4.816  15.913  58.820  1.00 53.37 LIG 0.08  C 
BRANCH 19 20
ATOM     20 SD   MET Q 705      -4.985  17.629  59.393  1.00 56.30 LIG-0.17  SA
ATOM     21  CE  MET Q 705      -6.513  18.135  58.613  1.00 57.25 LIG 0.09  C 
ENDBRANCH 19 20
ENDBRANCH 18 19
ENDBRANCH 16 18
ENDBRANCH 14 16
ENDBRANCH 6 12
ENDBRANCH 4 6
ENDBRANCH 1 2
BRANCH 1 22
ATOM     22  C   GLU Q 707      -3.231  21.472  55.387  1.00 47.30 LIG 0.24  C 
ATOM     23  N   VAL Q 708      -4.144  21.836  56.285  1.00 45.52 LIG-0.35  N 
ATOM     24 H    VAL Q 708      -4.985  21.897  56.116  1.00 45.52 LIG 0.16  HD
ATOM     25 O    GLU Q 707      -2.017  21.546  55.593  1.00 46.84 LIG-0.27  OA
BRANCH 23 26
ATOM     26  CA  VAL Q 708      -3.776  22.171  57.671  1.00 44.03 LIG 0.18  C 
BRANCH 26 27
ATOM     27  CB  VAL Q 708      -5.016  22.414  58.546  1.00 43.64 LIG 0.01  C 
ATOM     28  CG1 VAL Q 708      -5.928  23.439  57.877  1.00 41.62 LIG 0.01  C 
ATOM     29  CG2 VAL Q 708      -5.765  21.107  58.783  1.00 42.17 LIG 0.01  C 
ENDBRANCH 26 27
BRANCH 26 30
ATOM     30  C   VAL Q 708      -2.867  21.087  58.275  1.00 43.98 LIG 0.24  C 
ATOM     31 O    VAL Q 708      -3.089  19.905  58.050  1.00 43.91 LIG-0.27  OA
ATOM     32  N   ASP Q 709      -1.827  21.500  58.996  1.00 43.53 LIG-0.34  N 
ATOM     33 H    ASP Q 709      -1.649  22.332  59.128  1.00 43.53 LIG 0.16  HD
BRANCH 32 34
ATOM     34  CA  ASP Q 709      -0.873  20.585  59.640  1.00 43.18 LIG 0.20  C 
BRANCH 34 35
ATOM     35  CB  ASP Q 709      -1.591  19.714  60.653  1.00 43.21 LIG 0.15  C 
BRANCH 35 36
ATOM     36  CG  ASP Q 709      -1.214  20.035  62.069  1.00 45.24 LIG 0.17  C 
ATOM     37 OD2  ASP Q 709      -0.107  19.595  62.475  1.00 45.66 LIG-0.65  OA
ATOM     38 OD1  ASP Q 709      -2.013  20.747  62.746  1.00 45.75 LIG-0.65  OA
ENDBRANCH 35 36
ENDBRANCH 34 35
BRANCH 34 39
ATOM     39  C   ASP Q 709      -0.199  19.626  58.642  1.00 42.83 LIG 0.20  C 
ATOM     40 O    ASP Q 709      -0.509  18.439  58.589  1.00 42.06 LIG-0.65  OA
ATOM     41 OXT  ASP Q 709       0.724  20.017  57.908  1.00 42.11 LIG-0.65  OA
ENDBRANCH 34 39
ENDBRANCH 32 34
ENDBRANCH 26 30
ENDBRANCH 23 26
ENDBRANCH 1 22
BRANCH 1 42
ATOM     42  CB  GLU Q 707      -4.714  21.935  53.421  1.00 49.18 LIG 0.04  C 
BRANCH 42 43
ATOM     43  CG  GLU Q 707      -4.374  22.340  51.971  1.00 51.82 LIG 0.12  C 
BRANCH 43 44
ATOM     44  CD  GLU Q 707      -3.094  23.198  51.877  1.00 52.55 LIG 0.17  C 
ATOM     45 OE2  GLU Q 707      -3.185  24.376  51.465  1.00 56.45 LIG-0.65  OA
ATOM     46 OE1  GLU Q 707      -1.988  22.687  52.197  1.00 56.78 LIG-0.65  OA
ENDBRANCH 43 44
ENDBRANCH 42 43
ENDBRANCH 1 42
TORSDOF 21
ENDMDL
MODEL 11
USER: ADFR SOLUTION from run 137
USER: SCORE 17.220788 LL:  -3.266 LR: -16.275 RR:   0.000 FEB: -10.011
USER: RMSD 6.750962
USER: SEED 136
USER: STATUS no improvement in best in 9 clusters for 5 generations
USER: GENES 23
USER: genes 0 Translation |==|  0.39698 0.55183 0.45823
USER: genes 1 Rotation |==|  0.63069 0.76199 0.90375 0.53565
USER: genes 2 Torsion [CB]-CA--N-[C] |==|  0.50000
USER: genes 3 Torsion [N]-C--CA-[N] |==|  0.00713
USER: genes 4 Torsion [C]-CA--CB-[CG] |==|  0.42834
USER: genes 5 Torsion [CA]-CB--CG-[CD] |==|  0.13113
USER: genes 6 Torsion [CB]-CG--CD-[OE1] |==|  0.15200
USER: genes 7 Torsion [C]-CA--N-[C] |==|  0.18525
USER: genes 8 Torsion [N]-C--CA-[N] |==|  0.75857
USER: genes 9 Torsion [C]-CA--CB-[CG] |==|  0.37789
USER: genes 10 Torsion [CA]-CB--CG-[SD] |==|  0.86600
USER: genes 11 Torsion [CB]-CG--SD-[CE] |==|  0.58625
USER: genes 12 Torsion [N]-CA--C-[N] |==|  0.87547
USER: genes 13 Torsion [C]-N--CA-[CB] |==|  0.49090
USER: genes 14 Torsion [N]-CA--CB-[CG1] |==|  0.81389
USER: genes 15 Torsion [N]-CA--C-[N] |==|  0.44616
USER: genes 16 Torsion [C]-N--CA-[CB] |==|  0.29809
USER: genes 17 Torsion [N]-CA--CB-[CG] |==|  0.84670
USER: genes 18 Torsion [CA]-CB--CG-[OD2] |==|  0.26899
USER: genes 19 Torsion [N]-CA--C-[O] |==|  0.12131
USER: genes 20 Torsion [N]-CA--CB-[CG] |==|  0.67685
USER: genes 21 Torsion [CA]-CB--CG-[CD] |==|  0.77736
USER: genes 22 Torsion [CB]-CG--CD-[OE2] |==|  0.21382
ROOT
ATOM      1  CA  GLU Q 707      -3.724  20.151  54.687  1.00 49.62 LIG 0.18  C 
ENDROOT
BRANCH 1 2
ATOM      2  N   GLU Q 707      -4.522  18.979  55.085  1.00 50.42 LIG-0.35  N 
ATOM      3 H    GLU Q 707      -5.331  18.988  54.793  1.00 50.42 LIG 0.16  HD
ATOM      4  C   GLU Q 706      -4.019  18.004  55.829  1.00 51.37 LIG 0.24  C 
ATOM      5 O    GLU Q 706      -2.869  18.047  56.255  1.00 51.66 LIG-0.27  OA
BRANCH 4 6
ATOM      6  CA  GLU Q 706      -4.949  16.789  56.123  1.00 52.25 LIG 0.18  C 
BRANCH 6 7
ATOM      7  CB  GLU Q 706      -4.251  15.489  55.685  1.00 52.83 LIG 0.04  C 
BRANCH 7 8
ATOM      8  CG  GLU Q 706      -4.722  14.229  56.443  1.00 56.79 LIG 0.12  C 
BRANCH 8 9
ATOM      9  CD  GLU Q 706      -6.263  14.091  56.553  1.00 61.53 LIG 0.17  C 
ATOM     10 OE1  GLU Q 706      -6.958  14.121  55.504  1.00 62.14 LIG-0.65  OA
ATOM     11 OE2  GLU Q 706      -6.771  13.963  57.704  1.00 62.79 LIG-0.65  OA
ENDBRANCH 8 9
ENDBRANCH 7 8
ENDBRANCH 6 7
BRANCH 6 12
ATOM     12  N   GLU Q 706      -6.262  16.904  55.451  1.00 51.83 LIG-0.35  N 
ATOM     13 H    GLU Q 706      -6.915  17.001  56.002  1.00 51.83 LIG 0.16  HD
ATOM     14  C   MET Q 705      -6.441  16.864  54.123  1.00 52.04 LIG 0.26  C 
ATOM     15 O    MET Q 705      -5.518  16.830  53.299  1.00 51.63 LIG-0.27  OA
BRANCH 14 16
ATOM     16  CA  MET Q 705      -7.891  16.852  53.635  1.00 52.15 LIG 0.40  C 
ATOM     17  N   MET Q 705      -8.443  15.459  53.572  1.00 52.08 LIG 0.61  N 
BRANCH 16 18
ATOM     18  CB  MET Q 705      -8.763  17.775  54.494  1.00 52.13 LIG 0.06  C 
BRANCH 18 19
ATOM     19  CG  MET Q 705      -9.731  18.656  53.702  1.00 53.37 LIG 0.08  C 
BRANCH 19 20
ATOM     20 SD   MET Q 705      -8.970  19.529  52.301  1.00 56.30 LIG-0.17  SA
ATOM     21  CE  MET Q 705      -9.944  21.028  52.222  1.00 57.25 LIG 0.09  C 
ENDBRANCH 19 20
ENDBRANCH 18 19
ENDBRANCH 16 18
ENDBRANCH 14 16
ENDBRANCH 6 12
ENDBRANCH 4 6
ENDBRANCH 1 2
BRANCH 1 22
ATOM     22  C   GLU Q 707      -3.216  20.900  55.927  1.00 47.30 LIG 0.24  C 
ATOM     23  N   VAL Q 708      -4.094  21.102  56.907  1.00 45.52 LIG-0.35  N 
ATOM     24 H    VAL Q 708      -4.939  20.957  56.832  1.00 45.52 LIG 0.16  HD
ATOM     25 O    GLU Q 707      -2.039  21.266  55.991  1.00 46.84 LIG-0.27  OA
BRANCH 23 26
ATOM     26  CA  VAL Q 708      -3.679  21.601  58.229  1.00 44.03 LIG 0.18  C 
BRANCH 26 27
ATOM     27  CB  VAL Q 708      -4.883  21.826  59.157  1.00 43.64 LIG 0.01  C 
ATOM     28  CG1 VAL Q 708      -5.739  22.972  58.626  1.00 41.62 LIG 0.01  C 
ATOM     29  CG2 VAL Q 708      -5.711  20.550  59.273  1.00 42.17 LIG 0.01  C 
ENDBRANCH 26 27
BRANCH 26 30
ATOM     30  C   VAL Q 708      -2.643  20.661  58.870  1.00 43.98 LIG 0.24  C 
ATOM     31 O    VAL Q 708      -2.504  19.522  58.447  1.00 43.91 LIG-0.27  OA
ATOM     32  N   ASP Q 709      -1.894  21.163  59.851  1.00 43.53 LIG-0.34  N 
ATOM     33 H    ASP Q 709      -1.967  21.974  60.127  1.00 43.53 LIG 0.16  HD
BRANCH 32 34
ATOM     34  CA  ASP Q 709      -0.868  20.387  60.563  1.00 43.18 LIG 0.20  C 
BRANCH 34 35
ATOM     35  CB  ASP Q 709       0.515  20.845  60.141  1.00 43.21 LIG 0.15  C 
BRANCH 35 36
ATOM     36  CG  ASP Q 709       0.722  20.783  58.656  1.00 45.24 LIG 0.17  C 
ATOM     37 OD2  ASP Q 709       0.549  21.852  58.015  1.00 45.66 LIG-0.65  OA
ATOM     38 OD1  ASP Q 709       1.084  19.678  58.156  1.00 45.75 LIG-0.65  OA
ENDBRANCH 35 36
ENDBRANCH 34 35
BRANCH 34 39
ATOM     39  C   ASP Q 709      -0.938  20.565  62.090  1.00 42.83 LIG 0.20  C 
ATOM     40 O    ASP Q 709      -2.013  20.548  62.685  1.00 42.06 LIG-0.65  OA
ATOM     41 OXT  ASP Q 709       0.087  20.796  62.752  1.00 42.11 LIG-0.65  OA
ENDBRANCH 34 39
ENDBRANCH 32 34
ENDBRANCH 26 30
ENDBRANCH 23 26
ENDBRANCH 1 22
BRANCH 1 42
ATOM     42  CB  GLU Q 707      -4.573  21.108  53.831  1.00 49.18 LIG 0.04  C 
BRANCH 42 43
ATOM     43  CG  GLU Q 707      -4.084  21.299  52.380  1.00 51.82 LIG 0.12  C 
BRANCH 43 44
ATOM     44  CD  GLU Q 707      -2.910  22.297  52.274  1.00 52.55 LIG 0.17  C 
ATOM     45 OE2  GLU Q 707      -1.764  21.919  52.606  1.00 56.45 LIG-0.65  OA
ATOM     46 OE1  GLU Q 707      -3.137  23.471  51.877  1.00 56.78 LIG-0.65  OA
ENDBRANCH 43 44
ENDBRANCH 42 43
ENDBRANCH 1 42
TORSDOF 21
ENDMDL
MODEL 12
USER: ADFR SOLUTION from run 153
USER: SCORE 17.599109 LL:  -2.857 LR: -16.263 RR:   0.000 FEB:  -9.999
USER: RMSD 5.298620
USER: SEED 152
USER: STATUS no improvement in best in 2 clusters for 5 generations
USER: GENES 23
USER: genes 0 Translation |==|  0.42279 0.55160 0.44252
USER: genes 1 Rotation |==|  0.58074 0.71768 0.86106 0.75638
USER: genes 2 Torsion [CB]-CA--N-[C] |==|  0.17222
USER: genes 3 Torsion [N]-C--CA-[N] |==|  0.31167
USER: genes 4 Torsion [C]-CA--CB-[CG] |==|  0.66894
USER: genes 5 Torsion [CA]-CB--CG-[CD] |==|  0.73930
USER: genes 6 Torsion [CB]-CG--CD-[OE1] |==|  0.41463
USER: genes 7 Torsion [C]-CA--N-[C] |==|  0.60606
USER: genes 8 Torsion [N]-C--CA-[N] |==|  0.45558
USER: genes 9 Torsion [C]-CA--CB-[CG] |==|  0.88947
USER: genes 10 Torsion [CA]-CB--CG-[SD] |==|  0.45074
USER: genes 11 Torsion [CB]-CG--SD-[CE] |==|  0.78951
USER: genes 12 Torsion [N]-CA--C-[N] |==|  0.06465
USER: genes 13 Torsion [C]-N--CA-[CB] |==|  0.45003
USER: genes 14 Torsion [N]-CA--CB-[CG1] |==|  0.81253
USER: genes 15 Torsion [N]-CA--C-[N] |==|  0.41489
USER: genes 16 Torsion [C]-N--CA-[CB] |==|  0.31454
USER: genes 17 Torsion [N]-CA--CB-[CG] |==|  0.85805
USER: genes 18 Torsion [CA]-CB--CG-[OD2] |==|  0.74364
USER: genes 19 Torsion [N]-CA--C-[O] |==|  0.58338
USER: genes 20 Torsion [N]-CA--CB-[CG] |==|  0.57591
USER: genes 21 Torsion [CA]-CB--CG-[CD] |==|  0.58568
USER: genes 22 Torsion [CB]-CG--CD-[OE2] |==|  0.95770
ROOT
ATOM      1  CA  GLU Q 707      -3.202  20.147  54.334  1.00 49.62 LIG 0.18  C 
ENDROOT
BRANCH 1 2
ATOM      2  N   GLU Q 707      -4.629  19.832  54.151  1.00 50.42 LIG-0.35  N 
ATOM      3 H    GLU Q 707      -5.139  20.136  54.772  1.00 50.42 LIG 0.16  HD
ATOM      4  C   GLU Q 706      -5.069  19.137  53.111  1.00 51.37 LIG 0.24  C 
ATOM      5 O    GLU Q 706      -4.301  18.689  52.264  1.00 51.66 LIG-0.27  OA
BRANCH 4 6
ATOM      6  CA  GLU Q 706      -6.609  18.929  53.002  1.00 52.25 LIG 0.18  C 
BRANCH 6 7
ATOM      7  CB  GLU Q 706      -6.918  17.426  52.887  1.00 52.83 LIG 0.04  C 
BRANCH 7 8
ATOM      8  CG  GLU Q 706      -7.641  17.024  51.583  1.00 56.79 LIG 0.12  C 
BRANCH 8 9
ATOM      9  CD  GLU Q 706      -9.186  16.976  51.701  1.00 61.53 LIG 0.17  C 
ATOM     10 OE1  GLU Q 706      -9.888  17.242  50.689  1.00 62.14 LIG-0.65  OA
ATOM     11 OE2  GLU Q 706      -9.692  16.680  52.822  1.00 62.79 LIG-0.65  OA
ENDBRANCH 8 9
ENDBRANCH 7 8
ENDBRANCH 6 7
BRANCH 6 12
ATOM     12  N   GLU Q 706      -7.199  19.652  51.855  1.00 51.83 LIG-0.35  N 
ATOM     13 H    GLU Q 706      -6.698  19.641  51.156  1.00 51.83 LIG 0.16  HD
ATOM     14  C   MET Q 705      -8.389  20.268  51.877  1.00 52.04 LIG 0.26  C 
ATOM     15 O    MET Q 705      -9.180  20.216  52.827  1.00 51.63 LIG-0.27  OA
BRANCH 14 16
ATOM     16  CA  MET Q 705      -8.753  21.083  50.634  1.00 52.15 LIG 0.40  C 
ATOM     17  N   MET Q 705     -10.218  21.402  50.588  1.00 52.08 LIG 0.61  N 
BRANCH 16 18
ATOM     18  CB  MET Q 705      -7.888  22.345  50.537  1.00 52.13 LIG 0.06  C 
BRANCH 18 19
ATOM     19  CG  MET Q 705      -7.633  23.046  51.872  1.00 53.37 LIG 0.08  C 
BRANCH 19 20
ATOM     20 SD   MET Q 705      -6.234  24.207  51.851  1.00 56.30 LIG-0.17  SA
ATOM     21  CE  MET Q 705      -4.829  23.101  51.891  1.00 57.25 LIG 0.09  C 
ENDBRANCH 19 20
ENDBRANCH 18 19
ENDBRANCH 16 18
ENDBRANCH 14 16
ENDBRANCH 6 12
ENDBRANCH 4 6
ENDBRANCH 1 2
BRANCH 1 22
ATOM     22  C   GLU Q 707      -2.983  20.900  55.654  1.00 47.30 LIG 0.24  C 
ATOM     23  N   VAL Q 708      -3.906  20.735  56.598  1.00 45.52 LIG-0.35  N 
ATOM     24 H    VAL Q 708      -4.663  20.347  56.467  1.00 45.52 LIG 0.16  HD
ATOM     25 O    GLU Q 707      -1.978  21.598  55.809  1.00 46.84 LIG-0.27  OA
BRANCH 23 26
ATOM     26  CA  VAL Q 708      -3.701  21.215  57.975  1.00 44.03 LIG 0.18  C 
BRANCH 26 27
ATOM     27  CB  VAL Q 708      -5.026  21.317  58.747  1.00 43.64 LIG 0.01  C 
ATOM     28  CG1 VAL Q 708      -5.889  22.424  58.148  1.00 41.62 LIG 0.01  C 
ATOM     29  CG2 VAL Q 708      -5.767  19.984  58.710  1.00 42.17 LIG 0.01  C 
ENDBRANCH 26 27
BRANCH 26 30
ATOM     30  C   VAL Q 708      -2.685  20.331  58.719  1.00 43.98 LIG 0.24  C 
ATOM     31 O    VAL Q 708      -2.557  19.153  58.413  1.00 43.91 LIG-0.27  OA
ATOM     32  N   ASP Q 709      -1.940  20.918  59.653  1.00 43.53 LIG-0.34  N 
ATOM     33 H    ASP Q 709      -2.004  21.753  59.847  1.00 43.53 LIG 0.16  HD
BRANCH 32 34
ATOM     34  CA  ASP Q 709      -0.931  20.204  60.451  1.00 43.18 LIG 0.20  C 
BRANCH 34 35
ATOM     35  CB  ASP Q 709       0.457  20.707  60.105  1.00 43.21 LIG 0.15  C 
BRANCH 35 36
ATOM     36  CG  ASP Q 709       0.725  20.705  58.628  1.00 45.24 LIG 0.17  C 
ATOM     37 OD2  ASP Q 709       1.266  19.674  58.151  1.00 45.66 LIG-0.65  OA
ATOM     38 OD1  ASP Q 709       0.366  21.720  57.962  1.00 45.75 LIG-0.65  OA
ENDBRANCH 35 36
ENDBRANCH 34 35
BRANCH 34 39
ATOM     39  C   ASP Q 709      -1.107  20.419  61.966  1.00 42.83 LIG 0.20  C 
ATOM     40 O    ASP Q 709      -0.145  20.396  62.728  1.00 42.06 LIG-0.65  OA
ATOM     41 OXT  ASP Q 709      -2.237  20.557  62.462  1.00 42.11 LIG-0.65  OA
ENDBRANCH 34 39
ENDBRANCH 32 34
ENDBRANCH 26 30
ENDBRANCH 23 26
ENDBRANCH 1 22
BRANCH 1 42
ATOM     42  CB  GLU Q 707      -2.695  21.015  53.167  1.00 49.18 LIG 0.04  C 
BRANCH 42 43
ATOM     43  CG  GLU Q 707      -1.189  20.880  52.856  1.00 51.82 LIG 0.12  C 
BRANCH 43 44
ATOM     44  CD  GLU Q 707      -0.579  22.184  52.295  1.00 52.55 LIG 0.17  C 
ATOM     45 OE2  GLU Q 707      -1.348  23.079  51.878  1.00 56.45 LIG-0.65  OA
ATOM     46 OE1  GLU Q 707       0.674  22.306  52.250  1.00 56.78 LIG-0.65  OA
ENDBRANCH 43 44
ENDBRANCH 42 43
ENDBRANCH 1 42
TORSDOF 21
ENDMDL
