MODEL 1
USER: ADFR SOLUTION from run 153
USER: SCORE 20.994279 LL:  -3.926 LR: -18.003 RR:   0.000 FEB: -10.546
USER: RMSD 8.504613
USER: SEED 152
USER: STATUS no improvement in best in 7 clusters for 5 generations
USER: GENES 27
USER: genes 0 Translation |==|  0.34697 0.48667 0.53034
USER: genes 1 Rotation |==|  0.36047 0.50905 0.02348 0.55814
USER: genes 2 Torsion [N]-CA--C-[N] |==|  0.09032
USER: genes 3 Torsion [C]-N--CA-[C] |==|  0.79951
USER: genes 4 Torsion [N]-CA--CB-[CG] |==|  0.26291
USER: genes 5 Torsion [CA]-CB--CG-[CD] |==|  0.33189
USER: genes 6 Torsion [CB]-CG--CD-[OE2] |==|  0.06151
USER: genes 7 Torsion [N]-CA--C-[N] |==|  0.46275
USER: genes 8 Torsion [C]-N--CA-[CB] |==|  0.83569
USER: genes 9 Torsion [N]-CA--CB-[CG1] |==|  0.27940
USER: genes 10 Torsion [N]-CA--C-[N] |==|  0.39157
USER: genes 11 Torsion [C]-N--CA-[CB] |==|  0.49634
USER: genes 12 Torsion [N]-CA--CB-[CG] |==|  0.63089
USER: genes 13 Torsion [CA]-CB--CG-[OD2] |==|  0.51736
USER: genes 14 Torsion [N]-CA--C-[O] |==|  0.75267
USER: genes 15 Torsion [C]-CA--CB-[CG] |==|  0.30647
USER: genes 16 Torsion [CA]-CB--CG-[CD] |==|  0.83517
USER: genes 17 Torsion [CB]-CG--CD-[OE2] |==|  0.27149
USER: genes 18 Torsion [C]-CA--N-[C] |==|  0.78605
USER: genes 19 Torsion [N]-C--CA-[N] |==|  0.36534
USER: genes 20 Torsion [C]-CA--CB-[CG1] |==|  0.81827
USER: genes 21 Torsion [C]-CA--N-[C] |==|  0.85482
USER: genes 22 Torsion [N]-C--CA-[N] |==|  0.99873
USER: genes 23 Torsion [C]-CA--CB-[CG2] |==|  0.48067
USER: genes 24 Torsion [CA]-CB--OG1-[HG1] |==|  0.01503
USER: genes 25 Torsion [C]-CA--N-[C] |==|  0.70018
USER: genes 26 Torsion [N]-C--CA-[CB] |==|  0.80823
ROOT
ATOM      1  CA  GLU Q 639      20.612 -37.975  55.094  1.00 17.71 LIG 0.18  C 
ENDROOT
BRANCH 1 2
ATOM      2  C   GLU Q 639      21.265 -37.120  56.175  1.00 15.36 LIG 0.24  C 
ATOM      3 O    GLU Q 639      21.863 -36.084  55.884  1.00 14.90 LIG-0.27  OA
ATOM      4  N   GLU Q 640      21.146 -37.561  57.423  1.00 12.94 LIG-0.35  N 
ATOM      5 H    GLU Q 640      20.732 -38.282  57.639  1.00 12.94 LIG 0.16  HD
BRANCH 4 6
ATOM      6  CA  GLU Q 640      21.724 -36.838  58.549  1.00 11.11 LIG 0.18  C 
BRANCH 6 7
ATOM      7  CB  GLU Q 640      21.124 -37.381  59.850  1.00 10.30 LIG 0.04  C 
BRANCH 7 8
ATOM      8  CG  GLU Q 640      22.002 -38.471  60.486  1.00 11.77 LIG 0.12  C 
BRANCH 8 9
ATOM      9  CD  GLU Q 640      22.506 -38.124  61.893  1.00 13.33 LIG 0.17  C 
ATOM     10 OE2  GLU Q 640      21.876 -37.274  62.555  1.00 13.21 LIG-0.65  OA
ATOM     11 OE1  GLU Q 640      23.536 -38.696  62.333  1.00 12.97 LIG-0.65  OA
ENDBRANCH 8 9
ENDBRANCH 7 8
ENDBRANCH 6 7
BRANCH 6 12
ATOM     12  C   GLU Q 640      23.250 -36.967  58.560  1.00  9.90 LIG 0.24  C 
ATOM     13  N   VAL Q 641      23.912 -36.130  59.370  1.00  8.06 LIG-0.35  N 
ATOM     14 H    VAL Q 641      23.539 -35.456  59.753  1.00  8.06 LIG 0.16  HD
ATOM     15 O    GLU Q 640      23.805 -37.812  57.839  1.00  9.48 LIG-0.27  OA
BRANCH 13 16
ATOM     16  CA  VAL Q 641      25.348 -36.273  59.696  1.00  6.68 LIG 0.18  C 
BRANCH 16 17
ATOM     17  CB  VAL Q 641      25.689 -37.637  60.370  1.00  5.82 LIG 0.01  C 
ATOM     18  CG2 VAL Q 641      26.590 -37.451  61.564  1.00  2.95 LIG 0.01  C 
ATOM     19  CG1 VAL Q 641      26.274 -38.573  59.368  1.00  4.23 LIG 0.01  C 
ENDBRANCH 16 17
BRANCH 16 20
ATOM     20  C   VAL Q 641      26.258 -36.079  58.462  1.00  6.62 LIG 0.24  C 
ATOM     21 O    VAL Q 641      25.934 -36.524  57.368  1.00  7.26 LIG-0.27  OA
ATOM     22  N   ASP Q 642      27.389 -35.419  58.654  1.00  6.11 LIG-0.34  N 
ATOM     23 H    ASP Q 642      27.634 -35.106  59.417  1.00  6.11 LIG 0.16  HD
BRANCH 22 24
ATOM     24  CA  ASP Q 642      28.338 -35.157  57.574  1.00  5.85 LIG 0.20  C 
BRANCH 24 25
ATOM     25  CB  ASP Q 642      29.534 -34.342  58.108  1.00  5.86 LIG 0.15  C 
BRANCH 25 26
ATOM     26  CG  ASP Q 642      29.892 -33.137  57.200  1.00  7.09 LIG 0.17  C 
ATOM     27 OD2  ASP Q 642      30.914 -32.485  57.477  1.00  7.75 LIG-0.65  OA
ATOM     28 OD1  ASP Q 642      29.177 -32.850  56.218  1.00  5.16 LIG-0.65  OA
ENDBRANCH 25 26
ENDBRANCH 24 25
BRANCH 24 29
ATOM     29  C   ASP Q 642      28.821 -36.475  56.936  1.00  5.53 LIG 0.20  C 
ATOM     30 O    ASP Q 642      29.814 -37.081  57.370  1.00  4.89 LIG-0.65  OA
ATOM     31 OXT  ASP Q 642      28.204 -36.984  55.985  1.00  5.08 LIG-0.65  OA
ENDBRANCH 24 29
ENDBRANCH 22 24
ENDBRANCH 16 20
ENDBRANCH 13 16
ENDBRANCH 6 12
ENDBRANCH 4 6
ENDBRANCH 1 2
BRANCH 1 32
ATOM     32  CB  GLU Q 639      20.283 -37.115  53.871  1.00 18.28 LIG 0.04  C 
BRANCH 32 33
ATOM     33  CG  GLU Q 639      21.139 -37.415  52.652  1.00 21.94 LIG 0.12  C 
BRANCH 33 34
ATOM     34  CD  GLU Q 639      22.619 -37.211  52.915  1.00 26.00 LIG 0.17  C 
ATOM     35 OE1  GLU Q 639      23.082 -36.054  52.842  1.00 25.44 LIG-0.65  OA
ATOM     36 OE2  GLU Q 639      23.318 -38.207  53.195  1.00 27.11 LIG-0.65  OA
ENDBRANCH 33 34
ENDBRANCH 32 33
ENDBRANCH 1 32
BRANCH 1 37
ATOM     37  N   GLU Q 639      19.412 -38.631  55.596  1.00 19.24 LIG-0.35  N 
ATOM     38  C   VAL Q 638      19.477 -39.701  56.382  1.00 20.97 LIG 0.24  C 
ATOM     39 O    VAL Q 638      20.542 -40.207  56.738  1.00 20.96 LIG-0.27  OA
ATOM     40 H    GLU Q 639      18.675 -38.267  55.341  1.00 19.24 LIG 0.16  HD
BRANCH 38 41
ATOM     41  CA  VAL Q 638      18.143 -40.287  56.835  1.00 22.03 LIG 0.18  C 
BRANCH 41 42
ATOM     42  CB  VAL Q 638      17.907 -39.916  58.311  1.00 22.63 LIG 0.01  C 
ATOM     43  CG1 VAL Q 638      18.944 -40.585  59.199  1.00 22.21 LIG 0.01  C 
ATOM     44  CG2 VAL Q 638      17.936 -38.406  58.490  1.00 20.65 LIG 0.01  C 
ENDBRANCH 41 42
BRANCH 41 45
ATOM     45  N   VAL Q 638      18.105 -41.730  56.634  1.00 23.53 LIG-0.35  N 
ATOM     46 H    VAL Q 638      17.878 -42.137  57.357  1.00 23.53 LIG 0.16  HD
ATOM     47  C   THR Q 637      18.367 -42.422  55.530  1.00 24.82 LIG 0.24  C 
ATOM     48 O    THR Q 637      19.103 -42.006  54.636  1.00 25.63 LIG-0.27  OA
BRANCH 47 49
ATOM     49  CA  THR Q 637      17.698 -43.788  55.418  1.00 25.03 LIG 0.20  C 
BRANCH 49 50
ATOM     50  CB  THR Q 637      16.755 -43.432  54.255  1.00 24.88 LIG 0.15  C 
ATOM     51  CG2 THR Q 637      16.027 -44.673  53.761  1.00 23.89 LIG 0.04  C 
BRANCH 50 52
ATOM     52 OG1  THR Q 637      15.795 -42.463  54.694  1.00 24.10 LIG-0.39  OA
ATOM     53 HG1  THR Q 637      15.978 -42.222  55.477  1.00 24.10 LIG 0.21  HD
ENDBRANCH 50 52
ENDBRANCH 49 50
BRANCH 49 54
ATOM     54  N   THR Q 637      17.011 -43.724  56.702  1.00 26.29 LIG-0.34  N 
ATOM     55 H    THR Q 637      16.350 -43.175  56.725  1.00 26.29 LIG 0.16  HD
ATOM     56  C   PRO Q 636      17.396 -44.465  57.737  1.00 27.07 LIG 0.25  C 
ATOM     57 O    PRO Q 636      18.345 -45.247  57.693  1.00 27.06 LIG-0.27  OA
BRANCH 56 58
ATOM     58  CA  PRO Q 636      16.596 -44.306  59.026  1.00 27.59 LIG 0.35  C 
ATOM     59  CB  PRO Q 636      16.845 -42.925  59.634  1.00 27.63 LIG 0.05  C 
ATOM     60  CG  PRO Q 636      16.760 -43.145  61.101  1.00 27.91 LIG 0.04  C 
ATOM     61  CD  PRO Q 636      17.322 -44.517  61.345  1.00 28.09 LIG 0.32  C 
ATOM     62  N   PRO Q 636      17.065 -45.218  60.074  1.00 27.47 LIG 0.32  N 
ENDBRANCH 56 58
ENDBRANCH 49 54
ENDBRANCH 47 49
ENDBRANCH 41 45
ENDBRANCH 38 41
ENDBRANCH 1 37
TORSDOF 25
ENDMDL
MODEL 2
USER: ADFR SOLUTION from run 62
USER: SCORE 18.387420 LL:  -3.236 LR: -17.554 RR:   0.000 FEB: -10.096
USER: RMSD 5.822121
USER: SEED 61
USER: STATUS 1 or 2 clusters left
USER: GENES 27
USER: genes 0 Translation |==|  0.31073 0.50390 0.42381
USER: genes 1 Rotation |==|  0.34216 0.57936 0.76532 0.88522
USER: genes 2 Torsion [N]-CA--C-[N] |==|  0.39407
USER: genes 3 Torsion [C]-N--CA-[C] |==|  0.59161
USER: genes 4 Torsion [N]-CA--CB-[CG] |==|  0.58330
USER: genes 5 Torsion [CA]-CB--CG-[CD] |==|  0.12062
USER: genes 6 Torsion [CB]-CG--CD-[OE2] |==|  0.49925
USER: genes 7 Torsion [N]-CA--C-[N] |==|  0.28241
USER: genes 8 Torsion [C]-N--CA-[CB] |==|  0.28331
USER: genes 9 Torsion [N]-CA--CB-[CG1] |==|  0.67178
USER: genes 10 Torsion [N]-CA--C-[N] |==|  0.04519
USER: genes 11 Torsion [C]-N--CA-[CB] |==|  0.46404
USER: genes 12 Torsion [N]-CA--CB-[CG] |==|  0.86153
USER: genes 13 Torsion [CA]-CB--CG-[OD2] |==|  0.09745
USER: genes 14 Torsion [N]-CA--C-[O] |==|  0.46167
USER: genes 15 Torsion [C]-CA--CB-[CG] |==|  0.94515
USER: genes 16 Torsion [CA]-CB--CG-[CD] |==|  0.79720
USER: genes 17 Torsion [CB]-CG--CD-[OE2] |==|  0.46380
USER: genes 18 Torsion [C]-CA--N-[C] |==|  0.82608
USER: genes 19 Torsion [N]-C--CA-[N] |==|  0.88618
USER: genes 20 Torsion [C]-CA--CB-[CG1] |==|  0.81891
USER: genes 21 Torsion [C]-CA--N-[C] |==|  0.86107
USER: genes 22 Torsion [N]-C--CA-[N] |==|  0.16473
USER: genes 23 Torsion [C]-CA--CB-[CG2] |==|  0.39458
USER: genes 24 Torsion [CA]-CB--OG1-[HG1] |==|  0.64779
USER: genes 25 Torsion [C]-CA--N-[C] |==|  0.69153
USER: genes 26 Torsion [N]-C--CA-[CB] |==|  0.05618
ROOT
ATOM      1  CA  GLU Q 639      19.960 -37.652  52.457  1.00 17.71 LIG 0.18  C 
ENDROOT
BRANCH 1 2
ATOM      2  C   GLU Q 639      20.517 -37.114  53.772  1.00 15.36 LIG 0.24  C 
ATOM      3 O    GLU Q 639      21.590 -36.511  53.803  1.00 14.90 LIG-0.27  OA
ATOM      4  N   GLU Q 640      19.781 -37.338  54.855  1.00 12.94 LIG-0.35  N 
ATOM      5 H    GLU Q 640      19.031 -37.758  54.847  1.00 12.94 LIG 0.16  HD
BRANCH 4 6
ATOM      6  CA  GLU Q 640      20.198 -36.877  56.174  1.00 11.11 LIG 0.18  C 
BRANCH 6 7
ATOM      7  CB  GLU Q 640      19.628 -35.476  56.416  1.00 10.30 LIG 0.04  C 
BRANCH 7 8
ATOM      8  CG  GLU Q 640      20.527 -34.632  57.334  1.00 11.77 LIG 0.12  C 
BRANCH 8 9
ATOM      9  CD  GLU Q 640      22.024 -34.740  57.012  1.00 13.33 LIG 0.17  C 
ATOM     10 OE2  GLU Q 640      22.828 -34.084  57.705  1.00 13.21 LIG-0.65  OA
ATOM     11 OE1  GLU Q 640      22.394 -35.475  56.061  1.00 12.97 LIG-0.65  OA
ENDBRANCH 8 9
ENDBRANCH 7 8
ENDBRANCH 6 7
BRANCH 6 12
ATOM     12  C   GLU Q 640      19.737 -37.847  57.265  1.00  9.90 LIG 0.24  C 
ATOM     13  N   VAL Q 641      20.666 -38.683  57.750  1.00  8.06 LIG-0.35  N 
ATOM     14 H    VAL Q 641      21.436 -38.791  57.382  1.00  8.06 LIG 0.16  HD
ATOM     15 O    GLU Q 640      18.557 -37.830  57.650  1.00  9.48 LIG-0.27  OA
BRANCH 13 16
ATOM     16  CA  VAL Q 641      20.471 -39.506  58.964  1.00  6.68 LIG 0.18  C 
BRANCH 16 17
ATOM     17  CB  VAL Q 641      20.141 -40.996  58.644  1.00  5.82 LIG 0.01  C 
ATOM     18  CG2 VAL Q 641      20.263 -41.282  57.169  1.00  2.95 LIG 0.01  C 
ATOM     19  CG1 VAL Q 641      18.794 -41.350  59.174  1.00  4.23 LIG 0.01  C 
ENDBRANCH 16 17
BRANCH 16 20
ATOM     20  C   VAL Q 641      21.684 -39.451  59.918  1.00  6.62 LIG 0.24  C 
ATOM     21 O    VAL Q 641      21.820 -40.283  60.808  1.00  7.26 LIG-0.27  OA
ATOM     22  N   ASP Q 642      22.551 -38.470  59.725  1.00  6.11 LIG-0.34  N 
ATOM     23 H    ASP Q 642      22.466 -37.875  59.110  1.00  6.11 LIG 0.16  HD
BRANCH 22 24
ATOM     24  CA  ASP Q 642      23.746 -38.304  60.549  1.00  5.85 LIG 0.20  C 
BRANCH 24 25
ATOM     25  CB  ASP Q 642      24.706 -37.292  59.890  1.00  5.86 LIG 0.15  C 
BRANCH 25 26
ATOM     26  CG  ASP Q 642      24.971 -37.605  58.395  1.00  7.09 LIG 0.17  C 
ATOM     27 OD2  ASP Q 642      24.036 -38.076  57.725  1.00  7.75 LIG-0.65  OA
ATOM     28 OD1  ASP Q 642      26.088 -37.371  57.888  1.00  5.16 LIG-0.65  OA
ENDBRANCH 25 26
ENDBRANCH 24 25
BRANCH 24 29
ATOM     29  C   ASP Q 642      23.372 -37.848  61.974  1.00  5.53 LIG 0.20  C 
ATOM     30 O    ASP Q 642      24.193 -37.889  62.905  1.00  4.89 LIG-0.65  OA
ATOM     31 OXT  ASP Q 642      22.242 -37.394  62.220  1.00  5.08 LIG-0.65  OA
ENDBRANCH 24 29
ENDBRANCH 22 24
ENDBRANCH 16 20
ENDBRANCH 13 16
ENDBRANCH 6 12
ENDBRANCH 4 6
ENDBRANCH 1 2
BRANCH 1 32
ATOM     32  CB  GLU Q 639      20.564 -39.025  52.153  1.00 18.28 LIG 0.04  C 
BRANCH 32 33
ATOM     33  CG  GLU Q 639      21.856 -39.314  52.900  1.00 21.94 LIG 0.12  C 
BRANCH 33 34
ATOM     34  CD  GLU Q 639      23.032 -38.525  52.358  1.00 26.00 LIG 0.17  C 
ATOM     35 OE1  GLU Q 639      22.904 -37.946  51.258  1.00 25.44 LIG-0.65  OA
ATOM     36 OE2  GLU Q 639      24.083 -38.483  53.031  1.00 27.11 LIG-0.65  OA
ENDBRANCH 33 34
ENDBRANCH 32 33
ENDBRANCH 1 32
BRANCH 1 37
ATOM     37  N   GLU Q 639      20.216 -36.727  51.361  1.00 19.24 LIG-0.35  N 
ATOM     38  C   VAL Q 638      19.702 -35.500  51.347  1.00 20.97 LIG 0.24  C 
ATOM     39 O    VAL Q 638      18.985 -35.064  52.248  1.00 20.96 LIG-0.27  OA
ATOM     40 H    GLU Q 639      20.719 -37.044  50.739  1.00 19.24 LIG 0.16  HD
BRANCH 38 41
ATOM     41  CA  VAL Q 638      20.051 -34.638  50.139  1.00 22.03 LIG 0.18  C 
BRANCH 41 42
ATOM     42  CB  VAL Q 638      19.106 -34.992  48.977  1.00 22.63 LIG 0.01  C 
ATOM     43  CG1 VAL Q 638      19.342 -36.423  48.518  1.00 22.21 LIG 0.01  C 
ATOM     44  CG2 VAL Q 638      17.657 -34.792  49.392  1.00 20.65 LIG 0.01  C 
ENDBRANCH 41 42
BRANCH 41 45
ATOM     45  N   VAL Q 638      21.449 -34.802  49.759  1.00 23.53 LIG-0.35  N 
ATOM     46 H    VAL Q 638      21.524 -34.963  48.918  1.00 23.53 LIG 0.16  HD
ATOM     47  C   THR Q 637      22.532 -34.733  50.527  1.00 24.82 LIG 0.24  C 
ATOM     48 O    THR Q 637      22.513 -34.959  51.736  1.00 25.63 LIG-0.27  OA
BRANCH 47 49
ATOM     49  CA  THR Q 637      23.831 -34.352  49.824  1.00 25.03 LIG 0.20  C 
BRANCH 49 50
ATOM     50  CB  THR Q 637      24.684 -34.195  51.096  1.00 24.88 LIG 0.15  C 
ATOM     51  CG2 THR Q 637      26.093 -34.719  50.861  1.00 23.89 LIG 0.04  C 
BRANCH 50 52
ATOM     52 OG1  THR Q 637      24.748 -32.812  51.465  1.00 24.10 LIG-0.39  OA
ATOM     53 HG1  THR Q 637      25.551 -32.582  51.553  1.00 24.10 LIG 0.21  HD
ENDBRANCH 50 52
ENDBRANCH 49 50
BRANCH 49 54
ATOM     54  N   THR Q 637      23.363 -33.062  49.332  1.00 26.29 LIG-0.34  N 
ATOM     55 H    THR Q 637      23.236 -32.473  49.945  1.00 26.29 LIG 0.16  HD
ATOM     56  C   PRO Q 636      23.158 -32.843  48.037  1.00 27.07 LIG 0.25  C 
ATOM     57 O    PRO Q 636      23.343 -33.694  47.169  1.00 27.06 LIG-0.27  OA
BRANCH 56 58
ATOM     58  CA  PRO Q 636      22.667 -31.451  47.650  1.00 27.59 LIG 0.35  C 
ATOM     59  CB  PRO Q 636      22.985 -30.453  48.764  1.00 27.63 LIG 0.05  C 
ATOM     60  CG  PRO Q 636      21.864 -29.477  48.718  1.00 27.91 LIG 0.04  C 
ATOM     61  CD  PRO Q 636      20.647 -30.268  48.331  1.00 28.09 LIG 0.32  C 
ATOM     62  N   PRO Q 636      21.205 -31.393  47.561  1.00 27.47 LIG 0.32  N 
ENDBRANCH 56 58
ENDBRANCH 49 54
ENDBRANCH 47 49
ENDBRANCH 41 45
ENDBRANCH 38 41
ENDBRANCH 1 37
TORSDOF 25
ENDMDL
MODEL 3
USER: ADFR SOLUTION from run 84
USER: SCORE 20.740716 LL:  -4.275 LR: -17.231 RR:   0.000 FEB:  -9.774
USER: RMSD 7.222136
USER: SEED 83
USER: STATUS searching
USER: GENES 27
USER: genes 0 Translation |==|  0.35654 0.50646 0.52539
USER: genes 1 Rotation |==|  0.34644 0.59457 0.81039 0.84805
USER: genes 2 Torsion [N]-CA--C-[N] |==|  0.45332
USER: genes 3 Torsion [C]-N--CA-[C] |==|  0.81464
USER: genes 4 Torsion [N]-CA--CB-[CG] |==|  0.30322
USER: genes 5 Torsion [CA]-CB--CG-[CD] |==|  0.30660
USER: genes 6 Torsion [CB]-CG--CD-[OE2] |==|  0.06060
USER: genes 7 Torsion [N]-CA--C-[N] |==|  0.42778
USER: genes 8 Torsion [C]-N--CA-[CB] |==|  0.82539
USER: genes 9 Torsion [N]-CA--CB-[CG1] |==|  0.26062
USER: genes 10 Torsion [N]-CA--C-[N] |==|  0.40490
USER: genes 11 Torsion [C]-N--CA-[CB] |==|  0.50449
USER: genes 12 Torsion [N]-CA--CB-[CG] |==|  0.65749
USER: genes 13 Torsion [CA]-CB--CG-[OD2] |==|  0.00877
USER: genes 14 Torsion [N]-CA--C-[O] |==|  0.81883
USER: genes 15 Torsion [C]-CA--CB-[CG] |==|  0.63769
USER: genes 16 Torsion [CA]-CB--CG-[CD] |==|  0.24658
USER: genes 17 Torsion [CB]-CG--CD-[OE2] |==|  0.21925
USER: genes 18 Torsion [C]-CA--N-[C] |==|  0.58757
USER: genes 19 Torsion [N]-C--CA-[N] |==|  0.09599
USER: genes 20 Torsion [C]-CA--CB-[CG1] |==|  0.40859
USER: genes 21 Torsion [C]-CA--N-[C] |==|  0.59809
USER: genes 22 Torsion [N]-C--CA-[N] |==|  0.43160
USER: genes 23 Torsion [C]-CA--CB-[CG2] |==|  0.42540
USER: genes 24 Torsion [CA]-CB--OG1-[HG1] |==|  0.71858
USER: genes 25 Torsion [C]-CA--N-[C] |==|  0.78182
USER: genes 26 Torsion [N]-C--CA-[CB] |==|  0.87317
ROOT
ATOM      1  CA  GLU Q 639      20.785 -37.604  54.971  1.00 17.71 LIG 0.18  C 
ENDROOT
BRANCH 1 2
ATOM      2  C   GLU Q 639      21.393 -36.904  56.183  1.00 15.36 LIG 0.24  C 
ATOM      3 O    GLU Q 639      22.021 -35.853  56.054  1.00 14.90 LIG-0.27  OA
ATOM      4  N   GLU Q 640      21.202 -37.493  57.358  1.00 12.94 LIG-0.35  N 
ATOM      5 H    GLU Q 640      20.766 -38.227  57.461  1.00 12.94 LIG 0.16  HD
BRANCH 4 6
ATOM      6  CA  GLU Q 640      21.730 -36.929  58.593  1.00 11.11 LIG 0.18  C 
BRANCH 6 7
ATOM      7  CB  GLU Q 640      21.158 -37.708  59.782  1.00 10.30 LIG 0.04  C 
BRANCH 7 8
ATOM      8  CG  GLU Q 640      22.220 -38.580  60.471  1.00 11.77 LIG 0.12  C 
BRANCH 8 9
ATOM      9  CD  GLU Q 640      22.617 -38.090  61.871  1.00 13.33 LIG 0.17  C 
ATOM     10 OE2  GLU Q 640      21.822 -37.352  62.487  1.00 13.21 LIG-0.65  OA
ATOM     11 OE1  GLU Q 640      23.727 -38.437  62.349  1.00 12.97 LIG-0.65  OA
ENDBRANCH 8 9
ENDBRANCH 7 8
ENDBRANCH 6 7
BRANCH 6 12
ATOM     12  C   GLU Q 640      23.261 -36.969  58.605  1.00  9.90 LIG 0.24  C 
ATOM     13  N   VAL Q 641      23.875 -36.050  59.362  1.00  8.06 LIG-0.35  N 
ATOM     14 H    VAL Q 641      23.464 -35.377  59.706  1.00  8.06 LIG 0.16  HD
ATOM     15 O    GLU Q 640      23.863 -37.821  57.931  1.00  9.48 LIG-0.27  OA
BRANCH 13 16
ATOM     16  CA  VAL Q 641      25.318 -36.091  59.688  1.00  6.68 LIG 0.18  C 
BRANCH 16 17
ATOM     17  CB  VAL Q 641      25.720 -37.348  60.519  1.00  5.82 LIG 0.01  C 
ATOM     18  CG2 VAL Q 641      26.745 -37.007  61.571  1.00  2.95 LIG 0.01  C 
ATOM     19  CG1 VAL Q 641      26.189 -38.434  59.613  1.00  4.23 LIG 0.01  C 
ENDBRANCH 16 17
BRANCH 16 20
ATOM     20  C   VAL Q 641      26.213 -36.009  58.432  1.00  6.62 LIG 0.24  C 
ATOM     21 O    VAL Q 641      25.861 -36.524  57.377  1.00  7.26 LIG-0.27  OA
ATOM     22  N   ASP Q 642      27.363 -35.365  58.560  1.00  6.11 LIG-0.34  N 
ATOM     23 H    ASP Q 642      27.626 -35.005  59.295  1.00  6.11 LIG 0.16  HD
BRANCH 22 24
ATOM     24  CA  ASP Q 642      28.301 -35.206  57.451  1.00  5.85 LIG 0.20  C 
BRANCH 24 25
ATOM     25  CB  ASP Q 642      29.557 -34.448  57.927  1.00  5.86 LIG 0.15  C 
BRANCH 25 26
ATOM     26  CG  ASP Q 642      29.832 -33.165  57.102  1.00  7.09 LIG 0.17  C 
ATOM     27 OD2  ASP Q 642      29.013 -32.856  56.219  1.00  7.75 LIG-0.65  OA
ATOM     28 OD1  ASP Q 642      30.838 -32.465  57.337  1.00  5.16 LIG-0.65  OA
ENDBRANCH 25 26
ENDBRANCH 24 25
BRANCH 24 29
ATOM     29  C   ASP Q 642      28.686 -36.576  56.856  1.00  5.53 LIG 0.20  C 
ATOM     30 O    ASP Q 642      29.322 -37.414  57.516  1.00  4.89 LIG-0.65  OA
ATOM     31 OXT  ASP Q 642      28.338 -36.890  55.706  1.00  5.08 LIG-0.65  OA
ENDBRANCH 24 29
ENDBRANCH 22 24
ENDBRANCH 16 20
ENDBRANCH 13 16
ENDBRANCH 6 12
ENDBRANCH 4 6
ENDBRANCH 1 2
BRANCH 1 32
ATOM     32  CB  GLU Q 639      21.602 -38.849  54.619  1.00 18.28 LIG 0.04  C 
BRANCH 32 33
ATOM     33  CG  GLU Q 639      21.983 -38.946  53.151  1.00 21.94 LIG 0.12  C 
BRANCH 33 34
ATOM     34  CD  GLU Q 639      23.297 -38.255  52.843  1.00 26.00 LIG 0.17  C 
ATOM     35 OE1  GLU Q 639      23.266 -37.120  52.322  1.00 25.44 LIG-0.65  OA
ATOM     36 OE2  GLU Q 639      24.362 -38.846  53.123  1.00 27.11 LIG-0.65  OA
ENDBRANCH 33 34
ENDBRANCH 32 33
ENDBRANCH 1 32
BRANCH 1 37
ATOM     37  N   GLU Q 639      20.706 -36.704  53.828  1.00 19.24 LIG-0.35  N 
ATOM     38  C   VAL Q 638      19.737 -36.805  52.923  1.00 20.97 LIG 0.24  C 
ATOM     39 O    VAL Q 638      18.849 -37.656  52.987  1.00 20.96 LIG-0.27  OA
ATOM     40 H    GLU Q 639      21.332 -36.114  53.797  1.00 19.24 LIG 0.16  HD
BRANCH 38 41
ATOM     41  CA  VAL Q 638      19.775 -35.798  51.779  1.00 22.03 LIG 0.18  C 
BRANCH 41 42
ATOM     42  CB  VAL Q 638      18.985 -36.362  50.585  1.00 22.63 LIG 0.01  C 
ATOM     43  CG1 VAL Q 638      18.311 -35.237  49.814  1.00 22.21 LIG 0.01  C 
ATOM     44  CG2 VAL Q 638      19.901 -37.166  49.675  1.00 20.65 LIG 0.01  C 
ENDBRANCH 41 42
BRANCH 41 45
ATOM     45  N   VAL Q 638      21.147 -35.474  51.407  1.00 23.53 LIG-0.35  N 
ATOM     46 H    VAL Q 638      21.658 -36.161  51.484  1.00 23.53 LIG 0.16  HD
ATOM     47  C   THR Q 637      21.644 -34.313  50.994  1.00 24.82 LIG 0.24  C 
ATOM     48 O    THR Q 637      21.138 -33.228  51.277  1.00 25.63 LIG-0.27  OA
BRANCH 47 49
ATOM     49  CA  THR Q 637      22.900 -34.387  50.132  1.00 25.03 LIG 0.20  C 
BRANCH 49 50
ATOM     50  CB  THR Q 637      23.915 -34.263  51.283  1.00 24.88 LIG 0.15  C 
ATOM     51  CG2 THR Q 637      25.228 -34.935  50.909  1.00 23.89 LIG 0.04  C 
BRANCH 50 52
ATOM     52 OG1  THR Q 637      24.155 -32.879  51.566  1.00 24.10 LIG-0.39  OA
ATOM     53 HG1  THR Q 637      24.883 -32.645  51.220  1.00 24.10 LIG 0.21  HD
ENDBRANCH 50 52
ENDBRANCH 49 50
BRANCH 49 54
ATOM     54  N   THR Q 637      22.696 -33.109  49.460  1.00 26.29 LIG-0.34  N 
ATOM     55 H    THR Q 637      23.176 -32.465  49.767  1.00 26.29 LIG 0.16  HD
ATOM     56  C   PRO Q 636      21.832 -32.978  48.458  1.00 27.07 LIG 0.25  C 
ATOM     57 O    PRO Q 636      21.150 -33.907  48.027  1.00 27.06 LIG-0.27  OA
BRANCH 56 58
ATOM     58  CA  PRO Q 636      21.710 -31.590  47.838  1.00 27.59 LIG 0.35  C 
ATOM     59  CB  PRO Q 636      21.616 -30.530  48.937  1.00 27.63 LIG 0.05  C 
ATOM     60  CG  PRO Q 636      20.737 -29.477  48.363  1.00 27.91 LIG 0.04  C 
ATOM     61  CD  PRO Q 636      19.733 -30.200  47.511  1.00 28.09 LIG 0.32  C 
ATOM     62  N   PRO Q 636      20.447 -31.426  47.112  1.00 27.47 LIG 0.32  N 
ENDBRANCH 56 58
ENDBRANCH 49 54
ENDBRANCH 47 49
ENDBRANCH 41 45
ENDBRANCH 38 41
ENDBRANCH 1 37
TORSDOF 25
ENDMDL
MODEL 4
USER: ADFR SOLUTION from run 173
USER: SCORE 20.009688 LL:  -4.485 LR: -17.147 RR:   0.000 FEB:  -9.690
USER: RMSD 4.018076
USER: SEED 172
USER: STATUS no improvement in best in 11 clusters for 5 generations
USER: GENES 27
USER: genes 0 Translation |==|  0.38108 0.61059 0.35679
USER: genes 1 Rotation |==|  0.57960 0.53966 0.26990 0.93491
USER: genes 2 Torsion [N]-CA--C-[N] |==|  0.19042
USER: genes 3 Torsion [C]-N--CA-[C] |==|  0.60854
USER: genes 4 Torsion [N]-CA--CB-[CG] |==|  0.24175
USER: genes 5 Torsion [CA]-CB--CG-[CD] |==|  0.66289
USER: genes 6 Torsion [CB]-CG--CD-[OE2] |==|  0.29793
USER: genes 7 Torsion [N]-CA--C-[N] |==|  0.41217
USER: genes 8 Torsion [C]-N--CA-[CB] |==|  0.49110
USER: genes 9 Torsion [N]-CA--CB-[CG1] |==|  0.82671
USER: genes 10 Torsion [N]-CA--C-[N] |==|  0.46228
USER: genes 11 Torsion [C]-N--CA-[CB] |==|  0.26419
USER: genes 12 Torsion [N]-CA--CB-[CG] |==|  0.84695
USER: genes 13 Torsion [CA]-CB--CG-[OD2] |==|  0.27305
USER: genes 14 Torsion [N]-CA--C-[O] |==|  0.03322
USER: genes 15 Torsion [C]-CA--CB-[CG] |==|  0.29908
USER: genes 16 Torsion [CA]-CB--CG-[CD] |==|  0.97918
USER: genes 17 Torsion [CB]-CG--CD-[OE2] |==|  0.27336
USER: genes 18 Torsion [C]-CA--N-[C] |==|  0.78302
USER: genes 19 Torsion [N]-C--CA-[N] |==|  0.51787
USER: genes 20 Torsion [C]-CA--CB-[CG1] |==|  0.58305
USER: genes 21 Torsion [C]-CA--N-[C] |==|  0.78889
USER: genes 22 Torsion [N]-C--CA-[N] |==|  0.48836
USER: genes 23 Torsion [C]-CA--CB-[CG2] |==|  0.33457
USER: genes 24 Torsion [CA]-CB--OG1-[HG1] |==|  0.45406
USER: genes 25 Torsion [C]-CA--N-[C] |==|  0.75779
USER: genes 26 Torsion [N]-C--CA-[CB] |==|  0.80745
ROOT
ATOM      1  CA  GLU Q 639      21.226 -35.651  50.799  1.00 17.71 LIG 0.18  C 
ENDROOT
BRANCH 1 2
ATOM      2  C   GLU Q 639      20.463 -36.399  51.888  1.00 15.36 LIG 0.24  C 
ATOM      3 O    GLU Q 639      19.296 -36.749  51.712  1.00 14.90 LIG-0.27  OA
ATOM      4  N   GLU Q 640      21.129 -36.638  53.012  1.00 12.94 LIG-0.35  N 
ATOM      5 H    GLU Q 640      21.944 -36.398  53.147  1.00 12.94 LIG 0.16  HD
BRANCH 4 6
ATOM      6  CA  GLU Q 640      20.517 -37.343  54.131  1.00 11.11 LIG 0.18  C 
BRANCH 6 7
ATOM      7  CB  GLU Q 640      20.911 -38.821  54.065  1.00 10.30 LIG 0.04  C 
BRANCH 7 8
ATOM      8  CG  GLU Q 640      22.246 -39.100  54.776  1.00 11.77 LIG 0.12  C 
BRANCH 8 9
ATOM      9  CD  GLU Q 640      23.319 -39.718  53.869  1.00 13.33 LIG 0.17  C 
ATOM     10 OE2  GLU Q 640      24.277 -39.002  53.514  1.00 13.21 LIG-0.65  OA
ATOM     11 OE1  GLU Q 640      23.198 -40.915  53.506  1.00 12.97 LIG-0.65  OA
ENDBRANCH 8 9
ENDBRANCH 7 8
ENDBRANCH 6 7
BRANCH 6 12
ATOM     12  C   GLU Q 640      20.941 -36.726  55.467  1.00  9.90 LIG 0.24  C 
ATOM     13  N   VAL Q 641      20.045 -36.783  56.460  1.00  8.06 LIG-0.35  N 
ATOM     14 H    VAL Q 641      19.224 -37.008  56.337  1.00  8.06 LIG 0.16  HD
ATOM     15 O    GLU Q 640      22.064 -36.209  55.580  1.00  9.48 LIG-0.27  OA
BRANCH 13 16
ATOM     16  CA  VAL Q 641      20.366 -36.469  57.870  1.00  6.68 LIG 0.18  C 
BRANCH 16 17
ATOM     17  CB  VAL Q 641      19.123 -36.537  58.809  1.00  5.82 LIG 0.01  C 
ATOM     18  CG2 VAL Q 641      18.543 -37.928  58.854  1.00  2.95 LIG 0.01  C 
ATOM     19  CG1 VAL Q 641      18.112 -35.522  58.398  1.00  4.23 LIG 0.01  C 
ENDBRANCH 16 17
BRANCH 16 20
ATOM     20  C   VAL Q 641      21.479 -37.375  58.441  1.00  6.62 LIG 0.24  C 
ATOM     21 O    VAL Q 641      21.825 -38.391  57.851  1.00  7.26 LIG-0.27  OA
ATOM     22  N   ASP Q 642      22.026 -36.997  59.586  1.00  6.11 LIG-0.34  N 
ATOM     23 H    ASP Q 642      21.790 -36.290  60.015  1.00  6.11 LIG 0.16  HD
BRANCH 22 24
ATOM     24  CA  ASP Q 642      23.094 -37.755  60.234  1.00  5.85 LIG 0.20  C 
BRANCH 24 25
ATOM     25  CB  ASP Q 642      24.468 -37.174  59.840  1.00  5.86 LIG 0.15  C 
BRANCH 25 26
ATOM     26  CG  ASP Q 642      24.673 -37.109  58.305  1.00  7.09 LIG 0.17  C 
ATOM     27 OD2  ASP Q 642      24.467 -36.022  57.737  1.00  7.75 LIG-0.65  OA
ATOM     28 OD1  ASP Q 642      25.049 -38.118  57.673  1.00  5.16 LIG-0.65  OA
ENDBRANCH 25 26
ENDBRANCH 24 25
BRANCH 24 29
ATOM     29  C   ASP Q 642      22.922 -37.748  61.766  1.00  5.53 LIG 0.20  C 
ATOM     30 O    ASP Q 642      21.873 -37.350  62.300  1.00  4.89 LIG-0.65  OA
ATOM     31 OXT  ASP Q 642      23.822 -38.174  62.510  1.00  5.08 LIG-0.65  OA
ENDBRANCH 24 29
ENDBRANCH 22 24
ENDBRANCH 16 20
ENDBRANCH 13 16
ENDBRANCH 6 12
ENDBRANCH 4 6
ENDBRANCH 1 2
BRANCH 1 32
ATOM     32  CB  GLU Q 639      20.265 -35.204  49.695  1.00 18.28 LIG 0.04  C 
BRANCH 32 33
ATOM     33  CG  GLU Q 639      19.992 -33.709  49.677  1.00 21.94 LIG 0.12  C 
BRANCH 33 34
ATOM     34  CD  GLU Q 639      20.591 -32.994  50.873  1.00 26.00 LIG 0.17  C 
ATOM     35 OE1  GLU Q 639      19.965 -33.014  51.953  1.00 25.44 LIG-0.65  OA
ATOM     36 OE2  GLU Q 639      21.687 -32.412  50.732  1.00 27.11 LIG-0.65  OA
ENDBRANCH 33 34
ENDBRANCH 32 33
ENDBRANCH 1 32
BRANCH 1 37
ATOM     37  N   GLU Q 639      22.293 -36.476  50.244  1.00 19.24 LIG-0.35  N 
ATOM     38  C   VAL Q 638      23.445 -36.651  50.883  1.00 20.97 LIG 0.24  C 
ATOM     39 O    VAL Q 638      23.690 -36.136  51.975  1.00 20.96 LIG-0.27  OA
ATOM     40 H    GLU Q 639      22.108 -36.830  49.482  1.00 19.24 LIG 0.16  HD
BRANCH 38 41
ATOM     41  CA  VAL Q 638      24.473 -37.539  50.189  1.00 22.03 LIG 0.18  C 
BRANCH 41 42
ATOM     42  CB  VAL Q 638      23.797 -38.857  49.770  1.00 22.63 LIG 0.01  C 
ATOM     43  CG1 VAL Q 638      24.807 -39.995  49.772  1.00 22.21 LIG 0.01  C 
ATOM     44  CG2 VAL Q 638      22.629 -39.171  50.692  1.00 20.65 LIG 0.01  C 
ENDBRANCH 41 42
BRANCH 41 45
ATOM     45  N   VAL Q 638      25.627 -37.778  51.046  1.00 23.53 LIG-0.35  N 
ATOM     46 H    VAL Q 638      25.604 -38.570  51.381  1.00 23.53 LIG 0.16  HD
ATOM     47  C   THR Q 637      26.631 -36.958  51.336  1.00 24.82 LIG 0.24  C 
ATOM     48 O    THR Q 637      26.530 -35.732  51.291  1.00 25.63 LIG-0.27  OA
BRANCH 47 49
ATOM     49  CA  THR Q 637      27.946 -37.618  51.736  1.00 25.03 LIG 0.20  C 
BRANCH 49 50
ATOM     50  CB  THR Q 637      27.485 -38.113  53.120  1.00 24.88 LIG 0.15  C 
ATOM     51  CG2 THR Q 637      27.601 -39.627  53.209  1.00 23.89 LIG 0.04  C 
BRANCH 50 52
ATOM     52 OG1  THR Q 637      28.295 -37.515  54.139  1.00 24.10 LIG-0.39  OA
ATOM     53 HG1  THR Q 637      27.914 -37.597  54.883  1.00 24.10 LIG 0.21  HD
ENDBRANCH 50 52
ENDBRANCH 49 50
BRANCH 49 54
ATOM     54  N   THR Q 637      28.711 -36.381  51.839  1.00 26.29 LIG-0.34  N 
ATOM     55 H    THR Q 637      28.729 -36.039  52.628  1.00 26.29 LIG 0.16  HD
ATOM     56  C   PRO Q 636      29.319 -35.847  50.784  1.00 27.07 LIG 0.25  C 
ATOM     57 O    PRO Q 636      29.286 -36.347  49.661  1.00 27.06 LIG-0.27  OA
BRANCH 56 58
ATOM     58  CA  PRO Q 636      30.087 -34.551  51.022  1.00 27.59 LIG 0.35  C 
ATOM     59  CB  PRO Q 636      29.112 -33.409  51.312  1.00 27.63 LIG 0.05  C 
ATOM     60  CG  PRO Q 636      29.767 -32.206  50.734  1.00 27.91 LIG 0.04  C 
ATOM     61  CD  PRO Q 636      30.492 -32.683  49.507  1.00 28.09 LIG 0.32  C 
ATOM     62  N   PRO Q 636      30.777 -34.096  49.811  1.00 27.47 LIG 0.32  N 
ENDBRANCH 56 58
ENDBRANCH 49 54
ENDBRANCH 47 49
ENDBRANCH 41 45
ENDBRANCH 38 41
ENDBRANCH 1 37
TORSDOF 25
ENDMDL
MODEL 5
USER: ADFR SOLUTION from run 173
USER: SCORE 21.494399 LL:  -5.670 LR: -17.090 RR:   0.000 FEB:  -9.633
USER: RMSD 4.713521
USER: SEED 172
USER: STATUS no improvement in best in 11 clusters for 5 generations
USER: GENES 27
USER: genes 0 Translation |==|  0.34055 0.64210 0.37877
USER: genes 1 Rotation |==|  0.53378 0.55499 0.29376 0.95089
USER: genes 2 Torsion [N]-CA--C-[N] |==|  0.00368
USER: genes 3 Torsion [C]-N--CA-[C] |==|  0.78279
USER: genes 4 Torsion [N]-CA--CB-[CG] |==|  0.20908
USER: genes 5 Torsion [CA]-CB--CG-[CD] |==|  0.76546
USER: genes 6 Torsion [CB]-CG--CD-[OE2] |==|  0.99766
USER: genes 7 Torsion [N]-CA--C-[N] |==|  0.38474
USER: genes 8 Torsion [C]-N--CA-[CB] |==|  0.48889
USER: genes 9 Torsion [N]-CA--CB-[CG1] |==|  0.81339
USER: genes 10 Torsion [N]-CA--C-[N] |==|  0.45824
USER: genes 11 Torsion [C]-N--CA-[CB] |==|  0.28746
USER: genes 12 Torsion [N]-CA--CB-[CG] |==|  0.82117
USER: genes 13 Torsion [CA]-CB--CG-[OD2] |==|  0.37076
USER: genes 14 Torsion [N]-CA--C-[O] |==|  0.02495
USER: genes 15 Torsion [C]-CA--CB-[CG] |==|  0.30926
USER: genes 16 Torsion [CA]-CB--CG-[CD] |==|  0.98063
USER: genes 17 Torsion [CB]-CG--CD-[OE2] |==|  0.22009
USER: genes 18 Torsion [C]-CA--N-[C] |==|  0.75257
USER: genes 19 Torsion [N]-C--CA-[N] |==|  0.21163
USER: genes 20 Torsion [C]-CA--CB-[CG1] |==|  0.42614
USER: genes 21 Torsion [C]-CA--N-[C] |==|  0.63847
USER: genes 22 Torsion [N]-C--CA-[N] |==|  0.93200
USER: genes 23 Torsion [C]-CA--CB-[CG2] |==|  0.36147
USER: genes 24 Torsion [CA]-CB--OG1-[HG1] |==|  0.53335
USER: genes 25 Torsion [C]-CA--N-[C] |==|  0.76903
USER: genes 26 Torsion [N]-C--CA-[CB] |==|  0.84003
ROOT
ATOM      1  CA  GLU Q 639      20.497 -35.061  51.343  1.00 17.71 LIG 0.18  C 
ENDROOT
BRANCH 1 2
ATOM      2  C   GLU Q 639      19.971 -35.738  52.604  1.00 15.36 LIG 0.24  C 
ATOM      3 O    GLU Q 639      19.017 -35.265  53.223  1.00 14.90 LIG-0.27  OA
ATOM      4  N   GLU Q 640      20.598 -36.847  52.979  1.00 12.94 LIG-0.35  N 
ATOM      5 H    GLU Q 640      21.265 -37.187  52.556  1.00 12.94 LIG 0.16  HD
BRANCH 4 6
ATOM      6  CA  GLU Q 640      20.196 -37.592  54.166  1.00 11.11 LIG 0.18  C 
BRANCH 6 7
ATOM      7  CB  GLU Q 640      20.725 -39.025  54.058  1.00 10.30 LIG 0.04  C 
BRANCH 7 8
ATOM      8  CG  GLU Q 640      22.236 -39.110  54.331  1.00 11.77 LIG 0.12  C 
BRANCH 8 9
ATOM      9  CD  GLU Q 640      23.108 -38.813  53.103  1.00 13.33 LIG 0.17  C 
ATOM     10 OE2  GLU Q 640      22.540 -38.554  52.022  1.00 13.21 LIG-0.65  OA
ATOM     11 OE1  GLU Q 640      24.360 -38.847  53.218  1.00 12.97 LIG-0.65  OA
ENDBRANCH 8 9
ENDBRANCH 7 8
ENDBRANCH 6 7
BRANCH 6 12
ATOM     12  C   GLU Q 640      20.712 -36.916  55.439  1.00  9.90 LIG 0.24  C 
ATOM     13  N   VAL Q 641      19.863 -36.868  56.474  1.00  8.06 LIG-0.35  N 
ATOM     14 H    VAL Q 641      19.027 -37.060  56.403  1.00  8.06 LIG 0.16  HD
ATOM     15 O    GLU Q 640      21.862 -36.448  55.468  1.00  9.48 LIG-0.27  OA
BRANCH 13 16
ATOM     16  CA  VAL Q 641      20.266 -36.484  57.845  1.00  6.68 LIG 0.18  C 
BRANCH 16 17
ATOM     17  CB  VAL Q 641      19.065 -36.414  58.837  1.00  5.82 LIG 0.01  C 
ATOM     18  CG2 VAL Q 641      18.335 -37.731  58.911  1.00  2.95 LIG 0.01  C 
ATOM     19  CG1 VAL Q 641      18.157 -35.292  58.467  1.00  4.23 LIG 0.01  C 
ENDBRANCH 16 17
BRANCH 16 20
ATOM     20  C   VAL Q 641      21.349 -37.418  58.429  1.00  6.62 LIG 0.24  C 
ATOM     21 O    VAL Q 641      21.588 -38.502  57.910  1.00  7.26 LIG-0.27  OA
ATOM     22  N   ASP Q 642      21.989 -36.988  59.505  1.00  6.11 LIG-0.34  N 
ATOM     23 H    ASP Q 642      21.828 -36.233  59.885  1.00  6.11 LIG 0.16  HD
BRANCH 22 24
ATOM     24  CA  ASP Q 642      23.041 -37.767  60.155  1.00  5.85 LIG 0.20  C 
BRANCH 24 25
ATOM     25  CB  ASP Q 642      24.425 -37.184  59.799  1.00  5.86 LIG 0.15  C 
BRANCH 25 26
ATOM     26  CG  ASP Q 642      24.752 -37.297  58.288  1.00  7.09 LIG 0.17  C 
ATOM     27 OD2  ASP Q 642      25.210 -36.292  57.716  1.00  7.75 LIG-0.65  OA
ATOM     28 OD1  ASP Q 642      24.571 -38.372  57.680  1.00  5.16 LIG-0.65  OA
ENDBRANCH 25 26
ENDBRANCH 24 25
BRANCH 24 29
ATOM     29  C   ASP Q 642      22.841 -37.792  61.684  1.00  5.53 LIG 0.20  C 
ATOM     30 O    ASP Q 642      21.807 -37.350  62.211  1.00  4.89 LIG-0.65  OA
ATOM     31 OXT  ASP Q 642      23.701 -38.289  62.430  1.00  5.08 LIG-0.65  OA
ENDBRANCH 24 29
ENDBRANCH 22 24
ENDBRANCH 16 20
ENDBRANCH 13 16
ENDBRANCH 6 12
ENDBRANCH 4 6
ENDBRANCH 1 2
BRANCH 1 32
ATOM     32  CB  GLU Q 639      19.368 -34.900  50.322  1.00 18.28 LIG 0.04  C 
BRANCH 32 33
ATOM     33  CG  GLU Q 639      18.943 -33.460  50.087  1.00 21.94 LIG 0.12  C 
BRANCH 33 34
ATOM     34  CD  GLU Q 639      19.615 -32.492  51.041  1.00 26.00 LIG 0.17  C 
ATOM     35 OE1  GLU Q 639      18.967 -32.082  52.027  1.00 25.44 LIG-0.65  OA
ATOM     36 OE2  GLU Q 639      20.790 -32.141  50.806  1.00 27.11 LIG-0.65  OA
ENDBRANCH 33 34
ENDBRANCH 32 33
ENDBRANCH 1 32
BRANCH 1 37
ATOM     37  N   GLU Q 639      21.605 -35.812  50.766  1.00 19.24 LIG-0.35  N 
ATOM     38  C   VAL Q 638      22.864 -35.588  51.127  1.00 20.97 LIG 0.24  C 
ATOM     39 O    VAL Q 638      23.181 -34.742  51.965  1.00 20.96 LIG-0.27  OA
ATOM     40 H    GLU Q 639      21.370 -36.400  50.183  1.00 19.24 LIG 0.16  HD
BRANCH 38 41
ATOM     41  CA  VAL Q 638      23.924 -36.446  50.445  1.00 22.03 LIG 0.18  C 
BRANCH 41 42
ATOM     42  CB  VAL Q 638      25.210 -36.426  51.290  1.00 22.63 LIG 0.01  C 
ATOM     43  CG1 VAL Q 638      26.018 -37.694  51.060  1.00 22.21 LIG 0.01  C 
ATOM     44  CG2 VAL Q 638      26.039 -35.192  50.966  1.00 20.65 LIG 0.01  C 
ENDBRANCH 41 42
BRANCH 41 45
ATOM     45  N   VAL Q 638      24.173 -35.992  49.082  1.00 23.53 LIG-0.35  N 
ATOM     46 H    VAL Q 638      24.313 -35.143  49.060  1.00 23.53 LIG 0.16  HD
ATOM     47  C   THR Q 637      24.203 -36.705  47.961  1.00 24.82 LIG 0.24  C 
ATOM     48 O    THR Q 637      23.598 -37.767  47.825  1.00 25.63 LIG-0.27  OA
BRANCH 47 49
ATOM     49  CA  THR Q 637      25.042 -36.133  46.822  1.00 25.03 LIG 0.20  C 
BRANCH 49 50
ATOM     50  CB  THR Q 637      26.374 -36.786  47.234  1.00 24.88 LIG 0.15  C 
ATOM     51  CG2 THR Q 637      27.012 -37.489  46.046  1.00 23.89 LIG 0.04  C 
BRANCH 50 52
ATOM     52 OG1  THR Q 637      27.269 -35.782  47.728  1.00 24.10 LIG-0.39  OA
ATOM     53 HG1  THR Q 637      28.042 -36.105  47.797  1.00 24.10 LIG 0.21  HD
ENDBRANCH 50 52
ENDBRANCH 49 50
BRANCH 49 54
ATOM     54  N   THR Q 637      24.967 -34.746  47.264  1.00 26.29 LIG-0.34  N 
ATOM     55 H    THR Q 637      25.645 -34.481  47.722  1.00 26.29 LIG 0.16  HD
ATOM     56  C   PRO Q 636      23.926 -33.974  46.968  1.00 27.07 LIG 0.25  C 
ATOM     57 O    PRO Q 636      22.961 -34.363  46.311  1.00 27.06 LIG-0.27  OA
BRANCH 56 58
ATOM     58  CA  PRO Q 636      23.968 -32.541  47.488  1.00 27.59 LIG 0.35  C 
ATOM     59  CB  PRO Q 636      24.116 -32.538  49.010  1.00 27.63 LIG 0.05  C 
ATOM     60  CG  PRO Q 636      23.365 -31.334  49.454  1.00 27.91 LIG 0.04  C 
ATOM     61  CD  PRO Q 636      22.202 -31.205  48.511  1.00 28.09 LIG 0.32  C 
ATOM     62  N   PRO Q 636      22.693 -31.848  47.279  1.00 27.47 LIG 0.32  N 
ENDBRANCH 56 58
ENDBRANCH 49 54
ENDBRANCH 47 49
ENDBRANCH 41 45
ENDBRANCH 38 41
ENDBRANCH 1 37
TORSDOF 25
ENDMDL
MODEL 6
USER: ADFR SOLUTION from run 162
USER: SCORE 18.438410 LL:  -2.967 LR: -17.001 RR:   0.000 FEB:  -9.543
USER: RMSD 6.919242
USER: SEED 161
USER: STATUS no improvement in best in 3 clusters for 5 generations
USER: GENES 27
USER: genes 0 Translation |==|  0.33176 0.54405 0.53204
USER: genes 1 Rotation |==|  0.60945 0.85977 0.22416 0.68027
USER: genes 2 Torsion [N]-CA--C-[N] |==|  0.29486
USER: genes 3 Torsion [C]-N--CA-[C] |==|  0.76865
USER: genes 4 Torsion [N]-CA--CB-[CG] |==|  0.92458
USER: genes 5 Torsion [CA]-CB--CG-[CD] |==|  0.26823
USER: genes 6 Torsion [CB]-CG--CD-[OE2] |==|  0.15042
USER: genes 7 Torsion [N]-CA--C-[N] |==|  0.21717
USER: genes 8 Torsion [C]-N--CA-[CB] |==|  0.80545
USER: genes 9 Torsion [N]-CA--CB-[CG1] |==|  0.21428
USER: genes 10 Torsion [N]-CA--C-[N] |==|  0.08231
USER: genes 11 Torsion [C]-N--CA-[CB] |==|  0.47760
USER: genes 12 Torsion [N]-CA--CB-[CG] |==|  0.82667
USER: genes 13 Torsion [CA]-CB--CG-[OD2] |==|  0.18085
USER: genes 14 Torsion [N]-CA--C-[O] |==|  0.91335
USER: genes 15 Torsion [C]-CA--CB-[CG] |==|  0.21341
USER: genes 16 Torsion [CA]-CB--CG-[CD] |==|  0.17453
USER: genes 17 Torsion [CB]-CG--CD-[OE2] |==|  0.88250
USER: genes 18 Torsion [C]-CA--N-[C] |==|  0.73871
USER: genes 19 Torsion [N]-C--CA-[N] |==|  0.38437
USER: genes 20 Torsion [C]-CA--CB-[CG1] |==|  0.20028
USER: genes 21 Torsion [C]-CA--N-[C] |==|  0.80797
USER: genes 22 Torsion [N]-C--CA-[N] |==|  0.25588
USER: genes 23 Torsion [C]-CA--CB-[CG2] |==|  0.46878
USER: genes 24 Torsion [CA]-CB--OG1-[HG1] |==|  0.62040
USER: genes 25 Torsion [C]-CA--N-[C] |==|  0.73508
USER: genes 26 Torsion [N]-C--CA-[CB] |==|  0.70650
ROOT
ATOM      1  CA  GLU Q 639      20.339 -36.899  55.136  1.00 17.71 LIG 0.18  C 
ENDROOT
BRANCH 1 2
ATOM      2  C   GLU Q 639      20.229 -38.348  55.599  1.00 15.36 LIG 0.24  C 
ATOM      3 O    GLU Q 639      19.182 -38.777  56.085  1.00 14.90 LIG-0.27  OA
ATOM      4  N   GLU Q 640      21.315 -39.097  55.445  1.00 12.94 LIG-0.35  N 
ATOM      5 H    GLU Q 640      22.051 -38.810  55.107  1.00 12.94 LIG 0.16  HD
BRANCH 4 6
ATOM      6  CA  GLU Q 640      21.344 -40.498  55.846  1.00 11.11 LIG 0.18  C 
BRANCH 6 7
ATOM      7  CB  GLU Q 640      22.399 -41.233  55.014  1.00 10.30 LIG 0.04  C 
BRANCH 7 8
ATOM      8  CG  GLU Q 640      22.624 -40.573  53.644  1.00 11.77 LIG 0.12  C 
BRANCH 8 9
ATOM      9  CD  GLU Q 640      23.821 -39.612  53.605  1.00 13.33 LIG 0.17  C 
ATOM     10 OE2  GLU Q 640      24.935 -40.039  53.973  1.00 13.21 LIG-0.65  OA
ATOM     11 OE1  GLU Q 640      23.645 -38.431  53.214  1.00 12.97 LIG-0.65  OA
ENDBRANCH 8 9
ENDBRANCH 7 8
ENDBRANCH 6 7
BRANCH 6 12
ATOM     12  C   GLU Q 640      21.641 -40.635  57.342  1.00  9.90 LIG 0.24  C 
ATOM     13  N   VAL Q 641      20.618 -40.400  58.176  1.00  8.06 LIG-0.35  N 
ATOM     14 H    VAL Q 641      19.877 -40.046  57.920  1.00  8.06 LIG 0.16  HD
ATOM     15 O    GLU Q 640      22.782 -40.945  57.721  1.00  9.48 LIG-0.27  OA
BRANCH 13 16
ATOM     16  CA  VAL Q 641      20.651 -40.722  59.620  1.00  6.68 LIG 0.18  C 
BRANCH 16 17
ATOM     17  CB  VAL Q 641      20.624 -42.255  59.904  1.00  5.82 LIG 0.01  C 
ATOM     18  CG2 VAL Q 641      20.126 -42.547  61.297  1.00  2.95 LIG 0.01  C 
ATOM     19  CG1 VAL Q 641      21.968 -42.848  59.655  1.00  4.23 LIG 0.01  C 
ENDBRANCH 16 17
BRANCH 16 20
ATOM     20  C   VAL Q 641      21.866 -40.097  60.340  1.00  6.62 LIG 0.24  C 
ATOM     21 O    VAL Q 641      22.360 -40.638  61.322  1.00  7.26 LIG-0.27  OA
ATOM     22  N   ASP Q 642      22.333 -38.961  59.845  1.00  6.11 LIG-0.34  N 
ATOM     23 H    ASP Q 642      21.993 -38.566  59.160  1.00  6.11 LIG 0.16  HD
BRANCH 22 24
ATOM     24  CA  ASP Q 642      23.482 -38.267  60.422  1.00  5.85 LIG 0.20  C 
BRANCH 24 25
ATOM     25  CB  ASP Q 642      23.902 -37.095  59.511  1.00  5.86 LIG 0.15  C 
BRANCH 25 26
ATOM     26  CG  ASP Q 642      24.361 -37.563  58.106  1.00  7.09 LIG 0.17  C 
ATOM     27 OD2  ASP Q 642      23.515 -38.099  57.368  1.00  7.75 LIG-0.65  OA
ATOM     28 OD1  ASP Q 642      25.539 -37.388  57.733  1.00  5.16 LIG-0.65  OA
ENDBRANCH 25 26
ENDBRANCH 24 25
BRANCH 24 29
ATOM     29  C   ASP Q 642      23.160 -37.761  61.843  1.00  5.53 LIG 0.20  C 
ATOM     30 O    ASP Q 642      22.010 -37.421  62.166  1.00  4.89 LIG-0.65  OA
ATOM     31 OXT  ASP Q 642      24.043 -37.710  62.715  1.00  5.08 LIG-0.65  OA
ENDBRANCH 24 29
ENDBRANCH 22 24
ENDBRANCH 16 20
ENDBRANCH 13 16
ENDBRANCH 6 12
ENDBRANCH 4 6
ENDBRANCH 1 2
BRANCH 1 32
ATOM     32  CB  GLU Q 639      19.822 -35.958  56.227  1.00 18.28 LIG 0.04  C 
BRANCH 32 33
ATOM     33  CG  GLU Q 639      20.792 -35.752  57.379  1.00 21.94 LIG 0.12  C 
BRANCH 33 34
ATOM     34  CD  GLU Q 639      22.087 -35.095  56.941  1.00 26.00 LIG 0.17  C 
ATOM     35 OE1  GLU Q 639      22.574 -34.200  57.662  1.00 25.44 LIG-0.65  OA
ATOM     36 OE2  GLU Q 639      22.617 -35.475  55.876  1.00 27.11 LIG-0.65  OA
ENDBRANCH 33 34
ENDBRANCH 32 33
ENDBRANCH 1 32
BRANCH 1 37
ATOM     37  N   GLU Q 639      19.610 -36.688  53.892  1.00 19.24 LIG-0.35  N 
ATOM     38  C   VAL Q 638      20.209 -36.767  52.708  1.00 20.97 LIG 0.24  C 
ATOM     39 O    VAL Q 638      21.407 -37.023  52.580  1.00 20.96 LIG-0.27  OA
ATOM     40 H    GLU Q 639      18.774 -36.511  53.996  1.00 19.24 LIG 0.16  HD
BRANCH 38 41
ATOM     41  CA  VAL Q 638      19.327 -36.524  51.488  1.00 22.03 LIG 0.18  C 
BRANCH 41 42
ATOM     42  CB  VAL Q 638      18.896 -37.881  50.901  1.00 22.63 LIG 0.01  C 
ATOM     43  CG1 VAL Q 638      17.874 -38.551  51.807  1.00 22.21 LIG 0.01  C 
ATOM     44  CG2 VAL Q 638      18.335 -37.697  49.499  1.00 20.65 LIG 0.01  C 
ENDBRANCH 41 42
BRANCH 41 45
ATOM     45  N   VAL Q 638      20.013 -35.706  50.496  1.00 23.53 LIG-0.35  N 
ATOM     46 H    VAL Q 638      20.202 -36.166  49.794  1.00 23.53 LIG 0.16  HD
ATOM     47  C   THR Q 637      20.346 -34.422  50.565  1.00 24.82 LIG 0.24  C 
ATOM     48 O    THR Q 637      20.530 -33.833  51.629  1.00 25.63 LIG-0.27  OA
BRANCH 47 49
ATOM     49  CA  THR Q 637      20.495 -33.692  49.234  1.00 25.03 LIG 0.20  C 
BRANCH 49 50
ATOM     50  CB  THR Q 637      21.452 -32.595  49.735  1.00 24.88 LIG 0.15  C 
ATOM     51  CG2 THR Q 637      22.036 -31.821  48.563  1.00 23.89 LIG 0.04  C 
BRANCH 50 52
ATOM     52 OG1  THR Q 637      20.742 -31.694  50.593  1.00 24.10 LIG-0.39  OA
ATOM     53 HG1  THR Q 637      20.957 -30.903  50.408  1.00 24.10 LIG 0.21  HD
ENDBRANCH 50 52
ENDBRANCH 49 50
BRANCH 49 54
ATOM     54  N   THR Q 637      19.119 -33.214  49.170  1.00 26.29 LIG-0.34  N 
ATOM     55 H    THR Q 637      18.978 -32.481  49.598  1.00 26.29 LIG 0.16  HD
ATOM     56  C   PRO Q 636      18.180 -33.875  48.500  1.00 27.07 LIG 0.25  C 
ATOM     57 O    PRO Q 636      18.395 -34.923  47.893  1.00 27.06 LIG-0.27  OA
BRANCH 56 58
ATOM     58  CA  PRO Q 636      16.780 -33.271  48.511  1.00 27.59 LIG 0.35  C 
ATOM     59  CB  PRO Q 636      15.866 -34.078  49.434  1.00 27.63 LIG 0.05  C 
ATOM     60  CG  PRO Q 636      14.525 -33.989  48.798  1.00 27.91 LIG 0.04  C 
ATOM     61  CD  PRO Q 636      14.774 -33.973  47.316  1.00 28.09 LIG 0.32  C 
ATOM     62  N   PRO Q 636      16.124 -33.394  47.206  1.00 27.47 LIG 0.32  N 
ENDBRANCH 56 58
ENDBRANCH 49 54
ENDBRANCH 47 49
ENDBRANCH 41 45
ENDBRANCH 38 41
ENDBRANCH 1 37
TORSDOF 25
ENDMDL
MODEL 7
USER: ADFR SOLUTION from run 123
USER: SCORE 20.958178 LL:  -5.155 LR: -16.967 RR:   0.000 FEB:  -9.509
USER: RMSD 5.496255
USER: SEED 122
USER: STATUS no improvement in best in 4 clusters for 5 generations
USER: GENES 27
USER: genes 0 Translation |==|  0.37225 0.65078 0.35941
USER: genes 1 Rotation |==|  0.55374 0.53874 0.27274 0.94041
USER: genes 2 Torsion [N]-CA--C-[N] |==|  0.00062
USER: genes 3 Torsion [C]-N--CA-[C] |==|  0.79483
USER: genes 4 Torsion [N]-CA--CB-[CG] |==|  0.26059
USER: genes 5 Torsion [CA]-CB--CG-[CD] |==|  0.76758
USER: genes 6 Torsion [CB]-CG--CD-[OE2] |==|  0.60056
USER: genes 7 Torsion [N]-CA--C-[N] |==|  0.36916
USER: genes 8 Torsion [C]-N--CA-[CB] |==|  0.52517
USER: genes 9 Torsion [N]-CA--CB-[CG1] |==|  0.34732
USER: genes 10 Torsion [N]-CA--C-[N] |==|  0.38406
USER: genes 11 Torsion [C]-N--CA-[CB] |==|  0.82738
USER: genes 12 Torsion [N]-CA--CB-[CG] |==|  0.68575
USER: genes 13 Torsion [CA]-CB--CG-[OD2] |==|  0.75368
USER: genes 14 Torsion [N]-CA--C-[O] |==|  0.23254
USER: genes 15 Torsion [C]-CA--CB-[CG] |==|  0.24849
USER: genes 16 Torsion [CA]-CB--CG-[CD] |==|  0.04907
USER: genes 17 Torsion [CB]-CG--CD-[OE2] |==|  0.14148
USER: genes 18 Torsion [C]-CA--N-[C] |==|  0.76503
USER: genes 19 Torsion [N]-C--CA-[N] |==|  0.16937
USER: genes 20 Torsion [C]-CA--CB-[CG1] |==|  0.33053
USER: genes 21 Torsion [C]-CA--N-[C] |==|  0.10003
USER: genes 22 Torsion [N]-C--CA-[N] |==|  0.44401
USER: genes 23 Torsion [C]-CA--CB-[CG2] |==|  0.41898
USER: genes 24 Torsion [CA]-CB--OG1-[HG1] |==|  0.18700
USER: genes 25 Torsion [C]-CA--N-[C] |==|  0.75334
USER: genes 26 Torsion [N]-C--CA-[CB] |==|  0.84088
ROOT
ATOM      1  CA  GLU Q 639      21.067 -34.898  50.863  1.00 17.71 LIG 0.18  C 
ENDROOT
BRANCH 1 2
ATOM      2  C   GLU Q 639      20.370 -35.558  52.049  1.00 15.36 LIG 0.24  C 
ATOM      3 O    GLU Q 639      19.436 -34.998  52.623  1.00 14.90 LIG-0.27  OA
ATOM      4  N   GLU Q 640      20.831 -36.751  52.410  1.00 12.94 LIG-0.35  N 
ATOM      5 H    GLU Q 640      21.482 -37.152  52.018  1.00 12.94 LIG 0.16  HD
BRANCH 4 6
ATOM      6  CA  GLU Q 640      20.253 -37.489  53.526  1.00 11.11 LIG 0.18  C 
BRANCH 6 7
ATOM      7  CB  GLU Q 640      20.704 -38.951  53.443  1.00 10.30 LIG 0.04  C 
BRANCH 7 8
ATOM      8  CG  GLU Q 640      21.964 -39.220  54.281  1.00 11.77 LIG 0.12  C 
BRANCH 8 9
ATOM      9  CD  GLU Q 640      23.276 -38.873  53.563  1.00 13.33 LIG 0.17  C 
ATOM     10 OE2  GLU Q 640      24.270 -39.601  53.761  1.00 13.21 LIG-0.65  OA
ATOM     11 OE1  GLU Q 640      23.313 -37.868  52.808  1.00 12.97 LIG-0.65  OA
ENDBRANCH 8 9
ENDBRANCH 7 8
ENDBRANCH 6 7
BRANCH 6 12
ATOM     12  C   GLU Q 640      20.664 -36.870  54.865  1.00  9.90 LIG 0.24  C 
ATOM     13  N   VAL Q 641      19.685 -36.679  55.759  1.00  8.06 LIG-0.35  N 
ATOM     14 H    VAL Q 641      18.851 -36.750  55.561  1.00  8.06 LIG 0.16  HD
ATOM     15 O    GLU Q 640      21.852 -36.571  55.070  1.00  9.48 LIG-0.27  OA
BRANCH 13 16
ATOM     16  CA  VAL Q 641      19.927 -36.330  57.176  1.00  6.68 LIG 0.18  C 
BRANCH 16 17
ATOM     17  CB  VAL Q 641      18.636 -36.386  58.048  1.00  5.82 LIG 0.01  C 
ATOM     18  CG2 VAL Q 641      18.196 -35.006  58.469  1.00  2.95 LIG 0.01  C 
ATOM     19  CG1 VAL Q 641      18.843 -37.287  59.217  1.00  4.23 LIG 0.01  C 
ENDBRANCH 16 17
BRANCH 16 20
ATOM     20  C   VAL Q 641      21.014 -37.214  57.827  1.00  6.62 LIG 0.24  C 
ATOM     21 O    VAL Q 641      21.052 -38.420  57.614  1.00  7.26 LIG-0.27  OA
ATOM     22  N   ASP Q 642      21.884 -36.604  58.617  1.00  6.11 LIG-0.34  N 
ATOM     23 H    ASP Q 642      21.866 -35.760  58.782  1.00  6.11 LIG 0.16  HD
BRANCH 22 24
ATOM     24  CA  ASP Q 642      22.967 -37.317  59.290  1.00  5.85 LIG 0.20  C 
BRANCH 24 25
ATOM     25  CB  ASP Q 642      22.386 -38.367  60.259  1.00  5.86 LIG 0.15  C 
BRANCH 25 26
ATOM     26  CG  ASP Q 642      22.670 -38.034  61.746  1.00  7.09 LIG 0.17  C 
ATOM     27 OD2  ASP Q 642      23.729 -38.456  62.244  1.00  7.75 LIG-0.65  OA
ATOM     28 OD1  ASP Q 642      21.862 -37.350  62.407  1.00  5.16 LIG-0.65  OA
ENDBRANCH 25 26
ENDBRANCH 24 25
BRANCH 24 29
ATOM     29  C   ASP Q 642      23.905 -37.986  58.264  1.00  5.53 LIG 0.20  C 
ATOM     30 O    ASP Q 642      24.825 -37.355  57.718  1.00  4.89 LIG-0.65  OA
ATOM     31 OXT  ASP Q 642      23.783 -39.190  57.981  1.00  5.08 LIG-0.65  OA
ENDBRANCH 24 29
ENDBRANCH 22 24
ENDBRANCH 16 20
ENDBRANCH 13 16
ENDBRANCH 6 12
ENDBRANCH 4 6
ENDBRANCH 1 2
BRANCH 1 32
ATOM     32  CB  GLU Q 639      20.050 -34.582  49.764  1.00 18.28 LIG 0.04  C 
BRANCH 32 33
ATOM     33  CG  GLU Q 639      19.406 -33.211  49.890  1.00 21.94 LIG 0.12  C 
BRANCH 33 34
ATOM     34  CD  GLU Q 639      20.187 -32.282  50.799  1.00 26.00 LIG 0.17  C 
ATOM     35 OE1  GLU Q 639      19.575 -31.692  51.714  1.00 25.44 LIG-0.65  OA
ATOM     36 OE2  GLU Q 639      21.411 -32.142  50.598  1.00 27.11 LIG-0.65  OA
ENDBRANCH 33 34
ENDBRANCH 32 33
ENDBRANCH 1 32
BRANCH 1 37
ATOM     37  N   GLU Q 639      22.135 -35.743  50.344  1.00 19.24 LIG-0.35  N 
ATOM     38  C   VAL Q 638      23.355 -35.732  50.872  1.00 20.97 LIG 0.24  C 
ATOM     39 O    VAL Q 638      23.666 -35.017  51.825  1.00 20.96 LIG-0.27  OA
ATOM     40 H    GLU Q 639      21.904 -36.239  49.680  1.00 19.24 LIG 0.16  HD
BRANCH 38 41
ATOM     41  CA  VAL Q 638      24.375 -36.667  50.231  1.00 22.03 LIG 0.18  C 
BRANCH 41 42
ATOM     42  CB  VAL Q 638      25.688 -36.604  51.032  1.00 22.63 LIG 0.01  C 
ATOM     43  CG1 VAL Q 638      26.029 -37.973  51.603  1.00 22.21 LIG 0.01  C 
ATOM     44  CG2 VAL Q 638      26.820 -36.090  50.155  1.00 20.65 LIG 0.01  C 
ENDBRANCH 41 42
BRANCH 41 45
ATOM     45  N   VAL Q 638      24.588 -36.334  48.828  1.00 23.53 LIG-0.35  N 
ATOM     46 H    VAL Q 638      24.715 -37.042  48.358  1.00 23.53 LIG 0.16  HD
ATOM     47  C   THR Q 637      24.604 -35.136  48.252  1.00 24.82 LIG 0.24  C 
ATOM     48 O    THR Q 637      24.882 -34.103  48.860  1.00 25.63 LIG-0.27  OA
BRANCH 47 49
ATOM     49  CA  THR Q 637      24.254 -35.099  46.768  1.00 25.03 LIG 0.20  C 
BRANCH 49 50
ATOM     50  CB  THR Q 637      25.679 -35.346  46.241  1.00 24.88 LIG 0.15  C 
ATOM     51  CG2 THR Q 637      25.634 -36.062  44.899  1.00 23.89 LIG 0.04  C 
BRANCH 50 52
ATOM     52 OG1  THR Q 637      26.359 -34.094  46.087  1.00 24.10 LIG-0.39  OA
ATOM     53 HG1  THR Q 637      26.489 -33.752  46.843  1.00 24.10 LIG 0.21  HD
ENDBRANCH 50 52
ENDBRANCH 49 50
BRANCH 49 54
ATOM     54  N   THR Q 637      23.909 -33.683  46.731  1.00 26.29 LIG-0.34  N 
ATOM     55 H    THR Q 637      24.565 -33.162  46.536  1.00 26.29 LIG 0.16  HD
ATOM     56  C   PRO Q 636      22.675 -33.258  46.984  1.00 27.07 LIG 0.25  C 
ATOM     57 O    PRO Q 636      21.744 -34.013  47.263  1.00 27.06 LIG-0.27  OA
BRANCH 56 58
ATOM     58  CA  PRO Q 636      22.442 -31.752  46.914  1.00 27.59 LIG 0.35  C 
ATOM     59  CB  PRO Q 636      23.382 -31.030  47.880  1.00 27.63 LIG 0.05  C 
ATOM     60  CG  PRO Q 636      22.604 -29.850  48.342  1.00 27.91 LIG 0.04  C 
ATOM     61  CD  PRO Q 636      21.173 -30.303  48.409  1.00 28.09 LIG 0.32  C 
ATOM     62  N   PRO Q 636      21.113 -31.383  47.408  1.00 27.47 LIG 0.32  N 
ENDBRANCH 56 58
ENDBRANCH 49 54
ENDBRANCH 47 49
ENDBRANCH 41 45
ENDBRANCH 38 41
ENDBRANCH 1 37
TORSDOF 25
ENDMDL
MODEL 8
USER: ADFR SOLUTION from run 162
USER: SCORE 19.458716 LL:  -3.864 LR: -16.946 RR:   0.000 FEB:  -9.488
USER: RMSD 6.123880
USER: SEED 161
USER: STATUS no improvement in best in 3 clusters for 5 generations
USER: GENES 27
USER: genes 0 Translation |==|  0.32819 0.54242 0.53880
USER: genes 1 Rotation |==|  0.59081 0.87919 0.23113 0.66024
USER: genes 2 Torsion [N]-CA--C-[N] |==|  0.33478
USER: genes 3 Torsion [C]-N--CA-[C] |==|  0.74666
USER: genes 4 Torsion [N]-CA--CB-[CG] |==|  0.89301
USER: genes 5 Torsion [CA]-CB--CG-[CD] |==|  0.25280
USER: genes 6 Torsion [CB]-CG--CD-[OE2] |==|  0.16078
USER: genes 7 Torsion [N]-CA--C-[N] |==|  0.21156
USER: genes 8 Torsion [C]-N--CA-[CB] |==|  0.82604
USER: genes 9 Torsion [N]-CA--CB-[CG1] |==|  0.89282
USER: genes 10 Torsion [N]-CA--C-[N] |==|  0.02222
USER: genes 11 Torsion [C]-N--CA-[CB] |==|  0.52835
USER: genes 12 Torsion [N]-CA--CB-[CG] |==|  0.82837
USER: genes 13 Torsion [CA]-CB--CG-[OD2] |==|  0.15630
USER: genes 14 Torsion [N]-CA--C-[O] |==|  0.89081
USER: genes 15 Torsion [C]-CA--CB-[CG] |==|  0.21724
USER: genes 16 Torsion [CA]-CB--CG-[CD] |==|  0.17442
USER: genes 17 Torsion [CB]-CG--CD-[OE2] |==|  0.86836
USER: genes 18 Torsion [C]-CA--N-[C] |==|  0.69021
USER: genes 19 Torsion [N]-C--CA-[N] |==|  0.40807
USER: genes 20 Torsion [C]-CA--CB-[CG1] |==|  0.00849
USER: genes 21 Torsion [C]-CA--N-[C] |==|  0.68750
USER: genes 22 Torsion [N]-C--CA-[N] |==|  0.87307
USER: genes 23 Torsion [C]-CA--CB-[CG2] |==|  0.22091
USER: genes 24 Torsion [CA]-CB--OG1-[HG1] |==|  0.85450
USER: genes 25 Torsion [C]-CA--N-[C] |==|  0.80267
USER: genes 26 Torsion [N]-C--CA-[CB] |==|  0.74284
ROOT
ATOM      1  CA  GLU Q 639      20.274 -36.930  55.303  1.00 17.71 LIG 0.18  C 
ENDROOT
BRANCH 1 2
ATOM      2  C   GLU Q 639      20.269 -38.404  55.695  1.00 15.36 LIG 0.24  C 
ATOM      3 O    GLU Q 639      19.226 -38.963  56.034  1.00 14.90 LIG-0.27  OA
ATOM      4  N   GLU Q 640      21.442 -39.028  55.646  1.00 12.94 LIG-0.35  N 
ATOM      5 H    GLU Q 640      22.177 -38.649  55.411  1.00 12.94 LIG 0.16  HD
BRANCH 4 6
ATOM      6  CA  GLU Q 640      21.575 -40.436  55.995  1.00 11.11 LIG 0.18  C 
BRANCH 6 7
ATOM      7  CB  GLU Q 640      22.668 -41.064  55.123  1.00 10.30 LIG 0.04  C 
BRANCH 7 8
ATOM      8  CG  GLU Q 640      22.641 -40.530  53.682  1.00 11.77 LIG 0.12  C 
BRANCH 8 9
ATOM      9  CD  GLU Q 640      23.531 -39.300  53.456  1.00 13.33 LIG 0.17  C 
ATOM     10 OE2  GLU Q 640      24.749 -39.396  53.710  1.00 13.21 LIG-0.65  OA
ATOM     11 OE1  GLU Q 640      23.010 -38.238  53.031  1.00 12.97 LIG-0.65  OA
ENDBRANCH 8 9
ENDBRANCH 7 8
ENDBRANCH 6 7
BRANCH 6 12
ATOM     12  C   GLU Q 640      21.903 -40.605  57.481  1.00  9.90 LIG 0.24  C 
ATOM     13  N   VAL Q 641      20.888 -40.433  58.338  1.00  8.06 LIG-0.35  N 
ATOM     14 H    VAL Q 641      20.130 -40.100  58.105  1.00  8.06 LIG 0.16  HD
ATOM     15 O    GLU Q 640      23.062 -40.884  57.831  1.00  9.48 LIG-0.27  OA
BRANCH 13 16
ATOM     16  CA  VAL Q 641      20.957 -40.795  59.771  1.00  6.68 LIG 0.18  C 
BRANCH 16 17
ATOM     17  CB  VAL Q 641      21.177 -42.321  60.005  1.00  5.82 LIG 0.01  C 
ATOM     18  CG2 VAL Q 641      22.642 -42.676  59.983  1.00  2.95 LIG 0.01  C 
ATOM     19  CG1 VAL Q 641      20.395 -43.111  59.012  1.00  4.23 LIG 0.01  C 
ENDBRANCH 16 17
BRANCH 16 20
ATOM     20  C   VAL Q 641      22.048 -40.007  60.530  1.00  6.62 LIG 0.24  C 
ATOM     21 O    VAL Q 641      22.333 -40.287  61.688  1.00  7.26 LIG-0.27  OA
ATOM     22  N   ASP Q 642      22.643 -39.027  59.869  1.00  6.11 LIG-0.34  N 
ATOM     23 H    ASP Q 642      22.450 -38.814  59.058  1.00  6.11 LIG 0.16  HD
BRANCH 22 24
ATOM     24  CA  ASP Q 642      23.697 -38.206  60.463  1.00  5.85 LIG 0.20  C 
BRANCH 24 25
ATOM     25  CB  ASP Q 642      24.006 -37.002  59.550  1.00  5.86 LIG 0.15  C 
BRANCH 25 26
ATOM     26  CG  ASP Q 642      24.528 -37.427  58.153  1.00  7.09 LIG 0.17  C 
ATOM     27 OD2  ASP Q 642      23.818 -38.192  57.476  1.00  7.75 LIG-0.65  OA
ATOM     28 OD1  ASP Q 642      25.619 -36.997  57.727  1.00  5.16 LIG-0.65  OA
ENDBRANCH 25 26
ENDBRANCH 24 25
BRANCH 24 29
ATOM     29  C   ASP Q 642      23.292 -37.729  61.872  1.00  5.53 LIG 0.20  C 
ATOM     30 O    ASP Q 642      22.130 -37.373  62.128  1.00  4.89 LIG-0.65  OA
ATOM     31 OXT  ASP Q 642      24.117 -37.719  62.801  1.00  5.08 LIG-0.65  OA
ENDBRANCH 24 29
ENDBRANCH 22 24
ENDBRANCH 16 20
ENDBRANCH 13 16
ENDBRANCH 6 12
ENDBRANCH 4 6
ENDBRANCH 1 2
BRANCH 1 32
ATOM     32  CB  GLU Q 639      19.863 -36.067  56.499  1.00 18.28 LIG 0.04  C 
BRANCH 32 33
ATOM     33  CG  GLU Q 639      20.969 -35.855  57.520  1.00 21.94 LIG 0.12  C 
BRANCH 33 34
ATOM     34  CD  GLU Q 639      22.157 -35.107  56.947  1.00 26.00 LIG 0.17  C 
ATOM     35 OE1  GLU Q 639      22.631 -34.153  57.598  1.00 25.44 LIG-0.65  OA
ATOM     36 OE2  GLU Q 639      22.617 -35.475  55.845  1.00 27.11 LIG-0.65  OA
ENDBRANCH 33 34
ENDBRANCH 32 33
ENDBRANCH 1 32
BRANCH 1 37
ATOM     37  N   GLU Q 639      19.393 -36.684  54.169  1.00 19.24 LIG-0.35  N 
ATOM     38  C   VAL Q 638      19.868 -36.341  52.976  1.00 20.97 LIG 0.24  C 
ATOM     39 O    VAL Q 638      21.071 -36.209  52.747  1.00 20.96 LIG-0.27  OA
ATOM     40 H    GLU Q 639      18.556 -36.780  54.342  1.00 19.24 LIG 0.16  HD
BRANCH 38 41
ATOM     41  CA  VAL Q 638      18.834 -36.115  51.878  1.00 22.03 LIG 0.18  C 
BRANCH 41 42
ATOM     42  CB  VAL Q 638      18.573 -37.446  51.151  1.00 22.63 LIG 0.01  C 
ATOM     43  CG1 VAL Q 638      19.365 -38.571  51.800  1.00 22.21 LIG 0.01  C 
ATOM     44  CG2 VAL Q 638      17.086 -37.766  51.147  1.00 20.65 LIG 0.01  C 
ENDBRANCH 41 42
BRANCH 41 45
ATOM     45  N   VAL Q 638      19.267 -35.076  50.952  1.00 23.53 LIG-0.35  N 
ATOM     46 H    VAL Q 638      19.951 -35.332  50.497  1.00 23.53 LIG 0.16  HD
ATOM     47  C   THR Q 637      18.749 -33.868  50.757  1.00 24.82 LIG 0.24  C 
ATOM     48 O    THR Q 637      18.110 -33.265  51.619  1.00 25.63 LIG-0.27  OA
BRANCH 47 49
ATOM     49  CA  THR Q 637      18.987 -33.246  49.385  1.00 25.03 LIG 0.20  C 
BRANCH 49 50
ATOM     50  CB  THR Q 637      18.135 -34.248  48.583  1.00 24.88 LIG 0.15  C 
ATOM     51  CG2 THR Q 637      16.658 -33.902  48.700  1.00 23.89 LIG 0.04  C 
BRANCH 50 52
ATOM     52 OG1  THR Q 637      18.522 -34.213  47.204  1.00 24.10 LIG-0.39  OA
ATOM     53 HG1  THR Q 637      18.504 -33.420  46.928  1.00 24.10 LIG 0.21  HD
ENDBRANCH 50 52
ENDBRANCH 49 50
BRANCH 49 54
ATOM     54  N   THR Q 637      20.406 -33.576  49.315  1.00 26.29 LIG-0.34  N 
ATOM     55 H    THR Q 637      20.600 -34.193  48.748  1.00 26.29 LIG 0.16  HD
ATOM     56  C   PRO Q 636      21.304 -32.960  50.077  1.00 27.07 LIG 0.25  C 
ATOM     57 O    PRO Q 636      21.014 -32.079  50.885  1.00 27.06 LIG-0.27  OA
BRANCH 56 58
ATOM     58  CA  PRO Q 636      22.756 -33.396  49.910  1.00 27.59 LIG 0.35  C 
ATOM     59  CB  PRO Q 636      23.093 -34.497  50.916  1.00 27.63 LIG 0.05  C 
ATOM     60  CG  PRO Q 636      24.524 -34.271  51.248  1.00 27.91 LIG 0.04  C 
ATOM     61  CD  PRO Q 636      24.724 -32.782  51.214  1.00 28.09 LIG 0.32  C 
ATOM     62  N   PRO Q 636      23.691 -32.325  50.268  1.00 27.47 LIG 0.32  N 
ENDBRANCH 56 58
ENDBRANCH 49 54
ENDBRANCH 47 49
ENDBRANCH 41 45
ENDBRANCH 38 41
ENDBRANCH 1 37
TORSDOF 25
ENDMDL
MODEL 9
USER: ADFR SOLUTION from run 153
USER: SCORE 19.969140 LL:  -3.950 LR: -16.939 RR:   0.000 FEB:  -9.481
USER: RMSD 8.362073
USER: SEED 152
USER: STATUS no improvement in best in 7 clusters for 5 generations
USER: GENES 27
USER: genes 0 Translation |==|  0.36337 0.50522 0.52876
USER: genes 1 Rotation |==|  0.37972 0.52156 0.01669 0.53840
USER: genes 2 Torsion [N]-CA--C-[N] |==|  0.09819
USER: genes 3 Torsion [C]-N--CA-[C] |==|  0.81281
USER: genes 4 Torsion [N]-CA--CB-[CG] |==|  0.28343
USER: genes 5 Torsion [CA]-CB--CG-[CD] |==|  0.33468
USER: genes 6 Torsion [CB]-CG--CD-[OE2] |==|  0.05528
USER: genes 7 Torsion [N]-CA--C-[N] |==|  0.44796
USER: genes 8 Torsion [C]-N--CA-[CB] |==|  0.83177
USER: genes 9 Torsion [N]-CA--CB-[CG1] |==|  0.28758
USER: genes 10 Torsion [N]-CA--C-[N] |==|  0.40735
USER: genes 11 Torsion [C]-N--CA-[CB] |==|  0.48252
USER: genes 12 Torsion [N]-CA--CB-[CG] |==|  0.63740
USER: genes 13 Torsion [CA]-CB--CG-[OD2] |==|  0.52534
USER: genes 14 Torsion [N]-CA--C-[O] |==|  0.80984
USER: genes 15 Torsion [C]-CA--CB-[CG] |==|  0.34212
USER: genes 16 Torsion [CA]-CB--CG-[CD] |==|  0.78432
USER: genes 17 Torsion [CB]-CG--CD-[OE2] |==|  0.32532
USER: genes 18 Torsion [C]-CA--N-[C] |==|  0.74951
USER: genes 19 Torsion [N]-C--CA-[N] |==|  0.33347
USER: genes 20 Torsion [C]-CA--CB-[CG1] |==|  0.82762
USER: genes 21 Torsion [C]-CA--N-[C] |==|  0.84866
USER: genes 22 Torsion [N]-C--CA-[N] |==|  0.32869
USER: genes 23 Torsion [C]-CA--CB-[CG2] |==|  0.41372
USER: genes 24 Torsion [CA]-CB--OG1-[HG1] |==|  0.28622
USER: genes 25 Torsion [C]-CA--N-[C] |==|  0.80893
USER: genes 26 Torsion [N]-C--CA-[CB] |==|  0.92090
ROOT
ATOM      1  CA  GLU Q 639      20.908 -37.627  55.055  1.00 17.71 LIG 0.18  C 
ENDROOT
BRANCH 1 2
ATOM      2  C   GLU Q 639      21.553 -36.871  56.212  1.00 15.36 LIG 0.24  C 
ATOM      3 O    GLU Q 639      22.222 -35.858  56.008  1.00 14.90 LIG-0.27  OA
ATOM      4  N   GLU Q 640      21.349 -37.371  57.426  1.00 12.94 LIG-0.35  N 
ATOM      5 H    GLU Q 640      20.884 -38.077  57.581  1.00 12.94 LIG 0.16  HD
BRANCH 4 6
ATOM      6  CA  GLU Q 640      21.910 -36.745  58.616  1.00 11.11 LIG 0.18  C 
BRANCH 6 7
ATOM      7  CB  GLU Q 640      21.304 -37.405  59.859  1.00 10.30 LIG 0.04  C 
BRANCH 7 8
ATOM      8  CG  GLU Q 640      22.266 -38.412  60.510  1.00 11.77 LIG 0.12  C 
BRANCH 8 9
ATOM      9  CD  GLU Q 640      22.626 -38.080  61.965  1.00 13.33 LIG 0.17  C 
ATOM     10 OE2  GLU Q 640      21.873 -37.314  62.601  1.00 13.21 LIG-0.65  OA
ATOM     11 OE1  GLU Q 640      23.664 -38.579  62.469  1.00 12.97 LIG-0.65  OA
ENDBRANCH 8 9
ENDBRANCH 7 8
ENDBRANCH 6 7
BRANCH 6 12
ATOM     12  C   GLU Q 640      23.437 -36.861  58.630  1.00  9.90 LIG 0.24  C 
ATOM     13  N   VAL Q 641      24.091 -36.015  59.437  1.00  8.06 LIG-0.35  N 
ATOM     14 H    VAL Q 641      23.712 -35.342  59.816  1.00  8.06 LIG 0.16  HD
ATOM     15 O    GLU Q 640      24.000 -37.704  57.914  1.00  9.48 LIG-0.27  OA
BRANCH 13 16
ATOM     16  CA  VAL Q 641      25.528 -36.144  59.765  1.00  6.68 LIG 0.18  C 
BRANCH 16 17
ATOM     17  CB  VAL Q 641      25.873 -37.488  60.478  1.00  5.82 LIG 0.01  C 
ATOM     18  CG2 VAL Q 641      26.716 -37.258  61.707  1.00  2.95 LIG 0.01  C 
ATOM     19  CG1 VAL Q 641      26.525 -38.425  59.520  1.00  4.23 LIG 0.01  C 
ENDBRANCH 16 17
BRANCH 16 20
ATOM     20  C   VAL Q 641      26.436 -35.983  58.526  1.00  6.62 LIG 0.24  C 
ATOM     21 O    VAL Q 641      26.067 -36.369  57.423  1.00  7.26 LIG-0.27  OA
ATOM     22  N   ASP Q 642      27.617 -35.417  58.722  1.00  6.11 LIG-0.34  N 
ATOM     23 H    ASP Q 642      27.893 -35.147  59.491  1.00  6.11 LIG 0.16  HD
BRANCH 22 24
ATOM     24  CA  ASP Q 642      28.571 -35.196  57.637  1.00  5.85 LIG 0.20  C 
BRANCH 24 25
ATOM     25  CB  ASP Q 642      29.775 -34.381  58.152  1.00  5.86 LIG 0.15  C 
BRANCH 25 26
ATOM     26  CG  ASP Q 642      30.113 -33.172  57.244  1.00  7.09 LIG 0.17  C 
ATOM     27 OD2  ASP Q 642      31.168 -32.553  57.470  1.00  7.75 LIG-0.65  OA
ATOM     28 OD1  ASP Q 642      29.351 -32.849  56.310  1.00  5.16 LIG-0.65  OA
ENDBRANCH 25 26
ENDBRANCH 24 25
BRANCH 24 29
ATOM     29  C   ASP Q 642      29.039 -36.536  57.036  1.00  5.53 LIG 0.20  C 
ATOM     30 O    ASP Q 642      29.752 -37.323  57.680  1.00  4.89 LIG-0.65  OA
ATOM     31 OXT  ASP Q 642      28.685 -36.880  55.896  1.00  5.08 LIG-0.65  OA
ENDBRANCH 24 29
ENDBRANCH 22 24
ENDBRANCH 16 20
ENDBRANCH 13 16
ENDBRANCH 6 12
ENDBRANCH 4 6
ENDBRANCH 1 2
BRANCH 1 32
ATOM     32  CB  GLU Q 639      20.752 -36.703  53.845  1.00 18.28 LIG 0.04  C 
BRANCH 32 33
ATOM     33  CG  GLU Q 639      21.425 -37.215  52.582  1.00 21.94 LIG 0.12  C 
BRANCH 33 34
ATOM     34  CD  GLU Q 639      22.926 -37.002  52.595  1.00 26.00 LIG 0.17  C 
ATOM     35 OE1  GLU Q 639      23.362 -35.832  52.635  1.00 25.44 LIG-0.65  OA
ATOM     36 OE2  GLU Q 639      23.671 -38.005  52.567  1.00 27.11 LIG-0.65  OA
ENDBRANCH 33 34
ENDBRANCH 32 33
ENDBRANCH 1 32
BRANCH 1 37
ATOM     37  N   GLU Q 639      19.617 -38.181  55.444  1.00 19.24 LIG-0.35  N 
ATOM     38  C   VAL Q 638      19.508 -39.400  55.965  1.00 20.97 LIG 0.24  C 
ATOM     39 O    VAL Q 638      20.477 -40.137  56.153  1.00 20.96 LIG-0.27  OA
ATOM     40 H    GLU Q 639      18.950 -37.656  55.308  1.00 19.24 LIG 0.16  HD
BRANCH 38 41
ATOM     41  CA  VAL Q 638      18.098 -39.854  56.328  1.00 22.03 LIG 0.18  C 
BRANCH 41 42
ATOM     42  CB  VAL Q 638      18.018 -40.076  57.849  1.00 22.63 LIG 0.01  C 
ATOM     43  CG1 VAL Q 638      18.977 -41.177  58.277  1.00 22.21 LIG 0.01  C 
ATOM     44  CG2 VAL Q 638      18.316 -38.783  58.591  1.00 20.65 LIG 0.01  C 
ENDBRANCH 41 42
BRANCH 41 45
ATOM     45  N   VAL Q 638      17.725 -41.055  55.592  1.00 23.53 LIG-0.35  N 
ATOM     46 H    VAL Q 638      17.473 -41.680  56.127  1.00 23.53 LIG 0.16  HD
ATOM     47  C   THR Q 637      17.736 -41.262  54.279  1.00 24.82 LIG 0.24  C 
ATOM     48 O    THR Q 637      18.471 -40.645  53.509  1.00 25.63 LIG-0.27  OA
BRANCH 47 49
ATOM     49  CA  THR Q 637      16.774 -42.325  53.757  1.00 25.03 LIG 0.20  C 
BRANCH 49 50
ATOM     50  CB  THR Q 637      17.808 -43.114  52.933  1.00 24.88 LIG 0.15  C 
ATOM     51  CG2 THR Q 637      17.441 -44.590  52.890  1.00 23.89 LIG 0.04  C 
BRANCH 50 52
ATOM     52 OG1  THR Q 637      17.854 -42.597  51.597  1.00 24.10 LIG-0.39  OA
ATOM     53 HG1  THR Q 637      18.537 -42.118  51.506  1.00 24.10 LIG 0.21  HD
ENDBRANCH 50 52
ENDBRANCH 49 50
BRANCH 49 54
ATOM     54  N   THR Q 637      15.996 -41.423  52.917  1.00 26.29 LIG-0.34  N 
ATOM     55 H    THR Q 637      16.093 -41.553  52.072  1.00 26.29 LIG 0.16  HD
ATOM     56  C   PRO Q 636      15.210 -40.487  53.439  1.00 27.07 LIG 0.25  C 
ATOM     57 O    PRO Q 636      15.080 -40.311  54.649  1.00 27.06 LIG-0.27  OA
BRANCH 56 58
ATOM     58  CA  PRO Q 636      14.449 -39.607  52.453  1.00 27.59 LIG 0.35  C 
ATOM     59  CB  PRO Q 636      15.227 -39.490  51.142  1.00 27.63 LIG 0.05  C 
ATOM     60  CG  PRO Q 636      14.920 -38.122  50.648  1.00 27.91 LIG 0.04  C 
ATOM     61  CD  PRO Q 636      14.791 -37.263  51.874  1.00 28.09 LIG 0.32  C 
ATOM     62  N   PRO Q 636      14.367 -38.217  52.913  1.00 27.47 LIG 0.32  N 
ENDBRANCH 56 58
ENDBRANCH 49 54
ENDBRANCH 47 49
ENDBRANCH 41 45
ENDBRANCH 38 41
ENDBRANCH 1 37
TORSDOF 25
ENDMDL
MODEL 10
USER: ADFR SOLUTION from run 158
USER: SCORE 20.354019 LL:  -5.127 LR: -16.850 RR:   0.000 FEB:  -9.393
USER: RMSD 5.688029
USER: SEED 157
USER: STATUS no improvement in best in 1 clusters for 5 generations
USER: GENES 27
USER: genes 0 Translation |==|  0.28690 0.64945 0.35838
USER: genes 1 Rotation |==|  0.56499 0.56456 0.40355 0.98198
USER: genes 2 Torsion [N]-CA--C-[N] |==|  0.10970
USER: genes 3 Torsion [C]-N--CA-[C] |==|  0.63238
USER: genes 4 Torsion [N]-CA--CB-[CG] |==|  0.42185
USER: genes 5 Torsion [CA]-CB--CG-[CD] |==|  0.63250
USER: genes 6 Torsion [CB]-CG--CD-[OE2] |==|  0.53994
USER: genes 7 Torsion [N]-CA--C-[N] |==|  0.32618
USER: genes 8 Torsion [C]-N--CA-[CB] |==|  0.52907
USER: genes 9 Torsion [N]-CA--CB-[CG1] |==|  0.81687
USER: genes 10 Torsion [N]-CA--C-[N] |==|  0.41111
USER: genes 11 Torsion [C]-N--CA-[CB] |==|  0.82323
USER: genes 12 Torsion [N]-CA--CB-[CG] |==|  0.75678
USER: genes 13 Torsion [CA]-CB--CG-[OD2] |==|  0.19158
USER: genes 14 Torsion [N]-CA--C-[O] |==|  0.74825
USER: genes 15 Torsion [C]-CA--CB-[CG] |==|  0.38346
USER: genes 16 Torsion [CA]-CB--CG-[CD] |==|  0.24724
USER: genes 17 Torsion [CB]-CG--CD-[OE2] |==|  0.93945
USER: genes 18 Torsion [C]-CA--N-[C] |==|  0.66271
USER: genes 19 Torsion [N]-C--CA-[N] |==|  0.24451
USER: genes 20 Torsion [C]-CA--CB-[CG1] |==|  0.80459
USER: genes 21 Torsion [C]-CA--N-[C] |==|  0.57547
USER: genes 22 Torsion [N]-C--CA-[N] |==|  0.02412
USER: genes 23 Torsion [C]-CA--CB-[CG2] |==|  0.27068
USER: genes 24 Torsion [CA]-CB--OG1-[HG1] |==|  0.71421
USER: genes 25 Torsion [C]-CA--N-[C] |==|  0.67552
USER: genes 26 Torsion [N]-C--CA-[CB] |==|  0.99381
ROOT
ATOM      1  CA  GLU Q 639      19.531 -34.923  50.838  1.00 17.71 LIG 0.18  C 
ENDROOT
BRANCH 1 2
ATOM      2  C   GLU Q 639      19.319 -35.970  51.927  1.00 15.36 LIG 0.24  C 
ATOM      3 O    GLU Q 639      18.242 -36.556  52.037  1.00 14.90 LIG-0.27  OA
ATOM      4  N   GLU Q 640      20.353 -36.199  52.729  1.00 12.94 LIG-0.35  N 
ATOM      5 H    GLU Q 640      21.109 -35.797  52.663  1.00 12.94 LIG 0.16  HD
BRANCH 4 6
ATOM      6  CA  GLU Q 640      20.282 -37.174  53.810  1.00 11.11 LIG 0.18  C 
BRANCH 6 7
ATOM      7  CB  GLU Q 640      21.075 -38.422  53.409  1.00 10.30 LIG 0.04  C 
BRANCH 7 8
ATOM      8  CG  GLU Q 640      21.641 -39.169  54.627  1.00 11.77 LIG 0.12  C 
BRANCH 8 9
ATOM      9  CD  GLU Q 640      23.123 -39.547  54.493  1.00 13.33 LIG 0.17  C 
ATOM     10 OE2  GLU Q 640      23.597 -40.380  55.292  1.00 13.21 LIG-0.65  OA
ATOM     11 OE1  GLU Q 640      23.814 -39.005  53.593  1.00 12.97 LIG-0.65  OA
ENDBRANCH 8 9
ENDBRANCH 7 8
ENDBRANCH 6 7
BRANCH 6 12
ATOM     12  C   GLU Q 640      20.822 -36.585  55.117  1.00  9.90 LIG 0.24  C 
ATOM     13  N   VAL Q 641      19.952 -36.489  56.131  1.00  8.06 LIG-0.35  N 
ATOM     14 H    VAL Q 641      19.104 -36.601  56.032  1.00  8.06 LIG 0.16  HD
ATOM     15 O    GLU Q 640      22.008 -36.226  55.190  1.00  9.48 LIG-0.27  OA
BRANCH 13 16
ATOM     16  CA  VAL Q 641      20.349 -36.182  57.523  1.00  6.68 LIG 0.18  C 
BRANCH 16 17
ATOM     17  CB  VAL Q 641      19.190 -36.382  58.547  1.00  5.82 LIG 0.01  C 
ATOM     18  CG2 VAL Q 641      18.678 -37.800  58.528  1.00  2.95 LIG 0.01  C 
ATOM     19  CG1 VAL Q 641      18.104 -35.392  58.294  1.00  4.23 LIG 0.01  C 
ENDBRANCH 16 17
BRANCH 16 20
ATOM     20  C   VAL Q 641      21.575 -37.001  57.984  1.00  6.62 LIG 0.24  C 
ATOM     21 O    VAL Q 641      21.768 -38.134  57.560  1.00  7.26 LIG-0.27  OA
ATOM     22  N   ASP Q 642      22.389 -36.418  58.850  1.00  6.11 LIG-0.34  N 
ATOM     23 H    ASP Q 642      22.264 -35.627  59.162  1.00  6.11 LIG 0.16  HD
BRANCH 22 24
ATOM     24  CA  ASP Q 642      23.590 -37.075  59.363  1.00  5.85 LIG 0.20  C 
BRANCH 24 25
ATOM     25  CB  ASP Q 642      23.201 -38.328  60.174  1.00  5.86 LIG 0.15  C 
BRANCH 25 26
ATOM     26  CG  ASP Q 642      22.916 -38.013  61.665  1.00  7.09 LIG 0.17  C 
ATOM     27 OD2  ASP Q 642      21.899 -37.350  61.935  1.00  7.75 LIG-0.65  OA
ATOM     28 OD1  ASP Q 642      23.683 -38.429  62.557  1.00  5.16 LIG-0.65  OA
ENDBRANCH 25 26
ENDBRANCH 24 25
BRANCH 24 29
ATOM     29  C   ASP Q 642      24.545 -37.449  58.211  1.00  5.53 LIG 0.20  C 
ATOM     30 O    ASP Q 642      24.478 -38.552  57.645  1.00  4.89 LIG-0.65  OA
ATOM     31 OXT  ASP Q 642      25.389 -36.638  57.796  1.00  5.08 LIG-0.65  OA
ENDBRANCH 24 29
ENDBRANCH 22 24
ENDBRANCH 16 20
ENDBRANCH 13 16
ENDBRANCH 6 12
ENDBRANCH 4 6
ENDBRANCH 1 2
BRANCH 1 32
ATOM     32  CB  GLU Q 639      18.465 -35.072  49.750  1.00 18.28 LIG 0.04  C 
BRANCH 32 33
ATOM     33  CG  GLU Q 639      17.898 -33.754  49.251  1.00 21.94 LIG 0.12  C 
BRANCH 33 34
ATOM     34  CD  GLU Q 639      18.690 -33.179  48.093  1.00 26.00 LIG 0.17  C 
ATOM     35 OE1  GLU Q 639      18.129 -32.357  47.338  1.00 25.44 LIG-0.65  OA
ATOM     36 OE2  GLU Q 639      19.873 -33.549  47.938  1.00 27.11 LIG-0.65  OA
ENDBRANCH 33 34
ENDBRANCH 32 33
ENDBRANCH 1 32
BRANCH 1 37
ATOM     37  N   GLU Q 639      20.866 -35.026  50.263  1.00 19.24 LIG-0.35  N 
ATOM     38  C   VAL Q 638      21.718 -34.005  50.287  1.00 20.97 LIG 0.24  C 
ATOM     39 O    VAL Q 638      21.444 -32.916  50.790  1.00 20.96 LIG-0.27  OA
ATOM     40 H    GLU Q 639      21.045 -35.793  49.916  1.00 19.24 LIG 0.16  HD
BRANCH 38 41
ATOM     41  CA  VAL Q 638      23.082 -34.251  49.650  1.00 22.03 LIG 0.18  C 
BRANCH 41 42
ATOM     42  CB  VAL Q 638      24.141 -33.411  50.387  1.00 22.63 LIG 0.01  C 
ATOM     43  CG1 VAL Q 638      23.953 -31.933  50.082  1.00 22.21 LIG 0.01  C 
ATOM     44  CG2 VAL Q 638      24.071 -33.666  51.885  1.00 20.65 LIG 0.01  C 
ENDBRANCH 41 42
BRANCH 41 45
ATOM     45  N   VAL Q 638      23.060 -33.951  48.223  1.00 23.53 LIG-0.35  N 
ATOM     46 H    VAL Q 638      22.462 -33.360  48.041  1.00 23.53 LIG 0.16  HD
ATOM     47  C   THR Q 637      23.814 -34.461  47.255  1.00 24.82 LIG 0.24  C 
ATOM     48 O    THR Q 637      24.338 -35.572  47.328  1.00 25.63 LIG-0.27  OA
BRANCH 47 49
ATOM     49  CA  THR Q 637      24.005 -33.587  46.020  1.00 25.03 LIG 0.20  C 
BRANCH 49 50
ATOM     50  CB  THR Q 637      25.541 -33.509  46.090  1.00 24.88 LIG 0.15  C 
ATOM     51  CG2 THR Q 637      26.170 -34.535  45.159  1.00 23.89 LIG 0.04  C 
BRANCH 50 52
ATOM     52 OG1  THR Q 637      25.974 -32.197  45.712  1.00 24.10 LIG-0.39  OA
ATOM     53 HG1  THR Q 637      26.272 -32.216  44.926  1.00 24.10 LIG 0.21  HD
ENDBRANCH 50 52
ENDBRANCH 49 50
BRANCH 49 54
ATOM     54  N   THR Q 637      23.383 -32.394  46.583  1.00 26.29 LIG-0.34  N 
ATOM     55 H    THR Q 637      23.792 -32.068  47.266  1.00 26.29 LIG 0.16  HD
ATOM     56  C   PRO Q 636      22.275 -31.874  46.064  1.00 27.07 LIG 0.25  C 
ATOM     57 O    PRO Q 636      21.698 -32.349  45.087  1.00 27.06 LIG-0.27  OA
BRANCH 56 58
ATOM     58  CA  PRO Q 636      21.723 -30.626  46.744  1.00 27.59 LIG 0.35  C 
ATOM     59  CB  PRO Q 636      22.579 -30.267  47.959  1.00 27.63 LIG 0.05  C 
ATOM     60  CG  PRO Q 636      21.619 -29.678  48.929  1.00 27.91 LIG 0.04  C 
ATOM     61  CD  PRO Q 636      20.330 -30.426  48.736  1.00 28.09 LIG 0.32  C 
ATOM     62  N   PRO Q 636      20.401 -30.864  47.331  1.00 27.47 LIG 0.32  N 
ENDBRANCH 56 58
ENDBRANCH 49 54
ENDBRANCH 47 49
ENDBRANCH 41 45
ENDBRANCH 38 41
ENDBRANCH 1 37
TORSDOF 25
ENDMDL
MODEL 11
USER: ADFR SOLUTION from run 84
USER: SCORE 19.795287 LL:  -4.307 LR: -16.744 RR:   0.000 FEB:  -9.286
USER: RMSD 7.145673
USER: SEED 83
USER: STATUS searching
USER: GENES 27
USER: genes 0 Translation |==|  0.36621 0.50690 0.52018
USER: genes 1 Rotation |==|  0.27543 0.61596 0.64021 0.90799
USER: genes 2 Torsion [N]-CA--C-[N] |==|  0.57150
USER: genes 3 Torsion [C]-N--CA-[C] |==|  0.82066
USER: genes 4 Torsion [N]-CA--CB-[CG] |==|  0.29449
USER: genes 5 Torsion [CA]-CB--CG-[CD] |==|  0.31323
USER: genes 6 Torsion [CB]-CG--CD-[OE2] |==|  0.05744
USER: genes 7 Torsion [N]-CA--C-[N] |==|  0.43987
USER: genes 8 Torsion [C]-N--CA-[CB] |==|  0.82587
USER: genes 9 Torsion [N]-CA--CB-[CG1] |==|  0.26424
USER: genes 10 Torsion [N]-CA--C-[N] |==|  0.41312
USER: genes 11 Torsion [C]-N--CA-[CB] |==|  0.49407
USER: genes 12 Torsion [N]-CA--CB-[CG] |==|  0.62660
USER: genes 13 Torsion [CA]-CB--CG-[OD2] |==|  0.00564
USER: genes 14 Torsion [N]-CA--C-[O] |==|  0.81275
USER: genes 15 Torsion [C]-CA--CB-[CG] |==|  0.68709
USER: genes 16 Torsion [CA]-CB--CG-[CD] |==|  0.17700
USER: genes 17 Torsion [CB]-CG--CD-[OE2] |==|  0.16526
USER: genes 18 Torsion [C]-CA--N-[C] |==|  0.69904
USER: genes 19 Torsion [N]-C--CA-[N] |==|  0.52511
USER: genes 20 Torsion [C]-CA--CB-[CG1] |==|  0.40066
USER: genes 21 Torsion [C]-CA--N-[C] |==|  0.55663
USER: genes 22 Torsion [N]-C--CA-[N] |==|  0.89110
USER: genes 23 Torsion [C]-CA--CB-[CG2] |==|  0.36623
USER: genes 24 Torsion [CA]-CB--OG1-[HG1] |==|  0.69518
USER: genes 25 Torsion [C]-CA--N-[C] |==|  0.79444
USER: genes 26 Torsion [N]-C--CA-[CB] |==|  0.90034
ROOT
ATOM      1  CA  GLU Q 639      20.959 -37.596  54.842  1.00 17.71 LIG 0.18  C 
ENDROOT
BRANCH 1 2
ATOM      2  C   GLU Q 639      21.537 -36.876  56.057  1.00 15.36 LIG 0.24  C 
ATOM      3 O    GLU Q 639      22.191 -35.841  55.924  1.00 14.90 LIG-0.27  OA
ATOM      4  N   GLU Q 640      21.293 -37.431  57.239  1.00 12.94 LIG-0.35  N 
ATOM      5 H    GLU Q 640      20.838 -38.153  57.344  1.00 12.94 LIG 0.16  HD
BRANCH 4 6
ATOM      6  CA  GLU Q 640      21.788 -36.845  58.478  1.00 11.11 LIG 0.18  C 
BRANCH 6 7
ATOM      7  CB  GLU Q 640      21.200 -37.616  59.664  1.00 10.30 LIG 0.04  C 
BRANCH 7 8
ATOM      8  CG  GLU Q 640      22.239 -38.526  60.339  1.00 11.77 LIG 0.12  C 
BRANCH 8 9
ATOM      9  CD  GLU Q 640      22.617 -38.092  61.762  1.00 13.33 LIG 0.17  C 
ATOM     10 OE2  GLU Q 640      21.829 -37.350  62.383  1.00 13.21 LIG-0.65  OA
ATOM     11 OE1  GLU Q 640      23.704 -38.488  62.254  1.00 12.97 LIG-0.65  OA
ENDBRANCH 8 9
ENDBRANCH 7 8
ENDBRANCH 6 7
BRANCH 6 12
ATOM     12  C   GLU Q 640      23.318 -36.866  58.522  1.00  9.90 LIG 0.24  C 
ATOM     13  N   VAL Q 641      23.902 -35.989  59.350  1.00  8.06 LIG-0.35  N 
ATOM     14 H    VAL Q 641      23.474 -35.345  59.726  1.00  8.06 LIG 0.16  HD
ATOM     15 O    GLU Q 640      23.947 -37.665  57.810  1.00  9.48 LIG-0.27  OA
BRANCH 13 16
ATOM     16  CA  VAL Q 641      25.337 -36.032  59.706  1.00  6.68 LIG 0.18  C 
BRANCH 16 17
ATOM     17  CB  VAL Q 641      25.740 -37.335  60.461  1.00  5.82 LIG 0.01  C 
ATOM     18  CG2 VAL Q 641      26.712 -37.047  61.577  1.00  2.95 LIG 0.01  C 
ATOM     19  CG1 VAL Q 641      26.275 -38.341  59.500  1.00  4.23 LIG 0.01  C 
ENDBRANCH 16 17
BRANCH 16 20
ATOM     20  C   VAL Q 641      26.259 -35.854  58.479  1.00  6.62 LIG 0.24  C 
ATOM     21 O    VAL Q 641      25.915 -36.255  57.373  1.00  7.26 LIG-0.27  OA
ATOM     22  N   ASP Q 642      27.422 -35.258  58.688  1.00  6.11 LIG-0.34  N 
ATOM     23 H    ASP Q 642      27.680 -34.977  59.459  1.00  6.11 LIG 0.16  HD
BRANCH 22 24
ATOM     24  CA  ASP Q 642      28.386 -35.018  57.616  1.00  5.85 LIG 0.20  C 
BRANCH 24 25
ATOM     25  CB  ASP Q 642      29.611 -34.261  58.167  1.00  5.86 LIG 0.15  C 
BRANCH 25 26
ATOM     26  CG  ASP Q 642      30.046 -33.082  57.260  1.00  7.09 LIG 0.17  C 
ATOM     27 OD2  ASP Q 642      29.367 -32.850  56.244  1.00  7.75 LIG-0.65  OA
ATOM     28 OD1  ASP Q 642      31.037 -32.385  57.559  1.00  5.16 LIG-0.65  OA
ENDBRANCH 25 26
ENDBRANCH 24 25
BRANCH 24 29
ATOM     29  C   ASP Q 642      28.817 -36.345  56.960  1.00  5.53 LIG 0.20  C 
ATOM     30 O    ASP Q 642      29.489 -37.187  57.578  1.00  4.89 LIG-0.65  OA
ATOM     31 OXT  ASP Q 642      28.473 -36.622  55.798  1.00  5.08 LIG-0.65  OA
ENDBRANCH 24 29
ENDBRANCH 22 24
ENDBRANCH 16 20
ENDBRANCH 13 16
ENDBRANCH 6 12
ENDBRANCH 4 6
ENDBRANCH 1 2
BRANCH 1 32
ATOM     32  CB  GLU Q 639      20.909 -39.104  55.100  1.00 18.28 LIG 0.04  C 
BRANCH 32 33
ATOM     33  CG  GLU Q 639      21.856 -39.914  54.230  1.00 21.94 LIG 0.12  C 
BRANCH 33 34
ATOM     34  CD  GLU Q 639      23.313 -39.585  54.493  1.00 26.00 LIG 0.17  C 
ATOM     35 OE1  GLU Q 639      24.006 -39.153  53.548  1.00 25.44 LIG-0.65  OA
ATOM     36 OE2  GLU Q 639      23.765 -39.757  55.644  1.00 27.11 LIG-0.65  OA
ENDBRANCH 33 34
ENDBRANCH 32 33
ENDBRANCH 1 32
BRANCH 1 37
ATOM     37  N   GLU Q 639      21.734 -37.308  53.642  1.00 19.24 LIG-0.35  N 
ATOM     38  C   VAL Q 638      21.259 -36.530  52.674  1.00 20.97 LIG 0.24  C 
ATOM     39 O    VAL Q 638      20.147 -36.004  52.721  1.00 20.96 LIG-0.27  OA
ATOM     40 H    GLU Q 639      22.509 -37.680  53.622  1.00 19.24 LIG 0.16  HD
BRANCH 38 41
ATOM     41  CA  VAL Q 638      22.176 -36.312  51.475  1.00 22.03 LIG 0.18  C 
BRANCH 41 42
ATOM     42  CB  VAL Q 638      23.586 -35.950  51.978  1.00 22.63 LIG 0.01  C 
ATOM     43  CG1 VAL Q 638      24.646 -36.552  51.068  1.00 22.21 LIG 0.01  C 
ATOM     44  CG2 VAL Q 638      23.746 -34.441  52.067  1.00 20.65 LIG 0.01  C 
ENDBRANCH 41 42
BRANCH 41 45
ATOM     45  N   VAL Q 638      21.647 -35.285  50.586  1.00 23.53 LIG-0.35  N 
ATOM     46 H    VAL Q 638      21.083 -34.782  50.996  1.00 23.53 LIG 0.16  HD
ATOM     47  C   THR Q 637      21.929 -35.070  49.305  1.00 24.82 LIG 0.24  C 
ATOM     48 O    THR Q 637      22.333 -35.952  48.549  1.00 25.63 LIG-0.27  OA
BRANCH 47 49
ATOM     49  CA  THR Q 637      21.722 -33.645  48.801  1.00 25.03 LIG 0.20  C 
BRANCH 49 50
ATOM     50  CB  THR Q 637      22.946 -33.027  49.501  1.00 24.88 LIG 0.15  C 
ATOM     51  CG2 THR Q 637      23.747 -32.179  48.523  1.00 23.89 LIG 0.04  C 
BRANCH 50 52
ATOM     52 OG1  THR Q 637      22.514 -32.209  50.594  1.00 24.10 LIG-0.39  OA
ATOM     53 HG1  THR Q 637      22.646 -31.400  50.409  1.00 24.10 LIG 0.21  HD
ENDBRANCH 50 52
ENDBRANCH 49 50
BRANCH 49 54
ATOM     54  N   THR Q 637      20.496 -33.397  49.551  1.00 26.29 LIG-0.34  N 
ATOM     55 H    THR Q 637      20.593 -32.875  50.228  1.00 26.29 LIG 0.16  HD
ATOM     56  C   PRO Q 636      19.338 -33.946  49.197  1.00 27.07 LIG 0.25  C 
ATOM     57 O    PRO Q 636      19.212 -34.691  48.227  1.00 27.06 LIG-0.27  OA
BRANCH 56 58
ATOM     58  CA  PRO Q 636      18.129 -33.609  50.064  1.00 27.59 LIG 0.35  C 
ATOM     59  CB  PRO Q 636      18.549 -33.491  51.530  1.00 27.63 LIG 0.05  C 
ATOM     60  CG  PRO Q 636      17.370 -33.976  52.294  1.00 27.91 LIG 0.04  C 
ATOM     61  CD  PRO Q 636      16.760 -35.067  51.460  1.00 28.09 LIG 0.32  C 
ATOM     62  N   PRO Q 636      17.153 -34.702  50.087  1.00 27.47 LIG 0.32  N 
ENDBRANCH 56 58
ENDBRANCH 49 54
ENDBRANCH 47 49
ENDBRANCH 41 45
ENDBRANCH 38 41
ENDBRANCH 1 37
TORSDOF 25
ENDMDL
MODEL 12
USER: ADFR SOLUTION from run 110
USER: SCORE 20.358621 LL:  -4.973 LR: -16.696 RR:   0.000 FEB:  -9.238
USER: RMSD 3.597271
USER: SEED 109
USER: STATUS no improvement in best in 6 clusters for 5 generations
USER: GENES 27
USER: genes 0 Translation |==|  0.39865 0.63075 0.37708
USER: genes 1 Rotation |==|  0.55209 0.48569 0.30485 0.95716
USER: genes 2 Torsion [N]-CA--C-[N] |==|  0.04839
USER: genes 3 Torsion [C]-N--CA-[C] |==|  0.71511
USER: genes 4 Torsion [N]-CA--CB-[CG] |==|  0.29611
USER: genes 5 Torsion [CA]-CB--CG-[CD] |==|  0.62349
USER: genes 6 Torsion [CB]-CG--CD-[OE2] |==|  0.77418
USER: genes 7 Torsion [N]-CA--C-[N] |==|  0.43270
USER: genes 8 Torsion [C]-N--CA-[CB] |==|  0.46260
USER: genes 9 Torsion [N]-CA--CB-[CG1] |==|  0.81214
USER: genes 10 Torsion [N]-CA--C-[N] |==|  0.40159
USER: genes 11 Torsion [C]-N--CA-[CB] |==|  0.31335
USER: genes 12 Torsion [N]-CA--CB-[CG] |==|  0.86901
USER: genes 13 Torsion [CA]-CB--CG-[OD2] |==|  0.22274
USER: genes 14 Torsion [N]-CA--C-[O] |==|  0.56758
USER: genes 15 Torsion [C]-CA--CB-[CG] |==|  0.30828
USER: genes 16 Torsion [CA]-CB--CG-[CD] |==|  0.99459
USER: genes 17 Torsion [CB]-CG--CD-[OE2] |==|  0.20145
USER: genes 18 Torsion [C]-CA--N-[C] |==|  0.69491
USER: genes 19 Torsion [N]-C--CA-[N] |==|  0.95014
USER: genes 20 Torsion [C]-CA--CB-[CG1] |==|  0.93434
USER: genes 21 Torsion [C]-CA--N-[C] |==|  0.81021
USER: genes 22 Torsion [N]-C--CA-[N] |==|  0.87288
USER: genes 23 Torsion [C]-CA--CB-[CG2] |==|  0.34003
USER: genes 24 Torsion [CA]-CB--OG1-[HG1] |==|  0.64146
USER: genes 25 Torsion [C]-CA--N-[C] |==|  0.80634
USER: genes 26 Torsion [N]-C--CA-[CB] |==|  0.90325
ROOT
ATOM      1  CA  GLU Q 639      21.543 -35.273  51.301  1.00 17.71 LIG 0.18  C 
ENDROOT
BRANCH 1 2
ATOM      2  C   GLU Q 639      20.692 -35.914  52.393  1.00 15.36 LIG 0.24  C 
ATOM      3 O    GLU Q 639      19.495 -35.644  52.500  1.00 14.90 LIG-0.27  OA
ATOM      4  N   GLU Q 640      21.318 -36.762  53.202  1.00 12.94 LIG-0.35  N 
ATOM      5 H    GLU Q 640      22.152 -36.958  53.138  1.00 12.94 LIG 0.16  HD
BRANCH 4 6
ATOM      6  CA  GLU Q 640      20.621 -37.441  54.287  1.00 11.11 LIG 0.18  C 
BRANCH 6 7
ATOM      7  CB  GLU Q 640      21.026 -38.919  54.291  1.00 10.30 LIG 0.04  C 
BRANCH 7 8
ATOM      8  CG  GLU Q 640      21.971 -39.260  55.455  1.00 11.77 LIG 0.12  C 
BRANCH 8 9
ATOM      9  CD  GLU Q 640      23.163 -40.140  55.053  1.00 13.33 LIG 0.17  C 
ATOM     10 OE2  GLU Q 640      22.983 -41.371  54.955  1.00 13.21 LIG-0.65  OA
ATOM     11 OE1  GLU Q 640      24.279 -39.600  54.844  1.00 12.97 LIG-0.65  OA
ENDBRANCH 8 9
ENDBRANCH 7 8
ENDBRANCH 6 7
BRANCH 6 12
ATOM     12  C   GLU Q 640      20.935 -36.788  55.636  1.00  9.90 LIG 0.24  C 
ATOM     13  N   VAL Q 641      20.027 -36.958  56.605  1.00  8.06 LIG-0.35  N 
ATOM     14 H    VAL Q 641      19.241 -37.277  56.460  1.00  8.06 LIG 0.16  HD
ATOM     15 O    GLU Q 640      21.986 -36.142  55.781  1.00  9.48 LIG-0.27  OA
BRANCH 13 16
ATOM     16  CA  VAL Q 641      20.272 -36.617  58.024  1.00  6.68 LIG 0.18  C 
BRANCH 16 17
ATOM     17  CB  VAL Q 641      18.968 -36.592  58.880  1.00  5.82 LIG 0.01  C 
ATOM     18  CG2 VAL Q 641      18.246 -37.915  58.821  1.00  2.95 LIG 0.01  C 
ATOM     19  CG1 VAL Q 641      18.097 -35.460  58.458  1.00  4.23 LIG 0.01  C 
ENDBRANCH 16 17
BRANCH 16 20
ATOM     20  C   VAL Q 641      21.296 -37.561  58.692  1.00  6.62 LIG 0.24  C 
ATOM     21 O    VAL Q 641      21.339 -38.750  58.397  1.00  7.26 LIG-0.27  OA
ATOM     22  N   ASP Q 642      22.107 -37.022  59.589  1.00  6.11 LIG-0.34  N 
ATOM     23 H    ASP Q 642      22.085 -36.191  59.811  1.00  6.11 LIG 0.16  HD
BRANCH 22 24
ATOM     24  CA  ASP Q 642      23.128 -37.797  60.291  1.00  5.85 LIG 0.20  C 
BRANCH 24 25
ATOM     25  CB  ASP Q 642      24.534 -37.333  59.858  1.00  5.86 LIG 0.15  C 
BRANCH 25 26
ATOM     26  CG  ASP Q 642      24.675 -37.204  58.319  1.00  7.09 LIG 0.17  C 
ATOM     27 OD2  ASP Q 642      24.226 -36.178  57.779  1.00  7.75 LIG-0.65  OA
ATOM     28 OD1  ASP Q 642      25.237 -38.101  57.657  1.00  5.16 LIG-0.65  OA
ENDBRANCH 25 26
ENDBRANCH 24 25
BRANCH 24 29
ATOM     29  C   ASP Q 642      22.961 -37.669  61.818  1.00  5.53 LIG 0.20  C 
ATOM     30 O    ASP Q 642      23.915 -37.846  62.593  1.00  4.89 LIG-0.65  OA
ATOM     31 OXT  ASP Q 642      21.867 -37.350  62.314  1.00  5.08 LIG-0.65  OA
ENDBRANCH 24 29
ENDBRANCH 22 24
ENDBRANCH 16 20
ENDBRANCH 13 16
ENDBRANCH 6 12
ENDBRANCH 4 6
ENDBRANCH 1 2
BRANCH 1 32
ATOM     32  CB  GLU Q 639      20.747 -35.189  49.996  1.00 18.28 LIG 0.04  C 
BRANCH 32 33
ATOM     33  CG  GLU Q 639      20.375 -33.773  49.586  1.00 21.94 LIG 0.12  C 
BRANCH 33 34
ATOM     34  CD  GLU Q 639      20.835 -32.736  50.592  1.00 26.00 LIG 0.17  C 
ATOM     35 OE1  GLU Q 639      19.977 -32.182  51.311  1.00 25.44 LIG-0.65  OA
ATOM     36 OE2  GLU Q 639      22.054 -32.475  50.663  1.00 27.11 LIG-0.65  OA
ENDBRANCH 33 34
ENDBRANCH 32 33
ENDBRANCH 1 32
BRANCH 1 37
ATOM     37  N   GLU Q 639      22.781 -36.014  51.097  1.00 19.24 LIG-0.35  N 
ATOM     38  C   VAL Q 638      23.961 -35.517  51.455  1.00 20.97 LIG 0.24  C 
ATOM     39 O    VAL Q 638      24.089 -34.409  51.979  1.00 20.96 LIG-0.27  OA
ATOM     40 H    GLU Q 639      22.677 -36.786  50.731  1.00 19.24 LIG 0.16  HD
BRANCH 38 41
ATOM     41  CA  VAL Q 638      25.175 -36.399  51.185  1.00 22.03 LIG 0.18  C 
BRANCH 41 42
ATOM     42  CB  VAL Q 638      25.947 -35.836  49.978  1.00 22.63 LIG 0.01  C 
ATOM     43  CG1 VAL Q 638      25.026 -35.001  49.100  1.00 22.21 LIG 0.01  C 
ATOM     44  CG2 VAL Q 638      27.137 -35.014  50.446  1.00 20.65 LIG 0.01  C 
ENDBRANCH 41 42
BRANCH 41 45
ATOM     45  N   VAL Q 638      24.781 -37.786  50.968  1.00 23.53 LIG-0.35  N 
ATOM     46 H    VAL Q 638      24.915 -38.021  50.152  1.00 23.53 LIG 0.16  HD
ATOM     47  C   THR Q 637      24.275 -38.651  51.840  1.00 24.82 LIG 0.24  C 
ATOM     48 O    THR Q 637      23.649 -38.307  52.842  1.00 25.63 LIG-0.27  OA
BRANCH 47 49
ATOM     49  CA  THR Q 637      24.510 -40.128  51.537  1.00 25.03 LIG 0.20  C 
BRANCH 49 50
ATOM     50  CB  THR Q 637      26.037 -40.111  51.735  1.00 24.88 LIG 0.15  C 
ATOM     51  CG2 THR Q 637      26.446 -41.114  52.803  1.00 23.89 LIG 0.04  C 
BRANCH 50 52
ATOM     52 OG1  THR Q 637      26.686 -40.442  50.501  1.00 24.10 LIG-0.39  OA
ATOM     53 HG1  THR Q 637      27.244 -41.055  50.634  1.00 24.10 LIG 0.21  HD
ENDBRANCH 50 52
ENDBRANCH 49 50
BRANCH 49 54
ATOM     54  N   THR Q 637      24.154 -40.049  50.125  1.00 26.29 LIG-0.34  N 
ATOM     55 H    THR Q 637      24.816 -40.149  49.585  1.00 26.29 LIG 0.16  HD
ATOM     56  C   PRO Q 636      22.901 -39.838  49.732  1.00 27.07 LIG 0.25  C 
ATOM     57 O    PRO Q 636      21.962 -39.697  50.514  1.00 27.06 LIG-0.27  OA
BRANCH 56 58
ATOM     58  CA  PRO Q 636      22.658 -39.777  48.228  1.00 27.59 LIG 0.35  C 
ATOM     59  CB  PRO Q 636      23.855 -39.130  47.528  1.00 27.63 LIG 0.05  C 
ATOM     60  CG  PRO Q 636      23.262 -38.404  46.374  1.00 27.91 LIG 0.04  C 
ATOM     61  CD  PRO Q 636      21.926 -37.905  46.846  1.00 28.09 LIG 0.32  C 
ATOM     62  N   PRO Q 636      21.553 -38.875  47.891  1.00 27.47 LIG 0.32  N 
ENDBRANCH 56 58
ENDBRANCH 49 54
ENDBRANCH 47 49
ENDBRANCH 41 45
ENDBRANCH 38 41
ENDBRANCH 1 37
TORSDOF 25
ENDMDL
MODEL 13
USER: ADFR SOLUTION from run 112
USER: SCORE 20.124031 LL:  -4.371 LR: -16.673 RR:   0.000 FEB:  -9.215
USER: RMSD 8.734171
USER: SEED 111
USER: STATUS no improvement in best in 6 clusters for 5 generations
USER: GENES 27
USER: genes 0 Translation |==|  0.57848 0.54199 0.72218
USER: genes 1 Rotation |==|  0.85498 0.56496 0.39994 0.83130
USER: genes 2 Torsion [N]-CA--C-[N] |==|  0.39529
USER: genes 3 Torsion [C]-N--CA-[C] |==|  0.81487
USER: genes 4 Torsion [N]-CA--CB-[CG] |==|  0.83228
USER: genes 5 Torsion [CA]-CB--CG-[CD] |==|  0.26961
USER: genes 6 Torsion [CB]-CG--CD-[OE2] |==|  0.91558
USER: genes 7 Torsion [N]-CA--C-[N] |==|  0.86224
USER: genes 8 Torsion [C]-N--CA-[CB] |==|  0.52260
USER: genes 9 Torsion [N]-CA--CB-[CG1] |==|  0.93580
USER: genes 10 Torsion [N]-CA--C-[N] |==|  0.44374
USER: genes 11 Torsion [C]-N--CA-[CB] |==|  0.23108
USER: genes 12 Torsion [N]-CA--CB-[CG] |==|  0.71052
USER: genes 13 Torsion [CA]-CB--CG-[OD2] |==|  0.28180
USER: genes 14 Torsion [N]-CA--C-[O] |==|  0.39385
USER: genes 15 Torsion [C]-CA--CB-[CG] |==|  0.77857
USER: genes 16 Torsion [CA]-CB--CG-[CD] |==|  0.38585
USER: genes 17 Torsion [CB]-CG--CD-[OE2] |==|  0.16684
USER: genes 18 Torsion [C]-CA--N-[C] |==|  0.80244
USER: genes 19 Torsion [N]-C--CA-[N] |==|  0.97527
USER: genes 20 Torsion [C]-CA--CB-[CG1] |==|  0.50981
USER: genes 21 Torsion [C]-CA--N-[C] |==|  0.81111
USER: genes 22 Torsion [N]-C--CA-[N] |==|  0.97832
USER: genes 23 Torsion [C]-CA--CB-[CG2] |==|  0.35663
USER: genes 24 Torsion [CA]-CB--OG1-[HG1] |==|  0.26092
USER: genes 25 Torsion [C]-CA--N-[C] |==|  0.64042
USER: genes 26 Torsion [N]-C--CA-[CB] |==|  0.12558
ROOT
ATOM      1  CA  GLU Q 639      24.780 -36.938  59.842  1.00 17.71 LIG 0.18  C 
ENDROOT
BRANCH 1 2
ATOM      2  C   GLU Q 639      24.132 -38.133  59.150  1.00 15.36 LIG 0.24  C 
ATOM      3 O    GLU Q 639      24.455 -38.449  58.004  1.00 14.90 LIG-0.27  OA
ATOM      4  N   GLU Q 640      23.218 -38.793  59.852  1.00 12.94 LIG-0.35  N 
ATOM      5 H    GLU Q 640      22.984 -38.583  60.652  1.00 12.94 LIG 0.16  HD
BRANCH 4 6
ATOM      6  CA  GLU Q 640      22.524 -39.953  59.308  1.00 11.11 LIG 0.18  C 
BRANCH 6 7
ATOM      7  CB  GLU Q 640      21.710 -40.616  60.423  1.00 10.30 LIG 0.04  C 
BRANCH 7 8
ATOM      8  CG  GLU Q 640      22.596 -41.094  61.585  1.00 11.77 LIG 0.12  C 
BRANCH 8 9
ATOM      9  CD  GLU Q 640      22.664 -40.111  62.762  1.00 13.33 LIG 0.17  C 
ATOM     10 OE2  GLU Q 640      22.551 -38.891  62.522  1.00 13.21 LIG-0.65  OA
ATOM     11 OE1  GLU Q 640      22.838 -40.558  63.924  1.00 12.97 LIG-0.65  OA
ENDBRANCH 8 9
ENDBRANCH 7 8
ENDBRANCH 6 7
BRANCH 6 12
ATOM     12  C   GLU Q 640      21.618 -39.553  58.139  1.00  9.90 LIG 0.24  C 
ATOM     13  N   VAL Q 641      20.797 -38.517  58.351  1.00  8.06 LIG-0.35  N 
ATOM     14 H    VAL Q 641      20.659 -38.181  59.131  1.00  8.06 LIG 0.16  HD
ATOM     15 O    GLU Q 640      21.672 -40.184  57.071  1.00  9.48 LIG-0.27  OA
BRANCH 13 16
ATOM     16  CA  VAL Q 641      20.040 -37.840  57.275  1.00  6.68 LIG 0.18  C 
BRANCH 16 17
ATOM     17  CB  VAL Q 641      19.318 -36.545  57.757  1.00  5.82 LIG 0.01  C 
ATOM     18  CG2 VAL Q 641      20.074 -35.308  57.342  1.00  2.95 LIG 0.01  C 
ATOM     19  CG1 VAL Q 641      19.097 -36.598  59.230  1.00  4.23 LIG 0.01  C 
ENDBRANCH 16 17
BRANCH 16 20
ATOM     20  C   VAL Q 641      20.922 -37.500  56.053  1.00  6.62 LIG 0.24  C 
ATOM     21 O    VAL Q 641      22.141 -37.435  56.158  1.00  7.26 LIG-0.27  OA
ATOM     22  N   ASP Q 642      20.296 -37.285  54.907  1.00  6.11 LIG-0.34  N 
ATOM     23 H    ASP Q 642      19.441 -37.321  54.818  1.00  6.11 LIG 0.16  HD
BRANCH 22 24
ATOM     24  CA  ASP Q 642      21.007 -36.963  53.672  1.00  5.85 LIG 0.20  C 
BRANCH 24 25
ATOM     25  CB  ASP Q 642      21.505 -38.257  52.996  1.00  5.86 LIG 0.15  C 
BRANCH 25 26
ATOM     26  CG  ASP Q 642      23.027 -38.483  53.182  1.00  7.09 LIG 0.17  C 
ATOM     27 OD2  ASP Q 642      23.392 -39.301  54.045  1.00  7.75 LIG-0.65  OA
ATOM     28 OD1  ASP Q 642      23.850 -37.870  52.471  1.00  5.16 LIG-0.65  OA
ENDBRANCH 25 26
ENDBRANCH 24 25
BRANCH 24 29
ATOM     29  C   ASP Q 642      20.105 -36.162  52.711  1.00  5.53 LIG 0.20  C 
ATOM     30 O    ASP Q 642      20.555 -35.234  52.019  1.00  4.89 LIG-0.65  OA
ATOM     31 OXT  ASP Q 642      18.903 -36.450  52.580  1.00  5.08 LIG-0.65  OA
ENDBRANCH 24 29
ENDBRANCH 22 24
ENDBRANCH 16 20
ENDBRANCH 13 16
ENDBRANCH 6 12
ENDBRANCH 4 6
ENDBRANCH 1 2
BRANCH 1 32
ATOM     32  CB  GLU Q 639      24.050 -35.649  59.457  1.00 18.28 LIG 0.04  C 
BRANCH 32 33
ATOM     33  CG  GLU Q 639      24.441 -35.097  58.096  1.00 21.94 LIG 0.12  C 
BRANCH 33 34
ATOM     34  CD  GLU Q 639      23.250 -34.579  57.313  1.00 26.00 LIG 0.17  C 
ATOM     35 OE1  GLU Q 639      22.992 -35.100  56.208  1.00 25.44 LIG-0.65  OA
ATOM     36 OE2  GLU Q 639      22.572 -33.651  57.803  1.00 27.11 LIG-0.65  OA
ENDBRANCH 33 34
ENDBRANCH 32 33
ENDBRANCH 1 32
BRANCH 1 37
ATOM     37  N   GLU Q 639      26.196 -36.842  59.511  1.00 19.24 LIG-0.35  N 
ATOM     38  C   VAL Q 638      27.084 -37.710  59.983  1.00 20.97 LIG 0.24  C 
ATOM     39 O    VAL Q 638      26.778 -38.646  60.723  1.00 20.96 LIG-0.27  OA
ATOM     40 H    GLU Q 639      26.395 -36.185  58.992  1.00 19.24 LIG 0.16  HD
BRANCH 38 41
ATOM     41  CA  VAL Q 638      28.532 -37.493  59.556  1.00 22.03 LIG 0.18  C 
BRANCH 41 42
ATOM     42  CB  VAL Q 638      29.373 -37.128  60.793  1.00 22.63 LIG 0.01  C 
ATOM     43  CG1 VAL Q 638      30.806 -36.819  60.389  1.00 22.21 LIG 0.01  C 
ATOM     44  CG2 VAL Q 638      28.753 -35.949  61.527  1.00 20.65 LIG 0.01  C 
ENDBRANCH 41 42
BRANCH 41 45
ATOM     45  N   VAL Q 638      28.629 -36.468  58.524  1.00 23.53 LIG-0.35  N 
ATOM     46 H    VAL Q 638      29.024 -35.765  58.822  1.00 23.53 LIG 0.16  HD
ATOM     47  C   THR Q 637      28.200 -36.512  57.267  1.00 24.82 LIG 0.24  C 
ATOM     48 O    THR Q 637      27.272 -37.233  56.900  1.00 25.63 LIG-0.27  OA
BRANCH 47 49
ATOM     49  CA  THR Q 637      28.925 -35.607  56.276  1.00 25.03 LIG 0.20  C 
BRANCH 49 50
ATOM     50  CB  THR Q 637      29.740 -36.715  55.584  1.00 24.88 LIG 0.15  C 
ATOM     51  CG2 THR Q 637      29.565 -36.641  54.074  1.00 23.89 LIG 0.04  C 
BRANCH 50 52
ATOM     52 OG1  THR Q 637      31.128 -36.565  55.908  1.00 24.10 LIG-0.39  OA
ATOM     53 HG1  THR Q 637      31.314 -37.045  56.572  1.00 24.10 LIG 0.21  HD
ENDBRANCH 50 52
ENDBRANCH 49 50
BRANCH 49 54
ATOM     54  N   THR Q 637      29.721 -34.902  57.273  1.00 26.29 LIG-0.34  N 
ATOM     55 H    THR Q 637      30.143 -35.415  57.819  1.00 26.29 LIG 0.16  HD
ATOM     56  C   PRO Q 636      29.773 -33.574  57.312  1.00 27.07 LIG 0.25  C 
ATOM     57 O    PRO Q 636      29.165 -32.850  56.525  1.00 27.06 LIG-0.27  OA
BRANCH 56 58
ATOM     58  CA  PRO Q 636      30.642 -32.956  58.403  1.00 27.59 LIG 0.35  C 
ATOM     59  CB  PRO Q 636      31.987 -33.680  58.478  1.00 27.63 LIG 0.05  C 
ATOM     60  CG  PRO Q 636      32.358 -33.627  59.916  1.00 27.91 LIG 0.04  C 
ATOM     61  CD  PRO Q 636      31.066 -33.727  60.677  1.00 28.09 LIG 0.32  C 
ATOM     62  N   PRO Q 636      30.076 -33.172  59.738  1.00 27.47 LIG 0.32  N 
ENDBRANCH 56 58
ENDBRANCH 49 54
ENDBRANCH 47 49
ENDBRANCH 41 45
ENDBRANCH 38 41
ENDBRANCH 1 37
TORSDOF 25
ENDMDL
MODEL 14
USER: ADFR SOLUTION from run 132
USER: SCORE 20.432677 LL:  -4.088 LR: -16.550 RR:   0.000 FEB:  -9.092
USER: RMSD 7.800840
USER: SEED 131
USER: STATUS no improvement in best in 3 clusters for 5 generations
USER: GENES 27
USER: genes 0 Translation |==|  0.37227 0.51899 0.52243
USER: genes 1 Rotation |==|  0.30527 0.60290 0.14222 0.77108
USER: genes 2 Torsion [N]-CA--C-[N] |==|  0.92542
USER: genes 3 Torsion [C]-N--CA-[C] |==|  0.82678
USER: genes 4 Torsion [N]-CA--CB-[CG] |==|  0.32269
USER: genes 5 Torsion [CA]-CB--CG-[CD] |==|  0.28929
USER: genes 6 Torsion [CB]-CG--CD-[OE2] |==|  0.01678
USER: genes 7 Torsion [N]-CA--C-[N] |==|  0.41815
USER: genes 8 Torsion [C]-N--CA-[CB] |==|  0.82200
USER: genes 9 Torsion [N]-CA--CB-[CG1] |==|  0.33595
USER: genes 10 Torsion [N]-CA--C-[N] |==|  0.40180
USER: genes 11 Torsion [C]-N--CA-[CB] |==|  0.50108
USER: genes 12 Torsion [N]-CA--CB-[CG] |==|  0.59437
USER: genes 13 Torsion [CA]-CB--CG-[OD2] |==|  0.53408
USER: genes 14 Torsion [N]-CA--C-[O] |==|  0.82293
USER: genes 15 Torsion [C]-CA--CB-[CG] |==|  0.42394
USER: genes 16 Torsion [CA]-CB--CG-[CD] |==|  0.82420
USER: genes 17 Torsion [CB]-CG--CD-[OE2] |==|  0.70161
USER: genes 18 Torsion [C]-CA--N-[C] |==|  0.78764
USER: genes 19 Torsion [N]-C--CA-[N] |==|  0.03771
USER: genes 20 Torsion [C]-CA--CB-[CG1] |==|  0.42645
USER: genes 21 Torsion [C]-CA--N-[C] |==|  0.72947
USER: genes 22 Torsion [N]-C--CA-[N] |==|  0.44763
USER: genes 23 Torsion [C]-CA--CB-[CG2] |==|  0.48316
USER: genes 24 Torsion [CA]-CB--OG1-[HG1] |==|  0.75377
USER: genes 25 Torsion [C]-CA--N-[C] |==|  0.77700
USER: genes 26 Torsion [N]-C--CA-[CB] |==|  0.89485
ROOT
ATOM      1  CA  GLU Q 639      21.068 -37.369  54.898  1.00 17.71 LIG 0.18  C 
ENDROOT
BRANCH 1 2
ATOM      2  C   GLU Q 639      21.598 -36.791  56.207  1.00 15.36 LIG 0.24  C 
ATOM      3 O    GLU Q 639      22.231 -35.736  56.220  1.00 14.90 LIG-0.27  OA
ATOM      4  N   GLU Q 640      21.335 -37.491  57.305  1.00 12.94 LIG-0.35  N 
ATOM      5 H    GLU Q 640      20.894 -38.229  57.310  1.00 12.94 LIG 0.16  HD
BRANCH 4 6
ATOM      6  CA  GLU Q 640      21.784 -37.050  58.620  1.00 11.11 LIG 0.18  C 
BRANCH 6 7
ATOM      7  CB  GLU Q 640      21.228 -38.004  59.682  1.00 10.30 LIG 0.04  C 
BRANCH 7 8
ATOM      8  CG  GLU Q 640      22.341 -38.762  60.424  1.00 11.77 LIG 0.12  C 
BRANCH 8 9
ATOM      9  CD  GLU Q 640      22.617 -38.236  61.839  1.00 13.33 LIG 0.17  C 
ATOM     10 OE2  GLU Q 640      21.867 -37.350  62.299  1.00 13.21 LIG-0.65  OA
ATOM     11 OE1  GLU Q 640      23.588 -38.703  62.488  1.00 12.97 LIG-0.65  OA
ENDBRANCH 8 9
ENDBRANCH 7 8
ENDBRANCH 6 7
BRANCH 6 12
ATOM     12  C   GLU Q 640      23.313 -36.995  58.688  1.00  9.90 LIG 0.24  C 
ATOM     13  N   VAL Q 641      23.839 -36.088  59.523  1.00  8.06 LIG-0.35  N 
ATOM     14 H    VAL Q 641      23.374 -35.466  59.891  1.00  8.06 LIG 0.16  HD
ATOM     15 O    GLU Q 640      23.992 -37.764  57.988  1.00  9.48 LIG-0.27  OA
BRANCH 13 16
ATOM     16  CA  VAL Q 641      25.269 -36.059  59.901  1.00  6.68 LIG 0.18  C 
BRANCH 16 17
ATOM     17  CB  VAL Q 641      25.716 -37.324  60.696  1.00  5.82 LIG 0.01  C 
ATOM     18  CG2 VAL Q 641      26.102 -36.977  62.111  1.00  2.95 LIG 0.01  C 
ATOM     19  CG1 VAL Q 641      26.815 -38.024  59.972  1.00  4.23 LIG 0.01  C 
ENDBRANCH 16 17
BRANCH 16 20
ATOM     20  C   VAL Q 641      26.201 -35.873  58.684  1.00  6.62 LIG 0.24  C 
ATOM     21 O    VAL Q 641      25.929 -36.379  57.602  1.00  7.26 LIG-0.27  OA
ATOM     22  N   ASP Q 642      27.294 -35.150  58.875  1.00  6.11 LIG-0.34  N 
ATOM     23 H    ASP Q 642      27.502 -34.793  59.630  1.00  6.11 LIG 0.16  HD
BRANCH 22 24
ATOM     24  CA  ASP Q 642      28.258 -34.887  57.808  1.00  5.85 LIG 0.20  C 
BRANCH 24 25
ATOM     25  CB  ASP Q 642      29.420 -34.028  58.347  1.00  5.86 LIG 0.15  C 
BRANCH 25 26
ATOM     26  CG  ASP Q 642      29.980 -33.044  57.288  1.00  7.09 LIG 0.17  C 
ATOM     27 OD2  ASP Q 642      31.057 -32.475  57.536  1.00  7.75 LIG-0.65  OA
ATOM     28 OD1  ASP Q 642      29.367 -32.850  56.218  1.00  5.16 LIG-0.65  OA
ENDBRANCH 25 26
ENDBRANCH 24 25
BRANCH 24 29
ATOM     29  C   ASP Q 642      28.789 -36.206  57.212  1.00  5.53 LIG 0.20  C 
ATOM     30 O    ASP Q 642      29.449 -37.007  57.894  1.00  4.89 LIG-0.65  OA
ATOM     31 OXT  ASP Q 642      28.541 -36.517  56.035  1.00  5.08 LIG-0.65  OA
ENDBRANCH 24 29
ENDBRANCH 22 24
ENDBRANCH 16 20
ENDBRANCH 13 16
ENDBRANCH 6 12
ENDBRANCH 4 6
ENDBRANCH 1 2
BRANCH 1 32
ATOM     32  CB  GLU Q 639      19.725 -36.725  54.545  1.00 18.28 LIG 0.04  C 
BRANCH 32 33
ATOM     33  CG  GLU Q 639      19.425 -36.693  53.055  1.00 21.94 LIG 0.12  C 
BRANCH 33 34
ATOM     34  CD  GLU Q 639      20.417 -35.850  52.279  1.00 26.00 LIG 0.17  C 
ATOM     35 OE1  GLU Q 639      21.573 -36.293  52.111  1.00 25.44 LIG-0.65  OA
ATOM     36 OE2  GLU Q 639      20.041 -34.745  51.835  1.00 27.11 LIG-0.65  OA
ENDBRANCH 33 34
ENDBRANCH 32 33
ENDBRANCH 1 32
BRANCH 1 37
ATOM     37  N   GLU Q 639      20.934 -38.818  54.979  1.00 19.24 LIG-0.35  N 
ATOM     38  C   VAL Q 638      21.989 -39.623  54.901  1.00 20.97 LIG 0.24  C 
ATOM     39 O    VAL Q 638      23.140 -39.207  54.758  1.00 20.96 LIG-0.27  OA
ATOM     40 H    GLU Q 639      20.126 -39.095  55.080  1.00 19.24 LIG 0.16  HD
BRANCH 38 41
ATOM     41  CA  VAL Q 638      21.705 -41.118  55.002  1.00 22.03 LIG 0.18  C 
BRANCH 41 42
ATOM     42  CB  VAL Q 638      22.542 -41.861  53.945  1.00 22.63 LIG 0.01  C 
ATOM     43  CG1 VAL Q 638      22.814 -43.290  54.391  1.00 22.21 LIG 0.01  C 
ATOM     44  CG2 VAL Q 638      21.835 -41.842  52.599  1.00 20.65 LIG 0.01  C 
ENDBRANCH 41 42
BRANCH 41 45
ATOM     45  N   VAL Q 638      20.283 -41.396  54.848  1.00 23.53 LIG-0.35  N 
ATOM     46 H    VAL Q 638      20.061 -41.425  54.018  1.00 23.53 LIG 0.16  HD
ATOM     47  C   THR Q 637      19.368 -41.592  55.793  1.00 24.82 LIG 0.24  C 
ATOM     48 O    THR Q 637      19.473 -41.140  56.932  1.00 25.63 LIG-0.27  OA
BRANCH 47 49
ATOM     49  CA  THR Q 637      18.154 -42.423  55.391  1.00 25.03 LIG 0.20  C 
BRANCH 49 50
ATOM     50  CB  THR Q 637      17.323 -41.261  54.816  1.00 24.88 LIG 0.15  C 
ATOM     51  CG2 THR Q 637      16.051 -41.786  54.167  1.00 23.89 LIG 0.04  C 
BRANCH 50 52
ATOM     52 OG1  THR Q 637      16.979 -40.350  55.867  1.00 24.10 LIG-0.39  OA
ATOM     53 HG1  THR Q 637      16.256 -40.591  56.220  1.00 24.10 LIG 0.21  HD
ENDBRANCH 50 52
ENDBRANCH 49 50
BRANCH 49 54
ATOM     54  N   THR Q 637      17.742 -42.753  56.750  1.00 26.29 LIG-0.34  N 
ATOM     55 H    THR Q 637      17.099 -42.269  57.054  1.00 26.29 LIG 0.16  HD
ATOM     56  C   PRO Q 636      18.328 -43.727  57.439  1.00 27.07 LIG 0.25  C 
ATOM     57 O    PRO Q 636      19.247 -44.413  56.993  1.00 27.06 LIG-0.27  OA
BRANCH 56 58
ATOM     58  CA  PRO Q 636      17.806 -43.974  58.851  1.00 27.59 LIG 0.35  C 
ATOM     59  CB  PRO Q 636      17.458 -42.645  59.523  1.00 27.63 LIG 0.05  C 
ATOM     60  CG  PRO Q 636      17.763 -42.865  60.961  1.00 27.91 LIG 0.04  C 
ATOM     61  CD  PRO Q 636      18.957 -43.777  60.992  1.00 28.09 LIG 0.32  C 
ATOM     62  N   PRO Q 636      18.845 -44.524  59.727  1.00 27.47 LIG 0.32  N 
ENDBRANCH 56 58
ENDBRANCH 49 54
ENDBRANCH 47 49
ENDBRANCH 41 45
ENDBRANCH 38 41
ENDBRANCH 1 37
TORSDOF 25
ENDMDL
MODEL 15
USER: ADFR SOLUTION from run 84
USER: SCORE 19.308983 LL:  -3.592 LR: -16.413 RR:   0.000 FEB:  -8.956
USER: RMSD 7.389804
USER: SEED 83
USER: STATUS searching
USER: GENES 27
USER: genes 0 Translation |==|  0.35782 0.47304 0.52698
USER: genes 1 Rotation |==|  0.28845 0.62668 0.76555 0.84451
USER: genes 2 Torsion [N]-CA--C-[N] |==|  0.49999
USER: genes 3 Torsion [C]-N--CA-[C] |==|  0.79137
USER: genes 4 Torsion [N]-CA--CB-[CG] |==|  0.25167
USER: genes 5 Torsion [CA]-CB--CG-[CD] |==|  0.33956
USER: genes 6 Torsion [CB]-CG--CD-[OE2] |==|  0.07998
USER: genes 7 Torsion [N]-CA--C-[N] |==|  0.47623
USER: genes 8 Torsion [C]-N--CA-[CB] |==|  0.82241
USER: genes 9 Torsion [N]-CA--CB-[CG1] |==|  0.26490
USER: genes 10 Torsion [N]-CA--C-[N] |==|  0.40551
USER: genes 11 Torsion [C]-N--CA-[CB] |==|  0.50144
USER: genes 12 Torsion [N]-CA--CB-[CG] |==|  0.64400
USER: genes 13 Torsion [CA]-CB--CG-[OD2] |==|  0.00477
USER: genes 14 Torsion [N]-CA--C-[O] |==|  0.82072
USER: genes 15 Torsion [C]-CA--CB-[CG] |==|  0.67034
USER: genes 16 Torsion [CA]-CB--CG-[CD] |==|  0.25553
USER: genes 17 Torsion [CB]-CG--CD-[OE2] |==|  0.17862
USER: genes 18 Torsion [C]-CA--N-[C] |==|  0.79963
USER: genes 19 Torsion [N]-C--CA-[N] |==|  0.45899
USER: genes 20 Torsion [C]-CA--CB-[CG1] |==|  0.14064
USER: genes 21 Torsion [C]-CA--N-[C] |==|  0.54664
USER: genes 22 Torsion [N]-C--CA-[N] |==|  0.32279
USER: genes 23 Torsion [C]-CA--CB-[CG2] |==|  0.37681
USER: genes 24 Torsion [CA]-CB--OG1-[HG1] |==|  0.69111
USER: genes 25 Torsion [C]-CA--N-[C] |==|  0.77311
USER: genes 26 Torsion [N]-C--CA-[CB] |==|  0.88872
ROOT
ATOM      1  CA  GLU Q 639      20.808 -38.230  55.011  1.00 17.71 LIG 0.18  C 
ENDROOT
BRANCH 1 2
ATOM      2  C   GLU Q 639      21.387 -37.279  56.052  1.00 15.36 LIG 0.24  C 
ATOM      3 O    GLU Q 639      21.890 -36.206  55.716  1.00 14.90 LIG-0.27  OA
ATOM      4  N   GLU Q 640      21.314 -37.678  57.317  1.00 12.94 LIG-0.35  N 
ATOM      5 H    GLU Q 640      20.966 -38.424  57.565  1.00 12.94 LIG 0.16  HD
BRANCH 4 6
ATOM      6  CA  GLU Q 640      21.830 -36.863  58.410  1.00 11.11 LIG 0.18  C 
BRANCH 6 7
ATOM      7  CB  GLU Q 640      21.229 -37.359  59.729  1.00 10.30 LIG 0.04  C 
BRANCH 7 8
ATOM      8  CG  GLU Q 640      22.098 -38.439  60.395  1.00 11.77 LIG 0.12  C 
BRANCH 8 9
ATOM      9  CD  GLU Q 640      22.555 -38.081  61.816  1.00 13.33 LIG 0.17  C 
ATOM     10 OE2  GLU Q 640      21.828 -37.332  62.501  1.00 13.21 LIG-0.65  OA
ATOM     11 OE1  GLU Q 640      23.643 -38.543  62.244  1.00 12.97 LIG-0.65  OA
ENDBRANCH 8 9
ENDBRANCH 7 8
ENDBRANCH 6 7
BRANCH 6 12
ATOM     12  C   GLU Q 640      23.360 -36.914  58.457  1.00  9.90 LIG 0.24  C 
ATOM     13  N   VAL Q 641      23.957 -36.067  59.305  1.00  8.06 LIG-0.35  N 
ATOM     14 H    VAL Q 641      23.541 -35.423  59.695  1.00  8.06 LIG 0.16  HD
ATOM     15 O    GLU Q 640      23.975 -37.710  57.730  1.00  9.48 LIG-0.27  OA
BRANCH 13 16
ATOM     16  CA  VAL Q 641      25.391 -36.145  59.665  1.00  6.68 LIG 0.18  C 
BRANCH 16 17
ATOM     17  CB  VAL Q 641      25.760 -37.458  60.419  1.00  5.82 LIG 0.01  C 
ATOM     18  CG2 VAL Q 641      26.732 -37.193  61.541  1.00  2.95 LIG 0.01  C 
ATOM     19  CG1 VAL Q 641      26.278 -38.474  59.460  1.00  4.23 LIG 0.01  C 
ENDBRANCH 16 17
BRANCH 16 20
ATOM     20  C   VAL Q 641      26.318 -35.989  58.439  1.00  6.62 LIG 0.24  C 
ATOM     21 O    VAL Q 641      25.988 -36.425  57.343  1.00  7.26 LIG-0.27  OA
ATOM     22  N   ASP Q 642      27.472 -35.371  58.640  1.00  6.11 LIG-0.34  N 
ATOM     23 H    ASP Q 642      27.721 -35.066  59.404  1.00  6.11 LIG 0.16  HD
BRANCH 22 24
ATOM     24  CA  ASP Q 642      28.440 -35.149  57.568  1.00  5.85 LIG 0.20  C 
BRANCH 24 25
ATOM     25  CB  ASP Q 642      29.681 -34.419  58.121  1.00  5.86 LIG 0.15  C 
BRANCH 25 26
ATOM     26  CG  ASP Q 642      30.047 -33.154  57.302  1.00  7.09 LIG 0.17  C 
ATOM     27 OD2  ASP Q 642      29.314 -32.850  56.345  1.00  7.75 LIG-0.65  OA
ATOM     28 OD1  ASP Q 642      31.038 -32.463  57.614  1.00  5.16 LIG-0.65  OA
ENDBRANCH 25 26
ENDBRANCH 24 25
BRANCH 24 29
ATOM     29  C   ASP Q 642      28.845 -36.483  56.908  1.00  5.53 LIG 0.20  C 
ATOM     30 O    ASP Q 642      29.453 -37.361  57.540  1.00  4.89 LIG-0.65  OA
ATOM     31 OXT  ASP Q 642      28.540 -36.727  55.728  1.00  5.08 LIG-0.65  OA
ENDBRANCH 24 29
ENDBRANCH 22 24
ENDBRANCH 16 20
ENDBRANCH 13 16
ENDBRANCH 6 12
ENDBRANCH 4 6
ENDBRANCH 1 2
BRANCH 1 32
ATOM     32  CB  GLU Q 639      21.491 -39.596  55.109  1.00 18.28 LIG 0.04  C 
BRANCH 32 33
ATOM     33  CG  GLU Q 639      22.232 -40.012  53.849  1.00 21.94 LIG 0.12  C 
BRANCH 33 34
ATOM     34  CD  GLU Q 639      23.691 -39.597  53.867  1.00 26.00 LIG 0.17  C 
ATOM     35 OE1  GLU Q 639      24.084 -38.768  53.020  1.00 25.44 LIG-0.65  OA
ATOM     36 OE2  GLU Q 639      24.443 -40.099  54.728  1.00 27.11 LIG-0.65  OA
ENDBRANCH 33 34
ENDBRANCH 32 33
ENDBRANCH 1 32
BRANCH 1 37
ATOM     37  N   GLU Q 639      20.946 -37.686  53.666  1.00 19.24 LIG-0.35  N 
ATOM     38  C   VAL Q 638      20.207 -36.663  53.247  1.00 20.97 LIG 0.24  C 
ATOM     39 O    VAL Q 638      19.365 -36.110  53.956  1.00 20.96 LIG-0.27  OA
ATOM     40 H    GLU Q 639      21.538 -38.080  53.182  1.00 19.24 LIG 0.16  HD
BRANCH 38 41
ATOM     41  CA  VAL Q 638      20.455 -36.193  51.818  1.00 22.03 LIG 0.18  C 
BRANCH 41 42
ATOM     42  CB  VAL Q 638      21.821 -35.486  51.750  1.00 22.63 LIG 0.01  C 
ATOM     43  CG1 VAL Q 638      22.900 -36.355  52.379  1.00 22.21 LIG 0.01  C 
ATOM     44  CG2 VAL Q 638      22.172 -35.148  50.310  1.00 20.65 LIG 0.01  C 
ENDBRANCH 41 42
BRANCH 41 45
ATOM     45  N   VAL Q 638      19.380 -35.324  51.354  1.00 23.53 LIG-0.35  N 
ATOM     46 H    VAL Q 638      18.913 -35.031  52.014  1.00 23.53 LIG 0.16  HD
ATOM     47  C   THR Q 637      19.078 -34.969  50.110  1.00 24.82 LIG 0.24  C 
ATOM     48 O    THR Q 637      19.366 -35.653  49.128  1.00 25.63 LIG-0.27  OA
BRANCH 47 49
ATOM     49  CA  THR Q 637      18.338 -33.645  49.949  1.00 25.03 LIG 0.20  C 
BRANCH 49 50
ATOM     50  CB  THR Q 637      17.230 -34.170  49.017  1.00 24.88 LIG 0.15  C 
ATOM     51  CG2 THR Q 637      15.872 -33.638  49.452  1.00 23.89 LIG 0.04  C 
BRANCH 50 52
ATOM     52 OG1  THR Q 637      17.494 -33.752  47.672  1.00 24.10 LIG-0.39  OA
ATOM     53 HG1  THR Q 637      16.919 -33.187  47.436  1.00 24.10 LIG 0.21  HD
ENDBRANCH 50 52
ENDBRANCH 49 50
BRANCH 49 54
ATOM     54  N   THR Q 637      19.393 -32.974  49.199  1.00 26.29 LIG-0.34  N 
ATOM     55 H    THR Q 637      19.277 -32.971  48.347  1.00 26.29 LIG 0.16  HD
ATOM     56  C   PRO Q 636      20.438 -32.422  49.807  1.00 27.07 LIG 0.25  C 
ATOM     57 O    PRO Q 636      20.594 -32.432  51.027  1.00 27.06 LIG-0.27  OA
BRANCH 56 58
ATOM     58  CA  PRO Q 636      21.474 -31.750  48.911  1.00 27.59 LIG 0.35  C 
ATOM     59  CB  PRO Q 636      21.699 -32.586  47.650  1.00 27.63 LIG 0.05  C 
ATOM     60  CG  PRO Q 636      23.132 -32.375  47.316  1.00 27.91 LIG 0.04  C 
ATOM     61  CD  PRO Q 636      23.845 -32.246  48.633  1.00 28.09 LIG 0.32  C 
ATOM     62  N   PRO Q 636      22.801 -31.728  49.534  1.00 27.47 LIG 0.32  N 
ENDBRANCH 56 58
ENDBRANCH 49 54
ENDBRANCH 47 49
ENDBRANCH 41 45
ENDBRANCH 38 41
ENDBRANCH 1 37
TORSDOF 25
ENDMDL
MODEL 16
USER: ADFR SOLUTION from run 173
USER: SCORE 21.454577 LL:  -6.426 LR: -16.357 RR:   0.000 FEB:  -8.899
USER: RMSD 2.470494
USER: SEED 172
USER: STATUS no improvement in best in 11 clusters for 5 generations
USER: GENES 27
USER: genes 0 Translation |==|  0.38626 0.62935 0.37784
USER: genes 1 Rotation |==|  0.54721 0.50022 0.30477 0.95788
USER: genes 2 Torsion [N]-CA--C-[N] |==|  0.03708
USER: genes 3 Torsion [C]-N--CA-[C] |==|  0.73400
USER: genes 4 Torsion [N]-CA--CB-[CG] |==|  0.30517
USER: genes 5 Torsion [CA]-CB--CG-[CD] |==|  0.62116
USER: genes 6 Torsion [CB]-CG--CD-[OE2] |==|  0.78888
USER: genes 7 Torsion [N]-CA--C-[N] |==|  0.42603
USER: genes 8 Torsion [C]-N--CA-[CB] |==|  0.46012
USER: genes 9 Torsion [N]-CA--CB-[CG1] |==|  0.80856
USER: genes 10 Torsion [N]-CA--C-[N] |==|  0.40556
USER: genes 11 Torsion [C]-N--CA-[CB] |==|  0.31444
USER: genes 12 Torsion [N]-CA--CB-[CG] |==|  0.86975
USER: genes 13 Torsion [CA]-CB--CG-[OD2] |==|  0.22265
USER: genes 14 Torsion [N]-CA--C-[O] |==|  0.05895
USER: genes 15 Torsion [C]-CA--CB-[CG] |==|  0.30634
USER: genes 16 Torsion [CA]-CB--CG-[CD] |==|  0.97465
USER: genes 17 Torsion [CB]-CG--CD-[OE2] |==|  0.28527
USER: genes 18 Torsion [C]-CA--N-[C] |==|  0.71868
USER: genes 19 Torsion [N]-C--CA-[N] |==|  0.92912
USER: genes 20 Torsion [C]-CA--CB-[CG1] |==|  0.99015
USER: genes 21 Torsion [C]-CA--N-[C] |==|  0.80122
USER: genes 22 Torsion [N]-C--CA-[N] |==|  0.33910
USER: genes 23 Torsion [C]-CA--CB-[CG2] |==|  0.15380
USER: genes 24 Torsion [CA]-CB--OG1-[HG1] |==|  0.27820
USER: genes 25 Torsion [C]-CA--N-[C] |==|  0.80275
USER: genes 26 Torsion [N]-C--CA-[CB] |==|  0.04410
ROOT
ATOM      1  CA  GLU Q 639      21.320 -35.300  51.319  1.00 17.71 LIG 0.18  C 
ENDROOT
BRANCH 1 2
ATOM      2  C   GLU Q 639      20.541 -35.950  52.458  1.00 15.36 LIG 0.24  C 
ATOM      3 O    GLU Q 639      19.373 -35.634  52.685  1.00 14.90 LIG-0.27  OA
ATOM      4  N   GLU Q 640      21.196 -36.860  53.172  1.00 12.94 LIG-0.35  N 
ATOM      5 H    GLU Q 640      22.011 -37.089  53.024  1.00 12.94 LIG 0.16  HD
BRANCH 4 6
ATOM      6  CA  GLU Q 640      20.568 -37.556  54.287  1.00 11.11 LIG 0.18  C 
BRANCH 6 7
ATOM      7  CB  GLU Q 640      21.038 -39.014  54.293  1.00 10.30 LIG 0.04  C 
BRANCH 7 8
ATOM      8  CG  GLU Q 640      21.974 -39.319  55.475  1.00 11.77 LIG 0.12  C 
BRANCH 8 9
ATOM      9  CD  GLU Q 640      23.200 -40.161  55.096  1.00 13.33 LIG 0.17  C 
ATOM     10 OE2  GLU Q 640      23.043 -41.383  54.902  1.00 13.21 LIG-0.65  OA
ATOM     11 OE1  GLU Q 640      24.322 -39.600  55.001  1.00 12.97 LIG-0.65  OA
ENDBRANCH 8 9
ENDBRANCH 7 8
ENDBRANCH 6 7
BRANCH 6 12
ATOM     12  C   GLU Q 640      20.900 -36.873  55.618  1.00  9.90 LIG 0.24  C 
ATOM     13  N   VAL Q 641      20.008 -37.030  56.605  1.00  8.06 LIG-0.35  N 
ATOM     14 H    VAL Q 641      19.223 -37.358  56.480  1.00  8.06 LIG 0.16  HD
ATOM     15 O    GLU Q 640      21.947 -36.217  55.732  1.00  9.48 LIG-0.27  OA
BRANCH 13 16
ATOM     16  CA  VAL Q 641      20.274 -36.658  58.013  1.00  6.68 LIG 0.18  C 
BRANCH 16 17
ATOM     17  CB  VAL Q 641      18.982 -36.604  58.885  1.00  5.82 LIG 0.01  C 
ATOM     18  CG2 VAL Q 641      18.233 -37.912  58.840  1.00  2.95 LIG 0.01  C 
ATOM     19  CG1 VAL Q 641      18.129 -35.456  58.468  1.00  4.23 LIG 0.01  C 
ENDBRANCH 16 17
BRANCH 16 20
ATOM     20  C   VAL Q 641      21.300 -37.595  58.689  1.00  6.62 LIG 0.24  C 
ATOM     21 O    VAL Q 641      21.348 -38.785  58.402  1.00  7.26 LIG-0.27  OA
ATOM     22  N   ASP Q 642      22.107 -37.047  59.584  1.00  6.11 LIG-0.34  N 
ATOM     23 H    ASP Q 642      22.082 -36.215  59.801  1.00  6.11 LIG 0.16  HD
BRANCH 22 24
ATOM     24  CA  ASP Q 642      23.129 -37.814  60.293  1.00  5.85 LIG 0.20  C 
BRANCH 24 25
ATOM     25  CB  ASP Q 642      24.534 -37.341  59.868  1.00  5.86 LIG 0.15  C 
BRANCH 25 26
ATOM     26  CG  ASP Q 642      24.682 -37.208  58.330  1.00  7.09 LIG 0.17  C 
ATOM     27 OD2  ASP Q 642      24.230 -36.183  57.791  1.00  7.75 LIG-0.65  OA
ATOM     28 OD1  ASP Q 642      25.252 -38.100  57.669  1.00  5.16 LIG-0.65  OA
ENDBRANCH 25 26
ENDBRANCH 24 25
BRANCH 24 29
ATOM     29  C   ASP Q 642      22.952 -37.684  61.820  1.00  5.53 LIG 0.20  C 
ATOM     30 O    ASP Q 642      21.867 -37.350  62.322  1.00  4.89 LIG-0.65  OA
ATOM     31 OXT  ASP Q 642      23.890 -37.945  62.593  1.00  5.08 LIG-0.65  OA
ENDBRANCH 24 29
ENDBRANCH 22 24
ENDBRANCH 16 20
ENDBRANCH 13 16
ENDBRANCH 6 12
ENDBRANCH 4 6
ENDBRANCH 1 2
BRANCH 1 32
ATOM     32  CB  GLU Q 639      20.445 -35.215  50.066  1.00 18.28 LIG 0.04  C 
BRANCH 32 33
ATOM     33  CG  GLU Q 639      20.026 -33.801  49.696  1.00 21.94 LIG 0.12  C 
BRANCH 33 34
ATOM     34  CD  GLU Q 639      20.378 -32.790  50.769  1.00 26.00 LIG 0.17  C 
ATOM     35 OE1  GLU Q 639      19.660 -32.730  51.789  1.00 25.44 LIG-0.65  OA
ATOM     36 OE2  GLU Q 639      21.372 -32.055  50.593  1.00 27.11 LIG-0.65  OA
ENDBRANCH 33 34
ENDBRANCH 32 33
ENDBRANCH 1 32
BRANCH 1 37
ATOM     37  N   GLU Q 639      22.548 -36.031  51.037  1.00 19.24 LIG-0.35  N 
ATOM     38  C   VAL Q 638      23.730 -35.608  51.474  1.00 20.97 LIG 0.24  C 
ATOM     39 O    VAL Q 638      23.870 -34.581  52.139  1.00 20.96 LIG-0.27  OA
ATOM     40 H    GLU Q 639      22.436 -36.747  50.572  1.00 19.24 LIG 0.16  HD
BRANCH 38 41
ATOM     41  CA  VAL Q 638      24.933 -36.471  51.106  1.00 22.03 LIG 0.18  C 
BRANCH 41 42
ATOM     42  CB  VAL Q 638      25.625 -35.870  49.870  1.00 22.63 LIG 0.01  C 
ATOM     43  CG1 VAL Q 638      24.847 -34.667  49.358  1.00 22.21 LIG 0.01  C 
ATOM     44  CG2 VAL Q 638      27.058 -35.484  50.199  1.00 20.65 LIG 0.01  C 
ENDBRANCH 41 42
BRANCH 41 45
ATOM     45  N   VAL Q 638      24.538 -37.855  50.877  1.00 23.53 LIG-0.35  N 
ATOM     46 H    VAL Q 638      24.581 -38.055  50.042  1.00 23.53 LIG 0.16  HD
ATOM     47  C   THR Q 637      24.149 -38.765  51.764  1.00 24.82 LIG 0.24  C 
ATOM     48 O    THR Q 637      23.637 -38.474  52.844  1.00 25.63 LIG-0.27  OA
BRANCH 47 49
ATOM     49  CA  THR Q 637      24.370 -40.223  51.373  1.00 25.03 LIG 0.20  C 
BRANCH 49 50
ATOM     50  CB  THR Q 637      22.915 -40.685  51.570  1.00 24.88 LIG 0.15  C 
ATOM     51  CG2 THR Q 637      21.967 -39.831  50.741  1.00 23.89 LIG 0.04  C 
BRANCH 50 52
ATOM     52 OG1  THR Q 637      22.787 -42.056  51.171  1.00 24.10 LIG-0.39  OA
ATOM     53 HG1  THR Q 637      22.797 -42.548  51.853  1.00 24.10 LIG 0.21  HD
ENDBRANCH 50 52
ENDBRANCH 49 50
BRANCH 49 54
ATOM     54  N   THR Q 637      25.199 -40.563  52.523  1.00 26.29 LIG-0.34  N 
ATOM     55 H    THR Q 637      24.817 -41.078  53.097  1.00 26.29 LIG 0.16  HD
ATOM     56  C   PRO Q 636      26.439 -40.100  52.651  1.00 27.07 LIG 0.25  C 
ATOM     57 O    PRO Q 636      26.974 -39.364  51.823  1.00 27.06 LIG-0.27  OA
BRANCH 56 58
ATOM     58  CA  PRO Q 636      27.202 -40.528  53.900  1.00 27.59 LIG 0.35  C 
ATOM     59  CB  PRO Q 636      26.508 -41.721  54.558  1.00 27.63 LIG 0.05  C 
ATOM     60  CG  PRO Q 636      26.752 -41.537  56.013  1.00 27.91 LIG 0.04  C 
ATOM     61  CD  PRO Q 636      26.737 -40.053  56.246  1.00 28.09 LIG 0.32  C 
ATOM     62  N   PRO Q 636      27.155 -39.501  54.945  1.00 27.47 LIG 0.32  N 
ENDBRANCH 56 58
ENDBRANCH 49 54
ENDBRANCH 47 49
ENDBRANCH 41 45
ENDBRANCH 38 41
ENDBRANCH 1 37
TORSDOF 25
ENDMDL
MODEL 17
USER: ADFR SOLUTION from run 62
USER: SCORE 18.437302 LL:  -4.116 LR: -16.341 RR:   0.000 FEB:  -8.884
USER: RMSD 5.211453
USER: SEED 61
USER: STATUS 1 or 2 clusters left
USER: GENES 27
USER: genes 0 Translation |==|  0.31148 0.50449 0.42069
USER: genes 1 Rotation |==|  0.34843 0.57521 0.77253 0.88353
USER: genes 2 Torsion [N]-CA--C-[N] |==|  0.39057
USER: genes 3 Torsion [C]-N--CA-[C] |==|  0.58284
USER: genes 4 Torsion [N]-CA--CB-[CG] |==|  0.57729
USER: genes 5 Torsion [CA]-CB--CG-[CD] |==|  0.14276
USER: genes 6 Torsion [CB]-CG--CD-[OE2] |==|  0.47046
USER: genes 7 Torsion [N]-CA--C-[N] |==|  0.29013
USER: genes 8 Torsion [C]-N--CA-[CB] |==|  0.27222
USER: genes 9 Torsion [N]-CA--CB-[CG1] |==|  0.67354
USER: genes 10 Torsion [N]-CA--C-[N] |==|  0.04090
USER: genes 11 Torsion [C]-N--CA-[CB] |==|  0.47718
USER: genes 12 Torsion [N]-CA--CB-[CG] |==|  0.87152
USER: genes 13 Torsion [CA]-CB--CG-[OD2] |==|  0.10732
USER: genes 14 Torsion [N]-CA--C-[O] |==|  0.44428
USER: genes 15 Torsion [C]-CA--CB-[CG] |==|  0.97509
USER: genes 16 Torsion [CA]-CB--CG-[CD] |==|  0.77860
USER: genes 17 Torsion [CB]-CG--CD-[OE2] |==|  0.48577
USER: genes 18 Torsion [C]-CA--N-[C] |==|  0.71836
USER: genes 19 Torsion [N]-C--CA-[N] |==|  0.88103
USER: genes 20 Torsion [C]-CA--CB-[CG1] |==|  0.03600
USER: genes 21 Torsion [C]-CA--N-[C] |==|  0.72048
USER: genes 22 Torsion [N]-C--CA-[N] |==|  0.99654
USER: genes 23 Torsion [C]-CA--CB-[CG2] |==|  0.47952
USER: genes 24 Torsion [CA]-CB--OG1-[HG1] |==|  0.14904
USER: genes 25 Torsion [C]-CA--N-[C] |==|  0.70545
USER: genes 26 Torsion [N]-C--CA-[CB] |==|  0.99421
ROOT
ATOM      1  CA  GLU Q 639      19.974 -37.641  52.380  1.00 17.71 LIG 0.18  C 
ENDROOT
BRANCH 1 2
ATOM      2  C   GLU Q 639      20.530 -37.128  53.705  1.00 15.36 LIG 0.24  C 
ATOM      3 O    GLU Q 639      21.598 -36.517  53.746  1.00 14.90 LIG-0.27  OA
ATOM      4  N   GLU Q 640      19.800 -37.382  54.785  1.00 12.94 LIG-0.35  N 
ATOM      5 H    GLU Q 640      19.053 -37.808  54.769  1.00 12.94 LIG 0.16  HD
BRANCH 4 6
ATOM      6  CA  GLU Q 640      20.218 -36.948  56.112  1.00 11.11 LIG 0.18  C 
BRANCH 6 7
ATOM      7  CB  GLU Q 640      19.703 -35.526  56.356  1.00 10.30 LIG 0.04  C 
BRANCH 7 8
ATOM      8  CG  GLU Q 640      20.595 -34.744  57.335  1.00 11.77 LIG 0.12  C 
BRANCH 8 9
ATOM      9  CD  GLU Q 640      22.085 -34.760  56.968  1.00 13.33 LIG 0.17  C 
ATOM     10 OE2  GLU Q 640      22.854 -33.993  57.582  1.00 13.21 LIG-0.65  OA
ATOM     11 OE1  GLU Q 640      22.485 -35.534  56.062  1.00 12.97 LIG-0.65  OA
ENDBRANCH 8 9
ENDBRANCH 7 8
ENDBRANCH 6 7
BRANCH 6 12
ATOM     12  C   GLU Q 640      19.701 -37.905  57.191  1.00  9.90 LIG 0.24  C 
ATOM     13  N   VAL Q 641      20.601 -38.743  57.723  1.00  8.06 LIG-0.35  N 
ATOM     14 H    VAL Q 641      21.385 -38.860  57.390  1.00  8.06 LIG 0.16  HD
ATOM     15 O    GLU Q 640      18.505 -37.875  57.523  1.00  9.48 LIG-0.27  OA
BRANCH 13 16
ATOM     16  CA  VAL Q 641      20.346 -39.554  58.934  1.00  6.68 LIG 0.18  C 
BRANCH 16 17
ATOM     17  CB  VAL Q 641      19.923 -41.019  58.609  1.00  5.82 LIG 0.01  C 
ATOM     18  CG2 VAL Q 641      20.049 -41.315  57.136  1.00  2.95 LIG 0.01  C 
ATOM     19  CG1 VAL Q 641      18.546 -41.281  59.117  1.00  4.23 LIG 0.01  C 
ENDBRANCH 16 17
BRANCH 16 20
ATOM     20  C   VAL Q 641      21.555 -39.579  59.896  1.00  6.62 LIG 0.24  C 
ATOM     21 O    VAL Q 641      21.618 -40.402  60.802  1.00  7.26 LIG-0.27  OA
ATOM     22  N   ASP Q 642      22.499 -38.675  59.690  1.00  6.11 LIG-0.34  N 
ATOM     23 H    ASP Q 642      22.466 -38.088  59.062  1.00  6.11 LIG 0.16  HD
BRANCH 22 24
ATOM     24  CA  ASP Q 642      23.700 -38.591  60.518  1.00  5.85 LIG 0.20  C 
BRANCH 24 25
ATOM     25  CB  ASP Q 642      24.694 -37.583  59.907  1.00  5.86 LIG 0.15  C 
BRANCH 25 26
ATOM     26  CG  ASP Q 642      24.880 -37.775  58.380  1.00  7.09 LIG 0.17  C 
ATOM     27 OD2  ASP Q 642      23.877 -38.064  57.705  1.00  7.75 LIG-0.65  OA
ATOM     28 OD1  ASP Q 642      26.003 -37.627  57.856  1.00  5.16 LIG-0.65  OA
ENDBRANCH 25 26
ENDBRANCH 24 25
BRANCH 24 29
ATOM     29  C   ASP Q 642      23.342 -38.192  61.964  1.00  5.53 LIG 0.20  C 
ATOM     30 O    ASP Q 642      24.117 -38.411  62.909  1.00  4.89 LIG-0.65  OA
ATOM     31 OXT  ASP Q 642      22.276 -37.606  62.217  1.00  5.08 LIG-0.65  OA
ENDBRANCH 24 29
ENDBRANCH 22 24
ENDBRANCH 16 20
ENDBRANCH 13 16
ENDBRANCH 6 12
ENDBRANCH 4 6
ENDBRANCH 1 2
BRANCH 1 32
ATOM     32  CB  GLU Q 639      20.611 -38.987  52.028  1.00 18.28 LIG 0.04  C 
BRANCH 32 33
ATOM     33  CG  GLU Q 639      21.769 -39.381  52.930  1.00 21.94 LIG 0.12  C 
BRANCH 33 34
ATOM     34  CD  GLU Q 639      23.062 -38.682  52.558  1.00 26.00 LIG 0.17  C 
ATOM     35 OE1  GLU Q 639      23.078 -37.963  51.537  1.00 25.44 LIG-0.65  OA
ATOM     36 OE2  GLU Q 639      24.062 -38.850  53.287  1.00 27.11 LIG-0.65  OA
ENDBRANCH 33 34
ENDBRANCH 32 33
ENDBRANCH 1 32
BRANCH 1 37
ATOM     37  N   GLU Q 639      20.192 -36.676  51.310  1.00 19.24 LIG-0.35  N 
ATOM     38  C   VAL Q 638      19.220 -35.878  50.879  1.00 20.97 LIG 0.24  C 
ATOM     39 O    VAL Q 638      18.081 -35.896  51.348  1.00 20.96 LIG-0.27  OA
ATOM     40 H    GLU Q 639      20.992 -36.673  50.992  1.00 19.24 LIG 0.16  HD
BRANCH 38 41
ATOM     41  CA  VAL Q 638      19.587 -34.916  49.754  1.00 22.03 LIG 0.18  C 
BRANCH 41 42
ATOM     42  CB  VAL Q 638      19.549 -35.671  48.413  1.00 22.63 LIG 0.01  C 
ATOM     43  CG1 VAL Q 638      18.863 -37.018  48.582  1.00 22.21 LIG 0.01  C 
ATOM     44  CG2 VAL Q 638      18.847 -34.837  47.354  1.00 20.65 LIG 0.01  C 
ENDBRANCH 41 42
BRANCH 41 45
ATOM     45  N   VAL Q 638      20.889 -34.305  49.987  1.00 23.53 LIG-0.35  N 
ATOM     46 H    VAL Q 638      21.526 -34.842  49.771  1.00 23.53 LIG 0.16  HD
ATOM     47  C   THR Q 637      21.167 -33.095  50.462  1.00 24.82 LIG 0.24  C 
ATOM     48 O    THR Q 637      20.398 -32.469  51.191  1.00 25.63 LIG-0.27  OA
BRANCH 47 49
ATOM     49  CA  THR Q 637      22.513 -32.504  50.056  1.00 25.03 LIG 0.20  C 
BRANCH 49 50
ATOM     50  CB  THR Q 637      21.954 -31.387  49.155  1.00 24.88 LIG 0.15  C 
ATOM     51  CG2 THR Q 637      23.071 -30.458  48.705  1.00 23.89 LIG 0.04  C 
BRANCH 50 52
ATOM     52 OG1  THR Q 637      21.327 -31.966  48.004  1.00 24.10 LIG-0.39  OA
ATOM     53 HG1  THR Q 637      20.757 -32.532  48.251  1.00 24.10 LIG 0.21  HD
ENDBRANCH 50 52
ENDBRANCH 49 50
BRANCH 49 54
ATOM     54  N   THR Q 637      22.950 -33.654  49.273  1.00 26.29 LIG-0.34  N 
ATOM     55 H    THR Q 637      22.555 -33.738  48.513  1.00 26.29 LIG 0.16  HD
ATOM     56  C   PRO Q 636      23.885 -34.487  49.719  1.00 27.07 LIG 0.25  C 
ATOM     57 O    PRO Q 636      24.443 -34.356  50.808  1.00 27.06 LIG-0.27  OA
BRANCH 56 58
ATOM     58  CA  PRO Q 636      24.255 -35.651  48.806  1.00 27.59 LIG 0.35  C 
ATOM     59  CB  PRO Q 636      23.391 -35.625  47.544  1.00 27.63 LIG 0.05  C 
ATOM     60  CG  PRO Q 636      23.209 -37.057  47.188  1.00 27.91 LIG 0.04  C 
ATOM     61  CD  PRO Q 636      23.140 -37.798  48.493  1.00 28.09 LIG 0.32  C 
ATOM     62  N   PRO Q 636      23.918 -36.945  49.409  1.00 27.47 LIG 0.32  N 
ENDBRANCH 56 58
ENDBRANCH 49 54
ENDBRANCH 47 49
ENDBRANCH 41 45
ENDBRANCH 38 41
ENDBRANCH 1 37
TORSDOF 25
ENDMDL
MODEL 18
USER: ADFR SOLUTION from run 93
USER: SCORE 19.999208 LL:  -5.271 LR: -16.333 RR:   0.000 FEB:  -8.876
USER: RMSD 7.098500
USER: SEED 92
USER: STATUS no improvement in best in 6 clusters for 5 generations
USER: GENES 27
USER: genes 0 Translation |==|  0.21171 0.35183 0.53305
USER: genes 1 Rotation |==|  0.33993 0.82590 0.71791 0.76585
USER: genes 2 Torsion [N]-CA--C-[N] |==|  0.12412
USER: genes 3 Torsion [C]-N--CA-[C] |==|  0.79042
USER: genes 4 Torsion [N]-CA--CB-[CG] |==|  0.65688
USER: genes 5 Torsion [CA]-CB--CG-[CD] |==|  0.87224
USER: genes 6 Torsion [CB]-CG--CD-[OE2] |==|  0.23041
USER: genes 7 Torsion [N]-CA--C-[N] |==|  0.97697
USER: genes 8 Torsion [C]-N--CA-[CB] |==|  0.45307
USER: genes 9 Torsion [N]-CA--CB-[CG1] |==|  0.80506
USER: genes 10 Torsion [N]-CA--C-[N] |==|  0.40167
USER: genes 11 Torsion [C]-N--CA-[CB] |==|  0.31857
USER: genes 12 Torsion [N]-CA--CB-[CG] |==|  0.85947
USER: genes 13 Torsion [CA]-CB--CG-[OD2] |==|  0.27996
USER: genes 14 Torsion [N]-CA--C-[O] |==|  0.57040
USER: genes 15 Torsion [C]-CA--CB-[CG] |==|  0.54382
USER: genes 16 Torsion [CA]-CB--CG-[CD] |==|  0.30762
USER: genes 17 Torsion [CB]-CG--CD-[OE2] |==|  0.40053
USER: genes 18 Torsion [C]-CA--N-[C] |==|  0.63492
USER: genes 19 Torsion [N]-C--CA-[N] |==|  0.91194
USER: genes 20 Torsion [C]-CA--CB-[CG1] |==|  0.75792
USER: genes 21 Torsion [C]-CA--N-[C] |==|  0.84105
USER: genes 22 Torsion [N]-C--CA-[N] |==|  0.43072
USER: genes 23 Torsion [C]-CA--CB-[CG2] |==|  0.28806
USER: genes 24 Torsion [CA]-CB--OG1-[HG1] |==|  0.60531
USER: genes 25 Torsion [C]-CA--N-[C] |==|  0.77222
USER: genes 26 Torsion [N]-C--CA-[CB] |==|  0.06337
ROOT
ATOM      1  CA  GLU Q 639      18.178 -40.503  55.161  1.00 17.71 LIG 0.18  C 
ENDROOT
BRANCH 1 2
ATOM      2  C   GLU Q 639      19.454 -39.673  55.065  1.00 15.36 LIG 0.24  C 
ATOM      3 O    GLU Q 639      20.512 -40.085  55.540  1.00 14.90 LIG-0.27  OA
ATOM      4  N   GLU Q 640      19.346 -38.501  54.447  1.00 12.94 LIG-0.35  N 
ATOM      5 H    GLU Q 640      18.613 -38.202  54.111  1.00 12.94 LIG 0.16  HD
BRANCH 4 6
ATOM      6  CA  GLU Q 640      20.488 -37.611  54.287  1.00 11.11 LIG 0.18  C 
BRANCH 6 7
ATOM      7  CB  GLU Q 640      20.176 -36.591  53.189  1.00 10.30 LIG 0.04  C 
BRANCH 7 8
ATOM      8  CG  GLU Q 640      21.222 -36.609  52.062  1.00 11.77 LIG 0.12  C 
BRANCH 8 9
ATOM      9  CD  GLU Q 640      22.674 -36.627  52.560  1.00 13.33 LIG 0.17  C 
ATOM     10 OE2  GLU Q 640      23.175 -37.724  52.883  1.00 13.21 LIG-0.65  OA
ATOM     11 OE1  GLU Q 640      23.309 -35.545  52.634  1.00 12.97 LIG-0.65  OA
ENDBRANCH 8 9
ENDBRANCH 7 8
ENDBRANCH 6 7
BRANCH 6 12
ATOM     12  C   GLU Q 640      20.823 -36.905  55.605  1.00  9.90 LIG 0.24  C 
ATOM     13  N   VAL Q 641      19.948 -37.068  56.606  1.00  8.06 LIG-0.35  N 
ATOM     14 H    VAL Q 641      19.169 -37.414  56.495  1.00  8.06 LIG 0.16  HD
ATOM     15 O    GLU Q 640      21.858 -36.225  55.697  1.00  9.48 LIG-0.27  OA
BRANCH 13 16
ATOM     16  CA  VAL Q 641      20.225 -36.673  58.005  1.00  6.68 LIG 0.18  C 
BRANCH 16 17
ATOM     17  CB  VAL Q 641      18.936 -36.575  58.878  1.00  5.82 LIG 0.01  C 
ATOM     18  CG2 VAL Q 641      18.144 -37.857  58.836  1.00  2.95 LIG 0.01  C 
ATOM     19  CG1 VAL Q 641      18.120 -35.400  58.458  1.00  4.23 LIG 0.01  C 
ENDBRANCH 16 17
BRANCH 16 20
ATOM     20  C   VAL Q 641      21.232 -37.616  58.699  1.00  6.62 LIG 0.24  C 
ATOM     21 O    VAL Q 641      21.238 -38.817  58.455  1.00  7.26 LIG-0.27  OA
ATOM     22  N   ASP Q 642      22.072 -37.062  59.560  1.00  6.11 LIG-0.34  N 
ATOM     23 H    ASP Q 642      22.075 -36.222  59.747  1.00  6.11 LIG 0.16  HD
BRANCH 22 24
ATOM     24  CA  ASP Q 642      23.081 -37.835  60.281  1.00  5.85 LIG 0.20  C 
BRANCH 24 25
ATOM     25  CB  ASP Q 642      24.494 -37.396  59.842  1.00  5.86 LIG 0.15  C 
BRANCH 25 26
ATOM     26  CG  ASP Q 642      24.666 -37.382  58.302  1.00  7.09 LIG 0.17  C 
ATOM     27 OD2  ASP Q 642      24.597 -36.285  57.720  1.00  7.75 LIG-0.65  OA
ATOM     28 OD1  ASP Q 642      24.881 -38.442  57.679  1.00  5.16 LIG-0.65  OA
ENDBRANCH 25 26
ENDBRANCH 24 25
BRANCH 24 29
ATOM     29  C   ASP Q 642      22.911 -37.673  61.805  1.00  5.53 LIG 0.20  C 
ATOM     30 O    ASP Q 642      23.866 -37.828  62.584  1.00  4.89 LIG-0.65  OA
ATOM     31 OXT  ASP Q 642      21.815 -37.350  62.292  1.00  5.08 LIG-0.65  OA
ENDBRANCH 24 29
ENDBRANCH 22 24
ENDBRANCH 16 20
ENDBRANCH 13 16
ENDBRANCH 6 12
ENDBRANCH 4 6
ENDBRANCH 1 2
BRANCH 1 32
ATOM     32  CB  GLU Q 639      18.511 -41.929  55.606  1.00 18.28 LIG 0.04  C 
BRANCH 32 33
ATOM     33  CG  GLU Q 639      17.391 -42.930  55.374  1.00 21.94 LIG 0.12  C 
BRANCH 33 34
ATOM     34  CD  GLU Q 639      17.722 -43.933  54.287  1.00 26.00 LIG 0.17  C 
ATOM     35 OE1  GLU Q 639      18.386 -43.547  53.302  1.00 25.44 LIG-0.65  OA
ATOM     36 OE2  GLU Q 639      17.318 -45.108  54.417  1.00 27.11 LIG-0.65  OA
ENDBRANCH 33 34
ENDBRANCH 32 33
ENDBRANCH 1 32
BRANCH 1 37
ATOM     37  N   GLU Q 639      17.463 -40.518  53.891  1.00 19.24 LIG-0.35  N 
ATOM     38  C   VAL Q 638      16.159 -40.268  53.820  1.00 20.97 LIG 0.24  C 
ATOM     39 O    VAL Q 638      15.472 -40.009  54.808  1.00 20.96 LIG-0.27  OA
ATOM     40 H    GLU Q 639      17.955 -40.700  53.209  1.00 19.24 LIG 0.16  HD
BRANCH 38 41
ATOM     41  CA  VAL Q 638      15.539 -40.316  52.427  1.00 22.03 LIG 0.18  C 
BRANCH 41 42
ATOM     42  CB  VAL Q 638      15.016 -41.739  52.158  1.00 22.63 LIG 0.01  C 
ATOM     43  CG1 VAL Q 638      16.120 -42.611  51.580  1.00 22.21 LIG 0.01  C 
ATOM     44  CG2 VAL Q 638      14.459 -42.349  53.435  1.00 20.65 LIG 0.01  C 
ENDBRANCH 41 42
BRANCH 41 45
ATOM     45  N   VAL Q 638      16.495 -39.898  51.410  1.00 23.53 LIG-0.35  N 
ATOM     46 H    VAL Q 638      16.604 -40.511  50.816  1.00 23.53 LIG 0.16  HD
ATOM     47  C   THR Q 637      17.162 -38.752  51.318  1.00 24.82 LIG 0.24  C 
ATOM     48 O    THR Q 637      17.420 -38.046  52.291  1.00 25.63 LIG-0.27  OA
BRANCH 47 49
ATOM     49  CA  THR Q 637      17.604 -38.341  49.917  1.00 25.03 LIG 0.20  C 
BRANCH 49 50
ATOM     50  CB  THR Q 637      19.000 -38.990  49.971  1.00 24.88 LIG 0.15  C 
ATOM     51  CG2 THR Q 637      19.019 -40.281  49.166  1.00 23.89 LIG 0.04  C 
BRANCH 50 52
ATOM     52 OG1  THR Q 637      19.973 -38.083  49.437  1.00 24.10 LIG-0.39  OA
ATOM     53 HG1  THR Q 637      20.543 -38.513  48.995  1.00 24.10 LIG 0.21  HD
ENDBRANCH 50 52
ENDBRANCH 49 50
BRANCH 49 54
ATOM     54  N   THR Q 637      17.669 -36.911  50.193  1.00 26.29 LIG-0.34  N 
ATOM     55 H    THR Q 637      18.458 -36.618  50.370  1.00 26.29 LIG 0.16  HD
ATOM     56  C   PRO Q 636      16.582 -36.146  50.166  1.00 27.07 LIG 0.25  C 
ATOM     57 O    PRO Q 636      15.458 -36.576  49.911  1.00 27.06 LIG-0.27  OA
BRANCH 56 58
ATOM     58  CA  PRO Q 636      16.781 -34.665  50.473  1.00 27.59 LIG 0.35  C 
ATOM     59  CB  PRO Q 636      18.231 -34.262  50.201  1.00 27.63 LIG 0.05  C 
ATOM     60  CG  PRO Q 636      18.520 -33.211  51.211  1.00 27.91 LIG 0.04  C 
ATOM     61  CD  PRO Q 636      17.752 -33.601  52.442  1.00 28.09 LIG 0.32  C 
ATOM     62  N   PRO Q 636      16.622 -34.379  51.902  1.00 27.47 LIG 0.32  N 
ENDBRANCH 56 58
ENDBRANCH 49 54
ENDBRANCH 47 49
ENDBRANCH 41 45
ENDBRANCH 38 41
ENDBRANCH 1 37
TORSDOF 25
ENDMDL
MODEL 19
USER: ADFR SOLUTION from run 112
USER: SCORE 19.793601 LL:  -4.386 LR: -16.322 RR:   0.000 FEB:  -8.865
USER: RMSD 9.661213
USER: SEED 111
USER: STATUS no improvement in best in 6 clusters for 5 generations
USER: GENES 27
USER: genes 0 Translation |==|  0.57837 0.54151 0.72229
USER: genes 1 Rotation |==|  0.85513 0.56274 0.40155 0.83205
USER: genes 2 Torsion [N]-CA--C-[N] |==|  0.39469
USER: genes 3 Torsion [C]-N--CA-[C] |==|  0.81370
USER: genes 4 Torsion [N]-CA--CB-[CG] |==|  0.83202
USER: genes 5 Torsion [CA]-CB--CG-[CD] |==|  0.26936
USER: genes 6 Torsion [CB]-CG--CD-[OE2] |==|  0.91525
USER: genes 7 Torsion [N]-CA--C-[N] |==|  0.86208
USER: genes 8 Torsion [C]-N--CA-[CB] |==|  0.52304
USER: genes 9 Torsion [N]-CA--CB-[CG1] |==|  0.93554
USER: genes 10 Torsion [N]-CA--C-[N] |==|  0.44365
USER: genes 11 Torsion [C]-N--CA-[CB] |==|  0.23115
USER: genes 12 Torsion [N]-CA--CB-[CG] |==|  0.71080
USER: genes 13 Torsion [CA]-CB--CG-[OD2] |==|  0.28183
USER: genes 14 Torsion [N]-CA--C-[O] |==|  0.39378
USER: genes 15 Torsion [C]-CA--CB-[CG] |==|  0.78049
USER: genes 16 Torsion [CA]-CB--CG-[CD] |==|  0.38847
USER: genes 17 Torsion [CB]-CG--CD-[OE2] |==|  0.16645
USER: genes 18 Torsion [C]-CA--N-[C] |==|  0.63658
USER: genes 19 Torsion [N]-C--CA-[N] |==|  0.30883
USER: genes 20 Torsion [C]-CA--CB-[CG1] |==|  0.20274
USER: genes 21 Torsion [C]-CA--N-[C] |==|  0.74209
USER: genes 22 Torsion [N]-C--CA-[N] |==|  0.95000
USER: genes 23 Torsion [C]-CA--CB-[CG2] |==|  0.42900
USER: genes 24 Torsion [CA]-CB--OG1-[HG1] |==|  0.30104
USER: genes 25 Torsion [C]-CA--N-[C] |==|  0.75507
USER: genes 26 Torsion [N]-C--CA-[CB] |==|  0.92707
ROOT
ATOM      1  CA  GLU Q 639      24.778 -36.947  59.845  1.00 17.71 LIG 0.18  C 
ENDROOT
BRANCH 1 2
ATOM      2  C   GLU Q 639      24.136 -38.143  59.149  1.00 15.36 LIG 0.24  C 
ATOM      3 O    GLU Q 639      24.468 -38.460  58.006  1.00 14.90 LIG-0.27  OA
ATOM      4  N   GLU Q 640      23.217 -38.802  59.844  1.00 12.94 LIG-0.35  N 
ATOM      5 H    GLU Q 640      22.976 -38.591  60.642  1.00 12.94 LIG 0.16  HD
BRANCH 4 6
ATOM      6  CA  GLU Q 640      22.527 -39.963  59.296  1.00 11.11 LIG 0.18  C 
BRANCH 6 7
ATOM      7  CB  GLU Q 640      21.713 -40.631  60.408  1.00 10.30 LIG 0.04  C 
BRANCH 7 8
ATOM      8  CG  GLU Q 640      22.598 -41.111  61.570  1.00 11.77 LIG 0.12  C 
BRANCH 8 9
ATOM      9  CD  GLU Q 640      22.664 -40.131  62.749  1.00 13.33 LIG 0.17  C 
ATOM     10 OE2  GLU Q 640      22.553 -38.911  62.512  1.00 13.21 LIG-0.65  OA
ATOM     11 OE1  GLU Q 640      22.835 -40.581  63.910  1.00 12.97 LIG-0.65  OA
ENDBRANCH 8 9
ENDBRANCH 7 8
ENDBRANCH 6 7
BRANCH 6 12
ATOM     12  C   GLU Q 640      21.623 -39.563  58.126  1.00  9.90 LIG 0.24  C 
ATOM     13  N   VAL Q 641      20.797 -38.531  58.339  1.00  8.06 LIG-0.35  N 
ATOM     14 H    VAL Q 641      20.656 -38.197  59.120  1.00  8.06 LIG 0.16  HD
ATOM     15 O    GLU Q 640      21.681 -40.190  57.056  1.00  9.48 LIG-0.27  OA
BRANCH 13 16
ATOM     16  CA  VAL Q 641      20.040 -37.853  57.263  1.00  6.68 LIG 0.18  C 
BRANCH 16 17
ATOM     17  CB  VAL Q 641      19.316 -36.560  57.747  1.00  5.82 LIG 0.01  C 
ATOM     18  CG2 VAL Q 641      20.070 -35.321  57.337  1.00  2.95 LIG 0.01  C 
ATOM     19  CG1 VAL Q 641      19.091 -36.617  59.219  1.00  4.23 LIG 0.01  C 
ENDBRANCH 16 17
BRANCH 16 20
ATOM     20  C   VAL Q 641      20.923 -37.510  56.043  1.00  6.62 LIG 0.24  C 
ATOM     21 O    VAL Q 641      22.142 -37.442  56.150  1.00  7.26 LIG-0.27  OA
ATOM     22  N   ASP Q 642      20.297 -37.295  54.896  1.00  6.11 LIG-0.34  N 
ATOM     23 H    ASP Q 642      19.443 -37.332  54.807  1.00  6.11 LIG 0.16  HD
BRANCH 22 24
ATOM     24  CA  ASP Q 642      21.010 -36.969  53.662  1.00  5.85 LIG 0.20  C 
BRANCH 24 25
ATOM     25  CB  ASP Q 642      21.511 -38.262  52.986  1.00  5.86 LIG 0.15  C 
BRANCH 25 26
ATOM     26  CG  ASP Q 642      23.033 -38.487  53.175  1.00  7.09 LIG 0.17  C 
ATOM     27 OD2  ASP Q 642      23.396 -39.306  54.037  1.00  7.75 LIG-0.65  OA
ATOM     28 OD1  ASP Q 642      23.856 -37.871  52.468  1.00  5.16 LIG-0.65  OA
ENDBRANCH 25 26
ENDBRANCH 24 25
BRANCH 24 29
ATOM     29  C   ASP Q 642      20.107 -36.169  52.702  1.00  5.53 LIG 0.20  C 
ATOM     30 O    ASP Q 642      20.556 -35.239  52.012  1.00  4.89 LIG-0.65  OA
ATOM     31 OXT  ASP Q 642      18.906 -36.459  52.568  1.00  5.08 LIG-0.65  OA
ENDBRANCH 24 29
ENDBRANCH 22 24
ENDBRANCH 16 20
ENDBRANCH 13 16
ENDBRANCH 6 12
ENDBRANCH 4 6
ENDBRANCH 1 2
BRANCH 1 32
ATOM     32  CB  GLU Q 639      24.054 -35.658  59.448  1.00 18.28 LIG 0.04  C 
BRANCH 32 33
ATOM     33  CG  GLU Q 639      24.449 -35.119  58.083  1.00 21.94 LIG 0.12  C 
BRANCH 33 34
ATOM     34  CD  GLU Q 639      23.264 -34.581  57.304  1.00 26.00 LIG 0.17  C 
ATOM     35 OE1  GLU Q 639      22.992 -35.100  56.201  1.00 25.44 LIG-0.65  OA
ATOM     36 OE2  GLU Q 639      22.606 -33.641  57.795  1.00 27.11 LIG-0.65  OA
ENDBRANCH 33 34
ENDBRANCH 32 33
ENDBRANCH 1 32
BRANCH 1 37
ATOM     37  N   GLU Q 639      26.197 -36.854  59.529  1.00 19.24 LIG-0.35  N 
ATOM     38  C   VAL Q 638      27.116 -36.697  60.478  1.00 20.97 LIG 0.24  C 
ATOM     39 O    VAL Q 638      26.836 -36.622  61.675  1.00 20.96 LIG-0.27  OA
ATOM     40 H    GLU Q 639      26.379 -36.909  58.690  1.00 19.24 LIG 0.16  HD
BRANCH 38 41
ATOM     41  CA  VAL Q 638      28.564 -36.616  60.006  1.00 22.03 LIG 0.18  C 
BRANCH 41 42
ATOM     42  CB  VAL Q 638      29.395 -37.677  60.749  1.00 22.63 LIG 0.01  C 
ATOM     43  CG1 VAL Q 638      29.071 -39.068  60.225  1.00 22.21 LIG 0.01  C 
ATOM     44  CG2 VAL Q 638      30.880 -37.381  60.609  1.00 20.65 LIG 0.01  C 
ENDBRANCH 41 42
BRANCH 41 45
ATOM     45  N   VAL Q 638      29.108 -35.278  60.203  1.00 23.53 LIG-0.35  N 
ATOM     46 H    VAL Q 638      29.438 -35.191  60.992  1.00 23.53 LIG 0.16  HD
ATOM     47  C   THR Q 637      29.140 -34.260  59.349  1.00 24.82 LIG 0.24  C 
ATOM     48 O    THR Q 637      28.335 -34.133  58.427  1.00 25.63 LIG-0.27  OA
BRANCH 47 49
ATOM     49  CA  THR Q 637      30.245 -33.232  59.568  1.00 25.03 LIG 0.20  C 
BRANCH 49 50
ATOM     50  CB  THR Q 637      31.259 -33.844  58.584  1.00 24.88 LIG 0.15  C 
ATOM     51  CG2 THR Q 637      32.216 -32.778  58.074  1.00 23.89 LIG 0.04  C 
BRANCH 50 52
ATOM     52 OG1  THR Q 637      32.005 -34.875  59.243  1.00 24.10 LIG-0.39  OA
ATOM     53 HG1  THR Q 637      31.766 -35.625  58.948  1.00 24.10 LIG 0.21  HD
ENDBRANCH 50 52
ENDBRANCH 49 50
BRANCH 49 54
ATOM     54  N   THR Q 637      30.536 -33.616  60.944  1.00 26.29 LIG-0.34  N 
ATOM     55 H    THR Q 637      31.155 -34.208  61.025  1.00 26.29 LIG 0.16  HD
ATOM     56  C   PRO Q 636      29.883 -33.081  61.971  1.00 27.07 LIG 0.25  C 
ATOM     57 O    PRO Q 636      28.999 -32.235  61.843  1.00 27.06 LIG-0.27  OA
BRANCH 56 58
ATOM     58  CA  PRO Q 636      30.281 -33.567  63.361  1.00 27.59 LIG 0.35  C 
ATOM     59  CB  PRO Q 636      30.857 -34.981  63.279  1.00 27.63 LIG 0.05  C 
ATOM     60  CG  PRO Q 636      30.449 -35.623  64.556  1.00 27.91 LIG 0.04  C 
ATOM     61  CD  PRO Q 636      29.096 -35.057  64.886  1.00 28.09 LIG 0.32  C 
ATOM     62  N   PRO Q 636      29.115 -33.736  64.233  1.00 27.47 LIG 0.32  N 
ENDBRANCH 56 58
ENDBRANCH 49 54
ENDBRANCH 47 49
ENDBRANCH 41 45
ENDBRANCH 38 41
ENDBRANCH 1 37
TORSDOF 25
ENDMDL
MODEL 20
USER: ADFR SOLUTION from run 102
USER: SCORE 18.173213 LL:  -4.654 LR: -16.284 RR:   0.000 FEB:  -8.826
USER: RMSD 8.764257
USER: SEED 101
USER: STATUS no improvement in best in 25 clusters for 5 generations
USER: GENES 27
USER: genes 0 Translation |==|  0.29785 0.54278 0.54651
USER: genes 1 Rotation |==|  0.92749 0.31725 0.66401 0.58341
USER: genes 2 Torsion [N]-CA--C-[N] |==|  0.31196
USER: genes 3 Torsion [C]-N--CA-[C] |==|  0.71148
USER: genes 4 Torsion [N]-CA--CB-[CG] |==|  0.73449
USER: genes 5 Torsion [CA]-CB--CG-[CD] |==|  0.00327
USER: genes 6 Torsion [CB]-CG--CD-[OE2] |==|  0.24217
USER: genes 7 Torsion [N]-CA--C-[N] |==|  0.02154
USER: genes 8 Torsion [C]-N--CA-[CB] |==|  0.46097
USER: genes 9 Torsion [N]-CA--CB-[CG1] |==|  0.77341
USER: genes 10 Torsion [N]-CA--C-[N] |==|  0.19587
USER: genes 11 Torsion [C]-N--CA-[CB] |==|  0.86164
USER: genes 12 Torsion [N]-CA--CB-[CG] |==|  0.75401
USER: genes 13 Torsion [CA]-CB--CG-[OD2] |==|  0.20984
USER: genes 14 Torsion [N]-CA--C-[O] |==|  0.06829
USER: genes 15 Torsion [C]-CA--CB-[CG] |==|  0.70658
USER: genes 16 Torsion [CA]-CB--CG-[CD] |==|  0.23779
USER: genes 17 Torsion [CB]-CG--CD-[OE2] |==|  0.85466
USER: genes 18 Torsion [C]-CA--N-[C] |==|  0.72593
USER: genes 19 Torsion [N]-C--CA-[N] |==|  0.97019
USER: genes 20 Torsion [C]-CA--CB-[CG1] |==|  0.92325
USER: genes 21 Torsion [C]-CA--N-[C] |==|  0.72147
USER: genes 22 Torsion [N]-C--CA-[N] |==|  0.77348
USER: genes 23 Torsion [C]-CA--CB-[CG2] |==|  0.33709
USER: genes 24 Torsion [CA]-CB--OG1-[HG1] |==|  0.28150
USER: genes 25 Torsion [C]-CA--N-[C] |==|  0.76111
USER: genes 26 Torsion [N]-C--CA-[CB] |==|  0.37975
ROOT
ATOM      1  CA  GLU Q 639      19.728 -36.923  55.494  1.00 17.71 LIG 0.18  C 
ENDROOT
BRANCH 1 2
ATOM      2  C   GLU Q 639      20.799 -36.974  54.408  1.00 15.36 LIG 0.24  C 
ATOM      3 O    GLU Q 639      21.908 -36.472  54.593  1.00 14.90 LIG-0.27  OA
ATOM      4  N   GLU Q 640      20.458 -37.581  53.277  1.00 12.94 LIG-0.35  N 
ATOM      5 H    GLU Q 640      19.687 -37.935  53.136  1.00 12.94 LIG 0.16  HD
BRANCH 4 6
ATOM      6  CA  GLU Q 640      21.387 -37.699  52.161  1.00 11.11 LIG 0.18  C 
BRANCH 6 7
ATOM      7  CB  GLU Q 640      21.353 -39.136  51.632  1.00 10.30 LIG 0.04  C 
BRANCH 7 8
ATOM      8  CG  GLU Q 640      22.469 -40.005  52.235  1.00 11.77 LIG 0.12  C 
BRANCH 8 9
ATOM      9  CD  GLU Q 640      23.355 -39.267  53.248  1.00 13.33 LIG 0.17  C 
ATOM     10 OE2  GLU Q 640      22.994 -39.242  54.442  1.00 13.21 LIG-0.65  OA
ATOM     11 OE1  GLU Q 640      24.407 -38.708  52.847  1.00 12.97 LIG-0.65  OA
ENDBRANCH 8 9
ENDBRANCH 7 8
ENDBRANCH 6 7
BRANCH 6 12
ATOM     12  C   GLU Q 640      21.039 -36.704  51.049  1.00  9.90 LIG 0.24  C 
ATOM     13  N   VAL Q 641      20.085 -35.808  51.331  1.00  8.06 LIG-0.35  N 
ATOM     14 H    VAL Q 641      19.580 -35.864  52.025  1.00  8.06 LIG 0.16  HD
ATOM     15 O    GLU Q 640      21.632 -36.762  49.960  1.00  9.48 LIG-0.27  OA
BRANCH 13 16
ATOM     16  CA  VAL Q 641      19.795 -34.629  50.484  1.00  6.68 LIG 0.18  C 
BRANCH 16 17
ATOM     17  CB  VAL Q 641      18.436 -33.948  50.831  1.00  5.82 LIG 0.01  C 
ATOM     18  CG2 VAL Q 641      18.243 -33.832  52.322  1.00  2.95 LIG 0.01  C 
ATOM     19  CG1 VAL Q 641      17.313 -34.678  50.178  1.00  4.23 LIG 0.01  C 
ENDBRANCH 16 17
BRANCH 16 20
ATOM     20  C   VAL Q 641      20.918 -33.570  50.538  1.00  6.62 LIG 0.24  C 
ATOM     21 O    VAL Q 641      20.741 -32.496  51.101  1.00  7.26 LIG-0.27  OA
ATOM     22  N   ASP Q 642      22.061 -33.883  49.948  1.00  6.11 LIG-0.34  N 
ATOM     23 H    ASP Q 642      22.198 -34.629  49.543  1.00  6.11 LIG 0.16  HD
BRANCH 22 24
ATOM     24  CA  ASP Q 642      23.208 -32.978  49.930  1.00  5.85 LIG 0.20  C 
BRANCH 24 25
ATOM     25  CB  ASP Q 642      22.767 -31.575  49.465  1.00  5.86 LIG 0.15  C 
BRANCH 25 26
ATOM     26  CG  ASP Q 642      22.828 -31.406  47.925  1.00  7.09 LIG 0.17  C 
ATOM     27 OD2  ASP Q 642      21.935 -31.943  47.247  1.00  7.75 LIG-0.65  OA
ATOM     28 OD1  ASP Q 642      23.740 -30.738  47.397  1.00  5.16 LIG-0.65  OA
ENDBRANCH 25 26
ENDBRANCH 24 25
BRANCH 24 29
ATOM     29  C   ASP Q 642      23.872 -32.905  51.320  1.00  5.53 LIG 0.20  C 
ATOM     30 O    ASP Q 642      23.763 -33.831  52.140  1.00  4.89 LIG-0.65  OA
ATOM     31 OXT  ASP Q 642      24.564 -31.926  51.643  1.00  5.08 LIG-0.65  OA
ENDBRANCH 24 29
ENDBRANCH 22 24
ENDBRANCH 16 20
ENDBRANCH 13 16
ENDBRANCH 6 12
ENDBRANCH 4 6
ENDBRANCH 1 2
BRANCH 1 32
ATOM     32  CB  GLU Q 639      19.488 -35.475  55.928  1.00 18.28 LIG 0.04  C 
BRANCH 32 33
ATOM     33  CG  GLU Q 639      20.077 -35.127  57.285  1.00 21.94 LIG 0.12  C 
BRANCH 33 34
ATOM     34  CD  GLU Q 639      21.532 -34.712  57.199  1.00 26.00 LIG 0.17  C 
ATOM     35 OE1  GLU Q 639      21.875 -33.632  57.725  1.00 25.44 LIG-0.65  OA
ATOM     36 OE2  GLU Q 639      22.333 -35.465  56.608  1.00 27.11 LIG-0.65  OA
ENDBRANCH 33 34
ENDBRANCH 32 33
ENDBRANCH 1 32
BRANCH 1 37
ATOM     37  N   GLU Q 639      20.101 -37.744  56.639  1.00 19.24 LIG-0.35  N 
ATOM     38  C   VAL Q 638      19.623 -38.974  56.803  1.00 20.97 LIG 0.24  C 
ATOM     39 O    VAL Q 638      18.843 -39.500  56.009  1.00 20.96 LIG-0.27  OA
ATOM     40 H    GLU Q 639      20.648 -37.365  57.185  1.00 19.24 LIG 0.16  HD
BRANCH 38 41
ATOM     41  CA  VAL Q 638      20.097 -39.721  58.045  1.00 22.03 LIG 0.18  C 
BRANCH 41 42
ATOM     42  CB  VAL Q 638      18.907 -39.915  59.001  1.00 22.63 LIG 0.01  C 
ATOM     43  CG1 VAL Q 638      17.884 -38.806  58.807  1.00 22.21 LIG 0.01  C 
ATOM     44  CG2 VAL Q 638      18.270 -41.279  58.786  1.00 20.65 LIG 0.01  C 
ENDBRANCH 41 42
BRANCH 41 45
ATOM     45  N   VAL Q 638      21.196 -39.018  58.695  1.00 23.53 LIG-0.35  N 
ATOM     46 H    VAL Q 638      20.906 -38.365  59.173  1.00 23.53 LIG 0.16  HD
ATOM     47  C   THR Q 637      22.499 -39.270  58.627  1.00 24.82 LIG 0.24  C 
ATOM     48 O    THR Q 637      23.023 -39.843  57.673  1.00 25.63 LIG-0.27  OA
BRANCH 47 49
ATOM     49  CA  THR Q 637      23.338 -38.805  59.813  1.00 25.03 LIG 0.20  C 
BRANCH 49 50
ATOM     50  CB  THR Q 637      22.243 -38.970  60.883  1.00 24.88 LIG 0.15  C 
ATOM     51  CG2 THR Q 637      22.699 -39.936  61.967  1.00 23.89 LIG 0.04  C 
BRANCH 50 52
ATOM     52 OG1  THR Q 637      21.952 -37.698  61.474  1.00 24.10 LIG-0.39  OA
ATOM     53 HG1  THR Q 637      21.243 -37.391  61.143  1.00 24.10 LIG 0.21  HD
ENDBRANCH 50 52
ENDBRANCH 49 50
BRANCH 49 54
ATOM     54  N   THR Q 637      23.455 -37.418  59.379  1.00 26.29 LIG-0.34  N 
ATOM     55 H    THR Q 637      22.861 -36.890  59.709  1.00 26.29 LIG 0.16  HD
ATOM     56  C   PRO Q 636      24.411 -37.027  58.542  1.00 27.07 LIG 0.25  C 
ATOM     57 O    PRO Q 636      25.256 -37.791  58.077  1.00 27.06 LIG-0.27  OA
BRANCH 56 58
ATOM     58  CA  PRO Q 636      24.426 -35.550  58.163  1.00 27.59 LIG 0.35  C 
ATOM     59  CB  PRO Q 636      25.859 -35.015  58.190  1.00 27.63 LIG 0.05  C 
ATOM     60  CG  PRO Q 636      25.719 -33.600  58.624  1.00 27.91 LIG 0.04  C 
ATOM     61  CD  PRO Q 636      24.571 -33.579  59.593  1.00 28.09 LIG 0.32  C 
ATOM     62  N   PRO Q 636      23.747 -34.724  59.166  1.00 27.47 LIG 0.32  N 
ENDBRANCH 56 58
ENDBRANCH 49 54
ENDBRANCH 47 49
ENDBRANCH 41 45
ENDBRANCH 38 41
ENDBRANCH 1 37
TORSDOF 25
ENDMDL
MODEL 21
USER: ADFR SOLUTION from run 102
USER: SCORE 17.358760 LL:  -3.396 LR: -16.260 RR:   0.000 FEB:  -8.803
USER: RMSD 9.627428
USER: SEED 101
USER: STATUS no improvement in best in 25 clusters for 5 generations
USER: GENES 27
USER: genes 0 Translation |==|  0.28274 0.53937 0.57967
USER: genes 1 Rotation |==|  0.91402 0.25761 0.55852 0.62811
USER: genes 2 Torsion [N]-CA--C-[N] |==|  0.09279
USER: genes 3 Torsion [C]-N--CA-[C] |==|  0.74426
USER: genes 4 Torsion [N]-CA--CB-[CG] |==|  0.62393
USER: genes 5 Torsion [CA]-CB--CG-[CD] |==|  0.20061
USER: genes 6 Torsion [CB]-CG--CD-[OE2] |==|  0.19015
USER: genes 7 Torsion [N]-CA--C-[N] |==|  0.13705
USER: genes 8 Torsion [C]-N--CA-[CB] |==|  0.18333
USER: genes 9 Torsion [N]-CA--CB-[CG1] |==|  0.71150
USER: genes 10 Torsion [N]-CA--C-[N] |==|  0.13802
USER: genes 11 Torsion [C]-N--CA-[CB] |==|  0.41403
USER: genes 12 Torsion [N]-CA--CB-[CG] |==|  0.11890
USER: genes 13 Torsion [CA]-CB--CG-[OD2] |==|  0.33720
USER: genes 14 Torsion [N]-CA--C-[O] |==|  0.85193
USER: genes 15 Torsion [C]-CA--CB-[CG] |==|  0.73071
USER: genes 16 Torsion [CA]-CB--CG-[CD] |==|  0.29952
USER: genes 17 Torsion [CB]-CG--CD-[OE2] |==|  0.87174
USER: genes 18 Torsion [C]-CA--N-[C] |==|  0.52965
USER: genes 19 Torsion [N]-C--CA-[N] |==|  0.84849
USER: genes 20 Torsion [C]-CA--CB-[CG1] |==|  0.80496
USER: genes 21 Torsion [C]-CA--N-[C] |==|  0.85432
USER: genes 22 Torsion [N]-C--CA-[N] |==|  0.33638
USER: genes 23 Torsion [C]-CA--CB-[CG2] |==|  0.31059
USER: genes 24 Torsion [CA]-CB--OG1-[HG1] |==|  0.17612
USER: genes 25 Torsion [C]-CA--N-[C] |==|  0.78431
USER: genes 26 Torsion [N]-C--CA-[CB] |==|  0.37692
ROOT
ATOM      1  CA  GLU Q 639      19.456 -36.987  56.315  1.00 17.71 LIG 0.18  C 
ENDROOT
BRANCH 1 2
ATOM      2  C   GLU Q 639      19.996 -37.240  54.911  1.00 15.36 LIG 0.24  C 
ATOM      3 O    GLU Q 639      20.297 -36.303  54.172  1.00 14.90 LIG-0.27  OA
ATOM      4  N   GLU Q 640      20.116 -38.513  54.550  1.00 12.94 LIG-0.35  N 
ATOM      5 H    GLU Q 640      19.909 -39.177  55.056  1.00 12.94 LIG 0.16  HD
BRANCH 4 6
ATOM      6  CA  GLU Q 640      20.618 -38.893  53.236  1.00 11.11 LIG 0.18  C 
BRANCH 6 7
ATOM      7  CB  GLU Q 640      21.423 -40.190  53.366  1.00 10.30 LIG 0.04  C 
BRANCH 7 8
ATOM      8  CG  GLU Q 640      22.746 -40.136  52.584  1.00 11.77 LIG 0.12  C 
BRANCH 8 9
ATOM      9  CD  GLU Q 640      23.807 -39.225  53.217  1.00 13.33 LIG 0.17  C 
ATOM     10 OE2  GLU Q 640      24.314 -39.573  54.303  1.00 13.21 LIG-0.65  OA
ATOM     11 OE1  GLU Q 640      24.127 -38.160  52.631  1.00 12.97 LIG-0.65  OA
ENDBRANCH 8 9
ENDBRANCH 7 8
ENDBRANCH 6 7
BRANCH 6 12
ATOM     12  C   GLU Q 640      19.470 -39.065  52.237  1.00  9.90 LIG 0.24  C 
ATOM     13  N   VAL Q 641      18.577 -38.068  52.180  1.00  8.06 LIG-0.35  N 
ATOM     14 H    VAL Q 641      18.544 -37.435  52.762  1.00  8.06 LIG 0.16  HD
ATOM     15 O    GLU Q 640      19.405 -40.089  51.538  1.00  9.48 LIG-0.27  OA
BRANCH 13 16
ATOM     16  CA  VAL Q 641      17.556 -37.944  51.116  1.00  6.68 LIG 0.18  C 
BRANCH 16 17
ATOM     17  CB  VAL Q 641      16.499 -39.090  51.149  1.00  5.82 LIG 0.01  C 
ATOM     18  CG2 VAL Q 641      16.441 -39.746  52.505  1.00  2.95 LIG 0.01  C 
ATOM     19  CG1 VAL Q 641      16.773 -40.074  50.063  1.00  4.23 LIG 0.01  C 
ENDBRANCH 16 17
BRANCH 16 20
ATOM     20  C   VAL Q 641      16.826 -36.583  51.149  1.00  6.62 LIG 0.24  C 
ATOM     21 O    VAL Q 641      15.602 -36.527  51.118  1.00  7.26 LIG-0.27  OA
ATOM     22  N   ASP Q 642      17.586 -35.501  51.210  1.00  6.11 LIG-0.34  N 
ATOM     23 H    ASP Q 642      18.445 -35.524  51.226  1.00  6.11 LIG 0.16  HD
BRANCH 22 24
ATOM     24  CA  ASP Q 642      17.027 -34.151  51.256  1.00  5.85 LIG 0.20  C 
BRANCH 24 25
ATOM     25  CB  ASP Q 642      17.959 -33.221  52.059  1.00  5.86 LIG 0.15  C 
BRANCH 25 26
ATOM     26  CG  ASP Q 642      19.456 -33.435  51.721  1.00  7.09 LIG 0.17  C 
ATOM     27 OD2  ASP Q 642      20.100 -32.460  51.292  1.00  7.75 LIG-0.65  OA
ATOM     28 OD1  ASP Q 642      19.992 -34.549  51.891  1.00  5.16 LIG-0.65  OA
ENDBRANCH 25 26
ENDBRANCH 24 25
BRANCH 24 29
ATOM     29  C   ASP Q 642      16.806 -33.600  49.832  1.00  5.53 LIG 0.20  C 
ATOM     30 O    ASP Q 642      17.722 -33.582  48.994  1.00  4.89 LIG-0.65  OA
ATOM     31 OXT  ASP Q 642      15.690 -33.188  49.476  1.00  5.08 LIG-0.65  OA
ENDBRANCH 24 29
ENDBRANCH 22 24
ENDBRANCH 16 20
ENDBRANCH 13 16
ENDBRANCH 6 12
ENDBRANCH 4 6
ENDBRANCH 1 2
BRANCH 1 32
ATOM     32  CB  GLU Q 639      19.908 -35.611  56.811  1.00 18.28 LIG 0.04  C 
BRANCH 32 33
ATOM     33  CG  GLU Q 639      21.144 -35.646  57.696  1.00 21.94 LIG 0.12  C 
BRANCH 33 34
ATOM     34  CD  GLU Q 639      22.374 -35.099  56.999  1.00 26.00 LIG 0.17  C 
ATOM     35 OE1  GLU Q 639      23.100 -34.292  57.618  1.00 25.44 LIG-0.65  OA
ATOM     36 OE2  GLU Q 639      22.617 -35.476  55.833  1.00 27.11 LIG-0.65  OA
ENDBRANCH 33 34
ENDBRANCH 32 33
ENDBRANCH 1 32
BRANCH 1 37
ATOM     37  N   GLU Q 639      19.884 -38.029  57.239  1.00 19.24 LIG-0.35  N 
ATOM     38  C   VAL Q 638      19.370 -38.135  58.460  1.00 20.97 LIG 0.24  C 
ATOM     39 O    VAL Q 638      18.506 -37.370  58.892  1.00 20.96 LIG-0.27  OA
ATOM     40 H    GLU Q 639      20.486 -38.557  56.925  1.00 19.24 LIG 0.16  HD
BRANCH 38 41
ATOM     41  CA  VAL Q 638      19.907 -39.273  59.322  1.00 22.03 LIG 0.18  C 
BRANCH 41 42
ATOM     42  CB  VAL Q 638      21.371 -38.974  59.693  1.00 22.63 LIG 0.01  C 
ATOM     43  CG1 VAL Q 638      22.266 -39.099  58.470  1.00 22.21 LIG 0.01  C 
ATOM     44  CG2 VAL Q 638      21.490 -37.588  60.309  1.00 20.65 LIG 0.01  C 
ENDBRANCH 41 42
BRANCH 41 45
ATOM     45  N   VAL Q 638      19.780 -40.555  58.641  1.00 23.53 LIG-0.35  N 
ATOM     46 H    VAL Q 638      20.532 -40.973  58.626  1.00 23.53 LIG 0.16  HD
ATOM     47  C   THR Q 637      18.701 -41.098  58.087  1.00 24.82 LIG 0.24  C 
ATOM     48 O    THR Q 637      17.755 -40.432  57.668  1.00 25.63 LIG-0.27  OA
BRANCH 47 49
ATOM     49  CA  THR Q 637      18.688 -42.620  57.990  1.00 25.03 LIG 0.20  C 
BRANCH 49 50
ATOM     50  CB  THR Q 637      18.405 -42.702  56.479  1.00 24.88 LIG 0.15  C 
ATOM     51  CG2 THR Q 637      19.614 -43.255  55.740  1.00 23.89 LIG 0.04  C 
BRANCH 50 52
ATOM     52 OG1  THR Q 637      17.277 -43.554  56.246  1.00 24.10 LIG-0.39  OA
ATOM     53 HG1  THR Q 637      16.593 -43.217  56.600  1.00 24.10 LIG 0.21  HD
ENDBRANCH 50 52
ENDBRANCH 49 50
BRANCH 49 54
ATOM     54  N   THR Q 637      17.472 -42.809  58.772  1.00 26.29 LIG-0.34  N 
ATOM     55 H    THR Q 637      16.770 -42.977  58.304  1.00 26.29 LIG 0.16  HD
ATOM     56  C   PRO Q 636      17.475 -42.724  60.099  1.00 27.07 LIG 0.25  C 
ATOM     57 O    PRO Q 636      18.485 -42.484  60.758  1.00 27.06 LIG-0.27  OA
BRANCH 56 58
ATOM     58  CA  PRO Q 636      16.139 -42.942  60.801  1.00 27.59 LIG 0.35  C 
ATOM     59  CB  PRO Q 636      16.324 -43.853  62.015  1.00 27.63 LIG 0.05  C 
ATOM     60  CG  PRO Q 636      15.055 -44.621  62.101  1.00 27.91 LIG 0.04  C 
ATOM     61  CD  PRO Q 636      14.610 -44.839  60.682  1.00 28.09 LIG 0.32  C 
ATOM     62  N   PRO Q 636      15.200 -43.695  59.964  1.00 27.47 LIG 0.32  N 
ENDBRANCH 56 58
ENDBRANCH 49 54
ENDBRANCH 47 49
ENDBRANCH 41 45
ENDBRANCH 38 41
ENDBRANCH 1 37
TORSDOF 25
ENDMDL
MODEL 22
USER: ADFR SOLUTION from run 84
USER: SCORE 20.183066 LL:  -4.314 LR: -16.251 RR:   0.000 FEB:  -8.794
USER: RMSD 7.456615
USER: SEED 83
USER: STATUS searching
USER: GENES 27
USER: genes 0 Translation |==|  0.35356 0.49855 0.52193
USER: genes 1 Rotation |==|  0.34089 0.59541 0.82581 0.83080
USER: genes 2 Torsion [N]-CA--C-[N] |==|  0.45326
USER: genes 3 Torsion [C]-N--CA-[C] |==|  0.80083
USER: genes 4 Torsion [N]-CA--CB-[CG] |==|  0.28648
USER: genes 5 Torsion [CA]-CB--CG-[CD] |==|  0.31621
USER: genes 6 Torsion [CB]-CG--CD-[OE2] |==|  0.06146
USER: genes 7 Torsion [N]-CA--C-[N] |==|  0.45000
USER: genes 8 Torsion [C]-N--CA-[CB] |==|  0.82542
USER: genes 9 Torsion [N]-CA--CB-[CG1] |==|  0.26544
USER: genes 10 Torsion [N]-CA--C-[N] |==|  0.41302
USER: genes 11 Torsion [C]-N--CA-[CB] |==|  0.48986
USER: genes 12 Torsion [N]-CA--CB-[CG] |==|  0.61272
USER: genes 13 Torsion [CA]-CB--CG-[OD2] |==|  0.03126
USER: genes 14 Torsion [N]-CA--C-[O] |==|  0.81387
USER: genes 15 Torsion [C]-CA--CB-[CG] |==|  0.64652
USER: genes 16 Torsion [CA]-CB--CG-[CD] |==|  0.25117
USER: genes 17 Torsion [CB]-CG--CD-[OE2] |==|  0.22913
USER: genes 18 Torsion [C]-CA--N-[C] |==|  0.61800
USER: genes 19 Torsion [N]-C--CA-[N] |==|  0.46664
USER: genes 20 Torsion [C]-CA--CB-[CG1] |==|  0.41035
USER: genes 21 Torsion [C]-CA--N-[C] |==|  0.60032
USER: genes 22 Torsion [N]-C--CA-[N] |==|  0.88526
USER: genes 23 Torsion [C]-CA--CB-[CG2] |==|  0.34328
USER: genes 24 Torsion [CA]-CB--OG1-[HG1] |==|  0.60594
USER: genes 25 Torsion [C]-CA--N-[C] |==|  0.79456
USER: genes 26 Torsion [N]-C--CA-[CB] |==|  0.00389
ROOT
ATOM      1  CA  GLU Q 639      20.731 -37.752  54.886  1.00 17.71 LIG 0.18  C 
ENDROOT
BRANCH 1 2
ATOM      2  C   GLU Q 639      21.298 -36.967  56.065  1.00 15.36 LIG 0.24  C 
ATOM      3 O    GLU Q 639      21.827 -35.869  55.895  1.00 14.90 LIG-0.27  OA
ATOM      4  N   GLU Q 640      21.183 -37.538  57.259  1.00 12.94 LIG-0.35  N 
ATOM      5 H    GLU Q 640      20.815 -38.304  57.390  1.00 12.94 LIG 0.16  HD
BRANCH 4 6
ATOM      6  CA  GLU Q 640      21.682 -36.895  58.467  1.00 11.11 LIG 0.18  C 
BRANCH 6 7
ATOM      7  CB  GLU Q 640      21.103 -37.613  59.690  1.00 10.30 LIG 0.04  C 
BRANCH 7 8
ATOM      8  CG  GLU Q 640      22.129 -38.543  60.359  1.00 11.77 LIG 0.12  C 
BRANCH 8 9
ATOM      9  CD  GLU Q 640      22.545 -38.101  61.769  1.00 13.33 LIG 0.17  C 
ATOM     10 OE2  GLU Q 640      21.777 -37.350  62.405  1.00 13.21 LIG-0.65  OA
ATOM     11 OE1  GLU Q 640      23.642 -38.499  62.236  1.00 12.97 LIG-0.65  OA
ENDBRANCH 8 9
ENDBRANCH 7 8
ENDBRANCH 6 7
BRANCH 6 12
ATOM     12  C   GLU Q 640      23.213 -36.909  58.504  1.00  9.90 LIG 0.24  C 
ATOM     13  N   VAL Q 641      23.796 -36.045  59.345  1.00  8.06 LIG-0.35  N 
ATOM     14 H    VAL Q 641      23.367 -35.410  59.735  1.00  8.06 LIG 0.16  HD
ATOM     15 O    GLU Q 640      23.842 -37.693  57.775  1.00  9.48 LIG-0.27  OA
BRANCH 13 16
ATOM     16  CA  VAL Q 641      25.234 -36.087  59.694  1.00  6.68 LIG 0.18  C 
BRANCH 16 17
ATOM     17  CB  VAL Q 641      25.645 -37.401  60.427  1.00  5.82 LIG 0.01  C 
ATOM     18  CG2 VAL Q 641      26.613 -37.124  61.550  1.00  2.95 LIG 0.01  C 
ATOM     19  CG1 VAL Q 641      26.189 -38.386  59.450  1.00  4.23 LIG 0.01  C 
ENDBRANCH 16 17
BRANCH 16 20
ATOM     20  C   VAL Q 641      26.149 -35.888  58.466  1.00  6.62 LIG 0.24  C 
ATOM     21 O    VAL Q 641      25.802 -36.273  57.356  1.00  7.26 LIG-0.27  OA
ATOM     22  N   ASP Q 642      27.310 -35.289  58.679  1.00  6.11 LIG-0.34  N 
ATOM     23 H    ASP Q 642      27.571 -35.019  59.453  1.00  6.11 LIG 0.16  HD
BRANCH 22 24
ATOM     24  CA  ASP Q 642      28.268 -35.029  57.606  1.00  5.85 LIG 0.20  C 
BRANCH 24 25
ATOM     25  CB  ASP Q 642      29.475 -34.242  58.155  1.00  5.86 LIG 0.15  C 
BRANCH 25 26
ATOM     26  CG  ASP Q 642      29.959 -33.133  57.187  1.00  7.09 LIG 0.17  C 
ATOM     27 OD2  ASP Q 642      29.232 -32.851  56.218  1.00  7.75 LIG-0.65  OA
ATOM     28 OD1  ASP Q 642      31.037 -32.539  57.392  1.00  5.16 LIG-0.65  OA
ENDBRANCH 25 26
ENDBRANCH 24 25
BRANCH 24 29
ATOM     29  C   ASP Q 642      28.731 -36.347  56.953  1.00  5.53 LIG 0.20  C 
ATOM     30 O    ASP Q 642      29.417 -37.175  57.575  1.00  4.89 LIG-0.65  OA
ATOM     31 OXT  ASP Q 642      28.400 -36.631  55.789  1.00  5.08 LIG-0.65  OA
ENDBRANCH 24 29
ENDBRANCH 22 24
ENDBRANCH 16 20
ENDBRANCH 13 16
ENDBRANCH 6 12
ENDBRANCH 4 6
ENDBRANCH 1 2
BRANCH 1 32
ATOM     32  CB  GLU Q 639      21.649 -38.929  54.548  1.00 18.28 LIG 0.04  C 
BRANCH 32 33
ATOM     33  CG  GLU Q 639      22.071 -38.989  53.089  1.00 21.94 LIG 0.12  C 
BRANCH 33 34
ATOM     34  CD  GLU Q 639      23.357 -38.231  52.822  1.00 26.00 LIG 0.17  C 
ATOM     35 OE1  GLU Q 639      23.280 -37.067  52.377  1.00 25.44 LIG-0.65  OA
ATOM     36 OE2  GLU Q 639      24.443 -38.799  53.059  1.00 27.11 LIG-0.65  OA
ENDBRANCH 33 34
ENDBRANCH 32 33
ENDBRANCH 1 32
BRANCH 1 37
ATOM     37  N   GLU Q 639      20.551 -36.895  53.722  1.00 19.24 LIG-0.35  N 
ATOM     38  C   VAL Q 638      19.463 -36.969  52.961  1.00 20.97 LIG 0.24  C 
ATOM     39 O    VAL Q 638      18.542 -37.756  53.183  1.00 20.96 LIG-0.27  OA
ATOM     40 H    GLU Q 639      21.200 -36.349  53.578  1.00 19.24 LIG 0.16  HD
BRANCH 38 41
ATOM     41  CA  VAL Q 638      19.404 -36.012  51.775  1.00 22.03 LIG 0.18  C 
BRANCH 41 42
ATOM     42  CB  VAL Q 638      19.250 -34.572  52.297  1.00 22.63 LIG 0.01  C 
ATOM     43  CG1 VAL Q 638      19.947 -33.592  51.365  1.00 22.21 LIG 0.01  C 
ATOM     44  CG2 VAL Q 638      17.779 -34.217  52.450  1.00 20.65 LIG 0.01  C 
ENDBRANCH 41 42
BRANCH 41 45
ATOM     45  N   VAL Q 638      18.323 -36.368  50.863  1.00 23.53 LIG-0.35  N 
ATOM     46 H    VAL Q 638      17.639 -36.661  51.294  1.00 23.53 LIG 0.16  HD
ATOM     47  C   THR Q 637      18.295 -36.290  49.537  1.00 24.82 LIG 0.24  C 
ATOM     48 O    THR Q 637      19.309 -36.327  48.841  1.00 25.63 LIG-0.27  OA
BRANCH 47 49
ATOM     49  CA  THR Q 637      16.916 -36.149  48.900  1.00 25.03 LIG 0.20  C 
BRANCH 49 50
ATOM     50  CB  THR Q 637      16.656 -34.701  49.354  1.00 24.88 LIG 0.15  C 
ATOM     51  CG2 THR Q 637      16.366 -33.811  48.154  1.00 23.89 LIG 0.04  C 
BRANCH 50 52
ATOM     52 OG1  THR Q 637      15.536 -34.671  50.248  1.00 24.10 LIG-0.39  OA
ATOM     53 HG1  THR Q 637      15.077 -33.983  50.099  1.00 24.10 LIG 0.21  HD
ENDBRANCH 50 52
ENDBRANCH 49 50
BRANCH 49 54
ATOM     54  N   THR Q 637      16.250 -37.110  49.771  1.00 26.29 LIG-0.34  N 
ATOM     55 H    THR Q 637      15.735 -36.756  50.362  1.00 26.29 LIG 0.16  HD
ATOM     56  C   PRO Q 636      16.441 -38.419  49.640  1.00 27.07 LIG 0.25  C 
ATOM     57 O    PRO Q 636      17.181 -38.913  48.791  1.00 27.06 LIG-0.27  OA
BRANCH 56 58
ATOM     58  CA  PRO Q 636      15.687 -39.319  50.613  1.00 27.59 LIG 0.35  C 
ATOM     59  CB  PRO Q 636      14.813 -38.475  51.541  1.00 27.63 LIG 0.05  C 
ATOM     60  CG  PRO Q 636      14.810 -39.221  52.827  1.00 27.91 LIG 0.04  C 
ATOM     61  CD  PRO Q 636      16.172 -39.843  52.945  1.00 28.09 LIG 0.32  C 
ATOM     62  N   PRO Q 636      16.594 -40.000  51.542  1.00 27.47 LIG 0.32  N 
ENDBRANCH 56 58
ENDBRANCH 49 54
ENDBRANCH 47 49
ENDBRANCH 41 45
ENDBRANCH 38 41
ENDBRANCH 1 37
TORSDOF 25
ENDMDL
MODEL 23
USER: ADFR SOLUTION from run 173
USER: SCORE 20.311284 LL:  -5.480 LR: -16.232 RR:   0.000 FEB:  -8.775
USER: RMSD 4.404883
USER: SEED 172
USER: STATUS no improvement in best in 11 clusters for 5 generations
USER: GENES 27
USER: genes 0 Translation |==|  0.47617 0.57610 0.37567
USER: genes 1 Rotation |==|  0.61294 0.46630 0.12896 0.81375
USER: genes 2 Torsion [N]-CA--C-[N] |==|  0.16340
USER: genes 3 Torsion [C]-N--CA-[C] |==|  0.67004
USER: genes 4 Torsion [N]-CA--CB-[CG] |==|  0.22162
USER: genes 5 Torsion [CA]-CB--CG-[CD] |==|  0.77366
USER: genes 6 Torsion [CB]-CG--CD-[OE2] |==|  0.21337
USER: genes 7 Torsion [N]-CA--C-[N] |==|  0.51078
USER: genes 8 Torsion [C]-N--CA-[CB] |==|  0.49444
USER: genes 9 Torsion [N]-CA--CB-[CG1] |==|  0.83208
USER: genes 10 Torsion [N]-CA--C-[N] |==|  0.44693
USER: genes 11 Torsion [C]-N--CA-[CB] |==|  0.26761
USER: genes 12 Torsion [N]-CA--CB-[CG] |==|  0.84262
USER: genes 13 Torsion [CA]-CB--CG-[OD2] |==|  0.27639
USER: genes 14 Torsion [N]-CA--C-[O] |==|  0.03650
USER: genes 15 Torsion [C]-CA--CB-[CG] |==|  0.30467
USER: genes 16 Torsion [CA]-CB--CG-[CD] |==|  0.77450
USER: genes 17 Torsion [CB]-CG--CD-[OE2] |==|  0.88916
USER: genes 18 Torsion [C]-CA--N-[C] |==|  0.73941
USER: genes 19 Torsion [N]-C--CA-[N] |==|  0.92476
USER: genes 20 Torsion [C]-CA--CB-[CG1] |==|  0.46765
USER: genes 21 Torsion [C]-CA--N-[C] |==|  0.83569
USER: genes 22 Torsion [N]-C--CA-[N] |==|  0.40911
USER: genes 23 Torsion [C]-CA--CB-[CG2] |==|  0.34844
USER: genes 24 Torsion [CA]-CB--OG1-[HG1] |==|  0.53587
USER: genes 25 Torsion [C]-CA--N-[C] |==|  0.79654
USER: genes 26 Torsion [N]-C--CA-[CB] |==|  0.90244
ROOT
ATOM      1  CA  GLU Q 639      22.938 -36.298  51.266  1.00 17.71 LIG 0.18  C 
ENDROOT
BRANCH 1 2
ATOM      2  C   GLU Q 639      21.694 -36.217  52.144  1.00 15.36 LIG 0.24  C 
ATOM      3 O    GLU Q 639      20.743 -35.501  51.827  1.00 14.90 LIG-0.27  OA
ATOM      4  N   GLU Q 640      21.706 -36.954  53.249  1.00 12.94 LIG-0.35  N 
ATOM      5 H    GLU Q 640      22.363 -37.457  53.482  1.00 12.94 LIG 0.16  HD
BRANCH 4 6
ATOM      6  CA  GLU Q 640      20.581 -36.967  54.175  1.00 11.11 LIG 0.18  C 
BRANCH 6 7
ATOM      7  CB  GLU Q 640      20.024 -38.391  54.263  1.00 10.30 LIG 0.04  C 
BRANCH 7 8
ATOM      8  CG  GLU Q 640      20.862 -39.287  55.192  1.00 11.77 LIG 0.12  C 
BRANCH 8 9
ATOM      9  CD  GLU Q 640      22.120 -39.866  54.530  1.00 13.33 LIG 0.17  C 
ATOM     10 OE2  GLU Q 640      23.108 -39.118  54.380  1.00 13.21 LIG-0.65  OA
ATOM     11 OE1  GLU Q 640      22.117 -41.066  54.155  1.00 12.97 LIG-0.65  OA
ENDBRANCH 8 9
ENDBRANCH 7 8
ENDBRANCH 6 7
BRANCH 6 12
ATOM     12  C   GLU Q 640      21.001 -36.462  55.558  1.00  9.90 LIG 0.24  C 
ATOM     13  N   VAL Q 641      20.067 -36.504  56.517  1.00  8.06 LIG-0.35  N 
ATOM     14 H    VAL Q 641      19.236 -36.657  56.354  1.00  8.06 LIG 0.16  HD
ATOM     15 O    GLU Q 640      22.155 -36.040  55.738  1.00  9.48 LIG-0.27  OA
BRANCH 13 16
ATOM     16  CA  VAL Q 641      20.358 -36.295  57.952  1.00  6.68 LIG 0.18  C 
BRANCH 16 17
ATOM     17  CB  VAL Q 641      19.083 -36.349  58.848  1.00  5.82 LIG 0.01  C 
ATOM     18  CG2 VAL Q 641      18.452 -37.718  58.825  1.00  2.95 LIG 0.01  C 
ATOM     19  CG1 VAL Q 641      18.123 -35.284  58.441  1.00  4.23 LIG 0.01  C 
ENDBRANCH 16 17
BRANCH 16 20
ATOM     20  C   VAL Q 641      21.400 -37.297  58.498  1.00  6.62 LIG 0.24  C 
ATOM     21 O    VAL Q 641      21.634 -38.343  57.905  1.00  7.26 LIG-0.27  OA
ATOM     22  N   ASP Q 642      22.011 -36.966  59.625  1.00  6.11 LIG-0.34  N 
ATOM     23 H    ASP Q 642      21.853 -36.239  60.055  1.00  6.11 LIG 0.16  HD
BRANCH 22 24
ATOM     24  CA  ASP Q 642      23.024 -37.817  60.247  1.00  5.85 LIG 0.20  C 
BRANCH 24 25
ATOM     25  CB  ASP Q 642      24.434 -37.346  59.835  1.00  5.86 LIG 0.15  C 
BRANCH 25 26
ATOM     26  CG  ASP Q 642      24.632 -37.319  58.298  1.00  7.09 LIG 0.17  C 
ATOM     27 OD2  ASP Q 642      24.526 -36.224  57.718  1.00  7.75 LIG-0.65  OA
ATOM     28 OD1  ASP Q 642      24.903 -38.366  57.676  1.00  5.16 LIG-0.65  OA
ENDBRANCH 25 26
ENDBRANCH 24 25
BRANCH 24 29
ATOM     29  C   ASP Q 642      22.877 -37.811  61.782  1.00  5.53 LIG 0.20  C 
ATOM     30 O    ASP Q 642      21.864 -37.354  62.336  1.00  4.89 LIG-0.65  OA
ATOM     31 OXT  ASP Q 642      23.761 -38.298  62.507  1.00  5.08 LIG-0.65  OA
ENDBRANCH 24 29
ENDBRANCH 22 24
ENDBRANCH 16 20
ENDBRANCH 13 16
ENDBRANCH 6 12
ENDBRANCH 4 6
ENDBRANCH 1 2
BRANCH 1 32
ATOM     32  CB  GLU Q 639      22.792 -35.369  50.059  1.00 18.28 LIG 0.04  C 
BRANCH 32 33
ATOM     33  CG  GLU Q 639      23.699 -34.150  50.099  1.00 21.94 LIG 0.12  C 
BRANCH 33 34
ATOM     34  CD  GLU Q 639      23.144 -33.039  50.969  1.00 26.00 LIG 0.17  C 
ATOM     35 OE1  GLU Q 639      23.935 -32.396  51.690  1.00 25.44 LIG-0.65  OA
ATOM     36 OE2  GLU Q 639      21.918 -32.808  50.930  1.00 27.11 LIG-0.65  OA
ENDBRANCH 33 34
ENDBRANCH 32 33
ENDBRANCH 1 32
BRANCH 1 37
ATOM     37  N   GLU Q 639      23.185 -37.667  50.830  1.00 19.24 LIG-0.35  N 
ATOM     38  C   VAL Q 638      24.000 -38.477  51.500  1.00 20.97 LIG 0.24  C 
ATOM     39 O    VAL Q 638      24.594 -38.134  52.522  1.00 20.96 LIG-0.27  OA
ATOM     40 H    GLU Q 639      22.763 -37.893  50.116  1.00 19.24 LIG 0.16  HD
BRANCH 38 41
ATOM     41  CA  VAL Q 638      24.167 -39.883  50.933  1.00 22.03 LIG 0.18  C 
BRANCH 41 42
ATOM     42  CB  VAL Q 638      25.435 -39.927  50.062  1.00 22.63 LIG 0.01  C 
ATOM     43  CG1 VAL Q 638      25.792 -41.365  49.716  1.00 22.21 LIG 0.01  C 
ATOM     44  CG2 VAL Q 638      25.241 -39.101  48.800  1.00 20.65 LIG 0.01  C 
ENDBRANCH 41 42
BRANCH 41 45
ATOM     45  N   VAL Q 638      22.987 -40.291  50.179  1.00 23.53 LIG-0.35  N 
ATOM     46 H    VAL Q 638      23.190 -40.476  49.364  1.00 23.53 LIG 0.16  HD
ATOM     47  C   THR Q 637      21.730 -40.397  50.597  1.00 24.82 LIG 0.24  C 
ATOM     48 O    THR Q 637      21.282 -39.754  51.546  1.00 25.63 LIG-0.27  OA
BRANCH 47 49
ATOM     49  CA  THR Q 637      20.846 -41.375  49.830  1.00 25.03 LIG 0.20  C 
BRANCH 49 50
ATOM     50  CB  THR Q 637      20.128 -40.325  48.962  1.00 24.88 LIG 0.15  C 
ATOM     51  CG2 THR Q 637      20.267 -40.669  47.486  1.00 23.89 LIG 0.04  C 
BRANCH 50 52
ATOM     52 OG1  THR Q 637      18.739 -40.281  49.310  1.00 24.10 LIG-0.39  OA
ATOM     53 HG1  THR Q 637      18.318 -39.846  48.728  1.00 24.10 LIG 0.21  HD
ENDBRANCH 50 52
ENDBRANCH 49 50
BRANCH 49 54
ATOM     54  N   THR Q 637      20.032 -41.770  50.973  1.00 26.29 LIG-0.34  N 
ATOM     55 H    THR Q 637      19.233 -41.451  50.968  1.00 26.29 LIG 0.16  HD
ATOM     56  C   PRO Q 636      20.510 -42.559  51.930  1.00 27.07 LIG 0.25  C 
ATOM     57 O    PRO Q 636      21.654 -43.010  51.926  1.00 27.06 LIG-0.27  OA
BRANCH 56 58
ATOM     58  CA  PRO Q 636      19.559 -42.900  53.073  1.00 27.59 LIG 0.35  C 
ATOM     59  CB  PRO Q 636      18.654 -41.705  53.378  1.00 27.63 LIG 0.05  C 
ATOM     60  CG  PRO Q 636      18.420 -41.782  54.844  1.00 27.91 LIG 0.04  C 
ATOM     61  CD  PRO Q 636      19.694 -42.314  55.436  1.00 28.09 LIG 0.32  C 
ATOM     62  N   PRO Q 636      20.275 -43.103  54.336  1.00 27.47 LIG 0.32  N 
ENDBRANCH 56 58
ENDBRANCH 49 54
ENDBRANCH 47 49
ENDBRANCH 41 45
ENDBRANCH 38 41
ENDBRANCH 1 37
TORSDOF 25
ENDMDL
MODEL 24
USER: ADFR SOLUTION from run 179
USER: SCORE 17.552592 LL:  -3.366 LR: -16.209 RR:   0.000 FEB:  -8.751
USER: RMSD 9.993485
USER: SEED 178
USER: STATUS no improvement in best in 17 clusters for 5 generations
USER: GENES 27
USER: genes 0 Translation |==|  0.29006 0.54463 0.56675
USER: genes 1 Rotation |==|  0.91243 0.26405 0.59971 0.61952
USER: genes 2 Torsion [N]-CA--C-[N] |==|  0.43696
USER: genes 3 Torsion [C]-N--CA-[C] |==|  0.61912
USER: genes 4 Torsion [N]-CA--CB-[CG] |==|  0.03205
USER: genes 5 Torsion [CA]-CB--CG-[CD] |==|  0.71276
USER: genes 6 Torsion [CB]-CG--CD-[OE2] |==|  0.79036
USER: genes 7 Torsion [N]-CA--C-[N] |==|  0.79042
USER: genes 8 Torsion [C]-N--CA-[CB] |==|  0.61913
USER: genes 9 Torsion [N]-CA--CB-[CG1] |==|  0.76337
USER: genes 10 Torsion [N]-CA--C-[N] |==|  0.27545
USER: genes 11 Torsion [C]-N--CA-[CB] |==|  0.33053
USER: genes 12 Torsion [N]-CA--CB-[CG] |==|  0.70220
USER: genes 13 Torsion [CA]-CB--CG-[OD2] |==|  0.23882
USER: genes 14 Torsion [N]-CA--C-[O] |==|  0.58180
USER: genes 15 Torsion [C]-CA--CB-[CG] |==|  0.72792
USER: genes 16 Torsion [CA]-CB--CG-[CD] |==|  0.26991
USER: genes 17 Torsion [CB]-CG--CD-[OE2] |==|  0.40477
USER: genes 18 Torsion [C]-CA--N-[C] |==|  0.52786
USER: genes 19 Torsion [N]-C--CA-[N] |==|  0.80885
USER: genes 20 Torsion [C]-CA--CB-[CG1] |==|  0.20260
USER: genes 21 Torsion [C]-CA--N-[C] |==|  0.75975
USER: genes 22 Torsion [N]-C--CA-[N] |==|  0.44531
USER: genes 23 Torsion [C]-CA--CB-[CG2] |==|  0.32042
USER: genes 24 Torsion [CA]-CB--OG1-[HG1] |==|  0.22303
USER: genes 25 Torsion [C]-CA--N-[C] |==|  0.73258
USER: genes 26 Torsion [N]-C--CA-[CB] |==|  0.52074
ROOT
ATOM      1  CA  GLU Q 639      19.588 -36.888  55.995  1.00 17.71 LIG 0.18  C 
ENDROOT
BRANCH 1 2
ATOM      2  C   GLU Q 639      20.345 -37.176  54.702  1.00 15.36 LIG 0.24  C 
ATOM      3 O    GLU Q 639      21.398 -37.813  54.716  1.00 14.90 LIG-0.27  OA
ATOM      4  N   GLU Q 640      19.801 -36.701  53.587  1.00 12.94 LIG-0.35  N 
ATOM      5 H    GLU Q 640      19.067 -36.255  53.564  1.00 12.94 LIG 0.16  HD
BRANCH 4 6
ATOM      6  CA  GLU Q 640      20.423 -36.906  52.284  1.00 11.11 LIG 0.18  C 
BRANCH 6 7
ATOM      7  CB  GLU Q 640      19.705 -38.051  51.564  1.00 10.30 LIG 0.04  C 
BRANCH 7 8
ATOM      8  CG  GLU Q 640      18.397 -38.452  52.266  1.00 11.77 LIG 0.12  C 
BRANCH 8 9
ATOM      9  CD  GLU Q 640      18.500 -39.749  53.082  1.00 13.33 LIG 0.17  C 
ATOM     10 OE2  GLU Q 640      18.517 -40.835  52.468  1.00 13.21 LIG-0.65  OA
ATOM     11 OE1  GLU Q 640      18.556 -39.679  54.336  1.00 12.97 LIG-0.65  OA
ENDBRANCH 8 9
ENDBRANCH 7 8
ENDBRANCH 6 7
BRANCH 6 12
ATOM     12  C   GLU Q 640      20.376 -35.625  51.447  1.00  9.90 LIG 0.24  C 
ATOM     13  N   VAL Q 641      19.192 -35.308  50.908  1.00  8.06 LIG-0.35  N 
ATOM     14 H    VAL Q 641      18.525 -35.851  50.892  1.00  8.06 LIG 0.16  HD
ATOM     15 O    GLU Q 640      21.405 -34.946  51.297  1.00  9.48 LIG-0.27  OA
BRANCH 13 16
ATOM     16  CA  VAL Q 641      18.901 -33.998  50.285  1.00  6.68 LIG 0.18  C 
BRANCH 16 17
ATOM     17  CB  VAL Q 641      17.501 -33.433  50.678  1.00  5.82 LIG 0.01  C 
ATOM     18  CG2 VAL Q 641      17.193 -33.688  52.131  1.00  2.95 LIG 0.01  C 
ATOM     19  CG1 VAL Q 641      16.452 -33.988  49.777  1.00  4.23 LIG 0.01  C 
ENDBRANCH 16 17
BRANCH 16 20
ATOM     20  C   VAL Q 641      19.979 -32.938  50.603  1.00  6.62 LIG 0.24  C 
ATOM     21 O    VAL Q 641      19.970 -32.333  51.668  1.00  7.26 LIG-0.27  OA
ATOM     22  N   ASP Q 642      20.895 -32.722  49.671  1.00  6.11 LIG-0.34  N 
ATOM     23 H    ASP Q 642      20.911 -33.134  48.916  1.00  6.11 LIG 0.16  HD
BRANCH 22 24
ATOM     24  CA  ASP Q 642      21.976 -31.754  49.843  1.00  5.85 LIG 0.20  C 
BRANCH 24 25
ATOM     25  CB  ASP Q 642      23.341 -32.470  49.774  1.00  5.86 LIG 0.15  C 
BRANCH 25 26
ATOM     26  CG  ASP Q 642      24.032 -32.578  51.158  1.00  7.09 LIG 0.17  C 
ATOM     27 OD2  ASP Q 642      23.735 -33.545  51.881  1.00  7.75 LIG-0.65  OA
ATOM     28 OD1  ASP Q 642      24.869 -31.725  51.516  1.00  5.16 LIG-0.65  OA
ENDBRANCH 25 26
ENDBRANCH 24 25
BRANCH 24 29
ATOM     29  C   ASP Q 642      21.893 -30.643  48.777  1.00  5.53 LIG 0.20  C 
ATOM     30 O    ASP Q 642      22.908 -30.056  48.370  1.00  4.89 LIG-0.65  OA
ATOM     31 OXT  ASP Q 642      20.802 -30.328  48.272  1.00  5.08 LIG-0.65  OA
ENDBRANCH 24 29
ENDBRANCH 22 24
ENDBRANCH 16 20
ENDBRANCH 13 16
ENDBRANCH 6 12
ENDBRANCH 4 6
ENDBRANCH 1 2
BRANCH 1 32
ATOM     32  CB  GLU Q 639      19.878 -35.462  56.468  1.00 18.28 LIG 0.04  C 
BRANCH 32 33
ATOM     33  CG  GLU Q 639      20.951 -35.369  57.539  1.00 21.94 LIG 0.12  C 
BRANCH 33 34
ATOM     34  CD  GLU Q 639      22.315 -35.031  56.970  1.00 26.00 LIG 0.17  C 
ATOM     35 OE1  GLU Q 639      22.617 -35.476  55.843  1.00 25.44 LIG-0.65  OA
ATOM     36 OE2  GLU Q 639      23.085 -34.319  57.649  1.00 27.11 LIG-0.65  OA
ENDBRANCH 33 34
ENDBRANCH 32 33
ENDBRANCH 1 32
BRANCH 1 37
ATOM     37  N   GLU Q 639      19.936 -37.851  57.033  1.00 19.24 LIG-0.35  N 
ATOM     38  C   VAL Q 638      19.261 -37.920  58.176  1.00 20.97 LIG 0.24  C 
ATOM     39 O    VAL Q 638      18.306 -37.186  58.436  1.00 20.96 LIG-0.27  OA
ATOM     40 H    GLU Q 639      20.603 -38.357  56.838  1.00 19.24 LIG 0.16  HD
BRANCH 38 41
ATOM     41  CA  VAL Q 638      19.731 -38.974  59.173  1.00 22.03 LIG 0.18  C 
BRANCH 41 42
ATOM     42  CB  VAL Q 638      21.232 -38.771  59.450  1.00 22.63 LIG 0.01  C 
ATOM     43  CG1 VAL Q 638      21.451 -37.536  60.312  1.00 22.21 LIG 0.01  C 
ATOM     44  CG2 VAL Q 638      21.820 -40.005  60.116  1.00 20.65 LIG 0.01  C 
ENDBRANCH 41 42
BRANCH 41 45
ATOM     45  N   VAL Q 638      19.455 -40.320  58.687  1.00 23.53 LIG-0.35  N 
ATOM     46 H    VAL Q 638      20.133 -40.642  58.268  1.00 23.53 LIG 0.16  HD
ATOM     47  C   THR Q 637      18.346 -41.039  58.819  1.00 24.82 LIG 0.24  C 
ATOM     48 O    THR Q 637      17.234 -40.536  58.979  1.00 25.63 LIG-0.27  OA
BRANCH 47 49
ATOM     49  CA  THR Q 637      18.515 -42.554  58.762  1.00 25.03 LIG 0.20  C 
BRANCH 49 50
ATOM     50  CB  THR Q 637      18.408 -42.690  57.232  1.00 24.88 LIG 0.15  C 
ATOM     51  CG2 THR Q 637      19.719 -43.194  56.649  1.00 23.89 LIG 0.04  C 
BRANCH 50 52
ATOM     52 OG1  THR Q 637      17.358 -43.609  56.904  1.00 24.10 LIG-0.39  OA
ATOM     53 HG1  THR Q 637      16.617 -43.217  56.953  1.00 24.10 LIG 0.21  HD
ENDBRANCH 50 52
ENDBRANCH 49 50
BRANCH 49 54
ATOM     54  N   THR Q 637      17.252 -42.871  59.417  1.00 26.29 LIG-0.34  N 
ATOM     55 H    THR Q 637      16.571 -42.879  58.892  1.00 26.29 LIG 0.16  HD
ATOM     56  C   PRO Q 636      17.185 -43.124  60.721  1.00 27.07 LIG 0.25  C 
ATOM     57 O    PRO Q 636      18.167 -43.110  61.463  1.00 27.06 LIG-0.27  OA
BRANCH 56 58
ATOM     58  CA  PRO Q 636      15.805 -43.442  61.286  1.00 27.59 LIG 0.35  C 
ATOM     59  CB  PRO Q 636      15.867 -43.524  62.811  1.00 27.63 LIG 0.05  C 
ATOM     60  CG  PRO Q 636      14.857 -44.554  63.169  1.00 27.91 LIG 0.04  C 
ATOM     61  CD  PRO Q 636      14.893 -45.567  62.060  1.00 28.09 LIG 0.32  C 
ATOM     62  N   PRO Q 636      15.354 -44.783  60.901  1.00 27.47 LIG 0.32  N 
ENDBRANCH 56 58
ENDBRANCH 49 54
ENDBRANCH 47 49
ENDBRANCH 41 45
ENDBRANCH 38 41
ENDBRANCH 1 37
TORSDOF 25
ENDMDL
MODEL 25
USER: ADFR SOLUTION from run 147
USER: SCORE 18.817753 LL:  -3.498 LR: -16.192 RR:   0.000 FEB:  -8.735
USER: RMSD 6.693707
USER: SEED 146
USER: STATUS 1 or 2 clusters left
USER: GENES 27
USER: genes 0 Translation |==|  0.32780 0.56444 0.52007
USER: genes 1 Rotation |==|  0.49959 0.88686 0.24615 0.68946
USER: genes 2 Torsion [N]-CA--C-[N] |==|  0.95444
USER: genes 3 Torsion [C]-N--CA-[C] |==|  0.14918
USER: genes 4 Torsion [N]-CA--CB-[CG] |==|  0.92695
USER: genes 5 Torsion [CA]-CB--CG-[CD] |==|  0.31015
USER: genes 6 Torsion [CB]-CG--CD-[OE2] |==|  0.14740
USER: genes 7 Torsion [N]-CA--C-[N] |==|  0.11894
USER: genes 8 Torsion [C]-N--CA-[CB] |==|  0.78306
USER: genes 9 Torsion [N]-CA--CB-[CG1] |==|  0.81352
USER: genes 10 Torsion [N]-CA--C-[N] |==|  0.20053
USER: genes 11 Torsion [C]-N--CA-[CB] |==|  0.37655
USER: genes 12 Torsion [N]-CA--CB-[CG] |==|  0.70045
USER: genes 13 Torsion [CA]-CB--CG-[OD2] |==|  0.41194
USER: genes 14 Torsion [N]-CA--C-[O] |==|  0.97586
USER: genes 15 Torsion [C]-CA--CB-[CG] |==|  0.13069
USER: genes 16 Torsion [CA]-CB--CG-[CD] |==|  0.16791
USER: genes 17 Torsion [CB]-CG--CD-[OE2] |==|  0.34643
USER: genes 18 Torsion [C]-CA--N-[C] |==|  0.64760
USER: genes 19 Torsion [N]-C--CA-[N] |==|  0.45892
USER: genes 20 Torsion [C]-CA--CB-[CG1] |==|  0.88437
USER: genes 21 Torsion [C]-CA--N-[C] |==|  0.76582
USER: genes 22 Torsion [N]-C--CA-[N] |==|  0.03202
USER: genes 23 Torsion [C]-CA--CB-[CG2] |==|  0.46006
USER: genes 24 Torsion [CA]-CB--OG1-[HG1] |==|  0.36712
USER: genes 25 Torsion [C]-CA--N-[C] |==|  0.67609
USER: genes 26 Torsion [N]-C--CA-[CB] |==|  0.01750
ROOT
ATOM      1  CA  GLU Q 639      20.267 -36.517  54.840  1.00 17.71 LIG 0.18  C 
ENDROOT
BRANCH 1 2
ATOM      2  C   GLU Q 639      20.831 -37.854  55.310  1.00 15.36 LIG 0.24  C 
ATOM      3 O    GLU Q 639      21.885 -37.906  55.944  1.00 14.90 LIG-0.27  OA
ATOM      4  N   GLU Q 640      20.123 -38.933  54.993  1.00 12.94 LIG-0.35  N 
ATOM      5 H    GLU Q 640      19.387 -38.910  54.551  1.00 12.94 LIG 0.16  HD
BRANCH 4 6
ATOM      6  CA  GLU Q 640      20.551 -40.271  55.381  1.00 11.11 LIG 0.18  C 
BRANCH 6 7
ATOM      7  CB  GLU Q 640      21.814 -40.638  54.597  1.00 10.30 LIG 0.04  C 
BRANCH 7 8
ATOM      8  CG  GLU Q 640      21.905 -39.890  53.257  1.00 11.77 LIG 0.12  C 
BRANCH 8 9
ATOM      9  CD  GLU Q 640      23.036 -38.853  53.197  1.00 13.33 LIG 0.17  C 
ATOM     10 OE2  GLU Q 640      24.193 -39.221  53.486  1.00 13.21 LIG-0.65  OA
ATOM     11 OE1  GLU Q 640      22.765 -37.671  52.867  1.00 12.97 LIG-0.65  OA
ENDBRANCH 8 9
ENDBRANCH 7 8
ENDBRANCH 6 7
BRANCH 6 12
ATOM     12  C   GLU Q 640      20.806 -40.350  56.889  1.00  9.90 LIG 0.24  C 
ATOM     13  N   VAL Q 641      19.907 -39.746  57.678  1.00  8.06 LIG-0.35  N 
ATOM     14 H    VAL Q 641      19.303 -39.213  57.376  1.00  8.06 LIG 0.16  HD
ATOM     15 O    GLU Q 640      21.806 -40.949  57.317  1.00  9.48 LIG-0.27  OA
BRANCH 13 16
ATOM     16  CA  VAL Q 641      19.854 -39.927  59.145  1.00  6.68 LIG 0.18  C 
BRANCH 16 17
ATOM     17  CB  VAL Q 641      19.189 -41.272  59.571  1.00  5.82 LIG 0.01  C 
ATOM     18  CG2 VAL Q 641      19.909 -42.454  58.975  1.00  2.95 LIG 0.01  C 
ATOM     19  CG1 VAL Q 641      17.741 -41.263  59.218  1.00  4.23 LIG 0.01  C 
ENDBRANCH 16 17
BRANCH 16 20
ATOM     20  C   VAL Q 641      21.247 -39.822  59.806  1.00  6.62 LIG 0.24  C 
ATOM     21 O    VAL Q 641      21.807 -40.818  60.249  1.00  7.26 LIG-0.27  OA
ATOM     22  N   ASP Q 642      21.787 -38.616  59.869  1.00  6.11 LIG-0.34  N 
ATOM     23 H    ASP Q 642      21.404 -37.907  59.569  1.00  6.11 LIG 0.16  HD
BRANCH 22 24
ATOM     24  CA  ASP Q 642      23.102 -38.374  60.460  1.00  5.85 LIG 0.20  C 
BRANCH 24 25
ATOM     25  CB  ASP Q 642      23.919 -37.425  59.560  1.00  5.86 LIG 0.15  C 
BRANCH 25 26
ATOM     26  CG  ASP Q 642      25.072 -38.148  58.817  1.00  7.09 LIG 0.17  C 
ATOM     27 OD2  ASP Q 642      25.394 -37.725  57.693  1.00  7.75 LIG-0.65  OA
ATOM     28 OD1  ASP Q 642      25.659 -39.114  59.347  1.00  5.16 LIG-0.65  OA
ENDBRANCH 25 26
ENDBRANCH 24 25
BRANCH 24 29
ATOM     29  C   ASP Q 642      22.966 -37.790  61.881  1.00  5.53 LIG 0.20  C 
ATOM     30 O    ASP Q 642      21.867 -37.431  62.333  1.00  4.89 LIG-0.65  OA
ATOM     31 OXT  ASP Q 642      23.955 -37.696  62.627  1.00  5.08 LIG-0.65  OA
ENDBRANCH 24 29
ENDBRANCH 22 24
ENDBRANCH 16 20
ENDBRANCH 13 16
ENDBRANCH 6 12
ENDBRANCH 4 6
ENDBRANCH 1 2
BRANCH 1 32
ATOM     32  CB  GLU Q 639      19.683 -35.747  56.026  1.00 18.28 LIG 0.04  C 
BRANCH 32 33
ATOM     33  CG  GLU Q 639      20.588 -35.706  57.246  1.00 21.94 LIG 0.12  C 
BRANCH 33 34
ATOM     34  CD  GLU Q 639      21.918 -35.037  56.963  1.00 26.00 LIG 0.17  C 
ATOM     35 OE1  GLU Q 639      22.617 -35.475  56.025  1.00 25.44 LIG-0.65  OA
ATOM     36 OE2  GLU Q 639      22.266 -34.073  57.677  1.00 27.11 LIG-0.65  OA
ENDBRANCH 33 34
ENDBRANCH 32 33
ENDBRANCH 1 32
BRANCH 1 37
ATOM     37  N   GLU Q 639      19.258 -36.706  53.806  1.00 19.24 LIG-0.35  N 
ATOM     38  C   VAL Q 638      19.329 -36.078  52.636  1.00 20.97 LIG 0.24  C 
ATOM     39 O    VAL Q 638      20.241 -35.302  52.347  1.00 20.96 LIG-0.27  OA
ATOM     40 H    GLU Q 639      18.628 -37.251  54.021  1.00 19.24 LIG 0.16  HD
BRANCH 38 41
ATOM     41  CA  VAL Q 638      18.206 -36.369  51.646  1.00 22.03 LIG 0.18  C 
BRANCH 41 42
ATOM     42  CB  VAL Q 638      18.369 -37.802  51.107  1.00 22.63 LIG 0.01  C 
ATOM     43  CG1 VAL Q 638      19.833 -38.097  50.817  1.00 22.21 LIG 0.01  C 
ATOM     44  CG2 VAL Q 638      17.802 -38.808  52.096  1.00 20.65 LIG 0.01  C 
ENDBRANCH 41 42
BRANCH 41 45
ATOM     45  N   VAL Q 638      18.188 -35.390  50.566  1.00 23.53 LIG-0.35  N 
ATOM     46 H    VAL Q 638      18.617 -35.681  49.879  1.00 23.53 LIG 0.16  HD
ATOM     47  C   THR Q 637      17.620 -34.189  50.542  1.00 24.82 LIG 0.24  C 
ATOM     48 O    THR Q 637      17.402 -33.531  51.558  1.00 25.63 LIG-0.27  OA
BRANCH 47 49
ATOM     49  CA  THR Q 637      17.242 -33.651  49.166  1.00 25.03 LIG 0.20  C 
BRANCH 49 50
ATOM     50  CB  THR Q 637      15.752 -33.412  49.469  1.00 24.88 LIG 0.15  C 
ATOM     51  CG2 THR Q 637      15.124 -32.535  48.397  1.00 23.89 LIG 0.04  C 
BRANCH 50 52
ATOM     52 OG1  THR Q 637      15.064 -34.668  49.518  1.00 24.10 LIG-0.39  OA
ATOM     53 HG1  THR Q 637      14.585 -34.698  50.207  1.00 24.10 LIG 0.21  HD
ENDBRANCH 50 52
ENDBRANCH 49 50
BRANCH 49 54
ATOM     54  N   THR Q 637      17.448 -34.905  48.453  1.00 26.29 LIG-0.34  N 
ATOM     55 H    THR Q 637      16.923 -35.542  48.694  1.00 26.29 LIG 0.16  HD
ATOM     56  C   PRO Q 636      18.379 -35.028  47.511  1.00 27.07 LIG 0.25  C 
ATOM     57 O    PRO Q 636      19.125 -34.110  47.174  1.00 27.06 LIG-0.27  OA
BRANCH 56 58
ATOM     58  CA  PRO Q 636      18.494 -36.392  46.839  1.00 27.59 LIG 0.35  C 
ATOM     59  CB  PRO Q 636      17.367 -37.310  47.313  1.00 27.63 LIG 0.05  C 
ATOM     60  CG  PRO Q 636      17.969 -38.669  47.312  1.00 27.91 LIG 0.04  C 
ATOM     61  CD  PRO Q 636      19.407 -38.481  47.705  1.00 28.09 LIG 0.32  C 
ATOM     62  N   PRO Q 636      19.702 -37.107  47.262  1.00 27.47 LIG 0.32  N 
ENDBRANCH 56 58
ENDBRANCH 49 54
ENDBRANCH 47 49
ENDBRANCH 41 45
ENDBRANCH 38 41
ENDBRANCH 1 37
TORSDOF 25
ENDMDL
MODEL 26
USER: ADFR SOLUTION from run 171
USER: SCORE 19.077737 LL:  -4.251 LR: -16.190 RR:   0.000 FEB:  -8.732
USER: RMSD 6.962255
USER: SEED 170
USER: STATUS no improvement in best in 3 clusters for 5 generations
USER: GENES 27
USER: genes 0 Translation |==|  0.33482 0.54003 0.54529
USER: genes 1 Rotation |==|  0.58489 0.82616 0.18051 0.68532
USER: genes 2 Torsion [N]-CA--C-[N] |==|  0.40967
USER: genes 3 Torsion [C]-N--CA-[C] |==|  0.63227
USER: genes 4 Torsion [N]-CA--CB-[CG] |==|  0.94791
USER: genes 5 Torsion [CA]-CB--CG-[CD] |==|  0.23955
USER: genes 6 Torsion [CB]-CG--CD-[OE2] |==|  0.00839
USER: genes 7 Torsion [N]-CA--C-[N] |==|  0.76453
USER: genes 8 Torsion [C]-N--CA-[CB] |==|  0.75430
USER: genes 9 Torsion [N]-CA--CB-[CG1] |==|  0.80828
USER: genes 10 Torsion [N]-CA--C-[N] |==|  0.19379
USER: genes 11 Torsion [C]-N--CA-[CB] |==|  0.39935
USER: genes 12 Torsion [N]-CA--CB-[CG] |==|  0.82248
USER: genes 13 Torsion [CA]-CB--CG-[OD2] |==|  0.23090
USER: genes 14 Torsion [N]-CA--C-[O] |==|  0.39864
USER: genes 15 Torsion [C]-CA--CB-[CG] |==|  0.19653
USER: genes 16 Torsion [CA]-CB--CG-[CD] |==|  0.16415
USER: genes 17 Torsion [CB]-CG--CD-[OE2] |==|  0.93776
USER: genes 18 Torsion [C]-CA--N-[C] |==|  0.63345
USER: genes 19 Torsion [N]-C--CA-[N] |==|  0.35286
USER: genes 20 Torsion [C]-CA--CB-[CG1] |==|  0.19692
USER: genes 21 Torsion [C]-CA--N-[C] |==|  0.79239
USER: genes 22 Torsion [N]-C--CA-[N] |==|  0.85645
USER: genes 23 Torsion [C]-CA--CB-[CG2] |==|  0.36506
USER: genes 24 Torsion [CA]-CB--OG1-[HG1] |==|  0.35598
USER: genes 25 Torsion [C]-CA--N-[C] |==|  0.80085
USER: genes 26 Torsion [N]-C--CA-[CB] |==|  0.60109
ROOT
ATOM      1  CA  GLU Q 639      20.394 -36.974  55.464  1.00 17.71 LIG 0.18  C 
ENDROOT
BRANCH 1 2
ATOM      2  C   GLU Q 639      20.288 -38.270  56.261  1.00 15.36 LIG 0.24  C 
ATOM      3 O    GLU Q 639      19.260 -38.948  56.230  1.00 14.90 LIG-0.27  OA
ATOM      4  N   GLU Q 640      21.355 -38.608  56.976  1.00 12.94 LIG-0.35  N 
ATOM      5 H    GLU Q 640      22.078 -38.144  57.007  1.00 12.94 LIG 0.16  HD
BRANCH 4 6
ATOM      6  CA  GLU Q 640      21.385 -39.822  57.783  1.00 11.11 LIG 0.18  C 
BRANCH 6 7
ATOM      7  CB  GLU Q 640      22.258 -40.866  57.080  1.00 10.30 LIG 0.04  C 
BRANCH 7 8
ATOM      8  CG  GLU Q 640      22.457 -40.550  55.588  1.00 11.77 LIG 0.12  C 
BRANCH 8 9
ATOM      9  CD  GLU Q 640      23.630 -39.600  55.304  1.00 13.33 LIG 0.17  C 
ATOM     10 OE2  GLU Q 640      24.334 -39.225  56.263  1.00 13.21 LIG-0.65  OA
ATOM     11 OE1  GLU Q 640      23.840 -39.225  54.123  1.00 12.97 LIG-0.65  OA
ENDBRANCH 8 9
ENDBRANCH 7 8
ENDBRANCH 6 7
BRANCH 6 12
ATOM     12  C   GLU Q 640      21.913 -39.532  59.191  1.00  9.90 LIG 0.24  C 
ATOM     13  N   VAL Q 641      23.245 -39.535  59.339  1.00  8.06 LIG-0.35  N 
ATOM     14 H    VAL Q 641      23.782 -39.827  58.735  1.00  8.06 LIG 0.16  HD
ATOM     15 O    GLU Q 640      21.117 -39.316  60.118  1.00  9.48 LIG-0.27  OA
BRANCH 13 16
ATOM     16  CA  VAL Q 641      23.933 -39.038  60.551  1.00  6.68 LIG 0.18  C 
BRANCH 16 17
ATOM     17  CB  VAL Q 641      24.249 -37.512  60.492  1.00  5.82 LIG 0.01  C 
ATOM     18  CG2 VAL Q 641      23.002 -36.701  60.248  1.00  2.95 LIG 0.01  C 
ATOM     19  CG1 VAL Q 641      25.299 -37.244  59.469  1.00  4.23 LIG 0.01  C 
ENDBRANCH 16 17
BRANCH 16 20
ATOM     20  C   VAL Q 641      23.146 -39.339  61.846  1.00  6.62 LIG 0.24  C 
ATOM     21 O    VAL Q 641      22.617 -38.436  62.483  1.00  7.26 LIG-0.27  OA
ATOM     22  N   ASP Q 642      23.079 -40.607  62.221  1.00  6.11 LIG-0.34  N 
ATOM     23 H    ASP Q 642      23.450 -41.251  61.788  1.00  6.11 LIG 0.16  HD
BRANCH 22 24
ATOM     24  CA  ASP Q 642      22.361 -41.034  63.420  1.00  5.85 LIG 0.20  C 
BRANCH 24 25
ATOM     25  CB  ASP Q 642      21.684 -42.398  63.172  1.00  5.86 LIG 0.15  C 
BRANCH 25 26
ATOM     26  CG  ASP Q 642      20.595 -42.335  62.071  1.00  7.09 LIG 0.17  C 
ATOM     27 OD2  ASP Q 642      20.962 -42.418  60.886  1.00  7.75 LIG-0.65  OA
ATOM     28 OD1  ASP Q 642      19.390 -42.220  62.378  1.00  5.16 LIG-0.65  OA
ENDBRANCH 25 26
ENDBRANCH 24 25
BRANCH 24 29
ATOM     29  C   ASP Q 642      23.312 -41.113  64.632  1.00  5.53 LIG 0.20  C 
ATOM     30 O    ASP Q 642      22.939 -40.794  65.772  1.00  4.89 LIG-0.65  OA
ATOM     31 OXT  ASP Q 642      24.475 -41.531  64.501  1.00  5.08 LIG-0.65  OA
ENDBRANCH 24 29
ENDBRANCH 22 24
ENDBRANCH 16 20
ENDBRANCH 13 16
ENDBRANCH 6 12
ENDBRANCH 4 6
ENDBRANCH 1 2
BRANCH 1 32
ATOM     32  CB  GLU Q 639      19.917 -35.794  56.314  1.00 18.28 LIG 0.04  C 
BRANCH 32 33
ATOM     33  CG  GLU Q 639      20.859 -35.427  57.449  1.00 21.94 LIG 0.12  C 
BRANCH 33 34
ATOM     34  CD  GLU Q 639      22.245 -35.058  56.961  1.00 26.00 LIG 0.17  C 
ATOM     35 OE1  GLU Q 639      22.967 -34.350  57.695  1.00 25.44 LIG-0.65  OA
ATOM     36 OE2  GLU Q 639      22.614 -35.475  55.843  1.00 27.11 LIG-0.65  OA
ENDBRANCH 33 34
ENDBRANCH 32 33
ENDBRANCH 1 32
BRANCH 1 37
ATOM     37  N   GLU Q 639      19.629 -37.055  54.226  1.00 19.24 LIG-0.35  N 
ATOM     38  C   VAL Q 638      20.148 -36.689  53.058  1.00 20.97 LIG 0.24  C 
ATOM     39 O    VAL Q 638      21.298 -36.263  52.941  1.00 20.96 LIG-0.27  OA
ATOM     40 H    GLU Q 639      18.828 -37.355  54.323  1.00 19.24 LIG 0.16  HD
BRANCH 38 41
ATOM     41  CA  VAL Q 638      19.237 -36.825  51.843  1.00 22.03 LIG 0.18  C 
BRANCH 41 42
ATOM     42  CB  VAL Q 638      19.747 -37.977  50.958  1.00 22.63 LIG 0.01  C 
ATOM     43  CG1 VAL Q 638      19.495 -39.317  51.633  1.00 22.21 LIG 0.01  C 
ATOM     44  CG2 VAL Q 638      19.083 -37.929  49.591  1.00 20.65 LIG 0.01  C 
ENDBRANCH 41 42
BRANCH 41 45
ATOM     45  N   VAL Q 638      19.159 -35.574  51.099  1.00 23.53 LIG-0.35  N 
ATOM     46 H    VAL Q 638      19.617 -35.618  50.373  1.00 23.53 LIG 0.16  HD
ATOM     47  C   THR Q 637      18.500 -34.463  51.410  1.00 24.82 LIG 0.24  C 
ATOM     48 O    THR Q 637      18.218 -34.151  52.567  1.00 25.63 LIG-0.27  OA
BRANCH 47 49
ATOM     49  CA  THR Q 637      18.100 -33.568  50.241  1.00 25.03 LIG 0.20  C 
BRANCH 49 50
ATOM     50  CB  THR Q 637      17.210 -34.598  49.522  1.00 24.88 LIG 0.15  C 
ATOM     51  CG2 THR Q 637      15.871 -33.979  49.151  1.00 23.89 LIG 0.04  C 
BRANCH 50 52
ATOM     52 OG1  THR Q 637      17.867 -35.055  48.333  1.00 24.10 LIG-0.39  OA
ATOM     53 HG1  THR Q 637      17.884 -35.895  48.328  1.00 24.10 LIG 0.21  HD
ENDBRANCH 50 52
ENDBRANCH 49 50
BRANCH 49 54
ATOM     54  N   THR Q 637      19.428 -33.500  49.644  1.00 26.29 LIG-0.34  N 
ATOM     55 H    THR Q 637      19.512 -33.942  48.910  1.00 26.29 LIG 0.16  HD
ATOM     56  C   PRO Q 636      20.412 -32.805  50.207  1.00 27.07 LIG 0.25  C 
ATOM     57 O    PRO Q 636      20.282 -32.177  51.256  1.00 27.06 LIG-0.27  OA
BRANCH 56 58
ATOM     58  CA  PRO Q 636      21.755 -32.813  49.484  1.00 27.59 LIG 0.35  C 
ATOM     59  CB  PRO Q 636      22.899 -32.827  50.498  1.00 27.63 LIG 0.05  C 
ATOM     60  CG  PRO Q 636      23.985 -32.050  49.844  1.00 27.91 LIG 0.04  C 
ATOM     61  CD  PRO Q 636      23.299 -30.976  49.049  1.00 28.09 LIG 0.32  C 
ATOM     62  N   PRO Q 636      21.984 -31.567  48.745  1.00 27.47 LIG 0.32  N 
ENDBRANCH 56 58
ENDBRANCH 49 54
ENDBRANCH 47 49
ENDBRANCH 41 45
ENDBRANCH 38 41
ENDBRANCH 1 37
TORSDOF 25
ENDMDL
MODEL 27
USER: ADFR SOLUTION from run 173
USER: SCORE 20.438291 LL:  -5.598 LR: -16.180 RR:   0.000 FEB:  -8.723
USER: RMSD 3.093338
USER: SEED 172
USER: STATUS no improvement in best in 11 clusters for 5 generations
USER: GENES 27
USER: genes 0 Translation |==|  0.39250 0.61855 0.36548
USER: genes 1 Rotation |==|  0.57680 0.50294 0.28963 0.94703
USER: genes 2 Torsion [N]-CA--C-[N] |==|  0.15601
USER: genes 3 Torsion [C]-N--CA-[C] |==|  0.61706
USER: genes 4 Torsion [N]-CA--CB-[CG] |==|  0.25605
USER: genes 5 Torsion [CA]-CB--CG-[CD] |==|  0.67631
USER: genes 6 Torsion [CB]-CG--CD-[OE2] |==|  0.18620
USER: genes 7 Torsion [N]-CA--C-[N] |==|  0.42417
USER: genes 8 Torsion [C]-N--CA-[CB] |==|  0.47802
USER: genes 9 Torsion [N]-CA--CB-[CG1] |==|  0.82277
USER: genes 10 Torsion [N]-CA--C-[N] |==|  0.42521
USER: genes 11 Torsion [C]-N--CA-[CB] |==|  0.28816
USER: genes 12 Torsion [N]-CA--CB-[CG] |==|  0.85534
USER: genes 13 Torsion [CA]-CB--CG-[OD2] |==|  0.24067
USER: genes 14 Torsion [N]-CA--C-[O] |==|  0.04893
USER: genes 15 Torsion [C]-CA--CB-[CG] |==|  0.25583
USER: genes 16 Torsion [CA]-CB--CG-[CD] |==|  0.01652
USER: genes 17 Torsion [CB]-CG--CD-[OE2] |==|  0.27121
USER: genes 18 Torsion [C]-CA--N-[C] |==|  0.76335
USER: genes 19 Torsion [N]-C--CA-[N] |==|  0.96424
USER: genes 20 Torsion [C]-CA--CB-[CG1] |==|  0.58002
USER: genes 21 Torsion [C]-CA--N-[C] |==|  0.81649
USER: genes 22 Torsion [N]-C--CA-[N] |==|  0.46187
USER: genes 23 Torsion [C]-CA--CB-[CG2] |==|  0.33178
USER: genes 24 Torsion [CA]-CB--OG1-[HG1] |==|  0.53596
USER: genes 25 Torsion [C]-CA--N-[C] |==|  0.77328
USER: genes 26 Torsion [N]-C--CA-[CB] |==|  0.90213
ROOT
ATOM      1  CA  GLU Q 639      21.432 -35.502  51.014  1.00 17.71 LIG 0.18  C 
ENDROOT
BRANCH 1 2
ATOM      2  C   GLU Q 639      20.571 -36.221  52.047  1.00 15.36 LIG 0.24  C 
ATOM      3 O    GLU Q 639      19.386 -36.468  51.820  1.00 14.90 LIG-0.27  OA
ATOM      4  N   GLU Q 640      21.174 -36.554  53.183  1.00 12.94 LIG-0.35  N 
ATOM      5 H    GLU Q 640      21.999 -36.387  53.355  1.00 12.94 LIG 0.16  HD
BRANCH 4 6
ATOM      6  CA  GLU Q 640      20.465 -37.244  54.254  1.00 11.11 LIG 0.18  C 
BRANCH 6 7
ATOM      7  CB  GLU Q 640      20.801 -38.737  54.192  1.00 10.30 LIG 0.04  C 
BRANCH 7 8
ATOM      8  CG  GLU Q 640      22.002 -39.100  55.081  1.00 11.77 LIG 0.12  C 
BRANCH 8 9
ATOM      9  CD  GLU Q 640      23.214 -39.633  54.304  1.00 13.33 LIG 0.17  C 
ATOM     10 OE2  GLU Q 640      23.820 -38.850  53.543  1.00 13.21 LIG-0.65  OA
ATOM     11 OE1  GLU Q 640      23.555 -40.834  54.449  1.00 12.97 LIG-0.65  OA
ENDBRANCH 8 9
ENDBRANCH 7 8
ENDBRANCH 6 7
BRANCH 6 12
ATOM     12  C   GLU Q 640      20.833 -36.661  55.621  1.00  9.90 LIG 0.24  C 
ATOM     13  N   VAL Q 641      19.907 -36.771  56.583  1.00  8.06 LIG-0.35  N 
ATOM     14 H    VAL Q 641      19.096 -37.012  56.428  1.00  8.06 LIG 0.16  HD
ATOM     15 O    GLU Q 640      21.938 -36.120  55.786  1.00  9.48 LIG-0.27  OA
BRANCH 13 16
ATOM     16  CA  VAL Q 641      20.176 -36.494  58.012  1.00  6.68 LIG 0.18  C 
BRANCH 16 17
ATOM     17  CB  VAL Q 641      18.888 -36.507  58.890  1.00  5.82 LIG 0.01  C 
ATOM     18  CG2 VAL Q 641      18.214 -37.856  58.856  1.00  2.95 LIG 0.01  C 
ATOM     19  CG1 VAL Q 641      17.968 -35.412  58.470  1.00  4.23 LIG 0.01  C 
ENDBRANCH 16 17
BRANCH 16 20
ATOM     20  C   VAL Q 641      21.211 -37.467  58.620  1.00  6.62 LIG 0.24  C 
ATOM     21 O    VAL Q 641      21.353 -38.596  58.165  1.00  7.26 LIG-0.27  OA
ATOM     22  N   ASP Q 642      21.919 -37.019  59.645  1.00  6.11 LIG-0.34  N 
ATOM     23 H    ASP Q 642      21.826 -36.232  59.980  1.00  6.11 LIG 0.16  HD
BRANCH 22 24
ATOM     24  CA  ASP Q 642      22.937 -37.830  60.310  1.00  5.85 LIG 0.20  C 
BRANCH 24 25
ATOM     25  CB  ASP Q 642      24.344 -37.370  59.877  1.00  5.86 LIG 0.15  C 
BRANCH 25 26
ATOM     26  CG  ASP Q 642      24.508 -37.309  58.337  1.00  7.09 LIG 0.17  C 
ATOM     27 OD2  ASP Q 642      24.169 -36.262  57.758  1.00  7.75 LIG-0.65  OA
ATOM     28 OD1  ASP Q 642      24.981 -38.280  57.711  1.00  5.16 LIG-0.65  OA
ENDBRANCH 25 26
ENDBRANCH 24 25
BRANCH 24 29
ATOM     29  C   ASP Q 642      22.788 -37.751  61.843  1.00  5.53 LIG 0.20  C 
ATOM     30 O    ASP Q 642      21.739 -37.350  62.373  1.00  4.89 LIG-0.65  OA
ATOM     31 OXT  ASP Q 642      23.708 -38.119  62.591  1.00  5.08 LIG-0.65  OA
ENDBRANCH 24 29
ENDBRANCH 22 24
ENDBRANCH 16 20
ENDBRANCH 13 16
ENDBRANCH 6 12
ENDBRANCH 4 6
ENDBRANCH 1 2
BRANCH 1 32
ATOM     32  CB  GLU Q 639      20.610 -35.210  49.756  1.00 18.28 LIG 0.04  C 
BRANCH 32 33
ATOM     33  CG  GLU Q 639      19.936 -33.847  49.758  1.00 21.94 LIG 0.12  C 
BRANCH 33 34
ATOM     34  CD  GLU Q 639      20.339 -33.000  50.949  1.00 26.00 LIG 0.17  C 
ATOM     35 OE1  GLU Q 639      19.754 -33.186  52.037  1.00 25.44 LIG-0.65  OA
ATOM     36 OE2  GLU Q 639      21.240 -32.148  50.798  1.00 27.11 LIG-0.65  OA
ENDBRANCH 33 34
ENDBRANCH 32 33
ENDBRANCH 1 32
BRANCH 1 37
ATOM     37  N   GLU Q 639      22.615 -36.284  50.680  1.00 19.24 LIG-0.35  N 
ATOM     38  C   VAL Q 638      23.725 -36.219  51.408  1.00 20.97 LIG 0.24  C 
ATOM     39 O    VAL Q 638      23.831 -35.502  52.405  1.00 20.96 LIG-0.27  OA
ATOM     40 H    GLU Q 639      22.528 -36.781  49.982  1.00 19.24 LIG 0.16  HD
BRANCH 38 41
ATOM     41  CA  VAL Q 638      24.888 -37.091  50.946  1.00 22.03 LIG 0.18  C 
BRANCH 41 42
ATOM     42  CB  VAL Q 638      26.008 -36.188  50.398  1.00 22.63 LIG 0.01  C 
ATOM     43  CG1 VAL Q 638      26.810 -36.923  49.335  1.00 22.21 LIG 0.01  C 
ATOM     44  CG2 VAL Q 638      25.425 -34.900  49.839  1.00 20.65 LIG 0.01  C 
ENDBRANCH 41 42
BRANCH 41 45
ATOM     45  N   VAL Q 638      24.453 -38.065  49.953  1.00 23.53 LIG-0.35  N 
ATOM     46 H    VAL Q 638      24.812 -37.908  49.187  1.00 23.53 LIG 0.16  HD
ATOM     47  C   THR Q 637      23.622 -39.092  50.104  1.00 24.82 LIG 0.24  C 
ATOM     48 O    THR Q 637      22.751 -39.127  50.972  1.00 25.63 LIG-0.27  OA
BRANCH 47 49
ATOM     49  CA  THR Q 637      23.801 -40.251  49.129  1.00 25.03 LIG 0.20  C 
BRANCH 49 50
ATOM     50  CB  THR Q 637      23.023 -39.624  47.958  1.00 24.88 LIG 0.15  C 
ATOM     51  CG2 THR Q 637      23.925 -39.462  46.745  1.00 23.89 LIG 0.04  C 
BRANCH 50 52
ATOM     52 OG1  THR Q 637      21.913 -40.463  47.615  1.00 24.10 LIG-0.39  OA
ATOM     53 HG1  THR Q 637      21.597 -40.220  46.875  1.00 24.10 LIG 0.21  HD
ENDBRANCH 50 52
ENDBRANCH 49 50
BRANCH 49 54
ATOM     54  N   THR Q 637      22.979 -41.199  49.872  1.00 26.29 LIG-0.34  N 
ATOM     55 H    THR Q 637      22.173 -41.275  49.580  1.00 26.29 LIG 0.16  HD
ATOM     56  C   PRO Q 636      23.459 -41.876  50.910  1.00 27.07 LIG 0.25  C 
ATOM     57 O    PRO Q 636      24.613 -41.758  51.318  1.00 27.06 LIG-0.27  OA
BRANCH 56 58
ATOM     58  CA  PRO Q 636      22.498 -42.837  51.603  1.00 27.59 LIG 0.35  C 
ATOM     59  CB  PRO Q 636      21.081 -42.262  51.592  1.00 27.63 LIG 0.05  C 
ATOM     60  CG  PRO Q 636      20.475 -42.745  52.861  1.00 27.91 LIG 0.04  C 
ATOM     61  CD  PRO Q 636      21.592 -42.768  53.866  1.00 28.09 LIG 0.32  C 
ATOM     62  N   PRO Q 636      22.792 -42.964  53.033  1.00 27.47 LIG 0.32  N 
ENDBRANCH 56 58
ENDBRANCH 49 54
ENDBRANCH 47 49
ENDBRANCH 41 45
ENDBRANCH 38 41
ENDBRANCH 1 37
TORSDOF 25
ENDMDL
MODEL 28
USER: ADFR SOLUTION from run 183
USER: SCORE 18.893899 LL:  -3.388 LR: -16.163 RR:   0.000 FEB:  -8.706
USER: RMSD 6.755287
USER: SEED 182
USER: STATUS no improvement in best in 12 clusters for 5 generations
USER: GENES 27
USER: genes 0 Translation |==|  0.35768 0.52729 0.52538
USER: genes 1 Rotation |==|  0.70189 0.84340 0.30106 0.72746
USER: genes 2 Torsion [N]-CA--C-[N] |==|  0.20439
USER: genes 3 Torsion [C]-N--CA-[C] |==|  0.71006
USER: genes 4 Torsion [N]-CA--CB-[CG] |==|  0.08295
USER: genes 5 Torsion [CA]-CB--CG-[CD] |==|  0.15036
USER: genes 6 Torsion [CB]-CG--CD-[OE2] |==|  0.21410
USER: genes 7 Torsion [N]-CA--C-[N] |==|  0.03124
USER: genes 8 Torsion [C]-N--CA-[CB] |==|  0.16824
USER: genes 9 Torsion [N]-CA--CB-[CG1] |==|  0.20504
USER: genes 10 Torsion [N]-CA--C-[N] |==|  0.09148
USER: genes 11 Torsion [C]-N--CA-[CB] |==|  0.86459
USER: genes 12 Torsion [N]-CA--CB-[CG] |==|  0.60734
USER: genes 13 Torsion [CA]-CB--CG-[OD2] |==|  0.14230
USER: genes 14 Torsion [N]-CA--C-[O] |==|  0.01808
USER: genes 15 Torsion [C]-CA--CB-[CG] |==|  0.30538
USER: genes 16 Torsion [CA]-CB--CG-[CD] |==|  0.15668
USER: genes 17 Torsion [CB]-CG--CD-[OE2] |==|  0.34945
USER: genes 18 Torsion [C]-CA--N-[C] |==|  0.76186
USER: genes 19 Torsion [N]-C--CA-[N] |==|  0.35165
USER: genes 20 Torsion [C]-CA--CB-[CG1] |==|  0.19536
USER: genes 21 Torsion [C]-CA--N-[C] |==|  0.63511
USER: genes 22 Torsion [N]-C--CA-[N] |==|  0.44479
USER: genes 23 Torsion [C]-CA--CB-[CG2] |==|  0.30632
USER: genes 24 Torsion [CA]-CB--OG1-[HG1] |==|  0.45595
USER: genes 25 Torsion [C]-CA--N-[C] |==|  0.58891
USER: genes 26 Torsion [N]-C--CA-[CB] |==|  0.97428
ROOT
ATOM      1  CA  GLU Q 639      20.805 -37.213  54.971  1.00 17.71 LIG 0.18  C 
ENDROOT
BRANCH 1 2
ATOM      2  C   GLU Q 639      20.504 -38.708  54.920  1.00 15.36 LIG 0.24  C 
ATOM      3 O    GLU Q 639      19.452 -39.155  55.378  1.00 14.90 LIG-0.27  OA
ATOM      4  N   GLU Q 640      21.434 -39.475  54.361  1.00 12.94 LIG-0.35  N 
ATOM      5 H    GLU Q 640      22.172 -39.175  54.038  1.00 12.94 LIG 0.16  HD
BRANCH 4 6
ATOM      6  CA  GLU Q 640      21.270 -40.919  54.249  1.00 11.11 LIG 0.18  C 
BRANCH 6 7
ATOM      7  CB  GLU Q 640      21.640 -41.353  52.827  1.00 10.30 LIG 0.04  C 
BRANCH 7 8
ATOM      8  CG  GLU Q 640      22.703 -40.438  52.196  1.00 11.77 LIG 0.12  C 
BRANCH 8 9
ATOM      9  CD  GLU Q 640      23.973 -40.280  53.044  1.00 13.33 LIG 0.17  C 
ATOM     10 OE2  GLU Q 640      24.802 -41.213  53.048  1.00 13.21 LIG-0.65  OA
ATOM     11 OE1  GLU Q 640      24.136 -39.227  53.711  1.00 12.97 LIG-0.65  OA
ENDBRANCH 8 9
ENDBRANCH 7 8
ENDBRANCH 6 7
BRANCH 6 12
ATOM     12  C   GLU Q 640      22.132 -41.651  55.282  1.00  9.90 LIG 0.24  C 
ATOM     13  N   VAL Q 641      22.686 -40.894  56.238  1.00  8.06 LIG-0.35  N 
ATOM     14 H    VAL Q 641      22.697 -40.034  56.207  1.00  8.06 LIG 0.16  HD
ATOM     15 O    GLU Q 640      22.286 -42.880  55.199  1.00  9.48 LIG-0.27  OA
BRANCH 13 16
ATOM     16  CA  VAL Q 641      23.335 -41.449  57.446  1.00  6.68 LIG 0.18  C 
BRANCH 16 17
ATOM     17  CB  VAL Q 641      24.551 -42.368  57.118  1.00  5.82 LIG 0.01  C 
ATOM     18  CG2 VAL Q 641      24.897 -43.260  58.284  1.00  2.95 LIG 0.01  C 
ATOM     19  CG1 VAL Q 641      25.714 -41.545  56.679  1.00  4.23 LIG 0.01  C 
ENDBRANCH 16 17
BRANCH 16 20
ATOM     20  C   VAL Q 641      23.785 -40.351  58.435  1.00  6.62 LIG 0.24  C 
ATOM     21 O    VAL Q 641      24.787 -40.500  59.124  1.00  7.26 LIG-0.27  OA
ATOM     22  N   ASP Q 642      23.036 -39.261  58.497  1.00  6.11 LIG-0.34  N 
ATOM     23 H    ASP Q 642      22.327 -39.145  58.025  1.00  6.11 LIG 0.16  HD
BRANCH 22 24
ATOM     24  CA  ASP Q 642      23.350 -38.142  59.382  1.00  5.85 LIG 0.20  C 
BRANCH 24 25
ATOM     25  CB  ASP Q 642      23.637 -38.660  60.807  1.00  5.86 LIG 0.15  C 
BRANCH 25 26
ATOM     26  CG  ASP Q 642      23.063 -37.733  61.909  1.00  7.09 LIG 0.17  C 
ATOM     27 OD2  ASP Q 642      21.867 -37.403  61.825  1.00  7.75 LIG-0.65  OA
ATOM     28 OD1  ASP Q 642      23.784 -37.350  62.853  1.00  5.16 LIG-0.65  OA
ENDBRANCH 25 26
ENDBRANCH 24 25
BRANCH 24 29
ATOM     29  C   ASP Q 642      24.552 -37.338  58.846  1.00  5.53 LIG 0.20  C 
ATOM     30 O    ASP Q 642      25.053 -37.582  57.736  1.00  4.89 LIG-0.65  OA
ATOM     31 OXT  ASP Q 642      25.031 -36.397  59.501  1.00  5.08 LIG-0.65  OA
ENDBRANCH 24 29
ENDBRANCH 22 24
ENDBRANCH 16 20
ENDBRANCH 13 16
ENDBRANCH 6 12
ENDBRANCH 4 6
ENDBRANCH 1 2
BRANCH 1 32
ATOM     32  CB  GLU Q 639      19.877 -36.524  55.974  1.00 18.28 LIG 0.04  C 
BRANCH 32 33
ATOM     33  CG  GLU Q 639      20.576 -36.037  57.233  1.00 21.94 LIG 0.12  C 
BRANCH 33 34
ATOM     34  CD  GLU Q 639      21.726 -35.095  56.934  1.00 26.00 LIG 0.17  C 
ATOM     35 OE1  GLU Q 639      22.617 -35.475  56.146  1.00 25.44 LIG-0.65  OA
ATOM     36 OE2  GLU Q 639      21.738 -33.975  57.486  1.00 27.11 LIG-0.65  OA
ENDBRANCH 33 34
ENDBRANCH 32 33
ENDBRANCH 1 32
BRANCH 1 37
ATOM     37  N   GLU Q 639      20.675 -36.605  53.653  1.00 19.24 LIG-0.35  N 
ATOM     38  C   VAL Q 638      21.680 -36.601  52.783  1.00 20.97 LIG 0.24  C 
ATOM     39 O    VAL Q 638      22.778 -37.105  53.025  1.00 20.96 LIG-0.27  OA
ATOM     40 H    GLU Q 639      19.903 -36.259  53.497  1.00 19.24 LIG 0.16  HD
BRANCH 38 41
ATOM     41  CA  VAL Q 638      21.406 -35.931  51.440  1.00 22.03 LIG 0.18  C 
BRANCH 41 42
ATOM     42  CB  VAL Q 638      21.346 -37.009  50.343  1.00 22.63 LIG 0.01  C 
ATOM     43  CG1 VAL Q 638      20.090 -37.854  50.496  1.00 22.21 LIG 0.01  C 
ATOM     44  CG2 VAL Q 638      21.400 -36.367  48.965  1.00 20.65 LIG 0.01  C 
ENDBRANCH 41 42
BRANCH 41 45
ATOM     45  N   VAL Q 638      22.412 -34.920  51.141  1.00 23.53 LIG-0.35  N 
ATOM     46 H    VAL Q 638      23.206 -35.228  51.259  1.00 23.53 LIG 0.16  HD
ATOM     47  C   THR Q 637      22.235 -33.667  50.735  1.00 24.82 LIG 0.24  C 
ATOM     48 O    THR Q 637      21.212 -33.024  50.969  1.00 25.63 LIG-0.27  OA
BRANCH 47 49
ATOM     49  CA  THR Q 637      23.384 -33.046  49.947  1.00 25.03 LIG 0.20  C 
BRANCH 49 50
ATOM     50  CB  THR Q 637      24.173 -32.523  51.162  1.00 24.88 LIG 0.15  C 
ATOM     51  CG2 THR Q 637      25.459 -33.316  51.343  1.00 23.89 LIG 0.04  C 
BRANCH 50 52
ATOM     52 OG1  THR Q 637      24.492 -31.140  50.970  1.00 24.10 LIG-0.39  OA
ATOM     53 HG1  THR Q 637      24.723 -30.801  51.703  1.00 24.10 LIG 0.21  HD
ENDBRANCH 50 52
ENDBRANCH 49 50
BRANCH 49 54
ATOM     54  N   THR Q 637      22.590 -31.989  49.332  1.00 26.29 LIG-0.34  N 
ATOM     55 H    THR Q 637      21.940 -31.704  49.817  1.00 26.29 LIG 0.16  HD
ATOM     56  C   PRO Q 636      22.869 -31.524  48.118  1.00 27.07 LIG 0.25  C 
ATOM     57 O    PRO Q 636      23.801 -31.940  47.432  1.00 27.06 LIG-0.27  OA
BRANCH 56 58
ATOM     58  CA  PRO Q 636      21.963 -30.419  47.585  1.00 27.59 LIG 0.35  C 
ATOM     59  CB  PRO Q 636      20.757 -30.237  48.508  1.00 27.63 LIG 0.05  C 
ATOM     60  CG  PRO Q 636      19.650 -29.841  47.598  1.00 27.91 LIG 0.04  C 
ATOM     61  CD  PRO Q 636      19.888 -30.585  46.314  1.00 28.09 LIG 0.32  C 
ATOM     62  N   PRO Q 636      21.348 -30.787  46.307  1.00 27.47 LIG 0.32  N 
ENDBRANCH 56 58
ENDBRANCH 49 54
ENDBRANCH 47 49
ENDBRANCH 41 45
ENDBRANCH 38 41
ENDBRANCH 1 37
TORSDOF 25
ENDMDL
MODEL 29
USER: ADFR SOLUTION from run 18
USER: SCORE 17.952145 LL:  -4.164 LR: -16.134 RR:   0.000 FEB:  -8.676
USER: RMSD 6.289901
USER: SEED 17
USER: STATUS searching
USER: GENES 27
USER: genes 0 Translation |==|  0.31431 0.51661 0.56708
USER: genes 1 Rotation |==|  0.71155 0.73341 0.15380 0.67581
USER: genes 2 Torsion [N]-CA--C-[N] |==|  0.11016
USER: genes 3 Torsion [C]-N--CA-[C] |==|  0.85492
USER: genes 4 Torsion [N]-CA--CB-[CG] |==|  0.72913
USER: genes 5 Torsion [CA]-CB--CG-[CD] |==|  0.12716
USER: genes 6 Torsion [CB]-CG--CD-[OE2] |==|  0.15229
USER: genes 7 Torsion [N]-CA--C-[N] |==|  0.87962
USER: genes 8 Torsion [C]-N--CA-[CB] |==|  0.24871
USER: genes 9 Torsion [N]-CA--CB-[CG1] |==|  0.72062
USER: genes 10 Torsion [N]-CA--C-[N] |==|  0.27868
USER: genes 11 Torsion [C]-N--CA-[CB] |==|  0.29256
USER: genes 12 Torsion [N]-CA--CB-[CG] |==|  0.77377
USER: genes 13 Torsion [CA]-CB--CG-[OD2] |==|  0.71261
USER: genes 14 Torsion [N]-CA--C-[O] |==|  0.40063
USER: genes 15 Torsion [C]-CA--CB-[CG] |==|  0.27106
USER: genes 16 Torsion [CA]-CB--CG-[CD] |==|  0.25156
USER: genes 17 Torsion [CB]-CG--CD-[OE2] |==|  0.88444
USER: genes 18 Torsion [C]-CA--N-[C] |==|  0.56963
USER: genes 19 Torsion [N]-C--CA-[N] |==|  0.29269
USER: genes 20 Torsion [C]-CA--CB-[CG1] |==|  0.27776
USER: genes 21 Torsion [C]-CA--N-[C] |==|  0.76968
USER: genes 22 Torsion [N]-C--CA-[N] |==|  0.94658
USER: genes 23 Torsion [C]-CA--CB-[CG2] |==|  0.40733
USER: genes 24 Torsion [CA]-CB--OG1-[HG1] |==|  0.33994
USER: genes 25 Torsion [C]-CA--N-[C] |==|  0.68348
USER: genes 26 Torsion [N]-C--CA-[CB] |==|  0.81537
ROOT
ATOM      1  CA  GLU Q 639      20.025 -37.414  56.003  1.00 17.71 LIG 0.18  C 
ENDROOT
BRANCH 1 2
ATOM      2  C   GLU Q 639      19.050 -38.361  56.695  1.00 15.36 LIG 0.24  C 
ATOM      3 O    GLU Q 639      18.518 -38.051  57.762  1.00 14.90 LIG-0.27  OA
ATOM      4  N   GLU Q 640      18.820 -39.517  56.082  1.00 12.94 LIG-0.35  N 
ATOM      5 H    GLU Q 640      19.185 -39.745  55.338  1.00 12.94 LIG 0.16  HD
BRANCH 4 6
ATOM      6  CA  GLU Q 640      17.911 -40.511  56.637  1.00 11.11 LIG 0.18  C 
BRANCH 6 7
ATOM      7  CB  GLU Q 640      17.969 -41.776  55.775  1.00 10.30 LIG 0.04  C 
BRANCH 7 8
ATOM      8  CG  GLU Q 640      16.824 -41.836  54.750  1.00 11.77 LIG 0.12  C 
BRANCH 8 9
ATOM      9  CD  GLU Q 640      16.596 -40.520  53.994  1.00 13.33 LIG 0.17  C 
ATOM     10 OE2  GLU Q 640      17.562 -40.008  53.392  1.00 13.21 LIG-0.65  OA
ATOM     11 OE1  GLU Q 640      15.453 -39.997  54.008  1.00 12.97 LIG-0.65  OA
ENDBRANCH 8 9
ENDBRANCH 7 8
ENDBRANCH 6 7
BRANCH 6 12
ATOM     12  C   GLU Q 640      18.266 -40.829  58.092  1.00  9.90 LIG 0.24  C 
ATOM     13  N   VAL Q 641      19.568 -40.986  58.366  1.00  8.06 LIG-0.35  N 
ATOM     14 H    VAL Q 641      20.169 -41.059  57.756  1.00  8.06 LIG 0.16  HD
ATOM     15 O    GLU Q 640      17.366 -40.932  58.941  1.00  9.48 LIG-0.27  OA
BRANCH 13 16
ATOM     16  CA  VAL Q 641      20.112 -41.049  59.741  1.00  6.68 LIG 0.18  C 
BRANCH 16 17
ATOM     17  CB  VAL Q 641      20.154 -42.499  60.315  1.00  5.82 LIG 0.01  C 
ATOM     18  CG2 VAL Q 641      20.207 -43.525  59.212  1.00  2.95 LIG 0.01  C 
ATOM     19  CG1 VAL Q 641      19.001 -42.722  61.232  1.00  4.23 LIG 0.01  C 
ENDBRANCH 16 17
BRANCH 16 20
ATOM     20  C   VAL Q 641      21.520 -40.423  59.851  1.00  6.62 LIG 0.24  C 
ATOM     21 O    VAL Q 641      22.514 -41.049  59.503  1.00  7.26 LIG-0.27  OA
ATOM     22  N   ASP Q 642      21.589 -39.193  60.337  1.00  6.11 LIG-0.34  N 
ATOM     23 H    ASP Q 642      20.901 -38.744  60.591  1.00  6.11 LIG 0.16  HD
BRANCH 22 24
ATOM     24  CA  ASP Q 642      22.854 -38.478  60.488  1.00  5.85 LIG 0.20  C 
BRANCH 24 25
ATOM     25  CB  ASP Q 642      22.985 -37.400  59.393  1.00  5.86 LIG 0.15  C 
BRANCH 25 26
ATOM     26  CG  ASP Q 642      23.476 -37.975  58.040  1.00  7.09 LIG 0.17  C 
ATOM     27 OD2  ASP Q 642      24.663 -37.781  57.723  1.00  7.75 LIG-0.65  OA
ATOM     28 OD1  ASP Q 642      22.701 -38.623  57.308  1.00  5.16 LIG-0.65  OA
ENDBRANCH 25 26
ENDBRANCH 24 25
BRANCH 24 29
ATOM     29  C   ASP Q 642      22.963 -37.844  61.889  1.00  5.53 LIG 0.20  C 
ATOM     30 O    ASP Q 642      24.048 -37.779  62.490  1.00  4.89 LIG-0.65  OA
ATOM     31 OXT  ASP Q 642      21.967 -37.350  62.443  1.00  5.08 LIG-0.65  OA
ENDBRANCH 24 29
ENDBRANCH 22 24
ENDBRANCH 16 20
ENDBRANCH 13 16
ENDBRANCH 6 12
ENDBRANCH 4 6
ENDBRANCH 1 2
BRANCH 1 32
ATOM     32  CB  GLU Q 639      19.865 -35.996  56.559  1.00 18.28 LIG 0.04  C 
BRANCH 32 33
ATOM     33  CG  GLU Q 639      20.877 -35.633  57.633  1.00 21.94 LIG 0.12  C 
BRANCH 33 34
ATOM     34  CD  GLU Q 639      22.129 -34.997  57.062  1.00 26.00 LIG 0.17  C 
ATOM     35 OE1  GLU Q 639      22.626 -34.020  57.660  1.00 25.44 LIG-0.65  OA
ATOM     36 OE2  GLU Q 639      22.617 -35.475  56.017  1.00 27.11 LIG-0.65  OA
ENDBRANCH 33 34
ENDBRANCH 32 33
ENDBRANCH 1 32
BRANCH 1 37
ATOM     37  N   GLU Q 639      19.829 -37.421  54.559  1.00 19.24 LIG-0.35  N 
ATOM     38  C   VAL Q 638      20.808 -37.097  53.720  1.00 20.97 LIG 0.24  C 
ATOM     39 O    VAL Q 638      21.934 -36.773  54.097  1.00 20.96 LIG-0.27  OA
ATOM     40 H    GLU Q 639      19.039 -37.651  54.309  1.00 19.24 LIG 0.16  HD
BRANCH 38 41
ATOM     41  CA  VAL Q 638      20.466 -37.149  52.234  1.00 22.03 LIG 0.18  C 
BRANCH 41 42
ATOM     42  CB  VAL Q 638      21.561 -37.936  51.492  1.00 22.63 LIG 0.01  C 
ATOM     43  CG1 VAL Q 638      21.104 -39.363  51.229  1.00 22.21 LIG 0.01  C 
ATOM     44  CG2 VAL Q 638      21.928 -37.238  50.192  1.00 20.65 LIG 0.01  C 
ENDBRANCH 41 42
BRANCH 41 45
ATOM     45  N   VAL Q 638      20.305 -35.809  51.684  1.00 23.53 LIG-0.35  N 
ATOM     46 H    VAL Q 638      21.028 -35.544  51.299  1.00 23.53 LIG 0.16  HD
ATOM     47  C   THR Q 637      19.237 -35.020  51.716  1.00 24.82 LIG 0.24  C 
ATOM     48 O    THR Q 637      18.369 -35.102  52.584  1.00 25.63 LIG-0.27  OA
BRANCH 47 49
ATOM     49  CA  THR Q 637      19.132 -33.982  50.603  1.00 25.03 LIG 0.20  C 
BRANCH 49 50
ATOM     50  CB  THR Q 637      18.278 -34.832  49.644  1.00 24.88 LIG 0.15  C 
ATOM     51  CG2 THR Q 637      17.326 -33.948  48.853  1.00 23.89 LIG 0.04  C 
BRANCH 50 52
ATOM     52 OG1  THR Q 637      19.133 -35.539  48.738  1.00 24.10 LIG-0.39  OA
ATOM     53 HG1  THR Q 637      18.990 -36.365  48.804  1.00 24.10 LIG 0.21  HD
ENDBRANCH 50 52
ENDBRANCH 49 50
BRANCH 49 54
ATOM     54  N   THR Q 637      20.542 -34.015  50.234  1.00 26.29 LIG-0.34  N 
ATOM     55 H    THR Q 637      20.804 -34.761  49.897  1.00 26.29 LIG 0.16  HD
ATOM     56  C   PRO Q 636      21.335 -32.963  50.415  1.00 27.07 LIG 0.25  C 
ATOM     57 O    PRO Q 636      20.949 -31.900  50.899  1.00 27.06 LIG-0.27  OA
BRANCH 56 58
ATOM     58  CA  PRO Q 636      22.791 -33.124  49.989  1.00 27.59 LIG 0.35  C 
ATOM     59  CB  PRO Q 636      23.488 -34.154  50.878  1.00 27.63 LIG 0.05  C 
ATOM     60  CG  PRO Q 636      24.892 -33.673  50.973  1.00 27.91 LIG 0.04  C 
ATOM     61  CD  PRO Q 636      24.812 -32.172  50.966  1.00 28.09 LIG 0.32  C 
ATOM     62  N   PRO Q 636      23.566 -31.903  50.227  1.00 27.47 LIG 0.32  N 
ENDBRANCH 56 58
ENDBRANCH 49 54
ENDBRANCH 47 49
ENDBRANCH 41 45
ENDBRANCH 38 41
ENDBRANCH 1 37
TORSDOF 25
ENDMDL
MODEL 30
USER: ADFR SOLUTION from run 80
USER: SCORE 20.856031 LL:  -5.299 LR: -16.113 RR:   0.000 FEB:  -8.655
USER: RMSD 7.940025
USER: SEED 79
USER: STATUS no improvement in best in 9 clusters for 5 generations
USER: GENES 27
USER: genes 0 Translation |==|  0.38131 0.51470 0.51859
USER: genes 1 Rotation |==|  0.30420 0.58352 0.11276 0.73394
USER: genes 2 Torsion [N]-CA--C-[N] |==|  0.98077
USER: genes 3 Torsion [C]-N--CA-[C] |==|  0.78768
USER: genes 4 Torsion [N]-CA--CB-[CG] |==|  0.32546
USER: genes 5 Torsion [CA]-CB--CG-[CD] |==|  0.32343
USER: genes 6 Torsion [CB]-CG--CD-[OE2] |==|  0.54449
USER: genes 7 Torsion [N]-CA--C-[N] |==|  0.42222
USER: genes 8 Torsion [C]-N--CA-[CB] |==|  0.82666
USER: genes 9 Torsion [N]-CA--CB-[CG1] |==|  0.27117
USER: genes 10 Torsion [N]-CA--C-[N] |==|  0.40221
USER: genes 11 Torsion [C]-N--CA-[CB] |==|  0.51044
USER: genes 12 Torsion [N]-CA--CB-[CG] |==|  0.68845
USER: genes 13 Torsion [CA]-CB--CG-[OD2] |==|  0.50331
USER: genes 14 Torsion [N]-CA--C-[O] |==|  0.29446
USER: genes 15 Torsion [C]-CA--CB-[CG] |==|  0.41046
USER: genes 16 Torsion [CA]-CB--CG-[CD] |==|  0.72302
USER: genes 17 Torsion [CB]-CG--CD-[OE2] |==|  0.77573
USER: genes 18 Torsion [C]-CA--N-[C] |==|  0.76788
USER: genes 19 Torsion [N]-C--CA-[N] |==|  0.90326
USER: genes 20 Torsion [C]-CA--CB-[CG1] |==|  0.45023
USER: genes 21 Torsion [C]-CA--N-[C] |==|  0.65585
USER: genes 22 Torsion [N]-C--CA-[N] |==|  0.87326
USER: genes 23 Torsion [C]-CA--CB-[CG2] |==|  0.39628
USER: genes 24 Torsion [CA]-CB--OG1-[HG1] |==|  0.77259
USER: genes 25 Torsion [C]-CA--N-[C] |==|  0.80852
USER: genes 26 Torsion [N]-C--CA-[CB] |==|  0.74526
ROOT
ATOM      1  CA  GLU Q 639      21.231 -37.449  54.803  1.00 17.71 LIG 0.18  C 
ENDROOT
BRANCH 1 2
ATOM      2  C   GLU Q 639      21.779 -36.767  56.052  1.00 15.36 LIG 0.24  C 
ATOM      3 O    GLU Q 639      22.242 -35.628  55.997  1.00 14.90 LIG-0.27  OA
ATOM      4  N   GLU Q 640      21.723 -37.472  57.177  1.00 12.94 LIG-0.35  N 
ATOM      5 H    GLU Q 640      21.402 -38.268  57.229  1.00 12.94 LIG 0.16  HD
BRANCH 4 6
ATOM      6  CA  GLU Q 640      22.213 -36.937  58.442  1.00 11.11 LIG 0.18  C 
BRANCH 6 7
ATOM      7  CB  GLU Q 640      21.608 -37.746  59.593  1.00 10.30 LIG 0.04  C 
BRANCH 7 8
ATOM      8  CG  GLU Q 640      22.679 -38.481  60.415  1.00 11.77 LIG 0.12  C 
BRANCH 8 9
ATOM      9  CD  GLU Q 640      22.773 -38.015  61.875  1.00 13.33 LIG 0.17  C 
ATOM     10 OE2  GLU Q 640      23.790 -38.321  62.530  1.00 13.21 LIG-0.65  OA
ATOM     11 OE1  GLU Q 640      21.826 -37.350  62.367  1.00 12.97 LIG-0.65  OA
ENDBRANCH 8 9
ENDBRANCH 7 8
ENDBRANCH 6 7
BRANCH 6 12
ATOM     12  C   GLU Q 640      23.743 -36.975  58.498  1.00  9.90 LIG 0.24  C 
ATOM     13  N   VAL Q 641      24.334 -36.048  59.263  1.00  8.06 LIG-0.35  N 
ATOM     14 H    VAL Q 641      23.912 -35.372  59.588  1.00  8.06 LIG 0.16  HD
ATOM     15 O    GLU Q 640      24.365 -37.833  57.851  1.00  9.48 LIG-0.27  OA
BRANCH 13 16
ATOM     16  CA  VAL Q 641      25.766 -36.083  59.632  1.00  6.68 LIG 0.18  C 
BRANCH 16 17
ATOM     17  CB  VAL Q 641      26.148 -37.337  60.477  1.00  5.82 LIG 0.01  C 
ATOM     18  CG2 VAL Q 641      27.069 -36.974  61.614  1.00  2.95 LIG 0.01  C 
ATOM     19  CG1 VAL Q 641      26.732 -38.390  59.599  1.00  4.23 LIG 0.01  C 
ENDBRANCH 16 17
BRANCH 16 20
ATOM     20  C   VAL Q 641      26.697 -36.002  58.402  1.00  6.62 LIG 0.24  C 
ATOM     21 O    VAL Q 641      26.386 -36.535  57.343  1.00  7.26 LIG-0.27  OA
ATOM     22  N   ASP Q 642      27.832 -35.337  58.556  1.00  6.11 LIG-0.34  N 
ATOM     23 H    ASP Q 642      28.067 -34.963  59.294  1.00  6.11 LIG 0.16  HD
BRANCH 22 24
ATOM     24  CA  ASP Q 642      28.800 -35.175  57.473  1.00  5.85 LIG 0.20  C 
BRANCH 24 25
ATOM     25  CB  ASP Q 642      30.052 -34.438  57.991  1.00  5.86 LIG 0.15  C 
BRANCH 25 26
ATOM     26  CG  ASP Q 642      30.208 -33.021  57.382  1.00  7.09 LIG 0.17  C 
ATOM     27 OD2  ASP Q 642      31.200 -32.351  57.718  1.00  7.75 LIG-0.65  OA
ATOM     28 OD1  ASP Q 642      29.367 -32.585  56.570  1.00  5.16 LIG-0.65  OA
ENDBRANCH 25 26
ENDBRANCH 24 25
BRANCH 24 29
ATOM     29  C   ASP Q 642      29.185 -36.542  56.872  1.00  5.53 LIG 0.20  C 
ATOM     30 O    ASP Q 642      28.765 -36.905  55.762  1.00  4.89 LIG-0.65  OA
ATOM     31 OXT  ASP Q 642      29.958 -37.306  57.474  1.00  5.08 LIG-0.65  OA
ENDBRANCH 24 29
ENDBRANCH 22 24
ENDBRANCH 16 20
ENDBRANCH 13 16
ENDBRANCH 6 12
ENDBRANCH 4 6
ENDBRANCH 1 2
BRANCH 1 32
ATOM     32  CB  GLU Q 639      20.010 -36.688  54.281  1.00 18.28 LIG 0.04  C 
BRANCH 32 33
ATOM     33  CG  GLU Q 639      19.850 -36.733  52.770  1.00 21.94 LIG 0.12  C 
BRANCH 33 34
ATOM     34  CD  GLU Q 639      20.356 -35.475  52.092  1.00 26.00 LIG 0.17  C 
ATOM     35 OE1  GLU Q 639      21.493 -35.493  51.577  1.00 25.44 LIG-0.65  OA
ATOM     36 OE2  GLU Q 639      19.617 -34.469  52.074  1.00 27.11 LIG-0.65  OA
ENDBRANCH 33 34
ENDBRANCH 32 33
ENDBRANCH 1 32
BRANCH 1 37
ATOM     37  N   GLU Q 639      20.889 -38.840  55.071  1.00 19.24 LIG-0.35  N 
ATOM     38  C   VAL Q 638      21.803 -39.805  55.033  1.00 20.97 LIG 0.24  C 
ATOM     39 O    VAL Q 638      22.988 -39.594  54.773  1.00 20.96 LIG-0.27  OA
ATOM     40 H    GLU Q 639      20.058 -38.973  55.252  1.00 19.24 LIG 0.16  HD
BRANCH 38 41
ATOM     41  CA  VAL Q 638      21.308 -41.215  55.334  1.00 22.03 LIG 0.18  C 
BRANCH 41 42
ATOM     42  CB  VAL Q 638      20.835 -41.873  54.025  1.00 22.63 LIG 0.01  C 
ATOM     43  CG1 VAL Q 638      20.754 -43.383  54.188  1.00 22.21 LIG 0.01  C 
ATOM     44  CG2 VAL Q 638      19.490 -41.304  53.600  1.00 20.65 LIG 0.01  C 
ENDBRANCH 41 42
BRANCH 41 45
ATOM     45  N   VAL Q 638      20.250 -41.200  56.336  1.00 23.53 LIG-0.35  N 
ATOM     46 H    VAL Q 638      19.599 -40.693  56.091  1.00 23.53 LIG 0.16  HD
ATOM     47  C   THR Q 637      20.197 -41.841  57.499  1.00 24.82 LIG 0.24  C 
ATOM     48 O    THR Q 637      21.201 -42.193  58.117  1.00 25.63 LIG-0.27  OA
BRANCH 47 49
ATOM     49  CA  THR Q 637      18.803 -42.128  58.047  1.00 25.03 LIG 0.20  C 
BRANCH 49 50
ATOM     50  CB  THR Q 637      18.382 -43.127  56.953  1.00 24.88 LIG 0.15  C 
ATOM     51  CG2 THR Q 637      17.549 -44.251  57.550  1.00 23.89 LIG 0.04  C 
BRANCH 50 52
ATOM     52 OG1  THR Q 637      17.613 -42.447  55.952  1.00 24.10 LIG-0.39  OA
ATOM     53 HG1  THR Q 637      16.817 -42.377  56.211  1.00 24.10 LIG 0.21  HD
ENDBRANCH 50 52
ENDBRANCH 49 50
BRANCH 49 54
ATOM     54  N   THR Q 637      18.265 -40.798  57.792  1.00 26.29 LIG-0.34  N 
ATOM     55 H    THR Q 637      17.669 -40.768  57.173  1.00 26.29 LIG 0.16  HD
ATOM     56  C   PRO Q 636      18.679 -39.735  58.475  1.00 27.07 LIG 0.25  C 
ATOM     57 O    PRO Q 636      19.532 -39.790  59.360  1.00 27.06 LIG-0.27  OA
BRANCH 56 58
ATOM     58  CA  PRO Q 636      18.039 -38.399  58.114  1.00 27.59 LIG 0.35  C 
ATOM     59  CB  PRO Q 636      18.868 -37.690  57.042  1.00 27.63 LIG 0.05  C 
ATOM     60  CG  PRO Q 636      18.710 -36.244  57.346  1.00 27.91 LIG 0.04  C 
ATOM     61  CD  PRO Q 636      18.623 -36.146  58.843  1.00 28.09 LIG 0.32  C 
ATOM     62  N   PRO Q 636      18.075 -37.456  59.236  1.00 27.47 LIG 0.32  N 
ENDBRANCH 56 58
ENDBRANCH 49 54
ENDBRANCH 47 49
ENDBRANCH 41 45
ENDBRANCH 38 41
ENDBRANCH 1 37
TORSDOF 25
ENDMDL
MODEL 31
USER: ADFR SOLUTION from run 148
USER: SCORE 19.854671 LL:  -5.831 LR: -16.075 RR:   0.000 FEB:  -8.617
USER: RMSD 5.403322
USER: SEED 147
USER: STATUS no improvement in best in 1 clusters for 5 generations
USER: GENES 27
USER: genes 0 Translation |==|  0.29843 0.64266 0.36855
USER: genes 1 Rotation |==|  0.57284 0.52606 0.47232 0.99320
USER: genes 2 Torsion [N]-CA--C-[N] |==|  0.11532
USER: genes 3 Torsion [C]-N--CA-[C] |==|  0.59240
USER: genes 4 Torsion [N]-CA--CB-[CG] |==|  0.42847
USER: genes 5 Torsion [CA]-CB--CG-[CD] |==|  0.58080
USER: genes 6 Torsion [CB]-CG--CD-[OE2] |==|  0.57628
USER: genes 7 Torsion [N]-CA--C-[N] |==|  0.33892
USER: genes 8 Torsion [C]-N--CA-[CB] |==|  0.47482
USER: genes 9 Torsion [N]-CA--CB-[CG1] |==|  0.82061
USER: genes 10 Torsion [N]-CA--C-[N] |==|  0.43091
USER: genes 11 Torsion [C]-N--CA-[CB] |==|  0.29529
USER: genes 12 Torsion [N]-CA--CB-[CG] |==|  0.86137
USER: genes 13 Torsion [CA]-CB--CG-[OD2] |==|  0.75038
USER: genes 14 Torsion [N]-CA--C-[O] |==|  0.03185
USER: genes 15 Torsion [C]-CA--CB-[CG] |==|  0.59156
USER: genes 16 Torsion [CA]-CB--CG-[CD] |==|  0.71119
USER: genes 17 Torsion [CB]-CG--CD-[OE2] |==|  0.18641
USER: genes 18 Torsion [C]-CA--N-[C] |==|  0.17111
USER: genes 19 Torsion [N]-C--CA-[N] |==|  0.87222
USER: genes 20 Torsion [C]-CA--CB-[CG1] |==|  0.12724
USER: genes 21 Torsion [C]-CA--N-[C] |==|  0.20758
USER: genes 22 Torsion [N]-C--CA-[N] |==|  0.05364
USER: genes 23 Torsion [C]-CA--CB-[CG2] |==|  0.55170
USER: genes 24 Torsion [CA]-CB--OG1-[HG1] |==|  0.70934
USER: genes 25 Torsion [C]-CA--N-[C] |==|  0.69507
USER: genes 26 Torsion [N]-C--CA-[CB] |==|  0.39818
ROOT
ATOM      1  CA  GLU Q 639      19.739 -35.050  51.090  1.00 17.71 LIG 0.18  C 
ENDROOT
BRANCH 1 2
ATOM      2  C   GLU Q 639      19.592 -36.175  52.109  1.00 15.36 LIG 0.24  C 
ATOM      3 O    GLU Q 639      18.717 -37.032  51.982  1.00 14.90 LIG-0.27  OA
ATOM      4  N   GLU Q 640      20.452 -36.165  53.122  1.00 12.94 LIG-0.35  N 
ATOM      5 H    GLU Q 640      21.067 -35.572  53.222  1.00 12.94 LIG 0.16  HD
BRANCH 4 6
ATOM      6  CA  GLU Q 640      20.420 -37.182  54.165  1.00 11.11 LIG 0.18  C 
BRANCH 6 7
ATOM      7  CB  GLU Q 640      21.344 -38.336  53.764  1.00 10.30 LIG 0.04  C 
BRANCH 7 8
ATOM      8  CG  GLU Q 640      21.871 -39.110  54.983  1.00 11.77 LIG 0.12  C 
BRANCH 8 9
ATOM      9  CD  GLU Q 640      23.249 -39.751  54.766  1.00 13.33 LIG 0.17  C 
ATOM     10 OE2  GLU Q 640      23.535 -40.776  55.418  1.00 13.21 LIG-0.65  OA
ATOM     11 OE1  GLU Q 640      24.047 -39.225  53.949  1.00 12.97 LIG-0.65  OA
ENDBRANCH 8 9
ENDBRANCH 7 8
ENDBRANCH 6 7
BRANCH 6 12
ATOM     12  C   GLU Q 640      20.839 -36.596  55.516  1.00  9.90 LIG 0.24  C 
ATOM     13  N   VAL Q 641      19.950 -36.703  56.513  1.00  8.06 LIG-0.35  N 
ATOM     14 H    VAL Q 641      19.134 -36.943  56.388  1.00  8.06 LIG 0.16  HD
ATOM     15 O    GLU Q 640      21.951 -36.056  55.639  1.00  9.48 LIG-0.27  OA
BRANCH 13 16
ATOM     16  CA  VAL Q 641      20.273 -36.423  57.930  1.00  6.68 LIG 0.18  C 
BRANCH 16 17
ATOM     17  CB  VAL Q 641      19.014 -36.404  58.850  1.00  5.82 LIG 0.01  C 
ATOM     18  CG2 VAL Q 641      18.301 -37.733  58.834  1.00  2.95 LIG 0.01  C 
ATOM     19  CG1 VAL Q 641      18.113 -35.281  58.466  1.00  4.23 LIG 0.01  C 
ENDBRANCH 16 17
BRANCH 16 20
ATOM     20  C   VAL Q 641      21.307 -37.413  58.509  1.00  6.62 LIG 0.24  C 
ATOM     21 O    VAL Q 641      21.436 -38.535  58.033  1.00  7.26 LIG-0.27  OA
ATOM     22  N   ASP Q 642      22.029 -36.988  59.534  1.00  6.11 LIG-0.34  N 
ATOM     23 H    ASP Q 642      21.945 -36.207  59.884  1.00  6.11 LIG 0.16  HD
BRANCH 22 24
ATOM     24  CA  ASP Q 642      23.048 -37.818  60.174  1.00  5.85 LIG 0.20  C 
BRANCH 24 25
ATOM     25  CB  ASP Q 642      24.455 -37.320  59.785  1.00  5.86 LIG 0.15  C 
BRANCH 25 26
ATOM     26  CG  ASP Q 642      24.622 -37.130  58.256  1.00  7.09 LIG 0.17  C 
ATOM     27 OD2  ASP Q 642      25.026 -38.100  57.591  1.00  7.75 LIG-0.65  OA
ATOM     28 OD1  ASP Q 642      24.343 -36.039  57.718  1.00  5.16 LIG-0.65  OA
ENDBRANCH 25 26
ENDBRANCH 24 25
BRANCH 24 29
ATOM     29  C   ASP Q 642      22.876 -37.815  61.706  1.00  5.53 LIG 0.20  C 
ATOM     30 O    ASP Q 642      21.858 -37.350  62.245  1.00  4.89 LIG-0.65  OA
ATOM     31 OXT  ASP Q 642      23.743 -38.312  62.445  1.00  5.08 LIG-0.65  OA
ENDBRANCH 24 29
ENDBRANCH 22 24
ENDBRANCH 16 20
ENDBRANCH 13 16
ENDBRANCH 6 12
ENDBRANCH 4 6
ENDBRANCH 1 2
BRANCH 1 32
ATOM     32  CB  GLU Q 639      18.970 -35.396  49.812  1.00 18.28 LIG 0.04  C 
BRANCH 32 33
ATOM     33  CG  GLU Q 639      19.608 -34.860  48.540  1.00 21.94 LIG 0.12  C 
BRANCH 33 34
ATOM     34  CD  GLU Q 639      18.885 -33.646  47.992  1.00 26.00 LIG 0.17  C 
ATOM     35 OE1  GLU Q 639      18.284 -33.752  46.903  1.00 25.44 LIG-0.65  OA
ATOM     36 OE2  GLU Q 639      18.916 -32.585  48.651  1.00 27.11 LIG-0.65  OA
ENDBRANCH 33 34
ENDBRANCH 32 33
ENDBRANCH 1 32
BRANCH 1 37
ATOM     37  N   GLU Q 639      21.141 -34.794  50.789  1.00 19.24 LIG-0.35  N 
ATOM     38  C   VAL Q 638      21.922 -35.724  50.248  1.00 20.97 LIG 0.24  C 
ATOM     39 O    VAL Q 638      21.521 -36.854  49.966  1.00 20.96 LIG-0.27  OA
ATOM     40 H    GLU Q 639      21.408 -34.001  50.990  1.00 19.24 LIG 0.16  HD
BRANCH 38 41
ATOM     41  CA  VAL Q 638      23.369 -35.320  49.986  1.00 22.03 LIG 0.18  C 
BRANCH 41 42
ATOM     42  CB  VAL Q 638      24.148 -35.348  51.313  1.00 22.63 LIG 0.01  C 
ATOM     43  CG1 VAL Q 638      23.837 -36.621  52.086  1.00 22.21 LIG 0.01  C 
ATOM     44  CG2 VAL Q 638      25.642 -35.225  51.054  1.00 20.65 LIG 0.01  C 
ENDBRANCH 41 42
BRANCH 41 45
ATOM     45  N   VAL Q 638      23.444 -34.011  49.349  1.00 23.53 LIG-0.35  N 
ATOM     46 H    VAL Q 638      23.638 -34.084  48.514  1.00 23.53 LIG 0.16  HD
ATOM     47  C   THR Q 637      23.256 -32.812  49.891  1.00 24.82 LIG 0.24  C 
ATOM     48 O    THR Q 637      23.425 -32.583  51.087  1.00 25.63 LIG-0.27  OA
BRANCH 47 49
ATOM     49  CA  THR Q 637      22.810 -31.706  48.939  1.00 25.03 LIG 0.20  C 
BRANCH 49 50
ATOM     50  CB  THR Q 637      21.654 -31.177  49.807  1.00 24.88 LIG 0.15  C 
ATOM     51  CG2 THR Q 637      20.691 -30.352  48.966  1.00 23.89 LIG 0.04  C 
BRANCH 50 52
ATOM     52 OG1  THR Q 637      20.949 -32.278  50.392  1.00 24.10 LIG-0.39  OA
ATOM     53 HG1  THR Q 637      20.220 -32.390  49.990  1.00 24.10 LIG 0.21  HD
ENDBRANCH 50 52
ENDBRANCH 49 50
BRANCH 49 54
ATOM     54  N   THR Q 637      22.327 -32.597  47.890  1.00 26.29 LIG-0.34  N 
ATOM     55 H    THR Q 637      21.610 -33.026  48.091  1.00 26.29 LIG 0.16  HD
ATOM     56  C   PRO Q 636      22.963 -32.716  46.729  1.00 27.07 LIG 0.25  C 
ATOM     57 O    PRO Q 636      23.989 -32.096  46.453  1.00 27.06 LIG-0.27  OA
BRANCH 56 58
ATOM     58  CA  PRO Q 636      22.357 -33.680  45.715  1.00 27.59 LIG 0.35  C 
ATOM     59  CB  PRO Q 636      22.521 -33.126  44.299  1.00 27.63 LIG 0.05  C 
ATOM     60  CG  PRO Q 636      21.313 -33.599  43.573  1.00 27.91 LIG 0.04  C 
ATOM     61  CD  PRO Q 636      20.199 -33.593  44.581  1.00 28.09 LIG 0.32  C 
ATOM     62  N   PRO Q 636      20.902 -33.783  45.862  1.00 27.47 LIG 0.32  N 
ENDBRANCH 56 58
ENDBRANCH 49 54
ENDBRANCH 47 49
ENDBRANCH 41 45
ENDBRANCH 38 41
ENDBRANCH 1 37
TORSDOF 25
ENDMDL
MODEL 32
USER: ADFR SOLUTION from run 173
USER: SCORE 19.676222 LL:  -4.943 LR: -16.050 RR:   0.000 FEB:  -8.592
USER: RMSD 4.710235
USER: SEED 172
USER: STATUS no improvement in best in 11 clusters for 5 generations
USER: GENES 27
USER: genes 0 Translation |==|  0.48546 0.57719 0.37687
USER: genes 1 Rotation |==|  0.62647 0.47043 0.12973 0.80988
USER: genes 2 Torsion [N]-CA--C-[N] |==|  0.16973
USER: genes 3 Torsion [C]-N--CA-[C] |==|  0.66815
USER: genes 4 Torsion [N]-CA--CB-[CG] |==|  0.21730
USER: genes 5 Torsion [CA]-CB--CG-[CD] |==|  0.78666
USER: genes 6 Torsion [CB]-CG--CD-[OE2] |==|  0.20449
USER: genes 7 Torsion [N]-CA--C-[N] |==|  0.50280
USER: genes 8 Torsion [C]-N--CA-[CB] |==|  0.51111
USER: genes 9 Torsion [N]-CA--CB-[CG1] |==|  0.81160
USER: genes 10 Torsion [N]-CA--C-[N] |==|  0.43463
USER: genes 11 Torsion [C]-N--CA-[CB] |==|  0.28152
USER: genes 12 Torsion [N]-CA--CB-[CG] |==|  0.83479
USER: genes 13 Torsion [CA]-CB--CG-[OD2] |==|  0.26014
USER: genes 14 Torsion [N]-CA--C-[O] |==|  0.01417
USER: genes 15 Torsion [C]-CA--CB-[CG] |==|  0.31372
USER: genes 16 Torsion [CA]-CB--CG-[CD] |==|  0.74431
USER: genes 17 Torsion [CB]-CG--CD-[OE2] |==|  0.93843
USER: genes 18 Torsion [C]-CA--N-[C] |==|  0.73363
USER: genes 19 Torsion [N]-C--CA-[N] |==|  0.96400
USER: genes 20 Torsion [C]-CA--CB-[CG1] |==|  0.50651
USER: genes 21 Torsion [C]-CA--N-[C] |==|  0.75738
USER: genes 22 Torsion [N]-C--CA-[N] |==|  0.88694
USER: genes 23 Torsion [C]-CA--CB-[CG2] |==|  0.35513
USER: genes 24 Torsion [CA]-CB--OG1-[HG1] |==|  0.53584
USER: genes 25 Torsion [C]-CA--N-[C] |==|  0.80672
USER: genes 26 Torsion [N]-C--CA-[CB] |==|  0.82480
ROOT
ATOM      1  CA  GLU Q 639      23.105 -36.278  51.295  1.00 17.71 LIG 0.18  C 
ENDROOT
BRANCH 1 2
ATOM      2  C   GLU Q 639      21.834 -36.236  52.137  1.00 15.36 LIG 0.24  C 
ATOM      3 O    GLU Q 639      20.879 -35.534  51.803  1.00 14.90 LIG-0.27  OA
ATOM      4  N   GLU Q 640      21.829 -36.992  53.230  1.00 12.94 LIG-0.35  N 
ATOM      5 H    GLU Q 640      22.488 -37.486  53.474  1.00 12.94 LIG 0.16  HD
BRANCH 4 6
ATOM      6  CA  GLU Q 640      20.677 -37.043  54.121  1.00 11.11 LIG 0.18  C 
BRANCH 6 7
ATOM      7  CB  GLU Q 640      20.137 -38.476  54.156  1.00 10.30 LIG 0.04  C 
BRANCH 7 8
ATOM      8  CG  GLU Q 640      20.981 -39.394  55.055  1.00 11.77 LIG 0.12  C 
BRANCH 8 9
ATOM      9  CD  GLU Q 640      22.304 -39.843  54.421  1.00 13.33 LIG 0.17  C 
ATOM     10 OE2  GLU Q 640      23.230 -39.011  54.329  1.00 13.21 LIG-0.65  OA
ATOM     11 OE1  GLU Q 640      22.415 -41.026  54.008  1.00 12.97 LIG-0.65  OA
ENDBRANCH 8 9
ENDBRANCH 7 8
ENDBRANCH 6 7
BRANCH 6 12
ATOM     12  C   GLU Q 640      21.049 -36.569  55.528  1.00  9.90 LIG 0.24  C 
ATOM     13  N   VAL Q 641      20.071 -36.592  56.443  1.00  8.06 LIG-0.35  N 
ATOM     14 H    VAL Q 641      19.244 -36.716  56.241  1.00  8.06 LIG 0.16  HD
ATOM     15 O    GLU Q 640      22.207 -36.188  55.767  1.00  9.48 LIG-0.27  OA
BRANCH 13 16
ATOM     16  CA  VAL Q 641      20.303 -36.410  57.893  1.00  6.68 LIG 0.18  C 
BRANCH 16 17
ATOM     17  CB  VAL Q 641      19.008 -36.581  58.745  1.00  5.82 LIG 0.01  C 
ATOM     18  CG2 VAL Q 641      18.376 -37.931  58.520  1.00  2.95 LIG 0.01  C 
ATOM     19  CG1 VAL Q 641      18.059 -35.466  58.466  1.00  4.23 LIG 0.01  C 
ENDBRANCH 16 17
BRANCH 16 20
ATOM     20  C   VAL Q 641      21.395 -37.355  58.442  1.00  6.62 LIG 0.24  C 
ATOM     21 O    VAL Q 641      21.663 -38.404  57.868  1.00  7.26 LIG-0.27  OA
ATOM     22  N   ASP Q 642      22.010 -36.975  59.551  1.00  6.11 LIG-0.34  N 
ATOM     23 H    ASP Q 642      21.829 -36.245  59.968  1.00  6.11 LIG 0.16  HD
BRANCH 22 24
ATOM     24  CA  ASP Q 642      23.068 -37.768  60.174  1.00  5.85 LIG 0.20  C 
BRANCH 24 25
ATOM     25  CB  ASP Q 642      24.448 -37.172  59.828  1.00  5.86 LIG 0.15  C 
BRANCH 25 26
ATOM     26  CG  ASP Q 642      24.718 -37.130  58.302  1.00  7.09 LIG 0.17  C 
ATOM     27 OD2  ASP Q 642      24.436 -36.084  57.691  1.00  7.75 LIG-0.65  OA
ATOM     28 OD1  ASP Q 642      25.217 -38.115  57.721  1.00  5.16 LIG-0.65  OA
ENDBRANCH 25 26
ENDBRANCH 24 25
BRANCH 24 29
ATOM     29  C   ASP Q 642      22.874 -37.837  61.702  1.00  5.53 LIG 0.20  C 
ATOM     30 O    ASP Q 642      21.873 -37.350  62.252  1.00  4.89 LIG-0.65  OA
ATOM     31 OXT  ASP Q 642      23.704 -38.417  62.422  1.00  5.08 LIG-0.65  OA
ENDBRANCH 24 29
ENDBRANCH 22 24
ENDBRANCH 16 20
ENDBRANCH 13 16
ENDBRANCH 6 12
ENDBRANCH 4 6
ENDBRANCH 1 2
BRANCH 1 32
ATOM     32  CB  GLU Q 639      22.998 -35.289  50.132  1.00 18.28 LIG 0.04  C 
BRANCH 32 33
ATOM     33  CG  GLU Q 639      23.961 -34.117  50.222  1.00 21.94 LIG 0.12  C 
BRANCH 33 34
ATOM     34  CD  GLU Q 639      23.355 -32.918  50.924  1.00 26.00 LIG 0.17  C 
ATOM     35 OE1  GLU Q 639      24.123 -32.074  51.431  1.00 25.44 LIG-0.65  OA
ATOM     36 OE2  GLU Q 639      22.111 -32.818  50.967  1.00 27.11 LIG-0.65  OA
ENDBRANCH 33 34
ENDBRANCH 32 33
ENDBRANCH 1 32
BRANCH 1 37
ATOM     37  N   GLU Q 639      23.364 -37.624  50.801  1.00 19.24 LIG-0.35  N 
ATOM     38  C   VAL Q 638      24.188 -38.455  51.433  1.00 20.97 LIG 0.24  C 
ATOM     39 O    VAL Q 638      24.781 -38.150  52.468  1.00 20.96 LIG-0.27  OA
ATOM     40 H    GLU Q 639      22.943 -37.824  50.078  1.00 19.24 LIG 0.16  HD
BRANCH 38 41
ATOM     41  CA  VAL Q 638      24.366 -39.833  50.805  1.00 22.03 LIG 0.18  C 
BRANCH 41 42
ATOM     42  CB  VAL Q 638      25.790 -39.944  50.230  1.00 22.63 LIG 0.01  C 
ATOM     43  CG1 VAL Q 638      25.984 -41.288  49.545  1.00 22.21 LIG 0.01  C 
ATOM     44  CG2 VAL Q 638      26.062 -38.801  49.264  1.00 20.65 LIG 0.01  C 
ENDBRANCH 41 42
BRANCH 41 45
ATOM     45  N   VAL Q 638      23.357 -40.082  49.783  1.00 23.53 LIG-0.35  N 
ATOM     46 H    VAL Q 638      23.642 -39.853  49.005  1.00 23.53 LIG 0.16  HD
ATOM     47  C   THR Q 637      22.137 -40.589  49.927  1.00 24.82 LIG 0.24  C 
ATOM     48 O    THR Q 637      21.500 -40.517  50.977  1.00 25.63 LIG-0.27  OA
BRANCH 47 49
ATOM     49  CA  THR Q 637      21.546 -41.279  48.702  1.00 25.03 LIG 0.20  C 
BRANCH 49 50
ATOM     50  CB  THR Q 637      22.448 -42.526  48.745  1.00 24.88 LIG 0.15  C 
ATOM     51  CG2 THR Q 637      21.608 -43.793  48.705  1.00 23.89 LIG 0.04  C 
BRANCH 50 52
ATOM     52 OG1  THR Q 637      23.340 -42.513  47.623  1.00 24.10 LIG-0.39  OA
ATOM     53 HG1  THR Q 637      23.705 -43.266  47.546  1.00 24.10 LIG 0.21  HD
ENDBRANCH 50 52
ENDBRANCH 49 50
BRANCH 49 54
ATOM     54  N   THR Q 637      22.029 -40.303  47.732  1.00 26.29 LIG-0.34  N 
ATOM     55 H    THR Q 637      22.650 -40.594  47.214  1.00 26.29 LIG 0.16  HD
ATOM     56  C   PRO Q 636      21.534 -39.070  47.677  1.00 27.07 LIG 0.25  C 
ATOM     57 O    PRO Q 636      20.645 -38.665  48.425  1.00 27.06 LIG-0.27  OA
BRANCH 56 58
ATOM     58  CA  PRO Q 636      22.124 -38.144  46.619  1.00 27.59 LIG 0.35  C 
ATOM     59  CB  PRO Q 636      23.609 -37.907  46.896  1.00 27.63 LIG 0.05  C 
ATOM     60  CG  PRO Q 636      23.857 -36.517  46.432  1.00 27.91 LIG 0.04  C 
ATOM     61  CD  PRO Q 636      22.597 -35.754  46.732  1.00 28.09 LIG 0.32  C 
ATOM     62  N   PRO Q 636      21.555 -36.795  46.697  1.00 27.47 LIG 0.32  N 
ENDBRANCH 56 58
ENDBRANCH 49 54
ENDBRANCH 47 49
ENDBRANCH 41 45
ENDBRANCH 38 41
ENDBRANCH 1 37
TORSDOF 25
ENDMDL
MODEL 33
USER: ADFR SOLUTION from run 128
USER: SCORE 17.573140 LL:  -3.645 LR: -16.023 RR:   0.000 FEB:  -8.565
USER: RMSD 6.517029
USER: SEED 127
USER: STATUS no improvement in best in 8 clusters for 5 generations
USER: GENES 27
USER: genes 0 Translation |==|  0.33692 0.56072 0.49668
USER: genes 1 Rotation |==|  0.50122 0.87104 0.25362 0.72721
USER: genes 2 Torsion [N]-CA--C-[N] |==|  0.92687
USER: genes 3 Torsion [C]-N--CA-[C] |==|  0.14408
USER: genes 4 Torsion [N]-CA--CB-[CG] |==|  0.90315
USER: genes 5 Torsion [CA]-CB--CG-[CD] |==|  0.30433
USER: genes 6 Torsion [CB]-CG--CD-[OE2] |==|  0.54329
USER: genes 7 Torsion [N]-CA--C-[N] |==|  0.12178
USER: genes 8 Torsion [C]-N--CA-[CB] |==|  0.89444
USER: genes 9 Torsion [N]-CA--CB-[CG1] |==|  0.37992
USER: genes 10 Torsion [N]-CA--C-[N] |==|  0.85569
USER: genes 11 Torsion [C]-N--CA-[CB] |==|  0.23544
USER: genes 12 Torsion [N]-CA--CB-[CG] |==|  0.80469
USER: genes 13 Torsion [CA]-CB--CG-[OD2] |==|  0.85836
USER: genes 14 Torsion [N]-CA--C-[O] |==|  0.43745
USER: genes 15 Torsion [C]-CA--CB-[CG] |==|  0.12003
USER: genes 16 Torsion [CA]-CB--CG-[CD] |==|  0.17717
USER: genes 17 Torsion [CB]-CG--CD-[OE2] |==|  0.32009
USER: genes 18 Torsion [C]-CA--N-[C] |==|  0.65050
USER: genes 19 Torsion [N]-C--CA-[N] |==|  0.39465
USER: genes 20 Torsion [C]-CA--CB-[CG1] |==|  0.19105
USER: genes 21 Torsion [C]-CA--N-[C] |==|  0.17863
USER: genes 22 Torsion [N]-C--CA-[N] |==|  0.42413
USER: genes 23 Torsion [C]-CA--CB-[CG2] |==|  0.33197
USER: genes 24 Torsion [CA]-CB--OG1-[HG1] |==|  0.43179
USER: genes 25 Torsion [C]-CA--N-[C] |==|  0.76781
USER: genes 26 Torsion [N]-C--CA-[CB] |==|  0.18883
ROOT
ATOM      1  CA  GLU Q 639      20.432 -36.587  54.261  1.00 17.71 LIG 0.18  C 
ENDROOT
BRANCH 1 2
ATOM      2  C   GLU Q 639      21.030 -37.872  54.823  1.00 15.36 LIG 0.24  C 
ATOM      3 O    GLU Q 639      22.087 -37.852  55.454  1.00 14.90 LIG-0.27  OA
ATOM      4  N   GLU Q 640      20.348 -38.988  54.590  1.00 12.94 LIG-0.35  N 
ATOM      5 H    GLU Q 640      19.609 -39.015  54.151  1.00 12.94 LIG 0.16  HD
BRANCH 4 6
ATOM      6  CA  GLU Q 640      20.809 -40.283  55.071  1.00 11.11 LIG 0.18  C 
BRANCH 6 7
ATOM      7  CB  GLU Q 640      22.052 -40.697  54.277  1.00 10.30 LIG 0.04  C 
BRANCH 7 8
ATOM      8  CG  GLU Q 640      21.986 -40.236  52.811  1.00 11.77 LIG 0.12  C 
BRANCH 8 9
ATOM      9  CD  GLU Q 640      22.968 -39.108  52.468  1.00 13.33 LIG 0.17  C 
ATOM     10 OE2  GLU Q 640      22.792 -38.471  51.409  1.00 13.21 LIG-0.65  OA
ATOM     11 OE1  GLU Q 640      23.919 -38.864  53.253  1.00 12.97 LIG-0.65  OA
ENDBRANCH 8 9
ENDBRANCH 7 8
ENDBRANCH 6 7
BRANCH 6 12
ATOM     12  C   GLU Q 640      21.116 -40.234  56.571  1.00  9.90 LIG 0.24  C 
ATOM     13  N   VAL Q 641      20.223 -39.598  57.340  1.00  8.06 LIG-0.35  N 
ATOM     14 H    VAL Q 641      19.592 -39.110  57.019  1.00  8.06 LIG 0.16  HD
ATOM     15 O    GLU Q 640      22.149 -40.766  57.009  1.00  9.48 LIG-0.27  OA
BRANCH 13 16
ATOM     16  CA  VAL Q 641      20.223 -39.663  58.819  1.00  6.68 LIG 0.18  C 
BRANCH 16 17
ATOM     17  CB  VAL Q 641      20.598 -41.074  59.367  1.00  5.82 LIG 0.01  C 
ATOM     18  CG2 VAL Q 641      19.368 -41.866  59.733  1.00  2.95 LIG 0.01  C 
ATOM     19  CG1 VAL Q 641      21.542 -40.946  60.513  1.00  4.23 LIG 0.01  C 
ENDBRANCH 16 17
BRANCH 16 20
ATOM     20  C   VAL Q 641      21.155 -38.610  59.459  1.00  6.62 LIG 0.24  C 
ATOM     21 O    VAL Q 641      20.742 -37.855  60.331  1.00  7.26 LIG-0.27  OA
ATOM     22  N   ASP Q 642      22.402 -38.569  59.016  1.00  6.11 LIG-0.34  N 
ATOM     23 H    ASP Q 642      22.704 -39.088  58.400  1.00  6.11 LIG 0.16  HD
BRANCH 22 24
ATOM     24  CA  ASP Q 642      23.390 -37.629  59.538  1.00  5.85 LIG 0.20  C 
BRANCH 24 25
ATOM     25  CB  ASP Q 642      24.044 -38.204  60.812  1.00  5.86 LIG 0.15  C 
BRANCH 25 26
ATOM     26  CG  ASP Q 642      23.073 -38.240  62.020  1.00  7.09 LIG 0.17  C 
ATOM     27 OD2  ASP Q 642      22.461 -37.195  62.304  1.00  7.75 LIG-0.65  OA
ATOM     28 OD1  ASP Q 642      22.908 -39.293  62.669  1.00  5.16 LIG-0.65  OA
ENDBRANCH 25 26
ENDBRANCH 24 25
BRANCH 24 29
ATOM     29  C   ASP Q 642      24.462 -37.311  58.475  1.00  5.53 LIG 0.20  C 
ATOM     30 O    ASP Q 642      25.137 -36.270  58.526  1.00  4.89 LIG-0.65  OA
ATOM     31 OXT  ASP Q 642      24.700 -38.110  57.554  1.00  5.08 LIG-0.65  OA
ENDBRANCH 24 29
ENDBRANCH 22 24
ENDBRANCH 16 20
ENDBRANCH 13 16
ENDBRANCH 6 12
ENDBRANCH 4 6
ENDBRANCH 1 2
BRANCH 1 32
ATOM     32  CB  GLU Q 639      19.621 -35.867  55.341  1.00 18.28 LIG 0.04  C 
BRANCH 32 33
ATOM     33  CG  GLU Q 639      20.295 -35.831  56.703  1.00 21.94 LIG 0.12  C 
BRANCH 33 34
ATOM     34  CD  GLU Q 639      21.592 -35.045  56.690  1.00 26.00 LIG 0.17  C 
ATOM     35 OE1  GLU Q 639      22.542 -35.475  56.003  1.00 25.44 LIG-0.65  OA
ATOM     36 OE2  GLU Q 639      21.660 -33.998  57.366  1.00 27.11 LIG-0.65  OA
ENDBRANCH 33 34
ENDBRANCH 32 33
ENDBRANCH 1 32
BRANCH 1 37
ATOM     37  N   GLU Q 639      19.600 -36.860  53.095  1.00 19.24 LIG-0.35  N 
ATOM     38  C   VAL Q 638      19.800 -36.243  51.934  1.00 20.97 LIG 0.24  C 
ATOM     39 O    VAL Q 638      20.690 -35.409  51.763  1.00 20.96 LIG-0.27  OA
ATOM     40 H    GLU Q 639      18.984 -37.445  53.228  1.00 19.24 LIG 0.16  HD
BRANCH 38 41
ATOM     41  CA  VAL Q 638      18.857 -36.625  50.798  1.00 22.03 LIG 0.18  C 
BRANCH 41 42
ATOM     42  CB  VAL Q 638      19.513 -37.730  49.950  1.00 22.63 LIG 0.01  C 
ATOM     43  CG1 VAL Q 638      19.594 -39.028  50.740  1.00 22.21 LIG 0.01  C 
ATOM     44  CG2 VAL Q 638      18.740 -37.934  48.656  1.00 20.65 LIG 0.01  C 
ENDBRANCH 41 42
BRANCH 41 45
ATOM     45  N   VAL Q 638      18.511 -35.464  49.987  1.00 23.53 LIG-0.35  N 
ATOM     46 H    VAL Q 638      17.671 -35.289  50.040  1.00 23.53 LIG 0.16  HD
ATOM     47  C   THR Q 637      19.306 -34.710  49.234  1.00 24.82 LIG 0.24  C 
ATOM     48 O    THR Q 637      20.359 -35.122  48.749  1.00 25.63 LIG-0.27  OA
BRANCH 47 49
ATOM     49  CA  THR Q 637      18.842 -33.278  48.992  1.00 25.03 LIG 0.20  C 
BRANCH 49 50
ATOM     50  CB  THR Q 637      18.141 -33.540  47.646  1.00 24.88 LIG 0.15  C 
ATOM     51  CG2 THR Q 637      16.662 -33.195  47.740  1.00 23.89 LIG 0.04  C 
BRANCH 50 52
ATOM     52 OG1  THR Q 637      18.750 -32.744  46.623  1.00 24.10 LIG-0.39  OA
ATOM     53 HG1  THR Q 637      18.624 -33.105  45.875  1.00 24.10 LIG 0.21  HD
ENDBRANCH 50 52
ENDBRANCH 49 50
BRANCH 49 54
ATOM     54  N   THR Q 637      20.175 -32.719  48.799  1.00 26.29 LIG-0.34  N 
ATOM     55 H    THR Q 637      20.416 -32.649  47.977  1.00 26.29 LIG 0.16  HD
ATOM     56  C   PRO Q 636      20.935 -32.357  49.828  1.00 27.07 LIG 0.25  C 
ATOM     57 O    PRO Q 636      20.579 -32.462  51.001  1.00 27.06 LIG-0.27  OA
BRANCH 56 58
ATOM     58  CA  PRO Q 636      22.310 -31.787  49.495  1.00 27.59 LIG 0.35  C 
ATOM     59  CB  PRO Q 636      22.163 -30.429  48.807  1.00 27.63 LIG 0.05  C 
ATOM     60  CG  PRO Q 636      23.308 -30.366  47.861  1.00 27.91 LIG 0.04  C 
ATOM     61  CD  PRO Q 636      23.516 -31.773  47.375  1.00 28.09 LIG 0.32  C 
ATOM     62  N   PRO Q 636      23.005 -32.594  48.487  1.00 27.47 LIG 0.32  N 
ENDBRANCH 56 58
ENDBRANCH 49 54
ENDBRANCH 47 49
ENDBRANCH 41 45
ENDBRANCH 38 41
ENDBRANCH 1 37
TORSDOF 25
ENDMDL
