MODEL 1
USER: ADFR SOLUTION from run 107
USER: SCORE 21.478078 LL:  -4.373 LR: -18.913 RR:   0.000 FEB: -12.351
USER: RMSD 1.065712
USER: SEED 106
USER: STATUS 1 or 2 clusters left
USER: GENES 24
USER: genes 0 Translation |==|  0.50064 0.52149 0.54987
USER: genes 1 Rotation |==|  0.48795 0.51694 0.50474 0.99955
USER: genes 2 Torsion [C]-CA--N-[C] |==|  0.82242
USER: genes 3 Torsion [N]-C--CA-[N] |==|  0.38407
USER: genes 4 Torsion [C]-CA--N-[C] |==|  0.79427
USER: genes 5 Torsion [N]-C--CA-[N] |==|  0.40392
USER: genes 6 Torsion [C]-CA--N-[C] |==|  0.77537
USER: genes 7 Torsion [C]-CA--CB-[CG] |==|  0.29461
USER: genes 8 Torsion [CA]-CB--CG-[SD] |==|  0.26352
USER: genes 9 Torsion [CB]-CG--SD-[CE] |==|  0.50087
USER: genes 10 Torsion [C]-CA--CB-[CG] |==|  0.40465
USER: genes 11 Torsion [CA]-CB--CG-[CD] |==|  0.82157
USER: genes 12 Torsion [CB]-CG--CD-[OE1] |==|  0.53789
USER: genes 13 Torsion [N]-CA--C-[N] |==|  0.36921
USER: genes 14 Torsion [C]-N--CA-[CB] |==|  0.35951
USER: genes 15 Torsion [N]-CA--CB-[CG1] |==|  0.76900
USER: genes 16 Torsion [N]-CA--C-[N] |==|  0.38274
USER: genes 17 Torsion [C]-N--CA-[C] |==|  0.70598
USER: genes 18 Torsion [N]-CA--C-[OXT] |==|  0.48928
USER: genes 19 Torsion [N]-CA--CB-[CG] |==|  0.91582
USER: genes 20 Torsion [CA]-CB--CG-[CD1] |==|  0.76708
USER: genes 21 Torsion [N]-CA--CB-[CG] |==|  0.91650
USER: genes 22 Torsion [CA]-CB--CG-[CD] |==|  0.65077
USER: genes 23 Torsion [CB]-CG--CD-[OE2] |==|  0.57678
ROOT
ATOM      1  CA  GLU C   3     -19.292  10.208   3.010  1.00 17.34 LIG 0.18  C 
ENDROOT
BRANCH 1 2
ATOM      2  N   GLU C   3     -18.531   9.468   1.997  1.00 16.96 LIG-0.35  N 
ATOM      3  C   GLU C   2     -19.089   9.100   0.857  1.00 16.75 LIG 0.24  C 
ATOM      4 O    GLU C   2     -20.267   9.337   0.578  1.00 16.41 LIG-0.27  OA
ATOM      5 H    GLU C   3     -17.714   9.304   2.211  1.00 16.96 LIG 0.16  HD
BRANCH 3 6
ATOM      6  CA  GLU C   2     -18.177   8.370  -0.119  1.00 16.90 LIG 0.18  C 
BRANCH 6 7
ATOM      7  N   GLU C   2     -18.914   7.267  -0.707  1.00 16.95 LIG-0.35  N 
ATOM      8  C   MET C   1     -19.189   6.162  -0.041  1.00 17.22 LIG 0.24  C 
ATOM      9 O    MET C   1     -18.725   5.881   1.070  1.00 17.07 LIG-0.27  OA
ATOM     10 H    GLU C   2     -19.151   7.402  -1.522  1.00 16.95 LIG 0.16  HD
BRANCH 8 11
ATOM     11  CA  MET C   1     -20.137   5.236  -0.780  1.00 17.60 LIG 0.18  C 
BRANCH 11 12
ATOM     12  N   MET C   1     -19.827   3.825  -0.526  1.00 17.57 LIG-0.35  N 
ATOM     13 H    MET C   1     -20.331   3.466   0.071  1.00 17.57 LIG 0.16  HD
ATOM     14  C   ACE C   0     -18.866   3.160  -1.151  1.00 17.66 LIG 0.21  C 
ATOM     15 O    ACE C   0     -18.576   2.033  -0.768  1.00 18.17 LIG-0.27  OA
ATOM     16  CH3 ACE C   0     -18.372   3.691  -2.463  1.00 17.74 LIG 0.12  C 
ENDBRANCH 11 12
BRANCH 11 17
ATOM     17  CB  MET C   1     -21.580   5.568  -0.361  1.00 17.86 LIG 0.04  C 
BRANCH 17 18
ATOM     18  CG  MET C   1     -22.403   6.317  -1.419  1.00 18.56 LIG 0.08  C 
BRANCH 18 19
ATOM     19 SD   MET C   1     -23.400   5.195  -2.432  1.00 20.55 LIG-0.17  SA
ATOM     20  CE  MET C   1     -24.216   6.344  -3.548  1.00 18.76 LIG 0.09  C 
ENDBRANCH 18 19
ENDBRANCH 17 18
ENDBRANCH 11 17
ENDBRANCH 8 11
ENDBRANCH 6 7
BRANCH 6 21
ATOM     21  CB  GLU C   2     -17.696   9.333  -1.213  1.00 16.89 LIG 0.04  C 
BRANCH 21 22
ATOM     22  CG  GLU C   2     -16.286   9.056  -1.693  1.00 17.75 LIG 0.12  C 
BRANCH 22 23
ATOM     23  CD  GLU C   2     -15.253   9.260  -0.607  1.00 17.83 LIG 0.17  C 
ATOM     24 OE1  GLU C   2     -14.054   9.317  -0.926  1.00 16.84 LIG-0.65  OA
ATOM     25 OE2  GLU C   2     -15.643   9.355   0.573  1.00 19.94 LIG-0.65  OA
ENDBRANCH 22 23
ENDBRANCH 21 22
ENDBRANCH 6 21
ENDBRANCH 3 6
ENDBRANCH 1 2
BRANCH 1 26
ATOM     26  C   GLU C   3     -19.726  11.559   2.519  1.00 16.67 LIG 0.24  C 
ATOM     27 O    GLU C   3     -18.929  12.338   1.992  1.00 16.39 LIG-0.27  OA
ATOM     28  N   VAL C   4     -20.995  11.835   2.760  1.00 16.17 LIG-0.35  N 
ATOM     29 H    VAL C   4     -21.563  11.253   3.040  1.00 16.17 LIG 0.16  HD
BRANCH 28 30
ATOM     30  CA  VAL C   4     -21.555  13.166   2.569  1.00 16.42 LIG 0.18  C 
BRANCH 30 31
ATOM     31  CB  VAL C   4     -22.840  13.152   1.724  1.00 16.37 LIG 0.01  C 
ATOM     32  CG1 VAL C   4     -22.485  13.135   0.230  1.00 16.31 LIG 0.01  C 
ATOM     33  CG2 VAL C   4     -23.745  11.974   2.116  1.00 16.31 LIG 0.01  C 
ENDBRANCH 30 31
BRANCH 30 34
ATOM     34  C   VAL C   4     -21.819  13.806   3.930  1.00 17.02 LIG 0.24  C 
ATOM     35 O    VAL C   4     -22.288  13.163   4.865  1.00 16.27 LIG-0.27  OA
ATOM     36  N   PHE C   5     -21.481  15.084   4.024  1.00 17.75 LIG-0.34  N 
ATOM     37 H    PHE C   5     -21.212  15.560   3.359  1.00 17.75 LIG 0.16  HD
BRANCH 36 38
ATOM     38  CA  PHE C   5     -21.537  15.801   5.292  1.00 18.16 LIG 0.19  C 
BRANCH 38 39
ATOM     39  C   PHE C   5     -22.724  16.757   5.333  1.00 18.09 LIG 0.20  C 
ATOM     40 O    PHE C   5     -23.430  16.903   4.329  1.00 17.71 LIG-0.65  OA
ATOM     41 OXT  PHE C   5     -22.976  17.403   6.365  1.00 17.63 LIG-0.65  OA
ENDBRANCH 38 39
BRANCH 38 42
ATOM     42  CB  PHE C   5     -20.208  16.539   5.508  1.00 18.57 LIG 0.07  C 
BRANCH 42 43
ATOM     43  CG  PHE C   5     -19.028  15.834   4.875  1.00 19.32 LIG-0.06  A 
ATOM     44  CD1 PHE C   5     -18.377  14.804   5.535  1.00 20.35 LIG 0.01  A 
ATOM     45  CE1 PHE C   5     -17.308  14.149   4.943  1.00 19.79 LIG 0.00  A 
ATOM     46  CZ  PHE C   5     -16.889  14.518   3.684  1.00 20.19 LIG 0.00  A 
ATOM     47  CE2 PHE C   5     -17.526  15.533   3.019  1.00 20.40 LIG 0.00  A 
ATOM     48  CD2 PHE C   5     -18.593  16.182   3.609  1.00 20.78 LIG 0.01  A 
ENDBRANCH 42 43
ENDBRANCH 38 42
ENDBRANCH 36 38
ENDBRANCH 30 34
ENDBRANCH 28 30
ENDBRANCH 1 26
BRANCH 1 49
ATOM     49  CB  GLU C   3     -18.483  10.429   4.289  1.00 17.73 LIG 0.04  C 
BRANCH 49 50
ATOM     50  CG  GLU C   3     -17.481   9.362   4.580  1.00 21.08 LIG 0.12  C 
BRANCH 50 51
ATOM     51  CD  GLU C   3     -17.675   8.792   5.973  1.00 24.82 LIG 0.17  C 
ATOM     52 OE2  GLU C   3     -16.674   8.314   6.561  1.00 28.13 LIG-0.65  OA
ATOM     53 OE1  GLU C   3     -18.833   8.833   6.468  1.00 24.98 LIG-0.65  OA
ENDBRANCH 50 51
ENDBRANCH 49 50
ENDBRANCH 1 49
TORSDOF 22
ENDMDL
MODEL 2
USER: ADFR SOLUTION from run 152
USER: SCORE 20.863215 LL:  -4.495 LR: -17.558 RR:   0.000 FEB: -10.996
USER: RMSD 6.160553
USER: SEED 151
USER: STATUS no improvement in best in 5 clusters for 5 generations
USER: GENES 24
USER: genes 0 Translation |==|  0.62682 0.43608 0.35032
USER: genes 1 Rotation |==|  0.35020 0.91487 0.65494 0.67731
USER: genes 2 Torsion [C]-CA--N-[C] |==|  0.77725
USER: genes 3 Torsion [N]-C--CA-[N] |==|  0.92515
USER: genes 4 Torsion [C]-CA--N-[C] |==|  0.70507
USER: genes 5 Torsion [N]-C--CA-[N] |==|  0.37608
USER: genes 6 Torsion [C]-CA--N-[C] |==|  0.78939
USER: genes 7 Torsion [C]-CA--CB-[CG] |==|  0.49562
USER: genes 8 Torsion [CA]-CB--CG-[SD] |==|  0.28350
USER: genes 9 Torsion [CB]-CG--SD-[CE] |==|  0.09043
USER: genes 10 Torsion [C]-CA--CB-[CG] |==|  0.10785
USER: genes 11 Torsion [CA]-CB--CG-[CD] |==|  0.45465
USER: genes 12 Torsion [CB]-CG--CD-[OE1] |==|  0.00053
USER: genes 13 Torsion [N]-CA--C-[N] |==|  0.24050
USER: genes 14 Torsion [C]-N--CA-[CB] |==|  0.23889
USER: genes 15 Torsion [N]-CA--CB-[CG1] |==|  0.72031
USER: genes 16 Torsion [N]-CA--C-[N] |==|  0.96836
USER: genes 17 Torsion [C]-N--CA-[C] |==|  0.15513
USER: genes 18 Torsion [N]-CA--C-[OXT] |==|  0.71779
USER: genes 19 Torsion [N]-CA--CB-[CG] |==|  0.85408
USER: genes 20 Torsion [CA]-CB--CG-[CD1] |==|  0.33961
USER: genes 21 Torsion [N]-CA--CB-[CG] |==|  0.69580
USER: genes 22 Torsion [CA]-CB--CG-[CD] |==|  0.99422
USER: genes 23 Torsion [CB]-CG--CD-[OE2] |==|  0.75062
ROOT
ATOM      1  CA  GLU C   3     -17.021   8.158  -0.731  1.00 17.34 LIG 0.18  C 
ENDROOT
BRANCH 1 2
ATOM      2  N   GLU C   3     -17.380   6.765  -1.023  1.00 16.96 LIG-0.35  N 
ATOM      3  C   GLU C   2     -17.071   5.791  -0.185  1.00 16.75 LIG 0.24  C 
ATOM      4 O    GLU C   2     -16.462   5.980   0.871  1.00 16.41 LIG-0.27  OA
ATOM      5 H    GLU C   3     -17.796   6.650  -1.767  1.00 16.96 LIG 0.16  HD
BRANCH 3 6
ATOM      6  CA  GLU C   2     -17.532   4.398  -0.593  1.00 16.90 LIG 0.18  C 
BRANCH 6 7
ATOM      7  N   GLU C   2     -18.706   4.526  -1.435  1.00 16.95 LIG-0.35  N 
ATOM      8  C   MET C   1     -19.920   4.234  -1.009  1.00 17.22 LIG 0.24  C 
ATOM      9 O    MET C   1     -20.170   3.680   0.068  1.00 17.07 LIG-0.27  OA
ATOM     10 H    GLU C   2     -18.536   4.807  -2.229  1.00 16.95 LIG 0.16  HD
BRANCH 8 11
ATOM     11  CA  MET C   1     -21.011   4.632  -1.986  1.00 17.60 LIG 0.18  C 
BRANCH 11 12
ATOM     12  N   MET C   1     -22.014   3.572  -2.144  1.00 17.57 LIG-0.35  N 
ATOM     13 H    MET C   1     -22.751   3.734  -1.731  1.00 17.57 LIG 0.16  HD
ATOM     14  C   ACE C   0     -21.812   2.471  -2.851  1.00 17.66 LIG 0.21  C 
ATOM     15 O    ACE C   0     -22.644   1.572  -2.802  1.00 18.17 LIG-0.27  OA
ATOM     16  CH3 ACE C   0     -20.734   2.481  -3.892  1.00 17.74 LIG 0.12  C 
ENDBRANCH 11 12
BRANCH 11 17
ATOM     17  CB  MET C   1     -21.660   5.938  -1.496  1.00 17.86 LIG 0.04  C 
BRANCH 17 18
ATOM     18  CG  MET C   1     -22.765   6.491  -2.408  1.00 18.56 LIG 0.08  C 
BRANCH 18 19
ATOM     19 SD   MET C   1     -24.422   6.140  -1.768  1.00 20.55 LIG-0.17  SA
ATOM     20  CE  MET C   1     -24.143   6.192   0.006  1.00 18.76 LIG 0.09  C 
ENDBRANCH 18 19
ENDBRANCH 17 18
ENDBRANCH 11 17
ENDBRANCH 8 11
ENDBRANCH 6 7
BRANCH 6 21
ATOM     21  CB  GLU C   2     -16.410   3.671  -1.348  1.00 16.89 LIG 0.04  C 
BRANCH 21 22
ATOM     22  CG  GLU C   2     -15.029   3.929  -0.782  1.00 17.75 LIG 0.12  C 
BRANCH 22 23
ATOM     23  CD  GLU C   2     -14.006   2.926  -1.266  1.00 17.83 LIG 0.17  C 
ATOM     24 OE1  GLU C   2     -14.371   2.030  -2.046  1.00 16.84 LIG-0.65  OA
ATOM     25 OE2  GLU C   2     -12.833   3.030  -0.858  1.00 19.94 LIG-0.65  OA
ENDBRANCH 22 23
ENDBRANCH 21 22
ENDBRANCH 6 21
ENDBRANCH 3 6
ENDBRANCH 1 2
BRANCH 1 26
ATOM     26  C   GLU C   3     -17.980   8.802   0.228  1.00 16.67 LIG 0.24  C 
ATOM     27 O    GLU C   3     -18.920   9.494  -0.170  1.00 16.39 LIG-0.27  OA
ATOM     28  N   VAL C   4     -17.682   8.602   1.499  1.00 16.17 LIG-0.35  N 
ATOM     29 H    VAL C   4     -17.085   8.044   1.765  1.00 16.17 LIG 0.16  HD
BRANCH 28 30
ATOM     30  CA  VAL C   4     -18.347   9.319   2.579  1.00 16.42 LIG 0.18  C 
BRANCH 30 31
ATOM     31  CB  VAL C   4     -19.655   8.641   3.022  1.00 16.37 LIG 0.01  C 
ATOM     32  CG1 VAL C   4     -20.858   9.368   2.404  1.00 16.31 LIG 0.01  C 
ATOM     33  CG2 VAL C   4     -19.645   7.144   2.675  1.00 16.31 LIG 0.01  C 
ENDBRANCH 30 31
BRANCH 30 34
ATOM     34  C   VAL C   4     -17.392   9.458   3.762  1.00 17.02 LIG 0.24  C 
ATOM     35 O    VAL C   4     -17.654  10.179   4.721  1.00 16.27 LIG-0.27  OA
ATOM     36  N   PHE C   5     -16.289   8.726   3.682  1.00 17.75 LIG-0.34  N 
ATOM     37 H    PHE C   5     -16.066   8.269   2.988  1.00 17.75 LIG 0.16  HD
BRANCH 36 38
ATOM     38  CA  PHE C   5     -15.346   8.637   4.789  1.00 18.16 LIG 0.19  C 
BRANCH 38 39
ATOM     39  C   PHE C   5     -16.034   8.163   6.064  1.00 18.09 LIG 0.20  C 
ATOM     40 O    PHE C   5     -16.307   6.966   6.206  1.00 17.71 LIG-0.65  OA
ATOM     41 OXT  PHE C   5     -16.339   8.975   6.954  1.00 17.63 LIG-0.65  OA
ENDBRANCH 38 39
BRANCH 38 42
ATOM     42  CB  PHE C   5     -14.672  10.003   4.983  1.00 18.57 LIG 0.07  C 
BRANCH 42 43
ATOM     43  CG  PHE C   5     -14.065  10.551   3.710  1.00 19.32 LIG-0.06  A 
ATOM     44  CD1 PHE C   5     -14.453  11.784   3.210  1.00 20.35 LIG 0.01  A 
ATOM     45  CE1 PHE C   5     -13.880  12.289   2.053  1.00 19.79 LIG 0.00  A 
ATOM     46  CZ  PHE C   5     -12.911  11.566   1.394  1.00 20.19 LIG 0.00  A 
ATOM     47  CE2 PHE C   5     -12.515  10.347   1.880  1.00 20.40 LIG 0.00  A 
ATOM     48  CD2 PHE C   5     -13.084   9.846   3.035  1.00 20.78 LIG 0.01  A 
ENDBRANCH 42 43
ENDBRANCH 38 42
ENDBRANCH 36 38
ENDBRANCH 30 34
ENDBRANCH 28 30
ENDBRANCH 1 26
BRANCH 1 49
ATOM     49  CB  GLU C   3     -16.997   9.021  -1.994  1.00 17.73 LIG 0.04  C 
BRANCH 49 50
ATOM     50  CG  GLU C   3     -15.633   9.448  -2.425  1.00 21.08 LIG 0.12  C 
BRANCH 50 51
ATOM     51  CD  GLU C   3     -14.572   8.955  -1.459  1.00 24.82 LIG 0.17  C 
ATOM     52 OE2  GLU C   3     -14.268   9.693  -0.490  1.00 28.13 LIG-0.65  OA
ATOM     53 OE1  GLU C   3     -14.056   7.827  -1.679  1.00 24.98 LIG-0.65  OA
ENDBRANCH 50 51
ENDBRANCH 49 50
ENDBRANCH 1 49
TORSDOF 22
ENDMDL
MODEL 3
USER: ADFR SOLUTION from run 140
USER: SCORE 21.046268 LL:  -4.118 LR: -17.554 RR:   0.000 FEB: -10.991
USER: RMSD 10.120592
USER: SEED 139
USER: STATUS no improvement in best in 3 clusters for 5 generations
USER: GENES 24
USER: genes 0 Translation |==|  0.56967 0.44632 0.38140
USER: genes 1 Rotation |==|  0.00777 0.46878 0.41858 0.51024
USER: genes 2 Torsion [C]-CA--N-[C] |==|  0.75295
USER: genes 3 Torsion [N]-C--CA-[N] |==|  0.48118
USER: genes 4 Torsion [C]-CA--N-[C] |==|  0.77015
USER: genes 5 Torsion [N]-C--CA-[N] |==|  0.46245
USER: genes 6 Torsion [C]-CA--N-[C] |==|  0.57766
USER: genes 7 Torsion [C]-CA--CB-[CG] |==|  0.84877
USER: genes 8 Torsion [CA]-CB--CG-[SD] |==|  0.76091
USER: genes 9 Torsion [CB]-CG--SD-[CE] |==|  0.45420
USER: genes 10 Torsion [C]-CA--CB-[CG] |==|  0.53526
USER: genes 11 Torsion [CA]-CB--CG-[CD] |==|  0.50922
USER: genes 12 Torsion [CB]-CG--CD-[OE1] |==|  0.76855
USER: genes 13 Torsion [N]-CA--C-[N] |==|  0.49256
USER: genes 14 Torsion [C]-N--CA-[CB] |==|  0.86667
USER: genes 15 Torsion [N]-CA--CB-[CG1] |==|  0.47010
USER: genes 16 Torsion [N]-CA--C-[N] |==|  0.35574
USER: genes 17 Torsion [C]-N--CA-[C] |==|  0.49195
USER: genes 18 Torsion [N]-CA--C-[OXT] |==|  0.50711
USER: genes 19 Torsion [N]-CA--CB-[CG] |==|  0.20419
USER: genes 20 Torsion [CA]-CB--CG-[CD1] |==|  0.29628
USER: genes 21 Torsion [N]-CA--CB-[CG] |==|  0.14117
USER: genes 22 Torsion [CA]-CB--CG-[CD] |==|  0.74565
USER: genes 23 Torsion [CB]-CG--CD-[OE2] |==|  0.22077
ROOT
ATOM      1  CA  GLU C   3     -18.050   8.404  -0.149  1.00 17.34 LIG 0.18  C 
ENDROOT
BRANCH 1 2
ATOM      2  N   GLU C   3     -17.691   9.138   1.069  1.00 16.96 LIG-0.35  N 
ATOM      3  C   GLU C   2     -18.614   9.733   1.805  1.00 16.75 LIG 0.24  C 
ATOM      4 O    GLU C   2     -19.814   9.722   1.517  1.00 16.41 LIG-0.27  OA
ATOM      5 H    GLU C   3     -16.851   9.144   1.251  1.00 16.96 LIG 0.16  HD
BRANCH 3 6
ATOM      6  CA  GLU C   2     -18.110  10.430   3.061  1.00 16.90 LIG 0.18  C 
BRANCH 6 7
ATOM      7  N   GLU C   2     -19.211  11.160   3.661  1.00 16.95 LIG-0.35  N 
ATOM      8  C   MET C   1     -19.572  12.361   3.253  1.00 17.22 LIG 0.24  C 
ATOM      9 O    MET C   1     -18.931  13.049   2.449  1.00 17.07 LIG-0.27  OA
ATOM     10 H    GLU C   2     -19.601  10.739   4.300  1.00 16.95 LIG 0.16  HD
BRANCH 8 11
ATOM     11  CA  MET C   1     -20.865  12.845   3.881  1.00 17.60 LIG 0.18  C 
BRANCH 11 12
ATOM     12  N   MET C   1     -21.072  14.282   3.663  1.00 17.57 LIG-0.35  N 
ATOM     13 H    MET C   1     -20.700  14.576   2.945  1.00 17.57 LIG 0.16  HD
ATOM     14  C   ACE C   0     -21.763  15.057   4.485  1.00 17.66 LIG 0.21  C 
ATOM     15 O    ACE C   0     -21.754  16.270   4.306  1.00 18.17 LIG-0.27  OA
ATOM     16  CH3 ACE C   0     -22.744  14.411   5.415  1.00 17.74 LIG 0.12  C 
ENDBRANCH 11 12
BRANCH 11 17
ATOM     17  CB  MET C   1     -22.032  12.026   3.304  1.00 17.86 LIG 0.04  C 
BRANCH 17 18
ATOM     18  CG  MET C   1     -22.122  12.021   1.770  1.00 18.56 LIG 0.08  C 
BRANCH 18 19
ATOM     19 SD   MET C   1     -23.047  13.442   1.133  1.00 20.55 LIG-0.17  SA
ATOM     20  CE  MET C   1     -22.562  13.442  -0.597  1.00 18.76 LIG 0.09  C 
ENDBRANCH 18 19
ENDBRANCH 17 18
ENDBRANCH 11 17
ENDBRANCH 8 11
ENDBRANCH 6 7
BRANCH 6 21
ATOM     21  CB  GLU C   2     -17.554   9.397   4.051  1.00 16.89 LIG 0.04  C 
BRANCH 21 22
ATOM     22  CG  GLU C   2     -17.311   9.952   5.440  1.00 17.75 LIG 0.12  C 
BRANCH 22 23
ATOM     23  CD  GLU C   2     -16.689   8.935   6.371  1.00 17.83 LIG 0.17  C 
ATOM     24 OE1  GLU C   2     -17.429   8.121   6.948  1.00 16.84 LIG-0.65  OA
ATOM     25 OE2  GLU C   2     -15.453   8.956   6.531  1.00 19.94 LIG-0.65  OA
ENDBRANCH 22 23
ENDBRANCH 21 22
ENDBRANCH 6 21
ENDBRANCH 3 6
ENDBRANCH 1 2
BRANCH 1 26
ATOM     26  C   GLU C   3     -18.368   6.963   0.130  1.00 16.67 LIG 0.24  C 
ATOM     27 O    GLU C   3     -18.222   6.478   1.254  1.00 16.39 LIG-0.27  OA
ATOM     28  N   VAL C   4     -18.750   6.282  -0.936  1.00 16.17 LIG-0.35  N 
ATOM     29 H    VAL C   4     -18.939   6.648  -1.691  1.00 16.17 LIG 0.16  HD
BRANCH 28 30
ATOM     30  CA  VAL C   4     -18.887   4.832  -0.929  1.00 16.42 LIG 0.18  C 
BRANCH 30 31
ATOM     31  CB  VAL C   4     -17.666   4.126  -0.314  1.00 16.37 LIG 0.01  C 
ATOM     32  CG1 VAL C   4     -17.978   2.640  -0.089  1.00 16.31 LIG 0.01  C 
ATOM     33  CG2 VAL C   4     -16.416   4.328  -1.183  1.00 16.31 LIG 0.01  C 
ENDBRANCH 30 31
BRANCH 30 34
ATOM     34  C   VAL C   4     -20.159   4.445  -0.179  1.00 17.02 LIG 0.24  C 
ATOM     35 O    VAL C   4     -20.408   4.887   0.939  1.00 16.27 LIG-0.27  OA
ATOM     36  N   PHE C   5     -20.971   3.629  -0.836  1.00 17.75 LIG-0.34  N 
ATOM     37 H    PHE C   5     -20.777   3.264  -1.591  1.00 17.75 LIG 0.16  HD
BRANCH 36 38
ATOM     38  CA  PHE C   5     -22.288   3.278  -0.320  1.00 18.16 LIG 0.19  C 
BRANCH 38 39
ATOM     39  C   PHE C   5     -23.045   2.386  -1.298  1.00 18.09 LIG 0.20  C 
ATOM     40 O    PHE C   5     -22.505   2.036  -2.353  1.00 17.71 LIG-0.65  OA
ATOM     41 OXT  PHE C   5     -24.207   2.024  -1.048  1.00 17.63 LIG-0.65  OA
ENDBRANCH 38 39
BRANCH 38 42
ATOM     42  CB  PHE C   5     -23.064   4.567  -0.013  1.00 18.57 LIG 0.07  C 
BRANCH 42 43
ATOM     43  CG  PHE C   5     -23.543   5.284  -1.257  1.00 19.32 LIG-0.06  A 
ATOM     44  CD1 PHE C   5     -24.881   5.269  -1.616  1.00 20.35 LIG 0.01  A 
ATOM     45  CE1 PHE C   5     -25.317   5.942  -2.746  1.00 19.79 LIG 0.00  A 
ATOM     46  CZ  PHE C   5     -24.416   6.638  -3.522  1.00 20.19 LIG 0.00  A 
ATOM     47  CE2 PHE C   5     -23.090   6.662  -3.177  1.00 20.40 LIG 0.00  A 
ATOM     48  CD2 PHE C   5     -22.657   5.995  -2.048  1.00 20.78 LIG 0.01  A 
ENDBRANCH 42 43
ENDBRANCH 38 42
ENDBRANCH 36 38
ENDBRANCH 30 34
ENDBRANCH 28 30
ENDBRANCH 1 26
BRANCH 1 49
ATOM     49  CB  GLU C   3     -16.925   8.426  -1.186  1.00 17.73 LIG 0.04  C 
BRANCH 49 50
ATOM     50  CG  GLU C   3     -15.589   8.022  -0.658  1.00 21.08 LIG 0.12  C 
BRANCH 50 51
ATOM     51  CD  GLU C   3     -14.805   9.226  -0.168  1.00 24.82 LIG 0.17  C 
ATOM     52 OE2  GLU C   3     -15.084   9.692   0.964  1.00 28.13 LIG-0.65  OA
ATOM     53 OE1  GLU C   3     -13.912   9.692  -0.925  1.00 24.98 LIG-0.65  OA
ENDBRANCH 50 51
ENDBRANCH 49 50
ENDBRANCH 1 49
TORSDOF 22
ENDMDL
MODEL 4
USER: ADFR SOLUTION from run 117
USER: SCORE 20.709533 LL:  -4.353 LR: -17.529 RR:   0.000 FEB: -10.966
USER: RMSD 6.268608
USER: SEED 116
USER: STATUS no improvement in best in 10 clusters for 5 generations
USER: GENES 24
USER: genes 0 Translation |==|  0.59870 0.42020 0.36327
USER: genes 1 Rotation |==|  0.42312 0.92000 0.62651 0.72735
USER: genes 2 Torsion [C]-CA--N-[C] |==|  0.75503
USER: genes 3 Torsion [N]-C--CA-[N] |==|  0.88216
USER: genes 4 Torsion [C]-CA--N-[C] |==|  0.82782
USER: genes 5 Torsion [N]-C--CA-[N] |==|  0.11228
USER: genes 6 Torsion [C]-CA--N-[C] |==|  0.57222
USER: genes 7 Torsion [C]-CA--CB-[CG] |==|  0.68711
USER: genes 8 Torsion [CA]-CB--CG-[SD] |==|  0.19604
USER: genes 9 Torsion [CB]-CG--SD-[CE] |==|  0.37415
USER: genes 10 Torsion [C]-CA--CB-[CG] |==|  0.26506
USER: genes 11 Torsion [CA]-CB--CG-[CD] |==|  0.59590
USER: genes 12 Torsion [CB]-CG--CD-[OE1] |==|  0.13682
USER: genes 13 Torsion [N]-CA--C-[N] |==|  0.30296
USER: genes 14 Torsion [C]-N--CA-[CB] |==|  0.20505
USER: genes 15 Torsion [N]-CA--CB-[CG1] |==|  0.72458
USER: genes 16 Torsion [N]-CA--C-[N] |==|  0.02377
USER: genes 17 Torsion [C]-N--CA-[C] |==|  0.12664
USER: genes 18 Torsion [N]-CA--C-[OXT] |==|  0.23000
USER: genes 19 Torsion [N]-CA--CB-[CG] |==|  0.87961
USER: genes 20 Torsion [CA]-CB--CG-[CD1] |==|  0.31906
USER: genes 21 Torsion [N]-CA--CB-[CG] |==|  0.68918
USER: genes 22 Torsion [CA]-CB--CG-[CD] |==|  0.81253
USER: genes 23 Torsion [CB]-CG--CD-[OE2] |==|  0.55164
ROOT
ATOM      1  CA  GLU C   3     -17.527   7.777  -0.489  1.00 17.34 LIG 0.18  C 
ENDROOT
BRANCH 1 2
ATOM      2  N   GLU C   3     -18.305   6.610  -0.921  1.00 16.96 LIG-0.35  N 
ATOM      3  C   GLU C   2     -18.315   5.495  -0.211  1.00 16.75 LIG 0.24  C 
ATOM      4 O    GLU C   2     -17.675   5.359   0.835  1.00 16.41 LIG-0.27  OA
ATOM      5 H    GLU C   3     -18.737   6.719  -1.656  1.00 16.96 LIG 0.16  HD
BRANCH 3 6
ATOM      6  CA  GLU C   2     -19.190   4.374  -0.755  1.00 16.90 LIG 0.18  C 
BRANCH 6 7
ATOM      7  N   GLU C   2     -20.445   4.942  -1.207  1.00 16.95 LIG-0.35  N 
ATOM      8  C   MET C   1     -21.279   5.561  -0.393  1.00 17.22 LIG 0.24  C 
ATOM      9 O    MET C   1     -21.166   5.583   0.839  1.00 17.07 LIG-0.27  OA
ATOM     10 H    GLU C   2     -20.593   4.838  -2.047  1.00 16.95 LIG 0.16  HD
BRANCH 8 11
ATOM     11  CA  MET C   1     -22.424   6.248  -1.113  1.00 17.60 LIG 0.18  C 
BRANCH 11 12
ATOM     12  N   MET C   1     -22.942   5.430  -2.216  1.00 17.57 LIG-0.35  N 
ATOM     13 H    MET C   1     -22.811   4.587  -2.107  1.00 17.57 LIG 0.16  HD
ATOM     14  C   ACE C   0     -23.551   5.933  -3.279  1.00 17.66 LIG 0.21  C 
ATOM     15 O    ACE C   0     -23.813   5.192  -4.220  1.00 18.17 LIG-0.27  OA
ATOM     16  CH3 ACE C   0     -24.146   7.304  -3.175  1.00 17.74 LIG 0.12  C 
ENDBRANCH 11 12
BRANCH 11 17
ATOM     17  CB  MET C   1     -23.531   6.564  -0.093  1.00 17.86 LIG 0.04  C 
BRANCH 17 18
ATOM     18  CG  MET C   1     -24.833   5.772  -0.287  1.00 18.56 LIG 0.08  C 
BRANCH 18 19
ATOM     19 SD   MET C   1     -24.640   4.022   0.137  1.00 20.55 LIG-0.17  SA
ATOM     20  CE  MET C   1     -26.117   3.722   1.116  1.00 18.76 LIG 0.09  C 
ENDBRANCH 18 19
ENDBRANCH 17 18
ENDBRANCH 11 17
ENDBRANCH 8 11
ENDBRANCH 6 7
BRANCH 6 21
ATOM     21  CB  GLU C   2     -18.477   3.664  -1.915  1.00 16.89 LIG 0.04  C 
BRANCH 21 22
ATOM     22  CG  GLU C   2     -17.721   2.420  -1.495  1.00 17.75 LIG 0.12  C 
BRANCH 22 23
ATOM     23  CD  GLU C   2     -16.454   2.214  -2.294  1.00 17.83 LIG 0.17  C 
ATOM     24 OE1  GLU C   2     -15.668   3.167  -2.424  1.00 16.84 LIG-0.65  OA
ATOM     25 OE2  GLU C   2     -16.247   1.094  -2.800  1.00 19.94 LIG-0.65  OA
ENDBRANCH 22 23
ENDBRANCH 21 22
ENDBRANCH 6 21
ENDBRANCH 3 6
ENDBRANCH 1 2
BRANCH 1 26
ATOM     26  C   GLU C   3     -18.310   8.672   0.429  1.00 16.67 LIG 0.24  C 
ATOM     27 O    GLU C   3     -19.215   9.393   0.005  1.00 16.39 LIG-0.27  OA
ATOM     28  N   VAL C   4     -17.897   8.646   1.683  1.00 16.17 LIG-0.35  N 
ATOM     29 H    VAL C   4     -17.332   8.073   1.986  1.00 16.17 LIG 0.16  HD
BRANCH 28 30
ATOM     30  CA  VAL C   4     -18.368   9.598   2.680  1.00 16.42 LIG 0.18  C 
BRANCH 30 31
ATOM     31  CB  VAL C   4     -19.811   9.316   3.131  1.00 16.37 LIG 0.01  C 
ATOM     32  CG1 VAL C   4     -20.784  10.244   2.390  1.00 16.31 LIG 0.01  C 
ATOM     33  CG2 VAL C   4     -20.170   7.834   2.940  1.00 16.31 LIG 0.01  C 
ENDBRANCH 30 31
BRANCH 30 34
ATOM     34  C   VAL C   4     -17.424   9.588   3.880  1.00 17.02 LIG 0.24  C 
ATOM     35 O    VAL C   4     -17.703  10.171   4.924  1.00 16.27 LIG-0.27  OA
ATOM     36  N   PHE C   5     -16.311   8.887   3.713  1.00 17.75 LIG-0.34  N 
ATOM     37 H    PHE C   5     -16.077   8.529   2.966  1.00 17.75 LIG 0.16  HD
BRANCH 36 38
ATOM     38  CA  PHE C   5     -15.375   8.662   4.807  1.00 18.16 LIG 0.19  C 
BRANCH 38 39
ATOM     39  C   PHE C   5     -16.104   8.251   6.082  1.00 18.09 LIG 0.20  C 
ATOM     40 O    PHE C   5     -16.347   9.096   6.949  1.00 17.71 LIG-0.65  OA
ATOM     41 OXT  PHE C   5     -16.439   7.067   6.261  1.00 17.63 LIG-0.65  OA
ENDBRANCH 38 39
BRANCH 38 42
ATOM     42  CB  PHE C   5     -14.537   9.931   5.017  1.00 18.57 LIG 0.07  C 
BRANCH 42 43
ATOM     43  CG  PHE C   5     -14.062  10.550   3.720  1.00 19.32 LIG-0.06  A 
ATOM     44  CD1 PHE C   5     -14.506  11.802   3.325  1.00 20.35 LIG 0.01  A 
ATOM     45  CE1 PHE C   5     -14.054  12.372   2.146  1.00 19.79 LIG 0.00  A 
ATOM     46  CZ  PHE C   5     -13.150  11.695   1.358  1.00 20.19 LIG 0.00  A 
ATOM     47  CE2 PHE C   5     -12.701  10.457   1.738  1.00 20.40 LIG 0.00  A 
ATOM     48  CD2 PHE C   5     -13.149   9.892   2.916  1.00 20.78 LIG 0.01  A 
ENDBRANCH 42 43
ENDBRANCH 38 42
ENDBRANCH 36 38
ENDBRANCH 30 34
ENDBRANCH 28 30
ENDBRANCH 1 26
BRANCH 1 49
ATOM     49  CB  GLU C   3     -17.069   8.632  -1.671  1.00 17.73 LIG 0.04  C 
BRANCH 49 50
ATOM     50  CG  GLU C   3     -15.595   8.621  -1.908  1.00 21.08 LIG 0.12  C 
BRANCH 50 51
ATOM     51  CD  GLU C   3     -14.852   9.310  -0.779  1.00 24.82 LIG 0.17  C 
ATOM     52 OE2  GLU C   3     -13.676   9.693  -0.993  1.00 28.13 LIG-0.65  OA
ATOM     53 OE1  GLU C   3     -15.459   9.465   0.314  1.00 24.98 LIG-0.65  OA
ENDBRANCH 50 51
ENDBRANCH 49 50
ENDBRANCH 1 49
TORSDOF 22
ENDMDL
MODEL 5
USER: ADFR SOLUTION from run 116
USER: SCORE 21.877248 LL:  -5.197 LR: -17.468 RR:   0.000 FEB: -10.905
USER: RMSD 5.454478
USER: SEED 115
USER: STATUS 1 or 2 clusters left
USER: GENES 24
USER: genes 0 Translation |==|  0.56566 0.43103 0.38930
USER: genes 1 Rotation |==|  0.32646 0.84616 0.66622 0.76913
USER: genes 2 Torsion [C]-CA--N-[C] |==|  0.69825
USER: genes 3 Torsion [N]-C--CA-[N] |==|  0.92566
USER: genes 4 Torsion [C]-CA--N-[C] |==|  0.78772
USER: genes 5 Torsion [N]-C--CA-[N] |==|  0.33591
USER: genes 6 Torsion [C]-CA--N-[C] |==|  0.79624
USER: genes 7 Torsion [C]-CA--CB-[CG] |==|  0.43928
USER: genes 8 Torsion [CA]-CB--CG-[SD] |==|  0.25181
USER: genes 9 Torsion [CB]-CG--SD-[CE] |==|  0.07180
USER: genes 10 Torsion [C]-CA--CB-[CG] |==|  0.09659
USER: genes 11 Torsion [CA]-CB--CG-[CD] |==|  0.37464
USER: genes 12 Torsion [CB]-CG--CD-[OE1] |==|  0.50370
USER: genes 13 Torsion [N]-CA--C-[N] |==|  0.05556
USER: genes 14 Torsion [C]-N--CA-[CB] |==|  0.50556
USER: genes 15 Torsion [N]-CA--CB-[CG1] |==|  0.21224
USER: genes 16 Torsion [N]-CA--C-[N] |==|  0.42932
USER: genes 17 Torsion [C]-N--CA-[C] |==|  0.58807
USER: genes 18 Torsion [N]-CA--C-[OXT] |==|  0.15459
USER: genes 19 Torsion [N]-CA--CB-[CG] |==|  0.10529
USER: genes 20 Torsion [CA]-CB--CG-[CD1] |==|  0.15920
USER: genes 21 Torsion [N]-CA--CB-[CG] |==|  0.83380
USER: genes 22 Torsion [CA]-CB--CG-[CD] |==|  0.78765
USER: genes 23 Torsion [CB]-CG--CD-[OE2] |==|  0.52949
ROOT
ATOM      1  CA  GLU C   3     -18.122   8.037  -0.001  1.00 17.34 LIG 0.18  C 
ENDROOT
BRANCH 1 2
ATOM      2  N   GLU C   3     -18.188   6.728  -0.660  1.00 16.96 LIG-0.35  N 
ATOM      3  C   GLU C   2     -17.614   5.664  -0.125  1.00 16.75 LIG 0.24  C 
ATOM      4 O    GLU C   2     -16.986   5.701   0.936  1.00 16.41 LIG-0.27  OA
ATOM      5 H    GLU C   3     -18.622   6.721  -1.403  1.00 16.96 LIG 0.16  HD
BRANCH 3 6
ATOM      6  CA  GLU C   2     -17.789   4.362  -0.895  1.00 16.90 LIG 0.18  C 
BRANCH 6 7
ATOM      7  N   GLU C   2     -19.018   4.436  -1.661  1.00 16.95 LIG-0.35  N 
ATOM      8  C   MET C   1     -20.208   4.293  -1.110  1.00 17.22 LIG 0.24  C 
ATOM      9 O    MET C   1     -20.399   3.928   0.056  1.00 17.07 LIG-0.27  OA
ATOM     10 H    GLU C   2     -18.898   4.581  -2.500  1.00 16.95 LIG 0.16  HD
BRANCH 8 11
ATOM     11  CA  MET C   1     -21.350   4.609  -2.057  1.00 17.60 LIG 0.18  C 
BRANCH 11 12
ATOM     12  N   MET C   1     -22.245   3.459  -2.232  1.00 17.57 LIG-0.35  N 
ATOM     13 H    MET C   1     -23.001   3.549  -1.830  1.00 17.57 LIG 0.16  HD
ATOM     14  C   ACE C   0     -21.929   2.384  -2.938  1.00 17.66 LIG 0.21  C 
ATOM     15 O    ACE C   0     -22.673   1.410  -2.903  1.00 18.17 LIG-0.27  OA
ATOM     16  CH3 ACE C   0     -20.840   2.500  -3.961  1.00 17.74 LIG 0.12  C 
ENDBRANCH 11 12
BRANCH 11 17
ATOM     17  CB  MET C   1     -22.118   5.828  -1.517  1.00 17.86 LIG 0.04  C 
BRANCH 17 18
ATOM     18  CG  MET C   1     -22.938   6.591  -2.567  1.00 18.56 LIG 0.08  C 
BRANCH 18 19
ATOM     19 SD   MET C   1     -24.633   5.968  -2.698  1.00 20.55 LIG-0.17  SA
ATOM     20  CE  MET C   1     -24.889   5.268  -1.062  1.00 18.76 LIG 0.09  C 
ENDBRANCH 18 19
ENDBRANCH 17 18
ENDBRANCH 11 17
ENDBRANCH 8 11
ENDBRANCH 6 7
BRANCH 6 21
ATOM     21  CB  GLU C   2     -16.591   4.137  -1.829  1.00 16.89 LIG 0.04  C 
BRANCH 21 22
ATOM     22  CG  GLU C   2     -15.276   4.634  -1.263  1.00 17.75 LIG 0.12  C 
BRANCH 22 23
ATOM     23  CD  GLU C   2     -14.152   3.639  -1.449  1.00 17.83 LIG 0.17  C 
ATOM     24 OE1  GLU C   2     -13.026   3.919  -1.004  1.00 16.84 LIG-0.65  OA
ATOM     25 OE2  GLU C   2     -14.395   2.574  -2.050  1.00 19.94 LIG-0.65  OA
ENDBRANCH 22 23
ENDBRANCH 21 22
ENDBRANCH 6 21
ENDBRANCH 3 6
ENDBRANCH 1 2
BRANCH 1 26
ATOM     26  C   GLU C   3     -19.446   8.449   0.576  1.00 16.67 LIG 0.24  C 
ATOM     27 O    GLU C   3     -19.675   9.621   0.884  1.00 16.39 LIG-0.27  OA
ATOM     28  N   VAL C   4     -20.284   7.447   0.766  1.00 16.17 LIG-0.35  N 
ATOM     29 H    VAL C   4     -20.153   6.653   0.462  1.00 16.17 LIG 0.16  HD
BRANCH 28 30
ATOM     30  CA  VAL C   4     -21.524   7.596   1.516  1.00 16.42 LIG 0.18  C 
BRANCH 30 31
ATOM     31  CB  VAL C   4     -22.303   6.276   1.640  1.00 16.37 LIG 0.01  C 
ATOM     32  CG1 VAL C   4     -21.644   5.374   2.693  1.00 16.31 LIG 0.01  C 
ATOM     33  CG2 VAL C   4     -23.786   6.538   1.950  1.00 16.31 LIG 0.01  C 
ENDBRANCH 30 31
BRANCH 30 34
ATOM     34  C   VAL C   4     -21.216   8.165   2.899  1.00 17.02 LIG 0.24  C 
ATOM     35 O    VAL C   4     -20.112   8.029   3.420  1.00 16.27 LIG-0.27  OA
ATOM     36  N   PHE C   5     -22.213   8.828   3.468  1.00 17.75 LIG-0.34  N 
ATOM     37 H    PHE C   5     -23.007   8.873   3.141  1.00 17.75 LIG 0.16  HD
BRANCH 36 38
ATOM     38  CA  PHE C   5     -22.037   9.549   4.722  1.00 18.16 LIG 0.19  C 
BRANCH 38 39
ATOM     39  C   PHE C   5     -23.321   9.550   5.544  1.00 18.09 LIG 0.20  C 
ATOM     40 O    PHE C   5     -23.804  10.621   5.926  1.00 17.71 LIG-0.65  OA
ATOM     41 OXT  PHE C   5     -23.874   8.480   5.848  1.00 17.63 LIG-0.65  OA
ENDBRANCH 38 39
BRANCH 38 42
ATOM     42  CB  PHE C   5     -21.559  10.976   4.415  1.00 18.57 LIG 0.07  C 
BRANCH 42 43
ATOM     43  CG  PHE C   5     -22.210  11.567   3.183  1.00 19.32 LIG-0.06  A 
ATOM     44  CD1 PHE C   5     -23.589  11.672   3.088  1.00 20.35 LIG 0.01  A 
ATOM     45  CE1 PHE C   5     -24.179  12.231   1.965  1.00 19.79 LIG 0.00  A 
ATOM     46  CZ  PHE C   5     -23.393  12.694   0.934  1.00 20.19 LIG 0.00  A 
ATOM     47  CE2 PHE C   5     -22.028  12.599   1.016  1.00 20.40 LIG 0.00  A 
ATOM     48  CD2 PHE C   5     -21.441  12.045   2.137  1.00 20.78 LIG 0.01  A 
ENDBRANCH 42 43
ENDBRANCH 38 42
ENDBRANCH 36 38
ENDBRANCH 30 34
ENDBRANCH 28 30
ENDBRANCH 1 26
BRANCH 1 49
ATOM     49  CB  GLU C   3     -17.684   9.143  -0.962  1.00 17.73 LIG 0.04  C 
BRANCH 49 50
ATOM     50  CG  GLU C   3     -16.338   8.934  -1.573  1.00 21.08 LIG 0.12  C 
BRANCH 50 51
ATOM     51  CD  GLU C   3     -15.231   9.251  -0.585  1.00 24.82 LIG 0.17  C 
ATOM     52 OE2  GLU C   3     -14.054   9.317  -1.017  1.00 28.13 LIG-0.65  OA
ATOM     53 OE1  GLU C   3     -15.554   9.437   0.618  1.00 24.98 LIG-0.65  OA
ENDBRANCH 50 51
ENDBRANCH 49 50
ENDBRANCH 1 49
TORSDOF 22
ENDMDL
MODEL 6
USER: ADFR SOLUTION from run 32
USER: SCORE 18.773773 LL:  -4.340 LR: -17.267 RR:   0.000 FEB: -10.704
USER: RMSD 9.899454
USER: SEED 31
USER: STATUS no improvement in best in 16 clusters for 5 generations
USER: GENES 24
USER: genes 0 Translation |==|  0.78190 0.33648 0.39743
USER: genes 1 Rotation |==|  0.65339 0.08029 0.69236 0.61541
USER: genes 2 Torsion [C]-CA--N-[C] |==|  0.65499
USER: genes 3 Torsion [N]-C--CA-[N] |==|  0.75000
USER: genes 4 Torsion [C]-CA--N-[C] |==|  0.87023
USER: genes 5 Torsion [N]-C--CA-[N] |==|  0.25992
USER: genes 6 Torsion [C]-CA--N-[C] |==|  0.71253
USER: genes 7 Torsion [C]-CA--CB-[CG] |==|  0.30943
USER: genes 8 Torsion [CA]-CB--CG-[SD] |==|  0.78014
USER: genes 9 Torsion [CB]-CG--SD-[CE] |==|  0.22118
USER: genes 10 Torsion [C]-CA--CB-[CG] |==|  0.73944
USER: genes 11 Torsion [CA]-CB--CG-[CD] |==|  0.70726
USER: genes 12 Torsion [CB]-CG--CD-[OE1] |==|  0.29374
USER: genes 13 Torsion [N]-CA--C-[N] |==|  0.80745
USER: genes 14 Torsion [C]-N--CA-[CB] |==|  0.16280
USER: genes 15 Torsion [N]-CA--CB-[CG1] |==|  0.37737
USER: genes 16 Torsion [N]-CA--C-[N] |==|  0.88486
USER: genes 17 Torsion [C]-N--CA-[C] |==|  0.74086
USER: genes 18 Torsion [N]-CA--C-[OXT] |==|  0.41001
USER: genes 19 Torsion [N]-CA--CB-[CG] |==|  0.58616
USER: genes 20 Torsion [CA]-CB--CG-[CD1] |==|  0.35981
USER: genes 21 Torsion [N]-CA--CB-[CG] |==|  0.81639
USER: genes 22 Torsion [CA]-CB--CG-[CD] |==|  0.87169
USER: genes 23 Torsion [CB]-CG--CD-[OE2] |==|  0.39375
ROOT
ATOM      1  CA  GLU C   3     -14.230   5.768   0.152  1.00 17.34 LIG 0.18  C 
ENDROOT
BRANCH 1 2
ATOM      2  N   GLU C   3     -14.166   5.911   1.610  1.00 16.96 LIG-0.35  N 
ATOM      3  C   GLU C   2     -13.018   5.803   2.258  1.00 16.75 LIG 0.24  C 
ATOM      4 O    GLU C   2     -11.947   5.567   1.692  1.00 16.41 LIG-0.27  OA
ATOM      5 H    GLU C   3     -14.922   6.066   1.990  1.00 16.96 LIG 0.16  HD
BRANCH 3 6
ATOM      6  CA  GLU C   2     -13.088   6.008   3.765  1.00 16.90 LIG 0.18  C 
BRANCH 6 7
ATOM      7  N   GLU C   2     -12.885   7.415   4.052  1.00 16.95 LIG-0.35  N 
ATOM      8  C   MET C   1     -11.916   8.120   3.501  1.00 17.22 LIG 0.24  C 
ATOM      9 O    MET C   1     -10.999   7.639   2.825  1.00 17.07 LIG-0.27  OA
ATOM     10 H    GLU C   2     -13.452   7.742   4.610  1.00 16.95 LIG 0.16  HD
BRANCH 8 11
ATOM     11  CA  MET C   1     -12.017   9.606   3.787  1.00 17.60 LIG 0.18  C 
BRANCH 11 12
ATOM     12  N   MET C   1     -11.228   9.989   4.963  1.00 17.57 LIG-0.35  N 
ATOM     13 H    MET C   1     -10.382  10.031   4.809  1.00 17.57 LIG 0.16  HD
ATOM     14  C   ACE C   0     -11.756  10.247   6.150  1.00 17.66 LIG 0.21  C 
ATOM     15 O    ACE C   0     -11.012  10.408   7.111  1.00 18.17 LIG-0.27  OA
ATOM     16  CH3 ACE C   0     -13.209  10.609   6.217  1.00 17.74 LIG 0.12  C 
ENDBRANCH 11 12
BRANCH 11 17
ATOM     17  CB  MET C   1     -11.560  10.382   2.539  1.00 17.86 LIG 0.04  C 
BRANCH 17 18
ATOM     18  CG  MET C   1     -12.674  11.149   1.812  1.00 18.56 LIG 0.08  C 
BRANCH 18 19
ATOM     19 SD   MET C   1     -13.683  10.067   0.768  1.00 20.55 LIG-0.17  SA
ATOM     20  CE  MET C   1     -14.776   9.313   1.978  1.00 18.76 LIG 0.09  C 
ENDBRANCH 18 19
ENDBRANCH 17 18
ENDBRANCH 11 17
ENDBRANCH 8 11
ENDBRANCH 6 7
BRANCH 6 21
ATOM     21  CB  GLU C   2     -14.451   5.545   4.297  1.00 16.89 LIG 0.04  C 
BRANCH 21 22
ATOM     22  CG  GLU C   2     -15.475   6.658   4.398  1.00 17.75 LIG 0.12  C 
BRANCH 22 23
ATOM     23  CD  GLU C   2     -15.713   7.100   5.824  1.00 17.83 LIG 0.17  C 
ATOM     24 OE1  GLU C   2     -15.241   8.186   6.200  1.00 16.84 LIG-0.65  OA
ATOM     25 OE2  GLU C   2     -16.371   6.354   6.575  1.00 19.94 LIG-0.65  OA
ENDBRANCH 22 23
ENDBRANCH 21 22
ENDBRANCH 6 21
ENDBRANCH 3 6
ENDBRANCH 1 2
BRANCH 1 26
ATOM     26  C   GLU C   3     -14.853   6.963  -0.509  1.00 16.67 LIG 0.24  C 
ATOM     27 O    GLU C   3     -14.178   7.761  -1.163  1.00 16.39 LIG-0.27  OA
ATOM     28  N   VAL C   4     -16.146   7.093  -0.272  1.00 16.17 LIG-0.35  N 
ATOM     29 H    VAL C   4     -16.624   6.485   0.103  1.00 16.17 LIG 0.16  HD
BRANCH 28 30
ATOM     30  CA  VAL C   4     -16.888   8.295  -0.630  1.00 16.42 LIG 0.18  C 
BRANCH 30 31
ATOM     31  CB  VAL C   4     -16.818   8.607  -2.135  1.00 16.37 LIG 0.01  C 
ATOM     32  CG1 VAL C   4     -18.210   8.996  -2.655  1.00 16.31 LIG 0.01  C 
ATOM     33  CG2 VAL C   4     -15.769   9.692  -2.425  1.00 16.31 LIG 0.01  C 
ENDBRANCH 30 31
BRANCH 30 34
ATOM     34  C   VAL C   4     -18.341   8.148  -0.184  1.00 17.02 LIG 0.24  C 
ATOM     35 O    VAL C   4     -18.961   9.086   0.310  1.00 16.27 LIG-0.27  OA
ATOM     36  N   PHE C   5     -18.875   6.953  -0.395  1.00 17.75 LIG-0.34  N 
ATOM     37 H    PHE C   5     -18.432   6.273  -0.679  1.00 17.75 LIG 0.16  HD
BRANCH 36 38
ATOM     38  CA  PHE C   5     -20.289   6.692  -0.156  1.00 18.16 LIG 0.19  C 
BRANCH 38 39
ATOM     39  C   PHE C   5     -20.520   6.148   1.249  1.00 18.09 LIG 0.20  C 
ATOM     40 O    PHE C   5     -19.667   5.426   1.776  1.00 17.71 LIG-0.65  OA
ATOM     41 OXT  PHE C   5     -21.570   6.410   1.860  1.00 17.63 LIG-0.65  OA
ENDBRANCH 38 39
BRANCH 38 42
ATOM     42  CB  PHE C   5     -20.807   5.726  -1.231  1.00 18.57 LIG 0.07  C 
BRANCH 42 43
ATOM     43  CG  PHE C   5     -22.266   5.942  -1.570  1.00 19.32 LIG-0.06  A 
ATOM     44  CD1 PHE C   5     -22.678   6.077  -2.886  1.00 20.35 LIG 0.01  A 
ATOM     45  CE1 PHE C   5     -24.018   6.257  -3.192  1.00 19.79 LIG 0.00  A 
ATOM     46  CZ  PHE C   5     -24.954   6.296  -2.182  1.00 20.19 LIG 0.00  A 
ATOM     47  CE2 PHE C   5     -24.560   6.160  -0.876  1.00 20.40 LIG 0.00  A 
ATOM     48  CD2 PHE C   5     -23.225   5.977  -0.573  1.00 20.78 LIG 0.01  A 
ENDBRANCH 42 43
ENDBRANCH 38 42
ENDBRANCH 36 38
ENDBRANCH 30 34
ENDBRANCH 28 30
ENDBRANCH 1 26
BRANCH 1 49
ATOM     49  CB  GLU C   3     -15.043   4.542  -0.270  1.00 17.73 LIG 0.04  C 
BRANCH 49 50
ATOM     50  CG  GLU C   3     -14.434   3.234   0.111  1.00 21.08 LIG 0.12  C 
BRANCH 50 51
ATOM     51  CD  GLU C   3     -12.955   3.198  -0.228  1.00 24.82 LIG 0.17  C 
ATOM     52 OE2  GLU C   3     -12.179   2.624   0.575  1.00 28.13 LIG-0.65  OA
ATOM     53 OE1  GLU C   3     -12.585   3.743  -1.301  1.00 24.98 LIG-0.65  OA
ENDBRANCH 50 51
ENDBRANCH 49 50
ENDBRANCH 1 49
TORSDOF 22
ENDMDL
MODEL 7
USER: ADFR SOLUTION from run 40
USER: SCORE 19.257717 LL:  -3.520 LR: -17.078 RR:   0.000 FEB: -10.515
USER: RMSD 10.700633
USER: SEED 39
USER: STATUS no improvement in best in 9 clusters for 5 generations
USER: GENES 24
USER: genes 0 Translation |==|  0.55415 0.43542 0.39008
USER: genes 1 Rotation |==|  0.98278 0.45819 0.62209 0.51635
USER: genes 2 Torsion [C]-CA--N-[C] |==|  0.77268
USER: genes 3 Torsion [N]-C--CA-[N] |==|  0.46375
USER: genes 4 Torsion [C]-CA--N-[C] |==|  0.76325
USER: genes 5 Torsion [N]-C--CA-[N] |==|  0.42504
USER: genes 6 Torsion [C]-CA--N-[C] |==|  0.82729
USER: genes 7 Torsion [C]-CA--CB-[CG] |==|  0.87620
USER: genes 8 Torsion [CA]-CB--CG-[SD] |==|  0.53470
USER: genes 9 Torsion [CB]-CG--SD-[CE] |==|  0.95747
USER: genes 10 Torsion [C]-CA--CB-[CG] |==|  0.27655
USER: genes 11 Torsion [CA]-CB--CG-[CD] |==|  0.40639
USER: genes 12 Torsion [CB]-CG--CD-[OE1] |==|  0.86167
USER: genes 13 Torsion [N]-CA--C-[N] |==|  0.42679
USER: genes 14 Torsion [C]-N--CA-[CB] |==|  0.50620
USER: genes 15 Torsion [N]-CA--CB-[CG1] |==|  0.46161
USER: genes 16 Torsion [N]-CA--C-[N] |==|  0.79425
USER: genes 17 Torsion [C]-N--CA-[C] |==|  0.66700
USER: genes 18 Torsion [N]-CA--C-[OXT] |==|  0.54299
USER: genes 19 Torsion [N]-CA--CB-[CG] |==|  0.16913
USER: genes 20 Torsion [CA]-CB--CG-[CD1] |==|  0.10933
USER: genes 21 Torsion [N]-CA--CB-[CG] |==|  0.81303
USER: genes 22 Torsion [CA]-CB--CG-[CD] |==|  0.26199
USER: genes 23 Torsion [CB]-CG--CD-[OE2] |==|  0.86071
ROOT
ATOM      1  CA  GLU C   3     -18.329   8.142   0.014  1.00 17.34 LIG 0.18  C 
ENDROOT
BRANCH 1 2
ATOM      2  N   GLU C   3     -17.960   8.821   1.261  1.00 16.96 LIG-0.35  N 
ATOM      3  C   GLU C   2     -18.816   9.608   1.889  1.00 16.75 LIG 0.24  C 
ATOM      4 O    GLU C   2     -19.956   9.830   1.472  1.00 16.41 LIG-0.27  OA
ATOM      5 H    GLU C   3     -17.160   8.663   1.533  1.00 16.96 LIG 0.16  HD
BRANCH 3 6
ATOM      6  CA  GLU C   2     -18.317  10.223   3.190  1.00 16.90 LIG 0.18  C 
BRANCH 6 7
ATOM      7  N   GLU C   2     -19.229  11.279   3.584  1.00 16.95 LIG-0.35  N 
ATOM      8  C   MET C   1     -19.129  12.512   3.127  1.00 17.22 LIG 0.24  C 
ATOM      9 O    MET C   1     -18.178  12.935   2.458  1.00 17.07 LIG-0.27  OA
ATOM     10 H    GLU C   2     -19.835  11.026   4.139  1.00 16.95 LIG 0.16  HD
BRANCH 8 11
ATOM     11  CA  MET C   1     -20.302  13.393   3.513  1.00 17.60 LIG 0.18  C 
BRANCH 11 12
ATOM     12  N   MET C   1     -19.921  14.809   3.576  1.00 17.57 LIG-0.35  N 
ATOM     13 H    MET C   1     -20.343  15.302   3.011  1.00 17.57 LIG 0.16  HD
ATOM     14  C   ACE C   0     -19.017  15.290   4.416  1.00 17.66 LIG 0.21  C 
ATOM     15 O    ACE C   0     -18.651  16.453   4.294  1.00 18.17 LIG-0.27  OA
ATOM     16  CH3 ACE C   0     -18.692  14.492   5.643  1.00 17.74 LIG 0.12  C 
ENDBRANCH 11 12
BRANCH 11 17
ATOM     17  CB  MET C   1     -21.440  13.172   2.502  1.00 17.86 LIG 0.04  C 
BRANCH 17 18
ATOM     18  CG  MET C   1     -21.001  13.141   1.031  1.00 18.56 LIG 0.08  C 
BRANCH 18 19
ATOM     19 SD   MET C   1     -22.406  13.242  -0.106  1.00 20.55 LIG-0.17  SA
ATOM     20  CE  MET C   1     -23.784  12.875   0.987  1.00 18.76 LIG 0.09  C 
ENDBRANCH 18 19
ENDBRANCH 17 18
ENDBRANCH 11 17
ENDBRANCH 8 11
ENDBRANCH 6 7
BRANCH 6 21
ATOM     21  CB  GLU C   2     -18.238   9.149   4.284  1.00 16.89 LIG 0.04  C 
BRANCH 21 22
ATOM     22  CG  GLU C   2     -16.841   8.604   4.504  1.00 17.75 LIG 0.12  C 
BRANCH 22 23
ATOM     23  CD  GLU C   2     -16.580   8.242   5.948  1.00 17.83 LIG 0.17  C 
ATOM     24 OE1  GLU C   2     -16.850   9.072   6.832  1.00 16.84 LIG-0.65  OA
ATOM     25 OE2  GLU C   2     -16.095   7.121   6.200  1.00 19.94 LIG-0.65  OA
ENDBRANCH 22 23
ENDBRANCH 21 22
ENDBRANCH 6 21
ENDBRANCH 3 6
ENDBRANCH 1 2
BRANCH 1 26
ATOM     26  C   GLU C   3     -19.111   6.884   0.263  1.00 16.67 LIG 0.24  C 
ATOM     27 O    GLU C   3     -18.955   6.224   1.292  1.00 16.39 LIG-0.27  OA
ATOM     28  N   VAL C   4     -19.911   6.545  -0.732  1.00 16.17 LIG-0.35  N 
ATOM     29 H    VAL C   4     -20.083   7.058  -1.400  1.00 16.17 LIG 0.16  HD
BRANCH 28 30
ATOM     30  CA  VAL C   4     -20.582   5.253  -0.788  1.00 16.42 LIG 0.18  C 
BRANCH 30 31
ATOM     31  CB  VAL C   4     -21.413   5.074  -2.070  1.00 16.37 LIG 0.01  C 
ATOM     32  CG1 VAL C   4     -21.807   3.599  -2.238  1.00 16.31 LIG 0.01  C 
ATOM     33  CG2 VAL C   4     -22.639   6.001  -2.066  1.00 16.31 LIG 0.01  C 
ENDBRANCH 30 31
BRANCH 30 34
ATOM     34  C   VAL C   4     -19.548   4.136  -0.664  1.00 17.02 LIG 0.24  C 
ATOM     35 O    VAL C   4     -19.444   3.466   0.360  1.00 16.27 LIG-0.27  OA
ATOM     36  N   PHE C   5     -18.805   3.936  -1.744  1.00 17.75 LIG-0.34  N 
ATOM     37 H    PHE C   5     -18.826   4.441  -2.441  1.00 17.75 LIG 0.16  HD
BRANCH 36 38
ATOM     38  CA  PHE C   5     -17.873   2.820  -1.837  1.00 18.16 LIG 0.19  C 
BRANCH 38 39
ATOM     39  C   PHE C   5     -16.443   3.310  -2.040  1.00 18.09 LIG 0.20  C 
ATOM     40 O    PHE C   5     -16.167   4.497  -1.838  1.00 17.71 LIG-0.65  OA
ATOM     41 OXT  PHE C   5     -15.559   2.526  -2.425  1.00 17.63 LIG-0.65  OA
ENDBRANCH 38 39
BRANCH 38 42
ATOM     42  CB  PHE C   5     -18.320   1.889  -2.974  1.00 18.57 LIG 0.07  C 
BRANCH 42 43
ATOM     43  CG  PHE C   5     -18.340   2.570  -4.325  1.00 19.32 LIG-0.06  A 
ATOM     44  CD1 PHE C   5     -17.346   3.467  -4.685  1.00 20.35 LIG 0.01  A 
ATOM     45  CE1 PHE C   5     -17.360   4.074  -5.930  1.00 19.79 LIG 0.00  A 
ATOM     46  CZ  PHE C   5     -18.364   3.782  -6.827  1.00 20.19 LIG 0.00  A 
ATOM     47  CE2 PHE C   5     -19.351   2.894  -6.485  1.00 20.40 LIG 0.00  A 
ATOM     48  CD2 PHE C   5     -19.335   2.287  -5.244  1.00 20.78 LIG 0.01  A 
ENDBRANCH 42 43
ENDBRANCH 38 42
ENDBRANCH 36 38
ENDBRANCH 30 34
ENDBRANCH 28 30
ENDBRANCH 1 26
BRANCH 1 49
ATOM     49  CB  GLU C   3     -17.103   7.756  -0.815  1.00 17.73 LIG 0.04  C 
BRANCH 49 50
ATOM     50  CG  GLU C   3     -16.343   8.913  -1.372  1.00 21.08 LIG 0.12  C 
BRANCH 50 51
ATOM     51  CD  GLU C   3     -15.197   9.309  -0.460  1.00 24.82 LIG 0.17  C 
ATOM     52 OE2  GLU C   3     -15.445   9.480   0.759  1.00 28.13 LIG-0.65  OA
ATOM     53 OE1  GLU C   3     -14.055   9.439  -0.974  1.00 24.98 LIG-0.65  OA
ENDBRANCH 50 51
ENDBRANCH 49 50
ENDBRANCH 1 49
TORSDOF 22
ENDMDL
MODEL 8
USER: ADFR SOLUTION from run 9
USER: SCORE 20.466748 LL:  -4.184 LR: -17.051 RR:   0.000 FEB: -10.488
USER: RMSD 10.217499
USER: SEED 424489
USER: STATUS no improvement in best in 8 clusters for 5 generations
USER: GENES 24
USER: genes 0 Translation |==|  0.56015 0.44780 0.36982
USER: genes 1 Rotation |==|  0.01327 0.44608 0.39994 0.51330
USER: genes 2 Torsion [C]-CA--N-[C] |==|  0.73340
USER: genes 3 Torsion [N]-C--CA-[N] |==|  0.44676
USER: genes 4 Torsion [C]-CA--N-[C] |==|  0.78149
USER: genes 5 Torsion [N]-C--CA-[N] |==|  0.90573
USER: genes 6 Torsion [C]-CA--N-[C] |==|  0.74422
USER: genes 7 Torsion [C]-CA--CB-[CG] |==|  0.03587
USER: genes 8 Torsion [CA]-CB--CG-[SD] |==|  0.24418
USER: genes 9 Torsion [CB]-CG--SD-[CE] |==|  0.62067
USER: genes 10 Torsion [C]-CA--CB-[CG] |==|  0.35383
USER: genes 11 Torsion [CA]-CB--CG-[CD] |==|  0.49577
USER: genes 12 Torsion [CB]-CG--CD-[OE1] |==|  0.50068
USER: genes 13 Torsion [N]-CA--C-[N] |==|  0.50161
USER: genes 14 Torsion [C]-N--CA-[CB] |==|  0.84547
USER: genes 15 Torsion [N]-CA--CB-[CG1] |==|  0.41695
USER: genes 16 Torsion [N]-CA--C-[N] |==|  0.33334
USER: genes 17 Torsion [C]-N--CA-[C] |==|  0.49339
USER: genes 18 Torsion [N]-CA--C-[OXT] |==|  0.95912
USER: genes 19 Torsion [N]-CA--CB-[CG] |==|  0.21505
USER: genes 20 Torsion [CA]-CB--CG-[CD1] |==|  0.83787
USER: genes 21 Torsion [N]-CA--CB-[CG] |==|  0.16589
USER: genes 22 Torsion [CA]-CB--CG-[CD] |==|  0.73147
USER: genes 23 Torsion [CB]-CG--CD-[OE2] |==|  0.71562
ROOT
ATOM      1  CA  GLU C   3     -18.221   8.439  -0.366  1.00 17.34 LIG 0.18  C 
ENDROOT
BRANCH 1 2
ATOM      2  N   GLU C   3     -18.027   9.196   0.876  1.00 16.96 LIG-0.35  N 
ATOM      3  C   GLU C   2     -19.036   9.816   1.463  1.00 16.75 LIG 0.24  C 
ATOM      4 O    GLU C   2     -20.183   9.811   1.009  1.00 16.41 LIG-0.27  OA
ATOM      5 H    GLU C   3     -17.220   9.197   1.174  1.00 16.96 LIG 0.16  HD
BRANCH 3 6
ATOM      6  CA  GLU C   2     -18.704  10.535   2.763  1.00 16.90 LIG 0.18  C 
BRANCH 6 7
ATOM      7  N   GLU C   2     -19.743  11.510   3.033  1.00 16.95 LIG-0.35  N 
ATOM      8  C   MET C   1     -19.796  12.679   2.425  1.00 17.22 LIG 0.24  C 
ATOM      9 O    MET C   1     -18.903  13.130   1.697  1.00 17.07 LIG-0.27  OA
ATOM     10 H    GLU C   2     -20.315  11.255   3.622  1.00 16.95 LIG 0.16  HD
BRANCH 8 11
ATOM     11  CA  MET C   1     -21.072  13.448   2.711  1.00 17.60 LIG 0.18  C 
BRANCH 11 12
ATOM     12  N   MET C   1     -22.223  12.552   2.874  1.00 17.57 LIG-0.35  N 
ATOM     13 H    MET C   1     -22.328  12.274   3.681  1.00 17.57 LIG 0.16  HD
ATOM     14  C   ACE C   0     -23.026  12.201   1.881  1.00 17.66 LIG 0.21  C 
ATOM     15 O    ACE C   0     -23.866  11.330   2.075  1.00 18.17 LIG-0.27  OA
ATOM     16  CH3 ACE C   0     -23.066  13.067   0.658  1.00 17.74 LIG 0.12  C 
ENDBRANCH 11 12
BRANCH 11 17
ATOM     17  CB  MET C   1     -20.859  14.307   3.969  1.00 17.86 LIG 0.04  C 
BRANCH 17 18
ATOM     18  CG  MET C   1     -19.398  14.433   4.426  1.00 18.56 LIG 0.08  C 
BRANCH 18 19
ATOM     19 SD   MET C   1     -18.545  15.814   3.623  1.00 20.55 LIG-0.17  SA
ATOM     20  CE  MET C   1     -16.964  15.069   3.207  1.00 18.76 LIG 0.09  C 
ENDBRANCH 18 19
ENDBRANCH 17 18
ENDBRANCH 11 17
ENDBRANCH 8 11
ENDBRANCH 6 7
BRANCH 6 21
ATOM     21  CB  GLU C   2     -18.607   9.524   3.915  1.00 16.89 LIG 0.04  C 
BRANCH 21 22
ATOM     22  CG  GLU C   2     -17.317   9.620   4.703  1.00 17.75 LIG 0.12  C 
BRANCH 22 23
ATOM     23  CD  GLU C   2     -17.265   8.638   5.853  1.00 17.83 LIG 0.17  C 
ATOM     24 OE1  GLU C   2     -16.258   8.622   6.580  1.00 16.84 LIG-0.65  OA
ATOM     25 OE2  GLU C   2     -18.235   7.875   6.024  1.00 19.94 LIG-0.65  OA
ENDBRANCH 22 23
ENDBRANCH 21 22
ENDBRANCH 6 21
ENDBRANCH 3 6
ENDBRANCH 1 2
BRANCH 1 26
ATOM     26  C   GLU C   3     -18.427   6.973  -0.111  1.00 16.67 LIG 0.24  C 
ATOM     27 O    GLU C   3     -18.384   6.507   1.029  1.00 16.39 LIG-0.27  OA
ATOM     28  N   VAL C   4     -18.594   6.257  -1.208  1.00 16.17 LIG-0.35  N 
ATOM     29 H    VAL C   4     -18.717   6.601  -1.987  1.00 16.17 LIG 0.16  HD
BRANCH 28 30
ATOM     30  CA  VAL C   4     -18.584   4.801  -1.198  1.00 16.42 LIG 0.18  C 
BRANCH 30 31
ATOM     31  CB  VAL C   4     -17.299   4.222  -0.582  1.00 16.37 LIG 0.01  C 
ATOM     32  CG1 VAL C   4     -17.597   2.868   0.077  1.00 16.31 LIG 0.01  C 
ATOM     33  CG2 VAL C   4     -16.182   4.118  -1.632  1.00 16.31 LIG 0.01  C 
ENDBRANCH 30 31
BRANCH 30 34
ATOM     34  C   VAL C   4     -19.812   4.289  -0.449  1.00 17.02 LIG 0.24  C 
ATOM     35 O    VAL C   4     -20.025   4.593   0.722  1.00 16.27 LIG-0.27  OA
ATOM     36  N   PHE C   5     -20.627   3.525  -1.162  1.00 17.75 LIG-0.34  N 
ATOM     37 H    PHE C   5     -20.455   3.254  -1.960  1.00 17.75 LIG 0.16  HD
BRANCH 36 38
ATOM     38  CA  PHE C   5     -21.910   3.074  -0.638  1.00 18.16 LIG 0.19  C 
BRANCH 38 39
ATOM     39  C   PHE C   5     -22.676   2.262  -1.675  1.00 18.09 LIG 0.20  C 
ATOM     40 O    PHE C   5     -23.633   1.563  -1.323  1.00 17.71 LIG-0.65  OA
ATOM     41 OXT  PHE C   5     -22.333   2.284  -2.870  1.00 17.63 LIG-0.65  OA
ENDBRANCH 38 39
BRANCH 38 42
ATOM     42  CB  PHE C   5     -22.714   4.295  -0.166  1.00 18.57 LIG 0.07  C 
BRANCH 42 43
ATOM     43  CG  PHE C   5     -23.345   5.066  -1.306  1.00 19.32 LIG-0.06  A 
ATOM     44  CD1 PHE C   5     -22.566   5.600  -2.320  1.00 20.35 LIG 0.01  A 
ATOM     45  CE1 PHE C   5     -23.150   6.289  -3.371  1.00 19.79 LIG 0.00  A 
ATOM     46  CZ  PHE C   5     -24.518   6.444  -3.416  1.00 20.19 LIG 0.00  A 
ATOM     47  CE2 PHE C   5     -25.300   5.918  -2.420  1.00 20.40 LIG 0.00  A 
ATOM     48  CD2 PHE C   5     -24.717   5.228  -1.376  1.00 20.78 LIG 0.01  A 
ENDBRANCH 42 43
ENDBRANCH 38 42
ENDBRANCH 36 38
ENDBRANCH 30 34
ENDBRANCH 28 30
ENDBRANCH 1 26
BRANCH 1 49
ATOM     49  CB  GLU C   3     -17.026   8.570  -1.312  1.00 17.73 LIG 0.04  C 
BRANCH 49 50
ATOM     50  CG  GLU C   3     -15.732   8.088  -0.745  1.00 21.08 LIG 0.12  C 
BRANCH 50 51
ATOM     51  CD  GLU C   3     -14.922   9.236  -0.171  1.00 24.82 LIG 0.17  C 
ATOM     52 OE2  GLU C   3     -13.960   9.675  -0.848  1.00 28.13 LIG-0.65  OA
ATOM     53 OE1  GLU C   3     -15.262   9.690   0.953  1.00 24.98 LIG-0.65  OA
ENDBRANCH 50 51
ENDBRANCH 49 50
ENDBRANCH 1 49
TORSDOF 22
ENDMDL
MODEL 9
USER: ADFR SOLUTION from run 12
USER: SCORE 20.526405 LL:  -5.082 LR: -17.044 RR:   0.000 FEB: -10.481
USER: RMSD 9.224645
USER: SEED 738991
USER: STATUS no improvement in best in 8 clusters for 5 generations
USER: GENES 24
USER: genes 0 Translation |==|  0.65589 0.61278 0.64030
USER: genes 1 Rotation |==|  0.59912 0.72698 0.11234 0.69590
USER: genes 2 Torsion [C]-CA--N-[C] |==|  0.75704
USER: genes 3 Torsion [N]-C--CA-[N] |==|  0.04995
USER: genes 4 Torsion [C]-CA--N-[C] |==|  0.71259
USER: genes 5 Torsion [N]-C--CA-[N] |==|  0.37403
USER: genes 6 Torsion [C]-CA--N-[C] |==|  0.79247
USER: genes 7 Torsion [C]-CA--CB-[CG] |==|  0.25638
USER: genes 8 Torsion [CA]-CB--CG-[SD] |==|  0.03634
USER: genes 9 Torsion [CB]-CG--SD-[CE] |==|  0.20351
USER: genes 10 Torsion [C]-CA--CB-[CG] |==|  0.66417
USER: genes 11 Torsion [CA]-CB--CG-[CD] |==|  0.55131
USER: genes 12 Torsion [CB]-CG--CD-[OE1] |==|  0.41542
USER: genes 13 Torsion [N]-CA--C-[N] |==|  0.49424
USER: genes 14 Torsion [C]-N--CA-[CB] |==|  0.49178
USER: genes 15 Torsion [N]-CA--CB-[CG1] |==|  0.04518
USER: genes 16 Torsion [N]-CA--C-[N] |==|  0.84298
USER: genes 17 Torsion [C]-N--CA-[C] |==|  0.80544
USER: genes 18 Torsion [N]-CA--C-[OXT] |==|  0.36178
USER: genes 19 Torsion [N]-CA--CB-[CG] |==|  0.80503
USER: genes 20 Torsion [CA]-CB--CG-[CD1] |==|  0.72646
USER: genes 21 Torsion [N]-CA--CB-[CG] |==|  0.66852
USER: genes 22 Torsion [CA]-CB--CG-[CD] |==|  0.60155
USER: genes 23 Torsion [CB]-CG--CD-[OE2] |==|  0.13530
ROOT
ATOM      1  CA  GLU C   3     -16.498  12.399   4.706  1.00 17.34 LIG 0.18  C 
ENDROOT
BRANCH 1 2
ATOM      2  N   GLU C   3     -17.603  13.102   4.046  1.00 16.96 LIG-0.35  N 
ATOM      3  C   GLU C   2     -17.857  14.373   4.307  1.00 16.75 LIG 0.24  C 
ATOM      4 O    GLU C   2     -17.204  15.036   5.117  1.00 16.41 LIG-0.27  OA
ATOM      5 H    GLU C   3     -18.054  12.623   3.491  1.00 16.96 LIG 0.16  HD
BRANCH 3 6
ATOM      6  CA  GLU C   2     -19.010  14.990   3.528  1.00 16.90 LIG 0.18  C 
BRANCH 6 7
ATOM      7  N   GLU C   2     -19.829  13.923   2.987  1.00 16.95 LIG-0.35  N 
ATOM      8  C   MET C   1     -19.785  13.568   1.717  1.00 17.22 LIG 0.24  C 
ATOM      9 O    MET C   1     -19.181  14.192   0.837  1.00 17.07 LIG-0.27  OA
ATOM     10 H    GLU C   2     -20.341  13.547   3.567  1.00 16.95 LIG 0.16  HD
BRANCH 8 11
ATOM     11  CA  MET C   1     -20.571  12.305   1.418  1.00 17.60 LIG 0.18  C 
BRANCH 11 12
ATOM     12  N   MET C   1     -21.394  12.448   0.212  1.00 17.57 LIG-0.35  N 
ATOM     13 H    MET C   1     -21.078  12.028  -0.469  1.00 17.57 LIG 0.16  HD
ATOM     14  C   ACE C   0     -22.515  13.152   0.168  1.00 17.66 LIG 0.21  C 
ATOM     15 O    ACE C   0     -23.054  13.344  -0.916  1.00 18.17 LIG-0.27  OA
ATOM     16  CH3 ACE C   0     -23.224  13.442   1.456  1.00 17.74 LIG 0.12  C 
ENDBRANCH 11 12
BRANCH 11 17
ATOM     17  CB  MET C   1     -19.586  11.131   1.278  1.00 17.86 LIG 0.04  C 
BRANCH 17 18
ATOM     18  CG  MET C   1     -19.324  10.349   2.574  1.00 18.56 LIG 0.08  C 
BRANCH 18 19
ATOM     19 SD   MET C   1     -20.518  10.755   3.873  1.00 20.55 LIG-0.17  SA
ATOM     20  CE  MET C   1     -21.996   9.925   3.277  1.00 18.76 LIG 0.09  C 
ENDBRANCH 18 19
ENDBRANCH 17 18
ENDBRANCH 11 17
ENDBRANCH 8 11
ENDBRANCH 6 7
BRANCH 6 21
ATOM     21  CB  GLU C   2     -19.847  15.890   4.448  1.00 16.89 LIG 0.04  C 
BRANCH 21 22
ATOM     22  CG  GLU C   2     -21.300  15.473   4.552  1.00 17.75 LIG 0.12  C 
BRANCH 22 23
ATOM     23  CD  GLU C   2     -22.186  16.582   5.075  1.00 17.83 LIG 0.17  C 
ATOM     24 OE1  GLU C   2     -23.369  16.629   4.700  1.00 16.84 LIG-0.65  OA
ATOM     25 OE2  GLU C   2     -21.692  17.415   5.860  1.00 19.94 LIG-0.65  OA
ENDBRANCH 22 23
ENDBRANCH 21 22
ENDBRANCH 6 21
ENDBRANCH 3 6
ENDBRANCH 1 2
BRANCH 1 26
ATOM     26  C   GLU C   3     -15.200  12.560   3.967  1.00 16.67 LIG 0.24  C 
ATOM     27 O    GLU C   3     -15.147  13.145   2.883  1.00 16.39 LIG-0.27  OA
ATOM     28  N   VAL C   4     -14.173  11.975   4.555  1.00 16.17 LIG-0.35  N 
ATOM     29 H    VAL C   4     -14.200  11.654   5.352  1.00 16.17 LIG 0.16  HD
BRANCH 28 30
ATOM     30  CA  VAL C   4     -12.882  11.821   3.898  1.00 16.42 LIG 0.18  C 
BRANCH 30 31
ATOM     31  CB  VAL C   4     -11.826  11.175   4.812  1.00 16.37 LIG 0.01  C 
ATOM     32  CG1 VAL C   4     -12.511  10.506   6.012  1.00 16.31 LIG 0.01  C 
ATOM     33  CG2 VAL C   4     -10.945  10.191   4.028  1.00 16.31 LIG 0.01  C 
ENDBRANCH 30 31
BRANCH 30 34
ATOM     34  C   VAL C   4     -13.054  11.001   2.622  1.00 17.02 LIG 0.24  C 
ATOM     35 O    VAL C   4     -12.682  11.422   1.530  1.00 16.27 LIG-0.27  OA
ATOM     36  N   PHE C   5     -13.603   9.806   2.792  1.00 17.75 LIG-0.34  N 
ATOM     37 H    PHE C   5     -13.925   9.528   3.541  1.00 17.75 LIG 0.16  HD
BRANCH 36 38
ATOM     38  CA  PHE C   5     -13.708   8.847   1.700  1.00 18.16 LIG 0.19  C 
BRANCH 38 39
ATOM     39  C   PHE C   5     -14.726   9.302   0.661  1.00 18.09 LIG 0.20  C 
ATOM     40 O    PHE C   5     -15.859   9.640   1.019  1.00 17.71 LIG-0.65  OA
ATOM     41 OXT  PHE C   5     -14.429   9.317  -0.546  1.00 17.63 LIG-0.65  OA
ENDBRANCH 38 39
BRANCH 38 42
ATOM     42  CB  PHE C   5     -14.063   7.469   2.277  1.00 18.57 LIG 0.07  C 
BRANCH 42 43
ATOM     43  CG  PHE C   5     -12.929   6.842   3.058  1.00 19.32 LIG-0.06  A 
ATOM     44  CD1 PHE C   5     -12.103   5.894   2.474  1.00 20.35 LIG 0.01  A 
ATOM     45  CE1 PHE C   5     -11.054   5.336   3.188  1.00 19.79 LIG 0.00  A 
ATOM     46  CZ  PHE C   5     -10.821   5.728   4.487  1.00 20.19 LIG 0.00  A 
ATOM     47  CE2 PHE C   5     -11.628   6.667   5.075  1.00 20.40 LIG 0.00  A 
ATOM     48  CD2 PHE C   5     -12.671   7.225   4.362  1.00 20.78 LIG 0.01  A 
ENDBRANCH 42 43
ENDBRANCH 38 42
ENDBRANCH 36 38
ENDBRANCH 30 34
ENDBRANCH 28 30
ENDBRANCH 1 26
BRANCH 1 49
ATOM     49  CB  GLU C   3     -16.765  10.897   4.829  1.00 17.73 LIG 0.04  C 
BRANCH 49 50
ATOM     50  CG  GLU C   3     -16.799  10.388   6.232  1.00 21.08 LIG 0.12  C 
BRANCH 50 51
ATOM     51  CD  GLU C   3     -16.189   9.002   6.328  1.00 24.82 LIG 0.17  C 
ATOM     52 OE2  GLU C   3     -15.072   8.810   5.787  1.00 28.13 LIG-0.65  OA
ATOM     53 OE1  GLU C   3     -16.835   8.118   6.949  1.00 24.98 LIG-0.65  OA
ENDBRANCH 50 51
ENDBRANCH 49 50
ENDBRANCH 1 49
TORSDOF 22
ENDMDL
MODEL 10
USER: ADFR SOLUTION from run 86
USER: SCORE 19.988920 LL:  -4.047 LR: -17.010 RR:   0.000 FEB: -10.448
USER: RMSD 10.387218
USER: SEED 85
USER: STATUS searching
USER: GENES 24
USER: genes 0 Translation |==|  0.56545 0.40493 0.39822
USER: genes 1 Rotation |==|  0.08684 0.46075 0.22247 0.52722
USER: genes 2 Torsion [C]-CA--N-[C] |==|  0.61571
USER: genes 3 Torsion [N]-C--CA-[N] |==|  0.44369
USER: genes 4 Torsion [C]-CA--N-[C] |==|  0.81111
USER: genes 5 Torsion [N]-C--CA-[N] |==|  0.57566
USER: genes 6 Torsion [C]-CA--N-[C] |==|  0.69881
USER: genes 7 Torsion [C]-CA--CB-[CG] |==|  0.25975
USER: genes 8 Torsion [CA]-CB--CG-[SD] |==|  0.54378
USER: genes 9 Torsion [CB]-CG--SD-[CE] |==|  0.93148
USER: genes 10 Torsion [C]-CA--CB-[CG] |==|  0.44167
USER: genes 11 Torsion [CA]-CB--CG-[CD] |==|  0.24676
USER: genes 12 Torsion [CB]-CG--CD-[OE1] |==|  0.99031
USER: genes 13 Torsion [N]-CA--C-[N] |==|  0.42710
USER: genes 14 Torsion [C]-N--CA-[CB] |==|  0.78211
USER: genes 15 Torsion [N]-CA--CB-[CG1] |==|  0.53992
USER: genes 16 Torsion [N]-CA--C-[N] |==|  0.20788
USER: genes 17 Torsion [C]-N--CA-[C] |==|  0.65402
USER: genes 18 Torsion [N]-CA--C-[OXT] |==|  0.00036
USER: genes 19 Torsion [N]-CA--CB-[CG] |==|  0.20549
USER: genes 20 Torsion [CA]-CB--CG-[CD1] |==|  0.30724
USER: genes 21 Torsion [N]-CA--CB-[CG] |==|  0.66526
USER: genes 22 Torsion [CA]-CB--CG-[CD] |==|  0.38124
USER: genes 23 Torsion [CB]-CG--CD-[OE2] |==|  0.92286
ROOT
ATOM      1  CA  GLU C   3     -18.126   7.410   0.167  1.00 17.34 LIG 0.18  C 
ENDROOT
BRANCH 1 2
ATOM      2  N   GLU C   3     -18.860   7.984   1.300  1.00 16.96 LIG-0.35  N 
ATOM      3  C   GLU C   2     -19.427   9.175   1.214  1.00 16.75 LIG 0.24  C 
ATOM      4 O    GLU C   2     -19.368   9.876   0.200  1.00 16.41 LIG-0.27  OA
ATOM      5 H    GLU C   3     -18.885   7.487   2.001  1.00 16.96 LIG 0.16  HD
BRANCH 3 6
ATOM      6  CA  GLU C   2     -20.187   9.636   2.450  1.00 16.90 LIG 0.18  C 
BRANCH 6 7
ATOM      7  N   GLU C   2     -20.326  11.079   2.399  1.00 16.95 LIG-0.35  N 
ATOM      8  C   MET C   1     -19.297  11.896   2.520  1.00 17.22 LIG 0.24  C 
ATOM      9 O    MET C   1     -18.157  11.542   2.846  1.00 17.07 LIG-0.27  OA
ATOM     10 H    GLU C   2     -21.134  11.347   2.282  1.00 16.95 LIG 0.16  HD
BRANCH 8 11
ATOM     11  CA  MET C   1     -19.643  13.344   2.234  1.00 17.60 LIG 0.18  C 
BRANCH 11 12
ATOM     12  N   MET C   1     -18.480  14.097   1.750  1.00 17.57 LIG-0.35  N 
ATOM     13 H    MET C   1     -18.245  13.885   0.950  1.00 17.57 LIG 0.16  HD
ATOM     14  C   ACE C   0     -17.848  15.013   2.468  1.00 17.66 LIG 0.21  C 
ATOM     15 O    ACE C   0     -16.796  15.479   2.044  1.00 18.17 LIG-0.27  OA
ATOM     16  CH3 ACE C   0     -18.576  15.644   3.616  1.00 17.74 LIG 0.12  C 
ENDBRANCH 11 12
BRANCH 11 17
ATOM     17  CB  MET C   1     -20.792  13.386   1.212  1.00 17.86 LIG 0.04  C 
BRANCH 17 18
ATOM     18  CG  MET C   1     -22.198  13.473   1.823  1.00 18.56 LIG 0.08  C 
BRANCH 18 19
ATOM     19 SD   MET C   1     -23.493  13.063   0.626  1.00 20.55 LIG-0.17  SA
ATOM     20  CE  MET C   1     -22.679  13.442  -0.931  1.00 18.76 LIG 0.09  C 
ENDBRANCH 18 19
ENDBRANCH 17 18
ENDBRANCH 11 17
ENDBRANCH 8 11
ENDBRANCH 6 7
BRANCH 6 21
ATOM     21  CB  GLU C   2     -21.569   8.969   2.499  1.00 16.89 LIG 0.04  C 
BRANCH 21 22
ATOM     22  CG  GLU C   2     -22.188   8.949   3.882  1.00 17.75 LIG 0.12  C 
BRANCH 22 23
ATOM     23  CD  GLU C   2     -23.006  10.188   4.169  1.00 17.83 LIG 0.17  C 
ATOM     24 OE1  GLU C   2     -23.040  11.093   3.319  1.00 16.84 LIG-0.65  OA
ATOM     25 OE2  GLU C   2     -23.613  10.259   5.255  1.00 19.94 LIG-0.65  OA
ENDBRANCH 22 23
ENDBRANCH 21 22
ENDBRANCH 6 21
ENDBRANCH 3 6
ENDBRANCH 1 2
BRANCH 1 26
ATOM     26  C   GLU C   3     -18.414   5.947  -0.015  1.00 16.67 LIG 0.24  C 
ATOM     27 O    GLU C   3     -18.718   5.229   0.940  1.00 16.39 LIG-0.27  OA
ATOM     28  N   VAL C   4     -18.253   5.519  -1.253  1.00 16.17 LIG-0.35  N 
ATOM     29 H    VAL C   4     -18.134   6.042  -1.926  1.00 16.17 LIG 0.16  HD
BRANCH 28 30
ATOM     30  CA  VAL C   4     -18.262   4.104  -1.597  1.00 16.42 LIG 0.18  C 
BRANCH 30 31
ATOM     31  CB  VAL C   4     -16.932   3.406  -1.265  1.00 16.37 LIG 0.01  C 
ATOM     32  CG1 VAL C   4     -16.868   2.039  -1.962  1.00 16.31 LIG 0.01  C 
ATOM     33  CG2 VAL C   4     -15.735   4.297  -1.631  1.00 16.31 LIG 0.01  C 
ENDBRANCH 30 31
BRANCH 30 34
ATOM     34  C   VAL C   4     -19.419   3.413  -0.880  1.00 17.02 LIG 0.24  C 
ATOM     35 O    VAL C   4     -19.236   2.708   0.109  1.00 16.27 LIG-0.27  OA
ATOM     36  N   PHE C   5     -20.619   3.656  -1.388  1.00 17.75 LIG-0.34  N 
ATOM     37 H    PHE C   5     -20.753   4.095  -2.116  1.00 17.75 LIG 0.16  HD
BRANCH 36 38
ATOM     38  CA  PHE C   5     -21.836   3.188  -0.737  1.00 18.16 LIG 0.19  C 
BRANCH 38 39
ATOM     39  C   PHE C   5     -22.683   2.348  -1.686  1.00 18.09 LIG 0.20  C 
ATOM     40 O    PHE C   5     -23.745   1.858  -1.290  1.00 17.71 LIG-0.65  OA
ATOM     41 OXT  PHE C   5     -22.302   2.139  -2.851  1.00 17.63 LIG-0.65  OA
ENDBRANCH 38 39
BRANCH 38 42
ATOM     42  CB  PHE C   5     -22.615   4.400  -0.204  1.00 18.57 LIG 0.07  C 
BRANCH 42 43
ATOM     43  CG  PHE C   5     -23.300   5.192  -1.296  1.00 19.32 LIG-0.06  A 
ATOM     44  CD1 PHE C   5     -24.681   5.197  -1.412  1.00 20.35 LIG 0.01  A 
ATOM     45  CE1 PHE C   5     -25.304   5.939  -2.403  1.00 19.79 LIG 0.00  A 
ATOM     46  CZ  PHE C   5     -24.548   6.686  -3.280  1.00 20.19 LIG 0.00  A 
ATOM     47  CE2 PHE C   5     -23.182   6.692  -3.175  1.00 20.40 LIG 0.00  A 
ATOM     48  CD2 PHE C   5     -22.562   5.955  -2.184  1.00 20.78 LIG 0.01  A 
ENDBRANCH 42 43
ENDBRANCH 38 42
ENDBRANCH 36 38
ENDBRANCH 30 34
ENDBRANCH 28 30
ENDBRANCH 1 26
BRANCH 1 49
ATOM     49  CB  GLU C   3     -16.612   7.556   0.330  1.00 17.73 LIG 0.04  C 
BRANCH 49 50
ATOM     50  CG  GLU C   3     -15.944   8.331  -0.757  1.00 21.08 LIG 0.12  C 
BRANCH 50 51
ATOM     51  CD  GLU C   3     -14.912   9.290  -0.194  1.00 24.82 LIG 0.17  C 
ATOM     52 OE2  GLU C   3     -15.085   9.725   0.972  1.00 28.13 LIG-0.65  OA
ATOM     53 OE1  GLU C   3     -13.934   9.597  -0.925  1.00 24.98 LIG-0.65  OA
ENDBRANCH 50 51
ENDBRANCH 49 50
ENDBRANCH 1 49
TORSDOF 22
ENDMDL
MODEL 11
USER: ADFR SOLUTION from run 117
USER: SCORE 20.193407 LL:  -4.872 LR: -17.006 RR:   0.000 FEB: -10.443
USER: RMSD 6.502243
USER: SEED 116
USER: STATUS no improvement in best in 10 clusters for 5 generations
USER: GENES 24
USER: genes 0 Translation |==|  0.56057 0.42947 0.38400
USER: genes 1 Rotation |==|  0.46733 0.93095 0.57915 0.73864
USER: genes 2 Torsion [C]-CA--N-[C] |==|  0.64445
USER: genes 3 Torsion [N]-C--CA-[N] |==|  0.95773
USER: genes 4 Torsion [C]-CA--N-[C] |==|  0.61553
USER: genes 5 Torsion [N]-C--CA-[N] |==|  0.36547
USER: genes 6 Torsion [C]-CA--N-[C] |==|  0.78750
USER: genes 7 Torsion [C]-CA--CB-[CG] |==|  0.92189
USER: genes 8 Torsion [CA]-CB--CG-[SD] |==|  0.35316
USER: genes 9 Torsion [CB]-CG--SD-[CE] |==|  0.74243
USER: genes 10 Torsion [C]-CA--CB-[CG] |==|  0.57051
USER: genes 11 Torsion [CA]-CB--CG-[CD] |==|  0.76333
USER: genes 12 Torsion [CB]-CG--CD-[OE1] |==|  0.02781
USER: genes 13 Torsion [N]-CA--C-[N] |==|  0.28333
USER: genes 14 Torsion [C]-N--CA-[CB] |==|  0.25768
USER: genes 15 Torsion [N]-CA--CB-[CG1] |==|  0.83750
USER: genes 16 Torsion [N]-CA--C-[N] |==|  0.00984
USER: genes 17 Torsion [C]-N--CA-[C] |==|  0.17796
USER: genes 18 Torsion [N]-CA--C-[OXT] |==|  0.24368
USER: genes 19 Torsion [N]-CA--CB-[CG] |==|  0.84780
USER: genes 20 Torsion [CA]-CB--CG-[CD1] |==|  0.85060
USER: genes 21 Torsion [N]-CA--CB-[CG] |==|  0.68249
USER: genes 22 Torsion [CA]-CB--CG-[CD] |==|  0.79203
USER: genes 23 Torsion [CB]-CG--CD-[OE2] |==|  0.58703
ROOT
ATOM      1  CA  GLU C   3     -18.214   7.999  -0.100  1.00 17.34 LIG 0.18  C 
ENDROOT
BRANCH 1 2
ATOM      2  N   GLU C   3     -19.262   7.033  -0.446  1.00 16.96 LIG-0.35  N 
ATOM      3  C   GLU C   2     -19.104   5.741  -0.214  1.00 16.75 LIG 0.24  C 
ATOM      4 O    GLU C   2     -18.079   5.269   0.287  1.00 16.41 LIG-0.27  OA
ATOM      5 H    GLU C   3     -19.965   7.377  -0.801  1.00 16.96 LIG 0.16  HD
BRANCH 3 6
ATOM      6  CA  GLU C   2     -20.282   4.853  -0.588  1.00 16.90 LIG 0.18  C 
BRANCH 6 7
ATOM      7  N   GLU C   2     -21.450   5.690  -0.787  1.00 16.95 LIG-0.35  N 
ATOM      8  C   MET C   1     -22.647   5.354  -0.347  1.00 17.22 LIG 0.24  C 
ATOM      9 O    MET C   1     -22.934   4.248   0.125  1.00 17.07 LIG-0.27  OA
ATOM     10 H    GLU C   2     -21.288   6.419  -1.213  1.00 16.95 LIG 0.16  HD
BRANCH 8 11
ATOM     11  CA  MET C   1     -23.672   6.464  -0.487  1.00 17.60 LIG 0.18  C 
BRANCH 11 12
ATOM     12  N   MET C   1     -24.915   5.983  -1.102  1.00 17.57 LIG-0.35  N 
ATOM     13 H    MET C   1     -25.554   5.871  -0.538  1.00 17.57 LIG 0.16  HD
ATOM     14  C   ACE C   0     -25.047   5.743  -2.398  1.00 17.66 LIG 0.21  C 
ATOM     15 O    ACE C   0     -26.070   5.198  -2.800  1.00 18.17 LIG-0.27  OA
ATOM     16  CH3 ACE C   0     -24.084   6.393  -3.344  1.00 17.74 LIG 0.12  C 
ENDBRANCH 11 12
BRANCH 11 17
ATOM     17  CB  MET C   1     -23.941   7.067   0.902  1.00 17.86 LIG 0.04  C 
BRANCH 17 18
ATOM     18  CG  MET C   1     -23.734   6.100   2.077  1.00 18.56 LIG 0.08  C 
BRANCH 18 19
ATOM     19 SD   MET C   1     -22.621   6.777   3.334  1.00 20.55 LIG-0.17  SA
ATOM     20  CE  MET C   1     -21.033   6.127   2.799  1.00 18.76 LIG 0.09  C 
ENDBRANCH 18 19
ENDBRANCH 17 18
ENDBRANCH 11 17
ENDBRANCH 8 11
ENDBRANCH 6 7
BRANCH 6 21
ATOM     21  CB  GLU C   2     -19.965   4.068  -1.869  1.00 16.89 LIG 0.04  C 
BRANCH 21 22
ATOM     22  CG  GLU C   2     -21.195   3.653  -2.650  1.00 17.75 LIG 0.12  C 
BRANCH 22 23
ATOM     23  CD  GLU C   2     -21.788   2.354  -2.152  1.00 17.83 LIG 0.17  C 
ATOM     24 OE1  GLU C   2     -21.364   1.872  -1.089  1.00 16.84 LIG-0.65  OA
ATOM     25 OE2  GLU C   2     -22.679   1.809  -2.833  1.00 19.94 LIG-0.65  OA
ENDBRANCH 22 23
ENDBRANCH 21 22
ENDBRANCH 6 21
ENDBRANCH 3 6
ENDBRANCH 1 2
BRANCH 1 26
ATOM     26  C   GLU C   3     -18.739   9.134   0.731  1.00 16.67 LIG 0.24  C 
ATOM     27 O    GLU C   3     -19.328  10.088   0.218  1.00 16.39 LIG-0.27  OA
ATOM     28  N   VAL C   4     -18.459   9.031   2.018  1.00 16.17 LIG-0.35  N 
ATOM     29 H    VAL C   4     -18.134   8.321   2.378  1.00 16.17 LIG 0.16  HD
BRANCH 28 30
ATOM     30  CA  VAL C   4     -18.679  10.124   2.955  1.00 16.42 LIG 0.18  C 
BRANCH 30 31
ATOM     31  CB  VAL C   4     -20.057  10.052   3.634  1.00 16.37 LIG 0.01  C 
ATOM     32  CG1 VAL C   4     -21.167  10.080   2.573  1.00 16.31 LIG 0.01  C 
ATOM     33  CG2 VAL C   4     -20.160   8.819   4.545  1.00 16.31 LIG 0.01  C 
ENDBRANCH 30 31
BRANCH 30 34
ATOM     34  C   VAL C   4     -17.569  10.127   4.003  1.00 17.02 LIG 0.24  C 
ATOM     35 O    VAL C   4     -17.584  10.904   4.954  1.00 16.27 LIG-0.27  OA
ATOM     36  N   PHE C   5     -16.620   9.221   3.819  1.00 17.75 LIG-0.34  N 
ATOM     37 H    PHE C   5     -16.566   8.717   3.123  1.00 17.75 LIG 0.16  HD
BRANCH 36 38
ATOM     38  CA  PHE C   5     -15.568   9.000   4.803  1.00 18.16 LIG 0.19  C 
BRANCH 38 39
ATOM     39  C   PHE C   5     -16.141   8.481   6.116  1.00 18.09 LIG 0.20  C 
ATOM     40 O    PHE C   5     -16.430   9.276   7.017  1.00 17.71 LIG-0.65  OA
ATOM     41 OXT  PHE C   5     -16.302   7.261   6.294  1.00 17.63 LIG-0.65  OA
ENDBRANCH 38 39
BRANCH 38 42
ATOM     42  CB  PHE C   5     -14.788  10.308   5.002  1.00 18.57 LIG 0.07  C 
BRANCH 42 43
ATOM     43  CG  PHE C   5     -14.243  10.877   3.710  1.00 19.32 LIG-0.06  A 
ATOM     44  CD1 PHE C   5     -13.458  10.105   2.868  1.00 20.35 LIG 0.01  A 
ATOM     45  CE1 PHE C   5     -12.977  10.625   1.677  1.00 19.79 LIG 0.00  A 
ATOM     46  CZ  PHE C   5     -13.284  11.919   1.318  1.00 20.19 LIG 0.00  A 
ATOM     47  CE2 PHE C   5     -14.062  12.692   2.140  1.00 20.40 LIG 0.00  A 
ATOM     48  CD2 PHE C   5     -14.544  12.171   3.325  1.00 20.78 LIG 0.01  A 
ENDBRANCH 42 43
ENDBRANCH 38 42
ENDBRANCH 36 38
ENDBRANCH 30 34
ENDBRANCH 28 30
ENDBRANCH 1 26
BRANCH 1 49
ATOM     49  CB  GLU C   3     -17.565   8.612  -1.343  1.00 17.73 LIG 0.04  C 
BRANCH 49 50
ATOM     50  CG  GLU C   3     -16.127   8.258  -1.528  1.00 21.08 LIG 0.12  C 
BRANCH 50 51
ATOM     51  CD  GLU C   3     -15.244   9.020  -0.558  1.00 24.82 LIG 0.17  C 
ATOM     52 OE2  GLU C   3     -14.081   9.317  -0.926  1.00 28.13 LIG-0.65  OA
ATOM     53 OE1  GLU C   3     -15.728   9.319   0.566  1.00 24.98 LIG-0.65  OA
ENDBRANCH 50 51
ENDBRANCH 49 50
ENDBRANCH 1 49
TORSDOF 22
ENDMDL
