MODEL 1
USER: ADFR SOLUTION from run 92
USER: SCORE 15.899187 LL:  -2.040 LR: -14.545 RR:   0.000 FEB: -10.965
USER: RMSD 2.109639
USER: SEED 91
USER: STATUS no improvement in best in 10 clusters for 5 generations
USER: GENES 14
USER: genes 0 Translation |==|  0.53654 0.60771 0.41227
USER: genes 1 Rotation |==|  0.57872 0.43722 0.54294 0.98787
USER: genes 2 Torsion [C]-N--CA-[C] |==|  0.67778
USER: genes 3 Torsion [N]-CA--C-[N] |==|  0.70913
USER: genes 4 Torsion [C]-N--CA-[CB] |==|  0.15422
USER: genes 5 Torsion [N]-CA--CB-[CG] |==|  0.65289
USER: genes 6 Torsion [CA]-CB--CG-[CD2] |==|  0.38267
USER: genes 7 Torsion [N]-CA--C-[O] |==|  0.26864
USER: genes 8 Torsion [N]-CA--CB-[CG] |==|  0.78997
USER: genes 9 Torsion [CA]-CB--CG-[CD1] |==|  0.56606
USER: genes 10 Torsion [N]-C--CA-[N] |==|  0.52071
USER: genes 11 Torsion [C]-CA--N-[H3] |==|  0.83323
USER: genes 12 Torsion [C]-CA--CB-[CG] |==|  0.49070
USER: genes 13 Torsion [CA]-CB--CG-[CD2] |==|  0.89589
ROOT
ATOM      1  C   TRP C   1      19.251 -17.573  29.396  1.00 34.42 LIG 0.25  C 
ATOM      2 O    TRP C   1      20.035 -18.076  28.598  1.00 41.57 LIG-0.27  OA
ATOM      3  N   LEU C   2      19.511 -17.405  30.686  1.00 34.28 LIG-0.35  N 
ATOM      4 H    LEU C   2      19.045 -16.887  31.192  1.00 34.28 LIG 0.16  HD
ENDROOT
BRANCH 3 5
ATOM      5  CA  LEU C   2      20.609 -18.073  31.390  1.00 43.88 LIG 0.18  C 
BRANCH 5 6
ATOM      6  C   LEU C   2      20.140 -19.062  32.517  1.00 50.68 LIG 0.24  C 
ATOM      7 O    LEU C   2      19.636 -20.198  32.280  1.00 38.43 LIG-0.27  OA
ATOM      8  N   PHE C   3      20.290 -18.630  33.766  1.00 52.67 LIG-0.35  N 
ATOM      9 H    PHE C   3      20.623 -17.867  33.982  1.00 52.67 LIG 0.16  HD
BRANCH 8 10
ATOM     10  CA  PHE C   3      19.876 -19.468  34.895  1.00 63.47 LIG 0.17  C 
BRANCH 10 11
ATOM     11  CB  PHE C   3      20.557 -20.842  34.844  1.00 59.49 LIG 0.07  C 
BRANCH 11 12
ATOM     12  CG  PHE C   3      19.591 -21.996  34.873  0.00 60.89 LIG-0.06  A 
ATOM     13  CD1 PHE C   3      18.507 -21.986  35.732  0.00 60.45 LIG 0.01  A 
ATOM     14  CE1 PHE C   3      17.627 -23.055  35.772  0.00 60.97 LIG 0.00  A 
ATOM     15  CZ  PHE C   3      17.814 -24.133  34.946  0.00 59.40 LIG 0.00  A 
ATOM     16  CE2 PHE C   3      18.886 -24.158  34.084  0.00 59.26 LIG 0.00  A 
ATOM     17  CD2 PHE C   3      19.771 -23.094  34.049  0.00 60.74 LIG 0.01  A 
ENDBRANCH 11 12
ENDBRANCH 10 11
BRANCH 10 18
ATOM     18  C   PHE C   3      20.145 -18.787  36.246  1.00 72.73 LIG 0.22  C 
ATOM     19 O    PHE C   3      19.261 -18.168  36.844  1.00 72.69 LIG-0.29  OA
ENDBRANCH 10 18
ENDBRANCH 8 10
ENDBRANCH 5 6
BRANCH 5 20
ATOM     20  CB  LEU C   2      21.515 -16.982  31.963  1.00 36.13 LIG 0.04  C 
BRANCH 20 21
ATOM     21  CG  LEU C   2      22.452 -16.220  31.037  1.00 47.78 LIG-0.02  C 
ATOM     22  CD2 LEU C   2      22.936 -17.145  29.971  1.00 53.75 LIG 0.01  C 
ATOM     23  CD1 LEU C   2      23.626 -15.643  31.818  1.00 57.03 LIG 0.01  C 
ENDBRANCH 20 21
ENDBRANCH 5 20
ENDBRANCH 3 5
BRANCH 1 24
ATOM     24  CA  TRP C   1      17.887 -17.098  28.967  1.00 30.44 LIG 0.28  C 
BRANCH 24 25
ATOM     25  N   TRP C   1      17.638 -17.496  27.561  1.00 30.96 LIG-0.07  N 
ATOM     26 H3   TRP C   1      18.256 -17.129  27.035  1.00 30.96 LIG 0.28  HD
ATOM     27 H1   TRP C   1      17.677 -18.382  27.491  1.00 30.96 LIG 0.28  HD
ATOM     28 H2   TRP C   1      16.831 -17.214  27.312  1.00 30.96 LIG 0.28  HD
ENDBRANCH 24 25
BRANCH 24 29
ATOM     29  CB  TRP C   1      16.841 -17.735  29.880  1.00 29.47 LIG 0.08  C 
BRANCH 29 30
ATOM     30  CG  TRP C   1      15.464 -17.308  29.635  1.00 32.35 LIG-0.03  A 
ATOM     31  CD1 TRP C   1      14.330 -18.086  29.665  1.00 34.00 LIG 0.10  A 
ATOM     32  NE1 TRP C   1      13.232 -17.327  29.364  1.00 34.62 LIG-0.36  N 
ATOM     33 HE1  TRP C   1      12.420 -17.610  29.340  1.00 34.62 LIG 0.17  HD
ATOM     34  CE2 TRP C   1      13.636 -16.044  29.106  1.00 29.50 LIG 0.04  A 
ATOM     35  CZ2 TRP C   1      12.892 -14.920  28.789  1.00 29.56 LIG 0.03  A 
ATOM     36  CD2 TRP C   1      15.040 -16.000  29.279  1.00 28.41 LIG-0.00  A 
ATOM     37  CH2 TRP C   1      13.564 -13.755  28.595  1.00 29.15 LIG 0.00  A 
ATOM     38  CZ3 TRP C   1      14.964 -13.682  28.754  1.00 29.71 LIG 0.00  A 
ATOM     39  CE3 TRP C   1      15.698 -14.789  29.089  1.00 28.71 LIG 0.01  A 
ENDBRANCH 29 30
ENDBRANCH 24 29
ENDBRANCH 1 24
TORSDOF 12
ENDMDL
MODEL 2
USER: ADFR SOLUTION from run 21
USER: SCORE 16.172927 LL:  -2.485 LR: -14.359 RR:   0.000 FEB: -10.779
USER: RMSD 4.183748
USER: SEED 20
USER: STATUS no improvement in best in 3 clusters for 5 generations
USER: GENES 14
USER: genes 0 Translation |==|  0.54059 0.61711 0.41225
USER: genes 1 Rotation |==|  0.58492 0.43324 0.57163 0.98291
USER: genes 2 Torsion [C]-N--CA-[C] |==|  0.66743
USER: genes 3 Torsion [N]-CA--C-[N] |==|  0.59180
USER: genes 4 Torsion [C]-N--CA-[CB] |==|  0.48478
USER: genes 5 Torsion [N]-CA--CB-[CG] |==|  0.13235
USER: genes 6 Torsion [CA]-CB--CG-[CD2] |==|  0.27975
USER: genes 7 Torsion [N]-CA--C-[O] |==|  0.80222
USER: genes 8 Torsion [N]-CA--CB-[CG] |==|  0.74324
USER: genes 9 Torsion [CA]-CB--CG-[CD1] |==|  0.60731
USER: genes 10 Torsion [N]-C--CA-[N] |==|  0.52579
USER: genes 11 Torsion [C]-CA--N-[H3] |==|  0.17949
USER: genes 12 Torsion [C]-CA--CB-[CG] |==|  0.47367
USER: genes 13 Torsion [CA]-CB--CG-[CD2] |==|  0.89793
ROOT
ATOM      1  C   TRP C   1      19.333 -17.383  29.396  1.00 34.42 LIG 0.25  C 
ATOM      2 O    TRP C   1      20.195 -17.780  28.619  1.00 41.57 LIG-0.27  OA
ATOM      3  N   LEU C   2      19.529 -17.207  30.696  1.00 34.28 LIG-0.35  N 
ATOM      4 H    LEU C   2      18.991 -16.754  31.191  1.00 34.28 LIG 0.16  HD
ENDROOT
BRANCH 3 5
ATOM      5  CA  LEU C   2      20.672 -17.757  31.429  1.00 43.88 LIG 0.18  C 
BRANCH 5 6
ATOM      6  C   LEU C   2      20.278 -18.741  32.588  1.00 50.68 LIG 0.24  C 
ATOM      7 O    LEU C   2      19.261 -19.493  32.547  1.00 38.43 LIG-0.27  OA
ATOM      8  N   PHE C   3      21.077 -18.734  33.652  1.00 52.67 LIG-0.35  N 
ATOM      9 H    PHE C   3      21.777 -18.242  33.733  1.00 52.67 LIG 0.16  HD
BRANCH 8 10
ATOM     10  CA  PHE C   3      20.796 -19.607  34.796  1.00 63.47 LIG 0.17  C 
BRANCH 10 11
ATOM     11  CB  PHE C   3      21.917 -19.530  35.841  1.00 59.49 LIG 0.07  C 
BRANCH 11 12
ATOM     12  CG  PHE C   3      22.327 -18.123  36.184  0.00 60.89 LIG-0.06  A 
ATOM     13  CD1 PHE C   3      23.174 -17.413  35.353  0.00 60.45 LIG 0.01  A 
ATOM     14  CE1 PHE C   3      23.566 -16.124  35.676  0.00 60.97 LIG 0.00  A 
ATOM     15  CZ  PHE C   3      23.104 -15.531  36.823  0.00 59.40 LIG 0.00  A 
ATOM     16  CE2 PHE C   3      22.259 -16.222  37.659  0.00 59.26 LIG 0.00  A 
ATOM     17  CD2 PHE C   3      21.873 -17.514  37.341  0.00 60.74 LIG 0.01  A 
ENDBRANCH 11 12
ENDBRANCH 10 11
BRANCH 10 18
ATOM     18  C   PHE C   3      19.439 -19.288  35.442  1.00 72.73 LIG 0.22  C 
ATOM     19 O    PHE C   3      19.261 -18.254  36.093  1.00 72.69 LIG-0.29  OA
ENDBRANCH 10 18
ENDBRANCH 8 10
ENDBRANCH 5 6
BRANCH 5 20
ATOM     20  CB  LEU C   2      21.481 -16.576  31.968  1.00 36.13 LIG 0.04  C 
BRANCH 20 21
ATOM     21  CG  LEU C   2      22.633 -16.016  31.146  1.00 47.78 LIG-0.02  C 
ATOM     22  CD2 LEU C   2      23.061 -17.043  30.151  1.00 53.75 LIG 0.01  C 
ATOM     23  CD1 LEU C   2      23.797 -15.627  32.048  1.00 57.03 LIG 0.01  C 
ENDBRANCH 20 21
ENDBRANCH 5 20
ENDBRANCH 3 5
BRANCH 1 24
ATOM     24  CA  TRP C   1      17.938 -17.060  28.926  1.00 30.44 LIG 0.28  C 
BRANCH 24 25
ATOM     25  N   TRP C   1      17.769 -17.500  27.521  1.00 30.96 LIG-0.07  N 
ATOM     26 H3   TRP C   1      17.836 -18.387  27.477  1.00 30.96 LIG 0.28  HD
ATOM     27 H1   TRP C   1      16.968 -17.248  27.225  1.00 30.96 LIG 0.28  HD
ATOM     28 H2   TRP C   1      18.402 -17.130  27.016  1.00 30.96 LIG 0.28  HD
ENDBRANCH 24 25
BRANCH 24 29
ATOM     29  CB  TRP C   1      16.941 -17.790  29.823  1.00 29.47 LIG 0.08  C 
BRANCH 29 30
ATOM     30  CG  TRP C   1      15.543 -17.408  29.632  1.00 32.35 LIG-0.03  A 
ATOM     31  CD1 TRP C   1      14.441 -18.232  29.655  1.00 34.00 LIG 0.10  A 
ATOM     32  NE1 TRP C   1      13.306 -17.505  29.416  1.00 34.62 LIG-0.36  N 
ATOM     33 HE1  TRP C   1      12.505 -17.818  29.399  1.00 34.62 LIG 0.17  HD
ATOM     34  CE2 TRP C   1      13.654 -16.196  29.206  1.00 29.50 LIG 0.04  A 
ATOM     35  CZ2 TRP C   1      12.858 -15.090  28.959  1.00 29.56 LIG 0.03  A 
ATOM     36  CD2 TRP C   1      15.058 -16.104  29.346  1.00 28.41 LIG-0.00  A 
ATOM     37  CH2 TRP C   1      13.479 -13.891  28.801  1.00 29.15 LIG 0.00  A 
ATOM     38  CZ3 TRP C   1      14.878 -13.770  28.928  1.00 29.71 LIG 0.00  A 
ATOM     39  CE3 TRP C   1      15.663 -14.861  29.194  1.00 28.71 LIG 0.01  A 
ENDBRANCH 29 30
ENDBRANCH 24 29
ENDBRANCH 1 24
TORSDOF 12
ENDMDL
MODEL 3
USER: ADFR SOLUTION from run 169
USER: SCORE 16.390805 LL:  -2.210 LR: -14.188 RR:   0.000 FEB: -10.609
USER: RMSD 2.596634
USER: SEED 168
USER: STATUS no improvement in best in 1 clusters for 5 generations
USER: GENES 14
USER: genes 0 Translation |==|  0.53294 0.60830 0.39987
USER: genes 1 Rotation |==|  0.42135 0.51594 0.50081 0.99352
USER: genes 2 Torsion [C]-N--CA-[C] |==|  0.84292
USER: genes 3 Torsion [N]-CA--C-[N] |==|  0.36859
USER: genes 4 Torsion [C]-N--CA-[CB] |==|  0.78476
USER: genes 5 Torsion [N]-CA--CB-[CG] |==|  0.26760
USER: genes 6 Torsion [CA]-CB--CG-[CD2] |==|  0.22253
USER: genes 7 Torsion [N]-CA--C-[O] |==|  0.13201
USER: genes 8 Torsion [N]-CA--CB-[CG] |==|  0.55112
USER: genes 9 Torsion [CA]-CB--CG-[CD1] |==|  0.25669
USER: genes 10 Torsion [N]-C--CA-[N] |==|  0.41152
USER: genes 11 Torsion [C]-CA--N-[H3] |==|  0.16915
USER: genes 12 Torsion [C]-CA--CB-[CG] |==|  0.50231
USER: genes 13 Torsion [CA]-CB--CG-[CD2] |==|  0.87970
ROOT
ATOM      1  C   TRP C   1      19.178 -17.561  29.192  1.00 34.42 LIG 0.25  C 
ATOM      2 O    TRP C   1      19.608 -18.612  28.729  1.00 41.57 LIG-0.27  OA
ATOM      3  N   LEU C   2      19.858 -16.783  30.024  1.00 34.28 LIG-0.35  N 
ATOM      4 H    LEU C   2      19.633 -15.970  30.190  1.00 34.28 LIG 0.16  HD
ENDROOT
BRANCH 3 5
ATOM      5  CA  LEU C   2      21.056 -17.216  30.748  1.00 43.88 LIG 0.18  C 
BRANCH 5 6
ATOM      6  C   LEU C   2      20.842 -18.493  31.637  1.00 50.68 LIG 0.24  C 
ATOM      7 O    LEU C   2      19.870 -18.631  32.435  1.00 38.43 LIG-0.27  OA
ATOM      8  N   PHE C   3      21.766 -19.443  31.519  1.00 52.67 LIG-0.35  N 
ATOM      9 H    PHE C   3      22.447 -19.400  30.996  1.00 52.67 LIG 0.16  HD
BRANCH 8 10
ATOM     10  CA  PHE C   3      21.669 -20.674  32.311  1.00 63.47 LIG 0.17  C 
BRANCH 10 11
ATOM     11  CB  PHE C   3      22.115 -20.438  33.760  1.00 59.49 LIG 0.07  C 
BRANCH 11 12
ATOM     12  CG  PHE C   3      20.976 -20.168  34.705  0.00 60.89 LIG-0.06  A 
ATOM     13  CD1 PHE C   3      20.673 -18.876  35.095  0.00 60.45 LIG 0.01  A 
ATOM     14  CE1 PHE C   3      19.636 -18.629  35.980  0.00 60.97 LIG 0.00  A 
ATOM     15  CZ  PHE C   3      18.886 -19.667  36.469  0.00 59.40 LIG 0.00  A 
ATOM     16  CE2 PHE C   3      19.172 -20.958  36.090  0.00 59.26 LIG 0.00  A 
ATOM     17  CD2 PHE C   3      20.214 -21.207  35.213  0.00 60.74 LIG 0.01  A 
ENDBRANCH 11 12
ENDBRANCH 10 11
BRANCH 10 18
ATOM     18  C   PHE C   3      20.253 -21.269  32.277  1.00 72.73 LIG 0.22  C 
ATOM     19 O    PHE C   3      19.636 -21.405  31.217  1.00 72.69 LIG-0.29  OA
ENDBRANCH 10 18
ENDBRANCH 8 10
ENDBRANCH 5 6
BRANCH 5 20
ATOM     20  CB  LEU C   2      21.529 -16.034  31.596  1.00 36.13 LIG 0.04  C 
BRANCH 20 21
ATOM     21  CG  LEU C   2      22.954 -16.014  32.128  1.00 47.78 LIG-0.02  C 
ATOM     22  CD2 LEU C   2      22.962 -15.353  33.466  1.00 53.75 LIG 0.01  C 
ATOM     23  CD1 LEU C   2      23.877 -15.280  31.164  1.00 57.03 LIG 0.01  C 
ENDBRANCH 20 21
ENDBRANCH 5 20
ENDBRANCH 3 5
BRANCH 1 24
ATOM     24  CA  TRP C   1      17.800 -17.056  28.851  1.00 30.44 LIG 0.28  C 
BRANCH 24 25
ATOM     25  N   TRP C   1      17.445 -17.462  27.470  1.00 30.96 LIG-0.07  N 
ATOM     26 H3   TRP C   1      17.445 -18.351  27.413  1.00 30.96 LIG 0.28  HD
ATOM     27 H1   TRP C   1      16.636 -17.151  27.267  1.00 30.96 LIG 0.28  HD
ATOM     28 H2   TRP C   1      18.043 -17.129  26.900  1.00 30.96 LIG 0.28  HD
ENDBRANCH 24 25
BRANCH 24 29
ATOM     29  CB  TRP C   1      16.804 -17.656  29.840  1.00 29.47 LIG 0.08  C 
BRANCH 29 30
ATOM     30  CG  TRP C   1      15.409 -17.271  29.624  1.00 32.35 LIG-0.03  A 
ATOM     31  CD1 TRP C   1      14.304 -18.090  29.637  1.00 34.00 LIG 0.10  A 
ATOM     32  NE1 TRP C   1      13.176 -17.361  29.374  1.00 34.62 LIG-0.36  N 
ATOM     33 HE1  TRP C   1      12.375 -17.672  29.348  1.00 34.62 LIG 0.17  HD
ATOM     34  CE2 TRP C   1      13.532 -16.056  29.159  1.00 29.50 LIG 0.04  A 
ATOM     35  CZ2 TRP C   1      12.744 -14.949  28.889  1.00 29.56 LIG 0.03  A 
ATOM     36  CD2 TRP C   1      14.934 -15.967  29.320  1.00 28.41 LIG-0.00  A 
ATOM     37  CH2 TRP C   1      13.372 -13.754  28.731  1.00 29.15 LIG 0.00  A 
ATOM     38  CZ3 TRP C   1      14.769 -13.636  28.879  1.00 29.71 LIG 0.00  A 
ATOM     39  CE3 TRP C   1      15.546 -14.727  29.167  1.00 28.71 LIG 0.01  A 
ENDBRANCH 29 30
ENDBRANCH 24 29
ENDBRANCH 1 24
TORSDOF 12
ENDMDL
MODEL 4
USER: ADFR SOLUTION from run 89
USER: SCORE 15.251423 LL:  -2.023 LR: -13.993 RR:   0.000 FEB: -10.413
USER: RMSD 3.123849
USER: SEED 88
USER: STATUS searching
USER: GENES 14
USER: genes 0 Translation |==|  0.54087 0.62745 0.40633
USER: genes 1 Rotation |==|  0.61587 0.43057 0.59360 0.97222
USER: genes 2 Torsion [C]-N--CA-[C] |==|  0.63422
USER: genes 3 Torsion [N]-CA--C-[N] |==|  0.61285
USER: genes 4 Torsion [C]-N--CA-[CB] |==|  0.49409
USER: genes 5 Torsion [N]-CA--CB-[CG] |==|  0.54928
USER: genes 6 Torsion [CA]-CB--CG-[CD2] |==|  0.25275
USER: genes 7 Torsion [N]-CA--C-[O] |==|  0.73014
USER: genes 8 Torsion [N]-CA--CB-[CG] |==|  0.70159
USER: genes 9 Torsion [CA]-CB--CG-[CD1] |==|  0.64830
USER: genes 10 Torsion [N]-C--CA-[N] |==|  0.55704
USER: genes 11 Torsion [C]-CA--N-[H3] |==|  0.18261
USER: genes 12 Torsion [C]-CA--CB-[CG] |==|  0.47158
USER: genes 13 Torsion [CA]-CB--CG-[CD2] |==|  0.89183
ROOT
ATOM      1  C   TRP C   1      19.339 -17.173  29.298  1.00 34.42 LIG 0.25  C 
ATOM      2 O    TRP C   1      20.244 -17.385  28.498  1.00 41.57 LIG-0.27  OA
ATOM      3  N   LEU C   2      19.506 -17.131  30.613  1.00 34.28 LIG-0.35  N 
ATOM      4 H    LEU C   2      18.919 -16.798  31.147  1.00 34.28 LIG 0.16  HD
ENDROOT
BRANCH 3 5
ATOM      5  CA  LEU C   2      20.696 -17.641  31.300  1.00 43.88 LIG 0.18  C 
BRANCH 5 6
ATOM      6  C   LEU C   2      20.380 -18.567  32.529  1.00 50.68 LIG 0.24  C 
ATOM      7 O    LEU C   2      19.449 -19.424  32.533  1.00 38.43 LIG-0.27  OA
ATOM      8  N   PHE C   3      21.151 -18.393  33.599  1.00 52.67 LIG-0.35  N 
ATOM      9 H    PHE C   3      21.794 -17.824  33.651  1.00 52.67 LIG 0.16  HD
BRANCH 8 10
ATOM     10  CA  PHE C   3      20.936 -19.198  34.806  1.00 63.47 LIG 0.17  C 
BRANCH 10 11
ATOM     11  CB  PHE C   3      21.971 -18.862  35.888  1.00 59.49 LIG 0.07  C 
BRANCH 11 12
ATOM     12  CG  PHE C   3      22.084 -19.911  36.960  0.00 60.89 LIG-0.06  A 
ATOM     13  CD1 PHE C   3      21.289 -19.854  38.090  0.00 60.45 LIG 0.01  A 
ATOM     14  CE1 PHE C   3      21.405 -20.809  39.087  0.00 60.97 LIG 0.00  A 
ATOM     15  CZ  PHE C   3      22.304 -21.835  38.956  0.00 59.40 LIG 0.00  A 
ATOM     16  CE2 PHE C   3      23.102 -21.909  37.838  0.00 59.26 LIG 0.00  A 
ATOM     17  CD2 PHE C   3      22.993 -20.950  36.845  0.00 60.74 LIG 0.01  A 
ENDBRANCH 11 12
ENDBRANCH 10 11
BRANCH 10 18
ATOM     18  C   PHE C   3      19.512 -19.038  35.358  1.00 72.73 LIG 0.22  C 
ATOM     19 O    PHE C   3      19.261 -18.254  36.278  1.00 72.69 LIG-0.29  OA
ENDBRANCH 10 18
ENDBRANCH 8 10
ENDBRANCH 5 6
BRANCH 5 20
ATOM     20  CB  LEU C   2      21.529 -16.431  31.729  1.00 36.13 LIG 0.04  C 
BRANCH 20 21
ATOM     21  CG  LEU C   2      22.826 -16.116  30.999  1.00 47.78 LIG-0.02  C 
ATOM     22  CD2 LEU C   2      23.100 -17.198  30.008  1.00 53.75 LIG 0.01  C 
ATOM     23  CD1 LEU C   2      23.980 -15.990  31.985  1.00 57.03 LIG 0.01  C 
ENDBRANCH 20 21
ENDBRANCH 5 20
ENDBRANCH 3 5
BRANCH 1 24
ATOM     24  CA  TRP C   1      17.921 -16.945  28.842  1.00 30.44 LIG 0.28  C 
BRANCH 24 25
ATOM     25  N   TRP C   1      17.742 -17.486  27.473  1.00 30.96 LIG-0.07  N 
ATOM     26 H3   TRP C   1      17.833 -18.371  27.490  1.00 30.96 LIG 0.28  HD
ATOM     27 H1   TRP C   1      16.931 -17.276  27.174  1.00 30.96 LIG 0.28  HD
ATOM     28 H2   TRP C   1      18.357 -17.135  26.933  1.00 30.96 LIG 0.28  HD
ENDBRANCH 24 25
BRANCH 24 29
ATOM     29  CB  TRP C   1      16.978 -17.658  29.809  1.00 29.47 LIG 0.08  C 
BRANCH 29 30
ATOM     30  CG  TRP C   1      15.561 -17.339  29.638  1.00 32.35 LIG-0.03  A 
ATOM     31  CD1 TRP C   1      14.495 -18.207  29.701  1.00 34.00 LIG 0.10  A 
ATOM     32  NE1 TRP C   1      13.327 -17.534  29.469  1.00 34.62 LIG-0.36  N 
ATOM     33 HE1  TRP C   1      12.540 -17.881  29.476  1.00 34.62 LIG 0.17  HD
ATOM     34  CE2 TRP C   1      13.614 -16.217  29.225  1.00 29.50 LIG 0.04  A 
ATOM     35  CZ2 TRP C   1      12.768 -15.150  28.971  1.00 29.56 LIG 0.03  A 
ATOM     36  CD2 TRP C   1      15.016 -16.062  29.335  1.00 28.41 LIG-0.00  A 
ATOM     37  CH2 TRP C   1      13.334 -13.931  28.775  1.00 29.15 LIG 0.00  A 
ATOM     38  CZ3 TRP C   1      14.729 -13.748  28.871  1.00 29.71 LIG 0.00  A 
ATOM     39  CE3 TRP C   1      15.565 -14.799  29.145  1.00 28.71 LIG 0.01  A 
ENDBRANCH 29 30
ENDBRANCH 24 29
ENDBRANCH 1 24
TORSDOF 12
ENDMDL
MODEL 5
USER: ADFR SOLUTION from run 58
USER: SCORE 15.930366 LL:  -2.806 LR: -13.847 RR:   0.000 FEB: -10.268
USER: RMSD 3.328346
USER: SEED 57
USER: STATUS no improvement in best in 10 clusters for 5 generations
USER: GENES 14
USER: genes 0 Translation |==|  0.53796 0.62557 0.40379
USER: genes 1 Rotation |==|  0.60814 0.43032 0.59320 0.97409
USER: genes 2 Torsion [C]-N--CA-[C] |==|  0.64448
USER: genes 3 Torsion [N]-CA--C-[N] |==|  0.59406
USER: genes 4 Torsion [C]-N--CA-[CB] |==|  0.34922
USER: genes 5 Torsion [N]-CA--CB-[CG] |==|  0.99300
USER: genes 6 Torsion [CA]-CB--CG-[CD2] |==|  0.76707
USER: genes 7 Torsion [N]-CA--C-[O] |==|  0.23552
USER: genes 8 Torsion [N]-CA--CB-[CG] |==|  0.58418
USER: genes 9 Torsion [CA]-CB--CG-[CD1] |==|  0.25019
USER: genes 10 Torsion [N]-C--CA-[N] |==|  0.54865
USER: genes 11 Torsion [C]-CA--N-[H3] |==|  0.18294
USER: genes 12 Torsion [C]-CA--CB-[CG] |==|  0.46390
USER: genes 13 Torsion [CA]-CB--CG-[CD2] |==|  0.90077
ROOT
ATOM      1  C   TRP C   1      19.280 -17.211  29.256  1.00 34.42 LIG 0.25  C 
ATOM      2 O    TRP C   1      20.187 -17.454  28.468  1.00 41.57 LIG-0.27  OA
ATOM      3  N   LEU C   2      19.440 -17.130  30.570  1.00 34.28 LIG-0.35  N 
ATOM      4 H    LEU C   2      18.854 -16.777  31.091  1.00 34.28 LIG 0.16  HD
ENDROOT
BRANCH 3 5
ATOM      5  CA  LEU C   2      20.623 -17.628  31.278  1.00 43.88 LIG 0.18  C 
BRANCH 5 6
ATOM      6  C   LEU C   2      20.296 -18.588  32.478  1.00 50.68 LIG 0.24  C 
ATOM      7 O    LEU C   2      19.309 -19.379  32.487  1.00 38.43 LIG-0.27  OA
ATOM      8  N   PHE C   3      21.121 -18.516  33.520  1.00 52.67 LIG-0.35  N 
ATOM      9 H    PHE C   3      21.803 -17.994  33.567  1.00 52.67 LIG 0.16  HD
BRANCH 8 10
ATOM     10  CA  PHE C   3      20.902 -19.361  34.698  1.00 63.47 LIG 0.17  C 
BRANCH 10 11
ATOM     11  CB  PHE C   3      22.158 -20.174  35.038  1.00 59.49 LIG 0.07  C 
BRANCH 11 12
ATOM     12  CG  PHE C   3      23.290 -19.970  34.067  0.00 60.89 LIG-0.06  A 
ATOM     13  CD1 PHE C   3      24.290 -19.051  34.332  0.00 60.45 LIG 0.01  A 
ATOM     14  CE1 PHE C   3      25.322 -18.850  33.431  0.00 60.97 LIG 0.00  A 
ATOM     15  CZ  PHE C   3      25.372 -19.573  32.267  0.00 59.40 LIG 0.00  A 
ATOM     16  CE2 PHE C   3      24.388 -20.492  31.989  0.00 59.26 LIG 0.00  A 
ATOM     17  CD2 PHE C   3      23.350 -20.688  32.885  0.00 60.74 LIG 0.01  A 
ENDBRANCH 11 12
ENDBRANCH 10 11
BRANCH 10 18
ATOM     18  C   PHE C   3      20.448 -18.542  35.916  1.00 72.73 LIG 0.22  C 
ATOM     19 O    PHE C   3      19.261 -18.254  36.093  1.00 72.69 LIG-0.29  OA
ENDBRANCH 10 18
ENDBRANCH 8 10
ENDBRANCH 5 6
BRANCH 5 20
ATOM     20  CB  LEU C   2      21.415 -16.409  31.756  1.00 36.13 LIG 0.04  C 
BRANCH 20 21
ATOM     21  CG  LEU C   2      22.929 -16.500  31.885  1.00 47.78 LIG-0.02  C 
ATOM     22  CD2 LEU C   2      23.374 -15.618  33.003  1.00 53.75 LIG 0.01  C 
ATOM     23  CD1 LEU C   2      23.604 -16.094  30.581  1.00 57.03 LIG 0.01  C 
ENDBRANCH 20 21
ENDBRANCH 5 20
ENDBRANCH 3 5
BRANCH 1 24
ATOM     24  CA  TRP C   1      17.866 -16.987  28.785  1.00 30.44 LIG 0.28  C 
BRANCH 24 25
ATOM     25  N   TRP C   1      17.711 -17.503  27.405  1.00 30.96 LIG-0.07  N 
ATOM     26 H3   TRP C   1      17.807 -18.388  27.406  1.00 30.96 LIG 0.28  HD
ATOM     27 H1   TRP C   1      16.901 -17.293  27.098  1.00 30.96 LIG 0.28  HD
ATOM     28 H2   TRP C   1      18.330 -17.138  26.880  1.00 30.96 LIG 0.28  HD
ENDBRANCH 24 25
BRANCH 24 29
ATOM     29  CB  TRP C   1      16.917 -17.726  29.726  1.00 29.47 LIG 0.08  C 
BRANCH 29 30
ATOM     30  CG  TRP C   1      15.506 -17.369  29.586  1.00 32.35 LIG-0.03  A 
ATOM     31  CD1 TRP C   1      14.419 -18.208  29.678  1.00 34.00 LIG 0.10  A 
ATOM     32  NE1 TRP C   1      13.264 -17.504  29.469  1.00 34.62 LIG-0.36  N 
ATOM     33 HE1  TRP C   1      12.468 -17.829  29.495  1.00 34.62 LIG 0.17  HD
ATOM     34  CE2 TRP C   1      13.581 -16.196  29.211  1.00 29.50 LIG 0.04  A 
ATOM     35  CZ2 TRP C   1      12.759 -15.108  28.969  1.00 29.56 LIG 0.03  A 
ATOM     36  CD2 TRP C   1      14.989 -16.080  29.288  1.00 28.41 LIG-0.00  A 
ATOM     37  CH2 TRP C   1      13.354 -13.906  28.754  1.00 29.15 LIG 0.00  A 
ATOM     38  CZ3 TRP C   1      14.755 -13.761  28.817  1.00 29.71 LIG 0.00  A 
ATOM     39  CE3 TRP C   1      15.568 -14.833  29.078  1.00 28.71 LIG 0.01  A 
ENDBRANCH 29 30
ENDBRANCH 24 29
ENDBRANCH 1 24
TORSDOF 12
ENDMDL
MODEL 6
USER: ADFR SOLUTION from run 7
USER: SCORE 16.065977 LL:  -2.430 LR: -13.779 RR:   0.000 FEB: -10.199
USER: RMSD 5.293879
USER: SEED 501379
USER: STATUS no improvement in best in 9 clusters for 5 generations
USER: GENES 14
USER: genes 0 Translation |==|  0.52490 0.61837 0.41858
USER: genes 1 Rotation |==|  0.31670 0.58884 0.46723 0.95545
USER: genes 2 Torsion [C]-N--CA-[C] |==|  0.14678
USER: genes 3 Torsion [N]-CA--C-[N] |==|  0.14998
USER: genes 4 Torsion [C]-N--CA-[CB] |==|  0.21902
USER: genes 5 Torsion [N]-CA--CB-[CG] |==|  0.18951
USER: genes 6 Torsion [CA]-CB--CG-[CD2] |==|  0.35579
USER: genes 7 Torsion [N]-CA--C-[O] |==|  0.14916
USER: genes 8 Torsion [N]-CA--CB-[CG] |==|  0.56314
USER: genes 9 Torsion [CA]-CB--CG-[CD1] |==|  0.19460
USER: genes 10 Torsion [N]-C--CA-[N] |==|  0.28560
USER: genes 11 Torsion [C]-CA--N-[H3] |==|  0.95202
USER: genes 12 Torsion [C]-CA--CB-[CG] |==|  0.52413
USER: genes 13 Torsion [CA]-CB--CG-[CD2] |==|  0.91045
ROOT
ATOM      1  C   TRP C   1      19.015 -17.357  29.501  1.00 34.42 LIG 0.25  C 
ATOM      2 O    TRP C   1      19.182 -18.572  29.474  1.00 41.57 LIG-0.27  OA
ATOM      3  N   LEU C   2      19.984 -16.479  29.720  1.00 34.28 LIG-0.35  N 
ATOM      4 H    LEU C   2      19.901 -15.640  29.550  1.00 34.28 LIG 0.16  HD
ENDROOT
BRANCH 3 5
ATOM      5  CA  LEU C   2      21.295 -16.834  30.272  1.00 43.88 LIG 0.18  C 
BRANCH 5 6
ATOM      6  C   LEU C   2      22.023 -17.994  29.502  1.00 50.68 LIG 0.24  C 
ATOM      7 O    LEU C   2      22.466 -19.035  30.069  1.00 38.43 LIG-0.27  OA
ATOM      8  N   PHE C   3      22.168 -17.817  28.191  1.00 52.67 LIG-0.35  N 
ATOM      9 H    PHE C   3      21.890 -17.129  27.757  1.00 52.67 LIG 0.16  HD
BRANCH 8 10
ATOM     10  CA  PHE C   3      22.842 -18.833  27.377  1.00 63.47 LIG 0.17  C 
BRANCH 10 11
ATOM     11  CB  PHE C   3      21.906 -20.010  27.072  1.00 59.49 LIG 0.07  C 
BRANCH 11 12
ATOM     12  CG  PHE C   3      20.769 -19.654  26.153  0.00 60.89 LIG-0.06  A 
ATOM     13  CD1 PHE C   3      19.949 -18.575  26.430  0.00 60.45 LIG 0.01  A 
ATOM     14  CE1 PHE C   3      18.891 -18.257  25.594  0.00 60.97 LIG 0.00  A 
ATOM     15  CZ  PHE C   3      18.654 -19.003  24.469  0.00 59.40 LIG 0.00  A 
ATOM     16  CE2 PHE C   3      19.460 -20.078  24.177  0.00 59.26 LIG 0.00  A 
ATOM     17  CD2 PHE C   3      20.513 -20.403  25.017  0.00 60.74 LIG 0.01  A 
ENDBRANCH 11 12
ENDBRANCH 10 11
BRANCH 10 18
ATOM     18  C   PHE C   3      23.405 -18.245  26.074  1.00 72.73 LIG 0.22  C 
ATOM     19 O    PHE C   3      24.156 -17.267  26.080  1.00 72.69 LIG-0.29  OA
ENDBRANCH 10 18
ENDBRANCH 8 10
ENDBRANCH 5 6
BRANCH 5 20
ATOM     20  CB  LEU C   2      21.087 -17.202  31.742  1.00 36.13 LIG 0.04  C 
BRANCH 20 21
ATOM     21  CG  LEU C   2      22.256 -17.113  32.712  1.00 47.78 LIG-0.02  C 
ATOM     22  CD2 LEU C   2      21.879 -17.787  33.989  1.00 53.75 LIG 0.01  C 
ATOM     23  CD1 LEU C   2      22.634 -15.660  32.966  1.00 57.03 LIG 0.01  C 
ENDBRANCH 20 21
ENDBRANCH 5 20
ENDBRANCH 3 5
BRANCH 1 24
ATOM     24  CA  TRP C   1      17.655 -16.745  29.288  1.00 30.44 LIG 0.28  C 
BRANCH 24 25
ATOM     25  N   TRP C   1      17.321 -16.754  27.844  1.00 30.96 LIG-0.07  N 
ATOM     26 H3   TRP C   1      18.064 -16.879  27.369  1.00 30.96 LIG 0.28  HD
ATOM     27 H1   TRP C   1      16.747 -17.413  27.676  1.00 30.96 LIG 0.28  HD
ATOM     28 H2   TRP C   1      16.953 -15.975  27.620  1.00 30.96 LIG 0.28  HD
ENDBRANCH 24 25
BRANCH 24 29
ATOM     29  CB  TRP C   1      16.626 -17.565  30.064  1.00 29.47 LIG 0.08  C 
BRANCH 29 30
ATOM     30  CG  TRP C   1      15.231 -17.216  29.799  1.00 32.35 LIG-0.03  A 
ATOM     31  CD1 TRP C   1      14.147 -18.064  29.776  1.00 34.00 LIG 0.10  A 
ATOM     32  NE1 TRP C   1      13.011 -17.364  29.473  1.00 34.62 LIG-0.36  N 
ATOM     33 HE1  TRP C   1      12.219 -17.696  29.420  1.00 34.62 LIG 0.17  HD
ATOM     34  CE2 TRP C   1      13.339 -16.050  29.267  1.00 29.50 LIG 0.04  A 
ATOM     35  CZ2 TRP C   1      12.533 -14.964  28.969  1.00 29.56 LIG 0.03  A 
ATOM     36  CD2 TRP C   1      14.733 -15.925  29.476  1.00 28.41 LIG-0.00  A 
ATOM     37  CH2 TRP C   1      13.135 -13.754  28.830  1.00 29.15 LIG 0.00  A 
ATOM     38  CZ3 TRP C   1      14.523 -13.600  29.025  1.00 29.71 LIG 0.00  A 
ATOM     39  CE3 TRP C   1      15.318 -14.671  29.342  1.00 28.71 LIG 0.01  A 
ENDBRANCH 29 30
ENDBRANCH 24 29
ENDBRANCH 1 24
TORSDOF 12
ENDMDL
MODEL 7
USER: ADFR SOLUTION from run 48
USER: SCORE 14.865931 LL:  -1.804 LR: -13.770 RR:   0.000 FEB: -10.190
USER: RMSD 6.281216
USER: SEED 47
USER: STATUS no improvement in best in 8 clusters for 5 generations
USER: GENES 14
USER: genes 0 Translation |==|  0.50986 0.60758 0.44235
USER: genes 1 Rotation |==|  0.21906 0.66287 0.41375 0.87028
USER: genes 2 Torsion [C]-N--CA-[C] |==|  0.68333
USER: genes 3 Torsion [N]-CA--C-[N] |==|  0.66738
USER: genes 4 Torsion [C]-N--CA-[CB] |==|  0.16175
USER: genes 5 Torsion [N]-CA--CB-[CG] |==|  0.62773
USER: genes 6 Torsion [CA]-CB--CG-[CD2] |==|  0.40417
USER: genes 7 Torsion [N]-CA--C-[O] |==|  0.25868
USER: genes 8 Torsion [N]-CA--CB-[CG] |==|  0.83986
USER: genes 9 Torsion [CA]-CB--CG-[CD1] |==|  0.89453
USER: genes 10 Torsion [N]-C--CA-[N] |==|  0.00160
USER: genes 11 Torsion [C]-CA--N-[H3] |==|  0.73850
USER: genes 12 Torsion [C]-CA--CB-[CG] |==|  0.41986
USER: genes 13 Torsion [CA]-CB--CG-[CD2] |==|  0.15807
ROOT
ATOM      1  C   TRP C   1      18.711 -17.575  29.893  1.00 34.42 LIG 0.25  C 
ATOM      2 O    TRP C   1      18.645 -18.663  30.456  1.00 41.57 LIG-0.27  OA
ATOM      3  N   LEU C   2      19.836 -17.043  29.436  1.00 34.28 LIG-0.35  N 
ATOM      4 H    LEU C   2      19.849 -16.384  28.882  1.00 34.28 LIG 0.16  HD
ENDROOT
BRANCH 3 5
ATOM      5  CA  LEU C   2      21.171 -17.509  29.817  1.00 43.88 LIG 0.18  C 
BRANCH 5 6
ATOM      6  C   LEU C   2      22.004 -16.465  30.644  1.00 50.68 LIG 0.24  C 
ATOM      7 O    LEU C   2      21.625 -15.997  31.756  1.00 38.43 LIG-0.27  OA
ATOM      8  N   PHE C   3      23.152 -16.074  30.095  1.00 52.67 LIG-0.35  N 
ATOM      9 H    PHE C   3      23.455 -16.357  29.342  1.00 52.67 LIG 0.16  HD
BRANCH 8 10
ATOM     10  CA  PHE C   3      24.004 -15.095  30.777  1.00 63.47 LIG 0.17  C 
BRANCH 10 11
ATOM     11  CB  PHE C   3      24.410 -15.589  32.172  1.00 59.49 LIG 0.07  C 
BRANCH 11 12
ATOM     12  CG  PHE C   3      24.263 -14.546  33.247  0.00 60.89 LIG-0.06  A 
ATOM     13  CD1 PHE C   3      24.510 -13.213  32.976  0.00 60.45 LIG 0.01  A 
ATOM     14  CE1 PHE C   3      24.393 -12.254  33.969  0.00 60.97 LIG 0.00  A 
ATOM     15  CZ  PHE C   3      24.014 -12.618  35.235  0.00 59.40 LIG 0.00  A 
ATOM     16  CE2 PHE C   3      23.761 -13.939  35.522  0.00 59.26 LIG 0.00  A 
ATOM     17  CD2 PHE C   3      23.887 -14.899  34.532  0.00 60.74 LIG 0.01  A 
ENDBRANCH 11 12
ENDBRANCH 10 11
BRANCH 10 18
ATOM     18  C   PHE C   3      25.249 -14.742  29.950  1.00 72.73 LIG 0.22  C 
ATOM     19 O    PHE C   3      25.261 -13.776  29.182  1.00 72.69 LIG-0.29  OA
ENDBRANCH 10 18
ENDBRANCH 8 10
ENDBRANCH 5 6
BRANCH 5 20
ATOM     20  CB  LEU C   2      21.904 -17.896  28.531  1.00 36.13 LIG 0.04  C 
BRANCH 20 21
ATOM     21  CG  LEU C   2      21.303 -18.949  27.611  1.00 47.78 LIG-0.02  C 
ATOM     22  CD2 LEU C   2      20.301 -18.296  26.718  1.00 53.75 LIG 0.01  C 
ATOM     23  CD1 LEU C   2      20.653 -20.062  28.422  1.00 57.03 LIG 0.01  C 
ENDBRANCH 20 21
ENDBRANCH 5 20
ENDBRANCH 3 5
BRANCH 1 24
ATOM     24  CA  TRP C   1      17.484 -16.727  29.674  1.00 30.44 LIG 0.28  C 
BRANCH 24 25
ATOM     25  N   TRP C   1      17.858 -15.479  28.969  1.00 30.96 LIG-0.07  N 
ATOM     26 H3   TRP C   1      18.005 -14.833  29.565  1.00 30.96 LIG 0.28  HD
ATOM     27 H1   TRP C   1      18.598 -15.616  28.493  1.00 30.96 LIG 0.28  HD
ATOM     28 H2   TRP C   1      17.197 -15.236  28.425  1.00 30.96 LIG 0.28  HD
ENDBRANCH 24 25
BRANCH 24 29
ATOM     29  CB  TRP C   1      16.488 -17.521  28.832  1.00 29.47 LIG 0.08  C 
BRANCH 29 30
ATOM     30  CG  TRP C   1      15.082 -17.190  29.061  1.00 32.35 LIG-0.03  A 
ATOM     31  CD1 TRP C   1      14.066 -18.051  29.405  1.00 34.00 LIG 0.10  A 
ATOM     32  NE1 TRP C   1      12.886 -17.366  29.512  1.00 34.62 LIG-0.36  N 
ATOM     33 HE1  TRP C   1      12.128 -17.707  29.731  1.00 34.62 LIG 0.17  HD
ATOM     34  CE2 TRP C   1      13.110 -16.048  29.213  1.00 29.50 LIG 0.04  A 
ATOM     35  CZ2 TRP C   1      12.237 -14.972  29.214  1.00 29.56 LIG 0.03  A 
ATOM     36  CD2 TRP C   1      14.489 -15.905  28.934  1.00 28.41 LIG-0.00  A 
ATOM     37  CH2 TRP C   1      12.742 -13.754  28.884  1.00 29.15 LIG 0.00  A 
ATOM     38  CZ3 TRP C   1      14.111 -13.582  28.594  1.00 29.71 LIG 0.00  A 
ATOM     39  CE3 TRP C   1      14.978 -14.643  28.615  1.00 28.71 LIG 0.01  A 
ENDBRANCH 29 30
ENDBRANCH 24 29
ENDBRANCH 1 24
TORSDOF 12
ENDMDL
MODEL 8
USER: ADFR SOLUTION from run 171
USER: SCORE 15.525331 LL:  -1.989 LR: -13.739 RR:   0.000 FEB: -10.159
USER: RMSD 1.988263
USER: SEED 170
USER: STATUS no improvement in best in 8 clusters for 5 generations
USER: GENES 14
USER: genes 0 Translation |==|  0.53626 0.61190 0.40501
USER: genes 1 Rotation |==|  0.61634 0.43817 0.55447 0.97924
USER: genes 2 Torsion [C]-N--CA-[C] |==|  0.69444
USER: genes 3 Torsion [N]-CA--C-[N] |==|  0.31383
USER: genes 4 Torsion [C]-N--CA-[CB] |==|  0.49097
USER: genes 5 Torsion [N]-CA--CB-[CG] |==|  0.70050
USER: genes 6 Torsion [CA]-CB--CG-[CD2] |==|  0.80527
USER: genes 7 Torsion [N]-CA--C-[O] |==|  0.90594
USER: genes 8 Torsion [N]-CA--CB-[CG] |==|  0.78569
USER: genes 9 Torsion [CA]-CB--CG-[CD1] |==|  0.56665
USER: genes 10 Torsion [N]-C--CA-[N] |==|  0.54591
USER: genes 11 Torsion [C]-CA--N-[H3] |==|  0.18043
USER: genes 12 Torsion [C]-CA--CB-[CG] |==|  0.49673
USER: genes 13 Torsion [CA]-CB--CG-[CD2] |==|  0.88649
ROOT
ATOM      1  C   TRP C   1      19.245 -17.488  29.277  1.00 34.42 LIG 0.25  C 
ATOM      2 O    TRP C   1      20.053 -17.815  28.413  1.00 41.57 LIG-0.27  OA
ATOM      3  N   LEU C   2      19.506 -17.492  30.577  1.00 34.28 LIG-0.35  N 
ATOM      4 H    LEU C   2      19.012 -17.086  31.153  1.00 34.28 LIG 0.16  HD
ENDROOT
BRANCH 3 5
ATOM      5  CA  LEU C   2      20.653 -18.180  31.175  1.00 43.88 LIG 0.18  C 
BRANCH 5 6
ATOM      6  C   LEU C   2      20.270 -19.443  32.028  1.00 50.68 LIG 0.24  C 
ATOM      7 O    LEU C   2      19.636 -19.379  33.120  1.00 38.43 LIG-0.27  OA
ATOM      8  N   PHE C   3      20.670 -20.615  31.539  1.00 52.67 LIG-0.35  N 
ATOM      9 H    PHE C   3      21.106 -20.715  30.805  1.00 52.67 LIG 0.16  HD
BRANCH 8 10
ATOM     10  CA  PHE C   3      20.375 -21.857  32.260  1.00 63.47 LIG 0.17  C 
BRANCH 10 11
ATOM     11  CB  PHE C   3      20.859 -23.083  31.473  1.00 59.49 LIG 0.07  C 
BRANCH 11 12
ATOM     12  CG  PHE C   3      19.743 -23.890  30.867  0.00 60.89 LIG-0.06  A 
ATOM     13  CD1 PHE C   3      19.541 -23.899  29.499  0.00 60.45 LIG 0.01  A 
ATOM     14  CE1 PHE C   3      18.503 -24.628  28.942  0.00 60.97 LIG 0.00  A 
ATOM     15  CZ  PHE C   3      17.669 -25.363  29.744  0.00 59.40 LIG 0.00  A 
ATOM     16  CE2 PHE C   3      17.857 -25.367  31.107  0.00 59.26 LIG 0.00  A 
ATOM     17  CD2 PHE C   3      18.889 -24.632  31.666  0.00 60.74 LIG 0.01  A 
ENDBRANCH 11 12
ENDBRANCH 10 11
BRANCH 10 18
ATOM     18  C   PHE C   3      20.974 -21.858  33.674  1.00 72.73 LIG 0.22  C 
ATOM     19 O    PHE C   3      22.046 -21.298  33.921  1.00 72.69 LIG-0.29  OA
ENDBRANCH 10 18
ENDBRANCH 8 10
ENDBRANCH 5 6
BRANCH 5 20
ATOM     20  CB  LEU C   2      21.406 -17.156  32.026  1.00 36.13 LIG 0.04  C 
BRANCH 20 21
ATOM     21  CG  LEU C   2      22.303 -16.130  31.348  1.00 47.78 LIG-0.02  C 
ATOM     22  CD2 LEU C   2      22.933 -16.755  30.149  1.00 53.75 LIG 0.01  C 
ATOM     23  CD1 LEU C   2      23.370 -15.629  32.313  1.00 57.03 LIG 0.01  C 
ENDBRANCH 20 21
ENDBRANCH 5 20
ENDBRANCH 3 5
BRANCH 1 24
ATOM     24  CA  TRP C   1      17.848 -17.049  28.921  1.00 30.44 LIG 0.28  C 
BRANCH 24 25
ATOM     25  N   TRP C   1      17.535 -17.453  27.530  1.00 30.96 LIG-0.07  N 
ATOM     26 H3   TRP C   1      17.523 -18.341  27.474  1.00 30.96 LIG 0.28  HD
ATOM     27 H1   TRP C   1      16.738 -17.130  27.299  1.00 30.96 LIG 0.28  HD
ATOM     28 H2   TRP C   1      18.156 -17.129  26.980  1.00 30.96 LIG 0.28  HD
ENDBRANCH 24 25
BRANCH 24 29
ATOM     29  CB  TRP C   1      16.870 -17.714  29.887  1.00 29.47 LIG 0.08  C 
BRANCH 29 30
ATOM     30  CG  TRP C   1      15.465 -17.362  29.684  1.00 32.35 LIG-0.03  A 
ATOM     31  CD1 TRP C   1      14.379 -18.206  29.711  1.00 34.00 LIG 0.10  A 
ATOM     32  NE1 TRP C   1      13.232 -17.504  29.457  1.00 34.62 LIG-0.36  N 
ATOM     33 HE1  TRP C   1      12.437 -17.833  29.440  1.00 34.62 LIG 0.17  HD
ATOM     34  CE2 TRP C   1      13.555 -16.191  29.234  1.00 29.50 LIG 0.04  A 
ATOM     35  CZ2 TRP C   1      12.740 -15.103  28.969  1.00 29.56 LIG 0.03  A 
ATOM     36  CD2 TRP C   1      14.957 -16.070  29.380  1.00 28.41 LIG-0.00  A 
ATOM     37  CH2 TRP C   1      13.338 -13.895  28.800  1.00 29.15 LIG 0.00  A 
ATOM     38  CZ3 TRP C   1      14.734 -13.745  28.933  1.00 29.71 LIG 0.00  A 
ATOM     39  CE3 TRP C   1      15.539 -14.818  29.217  1.00 28.71 LIG 0.01  A 
ENDBRANCH 29 30
ENDBRANCH 24 29
ENDBRANCH 1 24
TORSDOF 12
ENDMDL
MODEL 9
USER: ADFR SOLUTION from run 10
USER: SCORE 15.797761 LL:  -2.477 LR: -13.647 RR:   0.000 FEB: -10.067
USER: RMSD 5.402618
USER: SEED 204774
USER: STATUS 1 or 2 clusters left
USER: GENES 14
USER: genes 0 Translation |==|  0.53593 0.62863 0.39743
USER: genes 1 Rotation |==|  0.92076 0.35283 0.60423 0.70109
USER: genes 2 Torsion [C]-N--CA-[C] |==|  0.19086
USER: genes 3 Torsion [N]-CA--C-[N] |==|  0.01667
USER: genes 4 Torsion [C]-N--CA-[CB] |==|  0.31243
USER: genes 5 Torsion [N]-CA--CB-[CG] |==|  0.77023
USER: genes 6 Torsion [CA]-CB--CG-[CD2] |==|  0.14557
USER: genes 7 Torsion [N]-CA--C-[O] |==|  0.95143
USER: genes 8 Torsion [N]-CA--CB-[CG] |==|  0.78629
USER: genes 9 Torsion [CA]-CB--CG-[CD1] |==|  0.23005
USER: genes 10 Torsion [N]-C--CA-[N] |==|  0.84107
USER: genes 11 Torsion [C]-CA--N-[H3] |==|  0.52591
USER: genes 12 Torsion [C]-CA--CB-[CG] |==|  0.50254
USER: genes 13 Torsion [CA]-CB--CG-[CD2] |==|  0.87711
ROOT
ATOM      1  C   TRP C   1      19.239 -17.149  29.152  1.00 34.42 LIG 0.25  C 
ATOM      2 O    TRP C   1      20.070 -16.278  29.384  1.00 41.57 LIG-0.27  OA
ATOM      3  N   LEU C   2      19.507 -18.448  29.145  1.00 34.28 LIG-0.35  N 
ATOM      4 H    LEU C   2      18.894 -19.051  29.172  1.00 34.28 LIG 0.16  HD
ENDROOT
BRANCH 3 5
ATOM      5  CA  LEU C   2      20.864 -18.999  29.091  1.00 43.88 LIG 0.18  C 
BRANCH 5 6
ATOM      6  C   LEU C   2      21.708 -18.753  30.394  1.00 50.68 LIG 0.24  C 
ATOM      7 O    LEU C   2      22.928 -19.069  30.501  1.00 38.43 LIG-0.27  OA
ATOM      8  N   PHE C   3      21.055 -18.197  31.411  1.00 52.67 LIG-0.35  N 
ATOM      9 H    PHE C   3      20.227 -17.967  31.393  1.00 52.67 LIG 0.16  HD
BRANCH 8 10
ATOM     10  CA  PHE C   3      21.745 -17.932  32.677  1.00 63.47 LIG 0.17  C 
BRANCH 10 11
ATOM     11  CB  PHE C   3      21.886 -16.425  32.928  1.00 59.49 LIG 0.07  C 
BRANCH 11 12
ATOM     12  CG  PHE C   3      23.062 -15.805  32.222  0.00 60.89 LIG-0.06  A 
ATOM     13  CD1 PHE C   3      23.976 -15.034  32.918  0.00 60.45 LIG 0.01  A 
ATOM     14  CE1 PHE C   3      25.048 -14.448  32.266  0.00 60.97 LIG 0.00  A 
ATOM     15  CZ  PHE C   3      25.224 -14.638  30.920  0.00 59.40 LIG 0.00  A 
ATOM     16  CE2 PHE C   3      24.326 -15.404  30.213  0.00 59.26 LIG 0.00  A 
ATOM     17  CD2 PHE C   3      23.249 -15.983  30.862  0.00 60.74 LIG 0.01  A 
ENDBRANCH 11 12
ENDBRANCH 10 11
BRANCH 10 18
ATOM     18  C   PHE C   3      21.044 -18.609  33.866  1.00 72.73 LIG 0.22  C 
ATOM     19 O    PHE C   3      19.879 -19.008  33.785  1.00 72.69 LIG-0.29  OA
ENDBRANCH 10 18
ENDBRANCH 8 10
ENDBRANCH 5 6
BRANCH 5 20
ATOM     20  CB  LEU C   2      21.556 -18.390  27.870  1.00 36.13 LIG 0.04  C 
BRANCH 20 21
ATOM     21  CG  LEU C   2      21.223 -18.912  26.480  1.00 47.78 LIG-0.02  C 
ATOM     22  CD2 LEU C   2      22.374 -18.637  25.571  1.00 53.75 LIG 0.01  C 
ATOM     23  CD1 LEU C   2      19.954 -18.257  25.950  1.00 57.03 LIG 0.01  C 
ENDBRANCH 20 21
ENDBRANCH 5 20
ENDBRANCH 3 5
BRANCH 1 24
ATOM     24  CA  TRP C   1      17.805 -16.806  28.838  1.00 30.44 LIG 0.28  C 
BRANCH 24 25
ATOM     25  N   TRP C   1      17.434 -17.366  27.517  1.00 30.96 LIG-0.07  N 
ATOM     26 H3   TRP C   1      16.637 -17.051  27.274  1.00 30.96 LIG 0.28  HD
ATOM     27 H1   TRP C   1      18.043 -17.131  26.912  1.00 30.96 LIG 0.28  HD
ATOM     28 H2   TRP C   1      17.397 -18.254  27.571  1.00 30.96 LIG 0.28  HD
ENDBRANCH 24 25
BRANCH 24 29
ATOM     29  CB  TRP C   1      16.914 -17.404  29.925  1.00 29.47 LIG 0.08  C 
BRANCH 29 30
ATOM     30  CG  TRP C   1      15.481 -17.171  29.746  1.00 32.35 LIG-0.03  A 
ATOM     31  CD1 TRP C   1      14.463 -18.089  29.868  1.00 34.00 LIG 0.10  A 
ATOM     32  NE1 TRP C   1      13.260 -17.493  29.605  1.00 34.62 LIG-0.36  N 
ATOM     33 HE1  TRP C   1      12.492 -17.880  29.638  1.00 34.62 LIG 0.17  HD
ATOM     34  CE2 TRP C   1      13.476 -16.180  29.282  1.00 29.50 LIG 0.04  A 
ATOM     35  CZ2 TRP C   1      12.573 -15.176  28.971  1.00 29.56 LIG 0.03  A 
ATOM     36  CD2 TRP C   1      14.868 -15.945  29.372  1.00 28.41 LIG-0.00  A 
ATOM     37  CH2 TRP C   1      13.073 -13.942  28.699  1.00 29.15 LIG 0.00  A 
ATOM     38  CZ3 TRP C   1      14.457 -13.681  28.774  1.00 29.71 LIG 0.00  A 
ATOM     39  CE3 TRP C   1      15.348 -14.668  29.103  1.00 28.71 LIG 0.01  A 
ENDBRANCH 29 30
ENDBRANCH 24 29
ENDBRANCH 1 24
TORSDOF 12
ENDMDL
MODEL 10
USER: ADFR SOLUTION from run 5
USER: SCORE 14.766247 LL:  -2.087 LR: -13.612 RR:   0.000 FEB: -10.032
USER: RMSD 6.106138
USER: SEED 840983
USER: STATUS no improvement in best in 12 clusters for 5 generations
USER: GENES 14
USER: genes 0 Translation |==|  0.52158 0.61691 0.41593
USER: genes 1 Rotation |==|  0.62715 0.40458 0.59087 0.96526
USER: genes 2 Torsion [C]-N--CA-[C] |==|  0.20595
USER: genes 3 Torsion [N]-CA--C-[N] |==|  0.42280
USER: genes 4 Torsion [C]-N--CA-[CB] |==|  0.31076
USER: genes 5 Torsion [N]-CA--CB-[CG] |==|  0.63862
USER: genes 6 Torsion [CA]-CB--CG-[CD2] |==|  0.94875
USER: genes 7 Torsion [N]-CA--C-[O] |==|  0.99501
USER: genes 8 Torsion [N]-CA--CB-[CG] |==|  0.59232
USER: genes 9 Torsion [CA]-CB--CG-[CD1] |==|  0.07464
USER: genes 10 Torsion [N]-C--CA-[N] |==|  0.55365
USER: genes 11 Torsion [C]-CA--N-[H3] |==|  0.51834
USER: genes 12 Torsion [C]-CA--CB-[CG] |==|  0.44820
USER: genes 13 Torsion [CA]-CB--CG-[CD2] |==|  0.92437
ROOT
ATOM      1  C   TRP C   1      18.948 -17.387  29.457  1.00 34.42 LIG 0.25  C 
ATOM      2 O    TRP C   1      19.918 -17.566  28.728  1.00 41.57 LIG-0.27  OA
ATOM      3  N   LEU C   2      18.995 -17.440  30.781  1.00 34.28 LIG-0.35  N 
ATOM      4 H    LEU C   2      18.368 -17.129  31.282  1.00 34.28 LIG 0.16  HD
ENDROOT
BRANCH 3 5
ATOM      5  CA  LEU C   2      20.107 -18.026  31.534  1.00 43.88 LIG 0.18  C 
BRANCH 5 6
ATOM      6  C   LEU C   2      21.405 -17.142  31.554  1.00 50.68 LIG 0.24  C 
ATOM      7 O    LEU C   2      21.714 -16.339  30.627  1.00 38.43 LIG-0.27  OA
ATOM      8  N   PHE C   3      22.193 -17.294  32.616  1.00 52.67 LIG-0.35  N 
ATOM      9 H    PHE C   3      22.032 -17.827  33.271  1.00 52.67 LIG 0.16  HD
BRANCH 8 10
ATOM     10  CA  PHE C   3      23.435 -16.524  32.732  1.00 63.47 LIG 0.17  C 
BRANCH 10 11
ATOM     11  CB  PHE C   3      23.349 -15.500  33.871  1.00 59.49 LIG 0.07  C 
BRANCH 11 12
ATOM     12  CG  PHE C   3      23.761 -14.110  33.465  0.00 60.89 LIG-0.06  A 
ATOM     13  CD1 PHE C   3      23.386 -13.014  34.220  0.00 60.45 LIG 0.01  A 
ATOM     14  CE1 PHE C   3      23.750 -11.733  33.837  0.00 60.97 LIG 0.00  A 
ATOM     15  CZ  PHE C   3      24.502 -11.540  32.708  0.00 59.40 LIG 0.00  A 
ATOM     16  CE2 PHE C   3      24.886 -12.619  31.946  0.00 59.26 LIG 0.00  A 
ATOM     17  CD2 PHE C   3      24.515 -13.899  32.323  0.00 60.74 LIG 0.01  A 
ENDBRANCH 11 12
ENDBRANCH 10 11
BRANCH 10 18
ATOM     18  C   PHE C   3      24.659 -17.434  32.922  1.00 72.73 LIG 0.22  C 
ATOM     19 O    PHE C   3      24.546 -18.660  32.997  1.00 72.69 LIG-0.29  OA
ENDBRANCH 10 18
ENDBRANCH 8 10
ENDBRANCH 5 6
BRANCH 5 20
ATOM     20  CB  LEU C   2      20.393 -19.401  30.928  1.00 36.13 LIG 0.04  C 
BRANCH 20 21
ATOM     21  CG  LEU C   2      20.877 -20.532  31.824  1.00 47.78 LIG-0.02  C 
ATOM     22  CD2 LEU C   2      20.377 -21.829  31.282  1.00 53.75 LIG 0.01  C 
ATOM     23  CD1 LEU C   2      20.394 -20.328  33.254  1.00 57.03 LIG 0.01  C 
ENDBRANCH 20 21
ENDBRANCH 5 20
ENDBRANCH 3 5
BRANCH 1 24
ATOM     24  CA  TRP C   1      17.583 -17.091  28.891  1.00 30.44 LIG 0.28  C 
BRANCH 24 25
ATOM     25  N   TRP C   1      17.529 -17.504  27.469  1.00 30.96 LIG-0.07  N 
ATOM     26 H3   TRP C   1      16.757 -17.241  27.113  1.00 30.96 LIG 0.28  HD
ATOM     27 H1   TRP C   1      18.204 -17.129  27.025  1.00 30.96 LIG 0.28  HD
ATOM     28 H2   TRP C   1      17.595 -18.390  27.415  1.00 30.96 LIG 0.28  HD
ENDBRANCH 24 25
BRANCH 24 29
ATOM     29  CB  TRP C   1      16.544 -17.867  29.698  1.00 29.47 LIG 0.08  C 
BRANCH 29 30
ATOM     30  CG  TRP C   1      15.172 -17.379  29.570  1.00 32.35 LIG-0.03  A 
ATOM     31  CD1 TRP C   1      14.011 -18.110  29.679  1.00 34.00 LIG 0.10  A 
ATOM     32  NE1 TRP C   1      12.926 -17.301  29.478  1.00 34.62 LIG-0.36  N 
ATOM     33 HE1  TRP C   1      12.103 -17.549  29.515  1.00 34.62 LIG 0.17  HD
ATOM     34  CE2 TRP C   1      13.363 -16.031  29.208  1.00 29.50 LIG 0.04  A 
ATOM     35  CZ2 TRP C   1      12.645 -14.871  28.969  1.00 29.56 LIG 0.03  A 
ATOM     36  CD2 TRP C   1      14.777 -16.048  29.270  1.00 28.41 LIG-0.00  A 
ATOM     37  CH2 TRP C   1      13.349 -13.732  28.740  1.00 29.15 LIG 0.00  A 
ATOM     38  CZ3 TRP C   1      14.758 -13.720  28.787  1.00 29.71 LIG 0.00  A 
ATOM     39  CE3 TRP C   1      15.468 -14.863  29.046  1.00 28.71 LIG 0.01  A 
ENDBRANCH 29 30
ENDBRANCH 24 29
ENDBRANCH 1 24
TORSDOF 12
ENDMDL
MODEL 11
USER: ADFR SOLUTION from run 185
USER: SCORE 15.522822 LL:  -2.275 LR: -13.547 RR:   0.000 FEB:  -9.968
USER: RMSD 3.701927
USER: SEED 184
USER: STATUS no improvement in best in 13 clusters for 5 generations
USER: GENES 14
USER: genes 0 Translation |==|  0.52272 0.61923 0.41007
USER: genes 1 Rotation |==|  0.86612 0.34744 0.62036 0.77964
USER: genes 2 Torsion [C]-N--CA-[C] |==|  0.16111
USER: genes 3 Torsion [N]-CA--C-[N] |==|  0.04580
USER: genes 4 Torsion [C]-N--CA-[CB] |==|  0.82381
USER: genes 5 Torsion [N]-CA--CB-[CG] |==|  0.85176
USER: genes 6 Torsion [CA]-CB--CG-[CD2] |==|  0.70783
USER: genes 7 Torsion [N]-CA--C-[O] |==|  0.08118
USER: genes 8 Torsion [N]-CA--CB-[CG] |==|  0.19684
USER: genes 9 Torsion [CA]-CB--CG-[CD1] |==|  0.30175
USER: genes 10 Torsion [N]-C--CA-[N] |==|  0.76440
USER: genes 11 Torsion [C]-CA--N-[H3] |==|  0.85860
USER: genes 12 Torsion [C]-CA--CB-[CG] |==|  0.47373
USER: genes 13 Torsion [CA]-CB--CG-[CD2] |==|  0.90285
ROOT
ATOM      1  C   TRP C   1      18.971 -17.340  29.360  1.00 34.42 LIG 0.25  C 
ATOM      2 O    TRP C   1      19.904 -16.546  29.296  1.00 41.57 LIG-0.27  OA
ATOM      3  N   LEU C   2      19.078 -18.575  29.830  1.00 34.28 LIG-0.35  N 
ATOM      4 H    LEU C   2      18.396 -19.051  30.049  1.00 34.28 LIG 0.16  HD
ENDROOT
BRANCH 3 5
ATOM      5  CA  LEU C   2      20.356 -19.263  30.030  1.00 43.88 LIG 0.18  C 
BRANCH 5 6
ATOM      6  C   LEU C   2      21.343 -18.514  30.996  1.00 50.68 LIG 0.24  C 
ATOM      7 O    LEU C   2      22.578 -18.781  31.073  1.00 38.43 LIG-0.27  OA
ATOM      8  N   PHE C   3      20.801 -17.571  31.762  1.00 52.67 LIG-0.35  N 
ATOM      9 H    PHE C   3      19.969 -17.352  31.752  1.00 52.67 LIG 0.16  HD
BRANCH 8 10
ATOM     10  CA  PHE C   3      21.630 -16.817  32.707  1.00 63.47 LIG 0.17  C 
BRANCH 10 11
ATOM     11  CB  PHE C   3      22.218 -17.737  33.785  1.00 59.49 LIG 0.07  C 
BRANCH 11 12
ATOM     12  CG  PHE C   3      21.186 -18.566  34.500  0.00 60.89 LIG-0.06  A 
ATOM     13  CD1 PHE C   3      20.599 -19.652  33.877  0.00 60.45 LIG 0.01  A 
ATOM     14  CE1 PHE C   3      19.636 -20.406  34.528  0.00 60.97 LIG 0.00  A 
ATOM     15  CZ  PHE C   3      19.262 -20.089  35.808  0.00 59.40 LIG 0.00  A 
ATOM     16  CE2 PHE C   3      19.837 -19.013  36.444  0.00 59.26 LIG 0.00  A 
ATOM     17  CD2 PHE C   3      20.794 -18.254  35.791  0.00 60.74 LIG 0.01  A 
ENDBRANCH 11 12
ENDBRANCH 10 11
BRANCH 10 18
ATOM     18  C   PHE C   3      22.749 -16.039  31.998  1.00 72.73 LIG 0.22  C 
ATOM     19 O    PHE C   3      22.616 -15.629  30.842  1.00 72.69 LIG-0.29  OA
ENDBRANCH 10 18
ENDBRANCH 8 10
ENDBRANCH 5 6
BRANCH 5 20
ATOM     20  CB  LEU C   2      20.989 -19.460  28.651  1.00 36.13 LIG 0.04  C 
BRANCH 20 21
ATOM     21  CG  LEU C   2      21.536 -18.257  27.896  1.00 47.78 LIG-0.02  C 
ATOM     22  CD2 LEU C   2      20.983 -18.263  26.510  1.00 53.75 LIG 0.01  C 
ATOM     23  CD1 LEU C   2      23.058 -18.289  27.865  1.00 57.03 LIG 0.01  C 
ENDBRANCH 20 21
ENDBRANCH 5 20
ENDBRANCH 3 5
BRANCH 1 24
ATOM     24  CA  TRP C   1      17.589 -16.968  28.890  1.00 30.44 LIG 0.28  C 
BRANCH 24 25
ATOM     25  N   TRP C   1      17.398 -17.417  27.491  1.00 30.96 LIG-0.07  N 
ATOM     26 H3   TRP C   1      18.078 -17.132  26.992  1.00 30.96 LIG 0.28  HD
ATOM     27 H1   TRP C   1      17.364 -18.306  27.466  1.00 30.96 LIG 0.28  HD
ATOM     28 H2   TRP C   1      16.636 -17.083  27.173  1.00 30.96 LIG 0.28  HD
ENDBRANCH 24 25
BRANCH 24 29
ATOM     29  CB  TRP C   1      16.567 -17.649  29.798  1.00 29.47 LIG 0.08  C 
BRANCH 29 30
ATOM     30  CG  TRP C   1      15.183 -17.216  29.606  1.00 32.35 LIG-0.03  A 
ATOM     31  CD1 TRP C   1      14.048 -17.990  29.675  1.00 34.00 LIG 0.10  A 
ATOM     32  NE1 TRP C   1      12.942 -17.225  29.418  1.00 34.62 LIG-0.36  N 
ATOM     33 HE1  TRP C   1      12.129 -17.504  29.423  1.00 34.62 LIG 0.17  HD
ATOM     34  CE2 TRP C   1      13.342 -15.942  29.151  1.00 29.50 LIG 0.04  A 
ATOM     35  CZ2 TRP C   1      12.591 -14.813  28.867  1.00 29.56 LIG 0.03  A 
ATOM     36  CD2 TRP C   1      14.751 -15.904  29.272  1.00 28.41 LIG-0.00  A 
ATOM     37  CH2 TRP C   1      13.260 -13.650  28.653  1.00 29.15 LIG 0.00  A 
ATOM     38  CZ3 TRP C   1      14.665 -13.584  28.760  1.00 29.71 LIG 0.00  A 
ATOM     39  CE3 TRP C   1      15.407 -14.695  29.063  1.00 28.71 LIG 0.01  A 
ENDBRANCH 29 30
ENDBRANCH 24 29
ENDBRANCH 1 24
TORSDOF 12
ENDMDL
MODEL 12
USER: ADFR SOLUTION from run 99
USER: SCORE 14.722144 LL:  -2.290 LR: -13.514 RR:   0.000 FEB:  -9.934
USER: RMSD 6.290884
USER: SEED 98
USER: STATUS no improvement in best in 11 clusters for 5 generations
USER: GENES 14
USER: genes 0 Translation |==|  0.54287 0.61762 0.40793
USER: genes 1 Rotation |==|  0.36542 0.49300 0.51258 0.98133
USER: genes 2 Torsion [C]-N--CA-[C] |==|  0.22541
USER: genes 3 Torsion [N]-CA--C-[N] |==|  0.32791
USER: genes 4 Torsion [C]-N--CA-[CB] |==|  0.45301
USER: genes 5 Torsion [N]-CA--CB-[CG] |==|  0.08526
USER: genes 6 Torsion [CA]-CB--CG-[CD2] |==|  0.12659
USER: genes 7 Torsion [N]-CA--C-[O] |==|  0.99753
USER: genes 8 Torsion [N]-CA--CB-[CG] |==|  0.55201
USER: genes 9 Torsion [CA]-CB--CG-[CD1] |==|  0.04468
USER: genes 10 Torsion [N]-C--CA-[N] |==|  0.37487
USER: genes 11 Torsion [C]-CA--N-[H3] |==|  0.17279
USER: genes 12 Torsion [C]-CA--CB-[CG] |==|  0.46347
USER: genes 13 Torsion [CA]-CB--CG-[CD2] |==|  0.90096
ROOT
ATOM      1  C   TRP C   1      19.379 -17.372  29.325  1.00 34.42 LIG 0.25  C 
ATOM      2 O    TRP C   1      19.910 -18.464  29.146  1.00 41.57 LIG-0.27  OA
ATOM      3  N   LEU C   2      19.935 -16.379  30.005  1.00 34.28 LIG-0.35  N 
ATOM      4 H    LEU C   2      19.650 -15.569  29.964  1.00 34.28 LIG 0.16  HD
ENDROOT
BRANCH 3 5
ATOM      5  CA  LEU C   2      21.088 -16.547  30.895  1.00 43.88 LIG 0.18  C 
BRANCH 5 6
ATOM      6  C   LEU C   2      22.472 -16.582  30.152  1.00 50.68 LIG 0.24  C 
ATOM      7 O    LEU C   2      22.789 -17.475  29.313  1.00 38.43 LIG-0.27  OA
ATOM      8  N   PHE C   3      23.324 -15.610  30.468  1.00 52.67 LIG-0.35  N 
ATOM      9 H    PHE C   3      23.161 -14.983  31.033  1.00 52.67 LIG 0.16  HD
BRANCH 8 10
ATOM     10  CA  PHE C   3      24.648 -15.554  29.842  1.00 63.47 LIG 0.17  C 
BRANCH 10 11
ATOM     11  CB  PHE C   3      25.286 -14.169  30.018  1.00 59.49 LIG 0.07  C 
BRANCH 11 12
ATOM     12  CG  PHE C   3      24.874 -13.472  31.286  0.00 60.89 LIG-0.06  A 
ATOM     13  CD1 PHE C   3      24.511 -12.137  31.271  0.00 60.45 LIG 0.01  A 
ATOM     14  CE1 PHE C   3      24.148 -11.490  32.441  0.00 60.97 LIG 0.00  A 
ATOM     15  CZ  PHE C   3      24.131 -12.173  33.629  0.00 59.40 LIG 0.00  A 
ATOM     16  CE2 PHE C   3      24.486 -13.501  33.662  0.00 59.26 LIG 0.00  A 
ATOM     17  CD2 PHE C   3      24.857 -14.147  32.495  0.00 60.74 LIG 0.01  A 
ENDBRANCH 11 12
ENDBRANCH 10 11
BRANCH 10 18
ATOM     18  C   PHE C   3      25.585 -16.647  30.378  1.00 72.73 LIG 0.22  C 
ATOM     19 O    PHE C   3      25.218 -17.442  31.247  1.00 72.69 LIG-0.29  OA
ENDBRANCH 10 18
ENDBRANCH 8 10
ENDBRANCH 5 6
BRANCH 5 20
ATOM     20  CB  LEU C   2      20.865 -17.832  31.694  1.00 36.13 LIG 0.04  C 
BRANCH 20 21
ATOM     21  CG  LEU C   2      21.644 -18.063  32.980  1.00 47.78 LIG-0.02  C 
ATOM     22  CD2 LEU C   2      20.725 -18.631  34.009  1.00 53.75 LIG 0.01  C 
ATOM     23  CD1 LEU C   2      22.261 -16.761  33.475  1.00 57.03 LIG 0.01  C 
ENDBRANCH 20 21
ENDBRANCH 5 20
ENDBRANCH 3 5
BRANCH 1 24
ATOM     24  CA  TRP C   1      18.010 -17.063  28.777  1.00 30.44 LIG 0.28  C 
BRANCH 24 25
ATOM     25  N   TRP C   1      17.918 -17.523  27.371  1.00 30.96 LIG-0.07  N 
ATOM     26 H3   TRP C   1      18.026 -18.407  27.340  1.00 30.96 LIG 0.28  HD
ATOM     27 H1   TRP C   1      17.119 -17.311  27.040  1.00 30.96 LIG 0.28  HD
ATOM     28 H2   TRP C   1      18.553 -17.129  26.888  1.00 30.96 LIG 0.28  HD
ENDBRANCH 24 25
BRANCH 24 29
ATOM     29  CB  TRP C   1      16.970 -17.788  29.630  1.00 29.47 LIG 0.08  C 
BRANCH 29 30
ATOM     30  CG  TRP C   1      15.589 -17.356  29.419  1.00 32.35 LIG-0.03  A 
ATOM     31  CD1 TRP C   1      14.459 -18.142  29.414  1.00 34.00 LIG 0.10  A 
ATOM     32  NE1 TRP C   1      13.355 -17.374  29.164  1.00 34.62 LIG-0.36  N 
ATOM     33 HE1  TRP C   1      12.544 -17.660  29.131  1.00 34.62 LIG 0.17  HD
ATOM     34  CE2 TRP C   1      13.750 -16.076  28.976  1.00 29.50 LIG 0.04  A 
ATOM     35  CZ2 TRP C   1      12.996 -14.941  28.727  1.00 29.56 LIG 0.03  A 
ATOM     36  CD2 TRP C   1      15.154 -16.033  29.141  1.00 28.41 LIG-0.00  A 
ATOM     37  CH2 TRP C   1      13.660 -13.763  28.594  1.00 29.15 LIG 0.00  A 
ATOM     38  CZ3 TRP C   1      15.060 -13.690  28.746  1.00 29.71 LIG 0.00  A 
ATOM     39  CE3 TRP C   1      15.803 -14.810  29.014  1.00 28.71 LIG 0.01  A 
ENDBRANCH 29 30
ENDBRANCH 24 29
ENDBRANCH 1 24
TORSDOF 12
ENDMDL
MODEL 13
USER: ADFR SOLUTION from run 30
USER: SCORE 14.536953 LL:  -2.243 LR: -13.384 RR:   0.000 FEB:  -9.804
USER: RMSD 6.088207
USER: SEED 29
USER: STATUS no improvement in best in 12 clusters for 5 generations
USER: GENES 14
USER: genes 0 Translation |==|  0.52203 0.60973 0.40997
USER: genes 1 Rotation |==|  0.17918 0.59237 0.44147 0.86759
USER: genes 2 Torsion [C]-N--CA-[C] |==|  0.20854
USER: genes 3 Torsion [N]-CA--C-[N] |==|  0.31474
USER: genes 4 Torsion [C]-N--CA-[CB] |==|  0.47547
USER: genes 5 Torsion [N]-CA--CB-[CG] |==|  0.07584
USER: genes 6 Torsion [CA]-CB--CG-[CD2] |==|  0.65388
USER: genes 7 Torsion [N]-CA--C-[O] |==|  0.90749
USER: genes 8 Torsion [N]-CA--CB-[CG] |==|  0.46562
USER: genes 9 Torsion [CA]-CB--CG-[CD1] |==|  0.19779
USER: genes 10 Torsion [N]-C--CA-[N] |==|  0.20879
USER: genes 11 Torsion [C]-CA--N-[H3] |==|  0.85307
USER: genes 12 Torsion [C]-CA--CB-[CG] |==|  0.46962
USER: genes 13 Torsion [CA]-CB--CG-[CD2] |==|  0.91336
ROOT
ATOM      1  C   TRP C   1      18.957 -17.532  29.358  1.00 34.42 LIG 0.25  C 
ATOM      2 O    TRP C   1      19.123 -18.516  30.071  1.00 41.57 LIG-0.27  OA
ATOM      3  N   LEU C   2      19.940 -16.749  28.934  1.00 34.28 LIG-0.35  N 
ATOM      4 H    LEU C   2      19.843 -16.186  28.290  1.00 34.28 LIG 0.16  HD
ENDROOT
BRANCH 3 5
ATOM      5  CA  LEU C   2      21.289 -16.754  29.505  1.00 43.88 LIG 0.18  C 
BRANCH 5 6
ATOM      6  C   LEU C   2      22.160 -17.992  29.084  1.00 50.68 LIG 0.24  C 
ATOM      7 O    LEU C   2      21.908 -19.177  29.450  1.00 38.43 LIG-0.27  OA
ATOM      8  N   PHE C   3      23.213 -17.726  28.316  1.00 52.67 LIG-0.35  N 
ATOM      9 H    PHE C   3      23.432 -16.940  28.042  1.00 52.67 LIG 0.16  HD
BRANCH 8 10
ATOM     10  CA  PHE C   3      24.099 -18.806  27.872  1.00 63.47 LIG 0.17  C 
BRANCH 10 11
ATOM     11  CB  PHE C   3      25.107 -18.305  26.830  1.00 59.49 LIG 0.07  C 
BRANCH 11 12
ATOM     12  CG  PHE C   3      25.427 -16.840  26.956  0.00 60.89 LIG-0.06  A 
ATOM     13  CD1 PHE C   3      25.883 -16.318  28.153  0.00 60.45 LIG 0.01  A 
ATOM     14  CE1 PHE C   3      26.162 -14.967  28.276  0.00 60.97 LIG 0.00  A 
ATOM     15  CZ  PHE C   3      26.000 -14.130  27.202  0.00 59.40 LIG 0.00  A 
ATOM     16  CE2 PHE C   3      25.550 -14.632  26.003  0.00 59.26 LIG 0.00  A 
ATOM     17  CD2 PHE C   3      25.263 -15.982  25.882  0.00 60.74 LIG 0.01  A 
ENDBRANCH 11 12
ENDBRANCH 10 11
BRANCH 10 18
ATOM     18  C   PHE C   3      24.832 -19.468  29.050  1.00 72.73 LIG 0.22  C 
ATOM     19 O    PHE C   3      25.168 -18.822  30.046  1.00 72.69 LIG-0.29  OA
ENDBRANCH 10 18
ENDBRANCH 8 10
ENDBRANCH 5 6
BRANCH 5 20
ATOM     20  CB  LEU C   2      21.141 -16.684  31.026  1.00 36.13 LIG 0.04  C 
BRANCH 20 21
ATOM     21  CG  LEU C   2      22.349 -16.955  31.912  1.00 47.78 LIG-0.02  C 
ATOM     22  CD2 LEU C   2      21.886 -17.137  33.319  1.00 53.75 LIG 0.01  C 
ATOM     23  CD1 LEU C   2      23.350 -15.811  31.821  1.00 57.03 LIG 0.01  C 
ENDBRANCH 20 21
ENDBRANCH 5 20
ENDBRANCH 3 5
BRANCH 1 24
ATOM     24  CA  TRP C   1      17.584 -17.114  28.900  1.00 30.44 LIG 0.28  C 
BRANCH 24 25
ATOM     25  N   TRP C   1      17.405 -17.465  27.471  1.00 30.96 LIG-0.07  N 
ATOM     26 H3   TRP C   1      18.079 -17.129  26.996  1.00 30.96 LIG 0.28  HD
ATOM     27 H1   TRP C   1      17.392 -18.351  27.382  1.00 30.96 LIG 0.28  HD
ATOM     28 H2   TRP C   1      16.636 -17.127  27.177  1.00 30.96 LIG 0.28  HD
ENDBRANCH 24 25
BRANCH 24 29
ATOM     29  CB  TRP C   1      16.545 -17.845  29.748  1.00 29.47 LIG 0.08  C 
BRANCH 29 30
ATOM     30  CG  TRP C   1      15.173 -17.361  29.597  1.00 32.35 LIG-0.03  A 
ATOM     31  CD1 TRP C   1      14.014 -18.099  29.673  1.00 34.00 LIG 0.10  A 
ATOM     32  NE1 TRP C   1      12.930 -17.293  29.457  1.00 34.62 LIG-0.36  N 
ATOM     33 HE1  TRP C   1      12.107 -17.545  29.474  1.00 34.62 LIG 0.17  HD
ATOM     34  CE2 TRP C   1      13.366 -16.018  29.211  1.00 29.50 LIG 0.04  A 
ATOM     35  CZ2 TRP C   1      12.647 -14.859  28.969  1.00 29.56 LIG 0.03  A 
ATOM     36  CD2 TRP C   1      14.778 -16.029  29.302  1.00 28.41 LIG-0.00  A 
ATOM     37  CH2 TRP C   1      13.350 -13.714  28.767  1.00 29.15 LIG 0.00  A 
ATOM     38  CZ3 TRP C   1      14.758 -13.696  28.845  1.00 29.71 LIG 0.00  A 
ATOM     39  CE3 TRP C   1      15.468 -14.838  29.107  1.00 28.71 LIG 0.01  A 
ENDBRANCH 29 30
ENDBRANCH 24 29
ENDBRANCH 1 24
TORSDOF 12
ENDMDL
MODEL 14
USER: ADFR SOLUTION from run 83
USER: SCORE 14.883293 LL:  -2.137 LR: -13.293 RR:   0.000 FEB:  -9.713
USER: RMSD 4.572021
USER: SEED 82
USER: STATUS no improvement in best in 4 clusters for 5 generations
USER: GENES 14
USER: genes 0 Translation |==|  0.51217 0.59294 0.38071
USER: genes 1 Rotation |==|  0.20913 0.77968 0.44483 0.79006
USER: genes 2 Torsion [C]-N--CA-[C] |==|  0.77208
USER: genes 3 Torsion [N]-CA--C-[N] |==|  0.07222
USER: genes 4 Torsion [C]-N--CA-[CB] |==|  0.50969
USER: genes 5 Torsion [N]-CA--CB-[CG] |==|  0.18322
USER: genes 6 Torsion [CA]-CB--CG-[CD2] |==|  0.35266
USER: genes 7 Torsion [N]-CA--C-[O] |==|  0.89170
USER: genes 8 Torsion [N]-CA--CB-[CG] |==|  0.77475
USER: genes 9 Torsion [CA]-CB--CG-[CD1] |==|  0.86060
USER: genes 10 Torsion [N]-C--CA-[N] |==|  0.14809
USER: genes 11 Torsion [C]-CA--N-[H3] |==|  0.62010
USER: genes 12 Torsion [C]-CA--CB-[CG] |==|  0.63813
USER: genes 13 Torsion [CA]-CB--CG-[CD2] |==|  0.85709
ROOT
ATOM      1  C   TRP C   1      18.757 -17.872  28.876  1.00 34.42 LIG 0.25  C 
ATOM      2 O    TRP C   1      18.796 -18.900  29.544  1.00 41.57 LIG-0.27  OA
ATOM      3  N   LEU C   2      19.562 -17.622  27.851  1.00 34.28 LIG-0.35  N 
ATOM      4 H    LEU C   2      19.407 -17.000  27.278  1.00 34.28 LIG 0.16  HD
ENDROOT
BRANCH 3 5
ATOM      5  CA  LEU C   2      20.793 -18.369  27.582  1.00 43.88 LIG 0.18  C 
BRANCH 5 6
ATOM      6  C   LEU C   2      22.031 -17.890  28.423  1.00 50.68 LIG 0.24  C 
ATOM      7 O    LEU C   2      23.230 -18.049  28.049  1.00 38.43 LIG-0.27  OA
ATOM      8  N   PHE C   3      21.752 -17.308  29.586  1.00 52.67 LIG-0.35  N 
ATOM      9 H    PHE C   3      20.957 -17.178  29.889  1.00 52.67 LIG 0.16  HD
BRANCH 8 10
ATOM     10  CA  PHE C   3      22.832 -16.831  30.455  1.00 63.47 LIG 0.17  C 
BRANCH 10 11
ATOM     11  CB  PHE C   3      22.279 -16.276  31.774  1.00 59.49 LIG 0.07  C 
BRANCH 11 12
ATOM     12  CG  PHE C   3      21.626 -17.318  32.641  0.00 60.89 LIG-0.06  A 
ATOM     13  CD1 PHE C   3      20.625 -18.129  32.137  0.00 60.45 LIG 0.01  A 
ATOM     14  CE1 PHE C   3      20.011 -19.076  32.939  0.00 60.97 LIG 0.00  A 
ATOM     15  CZ  PHE C   3      20.402 -19.232  34.244  0.00 59.40 LIG 0.00  A 
ATOM     16  CE2 PHE C   3      21.398 -18.436  34.761  0.00 59.26 LIG 0.00  A 
ATOM     17  CD2 PHE C   3      22.006 -17.483  33.962  0.00 60.74 LIG 0.01  A 
ENDBRANCH 11 12
ENDBRANCH 10 11
BRANCH 10 18
ATOM     18  C   PHE C   3      23.874 -17.927  30.730  1.00 72.73 LIG 0.22  C 
ATOM     19 O    PHE C   3      23.542 -19.101  30.914  1.00 72.69 LIG-0.29  OA
ENDBRANCH 10 18
ENDBRANCH 8 10
ENDBRANCH 5 6
BRANCH 5 20
ATOM     20  CB  LEU C   2      21.076 -18.257  26.083  1.00 36.13 LIG 0.04  C 
BRANCH 20 21
ATOM     21  CG  LEU C   2      20.344 -19.170  25.110  1.00 47.78 LIG-0.02  C 
ATOM     22  CD2 LEU C   2      18.917 -18.741  25.025  1.00 53.75 LIG 0.01  C 
ATOM     23  CD1 LEU C   2      20.441 -20.622  25.559  1.00 57.03 LIG 0.01  C 
ENDBRANCH 20 21
ENDBRANCH 5 20
ENDBRANCH 3 5
BRANCH 1 24
ATOM     24  CA  TRP C   1      17.770 -16.774  29.177  1.00 30.44 LIG 0.28  C 
BRANCH 24 25
ATOM     25  N   TRP C   1      17.011 -16.433  27.950  1.00 30.96 LIG-0.07  N 
ATOM     26 H3   TRP C   1      16.942 -15.548  27.880  1.00 30.96 LIG 0.28  HD
ATOM     27 H1   TRP C   1      17.437 -16.755  27.238  1.00 30.96 LIG 0.28  HD
ATOM     28 H2   TRP C   1      16.197 -16.792  27.996  1.00 30.96 LIG 0.28  HD
ENDBRANCH 24 25
BRANCH 24 29
ATOM     29  CB  TRP C   1      16.813 -17.265  30.260  1.00 29.47 LIG 0.08  C 
BRANCH 29 30
ATOM     30  CG  TRP C   1      15.393 -17.075  29.963  1.00 32.35 LIG-0.03  A 
ATOM     31  CD1 TRP C   1      14.400 -18.027  29.987  1.00 34.00 LIG 0.10  A 
ATOM     32  NE1 TRP C   1      13.204 -17.466  29.631  1.00 34.62 LIG-0.36  N 
ATOM     33 HE1  TRP C   1      12.450 -17.878  29.593  1.00 34.62 LIG 0.17  HD
ATOM     34  CE2 TRP C   1      13.403 -16.141  29.344  1.00 29.50 LIG 0.04  A 
ATOM     35  CZ2 TRP C   1      12.496 -15.163  28.970  1.00 29.56 LIG 0.03  A 
ATOM     36  CD2 TRP C   1      14.774 -15.864  29.555  1.00 28.41 LIG-0.00  A 
ATOM     37  CH2 TRP C   1      12.977 -13.909  28.759  1.00 29.15 LIG 0.00  A 
ATOM     38  CZ3 TRP C   1      14.340 -13.605  28.954  1.00 29.71 LIG 0.00  A 
ATOM     39  CE3 TRP C   1      15.232 -14.568  29.345  1.00 28.71 LIG 0.01  A 
ENDBRANCH 29 30
ENDBRANCH 24 29
ENDBRANCH 1 24
TORSDOF 12
ENDMDL
MODEL 15
USER: ADFR SOLUTION from run 89
USER: SCORE 14.900071 LL:  -2.167 LR: -13.265 RR:   0.000 FEB:  -9.685
USER: RMSD 2.732011
USER: SEED 88
USER: STATUS searching
USER: GENES 14
USER: genes 0 Translation |==|  0.53975 0.61278 0.37404
USER: genes 1 Rotation |==|  0.41836 0.48179 0.48065 0.99257
USER: genes 2 Torsion [C]-N--CA-[C] |==|  0.76387
USER: genes 3 Torsion [N]-CA--C-[N] |==|  0.55000
USER: genes 4 Torsion [C]-N--CA-[CB] |==|  0.22681
USER: genes 5 Torsion [N]-CA--CB-[CG] |==|  0.60224
USER: genes 6 Torsion [CA]-CB--CG-[CD2] |==|  0.94544
USER: genes 7 Torsion [N]-CA--C-[O] |==|  0.07084
USER: genes 8 Torsion [N]-CA--CB-[CG] |==|  0.55765
USER: genes 9 Torsion [CA]-CB--CG-[CD1] |==|  0.32783
USER: genes 10 Torsion [N]-C--CA-[N] |==|  0.51663
USER: genes 11 Torsion [C]-CA--N-[H3] |==|  0.34454
USER: genes 12 Torsion [C]-CA--CB-[CG] |==|  0.41027
USER: genes 13 Torsion [CA]-CB--CG-[CD2] |==|  0.33442
ROOT
ATOM      1  C   TRP C   1      19.316 -17.470  28.766  1.00 34.42 LIG 0.25  C 
ATOM      2 O    TRP C   1      19.747 -18.553  28.382  1.00 41.57 LIG-0.27  OA
ATOM      3  N   LEU C   2      19.911 -16.717  29.680  1.00 34.28 LIG-0.35  N 
ATOM      4 H    LEU C   2      19.712 -15.888  29.803  1.00 34.28 LIG 0.16  HD
ENDROOT
BRANCH 3 5
ATOM      5  CA  LEU C   2      20.963 -17.203  30.578  1.00 43.88 LIG 0.18  C 
BRANCH 5 6
ATOM      6  C   LEU C   2      20.425 -17.907  31.874  1.00 50.68 LIG 0.24  C 
ATOM      7 O    LEU C   2      19.238 -18.331  31.995  1.00 38.43 LIG-0.27  OA
ATOM      8  N   PHE C   3      21.296 -18.027  32.873  1.00 52.67 LIG-0.35  N 
ATOM      9 H    PHE C   3      22.111 -17.755  32.845  1.00 52.67 LIG 0.16  HD
BRANCH 8 10
ATOM     10  CA  PHE C   3      20.896 -18.661  34.133  1.00 63.47 LIG 0.17  C 
BRANCH 10 11
ATOM     11  CB  PHE C   3      20.959 -20.191  34.030  1.00 59.49 LIG 0.07  C 
BRANCH 11 12
ATOM     12  CG  PHE C   3      19.858 -20.891  34.779  0.00 60.89 LIG-0.06  A 
ATOM     13  CD1 PHE C   3      19.514 -22.195  34.471  0.00 60.45 LIG 0.01  A 
ATOM     14  CE1 PHE C   3      18.489 -22.835  35.148  0.00 60.97 LIG 0.00  A 
ATOM     15  CZ  PHE C   3      17.811 -22.184  36.146  0.00 59.40 LIG 0.00  A 
ATOM     16  CE2 PHE C   3      18.142 -20.888  36.468  0.00 59.26 LIG 0.00  A 
ATOM     17  CD2 PHE C   3      19.161 -20.245  35.786  0.00 60.74 LIG 0.01  A 
ENDBRANCH 11 12
ENDBRANCH 10 11
BRANCH 10 18
ATOM     18  C   PHE C   3      21.743 -18.169  35.317  1.00 72.73 LIG 0.22  C 
ATOM     19 O    PHE C   3      22.291 -17.064  35.303  1.00 72.69 LIG-0.29  OA
ENDBRANCH 10 18
ENDBRANCH 8 10
ENDBRANCH 5 6
BRANCH 5 20
ATOM     20  CB  LEU C   2      21.847 -16.006  30.934  1.00 36.13 LIG 0.04  C 
BRANCH 20 21
ATOM     21  CG  LEU C   2      23.262 -16.243  31.443  1.00 47.78 LIG-0.02  C 
ATOM     22  CD2 LEU C   2      23.392 -15.649  32.806  1.00 53.75 LIG 0.01  C 
ATOM     23  CD1 LEU C   2      24.283 -15.632  30.493  1.00 57.03 LIG 0.01  C 
ENDBRANCH 20 21
ENDBRANCH 5 20
ENDBRANCH 3 5
BRANCH 1 24
ATOM     24  CA  TRP C   1      18.035 -16.895  28.220  1.00 30.44 LIG 0.28  C 
BRANCH 24 25
ATOM     25  N   TRP C   1      17.387 -17.879  27.320  1.00 30.96 LIG-0.07  N 
ATOM     26 H3   TRP C   1      16.558 -18.038  27.602  1.00 30.96 LIG 0.28  HD
ATOM     27 H1   TRP C   1      17.362 -17.553  26.492  1.00 30.96 LIG 0.28  HD
ATOM     28 H2   TRP C   1      17.853 -18.638  27.326  1.00 30.96 LIG 0.28  HD
ENDBRANCH 24 25
BRANCH 24 29
ATOM     29  CB  TRP C   1      17.108 -16.574  29.391  1.00 29.47 LIG 0.08  C 
BRANCH 29 30
ATOM     30  CG  TRP C   1      16.233 -15.420  29.187  1.00 32.35 LIG-0.03  A 
ATOM     31  CD1 TRP C   1      16.607 -14.114  28.969  1.00 34.00 LIG 0.10  A 
ATOM     32  NE1 TRP C   1      15.498 -13.322  28.845  1.00 34.62 LIG-0.36  N 
ATOM     33 HE1  TRP C   1      15.503 -12.476  28.690  1.00 34.62 LIG 0.17  HD
ATOM     34  CE2 TRP C   1      14.380 -14.097  29.006  1.00 29.50 LIG 0.04  A 
ATOM     35  CZ2 TRP C   1      13.039 -13.754  28.937  1.00 29.56 LIG 0.03  A 
ATOM     36  CD2 TRP C   1      14.812 -15.427  29.214  1.00 28.41 LIG-0.00  A 
ATOM     37  CH2 TRP C   1      12.127 -14.743  29.128  1.00 29.15 LIG 0.00  A 
ATOM     38  CZ3 TRP C   1      12.529 -16.078  29.344  1.00 29.71 LIG 0.00  A 
ATOM     39  CE3 TRP C   1      13.855 -16.420  29.390  1.00 28.71 LIG 0.01  A 
ENDBRANCH 29 30
ENDBRANCH 24 29
ENDBRANCH 1 24
TORSDOF 12
ENDMDL
MODEL 16
USER: ADFR SOLUTION from run 53
USER: SCORE 14.493061 LL:  -2.111 LR: -13.206 RR:   0.000 FEB:  -9.626
USER: RMSD 6.112360
USER: SEED 52
USER: STATUS no improvement in best in 10 clusters for 5 generations
USER: GENES 14
USER: genes 0 Translation |==|  0.52268 0.60385 0.42745
USER: genes 1 Rotation |==|  0.58180 0.40216 0.55474 0.98035
USER: genes 2 Torsion [C]-N--CA-[C] |==|  0.17513
USER: genes 3 Torsion [N]-CA--C-[N] |==|  0.22778
USER: genes 4 Torsion [C]-N--CA-[CB] |==|  0.21356
USER: genes 5 Torsion [N]-CA--CB-[CG] |==|  0.52833
USER: genes 6 Torsion [CA]-CB--CG-[CD2] |==|  0.15280
USER: genes 7 Torsion [N]-CA--C-[O] |==|  0.02376
USER: genes 8 Torsion [N]-CA--CB-[CG] |==|  0.60133
USER: genes 9 Torsion [CA]-CB--CG-[CD1] |==|  0.70478
USER: genes 10 Torsion [N]-C--CA-[N] |==|  0.51233
USER: genes 11 Torsion [C]-CA--N-[H3] |==|  0.83705
USER: genes 12 Torsion [C]-CA--CB-[CG] |==|  0.46470
USER: genes 13 Torsion [CA]-CB--CG-[CD2] |==|  0.91467
ROOT
ATOM      1  C   TRP C   1      18.970 -17.651  29.647  1.00 34.42 LIG 0.25  C 
ATOM      2 O    TRP C   1      19.877 -18.113  28.962  1.00 41.57 LIG-0.27  OA
ATOM      3  N   LEU C   2      19.033 -17.508  30.964  1.00 34.28 LIG-0.35  N 
ATOM      4 H    LEU C   2      18.484 -17.016  31.406  1.00 34.28 LIG 0.16  HD
ENDROOT
BRANCH 3 5
ATOM      5  CA  LEU C   2      20.036 -18.165  31.807  1.00 43.88 LIG 0.18  C 
BRANCH 5 6
ATOM      6  C   LEU C   2      21.515 -17.729  31.504  1.00 50.68 LIG 0.24  C 
ATOM      7 O    LEU C   2      22.306 -18.405  30.785  1.00 38.43 LIG-0.27  OA
ATOM      8  N   PHE C   3      21.910 -16.590  32.067  1.00 52.67 LIG-0.35  N 
ATOM      9 H    PHE C   3      21.416 -16.094  32.566  1.00 52.67 LIG 0.16  HD
BRANCH 8 10
ATOM     10  CA  PHE C   3      23.274 -16.095  31.858  1.00 63.47 LIG 0.17  C 
BRANCH 10 11
ATOM     11  CB  PHE C   3      23.428 -15.461  30.469  1.00 59.49 LIG 0.07  C 
BRANCH 11 12
ATOM     12  CG  PHE C   3      24.854 -15.154  30.100  0.00 60.89 LIG-0.06  A 
ATOM     13  CD1 PHE C   3      25.224 -13.879  29.712  0.00 60.45 LIG 0.01  A 
ATOM     14  CE1 PHE C   3      26.533 -13.599  29.355  0.00 60.97 LIG 0.00  A 
ATOM     15  CZ  PHE C   3      27.483 -14.586  29.397  0.00 59.40 LIG 0.00  A 
ATOM     16  CE2 PHE C   3      27.134 -15.859  29.783  0.00 59.26 LIG 0.00  A 
ATOM     17  CD2 PHE C   3      25.824 -16.142  30.132  0.00 60.74 LIG 0.01  A 
ENDBRANCH 11 12
ENDBRANCH 10 11
BRANCH 10 18
ATOM     18  C   PHE C   3      23.699 -15.101  32.950  1.00 72.73 LIG 0.22  C 
ATOM     19 O    PHE C   3      23.005 -14.910  33.953  1.00 72.69 LIG-0.29  OA
ENDBRANCH 10 18
ENDBRANCH 8 10
ENDBRANCH 5 6
BRANCH 5 20
ATOM     20  CB  LEU C   2      19.865 -19.674  31.628  1.00 36.13 LIG 0.04  C 
BRANCH 20 21
ATOM     21  CG  LEU C   2      20.070 -20.600  32.818  1.00 47.78 LIG-0.02  C 
ATOM     22  CD2 LEU C   2      20.049 -19.790  34.071  1.00 53.75 LIG 0.01  C 
ATOM     23  CD1 LEU C   2      21.387 -21.355  32.691  1.00 57.03 LIG 0.01  C 
ENDBRANCH 20 21
ENDBRANCH 5 20
ENDBRANCH 3 5
BRANCH 1 24
ATOM     24  CA  TRP C   1      17.670 -17.202  29.032  1.00 30.44 LIG 0.28  C 
BRANCH 24 25
ATOM     25  N   TRP C   1      17.671 -17.505  27.581  1.00 30.96 LIG-0.07  N 
ATOM     26 H3   TRP C   1      18.357 -17.093  27.192  1.00 30.96 LIG 0.28  HD
ATOM     27 H1   TRP C   1      17.747 -18.384  27.461  1.00 30.96 LIG 0.28  HD
ATOM     28 H2   TRP C   1      16.909 -17.221  27.218  1.00 30.96 LIG 0.28  HD
ENDBRANCH 24 25
BRANCH 24 29
ATOM     29  CB  TRP C   1      16.526 -17.946  29.717  1.00 29.47 LIG 0.08  C 
BRANCH 29 30
ATOM     30  CG  TRP C   1      15.191 -17.416  29.441  1.00 32.35 LIG-0.03  A 
ATOM     31  CD1 TRP C   1      14.013 -18.122  29.355  1.00 34.00 LIG 0.10  A 
ATOM     32  NE1 TRP C   1      12.979 -17.274  29.063  1.00 34.62 LIG-0.36  N 
ATOM     33 HE1  TRP C   1      12.154 -17.503  28.978  1.00 34.62 LIG 0.17  HD
ATOM     34  CE2 TRP C   1      13.471 -16.003  28.927  1.00 29.50 LIG 0.04  A 
ATOM     35  CZ2 TRP C   1      12.811 -14.814  28.665  1.00 29.56 LIG 0.03  A 
ATOM     36  CD2 TRP C   1      14.863 -16.061  29.170  1.00 28.41 LIG-0.00  A 
ATOM     37  CH2 TRP C   1      13.560 -13.682  28.596  1.00 29.15 LIG 0.00  A 
ATOM     38  CZ3 TRP C   1      14.951 -13.709  28.827  1.00 29.71 LIG 0.00  A 
ATOM     39  CE3 TRP C   1      15.600 -14.883  29.109  1.00 28.71 LIG 0.01  A 
ENDBRANCH 29 30
ENDBRANCH 24 29
ENDBRANCH 1 24
TORSDOF 12
ENDMDL
MODEL 17
USER: ADFR SOLUTION from run 92
USER: SCORE 15.915957 LL:  -2.783 LR: -13.207 RR:   0.000 FEB:  -9.627
USER: RMSD 2.474145
USER: SEED 91
USER: STATUS no improvement in best in 10 clusters for 5 generations
USER: GENES 14
USER: genes 0 Translation |==|  0.53146 0.60430 0.39989
USER: genes 1 Rotation |==|  0.40985 0.52262 0.49569 0.99127
USER: genes 2 Torsion [C]-N--CA-[C] |==|  0.79705
USER: genes 3 Torsion [N]-CA--C-[N] |==|  0.46618
USER: genes 4 Torsion [C]-N--CA-[CB] |==|  0.26065
USER: genes 5 Torsion [N]-CA--CB-[CG] |==|  0.98075
USER: genes 6 Torsion [CA]-CB--CG-[CD2] |==|  0.73351
USER: genes 7 Torsion [N]-CA--C-[O] |==|  0.24170
USER: genes 8 Torsion [N]-CA--CB-[CG] |==|  0.48529
USER: genes 9 Torsion [CA]-CB--CG-[CD1] |==|  0.37245
USER: genes 10 Torsion [N]-C--CA-[N] |==|  0.39574
USER: genes 11 Torsion [C]-CA--N-[H3] |==|  0.83995
USER: genes 12 Torsion [C]-CA--CB-[CG] |==|  0.49758
USER: genes 13 Torsion [CA]-CB--CG-[CD2] |==|  0.88743
ROOT
ATOM      1  C   TRP C   1      19.148 -17.642  29.192  1.00 34.42 LIG 0.25  C 
ATOM      2 O    TRP C   1      19.544 -18.724  28.770  1.00 41.57 LIG-0.27  OA
ATOM      3  N   LEU C   2      19.865 -16.842  29.970  1.00 34.28 LIG-0.35  N 
ATOM      4 H    LEU C   2      19.662 -16.016  30.102  1.00 34.28 LIG 0.16  HD
ENDROOT
BRANCH 3 5
ATOM      5  CA  LEU C   2      21.070 -17.268  30.687  1.00 43.88 LIG 0.18  C 
BRANCH 5 6
ATOM      6  C   LEU C   2      20.788 -18.200  31.920  1.00 50.68 LIG 0.24  C 
ATOM      7 O    LEU C   2      19.636 -18.367  32.416  1.00 38.43 LIG-0.27  OA
ATOM      8  N   PHE C   3      21.850 -18.809  32.441  1.00 52.67 LIG-0.35  N 
ATOM      9 H    PHE C   3      22.653 -18.728  32.146  1.00 52.67 LIG 0.16  HD
BRANCH 8 10
ATOM     10  CA  PHE C   3      21.701 -19.694  33.601  1.00 63.47 LIG 0.17  C 
BRANCH 10 11
ATOM     11  CB  PHE C   3      21.532 -21.155  33.165  1.00 59.49 LIG 0.07  C 
BRANCH 11 12
ATOM     12  CG  PHE C   3      21.390 -21.328  31.677  0.00 60.89 LIG-0.06  A 
ATOM     13  CD1 PHE C   3      22.507 -21.385  30.864  0.00 60.45 LIG 0.01  A 
ATOM     14  CE1 PHE C   3      22.377 -21.527  29.492  0.00 60.97 LIG 0.00  A 
ATOM     15  CZ  PHE C   3      21.133 -21.628  28.925  0.00 59.40 LIG 0.00  A 
ATOM     16  CE2 PHE C   3      20.011 -21.576  29.719  0.00 59.26 LIG 0.00  A 
ATOM     17  CD2 PHE C   3      20.140 -21.425  31.090  0.00 60.74 LIG 0.01  A 
ENDBRANCH 11 12
ENDBRANCH 10 11
BRANCH 10 18
ATOM     18  C   PHE C   3      22.878 -19.559  34.580  1.00 72.73 LIG 0.22  C 
ATOM     19 O    PHE C   3      22.881 -18.707  35.472  1.00 72.69 LIG-0.29  OA
ENDBRANCH 10 18
ENDBRANCH 8 10
ENDBRANCH 5 6
BRANCH 5 20
ATOM     20  CB  LEU C   2      21.816 -16.004  31.118  1.00 36.13 LIG 0.04  C 
BRANCH 20 21
ATOM     21  CG  LEU C   2      23.055 -16.124  31.993  1.00 47.78 LIG-0.02  C 
ATOM     22  CD2 LEU C   2      22.699 -15.738  33.390  1.00 53.75 LIG 0.01  C 
ATOM     23  CD1 LEU C   2      24.175 -15.240  31.463  1.00 57.03 LIG 0.01  C 
ENDBRANCH 20 21
ENDBRANCH 5 20
ENDBRANCH 3 5
BRANCH 1 24
ATOM     24  CA  TRP C   1      17.774 -17.122  28.859  1.00 30.44 LIG 0.28  C 
BRANCH 24 25
ATOM     25  N   TRP C   1      17.434 -17.468  27.458  1.00 30.96 LIG-0.07  N 
ATOM     26 H3   TRP C   1      18.049 -17.129  26.911  1.00 30.96 LIG 0.28  HD
ATOM     27 H1   TRP C   1      17.411 -18.353  27.368  1.00 30.96 LIG 0.28  HD
ATOM     28 H2   TRP C   1      16.636 -17.129  27.254  1.00 30.96 LIG 0.28  HD
ENDBRANCH 24 25
BRANCH 24 29
ATOM     29  CB  TRP C   1      16.767 -17.763  29.811  1.00 29.47 LIG 0.08  C 
BRANCH 29 30
ATOM     30  CG  TRP C   1      15.380 -17.337  29.623  1.00 32.35 LIG-0.03  A 
ATOM     31  CD1 TRP C   1      14.254 -18.128  29.640  1.00 34.00 LIG 0.10  A 
ATOM     32  NE1 TRP C   1      13.142 -17.365  29.406  1.00 34.62 LIG-0.36  N 
ATOM     33 HE1  TRP C   1      12.332 -17.654  29.387  1.00 34.62 LIG 0.17  HD
ATOM     34  CE2 TRP C   1      13.529 -16.066  29.206  1.00 29.50 LIG 0.04  A 
ATOM     35  CZ2 TRP C   1      12.767 -14.934  28.967  1.00 29.56 LIG 0.03  A 
ATOM     36  CD2 TRP C   1      14.936 -16.017  29.347  1.00 28.41 LIG-0.00  A 
ATOM     37  CH2 TRP C   1      13.424 -13.754  28.818  1.00 29.15 LIG 0.00  A 
ATOM     38  CZ3 TRP C   1      14.826 -13.675  28.946  1.00 29.71 LIG 0.00  A 
ATOM     39  CE3 TRP C   1      15.578 -14.791  29.205  1.00 28.71 LIG 0.01  A 
ENDBRANCH 29 30
ENDBRANCH 24 29
ENDBRANCH 1 24
TORSDOF 12
ENDMDL
MODEL 18
USER: ADFR SOLUTION from run 17
USER: SCORE 15.509123 LL:  -2.458 LR: -13.189 RR:   0.000 FEB:  -9.609
USER: RMSD 3.699332
USER: SEED 16
USER: STATUS no improvement in best in 10 clusters for 5 generations
USER: GENES 14
USER: genes 0 Translation |==|  0.54071 0.60913 0.38344
USER: genes 1 Rotation |==|  0.41958 0.47323 0.47080 0.99190
USER: genes 2 Torsion [C]-N--CA-[C] |==|  0.81667
USER: genes 3 Torsion [N]-CA--C-[N] |==|  0.46549
USER: genes 4 Torsion [C]-N--CA-[CB] |==|  0.85303
USER: genes 5 Torsion [N]-CA--CB-[CG] |==|  0.77326
USER: genes 6 Torsion [CA]-CB--CG-[CD2] |==|  0.06620
USER: genes 7 Torsion [N]-CA--C-[O] |==|  0.05259
USER: genes 8 Torsion [N]-CA--CB-[CG] |==|  0.57202
USER: genes 9 Torsion [CA]-CB--CG-[CD1] |==|  0.27090
USER: genes 10 Torsion [N]-C--CA-[N] |==|  0.51485
USER: genes 11 Torsion [C]-CA--N-[H3] |==|  0.61530
USER: genes 12 Torsion [C]-CA--CB-[CG] |==|  0.41611
USER: genes 13 Torsion [CA]-CB--CG-[CD2] |==|  0.33935
ROOT
ATOM      1  C   TRP C   1      19.335 -17.544  28.921  1.00 34.42 LIG 0.25  C 
ATOM      2 O    TRP C   1      19.746 -18.639  28.549  1.00 41.57 LIG-0.27  OA
ATOM      3  N   LEU C   2      19.917 -16.814  29.863  1.00 34.28 LIG-0.35  N 
ATOM      4 H    LEU C   2      19.742 -15.980  29.981  1.00 34.28 LIG 0.16  HD
ENDROOT
BRANCH 3 5
ATOM      5  CA  LEU C   2      20.915 -17.338  30.799  1.00 43.88 LIG 0.18  C 
BRANCH 5 6
ATOM      6  C   LEU C   2      20.355 -18.414  31.798  1.00 50.68 LIG 0.24  C 
ATOM      7 O    LEU C   2      19.120 -18.628  31.969  1.00 38.43 LIG-0.27  OA
ATOM      8  N   PHE C   3      21.267 -19.097  32.485  1.00 52.67 LIG-0.35  N 
ATOM      9 H    PHE C   3      22.117 -18.990  32.410  1.00 52.67 LIG 0.16  HD
BRANCH 8 10
ATOM     10  CA  PHE C   3      20.854 -20.119  33.452  1.00 63.47 LIG 0.17  C 
BRANCH 10 11
ATOM     11  CB  PHE C   3      19.843 -19.554  34.458  1.00 59.49 LIG 0.07  C 
BRANCH 11 12
ATOM     12  CG  PHE C   3      20.478 -18.787  35.586  0.00 60.89 LIG-0.06  A 
ATOM     13  CD1 PHE C   3      19.819 -18.629  36.791  0.00 60.45 LIG 0.01  A 
ATOM     14  CE1 PHE C   3      20.395 -17.908  37.824  0.00 60.97 LIG 0.00  A 
ATOM     15  CZ  PHE C   3      21.638 -17.353  37.667  0.00 59.40 LIG 0.00  A 
ATOM     16  CE2 PHE C   3      22.310 -17.502  36.476  0.00 59.26 LIG 0.00  A 
ATOM     17  CD2 PHE C   3      21.731 -18.215  35.439  0.00 60.74 LIG 0.01  A 
ENDBRANCH 11 12
ENDBRANCH 10 11
BRANCH 10 18
ATOM     18  C   PHE C   3      20.283 -21.367  32.761  1.00 72.73 LIG 0.22  C 
ATOM     19 O    PHE C   3      20.508 -21.606  31.572  1.00 72.69 LIG-0.29  OA
ENDBRANCH 10 18
ENDBRANCH 8 10
ENDBRANCH 5 6
BRANCH 5 20
ATOM     20  CB  LEU C   2      21.502 -16.145  31.556  1.00 36.13 LIG 0.04  C 
BRANCH 20 21
ATOM     21  CG  LEU C   2      22.906 -16.240  32.135  1.00 47.78 LIG-0.02  C 
ATOM     22  CD2 LEU C   2      22.926 -15.570  33.468  1.00 53.75 LIG 0.01  C 
ATOM     23  CD1 LEU C   2      23.919 -15.595  31.197  1.00 57.03 LIG 0.01  C 
ENDBRANCH 20 21
ENDBRANCH 5 20
ENDBRANCH 3 5
BRANCH 1 24
ATOM     24  CA  TRP C   1      18.097 -16.925  28.326  1.00 30.44 LIG 0.28  C 
BRANCH 24 25
ATOM     25  N   TRP C   1      17.463 -17.877  27.385  1.00 30.96 LIG-0.07  N 
ATOM     26 H3   TRP C   1      17.188 -17.439  26.660  1.00 30.96 LIG 0.28  HD
ATOM     27 H1   TRP C   1      18.054 -18.500  27.149  1.00 30.96 LIG 0.28  HD
ATOM     28 H2   TRP C   1      16.766 -18.265  27.780  1.00 30.96 LIG 0.28  HD
ENDBRANCH 24 25
BRANCH 24 29
ATOM     29  CB  TRP C   1      17.129 -16.592  29.459  1.00 29.47 LIG 0.08  C 
BRANCH 29 30
ATOM     30  CG  TRP C   1      16.262 -15.439  29.213  1.00 32.35 LIG-0.03  A 
ATOM     31  CD1 TRP C   1      16.648 -14.142  28.964  1.00 34.00 LIG 0.10  A 
ATOM     32  NE1 TRP C   1      15.545 -13.347  28.804  1.00 34.62 LIG-0.36  N 
ATOM     33 HE1  TRP C   1      15.557 -12.506  28.627  1.00 34.62 LIG 0.17  HD
ATOM     34  CE2 TRP C   1      14.420 -14.110  28.972  1.00 29.50 LIG 0.04  A 
ATOM     35  CZ2 TRP C   1      13.083 -13.762  28.877  1.00 29.56 LIG 0.03  A 
ATOM     36  CD2 TRP C   1      14.842 -15.437  29.222  1.00 28.41 LIG-0.00  A 
ATOM     37  CH2 TRP C   1      12.162 -14.740  29.083  1.00 29.15 LIG 0.00  A 
ATOM     38  CZ3 TRP C   1      12.553 -16.070  29.341  1.00 29.71 LIG 0.00  A 
ATOM     39  CE3 TRP C   1      13.876 -16.419  29.413  1.00 28.71 LIG 0.01  A 
ENDBRANCH 29 30
ENDBRANCH 24 29
ENDBRANCH 1 24
TORSDOF 12
ENDMDL
MODEL 19
USER: ADFR SOLUTION from run 52
USER: SCORE 15.098776 LL:  -2.017 LR: -13.163 RR:   0.000 FEB:  -9.583
USER: RMSD 6.078594
USER: SEED 51
USER: STATUS no improvement in best in 7 clusters for 5 generations
USER: GENES 14
USER: genes 0 Translation |==|  0.49912 0.60691 0.44024
USER: genes 1 Rotation |==|  0.15954 0.70432 0.40392 0.78829
USER: genes 2 Torsion [C]-N--CA-[C] |==|  0.79444
USER: genes 3 Torsion [N]-CA--C-[N] |==|  0.47107
USER: genes 4 Torsion [C]-N--CA-[CB] |==|  0.84383
USER: genes 5 Torsion [N]-CA--CB-[CG] |==|  0.83360
USER: genes 6 Torsion [CA]-CB--CG-[CD2] |==|  0.01362
USER: genes 7 Torsion [N]-CA--C-[O] |==|  0.67205
USER: genes 8 Torsion [N]-CA--CB-[CG] |==|  0.81290
USER: genes 9 Torsion [CA]-CB--CG-[CD1] |==|  0.21291
USER: genes 10 Torsion [N]-C--CA-[N] |==|  0.92817
USER: genes 11 Torsion [C]-CA--N-[H3] |==|  0.71629
USER: genes 12 Torsion [C]-CA--CB-[CG] |==|  0.42063
USER: genes 13 Torsion [CA]-CB--CG-[CD2] |==|  0.15654
ROOT
ATOM      1  C   TRP C   1      18.493 -17.589  29.858  1.00 34.42 LIG 0.25  C 
ATOM      2 O    TRP C   1      18.516 -18.415  30.765  1.00 41.57 LIG-0.27  OA
ATOM      3  N   LEU C   2      19.489 -17.398  29.003  1.00 34.28 LIG-0.35  N 
ATOM      4 H    LEU C   2      19.394 -16.963  28.267  1.00 34.28 LIG 0.16  HD
ENDROOT
BRANCH 3 5
ATOM      5  CA  LEU C   2      20.849 -17.901  29.212  1.00 43.88 LIG 0.18  C 
BRANCH 5 6
ATOM      6  C   LEU C   2      21.666 -17.110  30.296  1.00 50.68 LIG 0.24  C 
ATOM      7 O    LEU C   2      21.283 -16.009  30.790  1.00 38.43 LIG-0.27  OA
ATOM      8  N   PHE C   3      22.818 -17.660  30.670  1.00 52.67 LIG-0.35  N 
ATOM      9 H    PHE C   3      23.127 -18.403  30.365  1.00 52.67 LIG 0.16  HD
BRANCH 8 10
ATOM     10  CA  PHE C   3      23.665 -17.001  31.669  1.00 63.47 LIG 0.17  C 
BRANCH 10 11
ATOM     11  CB  PHE C   3      24.019 -15.571  31.239  1.00 59.49 LIG 0.07  C 
BRANCH 11 12
ATOM     12  CG  PHE C   3      24.764 -15.500  29.934  0.00 60.89 LIG-0.06  A 
ATOM     13  CD1 PHE C   3      25.235 -14.290  29.456  0.00 60.45 LIG 0.01  A 
ATOM     14  CE1 PHE C   3      25.906 -14.221  28.246  0.00 60.97 LIG 0.00  A 
ATOM     15  CZ  PHE C   3      26.125 -15.359  27.513  0.00 59.40 LIG 0.00  A 
ATOM     16  CE2 PHE C   3      25.666 -16.571  27.976  0.00 59.26 LIG 0.00  A 
ATOM     17  CD2 PHE C   3      24.987 -16.640  29.181  0.00 60.74 LIG 0.01  A 
ENDBRANCH 11 12
ENDBRANCH 10 11
BRANCH 10 18
ATOM     18  C   PHE C   3      23.015 -16.997  33.061  1.00 72.73 LIG 0.22  C 
ATOM     19 O    PHE C   3      22.729 -15.944  33.636  1.00 72.69 LIG-0.29  OA
ENDBRANCH 10 18
ENDBRANCH 8 10
ENDBRANCH 5 6
BRANCH 5 20
ATOM     20  CB  LEU C   2      21.562 -17.864  27.859  1.00 36.13 LIG 0.04  C 
BRANCH 20 21
ATOM     21  CG  LEU C   2      21.107 -18.796  26.745  1.00 47.78 LIG-0.02  C 
ATOM     22  CD2 LEU C   2      22.193 -18.900  25.727  1.00 53.75 LIG 0.01  C 
ATOM     23  CD1 LEU C   2      19.823 -18.282  26.106  1.00 57.03 LIG 0.01  C 
ENDBRANCH 20 21
ENDBRANCH 5 20
ENDBRANCH 3 5
BRANCH 1 24
ATOM     24  CA  TRP C   1      17.302 -16.693  29.639  1.00 30.44 LIG 0.28  C 
BRANCH 24 25
ATOM     25  N   TRP C   1      17.732 -15.443  28.969  1.00 30.96 LIG-0.07  N 
ATOM     26 H3   TRP C   1      17.779 -14.786  29.568  1.00 30.96 LIG 0.28  HD
ATOM     27 H1   TRP C   1      18.532 -15.564  28.598  1.00 30.96 LIG 0.28  HD
ATOM     28 H2   TRP C   1      17.143 -15.227  28.338  1.00 30.96 LIG 0.28  HD
ENDBRANCH 24 25
BRANCH 24 29
ATOM     29  CB  TRP C   1      16.293 -17.431  28.763  1.00 29.47 LIG 0.08  C 
BRANCH 29 30
ATOM     30  CG  TRP C   1      14.896 -17.050  28.972  1.00 32.35 LIG-0.03  A 
ATOM     31  CD1 TRP C   1      13.839 -17.879  29.270  1.00 34.00 LIG 0.10  A 
ATOM     32  NE1 TRP C   1      12.685 -17.150  29.372  1.00 34.62 LIG-0.36  N 
ATOM     33 HE1  TRP C   1      11.909 -17.467  29.565  1.00 34.62 LIG 0.17  HD
ATOM     34  CE2 TRP C   1      12.968 -15.834  29.117  1.00 29.50 LIG 0.04  A 
ATOM     35  CZ2 TRP C   1      12.139 -14.724  29.130  1.00 29.56 LIG 0.03  A 
ATOM     36  CD2 TRP C   1      14.358 -15.740  28.871  1.00 28.41 LIG-0.00  A 
ATOM     37  CH2 TRP C   1      12.698 -13.519  28.847  1.00 29.15 LIG 0.00  A 
ATOM     38  CZ3 TRP C   1      14.079 -13.395  28.591  1.00 29.71 LIG 0.00  A 
ATOM     39  CE3 TRP C   1      14.903 -14.490  28.599  1.00 28.71 LIG 0.01  A 
ENDBRANCH 29 30
ENDBRANCH 24 29
ENDBRANCH 1 24
TORSDOF 12
ENDMDL
MODEL 20
USER: ADFR SOLUTION from run 95
USER: SCORE 15.332045 LL:  -2.327 LR: -13.095 RR:   0.000 FEB:  -9.516
USER: RMSD 5.746465
USER: SEED 94
USER: STATUS no improvement in best in 9 clusters for 5 generations
USER: GENES 14
USER: genes 0 Translation |==|  0.52308 0.59654 0.41356
USER: genes 1 Rotation |==|  0.45838 0.48053 0.49528 0.99786
USER: genes 2 Torsion [C]-N--CA-[C] |==|  0.14600
USER: genes 3 Torsion [N]-CA--C-[N] |==|  0.09552
USER: genes 4 Torsion [C]-N--CA-[CB] |==|  0.81795
USER: genes 5 Torsion [N]-CA--CB-[CG] |==|  0.83472
USER: genes 6 Torsion [CA]-CB--CG-[CD2] |==|  0.23148
USER: genes 7 Torsion [N]-CA--C-[O] |==|  0.18262
USER: genes 8 Torsion [N]-CA--CB-[CG] |==|  0.54689
USER: genes 9 Torsion [CA]-CB--CG-[CD1] |==|  0.10147
USER: genes 10 Torsion [N]-C--CA-[N] |==|  0.42209
USER: genes 11 Torsion [C]-CA--N-[H3] |==|  0.50053
USER: genes 12 Torsion [C]-CA--CB-[CG] |==|  0.49046
USER: genes 13 Torsion [CA]-CB--CG-[CD2] |==|  0.89863
ROOT
ATOM      1  C   TRP C   1      18.978 -17.799  29.418  1.00 34.42 LIG 0.25  C 
ATOM      2 O    TRP C   1      19.477 -18.777  28.870  1.00 41.57 LIG-0.27  OA
ATOM      3  N   LEU C   2      19.527 -17.163  30.444  1.00 34.28 LIG-0.35  N 
ATOM      4 H    LEU C   2      19.276 -16.379  30.694  1.00 34.28 LIG 0.16  HD
ENDROOT
BRANCH 3 5
ATOM      5  CA  LEU C   2      20.612 -17.715  31.259  1.00 43.88 LIG 0.18  C 
BRANCH 5 6
ATOM      6  C   LEU C   2      21.850 -18.211  30.429  1.00 50.68 LIG 0.24  C 
ATOM      7 O    LEU C   2      22.562 -19.202  30.764  1.00 38.43 LIG-0.27  OA
ATOM      8  N   PHE C   3      22.131 -17.510  29.333  1.00 52.67 LIG-0.35  N 
ATOM      9 H    PHE C   3      21.684 -16.827  29.062  1.00 52.67 LIG 0.16  HD
BRANCH 8 10
ATOM     10  CA  PHE C   3      23.272 -17.879  28.490  1.00 63.47 LIG 0.17  C 
BRANCH 10 11
ATOM     11  CB  PHE C   3      24.599 -17.685  29.235  1.00 59.49 LIG 0.07  C 
BRANCH 11 12
ATOM     12  CG  PHE C   3      24.835 -16.269  29.689  0.00 60.89 LIG-0.06  A 
ATOM     13  CD1 PHE C   3      25.614 -15.408  28.937  0.00 60.45 LIG 0.01  A 
ATOM     14  CE1 PHE C   3      25.846 -14.111  29.363  0.00 60.97 LIG 0.00  A 
ATOM     15  CZ  PHE C   3      25.291 -13.660  30.532  0.00 59.40 LIG 0.00  A 
ATOM     16  CE2 PHE C   3      24.511 -14.502  31.290  0.00 59.26 LIG 0.00  A 
ATOM     17  CD2 PHE C   3      24.285 -15.802  30.870  0.00 60.74 LIG 0.01  A 
ENDBRANCH 11 12
ENDBRANCH 10 11
BRANCH 10 18
ATOM     18  C   PHE C   3      23.158 -19.319  27.966  1.00 72.73 LIG 0.22  C 
ATOM     19 O    PHE C   3      22.265 -19.651  27.181  1.00 72.69 LIG-0.29  OA
ENDBRANCH 10 18
ENDBRANCH 8 10
ENDBRANCH 5 6
BRANCH 5 20
ATOM     20  CB  LEU C   2      20.022 -18.856  32.091  1.00 36.13 LIG 0.04  C 
BRANCH 20 21
ATOM     21  CG  LEU C   2      20.784 -19.372  33.304  1.00 47.78 LIG-0.02  C 
ATOM     22  CD2 LEU C   2      19.827 -20.060  34.219  1.00 53.75 LIG 0.01  C 
ATOM     23  CD1 LEU C   2      21.486 -18.229  34.024  1.00 57.03 LIG 0.01  C 
ENDBRANCH 20 21
ENDBRANCH 5 20
ENDBRANCH 3 5
BRANCH 1 24
ATOM     24  CA  TRP C   1      17.660 -17.229  28.962  1.00 30.44 LIG 0.28  C 
BRANCH 24 25
ATOM     25  N   TRP C   1      17.468 -17.503  27.518  1.00 30.96 LIG-0.07  N 
ATOM     26 H3   TRP C   1      16.690 -17.162  27.252  1.00 30.96 LIG 0.28  HD
ATOM     27 H1   TRP C   1      18.130 -17.129  27.054  1.00 30.96 LIG 0.28  HD
ATOM     28 H2   TRP C   1      17.470 -18.382  27.380  1.00 30.96 LIG 0.28  HD
ENDBRANCH 24 25
BRANCH 24 29
ATOM     29  CB  TRP C   1      16.542 -17.886  29.768  1.00 29.47 LIG 0.08  C 
BRANCH 29 30
ATOM     30  CG  TRP C   1      15.199 -17.375  29.492  1.00 32.35 LIG-0.03  A 
ATOM     31  CD1 TRP C   1      14.029 -18.096  29.423  1.00 34.00 LIG 0.10  A 
ATOM     32  NE1 TRP C   1      12.983 -17.265  29.125  1.00 34.62 LIG-0.36  N 
ATOM     33 HE1  TRP C   1      12.161 -17.504  29.047  1.00 34.62 LIG 0.17  HD
ATOM     34  CE2 TRP C   1      13.460 -15.990  28.969  1.00 29.50 LIG 0.04  A 
ATOM     35  CZ2 TRP C   1      12.785 -14.812  28.695  1.00 29.56 LIG 0.03  A 
ATOM     36  CD2 TRP C   1      14.854 -16.027  29.206  1.00 28.41 LIG-0.00  A 
ATOM     37  CH2 TRP C   1      13.520 -13.672  28.607  1.00 29.15 LIG 0.00  A 
ATOM     38  CZ3 TRP C   1      14.913 -13.680  28.831  1.00 29.71 LIG 0.00  A 
ATOM     39  CE3 TRP C   1      15.577 -14.842  29.124  1.00 28.71 LIG 0.01  A 
ENDBRANCH 29 30
ENDBRANCH 24 29
ENDBRANCH 1 24
TORSDOF 12
ENDMDL
MODEL 21
USER: ADFR SOLUTION from run 130
USER: SCORE 15.140977 LL:  -2.719 LR: -13.014 RR:   0.000 FEB:  -9.435
USER: RMSD 4.585262
USER: SEED 129
USER: STATUS no improvement in best in 11 clusters for 5 generations
USER: GENES 14
USER: genes 0 Translation |==|  0.50817 0.60984 0.40487
USER: genes 1 Rotation |==|  0.24438 0.70164 0.48757 0.87927
USER: genes 2 Torsion [C]-N--CA-[C] |==|  0.23628
USER: genes 3 Torsion [N]-CA--C-[N] |==|  0.97376
USER: genes 4 Torsion [C]-N--CA-[CB] |==|  0.25462
USER: genes 5 Torsion [N]-CA--CB-[CG] |==|  0.90738
USER: genes 6 Torsion [CA]-CB--CG-[CD2] |==|  0.25405
USER: genes 7 Torsion [N]-CA--C-[O] |==|  0.95465
USER: genes 8 Torsion [N]-CA--CB-[CG] |==|  0.85215
USER: genes 9 Torsion [CA]-CB--CG-[CD1] |==|  0.41192
USER: genes 10 Torsion [N]-C--CA-[N] |==|  0.96954
USER: genes 11 Torsion [C]-CA--N-[H3] |==|  0.26038
USER: genes 12 Torsion [C]-CA--CB-[CG] |==|  0.46151
USER: genes 13 Torsion [CA]-CB--CG-[CD2] |==|  0.19202
ROOT
ATOM      1  C   TRP C   1      18.676 -17.530  29.274  1.00 34.42 LIG 0.25  C 
ATOM      2 O    TRP C   1      18.842 -18.708  29.574  1.00 41.57 LIG-0.27  OA
ATOM      3  N   LEU C   2      19.601 -16.773  28.698  1.00 34.28 LIG-0.35  N 
ATOM      4 H    LEU C   2      19.420 -16.021  28.322  1.00 34.28 LIG 0.16  HD
ENDROOT
BRANCH 3 5
ATOM      5  CA  LEU C   2      21.021 -17.129  28.636  1.00 43.88 LIG 0.18  C 
BRANCH 5 6
ATOM      6  C   LEU C   2      21.397 -18.062  27.430  1.00 50.68 LIG 0.24  C 
ATOM      7 O    LEU C   2      22.589 -18.325  27.098  1.00 38.43 LIG-0.27  OA
ATOM      8  N   PHE C   3      20.373 -18.564  26.745  1.00 52.67 LIG-0.35  N 
ATOM      9 H    PHE C   3      19.545 -18.416  26.924  1.00 52.67 LIG 0.16  HD
BRANCH 8 10
ATOM     10  CA  PHE C   3      20.610 -19.440  25.593  1.00 63.47 LIG 0.17  C 
BRANCH 10 11
ATOM     11  CB  PHE C   3      20.641 -20.915  26.014  1.00 59.49 LIG 0.07  C 
BRANCH 11 12
ATOM     12  CG  PHE C   3      21.209 -21.137  27.390  0.00 60.89 LIG-0.06  A 
ATOM     13  CD1 PHE C   3      22.567 -21.332  27.569  0.00 60.45 LIG 0.01  A 
ATOM     14  CE1 PHE C   3      23.089 -21.555  28.832  0.00 60.97 LIG 0.00  A 
ATOM     15  CZ  PHE C   3      22.263 -21.570  29.926  0.00 59.40 LIG 0.00  A 
ATOM     16  CE2 PHE C   3      20.910 -21.375  29.767  0.00 59.26 LIG 0.00  A 
ATOM     17  CD2 PHE C   3      20.386 -21.161  28.503  0.00 60.74 LIG 0.01  A 
ENDBRANCH 11 12
ENDBRANCH 10 11
BRANCH 10 18
ATOM     18  C   PHE C   3      19.571 -19.222  24.481  1.00 72.73 LIG 0.22  C 
ATOM     19 O    PHE C   3      18.511 -18.629  24.697  1.00 72.69 LIG-0.29  OA
ENDBRANCH 10 18
ENDBRANCH 8 10
ENDBRANCH 5 6
BRANCH 5 20
ATOM     20  CB  LEU C   2      21.386 -17.787  29.968  1.00 36.13 LIG 0.04  C 
BRANCH 20 21
ATOM     21  CG  LEU C   2      21.074 -17.067  31.272  1.00 47.78 LIG-0.02  C 
ATOM     22  CD2 LEU C   2      22.241 -16.217  31.647  1.00 53.75 LIG 0.01  C 
ATOM     23  CD1 LEU C   2      20.764 -18.068  32.378  1.00 57.03 LIG 0.01  C 
ENDBRANCH 20 21
ENDBRANCH 5 20
ENDBRANCH 3 5
BRANCH 1 24
ATOM     24  CA  TRP C   1      17.375 -16.823  29.551  1.00 30.44 LIG 0.28  C 
BRANCH 24 25
ATOM     25  N   TRP C   1      17.543 -15.365  29.343  1.00 30.96 LIG-0.07  N 
ATOM     26 H3   TRP C   1      17.305 -15.154  28.511  1.00 30.96 LIG 0.28  HD
ATOM     27 H1   TRP C   1      17.030 -14.921  29.920  1.00 30.96 LIG 0.28  HD
ATOM     28 H2   TRP C   1      18.395 -15.143  29.473  1.00 30.96 LIG 0.28  HD
ENDBRANCH 24 25
BRANCH 24 29
ATOM     29  CB  TRP C   1      16.314 -17.365  28.595  1.00 29.47 LIG 0.08  C 
BRANCH 29 30
ATOM     30  CG  TRP C   1      14.936 -17.018  28.940  1.00 32.35 LIG-0.03  A 
ATOM     31  CD1 TRP C   1      13.938 -17.870  29.354  1.00 34.00 LIG 0.10  A 
ATOM     32  NE1 TRP C   1      12.780 -17.170  29.563  1.00 34.62 LIG-0.36  N 
ATOM     33 HE1  TRP C   1      12.037 -17.504  29.838  1.00 34.62 LIG 0.17  HD
ATOM     34  CE2 TRP C   1      12.998 -15.851  29.262  1.00 29.50 LIG 0.04  A 
ATOM     35  CZ2 TRP C   1      12.144 -14.764  29.344  1.00 29.56 LIG 0.03  A 
ATOM     36  CD2 TRP C   1      14.353 -15.724  28.875  1.00 28.41 LIG-0.00  A 
ATOM     37  CH2 TRP C   1      12.638 -13.549  28.989  1.00 29.15 LIG 0.00  A 
ATOM     38  CZ3 TRP C   1      13.982 -13.392  28.593  1.00 29.71 LIG 0.00  A 
ATOM     39  CE3 TRP C   1      14.833 -14.464  28.532  1.00 28.71 LIG 0.01  A 
ENDBRANCH 29 30
ENDBRANCH 24 29
ENDBRANCH 1 24
TORSDOF 12
ENDMDL
MODEL 22
USER: ADFR SOLUTION from run 196
USER: SCORE 15.329259 LL:  -2.405 LR: -12.981 RR:   0.000 FEB:  -9.401
USER: RMSD 4.530525
USER: SEED 195
USER: STATUS no improvement in best in 12 clusters for 5 generations
USER: GENES 14
USER: genes 0 Translation |==|  0.52244 0.61019 0.42052
USER: genes 1 Rotation |==|  0.60856 0.39981 0.56994 0.97253
USER: genes 2 Torsion [C]-N--CA-[C] |==|  0.15502
USER: genes 3 Torsion [N]-CA--C-[N] |==|  0.12778
USER: genes 4 Torsion [C]-N--CA-[CB] |==|  0.75932
USER: genes 5 Torsion [N]-CA--CB-[CG] |==|  0.09138
USER: genes 6 Torsion [CA]-CB--CG-[CD2] |==|  0.75449
USER: genes 7 Torsion [N]-CA--C-[O] |==|  0.55355
USER: genes 8 Torsion [N]-CA--CB-[CG] |==|  0.61773
USER: genes 9 Torsion [CA]-CB--CG-[CD1] |==|  0.69510
USER: genes 10 Torsion [N]-C--CA-[N] |==|  0.53857
USER: genes 11 Torsion [C]-CA--N-[H3] |==|  0.84651
USER: genes 12 Torsion [C]-CA--CB-[CG] |==|  0.46415
USER: genes 13 Torsion [CA]-CB--CG-[CD2] |==|  0.90765
ROOT
ATOM      1  C   TRP C   1      18.965 -17.523  29.533  1.00 34.42 LIG 0.25  C 
ATOM      2 O    TRP C   1      19.913 -17.841  28.822  1.00 41.57 LIG-0.27  OA
ATOM      3  N   LEU C   2      19.004 -17.504  30.858  1.00 34.28 LIG-0.35  N 
ATOM      4 H    LEU C   2      18.412 -17.103  31.336  1.00 34.28 LIG 0.16  HD
ENDROOT
BRANCH 3 5
ATOM      5  CA  LEU C   2      20.049 -18.157  31.651  1.00 43.88 LIG 0.18  C 
BRANCH 5 6
ATOM      6  C   LEU C   2      21.509 -17.702  31.288  1.00 50.68 LIG 0.24  C 
ATOM      7 O    LEU C   2      22.471 -18.509  31.136  1.00 38.43 LIG-0.27  OA
ATOM      8  N   PHE C   3      21.692 -16.391  31.161  1.00 52.67 LIG-0.35  N 
ATOM      9 H    PHE C   3      21.075 -15.799  31.257  1.00 52.67 LIG 0.16  HD
BRANCH 8 10
ATOM     10  CA  PHE C   3      23.018 -15.856  30.833  1.00 63.47 LIG 0.17  C 
BRANCH 10 11
ATOM     11  CB  PHE C   3      23.856 -15.639  32.100  1.00 59.49 LIG 0.07  C 
BRANCH 11 12
ATOM     12  CG  PHE C   3      23.576 -16.640  33.188  0.00 60.89 LIG-0.06  A 
ATOM     13  CD1 PHE C   3      24.306 -17.811  33.274  0.00 60.45 LIG 0.01  A 
ATOM     14  CE1 PHE C   3      24.037 -18.742  34.265  0.00 60.97 LIG 0.00  A 
ATOM     15  CZ  PHE C   3      23.048 -18.503  35.183  0.00 59.40 LIG 0.00  A 
ATOM     16  CE2 PHE C   3      22.314 -17.342  35.114  0.00 59.26 LIG 0.00  A 
ATOM     17  CD2 PHE C   3      22.576 -16.415  34.119  0.00 60.74 LIG 0.01  A 
ENDBRANCH 11 12
ENDBRANCH 10 11
BRANCH 10 18
ATOM     18  C   PHE C   3      23.770 -16.754  29.840  1.00 72.73 LIG 0.22  C 
ATOM     19 O    PHE C   3      24.995 -16.685  29.707  1.00 72.69 LIG-0.29  OA
ENDBRANCH 10 18
ENDBRANCH 8 10
ENDBRANCH 5 6
BRANCH 5 20
ATOM     20  CB  LEU C   2      19.887 -19.667  31.466  1.00 36.13 LIG 0.04  C 
BRANCH 20 21
ATOM     21  CG  LEU C   2      20.020 -20.590  32.668  1.00 47.78 LIG-0.02  C 
ATOM     22  CD2 LEU C   2      20.012 -19.768  33.913  1.00 53.75 LIG 0.01  C 
ATOM     23  CD1 LEU C   2      21.300 -21.410  32.577  1.00 57.03 LIG 0.01  C 
ENDBRANCH 20 21
ENDBRANCH 5 20
ENDBRANCH 3 5
BRANCH 1 24
ATOM     24  CA  TRP C   1      17.639 -17.122  28.941  1.00 30.44 LIG 0.28  C 
BRANCH 24 25
ATOM     25  N   TRP C   1      17.597 -17.493  27.507  1.00 30.96 LIG-0.07  N 
ATOM     26 H3   TRP C   1      18.292 -17.129  27.086  1.00 30.96 LIG 0.28  HD
ATOM     27 H1   TRP C   1      17.633 -18.379  27.428  1.00 30.96 LIG 0.28  HD
ATOM     28 H2   TRP C   1      16.841 -17.194  27.145  1.00 30.96 LIG 0.28  HD
ENDBRANCH 24 25
BRANCH 24 29
ATOM     29  CB  TRP C   1      16.530 -17.849  29.698  1.00 29.47 LIG 0.08  C 
BRANCH 29 30
ATOM     30  CG  TRP C   1      15.178 -17.349  29.446  1.00 32.35 LIG-0.03  A 
ATOM     31  CD1 TRP C   1      14.014 -18.081  29.385  1.00 34.00 LIG 0.10  A 
ATOM     32  NE1 TRP C   1      12.957 -17.257  29.110  1.00 34.62 LIG-0.36  N 
ATOM     33 HE1  TRP C   1      12.135 -17.504  29.042  1.00 34.62 LIG 0.17  HD
ATOM     34  CE2 TRP C   1      13.419 -15.976  28.961  1.00 29.50 LIG 0.04  A 
ATOM     35  CZ2 TRP C   1      12.729 -14.802  28.707  1.00 29.56 LIG 0.03  A 
ATOM     36  CD2 TRP C   1      14.816 -16.003  29.177  1.00 28.41 LIG-0.00  A 
ATOM     37  CH2 TRP C   1      13.451 -13.655  28.620  1.00 29.15 LIG 0.00  A 
ATOM     38  CZ3 TRP C   1      14.847 -13.651  28.825  1.00 29.71 LIG 0.00  A 
ATOM     39  CE3 TRP C   1      15.526 -14.809  29.097  1.00 28.71 LIG 0.01  A 
ENDBRANCH 29 30
ENDBRANCH 24 29
ENDBRANCH 1 24
TORSDOF 12
ENDMDL
MODEL 23
USER: ADFR SOLUTION from run 40
USER: SCORE 14.891241 LL:  -2.734 LR: -12.975 RR:   0.000 FEB:  -9.395
USER: RMSD 4.872097
USER: SEED 39
USER: STATUS no improvement in best in 10 clusters for 5 generations
USER: GENES 14
USER: genes 0 Translation |==|  0.52135 0.60959 0.42663
USER: genes 1 Rotation |==|  0.60597 0.39305 0.57185 0.97135
USER: genes 2 Torsion [C]-N--CA-[C] |==|  0.19060
USER: genes 3 Torsion [N]-CA--C-[N] |==|  0.78938
USER: genes 4 Torsion [C]-N--CA-[CB] |==|  0.49631
USER: genes 5 Torsion [N]-CA--CB-[CG] |==|  0.01339
USER: genes 6 Torsion [CA]-CB--CG-[CD2] |==|  0.77292
USER: genes 7 Torsion [N]-CA--C-[O] |==|  0.53804
USER: genes 8 Torsion [N]-CA--CB-[CG] |==|  0.55580
USER: genes 9 Torsion [CA]-CB--CG-[CD1] |==|  0.14124
USER: genes 10 Torsion [N]-C--CA-[N] |==|  0.53668
USER: genes 11 Torsion [C]-CA--N-[H3] |==|  0.51196
USER: genes 12 Torsion [C]-CA--CB-[CG] |==|  0.46166
USER: genes 13 Torsion [CA]-CB--CG-[CD2] |==|  0.90897
ROOT
ATOM      1  C   TRP C   1      18.943 -17.535  29.633  1.00 34.42 LIG 0.25  C 
ATOM      2 O    TRP C   1      19.912 -17.858  28.954  1.00 41.57 LIG-0.27  OA
ATOM      3  N   LEU C   2      18.943 -17.508  30.959  1.00 34.28 LIG-0.35  N 
ATOM      4 H    LEU C   2      18.337 -17.104  31.417  1.00 34.28 LIG 0.16  HD
ENDROOT
BRANCH 3 5
ATOM      5  CA  LEU C   2      19.964 -18.156  31.787  1.00 43.88 LIG 0.18  C 
BRANCH 5 6
ATOM      6  C   LEU C   2      21.383 -17.488  31.696  1.00 50.68 LIG 0.24  C 
ATOM      7 O    LEU C   2      21.858 -16.737  32.597  1.00 38.43 LIG-0.27  OA
ATOM      8  N   PHE C   3      22.074 -17.744  30.588  1.00 52.67 LIG-0.35  N 
ATOM      9 H    PHE C   3      21.798 -18.243  29.945  1.00 52.67 LIG 0.16  HD
BRANCH 8 10
ATOM     10  CA  PHE C   3      23.406 -17.163  30.395  1.00 63.47 LIG 0.17  C 
BRANCH 10 11
ATOM     11  CB  PHE C   3      24.024 -17.621  29.067  1.00 59.49 LIG 0.07  C 
BRANCH 11 12
ATOM     12  CG  PHE C   3      23.094 -18.453  28.225  0.00 60.89 LIG-0.06  A 
ATOM     13  CD1 PHE C   3      22.372 -17.879  27.194  0.00 60.45 LIG 0.01  A 
ATOM     14  CE1 PHE C   3      21.503 -18.640  26.430  0.00 60.97 LIG 0.00  A 
ATOM     15  CZ  PHE C   3      21.359 -19.980  26.679  0.00 59.40 LIG 0.00  A 
ATOM     16  CE2 PHE C   3      22.071 -20.568  27.699  0.00 59.26 LIG 0.00  A 
ATOM     17  CD2 PHE C   3      22.934 -19.806  28.469  0.00 60.74 LIG 0.01  A 
ENDBRANCH 11 12
ENDBRANCH 10 11
BRANCH 10 18
ATOM     18  C   PHE C   3      23.382 -15.629  30.473  1.00 72.73 LIG 0.22  C 
ATOM     19 O    PHE C   3      24.338 -14.948  30.094  1.00 72.69 LIG-0.29  OA
ENDBRANCH 10 18
ENDBRANCH 8 10
ENDBRANCH 5 6
BRANCH 5 20
ATOM     20  CB  LEU C   2      20.026 -19.626  31.369  1.00 36.13 LIG 0.04  C 
BRANCH 20 21
ATOM     21  CG  LEU C   2      20.631 -20.652  32.316  1.00 47.78 LIG-0.02  C 
ATOM     22  CD2 LEU C   2      20.409 -22.017  31.757  1.00 53.75 LIG 0.01  C 
ATOM     23  CD1 LEU C   2      20.012 -20.534  33.703  1.00 57.03 LIG 0.01  C 
ENDBRANCH 20 21
ENDBRANCH 5 20
ENDBRANCH 3 5
BRANCH 1 24
ATOM     24  CA  TRP C   1      17.635 -17.138  29.001  1.00 30.44 LIG 0.28  C 
BRANCH 24 25
ATOM     25  N   TRP C   1      17.642 -17.503  27.564  1.00 30.96 LIG-0.07  N 
ATOM     26 H3   TRP C   1      16.893 -17.212  27.180  1.00 30.96 LIG 0.28  HD
ATOM     27 H1   TRP C   1      18.345 -17.130  27.166  1.00 30.96 LIG 0.28  HD
ATOM     28 H2   TRP C   1      17.691 -18.389  27.484  1.00 30.96 LIG 0.28  HD
ENDBRANCH 24 25
BRANCH 24 29
ATOM     29  CB  TRP C   1      16.505 -17.874  29.718  1.00 29.47 LIG 0.08  C 
BRANCH 29 30
ATOM     30  CG  TRP C   1      15.162 -17.366  29.440  1.00 32.35 LIG-0.03  A 
ATOM     31  CD1 TRP C   1      13.997 -18.092  29.347  1.00 34.00 LIG 0.10  A 
ATOM     32  NE1 TRP C   1      12.949 -17.261  29.054  1.00 34.62 LIG-0.36  N 
ATOM     33 HE1  TRP C   1      12.128 -17.504  28.966  1.00 34.62 LIG 0.17  HD
ATOM     34  CE2 TRP C   1      13.419 -15.981  28.925  1.00 29.50 LIG 0.04  A 
ATOM     35  CZ2 TRP C   1      12.740 -14.802  28.665  1.00 29.56 LIG 0.03  A 
ATOM     36  CD2 TRP C   1      14.812 -16.015  29.173  1.00 28.41 LIG-0.00  A 
ATOM     37  CH2 TRP C   1      13.469 -13.657  28.604  1.00 29.15 LIG 0.00  A 
ATOM     38  CZ3 TRP C   1      14.860 -13.661  28.839  1.00 29.71 LIG 0.00  A 
ATOM     39  CE3 TRP C   1      15.528 -14.825  29.118  1.00 28.71 LIG 0.01  A 
ENDBRANCH 29 30
ENDBRANCH 24 29
ENDBRANCH 1 24
TORSDOF 12
ENDMDL
MODEL 24
USER: ADFR SOLUTION from run 145
USER: SCORE 14.448959 LL:  -2.507 LR: -12.946 RR:   0.000 FEB:  -9.367
USER: RMSD 4.341364
USER: SEED 144
USER: STATUS no improvement in best in 3 clusters for 5 generations
USER: GENES 14
USER: genes 0 Translation |==|  0.50483 0.61119 0.42649
USER: genes 1 Rotation |==|  0.85377 0.32232 0.64858 0.76683
USER: genes 2 Torsion [C]-N--CA-[C] |==|  0.23888
USER: genes 3 Torsion [N]-CA--C-[N] |==|  0.47401
USER: genes 4 Torsion [C]-N--CA-[CB] |==|  0.82895
USER: genes 5 Torsion [N]-CA--CB-[CG] |==|  0.93167
USER: genes 6 Torsion [CA]-CB--CG-[CD2] |==|  0.81694
USER: genes 7 Torsion [N]-CA--C-[O] |==|  0.81282
USER: genes 8 Torsion [N]-CA--CB-[CG] |==|  0.57670
USER: genes 9 Torsion [CA]-CB--CG-[CD1] |==|  0.10572
USER: genes 10 Torsion [N]-C--CA-[N] |==|  0.75688
USER: genes 11 Torsion [C]-CA--N-[H3] |==|  0.50915
USER: genes 12 Torsion [C]-CA--CB-[CG] |==|  0.44362
USER: genes 13 Torsion [CA]-CB--CG-[CD2] |==|  0.92271
ROOT
ATOM      1  C   TRP C   1      18.609 -17.502  29.631  1.00 34.42 LIG 0.25  C 
ATOM      2 O    TRP C   1      19.550 -16.722  29.723  1.00 41.57 LIG-0.27  OA
ATOM      3  N   LEU C   2      18.620 -18.738  30.111  1.00 34.28 LIG-0.35  N 
ATOM      4 H    LEU C   2      17.905 -19.206  30.213  1.00 34.28 LIG 0.16  HD
ENDROOT
BRANCH 3 5
ATOM      5  CA  LEU C   2      19.839 -19.443  30.520  1.00 43.88 LIG 0.18  C 
BRANCH 5 6
ATOM      6  C   LEU C   2      20.279 -19.156  32.000  1.00 50.68 LIG 0.24  C 
ATOM      7 O    LEU C   2      19.760 -18.254  32.719  1.00 38.43 LIG-0.27  OA
ATOM      8  N   PHE C   3      21.263 -19.920  32.470  1.00 52.67 LIG-0.35  N 
ATOM      9 H    PHE C   3      21.653 -20.543  32.025  1.00 52.67 LIG 0.16  HD
BRANCH 8 10
ATOM     10  CA  PHE C   3      21.759 -19.731  33.837  1.00 63.47 LIG 0.17  C 
BRANCH 10 11
ATOM     11  CB  PHE C   3      22.344 -18.325  34.026  1.00 59.49 LIG 0.07  C 
BRANCH 11 12
ATOM     12  CG  PHE C   3      22.821 -17.693  32.745  0.00 60.89 LIG-0.06  A 
ATOM     13  CD1 PHE C   3      22.188 -16.576  32.232  0.00 60.45 LIG 0.01  A 
ATOM     14  CE1 PHE C   3      22.614 -16.004  31.045  0.00 60.97 LIG 0.00  A 
ATOM     15  CZ  PHE C   3      23.683 -16.535  30.370  0.00 59.40 LIG 0.00  A 
ATOM     16  CE2 PHE C   3      24.326 -17.644  30.867  0.00 59.26 LIG 0.00  A 
ATOM     17  CD2 PHE C   3      23.895 -18.222  32.050  0.00 60.74 LIG 0.01  A 
ENDBRANCH 11 12
ENDBRANCH 10 11
BRANCH 10 18
ATOM     18  C   PHE C   3      20.670 -20.003  34.886  1.00 72.73 LIG 0.22  C 
ATOM     19 O    PHE C   3      19.685 -19.269  34.999  1.00 72.69 LIG-0.29  OA
ENDBRANCH 10 18
ENDBRANCH 8 10
ENDBRANCH 5 6
BRANCH 5 20
ATOM     20  CB  LEU C   2      20.943 -19.051  29.537  1.00 36.13 LIG 0.04  C 
BRANCH 20 21
ATOM     21  CG  LEU C   2      22.091 -20.015  29.272  1.00 47.78 LIG-0.02  C 
ATOM     22  CD2 LEU C   2      22.735 -19.656  27.975  1.00 53.75 LIG 0.01  C 
ATOM     23  CD1 LEU C   2      21.587 -21.452  29.240  1.00 57.03 LIG 0.01  C 
ENDBRANCH 20 21
ENDBRANCH 5 20
ENDBRANCH 3 5
BRANCH 1 24
ATOM     24  CA  TRP C   1      17.329 -17.113  28.939  1.00 30.44 LIG 0.28  C 
BRANCH 24 25
ATOM     25  N   TRP C   1      17.393 -17.504  27.510  1.00 30.96 LIG-0.07  N 
ATOM     26 H3   TRP C   1      16.655 -17.230  27.094  1.00 30.96 LIG 0.28  HD
ATOM     27 H1   TRP C   1      18.105 -17.127  27.131  1.00 30.96 LIG 0.28  HD
ATOM     28 H2   TRP C   1      17.457 -18.390  27.448  1.00 30.96 LIG 0.28  HD
ENDBRANCH 24 25
BRANCH 24 29
ATOM     29  CB  TRP C   1      16.168 -17.834  29.622  1.00 29.47 LIG 0.08  C 
BRANCH 29 30
ATOM     30  CG  TRP C   1      14.852 -17.236  29.399  1.00 32.35 LIG-0.03  A 
ATOM     31  CD1 TRP C   1      13.636 -17.879  29.368  1.00 34.00 LIG 0.10  A 
ATOM     32  NE1 TRP C   1      12.636 -16.980  29.113  1.00 34.62 LIG-0.36  N 
ATOM     33 HE1  TRP C   1      11.797 -17.166  29.065  1.00 34.62 LIG 0.17  HD
ATOM     34  CE2 TRP C   1      13.188 -15.737  28.947  1.00 29.50 LIG 0.04  A 
ATOM     35  CZ2 TRP C   1      12.581 -14.516  28.703  1.00 29.56 LIG 0.03  A 
ATOM     36  CD2 TRP C   1      14.584 -15.866  29.131  1.00 28.41 LIG-0.00  A 
ATOM     37  CH2 TRP C   1      13.384 -13.426  28.594  1.00 29.15 LIG 0.00  A 
ATOM     38  CZ3 TRP C   1      14.780 -13.525  28.766  1.00 29.71 LIG 0.00  A 
ATOM     39  CE3 TRP C   1      15.379 -14.729  29.029  1.00 28.71 LIG 0.01  A 
ENDBRANCH 29 30
ENDBRANCH 24 29
ENDBRANCH 1 24
TORSDOF 12
ENDMDL
MODEL 25
USER: ADFR SOLUTION from run 17
USER: SCORE 14.737318 LL:  -2.507 LR: -12.915 RR:   0.000 FEB:  -9.336
USER: RMSD 2.689452
USER: SEED 16
USER: STATUS no improvement in best in 10 clusters for 5 generations
USER: GENES 14
USER: genes 0 Translation |==|  0.54253 0.61094 0.39573
USER: genes 1 Rotation |==|  0.40840 0.46682 0.43605 0.98623
USER: genes 2 Torsion [C]-N--CA-[C] |==|  0.80556
USER: genes 3 Torsion [N]-CA--C-[N] |==|  0.54263
USER: genes 4 Torsion [C]-N--CA-[CB] |==|  0.30835
USER: genes 5 Torsion [N]-CA--CB-[CG] |==|  0.86219
USER: genes 6 Torsion [CA]-CB--CG-[CD2] |==|  0.21998
USER: genes 7 Torsion [N]-CA--C-[O] |==|  0.31598
USER: genes 8 Torsion [N]-CA--CB-[CG] |==|  0.58062
USER: genes 9 Torsion [CA]-CB--CG-[CD1] |==|  0.10187
USER: genes 10 Torsion [N]-C--CA-[N] |==|  0.47101
USER: genes 11 Torsion [C]-CA--N-[H3] |==|  0.42044
USER: genes 12 Torsion [C]-CA--CB-[CG] |==|  0.42743
USER: genes 13 Torsion [CA]-CB--CG-[CD2] |==|  0.36922
ROOT
ATOM      1  C   TRP C   1      19.372 -17.507  29.124  1.00 34.42 LIG 0.25  C 
ATOM      2 O    TRP C   1      19.645 -18.663  28.815  1.00 41.57 LIG-0.27  OA
ATOM      3  N   LEU C   2      20.007 -16.821  30.064  1.00 34.28 LIG-0.35  N 
ATOM      4 H    LEU C   2      19.943 -15.967  30.142  1.00 34.28 LIG 0.16  HD
ENDROOT
BRANCH 3 5
ATOM      5  CA  LEU C   2      20.883 -17.433  31.067  1.00 43.88 LIG 0.18  C 
BRANCH 5 6
ATOM      6  C   LEU C   2      20.125 -18.298  32.138  1.00 50.68 LIG 0.24  C 
ATOM      7 O    LEU C   2      18.927 -18.681  32.002  1.00 38.43 LIG-0.27  OA
ATOM      8  N   PHE C   3      20.819 -18.605  33.231  1.00 52.67 LIG-0.35  N 
ATOM      9 H    PHE C   3      21.633 -18.368  33.376  1.00 52.67 LIG 0.16  HD
BRANCH 8 10
ATOM     10  CA  PHE C   3      20.205 -19.400  34.299  1.00 63.47 LIG 0.17  C 
BRANCH 10 11
ATOM     11  CB  PHE C   3      20.838 -20.795  34.386  1.00 59.49 LIG 0.07  C 
BRANCH 11 12
ATOM     12  CG  PHE C   3      20.920 -21.504  33.061  0.00 60.89 LIG-0.06  A 
ATOM     13  CD1 PHE C   3      20.005 -22.485  32.728  0.00 60.45 LIG 0.01  A 
ATOM     14  CE1 PHE C   3      20.090 -23.151  31.516  0.00 60.97 LIG 0.00  A 
ATOM     15  CZ  PHE C   3      21.079 -22.831  30.623  0.00 59.40 LIG 0.00  A 
ATOM     16  CE2 PHE C   3      21.997 -21.855  30.936  0.00 59.26 LIG 0.00  A 
ATOM     17  CD2 PHE C   3      21.918 -21.196  32.151  0.00 60.74 LIG 0.01  A 
ENDBRANCH 11 12
ENDBRANCH 10 11
BRANCH 10 18
ATOM     18  C   PHE C   3      20.281 -18.692  35.660  1.00 72.73 LIG 0.22  C 
ATOM     19 O    PHE C   3      19.266 -18.298  36.241  1.00 72.69 LIG-0.29  OA
ENDBRANCH 10 18
ENDBRANCH 8 10
ENDBRANCH 5 6
BRANCH 5 20
ATOM     20  CB  LEU C   2      21.669 -16.304  31.736  1.00 36.13 LIG 0.04  C 
BRANCH 20 21
ATOM     21  CG  LEU C   2      23.056 -16.583  32.296  1.00 47.78 LIG-0.02  C 
ATOM     22  CD2 LEU C   2      23.804 -15.296  32.402  1.00 53.75 LIG 0.01  C 
ATOM     23  CD1 LEU C   2      23.806 -17.566  31.406  1.00 57.03 LIG 0.01  C 
ENDBRANCH 20 21
ENDBRANCH 5 20
ENDBRANCH 3 5
BRANCH 1 24
ATOM     24  CA  TRP C   1      18.257 -16.754  28.446  1.00 30.44 LIG 0.28  C 
BRANCH 24 25
ATOM     25  N   TRP C   1      17.790 -17.509  27.260  1.00 30.96 LIG-0.07  N 
ATOM     26 H3   TRP C   1      16.931 -17.327  27.111  1.00 30.96 LIG 0.28  HD
ATOM     27 H1   TRP C   1      18.271 -17.274  26.549  1.00 30.96 LIG 0.28  HD
ATOM     28 H2   TRP C   1      17.887 -18.382  27.407  1.00 30.96 LIG 0.28  HD
ENDBRANCH 24 25
BRANCH 24 29
ATOM     29  CB  TRP C   1      17.110 -16.586  29.440  1.00 29.47 LIG 0.08  C 
BRANCH 29 30
ATOM     30  CG  TRP C   1      16.248 -15.429  29.199  1.00 32.35 LIG-0.03  A 
ATOM     31  CD1 TRP C   1      16.637 -14.129  28.972  1.00 34.00 LIG 0.10  A 
ATOM     32  NE1 TRP C   1      15.537 -13.331  28.810  1.00 34.62 LIG-0.36  N 
ATOM     33 HE1  TRP C   1      15.552 -12.487  28.644  1.00 34.62 LIG 0.17  HD
ATOM     34  CE2 TRP C   1      14.409 -14.095  28.954  1.00 29.50 LIG 0.04  A 
ATOM     35  CZ2 TRP C   1      13.074 -13.745  28.847  1.00 29.56 LIG 0.03  A 
ATOM     36  CD2 TRP C   1      14.827 -15.426  29.190  1.00 28.41 LIG-0.00  A 
ATOM     37  CH2 TRP C   1      12.150 -14.724  29.029  1.00 29.15 LIG 0.00  A 
ATOM     38  CZ3 TRP C   1      12.536 -16.059  29.273  1.00 29.71 LIG 0.00  A 
ATOM     39  CE3 TRP C   1      13.858 -16.410  29.357  1.00 28.71 LIG 0.01  A 
ENDBRANCH 29 30
ENDBRANCH 24 29
ENDBRANCH 1 24
TORSDOF 12
ENDMDL
MODEL 26
USER: ADFR SOLUTION from run 91
USER: SCORE 15.300889 LL:  -2.508 LR: -12.808 RR:   0.000 FEB:  -9.229
USER: RMSD 4.608163
USER: SEED 90
USER: STATUS no improvement in best in 12 clusters for 5 generations
USER: GENES 14
USER: genes 0 Translation |==|  0.53638 0.63924 0.39366
USER: genes 1 Rotation |==|  0.68539 0.43161 0.60740 0.94656
USER: genes 2 Torsion [C]-N--CA-[C] |==|  0.82778
USER: genes 3 Torsion [N]-CA--C-[N] |==|  0.94553
USER: genes 4 Torsion [C]-N--CA-[CB] |==|  0.83041
USER: genes 5 Torsion [N]-CA--CB-[CG] |==|  0.79054
USER: genes 6 Torsion [CA]-CB--CG-[CD2] |==|  0.69298
USER: genes 7 Torsion [N]-CA--C-[O] |==|  0.26656
USER: genes 8 Torsion [N]-CA--CB-[CG] |==|  0.64240
USER: genes 9 Torsion [CA]-CB--CG-[CD1] |==|  0.69726
USER: genes 10 Torsion [N]-C--CA-[N] |==|  0.61623
USER: genes 11 Torsion [C]-CA--N-[H3] |==|  0.52759
USER: genes 12 Torsion [C]-CA--CB-[CG] |==|  0.48182
USER: genes 13 Torsion [CA]-CB--CG-[CD2] |==|  0.88869
ROOT
ATOM      1  C   TRP C   1      19.248 -16.934  29.089  1.00 34.42 LIG 0.25  C 
ATOM      2 O    TRP C   1      20.134 -16.815  28.250  1.00 41.57 LIG-0.27  OA
ATOM      3  N   LEU C   2      19.467 -17.235  30.362  1.00 34.28 LIG-0.35  N 
ATOM      4 H    LEU C   2      18.873 -17.129  30.975  1.00 34.28 LIG 0.16  HD
ENDROOT
BRANCH 3 5
ATOM      5  CA  LEU C   2      20.733 -17.774  30.865  1.00 43.88 LIG 0.18  C 
BRANCH 5 6
ATOM      6  C   LEU C   2      21.123 -19.169  30.258  1.00 50.68 LIG 0.24  C 
ATOM      7 O    LEU C   2      22.304 -19.624  30.260  1.00 38.43 LIG-0.27  OA
ATOM      8  N   PHE C   3      20.127 -19.862  29.712  1.00 52.67 LIG-0.35  N 
ATOM      9 H    PHE C   3      19.309 -19.599  29.680  1.00 52.67 LIG 0.16  HD
BRANCH 8 10
ATOM     10  CA  PHE C   3      20.381 -21.173  29.107  1.00 63.47 LIG 0.17  C 
BRANCH 10 11
ATOM     11  CB  PHE C   3      21.368 -21.062  27.937  1.00 59.49 LIG 0.07  C 
BRANCH 11 12
ATOM     12  CG  PHE C   3      20.761 -20.485  26.688  0.00 60.89 LIG-0.06  A 
ATOM     13  CD1 PHE C   3      20.384 -19.155  26.636  0.00 60.45 LIG 0.01  A 
ATOM     14  CE1 PHE C   3      19.808 -18.627  25.492  0.00 60.97 LIG 0.00  A 
ATOM     15  CZ  PHE C   3      19.619 -19.417  24.388  0.00 59.40 LIG 0.00  A 
ATOM     16  CE2 PHE C   3      19.990 -20.741  24.421  0.00 59.26 LIG 0.00  A 
ATOM     17  CD2 PHE C   3      20.558 -21.272  25.567  0.00 60.74 LIG 0.01  A 
ENDBRANCH 11 12
ENDBRANCH 10 11
BRANCH 10 18
ATOM     18  C   PHE C   3      20.884 -22.195  30.138  1.00 72.73 LIG 0.22  C 
ATOM     19 O    PHE C   3      20.115 -22.983  30.693  1.00 72.69 LIG-0.29  OA
ENDBRANCH 10 18
ENDBRANCH 8 10
ENDBRANCH 5 6
BRANCH 5 20
ATOM     20  CB  LEU C   2      20.622 -17.855  32.389  1.00 36.13 LIG 0.04  C 
BRANCH 20 21
ATOM     21  CG  LEU C   2      21.713 -17.242  33.256  1.00 47.78 LIG-0.02  C 
ATOM     22  CD2 LEU C   2      22.581 -16.378  32.403  1.00 53.75 LIG 0.01  C 
ATOM     23  CD1 LEU C   2      22.538 -18.331  33.929  1.00 57.03 LIG 0.01  C 
ENDBRANCH 20 21
ENDBRANCH 5 20
ENDBRANCH 3 5
BRANCH 1 24
ATOM     24  CA  TRP C   1      17.795 -16.753  28.732  1.00 30.44 LIG 0.28  C 
BRANCH 24 25
ATOM     25  N   TRP C   1      17.516 -17.397  27.427  1.00 30.96 LIG-0.07  N 
ATOM     26 H3   TRP C   1      16.701 -17.167  27.151  1.00 30.96 LIG 0.28  HD
ATOM     27 H1   TRP C   1      18.118 -17.130  26.828  1.00 30.96 LIG 0.28  HD
ATOM     28 H2   TRP C   1      17.560 -18.282  27.517  1.00 30.96 LIG 0.28  HD
ENDBRANCH 24 25
BRANCH 24 29
ATOM     29  CB  TRP C   1      16.942 -17.398  29.823  1.00 29.47 LIG 0.08  C 
BRANCH 29 30
ATOM     30  CG  TRP C   1      15.503 -17.174  29.695  1.00 32.35 LIG-0.03  A 
ATOM     31  CD1 TRP C   1      14.494 -18.089  29.891  1.00 34.00 LIG 0.10  A 
ATOM     32  NE1 TRP C   1      13.278 -17.504  29.657  1.00 34.62 LIG-0.36  N 
ATOM     33 HE1  TRP C   1      12.514 -17.891  29.736  1.00 34.62 LIG 0.17  HD
ATOM     34  CE2 TRP C   1      13.477 -16.203  29.278  1.00 29.50 LIG 0.04  A 
ATOM     35  CZ2 TRP C   1      12.559 -15.213  28.969  1.00 29.56 LIG 0.03  A 
ATOM     36  CD2 TRP C   1      14.871 -15.963  29.303  1.00 28.41 LIG-0.00  A 
ATOM     37  CH2 TRP C   1      13.043 -13.989  28.633  1.00 29.15 LIG 0.00  A 
ATOM     38  CZ3 TRP C   1      14.428 -13.722  28.642  1.00 29.71 LIG 0.00  A 
ATOM     39  CE3 TRP C   1      15.336 -14.696  28.969  1.00 28.71 LIG 0.01  A 
ENDBRANCH 29 30
ENDBRANCH 24 29
ENDBRANCH 1 24
TORSDOF 12
ENDMDL
MODEL 27
USER: ADFR SOLUTION from run 167
USER: SCORE 15.178179 LL:  -2.976 LR: -12.764 RR:   0.000 FEB:  -9.184
USER: RMSD 3.116130
USER: SEED 166
USER: STATUS no improvement in best in 13 clusters for 5 generations
USER: GENES 14
USER: genes 0 Translation |==|  0.51913 0.61128 0.41975
USER: genes 1 Rotation |==|  0.11508 0.61921 0.41106 0.78234
USER: genes 2 Torsion [C]-N--CA-[C] |==|  0.19739
USER: genes 3 Torsion [N]-CA--C-[N] |==|  0.97222
USER: genes 4 Torsion [C]-N--CA-[CB] |==|  0.30598
USER: genes 5 Torsion [N]-CA--CB-[CG] |==|  0.88736
USER: genes 6 Torsion [CA]-CB--CG-[CD2] |==|  0.33526
USER: genes 7 Torsion [N]-CA--C-[O] |==|  0.05518
USER: genes 8 Torsion [N]-CA--CB-[CG] |==|  0.46033
USER: genes 9 Torsion [CA]-CB--CG-[CD1] |==|  0.20927
USER: genes 10 Torsion [N]-C--CA-[N] |==|  0.13887
USER: genes 11 Torsion [C]-CA--N-[H3] |==|  0.84983
USER: genes 12 Torsion [C]-CA--CB-[CG] |==|  0.47341
USER: genes 13 Torsion [CA]-CB--CG-[CD2] |==|  0.91067
ROOT
ATOM      1  C   TRP C   1      18.898 -17.501  29.520  1.00 34.42 LIG 0.25  C 
ATOM      2 O    TRP C   1      19.024 -18.131  30.565  1.00 41.57 LIG-0.27  OA
ATOM      3  N   LEU C   2      19.913 -17.128  28.752  1.00 34.28 LIG-0.35  N 
ATOM      4 H    LEU C   2      19.810 -16.861  27.940  1.00 34.28 LIG 0.16  HD
ENDROOT
BRANCH 3 5
ATOM      5  CA  LEU C   2      21.311 -17.129  29.192  1.00 43.88 LIG 0.18  C 
BRANCH 5 6
ATOM      6  C   LEU C   2      21.928 -18.563  29.364  1.00 50.68 LIG 0.24  C 
ATOM      7 O    LEU C   2      23.163 -18.772  29.543  1.00 38.43 LIG-0.27  OA
ATOM      8  N   PHE C   3      21.068 -19.576  29.296  1.00 52.67 LIG-0.35  N 
ATOM      9 H    PHE C   3      20.222 -19.491  29.173  1.00 52.67 LIG 0.16  HD
BRANCH 8 10
ATOM     10  CA  PHE C   3      21.539 -20.958  29.434  1.00 63.47 LIG 0.17  C 
BRANCH 10 11
ATOM     11  CB  PHE C   3      21.069 -21.575  30.759  1.00 59.49 LIG 0.07  C 
BRANCH 11 12
ATOM     12  CG  PHE C   3      21.144 -20.627  31.925  0.00 60.89 LIG-0.06  A 
ATOM     13  CD1 PHE C   3      22.352 -20.071  32.305  0.00 60.45 LIG 0.01  A 
ATOM     14  CE1 PHE C   3      22.426 -19.212  33.390  0.00 60.97 LIG 0.00  A 
ATOM     15  CZ  PHE C   3      21.294 -18.892  34.093  0.00 59.40 LIG 0.00  A 
ATOM     16  CE2 PHE C   3      20.083 -19.435  33.728  0.00 59.26 LIG 0.00  A 
ATOM     17  CD2 PHE C   3      20.010 -20.300  32.649  0.00 60.74 LIG 0.01  A 
ENDBRANCH 11 12
ENDBRANCH 10 11
BRANCH 10 18
ATOM     18  C   PHE C   3      21.103 -21.835  28.251  1.00 72.73 LIG 0.22  C 
ATOM     19 O    PHE C   3      20.765 -21.341  27.172  1.00 72.69 LIG-0.29  OA
ENDBRANCH 10 18
ENDBRANCH 8 10
ENDBRANCH 5 6
BRANCH 5 20
ATOM     20  CB  LEU C   2      21.377 -16.346  30.504  1.00 36.13 LIG 0.04  C 
BRANCH 20 21
ATOM     21  CG  LEU C   2      22.621 -16.442  31.375  1.00 47.78 LIG-0.02  C 
ATOM     22  CD2 LEU C   2      22.292 -15.952  32.745  1.00 53.75 LIG 0.01  C 
ATOM     23  CD1 LEU C   2      23.761 -15.629  30.775  1.00 57.03 LIG 0.01  C 
ENDBRANCH 20 21
ENDBRANCH 5 20
ENDBRANCH 3 5
BRANCH 1 24
ATOM     24  CA  TRP C   1      17.544 -17.078  29.013  1.00 30.44 LIG 0.28  C 
BRANCH 24 25
ATOM     25  N   TRP C   1      17.401 -17.461  27.588  1.00 30.96 LIG-0.07  N 
ATOM     26 H3   TRP C   1      18.083 -17.129  27.122  1.00 30.96 LIG 0.28  HD
ATOM     27 H1   TRP C   1      17.397 -18.348  27.517  1.00 30.96 LIG 0.28  HD
ATOM     28 H2   TRP C   1      16.636 -17.135  27.269  1.00 30.96 LIG 0.28  HD
ENDBRANCH 24 25
BRANCH 24 29
ATOM     29  CB  TRP C   1      16.473 -17.777  29.848  1.00 29.47 LIG 0.08  C 
BRANCH 29 30
ATOM     30  CG  TRP C   1      15.107 -17.304  29.624  1.00 32.35 LIG-0.03  A 
ATOM     31  CD1 TRP C   1      13.948 -18.044  29.665  1.00 34.00 LIG 0.10  A 
ATOM     32  NE1 TRP C   1      12.872 -17.248  29.382  1.00 34.62 LIG-0.36  N 
ATOM     33 HE1  TRP C   1      12.051 -17.504  29.368  1.00 34.62 LIG 0.17  HD
ATOM     34  CE2 TRP C   1      13.315 -15.977  29.125  1.00 29.50 LIG 0.04  A 
ATOM     35  CZ2 TRP C   1      12.604 -14.828  28.823  1.00 29.56 LIG 0.03  A 
ATOM     36  CD2 TRP C   1      14.722 -15.980  29.280  1.00 28.41 LIG-0.00  A 
ATOM     37  CH2 TRP C   1      13.312 -13.684  28.626  1.00 29.15 LIG 0.00  A 
ATOM     38  CZ3 TRP C   1      14.715 -13.659  28.766  1.00 29.71 LIG 0.00  A 
ATOM     39  CE3 TRP C   1      15.416 -14.791  29.087  1.00 28.71 LIG 0.01  A 
ENDBRANCH 29 30
ENDBRANCH 24 29
ENDBRANCH 1 24
TORSDOF 12
ENDMDL
MODEL 28
USER: ADFR SOLUTION from run 54
USER: SCORE 15.185521 LL:  -2.602 LR: -12.729 RR:   0.000 FEB:  -9.149
USER: RMSD 3.334207
USER: SEED 53
USER: STATUS no improvement in best in 15 clusters for 5 generations
USER: GENES 14
USER: genes 0 Translation |==|  0.48930 0.59030 0.45067
USER: genes 1 Rotation |==|  0.38253 0.55772 0.36906 0.96446
USER: genes 2 Torsion [C]-N--CA-[C] |==|  0.54469
USER: genes 3 Torsion [N]-CA--C-[N] |==|  0.45390
USER: genes 4 Torsion [C]-N--CA-[CB] |==|  0.35255
USER: genes 5 Torsion [N]-CA--CB-[CG] |==|  0.02198
USER: genes 6 Torsion [CA]-CB--CG-[CD2] |==|  0.21958
USER: genes 7 Torsion [N]-CA--C-[O] |==|  0.93140
USER: genes 8 Torsion [N]-CA--CB-[CG] |==|  0.60748
USER: genes 9 Torsion [CA]-CB--CG-[CD1] |==|  0.70085
USER: genes 10 Torsion [N]-C--CA-[N] |==|  0.13434
USER: genes 11 Torsion [C]-CA--N-[H3] |==|  0.44690
USER: genes 12 Torsion [C]-CA--CB-[CG] |==|  0.37229
USER: genes 13 Torsion [CA]-CB--CG-[CD2] |==|  0.18392
ROOT
ATOM      1  C   TRP C   1      18.294 -17.925  30.030  1.00 34.42 LIG 0.25  C 
ATOM      2 O    TRP C   1      18.062 -19.103  29.778  1.00 41.57 LIG-0.27  OA
ATOM      3  N   LEU C   2      19.379 -17.502  30.665  1.00 34.28 LIG-0.35  N 
ATOM      4 H    LEU C   2      19.625 -16.678  30.668  1.00 34.28 LIG 0.16  HD
ENDROOT
BRANCH 3 5
ATOM      5  CA  LEU C   2      20.273 -18.380  31.424  1.00 43.88 LIG 0.18  C 
BRANCH 5 6
ATOM      6  C   LEU C   2      21.242 -17.621  32.400  1.00 50.68 LIG 0.24  C 
ATOM      7 O    LEU C   2      21.490 -16.383  32.310  1.00 38.43 LIG-0.27  OA
ATOM      8  N   PHE C   3      21.816 -18.365  33.342  1.00 52.67 LIG-0.35  N 
ATOM      9 H    PHE C   3      21.685 -19.208  33.446  1.00 52.67 LIG 0.16  HD
BRANCH 8 10
ATOM     10  CA  PHE C   3      22.746 -17.759  34.300  1.00 63.47 LIG 0.17  C 
BRANCH 10 11
ATOM     11  CB  PHE C   3      22.337 -18.073  35.745  1.00 59.49 LIG 0.07  C 
BRANCH 11 12
ATOM     12  CG  PHE C   3      21.212 -19.067  35.851  0.00 60.89 LIG-0.06  A 
ATOM     13  CD1 PHE C   3      19.919 -18.646  36.105  0.00 60.45 LIG 0.01  A 
ATOM     14  CE1 PHE C   3      18.886 -19.561  36.220  0.00 60.97 LIG 0.00  A 
ATOM     15  CZ  PHE C   3      19.133 -20.901  36.068  0.00 59.40 LIG 0.00  A 
ATOM     16  CE2 PHE C   3      20.412 -21.338  35.811  0.00 59.26 LIG 0.00  A 
ATOM     17  CD2 PHE C   3      21.447 -20.424  35.705  0.00 60.74 LIG 0.01  A 
ENDBRANCH 11 12
ENDBRANCH 10 11
BRANCH 10 18
ATOM     18  C   PHE C   3      24.197 -18.196  34.048  1.00 72.73 LIG 0.22  C 
ATOM     19 O    PHE C   3      24.461 -19.257  33.475  1.00 72.69 LIG-0.29  OA
ENDBRANCH 10 18
ENDBRANCH 8 10
ENDBRANCH 5 6
BRANCH 5 20
ATOM     20  CB  LEU C   2      21.061 -19.214  30.413  1.00 36.13 LIG 0.04  C 
BRANCH 20 21
ATOM     21  CG  LEU C   2      21.354 -20.678  30.711  1.00 47.78 LIG-0.02  C 
ATOM     22  CD2 LEU C   2      20.492 -21.122  31.846  1.00 53.75 LIG 0.01  C 
ATOM     23  CD1 LEU C   2      22.826 -20.873  31.049  1.00 57.03 LIG 0.01  C 
ENDBRANCH 20 21
ENDBRANCH 5 20
ENDBRANCH 3 5
BRANCH 1 24
ATOM     24  CA  TRP C   1      17.335 -16.832  29.636  1.00 30.44 LIG 0.28  C 
BRANCH 24 25
ATOM     25  N   TRP C   1      18.074 -15.734  28.969  1.00 30.96 LIG-0.07  N 
ATOM     26 H3   TRP C   1      17.505 -15.235  28.499  1.00 30.96 LIG 0.28  HD
ATOM     27 H1   TRP C   1      18.474 -15.229  29.583  1.00 30.96 LIG 0.28  HD
ATOM     28 H2   TRP C   1      18.688 -16.078  28.423  1.00 30.96 LIG 0.28  HD
ENDBRANCH 24 25
BRANCH 24 29
ATOM     29  CB  TRP C   1      16.299 -17.417  28.678  1.00 29.47 LIG 0.08  C 
BRANCH 29 30
ATOM     30  CG  TRP C   1      14.913 -17.053  28.970  1.00 32.35 LIG-0.03  A 
ATOM     31  CD1 TRP C   1      13.889 -17.893  29.343  1.00 34.00 LIG 0.10  A 
ATOM     32  NE1 TRP C   1      12.733 -17.179  29.508  1.00 34.62 LIG-0.36  N 
ATOM     33 HE1  TRP C   1      11.975 -17.504  29.753  1.00 34.62 LIG 0.17  HD
ATOM     34  CE2 TRP C   1      12.979 -15.863  29.219  1.00 29.50 LIG 0.04  A 
ATOM     35  CZ2 TRP C   1      12.136 -14.765  29.271  1.00 29.56 LIG 0.03  A 
ATOM     36  CD2 TRP C   1      14.349 -15.752  28.886  1.00 28.41 LIG-0.00  A 
ATOM     37  CH2 TRP C   1      12.658 -13.555  28.937  1.00 29.15 LIG 0.00  A 
ATOM     38  CZ3 TRP C   1      14.019 -13.415  28.594  1.00 29.71 LIG 0.00  A 
ATOM     39  CE3 TRP C   1      14.858 -14.498  28.564  1.00 28.71 LIG 0.01  A 
ENDBRANCH 29 30
ENDBRANCH 24 29
ENDBRANCH 1 24
TORSDOF 12
ENDMDL
MODEL 29
USER: ADFR SOLUTION from run 30
USER: SCORE 15.384734 LL:  -3.231 LR: -12.710 RR:   0.000 FEB:  -9.131
USER: RMSD 3.736287
USER: SEED 29
USER: STATUS no improvement in best in 12 clusters for 5 generations
USER: GENES 14
USER: genes 0 Translation |==|  0.52781 0.61696 0.41285
USER: genes 1 Rotation |==|  0.30065 0.53671 0.48753 0.95690
USER: genes 2 Torsion [C]-N--CA-[C] |==|  0.19015
USER: genes 3 Torsion [N]-CA--C-[N] |==|  0.97793
USER: genes 4 Torsion [C]-N--CA-[CB] |==|  0.21105
USER: genes 5 Torsion [N]-CA--CB-[CG] |==|  0.06514
USER: genes 6 Torsion [CA]-CB--CG-[CD2] |==|  0.22161
USER: genes 7 Torsion [N]-CA--C-[O] |==|  0.95673
USER: genes 8 Torsion [N]-CA--CB-[CG] |==|  0.48637
USER: genes 9 Torsion [CA]-CB--CG-[CD1] |==|  0.16850
USER: genes 10 Torsion [N]-C--CA-[N] |==|  0.32286
USER: genes 11 Torsion [C]-CA--N-[H3] |==|  0.52201
USER: genes 12 Torsion [C]-CA--CB-[CG] |==|  0.47620
USER: genes 13 Torsion [CA]-CB--CG-[CD2] |==|  0.89856
ROOT
ATOM      1  C   TRP C   1      19.074 -17.386  29.406  1.00 34.42 LIG 0.25  C 
ATOM      2 O    TRP C   1      19.432 -18.556  29.487  1.00 41.57 LIG-0.27  OA
ATOM      3  N   LEU C   2      19.846 -16.351  29.710  1.00 34.28 LIG-0.35  N 
ATOM      4 H    LEU C   2      19.660 -15.545  29.472  1.00 34.28 LIG 0.16  HD
ENDROOT
BRANCH 3 5
ATOM      5  CA  LEU C   2      21.090 -16.460  30.476  1.00 43.88 LIG 0.18  C 
BRANCH 5 6
ATOM      6  C   LEU C   2      22.247 -17.205  29.719  1.00 50.68 LIG 0.24  C 
ATOM      7 O    LEU C   2      23.437 -17.260  30.146  1.00 38.43 LIG-0.27  OA
ATOM      8  N   PHE C   3      21.910 -17.779  28.566  1.00 52.67 LIG-0.35  N 
ATOM      9 H    PHE C   3      21.120 -17.769  28.229  1.00 52.67 LIG 0.16  HD
BRANCH 8 10
ATOM     10  CA  PHE C   3      22.915 -18.492  27.772  1.00 63.47 LIG 0.17  C 
BRANCH 10 11
ATOM     11  CB  PHE C   3      23.234 -19.863  28.383  1.00 59.49 LIG 0.07  C 
BRANCH 11 12
ATOM     12  CG  PHE C   3      22.133 -20.407  29.252  0.00 60.89 LIG-0.06  A 
ATOM     13  CD1 PHE C   3      22.212 -20.317  30.630  0.00 60.45 LIG 0.01  A 
ATOM     14  CE1 PHE C   3      21.207 -20.833  31.432  0.00 60.97 LIG 0.00  A 
ATOM     15  CZ  PHE C   3      20.111 -21.428  30.864  0.00 59.40 LIG 0.00  A 
ATOM     16  CE2 PHE C   3      20.014 -21.524  29.495  0.00 59.26 LIG 0.00  A 
ATOM     17  CD2 PHE C   3      21.022 -21.016  28.693  0.00 60.74 LIG 0.01  A 
ENDBRANCH 11 12
ENDBRANCH 10 11
BRANCH 10 18
ATOM     18  C   PHE C   3      22.485 -18.646  26.305  1.00 72.73 LIG 0.22  C 
ATOM     19 O    PHE C   3      21.316 -18.465  25.953  1.00 72.69 LIG-0.29  OA
ENDBRANCH 10 18
ENDBRANCH 8 10
ENDBRANCH 5 6
BRANCH 5 20
ATOM     20  CB  LEU C   2      20.756 -17.168  31.791  1.00 36.13 LIG 0.04  C 
BRANCH 20 21
ATOM     21  CG  LEU C   2      21.876 -17.528  32.756  1.00 47.78 LIG-0.02  C 
ATOM     22  CD2 LEU C   2      21.294 -18.255  33.923  1.00 53.75 LIG 0.01  C 
ATOM     23  CD1 LEU C   2      22.609 -16.276  33.219  1.00 57.03 LIG 0.01  C 
ENDBRANCH 20 21
ENDBRANCH 5 20
ENDBRANCH 3 5
BRANCH 1 24
ATOM     24  CA  TRP C   1      17.687 -17.017  28.949  1.00 30.44 LIG 0.28  C 
BRANCH 24 25
ATOM     25  N   TRP C   1      17.492 -17.444  27.543  1.00 30.96 LIG-0.07  N 
ATOM     26 H3   TRP C   1      16.718 -17.124  27.240  1.00 30.96 LIG 0.28  HD
ATOM     27 H1   TRP C   1      18.158 -17.131  27.042  1.00 30.96 LIG 0.28  HD
ATOM     28 H2   TRP C   1      17.483 -18.333  27.502  1.00 30.96 LIG 0.28  HD
ENDBRANCH 24 25
BRANCH 24 29
ATOM     29  CB  TRP C   1      16.675 -17.721  29.850  1.00 29.47 LIG 0.08  C 
BRANCH 29 30
ATOM     30  CG  TRP C   1      15.284 -17.309  29.658  1.00 32.35 LIG-0.03  A 
ATOM     31  CD1 TRP C   1      14.164 -18.107  29.691  1.00 34.00 LIG 0.10  A 
ATOM     32  NE1 TRP C   1      13.046 -17.357  29.447  1.00 34.62 LIG-0.36  N 
ATOM     33 HE1  TRP C   1      12.238 -17.652  29.435  1.00 34.62 LIG 0.17  HD
ATOM     34  CE2 TRP C   1      13.422 -16.058  29.225  1.00 29.50 LIG 0.04  A 
ATOM     35  CZ2 TRP C   1      12.651 -14.936  28.969  1.00 29.56 LIG 0.03  A 
ATOM     36  CD2 TRP C   1      14.829 -15.996  29.362  1.00 28.41 LIG-0.00  A 
ATOM     37  CH2 TRP C   1      13.299 -13.754  28.799  1.00 29.15 LIG 0.00  A 
ATOM     38  CZ3 TRP C   1      14.701 -13.663  28.923  1.00 29.71 LIG 0.00  A 
ATOM     39  CE3 TRP C   1      15.462 -14.769  29.198  1.00 28.71 LIG 0.01  A 
ENDBRANCH 29 30
ENDBRANCH 24 29
ENDBRANCH 1 24
TORSDOF 12
ENDMDL
MODEL 30
USER: ADFR SOLUTION from run 185
USER: SCORE 15.021695 LL:  -2.376 LR: -12.712 RR:   0.000 FEB:  -9.133
USER: RMSD 3.298476
USER: SEED 184
USER: STATUS no improvement in best in 13 clusters for 5 generations
USER: GENES 14
USER: genes 0 Translation |==|  0.50355 0.60504 0.44282
USER: genes 1 Rotation |==|  0.92247 0.24581 0.57983 0.52316
USER: genes 2 Torsion [C]-N--CA-[C] |==|  0.13889
USER: genes 3 Torsion [N]-CA--C-[N] |==|  0.12537
USER: genes 4 Torsion [C]-N--CA-[CB] |==|  0.83538
USER: genes 5 Torsion [N]-CA--CB-[CG] |==|  0.90119
USER: genes 6 Torsion [CA]-CB--CG-[CD2] |==|  0.81199
USER: genes 7 Torsion [N]-CA--C-[O] |==|  0.16716
USER: genes 8 Torsion [N]-CA--CB-[CG] |==|  0.77837
USER: genes 9 Torsion [CA]-CB--CG-[CD1] |==|  0.81941
USER: genes 10 Torsion [N]-C--CA-[N] |==|  0.71874
USER: genes 11 Torsion [C]-CA--N-[H3] |==|  0.05480
USER: genes 12 Torsion [C]-CA--CB-[CG] |==|  0.41335
USER: genes 13 Torsion [CA]-CB--CG-[CD2] |==|  0.16200
ROOT
ATOM      1  C   TRP C   1      18.583 -17.627  29.901  1.00 34.42 LIG 0.25  C 
ATOM      2 O    TRP C   1      19.372 -17.430  30.819  1.00 41.57 LIG-0.27  OA
ATOM      3  N   LEU C   2      18.677 -18.635  29.044  1.00 34.28 LIG-0.35  N 
ATOM      4 H    LEU C   2      18.028 -18.874  28.533  1.00 34.28 LIG 0.16  HD
ENDROOT
BRANCH 3 5
ATOM      5  CA  LEU C   2      19.885 -19.447  28.872  1.00 43.88 LIG 0.18  C 
BRANCH 5 6
ATOM      6  C   LEU C   2      20.487 -19.994  30.215  1.00 50.68 LIG 0.24  C 
ATOM      7 O    LEU C   2      21.723 -19.970  30.485  1.00 38.43 LIG-0.27  OA
ATOM      8  N   PHE C   3      19.613 -20.512  31.074  1.00 52.67 LIG-0.35  N 
ATOM      9 H    PHE C   3      18.764 -20.556  30.940  1.00 52.67 LIG 0.16  HD
BRANCH 8 10
ATOM     10  CA  PHE C   3      20.068 -21.060  32.355  1.00 63.47 LIG 0.17  C 
BRANCH 10 11
ATOM     11  CB  PHE C   3      21.071 -22.202  32.145  1.00 59.49 LIG 0.07  C 
BRANCH 11 12
ATOM     12  CG  PHE C   3      20.772 -23.053  30.940  0.00 60.89 LIG-0.06  A 
ATOM     13  CD1 PHE C   3      21.611 -23.038  29.841  0.00 60.45 LIG 0.01  A 
ATOM     14  CE1 PHE C   3      21.328 -23.807  28.724  0.00 60.97 LIG 0.00  A 
ATOM     15  CZ  PHE C   3      20.214 -24.606  28.702  0.00 59.40 LIG 0.00  A 
ATOM     16  CE2 PHE C   3      19.370 -24.635  29.788  0.00 59.26 LIG 0.00  A 
ATOM     17  CD2 PHE C   3      19.648 -23.860  30.902  0.00 60.74 LIG 0.01  A 
ENDBRANCH 11 12
ENDBRANCH 10 11
BRANCH 10 18
ATOM     18  C   PHE C   3      20.672 -19.977  33.262  1.00 72.73 LIG 0.22  C 
ATOM     19 O    PHE C   3      20.010 -19.005  33.635  1.00 72.69 LIG-0.29  OA
ENDBRANCH 10 18
ENDBRANCH 8 10
ENDBRANCH 5 6
BRANCH 5 20
ATOM     20  CB  LEU C   2      20.909 -18.590  28.124  1.00 36.13 LIG 0.04  C 
BRANCH 20 21
ATOM     21  CG  LEU C   2      20.799 -18.434  26.614  1.00 47.78 LIG-0.02  C 
ATOM     22  CD2 LEU C   2      19.450 -17.889  26.281  1.00 53.75 LIG 0.01  C 
ATOM     23  CD1 LEU C   2      21.023 -19.770  25.919  1.00 57.03 LIG 0.01  C 
ENDBRANCH 20 21
ENDBRANCH 5 20
ENDBRANCH 3 5
BRANCH 1 24
ATOM     24  CA  TRP C   1      17.412 -16.710  29.659  1.00 30.44 LIG 0.28  C 
BRANCH 24 25
ATOM     25  N   TRP C   1      17.873 -15.481  28.969  1.00 30.96 LIG-0.07  N 
ATOM     26 H3   TRP C   1      18.660 -15.635  28.583  1.00 30.96 LIG 0.28  HD
ATOM     27 H1   TRP C   1      17.279 -15.248  28.349  1.00 30.96 LIG 0.28  HD
ATOM     28 H2   TRP C   1      17.956 -14.822  29.562  1.00 30.96 LIG 0.28  HD
ENDBRANCH 24 25
BRANCH 24 29
ATOM     29  CB  TRP C   1      16.392 -17.442  28.789  1.00 29.47 LIG 0.08  C 
BRANCH 29 30
ATOM     30  CG  TRP C   1      14.998 -17.070  29.026  1.00 32.35 LIG-0.03  A 
ATOM     31  CD1 TRP C   1      13.957 -17.904  29.366  1.00 34.00 LIG 0.10  A 
ATOM     32  NE1 TRP C   1      12.799 -17.184  29.483  1.00 34.62 LIG-0.36  N 
ATOM     33 HE1  TRP C   1      12.031 -17.504  29.701  1.00 34.62 LIG 0.17  HD
ATOM     34  CE2 TRP C   1      13.061 -15.871  29.194  1.00 29.50 LIG 0.04  A 
ATOM     35  CZ2 TRP C   1      12.221 -14.769  29.206  1.00 29.56 LIG 0.03  A 
ATOM     36  CD2 TRP C   1      14.443 -15.767  28.912  1.00 28.41 LIG-0.00  A 
ATOM     37  CH2 TRP C   1      12.761 -13.564  28.885  1.00 29.15 LIG 0.00  A 
ATOM     38  CZ3 TRP C   1      14.134 -13.431  28.592  1.00 29.71 LIG 0.00  A 
ATOM     39  CE3 TRP C   1      14.969 -14.518  28.601  1.00 28.71 LIG 0.01  A 
ENDBRANCH 29 30
ENDBRANCH 24 29
ENDBRANCH 1 24
TORSDOF 12
ENDMDL
MODEL 31
USER: ADFR SOLUTION from run 14
USER: SCORE 14.324615 LL:  -1.999 LR: -12.696 RR:   0.000 FEB:  -9.116
USER: RMSD 3.756038
USER: SEED 371773
USER: STATUS no improvement in best in 9 clusters for 5 generations
USER: GENES 14
USER: genes 0 Translation |==|  0.53334 0.59122 0.39975
USER: genes 1 Rotation |==|  0.56530 0.47678 0.47947 0.99475
USER: genes 2 Torsion [C]-N--CA-[C] |==|  0.58212
USER: genes 3 Torsion [N]-CA--C-[N] |==|  0.34252
USER: genes 4 Torsion [C]-N--CA-[CB] |==|  0.13469
USER: genes 5 Torsion [N]-CA--CB-[CG] |==|  0.65633
USER: genes 6 Torsion [CA]-CB--CG-[CD2] |==|  0.57169
USER: genes 7 Torsion [N]-CA--C-[O] |==|  0.90367
USER: genes 8 Torsion [N]-CA--CB-[CG] |==|  0.70890
USER: genes 9 Torsion [CA]-CB--CG-[CD1] |==|  0.93423
USER: genes 10 Torsion [N]-C--CA-[N] |==|  0.49851
USER: genes 11 Torsion [C]-CA--N-[H3] |==|  0.53666
USER: genes 12 Torsion [C]-CA--CB-[CG] |==|  0.55245
USER: genes 13 Torsion [CA]-CB--CG-[CD2] |==|  0.85580
ROOT
ATOM      1  C   TRP C   1      19.186 -17.907  29.190  1.00 34.42 LIG 0.25  C 
ATOM      2 O    TRP C   1      19.665 -18.591  28.291  1.00 41.57 LIG-0.27  OA
ATOM      3  N   LEU C   2      19.724 -17.784  30.396  1.00 34.28 LIG-0.35  N 
ATOM      4 H    LEU C   2      19.495 -17.164  30.947  1.00 34.28 LIG 0.16  HD
ENDROOT
BRANCH 3 5
ATOM      5  CA  LEU C   2      20.759 -18.678  30.921  1.00 43.88 LIG 0.18  C 
BRANCH 5 6
ATOM      6  C   LEU C   2      20.731 -18.844  32.483  1.00 50.68 LIG 0.24  C 
ATOM      7 O    LEU C   2      20.829 -17.873  33.288  1.00 38.43 LIG-0.27  OA
ATOM      8  N   PHE C   3      20.610 -20.091  32.931  1.00 52.67 LIG-0.35  N 
ATOM      9 H    PHE C   3      20.543 -20.787  32.430  1.00 52.67 LIG 0.16  HD
BRANCH 8 10
ATOM     10  CA  PHE C   3      20.583 -20.361  34.372  1.00 63.47 LIG 0.17  C 
BRANCH 10 11
ATOM     11  CB  PHE C   3      19.596 -19.433  35.092  1.00 59.49 LIG 0.07  C 
BRANCH 11 12
ATOM     12  CG  PHE C   3      20.221 -18.632  36.202  0.00 60.89 LIG-0.06  A 
ATOM     13  CD1 PHE C   3      21.574 -18.344  36.189  0.00 60.45 LIG 0.01  A 
ATOM     14  CE1 PHE C   3      22.154 -17.622  37.219  0.00 60.97 LIG 0.00  A 
ATOM     15  CZ  PHE C   3      21.386 -17.171  38.261  0.00 59.40 LIG 0.00  A 
ATOM     16  CE2 PHE C   3      20.038 -17.446  38.289  0.00 59.26 LIG 0.00  A 
ATOM     17  CD2 PHE C   3      19.459 -18.175  37.264  0.00 60.74 LIG 0.01  A 
ENDBRANCH 11 12
ENDBRANCH 10 11
BRANCH 10 18
ATOM     18  C   PHE C   3      20.255 -21.831  34.676  1.00 72.73 LIG 0.22  C 
ATOM     19 O    PHE C   3      19.476 -22.477  33.969  1.00 72.69 LIG-0.29  OA
ENDBRANCH 10 18
ENDBRANCH 8 10
ENDBRANCH 5 6
BRANCH 5 20
ATOM     20  CB  LEU C   2      22.111 -18.136  30.455  1.00 36.13 LIG 0.04  C 
BRANCH 20 21
ATOM     21  CG  LEU C   2      22.853 -18.837  29.326  1.00 47.78 LIG-0.02  C 
ATOM     22  CD2 LEU C   2      22.587 -18.112  28.049  1.00 53.75 LIG 0.01  C 
ATOM     23  CD1 LEU C   2      22.414 -20.291  29.217  1.00 57.03 LIG 0.01  C 
ENDBRANCH 20 21
ENDBRANCH 5 20
ENDBRANCH 3 5
BRANCH 1 24
ATOM     24  CA  TRP C   1      17.907 -17.134  28.995  1.00 30.44 LIG 0.28  C 
BRANCH 24 25
ATOM     25  N   TRP C   1      17.406 -17.335  27.614  1.00 30.96 LIG-0.07  N 
ATOM     26 H3   TRP C   1      16.769 -16.738  27.440  1.00 30.96 LIG 0.28  HD
ATOM     27 H1   TRP C   1      18.076 -17.231  27.037  1.00 30.96 LIG 0.28  HD
ATOM     28 H2   TRP C   1      17.073 -18.157  27.536  1.00 30.96 LIG 0.28  HD
ENDBRANCH 24 25
BRANCH 24 29
ATOM     29  CB  TRP C   1      16.875 -17.641  30.000  1.00 29.47 LIG 0.08  C 
BRANCH 29 30
ATOM     30  CG  TRP C   1      15.486 -17.320  29.675  1.00 32.35 LIG-0.03  A 
ATOM     31  CD1 TRP C   1      14.428 -18.194  29.574  1.00 34.00 LIG 0.10  A 
ATOM     32  NE1 TRP C   1      13.290 -17.516  29.233  1.00 34.62 LIG-0.36  N 
ATOM     33 HE1  TRP C   1      12.511 -17.866  29.131  1.00 34.62 LIG 0.17  HD
ATOM     34  CE2 TRP C   1      13.593 -16.189  29.079  1.00 29.50 LIG 0.04  A 
ATOM     35  CZ2 TRP C   1      12.774 -15.116  28.769  1.00 29.56 LIG 0.03  A 
ATOM     36  CD2 TRP C   1      14.971 -16.034  29.361  1.00 28.41 LIG-0.00  A 
ATOM     37  CH2 TRP C   1      13.349 -13.887  28.693  1.00 29.15 LIG 0.00  A 
ATOM     38  CZ3 TRP C   1      14.721 -13.703  28.962  1.00 29.71 LIG 0.00  A 
ATOM     39  CE3 TRP C   1      15.527 -14.762  29.290  1.00 28.71 LIG 0.01  A 
ENDBRANCH 29 30
ENDBRANCH 24 29
ENDBRANCH 1 24
TORSDOF 12
ENDMDL
MODEL 32
USER: ADFR SOLUTION from run 188
USER: SCORE 15.189379 LL:  -2.596 LR: -12.686 RR:   0.000 FEB:  -9.106
USER: RMSD 5.789130
USER: SEED 187
USER: STATUS no improvement in best in 5 clusters for 5 generations
USER: GENES 14
USER: genes 0 Translation |==|  0.51285 0.57454 0.37927
USER: genes 1 Rotation |==|  0.28230 0.89220 0.51334 0.72047
USER: genes 2 Torsion [C]-N--CA-[C] |==|  0.78645
USER: genes 3 Torsion [N]-CA--C-[N] |==|  0.89472
USER: genes 4 Torsion [C]-N--CA-[CB] |==|  0.78499
USER: genes 5 Torsion [N]-CA--CB-[CG] |==|  0.89579
USER: genes 6 Torsion [CA]-CB--CG-[CD2] |==|  0.83014
USER: genes 7 Torsion [N]-CA--C-[O] |==|  0.24438
USER: genes 8 Torsion [N]-CA--CB-[CG] |==|  0.64384
USER: genes 9 Torsion [CA]-CB--CG-[CD1] |==|  0.22037
USER: genes 10 Torsion [N]-C--CA-[N] |==|  0.04150
USER: genes 11 Torsion [C]-CA--N-[H3] |==|  0.48750
USER: genes 12 Torsion [C]-CA--CB-[CG] |==|  0.78238
USER: genes 13 Torsion [CA]-CB--CG-[CD2] |==|  0.80642
ROOT
ATOM      1  C   TRP C   1      18.771 -18.244  28.852  1.00 34.42 LIG 0.25  C 
ATOM      2 O    TRP C   1      18.777 -19.400  29.264  1.00 41.57 LIG-0.27  OA
ATOM      3  N   LEU C   2      19.011 -17.904  27.593  1.00 34.28 LIG-0.35  N 
ATOM      4 H    LEU C   2      18.819 -17.128  27.275  1.00 34.28 LIG 0.16  HD
ENDROOT
BRANCH 3 5
ATOM      5  CA  LEU C   2      19.623 -18.801  26.609  1.00 43.88 LIG 0.18  C 
BRANCH 5 6
ATOM      6  C   LEU C   2      21.178 -18.966  26.771  1.00 50.68 LIG 0.24  C 
ATOM      7 O    LEU C   2      21.782 -20.065  26.604  1.00 38.43 LIG-0.27  OA
ATOM      8  N   PHE C   3      21.844 -17.867  27.116  1.00 52.67 LIG-0.35  N 
ATOM      9 H    PHE C   3      21.483 -17.097  27.245  1.00 52.67 LIG 0.16  HD
BRANCH 8 10
ATOM     10  CA  PHE C   3      23.297 -17.910  27.303  1.00 63.47 LIG 0.17  C 
BRANCH 10 11
ATOM     11  CB  PHE C   3      23.664 -18.542  28.652  1.00 59.49 LIG 0.07  C 
BRANCH 11 12
ATOM     12  CG  PHE C   3      22.723 -18.174  29.767  0.00 60.89 LIG-0.06  A 
ATOM     13  CD1 PHE C   3      21.990 -19.147  30.421  0.00 60.45 LIG 0.01  A 
ATOM     14  CE1 PHE C   3      21.109 -18.807  31.435  0.00 60.97 LIG 0.00  A 
ATOM     15  CZ  PHE C   3      20.966 -17.497  31.813  0.00 59.40 LIG 0.00  A 
ATOM     16  CE2 PHE C   3      21.690 -16.517  31.175  0.00 59.26 LIG 0.00  A 
ATOM     17  CD2 PHE C   3      22.563 -16.854  30.155  0.00 60.74 LIG 0.01  A 
ENDBRANCH 11 12
ENDBRANCH 10 11
BRANCH 10 18
ATOM     18  C   PHE C   3      24.003 -18.648  26.155  1.00 72.73 LIG 0.22  C 
ATOM     19 O    PHE C   3      24.361 -18.058  25.132  1.00 72.69 LIG-0.29  OA
ENDBRANCH 10 18
ENDBRANCH 8 10
ENDBRANCH 5 6
BRANCH 5 20
ATOM     20  CB  LEU C   2      19.274 -18.263  25.221  1.00 36.13 LIG 0.04  C 
BRANCH 20 21
ATOM     21  CG  LEU C   2      18.656 -19.195  24.188  1.00 47.78 LIG-0.02  C 
ATOM     22  CD2 LEU C   2      18.880 -18.626  22.827  1.00 53.75 LIG 0.01  C 
ATOM     23  CD1 LEU C   2      17.167 -19.379  24.452  1.00 57.03 LIG 0.01  C 
ENDBRANCH 20 21
ENDBRANCH 5 20
ENDBRANCH 3 5
BRANCH 1 24
ATOM     24  CA  TRP C   1      18.490 -17.083  29.770  1.00 30.44 LIG 0.28  C 
BRANCH 24 25
ATOM     25  N   TRP C   1      18.199 -15.870  28.969  1.00 30.96 LIG-0.07  N 
ATOM     26 H3   TRP C   1      17.970 -15.203  29.512  1.00 30.96 LIG 0.28  HD
ATOM     27 H1   TRP C   1      18.923 -15.640  28.505  1.00 30.96 LIG 0.28  HD
ATOM     28 H2   TRP C   1      17.529 -16.039  28.407  1.00 30.96 LIG 0.28  HD
ENDBRANCH 24 25
BRANCH 24 29
ATOM     29  CB  TRP C   1      17.285 -17.432  30.640  1.00 29.47 LIG 0.08  C 
BRANCH 29 30
ATOM     30  CG  TRP C   1      15.986 -17.299  29.980  1.00 32.35 LIG-0.03  A 
ATOM     31  CD1 TRP C   1      15.145 -18.311  29.578  1.00 34.00 LIG 0.10  A 
ATOM     32  NE1 TRP C   1      14.032 -17.786  28.980  1.00 34.62 LIG-0.36  N 
ATOM     33 HE1  TRP C   1      13.370 -18.239  28.668  1.00 34.62 LIG 0.17  HD
ATOM     34  CE2 TRP C   1      14.141 -16.420  28.959  1.00 29.50 LIG 0.04  A 
ATOM     35  CZ2 TRP C   1      13.259 -15.461  28.488  1.00 29.56 LIG 0.03  A 
ATOM     36  CD2 TRP C   1      15.361 -16.084  29.592  1.00 28.41 LIG-0.00  A 
ATOM     37  CH2 TRP C   1      13.626 -14.158  28.608  1.00 29.15 LIG 0.00  A 
ATOM     38  CZ3 TRP C   1      14.838 -13.793  29.228  1.00 29.71 LIG 0.00  A 
ATOM     39  CE3 TRP C   1      15.700 -14.741  29.714  1.00 28.71 LIG 0.01  A 
ENDBRANCH 29 30
ENDBRANCH 24 29
ENDBRANCH 1 24
TORSDOF 12
ENDMDL
MODEL 33
USER: ADFR SOLUTION from run 35
USER: SCORE 14.564262 LL:  -2.188 LR: -12.645 RR:   0.000 FEB:  -9.065
USER: RMSD 5.991042
USER: SEED 34
USER: STATUS no improvement in best in 16 clusters for 5 generations
USER: GENES 14
USER: genes 0 Translation |==|  0.46432 0.58243 0.40832
USER: genes 1 Rotation |==|  0.25945 0.76811 0.45462 0.84379
USER: genes 2 Torsion [C]-N--CA-[C] |==|  0.77778
USER: genes 3 Torsion [N]-CA--C-[N] |==|  0.03247
USER: genes 4 Torsion [C]-N--CA-[CB] |==|  0.31253
USER: genes 5 Torsion [N]-CA--CB-[CG] |==|  0.68313
USER: genes 6 Torsion [CA]-CB--CG-[CD2] |==|  0.64560
USER: genes 7 Torsion [N]-CA--C-[O] |==|  0.96127
USER: genes 8 Torsion [N]-CA--CB-[CG] |==|  0.76431
USER: genes 9 Torsion [CA]-CB--CG-[CD1] |==|  0.81725
USER: genes 10 Torsion [N]-C--CA-[N] |==|  0.68934
USER: genes 11 Torsion [C]-CA--N-[H3] |==|  0.41970
USER: genes 12 Torsion [C]-CA--CB-[CG] |==|  0.42950
USER: genes 13 Torsion [CA]-CB--CG-[CD2] |==|  0.95906
ROOT
ATOM      1  C   TRP C   1      17.789 -18.085  29.331  1.00 34.42 LIG 0.25  C 
ATOM      2 O    TRP C   1      17.706 -19.249  29.710  1.00 41.57 LIG-0.27  OA
ATOM      3  N   LEU C   2      18.742 -17.631  28.529  1.00 34.28 LIG-0.35  N 
ATOM      4 H    LEU C   2      18.687 -16.876  28.120  1.00 34.28 LIG 0.16  HD
ENDROOT
BRANCH 3 5
ATOM      5  CA  LEU C   2      19.985 -18.355  28.251  1.00 43.88 LIG 0.18  C 
BRANCH 5 6
ATOM      6  C   LEU C   2      21.074 -18.218  29.375  1.00 50.68 LIG 0.24  C 
ATOM      7 O    LEU C   2      22.272 -18.597  29.233  1.00 38.43 LIG-0.27  OA
ATOM      8  N   PHE C   3      20.659 -17.683  30.521  1.00 52.67 LIG-0.35  N 
ATOM      9 H    PHE C   3      19.857 -17.412  30.671  1.00 52.67 LIG 0.16  HD
BRANCH 8 10
ATOM     10  CA  PHE C   3      21.590 -17.517  31.641  1.00 63.47 LIG 0.17  C 
BRANCH 10 11
ATOM     11  CB  PHE C   3      21.863 -16.033  31.921  1.00 59.49 LIG 0.07  C 
BRANCH 11 12
ATOM     12  CG  PHE C   3      23.284 -15.620  31.650  0.00 60.89 LIG-0.06  A 
ATOM     13  CD1 PHE C   3      23.882 -15.903  30.435  0.00 60.45 LIG 0.01  A 
ATOM     14  CE1 PHE C   3      25.196 -15.538  30.191  0.00 60.97 LIG 0.00  A 
ATOM     15  CZ  PHE C   3      25.917 -14.876  31.151  0.00 59.40 LIG 0.00  A 
ATOM     16  CE2 PHE C   3      25.337 -14.585  32.364  0.00 59.26 LIG 0.00  A 
ATOM     17  CD2 PHE C   3      24.027 -14.956  32.612  0.00 60.74 LIG 0.01  A 
ENDBRANCH 11 12
ENDBRANCH 10 11
BRANCH 10 18
ATOM     18  C   PHE C   3      21.090 -18.219  32.913  1.00 72.73 LIG 0.22  C 
ATOM     19 O    PHE C   3      19.926 -18.615  33.016  1.00 72.69 LIG-0.29  OA
ENDBRANCH 10 18
ENDBRANCH 8 10
ENDBRANCH 5 6
BRANCH 5 20
ATOM     20  CB  LEU C   2      20.519 -17.847  26.910  1.00 36.13 LIG 0.04  C 
BRANCH 20 21
ATOM     21  CG  LEU C   2      20.003 -18.458  25.615  1.00 47.78 LIG-0.02  C 
ATOM     22  CD2 LEU C   2      18.516 -18.336  25.581  1.00 53.75 LIG 0.01  C 
ATOM     23  CD1 LEU C   2      20.423 -19.918  25.507  1.00 57.03 LIG 0.01  C 
ENDBRANCH 20 21
ENDBRANCH 5 20
ENDBRANCH 3 5
BRANCH 1 24
ATOM     24  CA  TRP C   1      16.789 -17.044  29.765  1.00 30.44 LIG 0.28  C 
BRANCH 24 25
ATOM     25  N   TRP C   1      16.939 -16.779  31.215  1.00 30.96 LIG-0.07  N 
ATOM     26 H3   TRP C   1      16.694 -15.942  31.391  1.00 30.96 LIG 0.28  HD
ATOM     27 H1   TRP C   1      16.423 -17.342  31.675  1.00 30.96 LIG 0.28  HD
ATOM     28 H2   TRP C   1      17.789 -16.896  31.452  1.00 30.96 LIG 0.28  HD
ENDBRANCH 24 25
BRANCH 24 29
ATOM     29  CB  TRP C   1      17.048 -15.763  28.974  1.00 29.47 LIG 0.08  C 
BRANCH 29 30
ATOM     30  CG  TRP C   1      15.888 -14.885  28.822  1.00 32.35 LIG-0.03  A 
ATOM     31  CD1 TRP C   1      15.886 -13.560  28.452  1.00 34.00 LIG 0.10  A 
ATOM     32  NE1 TRP C   1      14.605 -13.078  28.441  1.00 34.62 LIG-0.36  N 
ATOM     33 HE1  TRP C   1      14.373 -12.278  28.225  1.00 34.62 LIG 0.17  HD
ATOM     34  CE2 TRP C   1      13.752 -14.077  28.829  1.00 29.50 LIG 0.04  A 
ATOM     35  CZ2 TRP C   1      12.371 -14.079  28.942  1.00 29.56 LIG 0.03  A 
ATOM     36  CD2 TRP C   1      14.533 -15.232  29.067  1.00 28.41 LIG-0.00  A 
ATOM     37  CH2 TRP C   1      11.774 -15.231  29.343  1.00 29.15 LIG 0.00  A 
ATOM     38  CZ3 TRP C   1      12.528 -16.397  29.594  1.00 29.71 LIG 0.00  A 
ATOM     39  CE3 TRP C   1      13.892 -16.402  29.462  1.00 28.71 LIG 0.01  A 
ENDBRANCH 29 30
ENDBRANCH 24 29
ENDBRANCH 1 24
TORSDOF 12
ENDMDL
MODEL 34
USER: ADFR SOLUTION from run 139
USER: SCORE 14.525380 LL:  -2.088 LR: -12.615 RR:   0.000 FEB:  -9.036
USER: RMSD 1.207591
USER: SEED 138
USER: STATUS no improvement in best in 6 clusters for 5 generations
USER: GENES 14
USER: genes 0 Translation |==|  0.52920 0.60180 0.41062
USER: genes 1 Rotation |==|  0.50000 0.48185 0.51231 0.99952
USER: genes 2 Torsion [C]-N--CA-[C] |==|  0.75830
USER: genes 3 Torsion [N]-CA--C-[N] |==|  0.28966
USER: genes 4 Torsion [C]-N--CA-[CB] |==|  0.45063
USER: genes 5 Torsion [N]-CA--CB-[CG] |==|  0.34118
USER: genes 6 Torsion [CA]-CB--CG-[CD2] |==|  0.74382
USER: genes 7 Torsion [N]-CA--C-[O] |==|  0.06478
USER: genes 8 Torsion [N]-CA--CB-[CG] |==|  0.49049
USER: genes 9 Torsion [CA]-CB--CG-[CD1] |==|  0.35962
USER: genes 10 Torsion [N]-C--CA-[N] |==|  0.46145
USER: genes 11 Torsion [C]-CA--N-[H3] |==|  0.17075
USER: genes 12 Torsion [C]-CA--CB-[CG] |==|  0.49743
USER: genes 13 Torsion [CA]-CB--CG-[CD2] |==|  0.88894
ROOT
ATOM      1  C   TRP C   1      19.102 -17.693  29.369  1.00 34.42 LIG 0.25  C 
ATOM      2 O    TRP C   1      19.662 -18.528  28.668  1.00 41.57 LIG-0.27  OA
ATOM      3  N   LEU C   2      19.619 -17.193  30.484  1.00 34.28 LIG-0.35  N 
ATOM      4 H    LEU C   2      19.315 -16.481  30.860  1.00 34.28 LIG 0.16  HD
ENDROOT
BRANCH 3 5
ATOM      5  CA  LEU C   2      20.754 -17.788  31.194  1.00 43.88 LIG 0.18  C 
BRANCH 5 6
ATOM      6  C   LEU C   2      20.352 -18.899  32.229  1.00 50.68 LIG 0.24  C 
ATOM      7 O    LEU C   2      19.851 -18.645  33.363  1.00 38.43 LIG-0.27  OA
ATOM      8  N   PHE C   3      20.583 -20.154  31.852  1.00 52.67 LIG-0.35  N 
ATOM      9 H    PHE C   3      20.923 -20.382  31.096  1.00 52.67 LIG 0.16  HD
BRANCH 8 10
ATOM     10  CA  PHE C   3      20.254 -21.269  32.746  1.00 63.47 LIG 0.17  C 
BRANCH 10 11
ATOM     11  CB  PHE C   3      20.183 -22.594  31.976  1.00 59.49 LIG 0.07  C 
BRANCH 11 12
ATOM     12  CG  PHE C   3      21.117 -23.649  32.504  0.00 60.89 LIG-0.06  A 
ATOM     13  CD1 PHE C   3      20.724 -24.491  33.529  0.00 60.45 LIG 0.01  A 
ATOM     14  CE1 PHE C   3      21.589 -25.451  34.028  0.00 60.97 LIG 0.00  A 
ATOM     15  CZ  PHE C   3      22.846 -25.587  33.498  0.00 59.40 LIG 0.00  A 
ATOM     16  CE2 PHE C   3      23.253 -24.760  32.478  0.00 59.26 LIG 0.00  A 
ATOM     17  CD2 PHE C   3      22.392 -23.794  31.984  0.00 60.74 LIG 0.01  A 
ENDBRANCH 11 12
ENDBRANCH 10 11
BRANCH 10 18
ATOM     18  C   PHE C   3      21.246 -21.380  33.914  1.00 72.73 LIG 0.22  C 
ATOM     19 O    PHE C   3      21.907 -20.411  34.294  1.00 72.69 LIG-0.29  OA
ENDBRANCH 10 18
ENDBRANCH 8 10
ENDBRANCH 5 6
BRANCH 5 20
ATOM     20  CB  LEU C   2      21.510 -16.650  31.882  1.00 36.13 LIG 0.04  C 
BRANCH 20 21
ATOM     21  CG  LEU C   2      22.705 -16.970  32.769  1.00 47.78 LIG-0.02  C 
ATOM     22  CD2 LEU C   2      22.329 -16.728  34.193  1.00 53.75 LIG 0.01  C 
ATOM     23  CD1 LEU C   2      23.906 -16.118  32.380  1.00 57.03 LIG 0.01  C 
ENDBRANCH 20 21
ENDBRANCH 5 20
ENDBRANCH 3 5
BRANCH 1 24
ATOM     24  CA  TRP C   1      17.739 -17.156  29.017  1.00 30.44 LIG 0.28  C 
BRANCH 24 25
ATOM     25  N   TRP C   1      17.406 -17.512  27.618  1.00 30.96 LIG-0.07  N 
ATOM     26 H3   TRP C   1      17.385 -18.398  27.534  1.00 30.96 LIG 0.28  HD
ATOM     27 H1   TRP C   1      16.610 -17.175  27.406  1.00 30.96 LIG 0.28  HD
ATOM     28 H2   TRP C   1      18.024 -17.177  27.072  1.00 30.96 LIG 0.28  HD
ENDBRANCH 24 25
BRANCH 24 29
ATOM     29  CB  TRP C   1      16.714 -17.771  29.968  1.00 29.47 LIG 0.08  C 
BRANCH 29 30
ATOM     30  CG  TRP C   1      15.336 -17.327  29.763  1.00 32.35 LIG-0.03  A 
ATOM     31  CD1 TRP C   1      14.196 -18.098  29.788  1.00 34.00 LIG 0.10  A 
ATOM     32  NE1 TRP C   1      13.099 -17.321  29.532  1.00 34.62 LIG-0.36  N 
ATOM     33 HE1  TRP C   1      12.284 -17.597  29.514  1.00 34.62 LIG 0.17  HD
ATOM     34  CE2 TRP C   1      13.508 -16.033  29.310  1.00 29.50 LIG 0.04  A 
ATOM     35  CZ2 TRP C   1      12.767 -14.893  29.045  1.00 29.56 LIG 0.03  A 
ATOM     36  CD2 TRP C   1      14.915 -16.004  29.459  1.00 28.41 LIG-0.00  A 
ATOM     37  CH2 TRP C   1      13.444 -13.727  28.878  1.00 29.15 LIG 0.00  A 
ATOM     38  CZ3 TRP C   1      14.847 -13.670  29.013  1.00 29.71 LIG 0.00  A 
ATOM     39  CE3 TRP C   1      15.578 -14.793  29.297  1.00 28.71 LIG 0.01  A 
ENDBRANCH 29 30
ENDBRANCH 24 29
ENDBRANCH 1 24
TORSDOF 12
ENDMDL
