MODEL 1
USER: ADFR SOLUTION from run 148
USER: SCORE 13.159868 LL:  -1.419 LR: -13.080 RR:   0.000 FEB:  -9.202
USER: RMSD 5.337501
USER: SEED 147
USER: STATUS searching
USER: GENES 15
USER: genes 0 Translation |==|  0.42511 0.41072 0.40548
USER: genes 1 Rotation |==|  0.64084 0.65945 0.36317 0.93130
USER: genes 2 Torsion [C]-CA--CB-[CG] |==|  0.42220
USER: genes 3 Torsion [CA]-CB--CG-[CD] |==|  0.25773
USER: genes 4 Torsion [CB]-CG--CD-[NE] |==|  0.23194
USER: genes 5 Torsion [CG]-CD--NE-[HE] |==|  0.88979
USER: genes 6 Torsion [N]-CA--C-[N] |==|  0.08726
USER: genes 7 Torsion [C]-N--CA-[C] |==|  0.25908
USER: genes 8 Torsion [N]-CA--C-[N] |==|  0.42613
USER: genes 9 Torsion [C]-N--CA-[C] |==|  0.80796
USER: genes 10 Torsion [N]-CA--C-[O] |==|  0.48718
USER: genes 11 Torsion [CB]-CA--N-[C] |==|  0.84442
USER: genes 12 Torsion [N]-C--CA-[N] |==|  0.65124
USER: genes 13 Torsion [C]-CA--CB-[CG] |==|  0.28015
USER: genes 14 Torsion [CA]-CB--CG-[CD2] |==|  0.62840
ROOT
ATOM      1  CA  ARG H  74      -8.577   3.806  -1.509  1.00 20.60 LIG 0.18  C 
ENDROOT
BRANCH 1 2
ATOM      2  CB  ARG H  74      -7.817   4.840  -0.663  1.00 19.81 LIG 0.04  C 
BRANCH 2 3
ATOM      3  CG  ARG H  74      -7.053   4.271   0.560  1.00 18.47 LIG 0.02  C 
BRANCH 3 4
ATOM      4  CD  ARG H  74      -5.605   3.941   0.219  1.00 18.94 LIG 0.14  C 
BRANCH 4 5
ATOM      5  NE  ARG H  74      -4.734   5.117   0.302  1.00 19.12 LIG-0.23  N 
ATOM      6 HE   ARG H  74      -5.041   5.866   0.013  1.00 19.12 LIG 0.18  HD
ATOM      7  CZ  ARG H  74      -3.497   5.100   0.796  1.00 19.95 LIG 0.67  C 
ATOM      8  NH1 ARG H  74      -2.989   3.973   1.289  1.00 19.07 LIG-0.23  N 
ATOM      9  NH2 ARG H  74      -2.773   6.220   0.809  1.00 20.02 LIG-0.23  N 
ATOM     10 2HH1 ARG H  74      -2.191   3.964   1.608  1.00 19.07 LIG 0.17  HD
ATOM     11 1HH1 ARG H  74      -3.460   3.254   1.290  1.00 19.07 LIG 0.17  HD
ATOM     12 1HH2 ARG H  74      -3.105   6.950   0.499  1.00 20.02 LIG 0.17  HD
ATOM     13 2HH2 ARG H  74      -1.974   6.211   1.128  1.00 20.02 LIG 0.17  HD
ENDBRANCH 4 5
ENDBRANCH 3 4
ENDBRANCH 2 3
ENDBRANCH 1 2
BRANCH 1 14
ATOM     14  C   ARG H  74      -9.781   4.464  -2.192  1.00 20.00 LIG 0.24  C 
ATOM     15  N   GLY H  75     -10.206   3.950  -3.340  1.00 19.10 LIG-0.35  N 
ATOM     16 H    GLY H  75      -9.848   3.274  -3.733  1.00 19.10 LIG 0.16  HD
ATOM     17 O    ARG H  74     -10.300   5.454  -1.696  1.00 20.55 LIG-0.27  OA
BRANCH 15 18
ATOM     18  CA  GLY H  75     -11.365   4.530  -4.038  1.00 17.93 LIG 0.23  C 
BRANCH 18 19
ATOM     19  C   GLY H  75     -10.961   5.568  -5.076  1.00 17.33 LIG 0.23  C 
ATOM     20  N   GLY H  76     -11.802   5.741  -6.097  1.00 16.80 LIG-0.35  N 
ATOM     21 H    GLY H  76     -12.514   5.277  -6.225  1.00 16.80 LIG 0.16  HD
ATOM     22 O    GLY H  75      -9.901   6.202  -4.966  1.00 16.80 LIG-0.27  OA
BRANCH 20 23
ATOM     23  CA  GLY H  76     -11.552   6.767  -7.094  1.00 16.50 LIG 0.23  C 
BRANCH 23 24
ATOM     24  C   GLY H  76     -11.705   8.195  -6.606  1.00 16.76 LIG 0.19  C 
ATOM     25 O    GLY H  76     -11.429   9.120  -7.363  1.00 16.89 LIG-0.65  OA
ATOM     26 OXT  GLY H  76     -12.104   8.436  -5.460  1.00 15.95 LIG-0.65  OA
ENDBRANCH 23 24
ENDBRANCH 20 23
ENDBRANCH 18 19
ENDBRANCH 15 18
ENDBRANCH 1 14
BRANCH 1 27
ATOM     27  N   ARG H  74      -7.719   3.264  -2.572  1.00 22.12 LIG-0.35  N 
ATOM     28 H    ARG H  74      -7.641   2.408  -2.569  1.00 22.12 LIG 0.16  HD
ATOM     29  C   LEU H  73      -7.125   4.069  -3.451  1.00 24.75 LIG 0.26  C 
ATOM     30 O    LEU H  73      -7.531   5.211  -3.659  1.00 25.51 LIG-0.27  OA
BRANCH 29 31
ATOM     31  CA  LEU H  73      -5.905   3.521  -4.223  1.00 25.64 LIG 0.40  C 
ATOM     32  N   LEU H  73      -4.662   4.342  -4.139  1.00 27.50 LIG 0.61  N 
BRANCH 31 33
ATOM     33  CB  LEU H  73      -5.613   2.056  -3.853  1.00 26.32 LIG 0.06  C 
BRANCH 33 34
ATOM     34  CG  LEU H  73      -5.992   0.818  -4.674  1.00 25.96 LIG-0.02  C 
ATOM     35  CD2 LEU H  73      -6.603  -0.196  -3.715  1.00 27.32 LIG 0.01  C 
ATOM     36  CD1 LEU H  73      -4.812   0.213  -5.357  1.00 27.59 LIG 0.01  C 
ENDBRANCH 33 34
ENDBRANCH 31 33
ENDBRANCH 29 31
ENDBRANCH 1 27
TORSDOF 13
ENDMDL
MODEL 2
USER: ADFR SOLUTION from run 164
USER: SCORE 13.634773 LL:  -1.409 LR: -12.933 RR:   0.000 FEB:  -9.055
USER: RMSD 6.076626
USER: SEED 163
USER: STATUS 1 or 2 clusters left
USER: GENES 15
USER: genes 0 Translation |==|  0.46167 0.47283 0.40820
USER: genes 1 Rotation |==|  0.20619 0.48782 0.11384 0.62003
USER: genes 2 Torsion [C]-CA--CB-[CG] |==|  0.21327
USER: genes 3 Torsion [CA]-CB--CG-[CD] |==|  0.52654
USER: genes 4 Torsion [CB]-CG--CD-[NE] |==|  0.00265
USER: genes 5 Torsion [CG]-CD--NE-[HE] |==|  0.92595
USER: genes 6 Torsion [N]-CA--C-[N] |==|  0.64462
USER: genes 7 Torsion [C]-N--CA-[C] |==|  0.26133
USER: genes 8 Torsion [N]-CA--C-[N] |==|  0.48323
USER: genes 9 Torsion [C]-N--CA-[C] |==|  0.82439
USER: genes 10 Torsion [N]-CA--C-[O] |==|  0.93682
USER: genes 11 Torsion [CB]-CA--N-[C] |==|  0.15084
USER: genes 12 Torsion [N]-C--CA-[N] |==|  0.48586
USER: genes 13 Torsion [C]-CA--CB-[CG] |==|  0.10772
USER: genes 14 Torsion [CA]-CB--CG-[CD2] |==|  0.73721
ROOT
ATOM      1  CA  ARG H  74      -7.919   4.691  -1.454  1.00 20.60 LIG 0.18  C 
ENDROOT
BRANCH 1 2
ATOM      2  CB  ARG H  74      -7.110   3.578  -2.140  1.00 19.81 LIG 0.04  C 
BRANCH 2 3
ATOM      3  CG  ARG H  74      -6.399   3.984  -3.457  1.00 18.47 LIG 0.02  C 
BRANCH 3 4
ATOM      4  CD  ARG H  74      -5.823   2.776  -4.184  1.00 18.94 LIG 0.14  C 
BRANCH 4 5
ATOM      5  NE  ARG H  74      -6.097   1.521  -3.479  1.00 19.12 LIG-0.23  N 
ATOM      6 HE   ARG H  74      -6.211   1.555  -2.627  1.00 19.12 LIG 0.18  HD
ATOM      7  CZ  ARG H  74      -6.181   0.331  -4.071  1.00 19.95 LIG 0.67  C 
ATOM      8  NH1 ARG H  74      -6.049   0.230  -5.392  1.00 19.07 LIG-0.23  N 
ATOM      9  NH2 ARG H  74      -6.414  -0.759  -3.339  1.00 20.02 LIG-0.23  N 
ATOM     10 2HH1 ARG H  74      -6.104  -0.539  -5.772  1.00 19.07 LIG 0.17  HD
ATOM     11 1HH1 ARG H  74      -5.908   0.935  -5.864  1.00 19.07 LIG 0.17  HD
ATOM     12 1HH2 ARG H  74      -6.510  -0.693  -2.487  1.00 20.02 LIG 0.17  HD
ATOM     13 2HH2 ARG H  74      -6.469  -1.528  -3.720  1.00 20.02 LIG 0.17  HD
ENDBRANCH 4 5
ENDBRANCH 3 4
ENDBRANCH 2 3
ENDBRANCH 1 2
BRANCH 1 14
ATOM     14  C   ARG H  74      -9.247   4.907  -2.187  1.00 20.00 LIG 0.24  C 
ATOM     15  N   GLY H  75      -9.443   4.258  -3.329  1.00 19.10 LIG-0.35  N 
ATOM     16 H    GLY H  75      -8.872   3.727  -3.692  1.00 19.10 LIG 0.16  HD
ATOM     17 O    ARG H  74     -10.076   5.684  -1.735  1.00 20.55 LIG-0.27  OA
BRANCH 15 18
ATOM     18  CA  GLY H  75     -10.703   4.414  -4.073  1.00 17.93 LIG 0.23  C 
BRANCH 18 19
ATOM     19  C   GLY H  75     -10.618   5.491  -5.146  1.00 17.33 LIG 0.23  C 
ATOM     20  N   GLY H  76     -11.675   5.612  -5.950  1.00 16.80 LIG-0.35  N 
ATOM     21 H    GLY H  76     -12.363   5.096  -5.929  1.00 16.80 LIG 0.16  HD
ATOM     22 O    GLY H  75      -9.608   6.203  -5.257  1.00 16.80 LIG-0.27  OA
BRANCH 20 23
ATOM     23  CA  GLY H  76     -11.729   6.665  -6.948  1.00 16.50 LIG 0.23  C 
BRANCH 23 24
ATOM     24  C   GLY H  76     -11.730   8.078  -6.399  1.00 16.76 LIG 0.19  C 
ATOM     25 O    GLY H  76     -12.104   8.273  -5.246  1.00 16.89 LIG-0.65  OA
ATOM     26 OXT  GLY H  76     -11.360   9.031  -7.095  1.00 15.95 LIG-0.65  OA
ENDBRANCH 23 24
ENDBRANCH 20 23
ENDBRANCH 18 19
ENDBRANCH 15 18
ENDBRANCH 1 14
BRANCH 1 27
ATOM     27  N   ARG H  74      -8.243   4.326  -0.068  1.00 22.12 LIG-0.35  N 
ATOM     28 H    ARG H  74      -9.079   4.363   0.127  1.00 22.12 LIG 0.16  HD
ATOM     29  C   LEU H  73      -7.288   3.971   0.789  1.00 24.75 LIG 0.26  C 
ATOM     30 O    LEU H  73      -6.187   3.578   0.405  1.00 25.51 LIG-0.27  OA
BRANCH 29 31
ATOM     31  CA  LEU H  73      -7.604   4.053   2.299  1.00 25.64 LIG 0.40  C 
ATOM     32  N   LEU H  73      -6.545   3.533   3.213  1.00 27.50 LIG 0.61  N 
BRANCH 31 33
ATOM     33  CB  LEU H  73      -8.027   5.475   2.711  1.00 26.32 LIG 0.06  C 
BRANCH 33 34
ATOM     34  CG  LEU H  73      -8.907   6.433   1.900  1.00 25.96 LIG-0.02  C 
ATOM     35  CD2 LEU H  73      -7.979   7.336   1.097  1.00 27.32 LIG 0.01  C 
ATOM     36  CD1 LEU H  73      -9.784   7.265   2.773  1.00 27.59 LIG 0.01  C 
ENDBRANCH 33 34
ENDBRANCH 31 33
ENDBRANCH 29 31
ENDBRANCH 1 27
TORSDOF 13
ENDMDL
MODEL 3
USER: ADFR SOLUTION from run 19
USER: SCORE 12.757161 LL:  -1.340 LR: -12.914 RR:   0.000 FEB:  -9.036
USER: RMSD 7.159599
USER: SEED 18
USER: STATUS no improvement in best in 3 clusters for 5 generations
USER: GENES 15
USER: genes 0 Translation |==|  0.57049 0.45336 0.20406
USER: genes 1 Rotation |==|  0.99158 0.53874 0.57434 0.53638
USER: genes 2 Torsion [C]-CA--CB-[CG] |==|  0.50729
USER: genes 3 Torsion [CA]-CB--CG-[CD] |==|  0.37507
USER: genes 4 Torsion [CB]-CG--CD-[NE] |==|  0.16340
USER: genes 5 Torsion [CG]-CD--NE-[HE] |==|  0.25263
USER: genes 6 Torsion [N]-CA--C-[N] |==|  0.72979
USER: genes 7 Torsion [C]-N--CA-[C] |==|  0.18889
USER: genes 8 Torsion [N]-CA--C-[N] |==|  0.98656
USER: genes 9 Torsion [C]-N--CA-[C] |==|  0.26769
USER: genes 10 Torsion [N]-CA--C-[O] |==|  0.23745
USER: genes 11 Torsion [CB]-CA--N-[C] |==|  0.89223
USER: genes 12 Torsion [N]-C--CA-[N] |==|  0.87054
USER: genes 13 Torsion [C]-CA--CB-[CG] |==|  0.58787
USER: genes 14 Torsion [CA]-CB--CG-[CD2] |==|  0.53979
ROOT
ATOM      1  CA  ARG H  74      -5.960   4.413  -5.588  1.00 20.60 LIG 0.18  C 
ENDROOT
BRANCH 1 2
ATOM      2  CB  ARG H  74      -6.104   2.883  -5.606  1.00 19.81 LIG 0.04  C 
BRANCH 2 3
ATOM      3  CG  ARG H  74      -5.157   2.135  -6.579  1.00 18.47 LIG 0.02  C 
BRANCH 3 4
ATOM      4  CD  ARG H  74      -4.521   0.916  -5.924  1.00 18.94 LIG 0.14  C 
BRANCH 4 5
ATOM      5  NE  ARG H  74      -5.522  -0.045  -5.449  1.00 19.12 LIG-0.23  N 
ATOM      6 HE   ARG H  74      -5.768  -0.668  -5.987  1.00 19.12 LIG 0.18  HD
ATOM      7  CZ  ARG H  74      -6.073  -0.014  -4.237  1.00 19.95 LIG 0.67  C 
ATOM      8  NH1 ARG H  74      -5.698   0.909  -3.354  1.00 19.07 LIG-0.23  N 
ATOM      9  NH2 ARG H  74      -6.993  -0.921  -3.904  1.00 20.02 LIG-0.23  N 
ATOM     10 2HH1 ARG H  74      -6.056   0.926  -2.572  1.00 19.07 LIG 0.17  HD
ATOM     11 1HH1 ARG H  74      -5.098   1.487  -3.566  1.00 19.07 LIG 0.17  HD
ATOM     12 1HH2 ARG H  74      -7.228  -1.523  -4.471  1.00 20.02 LIG 0.17  HD
ATOM     13 2HH2 ARG H  74      -7.350  -0.903  -3.122  1.00 20.02 LIG 0.17  HD
ENDBRANCH 4 5
ENDBRANCH 3 4
ENDBRANCH 2 3
ENDBRANCH 1 2
BRANCH 1 14
ATOM     14  C   ARG H  74      -6.903   5.020  -4.542  1.00 20.00 LIG 0.24  C 
ATOM     15  N   GLY H  75      -7.300   4.248  -3.538  1.00 19.10 LIG-0.35  N 
ATOM     16 H    GLY H  75      -7.071   3.425  -3.435  1.00 19.10 LIG 0.16  HD
ATOM     17 O    ARG H  74      -7.292   6.172  -4.665  1.00 20.55 LIG-0.27  OA
BRANCH 15 18
ATOM     18  CA  GLY H  75      -8.196   4.776  -2.496  1.00 17.93 LIG 0.23  C 
BRANCH 18 19
ATOM     19  C   GLY H  75      -9.592   5.077  -3.023  1.00 17.33 LIG 0.23  C 
ATOM     20  N   GLY H  76      -9.775   4.924  -4.335  1.00 16.80 LIG-0.35  N 
ATOM     21 H    GLY H  76      -9.154   4.718  -4.892  1.00 16.80 LIG 0.16  HD
ATOM     22 O    GLY H  75     -10.495   5.453  -2.260  1.00 16.80 LIG-0.27  OA
BRANCH 20 23
ATOM     23  CA  GLY H  76     -11.091   5.102  -4.923  1.00 16.50 LIG 0.23  C 
BRANCH 23 24
ATOM     24  C   GLY H  76     -11.355   6.474  -5.515  1.00 16.76 LIG 0.19  C 
ATOM     25 O    GLY H  76     -11.006   6.706  -6.668  1.00 16.89 LIG-0.65  OA
ATOM     26 OXT  GLY H  76     -11.914   7.355  -4.852  1.00 15.95 LIG-0.65  OA
ENDBRANCH 23 24
ENDBRANCH 20 23
ENDBRANCH 18 19
ENDBRANCH 15 18
ENDBRANCH 1 14
BRANCH 1 27
ATOM     27  N   ARG H  74      -4.593   4.808  -5.220  1.00 22.12 LIG-0.35  N 
ATOM     28 H    ARG H  74      -4.286   5.484  -5.652  1.00 22.12 LIG 0.16  HD
ATOM     29  C   LEU H  73      -3.916   4.145  -4.285  1.00 24.75 LIG 0.26  C 
ATOM     30 O    LEU H  73      -4.485   3.445  -3.448  1.00 25.51 LIG-0.27  OA
BRANCH 29 31
ATOM     31  CA  LEU H  73      -2.379   4.288  -4.267  1.00 25.64 LIG 0.40  C 
ATOM     32  N   LEU H  73      -1.699   4.147  -5.588  1.00 27.50 LIG 0.61  N 
BRANCH 31 33
ATOM     33  CB  LEU H  73      -1.940   5.587  -3.567  1.00 26.32 LIG 0.06  C 
BRANCH 33 34
ATOM     34  CG  LEU H  73      -0.697   6.422  -3.895  1.00 25.96 LIG-0.02  C 
ATOM     35  CD2 LEU H  73      -0.479   7.389  -2.738  1.00 27.32 LIG 0.01  C 
ATOM     36  CD1 LEU H  73      -0.853   7.188  -5.165  1.00 27.59 LIG 0.01  C 
ENDBRANCH 33 34
ENDBRANCH 31 33
ENDBRANCH 29 31
ENDBRANCH 1 27
TORSDOF 13
ENDMDL
MODEL 4
USER: ADFR SOLUTION from run 105
USER: SCORE 12.366780 LL:  -1.505 LR: -12.732 RR:   0.000 FEB:  -8.855
USER: RMSD 6.736987
USER: SEED 104
USER: STATUS no improvement in best in 6 clusters for 5 generations
USER: GENES 15
USER: genes 0 Translation |==|  0.57501 0.44805 0.19112
USER: genes 1 Rotation |==|  0.97963 0.52656 0.62524 0.55968
USER: genes 2 Torsion [C]-CA--CB-[CG] |==|  0.46998
USER: genes 3 Torsion [CA]-CB--CG-[CD] |==|  0.36621
USER: genes 4 Torsion [CB]-CG--CD-[NE] |==|  0.16752
USER: genes 5 Torsion [CG]-CD--NE-[HE] |==|  0.24315
USER: genes 6 Torsion [N]-CA--C-[N] |==|  0.72505
USER: genes 7 Torsion [C]-N--CA-[C] |==|  0.21312
USER: genes 8 Torsion [N]-CA--C-[N] |==|  0.81496
USER: genes 9 Torsion [C]-N--CA-[C] |==|  0.33204
USER: genes 10 Torsion [N]-CA--C-[O] |==|  0.32694
USER: genes 11 Torsion [CB]-CA--N-[C] |==|  0.88828
USER: genes 12 Torsion [N]-C--CA-[N] |==|  0.01963
USER: genes 13 Torsion [C]-CA--CB-[CG] |==|  0.17996
USER: genes 14 Torsion [CA]-CB--CG-[CD2] |==|  0.06680
ROOT
ATOM      1  CA  ARG H  74      -5.879   4.338  -5.850  1.00 20.60 LIG 0.18  C 
ENDROOT
BRANCH 1 2
ATOM      2  CB  ARG H  74      -6.093   2.817  -5.796  1.00 19.81 LIG 0.04  C 
BRANCH 2 3
ATOM      3  CG  ARG H  74      -5.196   1.982  -6.747  1.00 18.47 LIG 0.02  C 
BRANCH 3 4
ATOM      4  CD  ARG H  74      -4.544   0.809  -6.026  1.00 18.94 LIG 0.14  C 
BRANCH 4 5
ATOM      5  NE  ARG H  74      -5.534  -0.116  -5.465  1.00 19.12 LIG-0.23  N 
ATOM      6 HE   ARG H  74      -5.826  -0.748  -5.970  1.00 19.12 LIG 0.18  HD
ATOM      7  CZ  ARG H  74      -6.009  -0.042  -4.223  1.00 19.95 LIG 0.67  C 
ATOM      8  NH1 ARG H  74      -5.563   0.895  -3.390  1.00 19.07 LIG-0.23  N 
ATOM      9  NH2 ARG H  74      -6.925  -0.919  -3.810  1.00 20.02 LIG-0.23  N 
ATOM     10 2HH1 ARG H  74      -5.872   0.941  -2.589  1.00 19.07 LIG 0.17  HD
ATOM     11 1HH1 ARG H  74      -4.965   1.455  -3.654  1.00 19.07 LIG 0.17  HD
ATOM     12 1HH2 ARG H  74      -7.207  -1.531  -4.346  1.00 20.02 LIG 0.17  HD
ATOM     13 2HH2 ARG H  74      -7.234  -0.873  -3.009  1.00 20.02 LIG 0.17  HD
ENDBRANCH 4 5
ENDBRANCH 3 4
ENDBRANCH 2 3
ENDBRANCH 1 2
BRANCH 1 14
ATOM     14  C   ARG H  74      -6.992   5.055  -5.078  1.00 20.00 LIG 0.24  C 
ATOM     15  N   GLY H  75      -7.658   4.366  -4.159  1.00 19.10 LIG-0.35  N 
ATOM     16 H    GLY H  75      -7.513   3.540  -3.970  1.00 19.10 LIG 0.16  HD
ATOM     17 O    ARG H  74      -7.266   6.218  -5.339  1.00 20.55 LIG-0.27  OA
BRANCH 15 18
ATOM     18  CA  GLY H  75      -8.730   5.002  -3.376  1.00 17.93 LIG 0.23  C 
BRANCH 18 19
ATOM     19  C   GLY H  75     -10.021   5.155  -4.169  1.00 17.33 LIG 0.23  C 
ATOM     20  N   GLY H  76      -9.985   5.998  -5.201  1.00 16.80 LIG-0.35  N 
ATOM     21 H    GLY H  76      -9.307   6.485  -5.409  1.00 16.80 LIG 0.16  HD
ATOM     22 O    GLY H  75     -11.043   4.528  -3.852  1.00 16.80 LIG-0.27  OA
BRANCH 20 23
ATOM     23  CA  GLY H  76     -11.137   6.150  -6.072  1.00 16.50 LIG 0.23  C 
BRANCH 23 24
ATOM     24  C   GLY H  76     -11.726   7.546  -6.130  1.00 16.76 LIG 0.19  C 
ATOM     25 O    GLY H  76     -11.729   8.152  -7.197  1.00 16.89 LIG-0.65  OA
ATOM     26 OXT  GLY H  76     -12.200   8.078  -5.119  1.00 15.95 LIG-0.65  OA
ENDBRANCH 23 24
ENDBRANCH 20 23
ENDBRANCH 18 19
ENDBRANCH 15 18
ENDBRANCH 1 14
BRANCH 1 27
ATOM     27  N   ARG H  74      -4.605   4.711  -5.220  1.00 22.12 LIG-0.35  N 
ATOM     28 H    ARG H  74      -4.168   5.328  -5.630  1.00 22.12 LIG 0.16  HD
ATOM     29  C   LEU H  73      -4.193   4.118  -4.102  1.00 24.75 LIG 0.26  C 
ATOM     30 O    LEU H  73      -4.974   3.528  -3.356  1.00 25.51 LIG-0.27  OA
BRANCH 29 31
ATOM     31  CA  LEU H  73      -2.691   4.199  -3.751  1.00 25.64 LIG 0.40  C 
ATOM     32  N   LEU H  73      -1.867   5.082  -4.627  1.00 27.50 LIG 0.61  N 
BRANCH 31 33
ATOM     33  CB  LEU H  73      -2.475   4.551  -2.268  1.00 26.32 LIG 0.06  C 
BRANCH 33 34
ATOM     34  CG  LEU H  73      -2.869   3.691  -1.062  1.00 25.96 LIG-0.02  C 
ATOM     35  CD2 LEU H  73      -2.939   2.245  -1.537  1.00 27.32 LIG 0.01  C 
ATOM     36  CD1 LEU H  73      -4.185   4.094  -0.490  1.00 27.59 LIG 0.01  C 
ENDBRANCH 33 34
ENDBRANCH 31 33
ENDBRANCH 29 31
ENDBRANCH 1 27
TORSDOF 13
ENDMDL
MODEL 5
USER: ADFR SOLUTION from run 22
USER: SCORE 13.040475 LL:  -1.103 LR: -12.664 RR:   0.000 FEB:  -8.786
USER: RMSD 5.772364
USER: SEED 21
USER: STATUS no improvement in best in 3 clusters for 5 generations
USER: GENES 15
USER: genes 0 Translation |==|  0.47246 0.47505 0.41497
USER: genes 1 Rotation |==|  0.19342 0.49617 0.12141 0.61254
USER: genes 2 Torsion [C]-CA--CB-[CG] |==|  0.22755
USER: genes 3 Torsion [CA]-CB--CG-[CD] |==|  0.53099
USER: genes 4 Torsion [CB]-CG--CD-[NE] |==|  0.98908
USER: genes 5 Torsion [CG]-CD--NE-[HE] |==|  0.94219
USER: genes 6 Torsion [N]-CA--C-[N] |==|  0.64611
USER: genes 7 Torsion [C]-N--CA-[C] |==|  0.27447
USER: genes 8 Torsion [N]-CA--C-[N] |==|  0.47008
USER: genes 9 Torsion [C]-N--CA-[C] |==|  0.81995
USER: genes 10 Torsion [N]-CA--C-[O] |==|  0.43618
USER: genes 11 Torsion [CB]-CA--N-[C] |==|  0.14685
USER: genes 12 Torsion [N]-C--CA-[N] |==|  0.92080
USER: genes 13 Torsion [C]-CA--CB-[CG] |==|  0.47331
USER: genes 14 Torsion [CA]-CB--CG-[CD2] |==|  0.68396
ROOT
ATOM      1  CA  ARG H  74      -7.725   4.722  -1.317  1.00 20.60 LIG 0.18  C 
ENDROOT
BRANCH 1 2
ATOM      2  CB  ARG H  74      -7.004   3.578  -2.047  1.00 19.81 LIG 0.04  C 
BRANCH 2 3
ATOM      3  CG  ARG H  74      -6.259   3.980  -3.347  1.00 18.47 LIG 0.02  C 
BRANCH 3 4
ATOM      4  CD  ARG H  74      -5.810   2.760  -4.141  1.00 18.94 LIG 0.14  C 
BRANCH 4 5
ATOM      5  NE  ARG H  74      -6.107   1.504  -3.445  1.00 19.12 LIG-0.23  N 
ATOM      6 HE   ARG H  74      -6.232   1.536  -2.595  1.00 19.12 LIG 0.18  HD
ATOM      7  CZ  ARG H  74      -6.195   0.318  -4.044  1.00 19.95 LIG 0.67  C 
ATOM      8  NH1 ARG H  74      -6.046   0.222  -5.363  1.00 19.07 LIG-0.23  N 
ATOM      9  NH2 ARG H  74      -6.450  -0.773  -3.320  1.00 20.02 LIG-0.23  N 
ATOM     10 2HH1 ARG H  74      -6.104  -0.545  -5.747  1.00 19.07 LIG 0.17  HD
ATOM     11 1HH1 ARG H  74      -5.892   0.926  -5.831  1.00 19.07 LIG 0.17  HD
ATOM     12 1HH2 ARG H  74      -6.556  -0.709  -2.469  1.00 20.02 LIG 0.17  HD
ATOM     13 2HH2 ARG H  74      -6.507  -1.540  -3.705  1.00 20.02 LIG 0.17  HD
ENDBRANCH 4 5
ENDBRANCH 3 4
ENDBRANCH 2 3
ENDBRANCH 1 2
BRANCH 1 14
ATOM     14  C   ARG H  74      -9.089   4.984  -1.964  1.00 20.00 LIG 0.24  C 
ATOM     15  N   GLY H  75      -9.386   4.331  -3.081  1.00 19.10 LIG-0.35  N 
ATOM     16 H    GLY H  75      -8.862   3.773  -3.473  1.00 19.10 LIG 0.16  HD
ATOM     17 O    ARG H  74      -9.854   5.800  -1.470  1.00 20.55 LIG-0.27  OA
BRANCH 15 18
ATOM     18  CA  GLY H  75     -10.685   4.531  -3.744  1.00 17.93 LIG 0.23  C 
BRANCH 18 19
ATOM     19  C   GLY H  75     -10.602   5.506  -4.910  1.00 17.33 LIG 0.23  C 
ATOM     20  N   GLY H  76     -11.674   5.575  -5.700  1.00 16.80 LIG-0.35  N 
ATOM     21 H    GLY H  76     -12.371   5.078  -5.620  1.00 16.80 LIG 0.16  HD
ATOM     22 O    GLY H  75      -9.582   6.184  -5.104  1.00 16.80 LIG-0.27  OA
BRANCH 20 23
ATOM     23  CA  GLY H  76     -11.729   6.536  -6.788  1.00 16.50 LIG 0.23  C 
BRANCH 23 24
ATOM     24  C   GLY H  76     -11.730   7.993  -6.366  1.00 16.76 LIG 0.19  C 
ATOM     25 O    GLY H  76     -11.354   8.848  -7.161  1.00 16.89 LIG-0.65  OA
ATOM     26 OXT  GLY H  76     -12.104   8.326  -5.235  1.00 15.95 LIG-0.65  OA
ENDBRANCH 23 24
ENDBRANCH 20 23
ENDBRANCH 18 19
ENDBRANCH 15 18
ENDBRANCH 1 14
BRANCH 1 27
ATOM     27  N   ARG H  74      -7.972   4.375   0.089  1.00 22.12 LIG-0.35  N 
ATOM     28 H    ARG H  74      -8.789   4.462   0.343  1.00 22.12 LIG 0.16  HD
ATOM     29  C   LEU H  73      -6.982   3.961   0.877  1.00 24.75 LIG 0.26  C 
ATOM     30 O    LEU H  73      -5.937   3.503   0.418  1.00 25.51 LIG-0.27  OA
BRANCH 29 31
ATOM     31  CA  LEU H  73      -7.185   4.059   2.405  1.00 25.64 LIG 0.40  C 
ATOM     32  N   LEU H  73      -8.096   5.145   2.871  1.00 27.50 LIG 0.61  N 
BRANCH 31 33
ATOM     33  CB  LEU H  73      -7.604   2.705   3.008  1.00 26.32 LIG 0.06  C 
BRANCH 33 34
ATOM     34  CG  LEU H  73      -7.695   2.362   4.499  1.00 25.96 LIG-0.02  C 
ATOM     35  CD2 LEU H  73      -6.625   1.318   4.793  1.00 27.32 LIG 0.01  C 
ATOM     36  CD1 LEU H  73      -9.035   1.825   4.872  1.00 27.59 LIG 0.01  C 
ENDBRANCH 33 34
ENDBRANCH 31 33
ENDBRANCH 29 31
ENDBRANCH 1 27
TORSDOF 13
ENDMDL
MODEL 6
USER: ADFR SOLUTION from run 166
USER: SCORE 13.886998 LL:  -1.693 LR: -12.654 RR:   0.000 FEB:  -8.776
USER: RMSD 7.036187
USER: SEED 165
USER: STATUS no improvement in best in 3 clusters for 5 generations
USER: GENES 15
USER: genes 0 Translation |==|  0.56626 0.37017 0.35246
USER: genes 1 Rotation |==|  0.67067 0.83430 0.34599 0.79223
USER: genes 2 Torsion [C]-CA--CB-[CG] |==|  0.46076
USER: genes 3 Torsion [CA]-CB--CG-[CD] |==|  0.81921
USER: genes 4 Torsion [CB]-CG--CD-[NE] |==|  0.14899
USER: genes 5 Torsion [CG]-CD--NE-[HE] |==|  0.83344
USER: genes 6 Torsion [N]-CA--C-[N] |==|  0.20403
USER: genes 7 Torsion [C]-N--CA-[C] |==|  0.27592
USER: genes 8 Torsion [N]-CA--C-[N] |==|  0.03637
USER: genes 9 Torsion [C]-N--CA-[C] |==|  0.26607
USER: genes 10 Torsion [N]-CA--C-[O] |==|  0.11568
USER: genes 11 Torsion [CB]-CA--N-[C] |==|  0.79444
USER: genes 12 Torsion [N]-C--CA-[N] |==|  0.61988
USER: genes 13 Torsion [C]-CA--CB-[CG] |==|  0.23122
USER: genes 14 Torsion [CA]-CB--CG-[CD2] |==|  0.63530
ROOT
ATOM      1  CA  ARG H  74      -6.036   3.228  -2.583  1.00 20.60 LIG 0.18  C 
ENDROOT
BRANCH 1 2
ATOM      2  CB  ARG H  74      -4.709   3.912  -2.218  1.00 19.81 LIG 0.04  C 
BRANCH 2 3
ATOM      3  CG  ARG H  74      -3.428   3.095  -2.530  1.00 18.47 LIG 0.02  C 
BRANCH 3 4
ATOM      4  CD  ARG H  74      -3.347   1.828  -1.689  1.00 18.94 LIG 0.14  C 
BRANCH 4 5
ATOM      5  NE  ARG H  74      -4.556   1.006  -1.806  1.00 19.12 LIG-0.23  N 
ATOM      6 HE   ARG H  74      -5.304   1.356  -1.569  1.00 19.12 LIG 0.18  HD
ATOM      7  CZ  ARG H  74      -4.568  -0.248  -2.255  1.00 19.95 LIG 0.67  C 
ATOM      8  NH1 ARG H  74      -3.442  -0.822  -2.669  1.00 19.07 LIG-0.23  N 
ATOM      9  NH2 ARG H  74      -5.718  -0.923  -2.305  1.00 20.02 LIG-0.23  N 
ATOM     10 2HH1 ARG H  74      -3.452  -1.632  -2.958  1.00 19.07 LIG 0.17  HD
ATOM     11 1HH1 ARG H  74      -2.702  -0.384  -2.646  1.00 19.07 LIG 0.17  HD
ATOM     12 1HH2 ARG H  74      -6.448  -0.548  -2.047  1.00 20.02 LIG 0.17  HD
ATOM     13 2HH2 ARG H  74      -5.729  -1.732  -2.595  1.00 20.02 LIG 0.17  HD
ENDBRANCH 4 5
ENDBRANCH 3 4
ENDBRANCH 2 3
ENDBRANCH 1 2
BRANCH 1 14
ATOM     14  C   ARG H  74      -7.207   3.960  -1.919  1.00 20.00 LIG 0.24  C 
ATOM     15  N   GLY H  75      -8.387   3.351  -1.885  1.00 19.10 LIG-0.35  N 
ATOM     16 H    GLY H  75      -8.542   2.573  -2.217  1.00 19.10 LIG 0.16  HD
ATOM     17 O    ARG H  74      -7.049   5.086  -1.468  1.00 20.55 LIG-0.27  OA
BRANCH 15 18
ATOM     18  CA  GLY H  75      -9.547   3.998  -1.250  1.00 17.93 LIG 0.23  C 
BRANCH 18 19
ATOM     19  C   GLY H  75     -10.473   4.658  -2.262  1.00 17.33 LIG 0.23  C 
ATOM     20  N   GLY H  76     -10.275   4.341  -3.541  1.00 16.80 LIG-0.35  N 
ATOM     21 H    GLY H  76      -9.638   3.837  -3.825  1.00 16.80 LIG 0.16  HD
ATOM     22 O    GLY H  75     -11.353   5.453  -1.897  1.00 16.80 LIG-0.27  OA
BRANCH 20 23
ATOM     23  CA  GLY H  76     -11.159   4.850  -4.574  1.00 16.50 LIG 0.23  C 
BRANCH 23 24
ATOM     24  C   GLY H  76     -10.678   6.104  -5.278  1.00 16.76 LIG 0.19  C 
ATOM     25 O    GLY H  76      -9.495   6.203  -5.586  1.00 16.89 LIG-0.65  OA
ATOM     26 OXT  GLY H  76     -11.462   7.024  -5.544  1.00 15.95 LIG-0.65  OA
ENDBRANCH 23 24
ENDBRANCH 20 23
ENDBRANCH 18 19
ENDBRANCH 15 18
ENDBRANCH 1 14
BRANCH 1 27
ATOM     27  N   ARG H  74      -6.267   3.268  -4.033  1.00 22.12 LIG-0.35  N 
ATOM     28 H    ARG H  74      -6.151   2.518  -4.437  1.00 22.12 LIG 0.16  HD
ATOM     29  C   LEU H  73      -6.626   4.398  -4.639  1.00 24.75 LIG 0.26  C 
ATOM     30 O    LEU H  73      -7.130   5.333  -4.019  1.00 25.51 LIG-0.27  OA
BRANCH 29 31
ATOM     31  CA  LEU H  73      -6.403   4.503  -6.164  1.00 25.64 LIG 0.40  C 
ATOM     32  N   LEU H  73      -5.844   5.799  -6.651  1.00 27.50 LIG 0.61  N 
BRANCH 31 33
ATOM     33  CB  LEU H  73      -5.573   3.321  -6.696  1.00 26.32 LIG 0.06  C 
BRANCH 33 34
ATOM     34  CG  LEU H  73      -6.104   1.933  -7.071  1.00 25.96 LIG-0.02  C 
ATOM     35  CD2 LEU H  73      -5.204   0.903  -6.399  1.00 27.32 LIG 0.01  C 
ATOM     36  CD1 LEU H  73      -6.104   1.710  -8.546  1.00 27.59 LIG 0.01  C 
ENDBRANCH 33 34
ENDBRANCH 31 33
ENDBRANCH 29 31
ENDBRANCH 1 27
TORSDOF 13
ENDMDL
MODEL 7
USER: ADFR SOLUTION from run 148
USER: SCORE 14.105664 LL:  -1.696 LR: -12.637 RR:   0.000 FEB:  -8.759
USER: RMSD 4.972380
USER: SEED 147
USER: STATUS searching
USER: GENES 15
USER: genes 0 Translation |==|  0.44718 0.44223 0.41269
USER: genes 1 Rotation |==|  0.63816 0.66824 0.42947 0.94456
USER: genes 2 Torsion [C]-CA--CB-[CG] |==|  0.30904
USER: genes 3 Torsion [CA]-CB--CG-[CD] |==|  0.26346
USER: genes 4 Torsion [CB]-CG--CD-[NE] |==|  0.14861
USER: genes 5 Torsion [CG]-CD--NE-[HE] |==|  0.88698
USER: genes 6 Torsion [N]-CA--C-[N] |==|  0.09305
USER: genes 7 Torsion [C]-N--CA-[C] |==|  0.27140
USER: genes 8 Torsion [N]-CA--C-[N] |==|  0.46545
USER: genes 9 Torsion [C]-N--CA-[C] |==|  0.81487
USER: genes 10 Torsion [N]-CA--C-[O] |==|  0.45793
USER: genes 11 Torsion [CB]-CA--N-[C] |==|  0.17778
USER: genes 12 Torsion [N]-C--CA-[N] |==|  0.78520
USER: genes 13 Torsion [C]-CA--CB-[CG] |==|  0.78307
USER: genes 14 Torsion [CA]-CB--CG-[CD2] |==|  0.71748
ROOT
ATOM      1  CA  ARG H  74      -8.180   4.255  -1.363  1.00 20.60 LIG 0.18  C 
ENDROOT
BRANCH 1 2
ATOM      2  CB  ARG H  74      -7.753   5.379  -0.406  1.00 19.81 LIG 0.04  C 
BRANCH 2 3
ATOM      3  CG  ARG H  74      -7.856   5.045   1.105  1.00 18.47 LIG 0.02  C 
BRANCH 3 4
ATOM      4  CD  ARG H  74      -6.530   4.546   1.665  1.00 18.94 LIG 0.14  C 
BRANCH 4 5
ATOM      5  NE  ARG H  74      -5.426   5.470   1.387  1.00 19.12 LIG-0.23  N 
ATOM      6 HE   ARG H  74      -5.397   5.839   0.611  1.00 19.12 LIG 0.18  HD
ATOM      7  CZ  ARG H  74      -4.466   5.773   2.258  1.00 19.95 LIG 0.67  C 
ATOM      8  NH1 ARG H  74      -4.486   5.256   3.484  1.00 19.07 LIG-0.23  N 
ATOM      9  NH2 ARG H  74      -3.490   6.611   1.903  1.00 20.02 LIG-0.23  N 
ATOM     10 2HH1 ARG H  74      -3.865   5.454   4.044  1.00 19.07 LIG 0.17  HD
ATOM     11 1HH1 ARG H  74      -5.120   4.724   3.715  1.00 19.07 LIG 0.17  HD
ATOM     12 1HH2 ARG H  74      -3.482   6.953   1.114  1.00 20.02 LIG 0.17  HD
ATOM     13 2HH2 ARG H  74      -2.869   6.809   2.464  1.00 20.02 LIG 0.17  HD
ENDBRANCH 4 5
ENDBRANCH 3 4
ENDBRANCH 2 3
ENDBRANCH 1 2
BRANCH 1 14
ATOM     14  C   ARG H  74      -9.477   4.639  -2.083  1.00 20.00 LIG 0.24  C 
ATOM     15  N   GLY H  75      -9.720   4.091  -3.268  1.00 19.10 LIG-0.35  N 
ATOM     16 H    GLY H  75      -9.194   3.538  -3.665  1.00 19.10 LIG 0.16  HD
ATOM     17 O    ARG H  74     -10.238   5.453  -1.580  1.00 20.55 LIG-0.27  OA
BRANCH 15 18
ATOM     18  CA  GLY H  75     -10.954   4.410  -4.003  1.00 17.93 LIG 0.23  C 
BRANCH 18 19
ATOM     19  C   GLY H  75     -10.743   5.486  -5.059  1.00 17.33 LIG 0.23  C 
ATOM     20  N   GLY H  76     -11.732   5.655  -5.938  1.00 16.80 LIG-0.35  N 
ATOM     21 H    GLY H  76     -12.441   5.170  -5.972  1.00 16.80 LIG 0.16  HD
ATOM     22 O    GLY H  75      -9.698   6.154  -5.090  1.00 16.80 LIG-0.27  OA
BRANCH 20 23
ATOM     23  CA  GLY H  76     -11.665   6.713  -6.930  1.00 16.50 LIG 0.23  C 
BRANCH 23 24
ATOM     24  C   GLY H  76     -11.729   8.124  -6.378  1.00 16.76 LIG 0.19  C 
ATOM     25 O    GLY H  76     -11.403   9.064  -7.096  1.00 16.89 LIG-0.65  OA
ATOM     26 OXT  GLY H  76     -12.104   8.336  -5.218  1.00 15.95 LIG-0.65  OA
ENDBRANCH 23 24
ENDBRANCH 20 23
ENDBRANCH 18 19
ENDBRANCH 15 18
ENDBRANCH 1 14
BRANCH 1 27
ATOM     27  N   ARG H  74      -7.160   4.030  -2.397  1.00 22.12 LIG-0.35  N 
ATOM     28 H    ARG H  74      -7.419   4.199  -3.199  1.00 22.12 LIG 0.16  HD
ATOM     29  C   LEU H  73      -5.942   3.599  -2.077  1.00 24.75 LIG 0.26  C 
ATOM     30 O    LEU H  73      -5.492   3.717  -0.938  1.00 25.51 LIG-0.27  OA
BRANCH 29 31
ATOM     31  CA  LEU H  73      -5.090   2.949  -3.189  1.00 25.64 LIG 0.40  C 
ATOM     32  N   LEU H  73      -5.447   1.544  -3.542  1.00 27.50 LIG 0.61  N 
BRANCH 31 33
ATOM     33  CB  LEU H  73      -5.040   3.829  -4.450  1.00 26.32 LIG 0.06  C 
BRANCH 33 34
ATOM     34  CG  LEU H  73      -6.140   3.966  -5.509  1.00 25.96 LIG-0.02  C 
ATOM     35  CD2 LEU H  73      -5.730   3.117  -6.705  1.00 27.32 LIG 0.01  C 
ATOM     36  CD1 LEU H  73      -6.332   5.380  -5.941  1.00 27.59 LIG 0.01  C 
ENDBRANCH 33 34
ENDBRANCH 31 33
ENDBRANCH 29 31
ENDBRANCH 1 27
TORSDOF 13
ENDMDL
MODEL 8
USER: ADFR SOLUTION from run 59
USER: SCORE 13.700785 LL:  -1.706 LR: -12.617 RR:   0.000 FEB:  -8.739
USER: RMSD 7.450428
USER: SEED 58
USER: STATUS 1 or 2 clusters left
USER: GENES 15
USER: genes 0 Translation |==|  0.57124 0.38473 0.36849
USER: genes 1 Rotation |==|  0.52917 0.75360 0.24956 0.84945
USER: genes 2 Torsion [C]-CA--CB-[CG] |==|  0.73201
USER: genes 3 Torsion [CA]-CB--CG-[CD] |==|  0.60283
USER: genes 4 Torsion [CB]-CG--CD-[NE] |==|  0.58133
USER: genes 5 Torsion [CG]-CD--NE-[HE] |==|  0.86748
USER: genes 6 Torsion [N]-CA--C-[N] |==|  0.00583
USER: genes 7 Torsion [C]-N--CA-[C] |==|  0.32036
USER: genes 8 Torsion [N]-CA--C-[N] |==|  0.41221
USER: genes 9 Torsion [C]-N--CA-[C] |==|  0.71112
USER: genes 10 Torsion [N]-CA--C-[O] |==|  0.96274
USER: genes 11 Torsion [CB]-CA--N-[C] |==|  0.19446
USER: genes 12 Torsion [N]-C--CA-[N] |==|  0.83607
USER: genes 13 Torsion [C]-CA--CB-[CG] |==|  0.02857
USER: genes 14 Torsion [CA]-CB--CG-[CD2] |==|  0.56061
ROOT
ATOM      1  CA  ARG H  74      -5.947   3.435  -2.258  1.00 20.60 LIG 0.18  C 
ENDROOT
BRANCH 1 2
ATOM      2  CB  ARG H  74      -4.719   4.328  -2.499  1.00 19.81 LIG 0.04  C 
BRANCH 2 3
ATOM      3  CG  ARG H  74      -4.198   4.367  -3.960  1.00 18.47 LIG 0.02  C 
BRANCH 3 4
ATOM      4  CD  ARG H  74      -2.677   4.434  -4.016  1.00 18.94 LIG 0.14  C 
BRANCH 4 5
ATOM      5  NE  ARG H  74      -2.196   5.132  -5.212  1.00 19.12 LIG-0.23  N 
ATOM      6 HE   ARG H  74      -2.536   4.912  -5.970  1.00 19.12 LIG 0.18  HD
ATOM      7  CZ  ARG H  74      -1.267   6.086  -5.199  1.00 19.95 LIG 0.67  C 
ATOM      8  NH1 ARG H  74      -0.736   6.489  -4.047  1.00 19.07 LIG-0.23  N 
ATOM      9  NH2 ARG H  74      -0.879   6.649  -6.345  1.00 20.02 LIG-0.23  N 
ATOM     10 2HH1 ARG H  74      -0.136   7.105  -4.042  1.00 19.07 LIG 0.17  HD
ATOM     11 1HH1 ARG H  74      -0.993   6.133  -3.308  1.00 19.07 LIG 0.17  HD
ATOM     12 1HH2 ARG H  74      -1.229   6.396  -7.089  1.00 20.02 LIG 0.17  HD
ATOM     13 2HH2 ARG H  74      -0.279   7.265  -6.340  1.00 20.02 LIG 0.17  HD
ENDBRANCH 4 5
ENDBRANCH 3 4
ENDBRANCH 2 3
ENDBRANCH 1 2
BRANCH 1 14
ATOM     14  C   ARG H  74      -7.227   4.277  -2.296  1.00 20.00 LIG 0.24  C 
ATOM     15  N   GLY H  75      -8.170   3.941  -3.168  1.00 19.10 LIG-0.35  N 
ATOM     16 H    GLY H  75      -8.111   3.285  -3.720  1.00 19.10 LIG 0.16  HD
ATOM     17 O    ARG H  74      -7.343   5.247  -1.559  1.00 20.55 LIG-0.27  OA
BRANCH 15 18
ATOM     18  CA  GLY H  75      -9.427   4.704  -3.243  1.00 17.93 LIG 0.23  C 
BRANCH 18 19
ATOM     19  C   GLY H  75      -9.597   5.419  -4.577  1.00 17.33 LIG 0.23  C 
ATOM     20  N   GLY H  76     -10.848   5.566  -5.014  1.00 16.80 LIG-0.35  N 
ATOM     21 H    GLY H  76     -11.542   5.244  -4.621  1.00 16.80 LIG 0.16  HD
ATOM     22 O    GLY H  75      -8.612   5.828  -5.212  1.00 16.80 LIG-0.27  OA
BRANCH 20 23
ATOM     23  CA  GLY H  76     -11.122   6.309  -6.231  1.00 16.50 LIG 0.23  C 
BRANCH 23 24
ATOM     24  C   GLY H  76     -11.686   7.702  -6.025  1.00 16.76 LIG 0.19  C 
ATOM     25 O    GLY H  76     -12.104   8.022  -4.917  1.00 16.89 LIG-0.65  OA
ATOM     26 OXT  GLY H  76     -11.729   8.515  -6.957  1.00 15.95 LIG-0.65  OA
ENDBRANCH 23 24
ENDBRANCH 20 23
ENDBRANCH 18 19
ENDBRANCH 15 18
ENDBRANCH 1 14
BRANCH 1 27
ATOM     27  N   ARG H  74      -6.068   2.415  -3.308  1.00 22.12 LIG-0.35  N 
ATOM     28 H    ARG H  74      -6.729   2.529  -3.846  1.00 22.12 LIG 0.16  HD
ATOM     29  C   LEU H  73      -5.202   1.407  -3.389  1.00 24.75 LIG 0.26  C 
ATOM     30 O    LEU H  73      -4.091   1.465  -2.863  1.00 25.51 LIG-0.27  OA
BRANCH 29 31
ATOM     31  CA  LEU H  73      -5.627   0.150  -4.179  1.00 25.64 LIG 0.40  C 
ATOM     32  N   LEU H  73      -6.856  -0.540  -3.690  1.00 27.50 LIG 0.61  N 
BRANCH 31 33
ATOM     33  CB  LEU H  73      -5.731   0.439  -5.687  1.00 26.32 LIG 0.06  C 
BRANCH 33 34
ATOM     34  CG  LEU H  73      -5.254   1.707  -6.406  1.00 25.96 LIG-0.02  C 
ATOM     35  CD2 LEU H  73      -6.021   1.801  -7.719  1.00 27.32 LIG 0.01  C 
ATOM     36  CD1 LEU H  73      -3.789   1.680  -6.682  1.00 27.59 LIG 0.01  C 
ENDBRANCH 33 34
ENDBRANCH 31 33
ENDBRANCH 29 31
ENDBRANCH 1 27
TORSDOF 13
ENDMDL
MODEL 9
USER: ADFR SOLUTION from run 10
USER: SCORE 12.931108 LL:  -1.388 LR: -12.318 RR:   0.000 FEB:  -8.440
USER: RMSD 7.063358
USER: SEED 794869
USER: STATUS no improvement in best in 2 clusters for 5 generations
USER: GENES 15
USER: genes 0 Translation |==|  0.55125 0.40416 0.31522
USER: genes 1 Rotation |==|  0.24009 0.76577 0.27157 0.74420
USER: genes 2 Torsion [C]-CA--CB-[CG] |==|  0.34189
USER: genes 3 Torsion [CA]-CB--CG-[CD] |==|  0.08320
USER: genes 4 Torsion [CB]-CG--CD-[NE] |==|  0.40832
USER: genes 5 Torsion [CG]-CD--NE-[HE] |==|  0.85463
USER: genes 6 Torsion [N]-CA--C-[N] |==|  0.97779
USER: genes 7 Torsion [C]-N--CA-[C] |==|  0.16343
USER: genes 8 Torsion [N]-CA--C-[N] |==|  0.11484
USER: genes 9 Torsion [C]-N--CA-[C] |==|  0.22270
USER: genes 10 Torsion [N]-CA--C-[O] |==|  0.09788
USER: genes 11 Torsion [CB]-CA--N-[C] |==|  0.18043
USER: genes 12 Torsion [N]-C--CA-[N] |==|  0.17309
USER: genes 13 Torsion [C]-CA--CB-[CG] |==|  0.80892
USER: genes 14 Torsion [CA]-CB--CG-[CD2] |==|  0.35709
ROOT
ATOM      1  CA  ARG H  74      -6.306   3.712  -3.337  1.00 20.60 LIG 0.18  C 
ENDROOT
BRANCH 1 2
ATOM      2  CB  ARG H  74      -6.314   4.184  -4.800  1.00 19.81 LIG 0.04  C 
BRANCH 2 3
ATOM      3  CG  ARG H  74      -5.116   5.075  -5.220  1.00 18.47 LIG 0.02  C 
BRANCH 3 4
ATOM      4  CD  ARG H  74      -3.859   4.743  -4.428  1.00 18.94 LIG 0.14  C 
BRANCH 4 5
ATOM      5  NE  ARG H  74      -2.638   4.927  -5.220  1.00 19.12 LIG-0.23  N 
ATOM      6 HE   ARG H  74      -2.594   4.539  -5.986  1.00 19.12 LIG 0.18  HD
ATOM      7  CZ  ARG H  74      -1.594   5.655  -4.829  1.00 19.95 LIG 0.67  C 
ATOM      8  NH1 ARG H  74      -1.628   6.304  -3.668  1.00 19.07 LIG-0.23  N 
ATOM      9  NH2 ARG H  74      -0.518   5.745  -5.612  1.00 20.02 LIG-0.23  N 
ATOM     10 2HH1 ARG H  74      -0.953   6.773  -3.418  1.00 19.07 LIG 0.17  HD
ATOM     11 1HH1 ARG H  74      -2.325   6.253  -3.167  1.00 19.07 LIG 0.17  HD
ATOM     12 1HH2 ARG H  74      -0.501   5.334  -6.368  1.00 20.02 LIG 0.17  HD
ATOM     13 2HH2 ARG H  74       0.157   6.215  -5.362  1.00 20.02 LIG 0.17  HD
ENDBRANCH 4 5
ENDBRANCH 3 4
ENDBRANCH 2 3
ENDBRANCH 1 2
BRANCH 1 14
ATOM     14  C   ARG H  74      -7.597   4.149  -2.635  1.00 20.00 LIG 0.24  C 
ATOM     15  N   GLY H  75      -8.454   3.207  -2.261  1.00 19.10 LIG-0.35  N 
ATOM     16 H    GLY H  75      -8.340   2.365  -2.392  1.00 19.10 LIG 0.16  HD
ATOM     17 O    ARG H  74      -7.827   5.338  -2.462  1.00 20.55 LIG-0.27  OA
BRANCH 15 18
ATOM     18  CA  GLY H  75      -9.705   3.562  -1.571  1.00 17.93 LIG 0.23  C 
BRANCH 18 19
ATOM     19  C   GLY H  75     -10.581   4.496  -2.395  1.00 17.33 LIG 0.23  C 
ATOM     20  N   GLY H  76     -10.668   4.230  -3.699  1.00 16.80 LIG-0.35  N 
ATOM     21 H    GLY H  76     -10.229   3.607  -4.098  1.00 16.80 LIG 0.16  HD
ATOM     22 O    GLY H  75     -11.168   5.453  -1.866  1.00 16.80 LIG-0.27  OA
BRANCH 20 23
ATOM     23  CA  GLY H  76     -11.546   5.007  -4.555  1.00 16.50 LIG 0.23  C 
BRANCH 23 24
ATOM     24  C   GLY H  76     -10.995   6.350  -4.997  1.00 16.76 LIG 0.19  C 
ATOM     25 O    GLY H  76      -9.794   6.461  -5.220  1.00 16.89 LIG-0.65  OA
ATOM     26 OXT  GLY H  76     -11.740   7.328  -5.135  1.00 15.95 LIG-0.65  OA
ENDBRANCH 23 24
ENDBRANCH 20 23
ENDBRANCH 18 19
ENDBRANCH 15 18
ENDBRANCH 1 14
BRANCH 1 27
ATOM     27  N   ARG H  74      -6.245   2.246  -3.258  1.00 22.12 LIG-0.35  N 
ATOM     28 H    ARG H  74      -6.941   1.875  -2.915  1.00 22.12 LIG 0.16  HD
ATOM     29  C   LEU H  73      -5.179   1.580  -3.696  1.00 24.75 LIG 0.26  C 
ATOM     30 O    LEU H  73      -4.386   2.079  -4.493  1.00 25.51 LIG-0.27  OA
BRANCH 29 31
ATOM     31  CA  LEU H  73      -4.965   0.140  -3.180  1.00 25.64 LIG 0.40  C 
ATOM     32  N   LEU H  73      -6.032  -0.842  -3.533  1.00 27.50 LIG 0.61  N 
BRANCH 31 33
ATOM     33  CB  LEU H  73      -3.578  -0.401  -3.575  1.00 26.32 LIG 0.06  C 
BRANCH 33 34
ATOM     34  CG  LEU H  73      -3.107  -0.751  -4.991  1.00 25.96 LIG-0.02  C 
ATOM     35  CD2 LEU H  73      -1.783  -0.034  -5.221  1.00 27.32 LIG 0.01  C 
ATOM     36  CD1 LEU H  73      -4.091  -0.331  -6.031  1.00 27.59 LIG 0.01  C 
ENDBRANCH 33 34
ENDBRANCH 31 33
ENDBRANCH 29 31
ENDBRANCH 1 27
TORSDOF 13
ENDMDL
MODEL 10
USER: ADFR SOLUTION from run 154
USER: SCORE 13.438977 LL:  -1.574 LR: -12.314 RR:   0.000 FEB:  -8.436
USER: RMSD 6.743891
USER: SEED 153
USER: STATUS no improvement in best in 3 clusters for 5 generations
USER: GENES 15
USER: genes 0 Translation |==|  0.59087 0.37794 0.37085
USER: genes 1 Rotation |==|  0.74562 0.74937 0.44766 0.85319
USER: genes 2 Torsion [C]-CA--CB-[CG] |==|  0.32263
USER: genes 3 Torsion [CA]-CB--CG-[CD] |==|  0.12361
USER: genes 4 Torsion [CB]-CG--CD-[NE] |==|  0.78558
USER: genes 5 Torsion [CG]-CD--NE-[HE] |==|  0.02517
USER: genes 6 Torsion [N]-CA--C-[N] |==|  0.07246
USER: genes 7 Torsion [C]-N--CA-[C] |==|  0.45448
USER: genes 8 Torsion [N]-CA--C-[N] |==|  0.44679
USER: genes 9 Torsion [C]-N--CA-[C] |==|  0.68193
USER: genes 10 Torsion [N]-CA--C-[O] |==|  0.44861
USER: genes 11 Torsion [CB]-CA--N-[C] |==|  0.17150
USER: genes 12 Torsion [N]-C--CA-[N] |==|  0.41528
USER: genes 13 Torsion [C]-CA--CB-[CG] |==|  0.16970
USER: genes 14 Torsion [CA]-CB--CG-[CD2] |==|  0.67817
ROOT
ATOM      1  CA  ARG H  74      -5.593   3.339  -2.210  1.00 20.60 LIG 0.18  C 
ENDROOT
BRANCH 1 2
ATOM      2  CB  ARG H  74      -4.754   3.804  -1.010  1.00 19.81 LIG 0.04  C 
BRANCH 2 3
ATOM      3  CG  ARG H  74      -4.340   2.691  -0.012  1.00 18.47 LIG 0.02  C 
BRANCH 3 4
ATOM      4  CD  ARG H  74      -3.840   1.445  -0.732  1.00 18.94 LIG 0.14  C 
BRANCH 4 5
ATOM      5  NE  ARG H  74      -4.938   0.644  -1.284  1.00 19.12 LIG-0.23  N 
ATOM      6 HE   ARG H  74      -5.728   0.982  -1.269  1.00 19.12 LIG 0.18  HD
ATOM      7  CZ  ARG H  74      -4.790  -0.572  -1.805  1.00 19.95 LIG 0.67  C 
ATOM      8  NH1 ARG H  74      -3.582  -1.124  -1.883  1.00 19.07 LIG-0.23  N 
ATOM      9  NH2 ARG H  74      -5.855  -1.231  -2.263  1.00 20.02 LIG-0.23  N 
ATOM     10 2HH1 ARG H  74      -3.489  -1.910  -2.220  1.00 19.07 LIG 0.17  HD
ATOM     11 1HH1 ARG H  74      -2.894  -0.695  -1.597  1.00 19.07 LIG 0.17  HD
ATOM     12 1HH2 ARG H  74      -6.635  -0.870  -2.221  1.00 20.02 LIG 0.17  HD
ATOM     13 2HH2 ARG H  74      -5.762  -2.017  -2.600  1.00 20.02 LIG 0.17  HD
ENDBRANCH 4 5
ENDBRANCH 3 4
ENDBRANCH 2 3
ENDBRANCH 1 2
BRANCH 1 14
ATOM     14  C   ARG H  74      -6.985   3.978  -2.161  1.00 20.00 LIG 0.24  C 
ATOM     15  N   GLY H  75      -7.580   4.268  -3.312  1.00 19.10 LIG-0.35  N 
ATOM     16 H    GLY H  75      -7.236   4.128  -4.087  1.00 19.10 LIG 0.16  HD
ATOM     17 O    ARG H  74      -7.502   4.236  -1.083  1.00 20.55 LIG-0.27  OA
BRANCH 15 18
ATOM     18  CA  GLY H  75      -8.923   4.872  -3.330  1.00 17.93 LIG 0.23  C 
BRANCH 18 19
ATOM     19  C   GLY H  75      -9.268   5.489  -4.679  1.00 17.33 LIG 0.23  C 
ATOM     20  N   GLY H  76     -10.562   5.698  -4.920  1.00 16.80 LIG-0.35  N 
ATOM     21 H    GLY H  76     -11.199   5.465  -4.392  1.00 16.80 LIG 0.16  HD
ATOM     22 O    GLY H  75      -8.379   5.766  -5.500  1.00 16.80 LIG-0.27  OA
BRANCH 20 23
ATOM     23  CA  GLY H  76     -10.989   6.360  -6.140  1.00 16.50 LIG 0.23  C 
BRANCH 23 24
ATOM     24  C   GLY H  76     -11.650   7.711  -5.946  1.00 16.76 LIG 0.19  C 
ATOM     25 O    GLY H  76     -11.729   8.482  -6.898  1.00 16.89 LIG-0.65  OA
ATOM     26 OXT  GLY H  76     -12.107   8.043  -4.846  1.00 15.95 LIG-0.65  OA
ENDBRANCH 23 24
ENDBRANCH 20 23
ENDBRANCH 18 19
ENDBRANCH 15 18
ENDBRANCH 1 14
BRANCH 1 27
ATOM     27  N   ARG H  74      -4.972   3.750  -3.477  1.00 22.12 LIG-0.35  N 
ATOM     28 H    ARG H  74      -5.449   4.282  -3.955  1.00 22.12 LIG 0.16  HD
ATOM     29  C   LEU H  73      -3.762   3.314  -3.820  1.00 24.75 LIG 0.26  C 
ATOM     30 O    LEU H  73      -2.972   2.873  -2.987  1.00 25.51 LIG-0.27  OA
BRANCH 29 31
ATOM     31  CA  LEU H  73      -3.364   3.387  -5.311  1.00 25.64 LIG 0.40  C 
ATOM     32  N   LEU H  73      -1.911   3.584  -5.586  1.00 27.50 LIG 0.61  N 
BRANCH 31 33
ATOM     33  CB  LEU H  73      -3.906   2.181  -6.100  1.00 26.32 LIG 0.06  C 
BRANCH 33 34
ATOM     34  CG  LEU H  73      -5.380   1.803  -6.283  1.00 25.96 LIG-0.02  C 
ATOM     35  CD2 LEU H  73      -5.593   0.456  -5.603  1.00 27.32 LIG 0.01  C 
ATOM     36  CD1 LEU H  73      -5.761   1.702  -7.722  1.00 27.59 LIG 0.01  C 
ENDBRANCH 33 34
ENDBRANCH 31 33
ENDBRANCH 29 31
ENDBRANCH 1 27
TORSDOF 13
ENDMDL
MODEL 11
USER: ADFR SOLUTION from run 112
USER: SCORE 12.214466 LL:  -1.762 LR: -12.262 RR:   0.000 FEB:  -8.384
USER: RMSD 5.762947
USER: SEED 111
USER: STATUS no improvement in best in 4 clusters for 5 generations
USER: GENES 15
USER: genes 0 Translation |==|  0.46022 0.49338 0.36879
USER: genes 1 Rotation |==|  0.12279 0.40332 0.19218 0.56011
USER: genes 2 Torsion [C]-CA--CB-[CG] |==|  0.35671
USER: genes 3 Torsion [CA]-CB--CG-[CD] |==|  0.56260
USER: genes 4 Torsion [CB]-CG--CD-[NE] |==|  0.90987
USER: genes 5 Torsion [CG]-CD--NE-[HE] |==|  0.95599
USER: genes 6 Torsion [N]-CA--C-[N] |==|  0.57120
USER: genes 7 Torsion [C]-N--CA-[C] |==|  0.29093
USER: genes 8 Torsion [N]-CA--C-[N] |==|  0.94750
USER: genes 9 Torsion [C]-N--CA-[C] |==|  0.31490
USER: genes 10 Torsion [N]-CA--C-[O] |==|  0.94413
USER: genes 11 Torsion [CB]-CA--N-[C] |==|  0.85798
USER: genes 12 Torsion [N]-C--CA-[N] |==|  0.44984
USER: genes 13 Torsion [C]-CA--CB-[CG] |==|  0.98246
USER: genes 14 Torsion [CA]-CB--CG-[CD2] |==|  0.70914
ROOT
ATOM      1  CA  ARG H  74      -7.945   4.984  -2.252  1.00 20.60 LIG 0.18  C 
ENDROOT
BRANCH 1 2
ATOM      2  CB  ARG H  74      -7.226   3.670  -2.599  1.00 19.81 LIG 0.04  C 
BRANCH 2 3
ATOM      3  CG  ARG H  74      -6.032   3.801  -3.580  1.00 18.47 LIG 0.02  C 
BRANCH 3 4
ATOM      4  CD  ARG H  74      -5.736   2.485  -4.289  1.00 18.94 LIG 0.14  C 
BRANCH 4 5
ATOM      5  NE  ARG H  74      -6.030   1.322  -3.446  1.00 19.12 LIG-0.23  N 
ATOM      6 HE   ARG H  74      -6.130   1.452  -2.602  1.00 19.12 LIG 0.18  HD
ATOM      7  CZ  ARG H  74      -6.152   0.077  -3.903  1.00 19.95 LIG 0.67  C 
ATOM      8  NH1 ARG H  74      -6.042  -0.171  -5.206  1.00 19.07 LIG-0.23  N 
ATOM      9  NH2 ARG H  74      -6.400  -0.920  -3.052  1.00 20.02 LIG-0.23  N 
ATOM     10 2HH1 ARG H  74      -6.121  -0.976  -5.498  1.00 19.07 LIG 0.17  HD
ATOM     11 1HH1 ARG H  74      -5.892   0.473  -5.755  1.00 19.07 LIG 0.17  HD
ATOM     12 1HH2 ARG H  74      -6.480  -0.758  -2.211  1.00 20.02 LIG 0.17  HD
ATOM     13 2HH2 ARG H  74      -6.479  -1.724  -3.345  1.00 20.02 LIG 0.17  HD
ENDBRANCH 4 5
ENDBRANCH 3 4
ENDBRANCH 2 3
ENDBRANCH 1 2
BRANCH 1 14
ATOM     14  C   ARG H  74      -9.454   4.834  -2.474  1.00 20.00 LIG 0.24  C 
ATOM     15  N   GLY H  75      -9.865   4.050  -3.463  1.00 19.10 LIG-0.35  N 
ATOM     16 H    GLY H  75      -9.342   3.623  -3.996  1.00 19.10 LIG 0.16  HD
ATOM     17 O    ARG H  74     -10.240   5.453  -1.771  1.00 20.55 LIG-0.27  OA
BRANCH 15 18
ATOM     18  CA  GLY H  75     -11.302   3.856  -3.719  1.00 17.93 LIG 0.23  C 
BRANCH 18 19
ATOM     19  C   GLY H  75     -11.787   4.626  -4.939  1.00 17.33 LIG 0.23  C 
ATOM     20  N   GLY H  76     -11.012   5.629  -5.354  1.00 16.80 LIG-0.35  N 
ATOM     21 H    GLY H  76     -10.298   5.890  -4.951  1.00 16.80 LIG 0.16  HD
ATOM     22 O    GLY H  75     -12.853   4.328  -5.500  1.00 16.80 LIG-0.27  OA
BRANCH 20 23
ATOM     23  CA  GLY H  76     -11.341   6.369  -6.559  1.00 16.50 LIG 0.23  C 
BRANCH 23 24
ATOM     24  C   GLY H  76     -11.729   7.819  -6.342  1.00 16.76 LIG 0.19  C 
ATOM     25 O    GLY H  76     -12.104   8.180  -5.231  1.00 16.89 LIG-0.65  OA
ATOM     26 OXT  GLY H  76     -11.672   8.637  -7.268  1.00 15.95 LIG-0.65  OA
ENDBRANCH 23 24
ENDBRANCH 20 23
ENDBRANCH 18 19
ENDBRANCH 15 18
ENDBRANCH 1 14
BRANCH 1 27
ATOM     27  N   ARG H  74      -7.747   5.333  -0.839  1.00 22.12 LIG-0.35  N 
ATOM     28 H    ARG H  74      -7.469   6.135  -0.702  1.00 22.12 LIG 0.16  HD
ATOM     29  C   LEU H  73      -7.990   4.449   0.127  1.00 24.75 LIG 0.26  C 
ATOM     30 O    LEU H  73      -8.714   3.472  -0.058  1.00 25.51 LIG-0.27  OA
BRANCH 29 31
ATOM     31  CA  LEU H  73      -7.342   4.690   1.508  1.00 25.64 LIG 0.40  C 
ATOM     32  N   LEU H  73      -7.951   3.947   2.650  1.00 27.50 LIG 0.61  N 
BRANCH 31 33
ATOM     33  CB  LEU H  73      -5.820   4.466   1.465  1.00 26.32 LIG 0.06  C 
BRANCH 33 34
ATOM     34  CG  LEU H  73      -5.013   3.926   0.278  1.00 25.96 LIG-0.02  C 
ATOM     35  CD2 LEU H  73      -4.643   2.483   0.597  1.00 27.32 LIG 0.01  C 
ATOM     36  CD1 LEU H  73      -3.774   4.719   0.034  1.00 27.59 LIG 0.01  C 
ENDBRANCH 33 34
ENDBRANCH 31 33
ENDBRANCH 29 31
ENDBRANCH 1 27
TORSDOF 13
ENDMDL
MODEL 12
USER: ADFR SOLUTION from run 28
USER: SCORE 13.260049 LL:  -1.851 LR: -12.090 RR:   0.000 FEB:  -8.212
USER: RMSD 7.404593
USER: SEED 27
USER: STATUS no improvement in best in 9 clusters for 5 generations
USER: GENES 15
USER: genes 0 Translation |==|  0.57394 0.38896 0.36129
USER: genes 1 Rotation |==|  0.63918 0.83753 0.33586 0.79960
USER: genes 2 Torsion [C]-CA--CB-[CG] |==|  0.56840
USER: genes 3 Torsion [CA]-CB--CG-[CD] |==|  0.49554
USER: genes 4 Torsion [CB]-CG--CD-[NE] |==|  0.68156
USER: genes 5 Torsion [CG]-CD--NE-[HE] |==|  0.31481
USER: genes 6 Torsion [N]-CA--C-[N] |==|  0.19239
USER: genes 7 Torsion [C]-N--CA-[C] |==|  0.27894
USER: genes 8 Torsion [N]-CA--C-[N] |==|  0.02817
USER: genes 9 Torsion [C]-N--CA-[C] |==|  0.26986
USER: genes 10 Torsion [N]-CA--C-[O] |==|  0.62349
USER: genes 11 Torsion [CB]-CA--N-[C] |==|  0.81097
USER: genes 12 Torsion [N]-C--CA-[N] |==|  0.59368
USER: genes 13 Torsion [C]-CA--CB-[CG] |==|  0.28062
USER: genes 14 Torsion [CA]-CB--CG-[CD2] |==|  0.56172
ROOT
ATOM      1  CA  ARG H  74      -5.898   3.496  -2.404  1.00 20.60 LIG 0.18  C 
ENDROOT
BRANCH 1 2
ATOM      2  CB  ARG H  74      -4.614   4.309  -2.172  1.00 19.81 LIG 0.04  C 
BRANCH 2 3
ATOM      3  CG  ARG H  74      -3.479   4.072  -3.202  1.00 18.47 LIG 0.02  C 
BRANCH 3 4
ATOM      4  CD  ARG H  74      -2.265   4.946  -2.916  1.00 18.94 LIG 0.14  C 
BRANCH 4 5
ATOM      5  NE  ARG H  74      -2.025   5.928  -3.979  1.00 19.12 LIG-0.23  N 
ATOM      6 HE   ARG H  74      -2.129   6.760  -3.788  1.00 19.12 LIG 0.18  HD
ATOM      7  CZ  ARG H  74      -1.657   5.614  -5.219  1.00 19.95 LIG 0.67  C 
ATOM      8  NH1 ARG H  74      -1.448   4.343  -5.554  1.00 19.07 LIG-0.23  N 
ATOM      9  NH2 ARG H  74      -1.483   6.579  -6.124  1.00 20.02 LIG-0.23  N 
ATOM     10 2HH1 ARG H  74      -1.211   4.143  -6.356  1.00 19.07 LIG 0.17  HD
ATOM     11 1HH1 ARG H  74      -1.551   3.722  -4.969  1.00 19.07 LIG 0.17  HD
ATOM     12 1HH2 ARG H  74      -1.608   7.401  -5.905  1.00 20.02 LIG 0.17  HD
ATOM     13 2HH2 ARG H  74      -1.245   6.379  -6.925  1.00 20.02 LIG 0.17  HD
ENDBRANCH 4 5
ENDBRANCH 3 4
ENDBRANCH 2 3
ENDBRANCH 1 2
BRANCH 1 14
ATOM     14  C   ARG H  74      -7.096   4.209  -1.769  1.00 20.00 LIG 0.24  C 
ATOM     15  N   GLY H  75      -8.248   3.553  -1.696  1.00 19.10 LIG-0.35  N 
ATOM     16 H    GLY H  75      -8.372   2.753  -1.988  1.00 19.10 LIG 0.16  HD
ATOM     17 O    ARG H  74      -6.984   5.363  -1.377  1.00 20.55 LIG-0.27  OA
BRANCH 15 18
ATOM     18  CA  GLY H  75      -9.432   4.180  -1.087  1.00 17.93 LIG 0.23  C 
BRANCH 18 19
ATOM     19  C   GLY H  75     -10.404   4.725  -2.124  1.00 17.33 LIG 0.23  C 
ATOM     20  N   GLY H  76     -10.169   4.384  -3.392  1.00 16.80 LIG-0.35  N 
ATOM     21 H    GLY H  76      -9.490   3.928  -3.655  1.00 16.80 LIG 0.16  HD
ATOM     22 O    GLY H  75     -11.352   5.453  -1.791  1.00 16.80 LIG-0.27  OA
BRANCH 20 23
ATOM     23  CA  GLY H  76     -11.086   4.781  -4.446  1.00 16.50 LIG 0.23  C 
BRANCH 23 24
ATOM     24  C   GLY H  76     -10.692   6.030  -5.210  1.00 16.76 LIG 0.19  C 
ATOM     25 O    GLY H  76     -11.545   6.878  -5.454  1.00 16.89 LIG-0.65  OA
ATOM     26 OXT  GLY H  76      -9.527   6.203  -5.589  1.00 15.95 LIG-0.65  OA
ENDBRANCH 23 24
ENDBRANCH 20 23
ENDBRANCH 18 19
ENDBRANCH 15 18
ENDBRANCH 1 14
BRANCH 1 27
ATOM     27  N   ARG H  74      -6.183   3.363  -3.839  1.00 22.12 LIG-0.35  N 
ATOM     28 H    ARG H  74      -6.103   2.565  -4.149  1.00 22.12 LIG 0.16  HD
ATOM     29  C   LEU H  73      -6.537   4.419  -4.569  1.00 24.75 LIG 0.26  C 
ATOM     30 O    LEU H  73      -6.992   5.438  -4.053  1.00 25.51 LIG-0.27  OA
BRANCH 29 31
ATOM     31  CA  LEU H  73      -6.371   4.327  -6.102  1.00 25.64 LIG 0.40  C 
ATOM     32  N   LEU H  73      -6.008   5.598  -6.793  1.00 27.50 LIG 0.61  N 
BRANCH 31 33
ATOM     33  CB  LEU H  73      -5.401   3.199  -6.498  1.00 26.32 LIG 0.06  C 
BRANCH 33 34
ATOM     34  CG  LEU H  73      -5.786   1.807  -7.014  1.00 25.96 LIG-0.02  C 
ATOM     35  CD2 LEU H  73      -4.607   0.880  -6.748  1.00 27.32 LIG 0.01  C 
ATOM     36  CD1 LEU H  73      -6.098   1.815  -8.472  1.00 27.59 LIG 0.01  C 
ENDBRANCH 33 34
ENDBRANCH 31 33
ENDBRANCH 29 31
ENDBRANCH 1 27
TORSDOF 13
ENDMDL
MODEL 13
USER: ADFR SOLUTION from run 94
USER: SCORE 12.785825 LL:  -1.523 LR: -12.036 RR:   0.000 FEB:  -8.159
USER: RMSD 5.942485
USER: SEED 93
USER: STATUS no improvement in best in 3 clusters for 5 generations
USER: GENES 15
USER: genes 0 Translation |==|  0.46290 0.46611 0.41195
USER: genes 1 Rotation |==|  0.21875 0.50691 0.11876 0.65970
USER: genes 2 Torsion [C]-CA--CB-[CG] |==|  0.20240
USER: genes 3 Torsion [CA]-CB--CG-[CD] |==|  0.44567
USER: genes 4 Torsion [CB]-CG--CD-[NE] |==|  0.56553
USER: genes 5 Torsion [CG]-CD--NE-[HE] |==|  0.78633
USER: genes 6 Torsion [N]-CA--C-[N] |==|  0.65701
USER: genes 7 Torsion [C]-N--CA-[C] |==|  0.28159
USER: genes 8 Torsion [N]-CA--C-[N] |==|  0.48124
USER: genes 9 Torsion [C]-N--CA-[C] |==|  0.82221
USER: genes 10 Torsion [N]-CA--C-[O] |==|  0.43645
USER: genes 11 Torsion [CB]-CA--N-[C] |==|  0.16856
USER: genes 12 Torsion [N]-C--CA-[N] |==|  0.45090
USER: genes 13 Torsion [C]-CA--CB-[CG] |==|  0.05614
USER: genes 14 Torsion [CA]-CB--CG-[CD2] |==|  0.75312
ROOT
ATOM      1  CA  ARG H  74      -7.897   4.595  -1.378  1.00 20.60 LIG 0.18  C 
ENDROOT
BRANCH 1 2
ATOM      2  CB  ARG H  74      -6.999   3.680  -2.227  1.00 19.81 LIG 0.04  C 
BRANCH 2 3
ATOM      3  CG  ARG H  74      -6.402   4.328  -3.504  1.00 18.47 LIG 0.02  C 
BRANCH 3 4
ATOM      4  CD  ARG H  74      -5.189   3.560  -4.013  1.00 18.94 LIG 0.14  C 
BRANCH 4 5
ATOM      5  NE  ARG H  74      -4.304   4.398  -4.827  1.00 19.12 LIG-0.23  N 
ATOM      6 HE   ARG H  74      -4.543   4.569  -5.634  1.00 19.12 LIG 0.18  HD
ATOM      7  CZ  ARG H  74      -3.153   4.911  -4.396  1.00 19.95 LIG 0.67  C 
ATOM      8  NH1 ARG H  74      -2.756   4.704  -3.142  1.00 19.07 LIG-0.23  N 
ATOM      9  NH2 ARG H  74      -2.404   5.645  -5.220  1.00 20.02 LIG-0.23  N 
ATOM     10 2HH1 ARG H  74      -2.012   5.036  -2.867  1.00 19.07 LIG 0.17  HD
ATOM     11 1HH1 ARG H  74      -3.243   4.239  -2.608  1.00 19.07 LIG 0.17  HD
ATOM     12 1HH2 ARG H  74      -2.665   5.787  -6.027  1.00 20.02 LIG 0.17  HD
ATOM     13 2HH2 ARG H  74      -1.661   5.977  -4.944  1.00 20.02 LIG 0.17  HD
ENDBRANCH 4 5
ENDBRANCH 3 4
ENDBRANCH 2 3
ENDBRANCH 1 2
BRANCH 1 14
ATOM     14  C   ARG H  74      -9.240   4.817  -2.082  1.00 20.00 LIG 0.24  C 
ATOM     15  N   GLY H  75      -9.415   4.272  -3.280  1.00 19.10 LIG-0.35  N 
ATOM     16 H    GLY H  75      -8.822   3.806  -3.694  1.00 19.10 LIG 0.16  HD
ATOM     17 O    ARG H  74     -10.101   5.507  -1.554  1.00 20.55 LIG-0.27  OA
BRANCH 15 18
ATOM     18  CA  GLY H  75     -10.687   4.439  -4.001  1.00 17.93 LIG 0.23  C 
BRANCH 18 19
ATOM     19  C   GLY H  75     -10.606   5.500  -5.090  1.00 17.33 LIG 0.23  C 
ATOM     20  N   GLY H  76     -11.672   5.617  -5.883  1.00 16.80 LIG-0.35  N 
ATOM     21 H    GLY H  76     -12.363   5.107  -5.847  1.00 16.80 LIG 0.16  HD
ATOM     22 O    GLY H  75      -9.592   6.203  -5.222  1.00 16.80 LIG-0.27  OA
BRANCH 20 23
ATOM     23  CA  GLY H  76     -11.729   6.657  -6.895  1.00 16.50 LIG 0.23  C 
BRANCH 23 24
ATOM     24  C   GLY H  76     -11.732   8.077  -6.365  1.00 16.76 LIG 0.19  C 
ATOM     25 O    GLY H  76     -11.360   8.991  -7.095  1.00 16.89 LIG-0.65  OA
ATOM     26 OXT  GLY H  76     -12.104   8.325  -5.211  1.00 15.95 LIG-0.65  OA
ENDBRANCH 23 24
ENDBRANCH 20 23
ENDBRANCH 18 19
ENDBRANCH 15 18
ENDBRANCH 1 14
BRANCH 1 27
ATOM     27  N   ARG H  74      -8.187   3.983  -0.074  1.00 22.12 LIG-0.35  N 
ATOM     28 H    ARG H  74      -9.021   3.839   0.078  1.00 22.12 LIG 0.16  HD
ATOM     29  C   LEU H  73      -7.207   3.688   0.778  1.00 24.75 LIG 0.26  C 
ATOM     30 O    LEU H  73      -6.042   3.561   0.406  1.00 25.51 LIG-0.27  OA
BRANCH 29 31
ATOM     31  CA  LEU H  73      -7.577   3.495   2.266  1.00 25.64 LIG 0.40  C 
ATOM     32  N   LEU H  73      -6.566   2.781   3.098  1.00 27.50 LIG 0.61  N 
BRANCH 31 33
ATOM     33  CB  LEU H  73      -7.979   4.827   2.925  1.00 26.32 LIG 0.06  C 
BRANCH 33 34
ATOM     34  CG  LEU H  73      -8.445   6.096   2.202  1.00 25.96 LIG-0.02  C 
ATOM     35  CD2 LEU H  73      -7.203   6.918   1.879  1.00 27.32 LIG 0.01  C 
ATOM     36  CD1 LEU H  73      -9.379   6.907   3.035  1.00 27.59 LIG 0.01  C 
ENDBRANCH 33 34
ENDBRANCH 31 33
ENDBRANCH 29 31
ENDBRANCH 1 27
TORSDOF 13
ENDMDL
MODEL 14
USER: ADFR SOLUTION from run 143
USER: SCORE 12.026992 LL:  -1.579 LR: -12.003 RR:   0.000 FEB:  -8.125
USER: RMSD 5.553814
USER: SEED 142
USER: STATUS no improvement in best in 8 clusters for 5 generations
USER: GENES 15
USER: genes 0 Translation |==|  0.56153 0.46381 0.40593
USER: genes 1 Rotation |==|  0.09020 0.38347 0.25387 0.58889
USER: genes 2 Torsion [C]-CA--CB-[CG] |==|  0.29993
USER: genes 3 Torsion [CA]-CB--CG-[CD] |==|  0.69550
USER: genes 4 Torsion [CB]-CG--CD-[NE] |==|  0.92236
USER: genes 5 Torsion [CG]-CD--NE-[HE] |==|  0.09276
USER: genes 6 Torsion [N]-CA--C-[N] |==|  0.49444
USER: genes 7 Torsion [C]-N--CA-[C] |==|  0.30388
USER: genes 8 Torsion [N]-CA--C-[N] |==|  0.25119
USER: genes 9 Torsion [C]-N--CA-[C] |==|  0.21972
USER: genes 10 Torsion [N]-CA--C-[O] |==|  0.08262
USER: genes 11 Torsion [CB]-CA--N-[C] |==|  0.86529
USER: genes 12 Torsion [N]-C--CA-[N] |==|  0.82714
USER: genes 13 Torsion [C]-CA--CB-[CG] |==|  0.11278
USER: genes 14 Torsion [CA]-CB--CG-[CD2] |==|  0.10156
ROOT
ATOM      1  CA  ARG H  74      -6.121   4.562  -1.500  1.00 20.60 LIG 0.18  C 
ENDROOT
BRANCH 1 2
ATOM      2  CB  ARG H  74      -5.352   3.339  -2.024  1.00 19.81 LIG 0.04  C 
BRANCH 2 3
ATOM      3  CG  ARG H  74      -4.918   3.411  -3.512  1.00 18.47 LIG 0.02  C 
BRANCH 3 4
ATOM      4  CD  ARG H  74      -5.709   2.440  -4.379  1.00 18.94 LIG 0.14  C 
BRANCH 4 5
ATOM      5  NE  ARG H  74      -6.172   1.271  -3.624  1.00 19.12 LIG-0.23  N 
ATOM      6 HE   ARG H  74      -6.377   1.383  -2.797  1.00 19.12 LIG 0.18  HD
ATOM      7  CZ  ARG H  74      -6.293   0.048  -4.137  1.00 19.95 LIG 0.67  C 
ATOM      8  NH1 ARG H  74      -6.022  -0.169  -5.421  1.00 19.07 LIG-0.23  N 
ATOM      9  NH2 ARG H  74      -6.703  -0.958  -3.363  1.00 20.02 LIG-0.23  N 
ATOM     10 2HH1 ARG H  74      -6.101  -0.959  -5.750  1.00 19.07 LIG 0.17  HD
ATOM     11 1HH1 ARG H  74      -5.767   0.482  -5.923  1.00 19.07 LIG 0.17  HD
ATOM     12 1HH2 ARG H  74      -6.888  -0.815  -2.535  1.00 20.02 LIG 0.17  HD
ATOM     13 2HH2 ARG H  74      -6.783  -1.748  -3.691  1.00 20.02 LIG 0.17  HD
ENDBRANCH 4 5
ENDBRANCH 3 4
ENDBRANCH 2 3
ENDBRANCH 1 2
BRANCH 1 14
ATOM     14  C   ARG H  74      -7.598   4.208  -1.293  1.00 20.00 LIG 0.24  C 
ATOM     15  N   GLY H  75      -8.302   3.824  -2.351  1.00 19.10 LIG-0.35  N 
ATOM     16 H    GLY H  75      -7.989   3.766  -3.150  1.00 19.10 LIG 0.16  HD
ATOM     17 O    ARG H  74      -8.104   4.315  -0.185  1.00 20.55 LIG-0.27  OA
BRANCH 15 18
ATOM     18  CA  GLY H  75      -9.722   3.459  -2.215  1.00 17.93 LIG 0.23  C 
BRANCH 18 19
ATOM     19  C   GLY H  75     -10.652   4.486  -2.846  1.00 17.33 LIG 0.23  C 
ATOM     20  N   GLY H  76     -10.969   4.289  -4.126  1.00 16.80 LIG-0.35  N 
ATOM     21 H    GLY H  76     -10.646   3.661  -4.617  1.00 16.80 LIG 0.16  HD
ATOM     22 O    GLY H  75     -11.076   5.451  -2.191  1.00 16.80 LIG-0.27  OA
BRANCH 20 23
ATOM     23  CA  GLY H  76     -11.917   5.162  -4.795  1.00 16.50 LIG 0.23  C 
BRANCH 23 24
ATOM     24  C   GLY H  76     -11.359   6.498  -5.249  1.00 16.76 LIG 0.19  C 
ATOM     25 O    GLY H  76     -10.173   6.580  -5.553  1.00 16.89 LIG-0.65  OA
ATOM     26 OXT  GLY H  76     -12.081   7.500  -5.315  1.00 15.95 LIG-0.65  OA
ENDBRANCH 23 24
ENDBRANCH 20 23
ENDBRANCH 18 19
ENDBRANCH 15 18
ENDBRANCH 1 14
BRANCH 1 27
ATOM     27  N   ARG H  74      -5.594   4.996  -0.199  1.00 22.12 LIG-0.35  N 
ATOM     28 H    ARG H  74      -5.435   5.839  -0.138  1.00 22.12 LIG 0.16  HD
ATOM     29  C   LEU H  73      -5.391   4.122   0.785  1.00 24.75 LIG 0.26  C 
ATOM     30 O    LEU H  73      -5.952   3.028   0.804  1.00 25.51 LIG-0.27  OA
BRANCH 29 31
ATOM     31  CA  LEU H  73      -4.429   4.527   1.924  1.00 25.64 LIG 0.40  C 
ATOM     32  N   LEU H  73      -3.015   4.780   1.520  1.00 27.50 LIG 0.61  N 
BRANCH 31 33
ATOM     33  CB  LEU H  73      -4.982   5.711   2.737  1.00 26.32 LIG 0.06  C 
BRANCH 33 34
ATOM     34  CG  LEU H  73      -6.439   5.919   3.164  1.00 25.96 LIG-0.02  C 
ATOM     35  CD2 LEU H  73      -7.016   4.549   3.500  1.00 27.32 LIG 0.01  C 
ATOM     36  CD1 LEU H  73      -7.255   6.556   2.091  1.00 27.59 LIG 0.01  C 
ENDBRANCH 33 34
ENDBRANCH 31 33
ENDBRANCH 29 31
ENDBRANCH 1 27
TORSDOF 13
ENDMDL
MODEL 15
USER: ADFR SOLUTION from run 112
USER: SCORE 13.101718 LL:  -1.770 LR: -11.989 RR:   0.000 FEB:  -8.111
USER: RMSD 6.303427
USER: SEED 111
USER: STATUS no improvement in best in 4 clusters for 5 generations
USER: GENES 15
USER: genes 0 Translation |==|  0.41806 0.48896 0.39495
USER: genes 1 Rotation |==|  0.18133 0.44283 0.14756 0.64480
USER: genes 2 Torsion [C]-CA--CB-[CG] |==|  0.25823
USER: genes 3 Torsion [CA]-CB--CG-[CD] |==|  0.85458
USER: genes 4 Torsion [CB]-CG--CD-[NE] |==|  0.44801
USER: genes 5 Torsion [CG]-CD--NE-[HE] |==|  0.68198
USER: genes 6 Torsion [N]-CA--C-[N] |==|  0.65321
USER: genes 7 Torsion [C]-N--CA-[C] |==|  0.26343
USER: genes 8 Torsion [N]-CA--C-[N] |==|  0.94850
USER: genes 9 Torsion [C]-N--CA-[C] |==|  0.29846
USER: genes 10 Torsion [N]-CA--C-[O] |==|  0.96280
USER: genes 11 Torsion [CB]-CA--N-[C] |==|  0.16567
USER: genes 12 Torsion [N]-C--CA-[N] |==|  0.47112
USER: genes 13 Torsion [C]-CA--CB-[CG] |==|  0.05818
USER: genes 14 Torsion [CA]-CB--CG-[CD2] |==|  0.73218
ROOT
ATOM      1  CA  ARG H  74      -8.704   4.921  -1.722  1.00 20.60 LIG 0.18  C 
ENDROOT
BRANCH 1 2
ATOM      2  CB  ARG H  74      -7.749   3.923  -2.396  1.00 19.81 LIG 0.04  C 
BRANCH 2 3
ATOM      3  CG  ARG H  74      -6.978   4.464  -3.629  1.00 18.47 LIG 0.02  C 
BRANCH 3 4
ATOM      4  CD  ARG H  74      -7.917   5.084  -4.655  1.00 18.94 LIG 0.14  C 
BRANCH 4 5
ATOM      5  NE  ARG H  74      -7.214   5.970  -5.587  1.00 19.12 LIG-0.23  N 
ATOM      6 HE   ARG H  74      -7.404   6.808  -5.566  1.00 19.12 LIG 0.18  HD
ATOM      7  CZ  ARG H  74      -6.300   5.561  -6.465  1.00 19.95 LIG 0.67  C 
ATOM      8  NH1 ARG H  74      -5.944   4.279  -6.513  1.00 19.07 LIG-0.23  N 
ATOM      9  NH2 ARG H  74      -5.729   6.442  -7.288  1.00 20.02 LIG-0.23  N 
ATOM     10 2HH1 ARG H  74      -5.354   4.017  -7.081  1.00 19.07 LIG 0.17  HD
ATOM     11 1HH1 ARG H  74      -6.305   3.713  -5.976  1.00 19.07 LIG 0.17  HD
ATOM     12 1HH2 ARG H  74      -5.952   7.272  -7.250  1.00 20.02 LIG 0.17  HD
ATOM     13 2HH2 ARG H  74      -5.138   6.181  -7.855  1.00 20.02 LIG 0.17  HD
ENDBRANCH 4 5
ENDBRANCH 3 4
ENDBRANCH 2 3
ENDBRANCH 1 2
BRANCH 1 14
ATOM     14  C   ARG H  74     -10.116   4.772  -2.300  1.00 20.00 LIG 0.24  C 
ATOM     15  N   GLY H  75     -10.294   3.918  -3.301  1.00 19.10 LIG-0.35  N 
ATOM     16 H    GLY H  75      -9.669   3.445  -3.654  1.00 19.10 LIG 0.16  HD
ATOM     17 O    ARG H  74     -11.031   5.453  -1.860  1.00 20.55 LIG-0.27  OA
BRANCH 15 18
ATOM     18  CA  GLY H  75     -11.629   3.722  -3.890  1.00 17.93 LIG 0.23  C 
BRANCH 18 19
ATOM     19  C   GLY H  75     -11.858   4.590  -5.119  1.00 17.33 LIG 0.23  C 
ATOM     20  N   GLY H  76     -11.044   5.636  -5.266  1.00 16.80 LIG-0.35  N 
ATOM     21 H    GLY H  76     -10.446   5.870  -4.694  1.00 16.80 LIG 0.16  HD
ATOM     22 O    GLY H  75     -12.764   4.328  -5.926  1.00 16.80 LIG-0.27  OA
BRANCH 20 23
ATOM     23  CA  GLY H  76     -11.124   6.475  -6.448  1.00 16.50 LIG 0.23  C 
BRANCH 23 24
ATOM     24  C   GLY H  76     -11.729   7.848  -6.228  1.00 16.76 LIG 0.19  C 
ATOM     25 O    GLY H  76     -12.326   8.079  -5.181  1.00 16.89 LIG-0.65  OA
ATOM     26 OXT  GLY H  76     -11.628   8.733  -7.086  1.00 15.95 LIG-0.65  OA
ENDBRANCH 23 24
ENDBRANCH 20 23
ENDBRANCH 18 19
ENDBRANCH 15 18
ENDBRANCH 1 14
BRANCH 1 27
ATOM     27  N   ARG H  74      -8.797   4.665  -0.278  1.00 22.12 LIG-0.35  N 
ATOM     28 H    ARG H  74      -9.588   4.482   0.004  1.00 22.12 LIG 0.16  HD
ATOM     29  C   LEU H  73      -7.718   4.721   0.499  1.00 24.75 LIG 0.26  C 
ATOM     30 O    LEU H  73      -6.582   4.619   0.038  1.00 25.51 LIG-0.27  OA
BRANCH 29 31
ATOM     31  CA  LEU H  73      -7.929   4.908   2.018  1.00 25.64 LIG 0.40  C 
ATOM     32  N   LEU H  73      -6.718   4.724   2.870  1.00 27.50 LIG 0.61  N 
BRANCH 31 33
ATOM     33  CB  LEU H  73      -8.615   6.250   2.332  1.00 26.32 LIG 0.06  C 
BRANCH 33 34
ATOM     34  CG  LEU H  73      -9.447   7.096   1.361  1.00 25.96 LIG-0.02  C 
ATOM     35  CD2 LEU H  73      -8.526   8.162   0.780  1.00 27.32 LIG 0.01  C 
ATOM     36  CD1 LEU H  73     -10.606   7.749   2.035  1.00 27.59 LIG 0.01  C 
ENDBRANCH 33 34
ENDBRANCH 31 33
ENDBRANCH 29 31
ENDBRANCH 1 27
TORSDOF 13
ENDMDL
MODEL 16
USER: ADFR SOLUTION from run 192
USER: SCORE 11.593368 LL:  -1.236 LR: -11.829 RR:   0.000 FEB:  -7.951
USER: RMSD 8.481770
USER: SEED 191
USER: STATUS no improvement in best in 15 clusters for 5 generations
USER: GENES 15
USER: genes 0 Translation |==|  0.44038 0.39474 0.36254
USER: genes 1 Rotation |==|  0.56908 0.94640 0.31609 0.61013
USER: genes 2 Torsion [C]-CA--CB-[CG] |==|  0.29536
USER: genes 3 Torsion [CA]-CB--CG-[CD] |==|  0.17191
USER: genes 4 Torsion [CB]-CG--CD-[NE] |==|  0.74259
USER: genes 5 Torsion [CG]-CD--NE-[HE] |==|  0.00404
USER: genes 6 Torsion [N]-CA--C-[N] |==|  0.57443
USER: genes 7 Torsion [C]-N--CA-[C] |==|  0.78484
USER: genes 8 Torsion [N]-CA--C-[N] |==|  0.58333
USER: genes 9 Torsion [C]-N--CA-[C] |==|  0.83599
USER: genes 10 Torsion [N]-CA--C-[O] |==|  0.40244
USER: genes 11 Torsion [CB]-CA--N-[C] |==|  0.81547
USER: genes 12 Torsion [N]-C--CA-[N] |==|  0.24757
USER: genes 13 Torsion [C]-CA--CB-[CG] |==|  0.28283
USER: genes 14 Torsion [CA]-CB--CG-[CD2] |==|  0.45893
ROOT
ATOM      1  CA  ARG H  74      -8.302   3.578  -2.379  1.00 20.60 LIG 0.18  C 
ENDROOT
BRANCH 1 2
ATOM      2  CB  ARG H  74      -7.302   4.450  -3.155  1.00 19.81 LIG 0.04  C 
BRANCH 2 3
ATOM      3  CG  ARG H  74      -5.899   3.825  -3.371  1.00 18.47 LIG 0.02  C 
BRANCH 3 4
ATOM      4  CD  ARG H  74      -5.971   2.544  -4.193  1.00 18.94 LIG 0.14  C 
BRANCH 4 5
ATOM      5  NE  ARG H  74      -6.081   1.349  -3.351  1.00 19.12 LIG-0.23  N 
ATOM      6 HE   ARG H  74      -6.114   1.460  -2.499  1.00 19.12 LIG 0.18  HD
ATOM      7  CZ  ARG H  74      -6.132   0.104  -3.820  1.00 19.95 LIG 0.67  C 
ATOM      8  NH1 ARG H  74      -6.120  -0.118  -5.132  1.00 19.07 LIG-0.23  N 
ATOM      9  NH2 ARG H  74      -6.210  -0.922  -2.971  1.00 20.02 LIG-0.23  N 
ATOM     10 2HH1 ARG H  74      -6.153  -0.923  -5.433  1.00 19.07 LIG 0.17  HD
ATOM     11 1HH1 ARG H  74      -6.079   0.544  -5.679  1.00 19.07 LIG 0.17  HD
ATOM     12 1HH2 ARG H  74      -6.228  -0.778  -2.123  1.00 20.02 LIG 0.17  HD
ATOM     13 2HH2 ARG H  74      -6.243  -1.727  -3.271  1.00 20.02 LIG 0.17  HD
ENDBRANCH 4 5
ENDBRANCH 3 4
ENDBRANCH 2 3
ENDBRANCH 1 2
BRANCH 1 14
ATOM     14  C   ARG H  74      -8.493   4.129  -0.961  1.00 20.00 LIG 0.24  C 
ATOM     15  N   GLY H  75      -7.458   4.720  -0.376  1.00 19.10 LIG-0.35  N 
ATOM     16 H    GLY H  75      -6.682   4.810  -0.736  1.00 19.10 LIG 0.16  HD
ATOM     17 O    ARG H  74      -9.565   3.988  -0.389  1.00 20.55 LIG-0.27  OA
BRANCH 15 18
ATOM     18  CA  GLY H  75      -7.582   5.279   0.980  1.00 17.93 LIG 0.23  C 
BRANCH 18 19
ATOM     19  C   GLY H  75      -8.310   6.616   0.995  1.00 17.33 LIG 0.23  C 
ATOM     20  N   GLY H  76      -7.961   7.469   1.960  1.00 16.80 LIG-0.35  N 
ATOM     21 H    GLY H  76      -7.399   7.291   2.586  1.00 16.80 LIG 0.16  HD
ATOM     22 O    GLY H  75      -9.183   6.877   0.154  1.00 16.80 LIG-0.27  OA
BRANCH 20 23
ATOM     23  CA  GLY H  76      -8.533   8.802   2.010  1.00 16.50 LIG 0.23  C 
BRANCH 23 24
ATOM     24  C   GLY H  76      -8.290   9.658   0.781  1.00 16.76 LIG 0.19  C 
ATOM     25 O    GLY H  76      -9.162  10.438   0.412  1.00 16.89 LIG-0.65  OA
ATOM     26 OXT  GLY H  76      -7.229   9.578   0.151  1.00 15.95 LIG-0.65  OA
ENDBRANCH 23 24
ENDBRANCH 20 23
ENDBRANCH 18 19
ENDBRANCH 15 18
ENDBRANCH 1 14
BRANCH 1 27
ATOM     27  N   ARG H  74      -9.620   3.587  -3.028  1.00 22.12 LIG-0.35  N 
ATOM     28 H    ARG H  74      -9.864   2.831  -3.358  1.00 22.12 LIG 0.16  HD
ATOM     29  C   LEU H  73     -10.352   4.698  -3.081  1.00 24.75 LIG 0.26  C 
ATOM     30 O    LEU H  73     -10.160   5.636  -2.308  1.00 25.51 LIG-0.27  OA
BRANCH 29 31
ATOM     31  CA  LEU H  73     -11.470   4.778  -4.143  1.00 25.64 LIG 0.40  C 
ATOM     32  N   LEU H  73     -12.805   4.262  -3.720  1.00 27.50 LIG 0.61  N 
BRANCH 31 33
ATOM     33  CB  LEU H  73     -11.596   6.197  -4.725  1.00 26.32 LIG 0.06  C 
BRANCH 33 34
ATOM     34  CG  LEU H  73     -11.062   6.676  -6.080  1.00 25.96 LIG-0.02  C 
ATOM     35  CD2 LEU H  73     -11.729   8.011  -6.387  1.00 27.32 LIG 0.01  C 
ATOM     36  CD1 LEU H  73     -11.354   5.706  -7.174  1.00 27.59 LIG 0.01  C 
ENDBRANCH 33 34
ENDBRANCH 31 33
ENDBRANCH 29 31
ENDBRANCH 1 27
TORSDOF 13
ENDMDL
MODEL 17
USER: ADFR SOLUTION from run 83
USER: SCORE 12.494879 LL:  -1.912 LR: -11.825 RR:   0.000 FEB:  -7.947
USER: RMSD 4.225164
USER: SEED 82
USER: STATUS no improvement in best in 18 clusters for 5 generations
USER: GENES 15
USER: genes 0 Translation |==|  0.41422 0.40887 0.40806
USER: genes 1 Rotation |==|  0.65835 0.64624 0.38041 0.93502
USER: genes 2 Torsion [C]-CA--CB-[CG] |==|  0.42942
USER: genes 3 Torsion [CA]-CB--CG-[CD] |==|  0.57770
USER: genes 4 Torsion [CB]-CG--CD-[NE] |==|  0.58546
USER: genes 5 Torsion [CG]-CD--NE-[HE] |==|  0.69973
USER: genes 6 Torsion [N]-CA--C-[N] |==|  0.10885
USER: genes 7 Torsion [C]-N--CA-[C] |==|  0.24750
USER: genes 8 Torsion [N]-CA--C-[N] |==|  0.43229
USER: genes 9 Torsion [C]-N--CA-[C] |==|  0.79409
USER: genes 10 Torsion [N]-CA--C-[O] |==|  0.00885
USER: genes 11 Torsion [CB]-CA--N-[C] |==|  0.83889
USER: genes 12 Torsion [N]-C--CA-[N] |==|  0.48050
USER: genes 13 Torsion [C]-CA--CB-[CG] |==|  0.90795
USER: genes 14 Torsion [CA]-CB--CG-[CD2] |==|  0.68543
ROOT
ATOM      1  CA  ARG H  74      -8.773   3.779  -1.457  1.00 20.60 LIG 0.18  C 
ENDROOT
BRANCH 1 2
ATOM      2  CB  ARG H  74      -8.121   4.775  -0.483  1.00 19.81 LIG 0.04  C 
BRANCH 2 3
ATOM      3  CG  ARG H  74      -7.397   4.141   0.733  1.00 18.47 LIG 0.02  C 
BRANCH 3 4
ATOM      4  CD  ARG H  74      -7.387   5.077   1.935  1.00 18.94 LIG 0.14  C 
BRANCH 4 5
ATOM      5  NE  ARG H  74      -6.199   4.891   2.774  1.00 19.12 LIG-0.23  N 
ATOM      6 HE   ARG H  74      -6.302   4.513   3.539  1.00 19.12 LIG 0.18  HD
ATOM      7  CZ  ARG H  74      -4.971   5.271   2.427  1.00 19.95 LIG 0.67  C 
ATOM      8  NH1 ARG H  74      -4.752   5.828   1.239  1.00 19.07 LIG-0.23  N 
ATOM      9  NH2 ARG H  74      -3.954   5.077   3.270  1.00 20.02 LIG-0.23  N 
ATOM     10 2HH1 ARG H  74      -3.958   6.072   1.017  1.00 19.07 LIG 0.17  HD
ATOM     11 1HH1 ARG H  74      -5.406   5.944   0.692  1.00 19.07 LIG 0.17  HD
ATOM     12 1HH2 ARG H  74      -4.094   4.708   4.034  1.00 20.02 LIG 0.17  HD
ATOM     13 2HH2 ARG H  74      -3.160   5.321   3.048  1.00 20.02 LIG 0.17  HD
ENDBRANCH 4 5
ENDBRANCH 3 4
ENDBRANCH 2 3
ENDBRANCH 1 2
BRANCH 1 14
ATOM     14  C   ARG H  74      -9.931   4.452  -2.202  1.00 20.00 LIG 0.24  C 
ATOM     15  N   GLY H  75     -10.341   3.906  -3.341  1.00 19.10 LIG-0.35  N 
ATOM     16 H    GLY H  75      -9.997   3.203  -3.696  1.00 19.10 LIG 0.16  HD
ATOM     17 O    ARG H  74     -10.427   5.480  -1.763  1.00 20.55 LIG-0.27  OA
BRANCH 15 18
ATOM     18  CA  GLY H  75     -11.456   4.499  -4.097  1.00 17.93 LIG 0.23  C 
BRANCH 18 19
ATOM     19  C   GLY H  75     -10.992   5.552  -5.094  1.00 17.33 LIG 0.23  C 
ATOM     20  N   GLY H  76     -11.793   5.775  -6.136  1.00 16.80 LIG-0.35  N 
ATOM     21 H    GLY H  76     -12.513   5.334  -6.299  1.00 16.80 LIG 0.16  HD
ATOM     22 O    GLY H  75      -9.919   6.154  -4.933  1.00 16.80 LIG-0.27  OA
BRANCH 20 23
ATOM     23  CA  GLY H  76     -11.484   6.819  -7.096  1.00 16.50 LIG 0.23  C 
BRANCH 23 24
ATOM     24  C   GLY H  76     -11.729   8.236  -6.614  1.00 16.76 LIG 0.19  C 
ATOM     25 O    GLY H  76     -12.104   8.420  -5.460  1.00 16.89 LIG-0.65  OA
ATOM     26 OXT  GLY H  76     -11.557   9.203  -7.366  1.00 15.95 LIG-0.65  OA
ENDBRANCH 23 24
ENDBRANCH 20 23
ENDBRANCH 18 19
ENDBRANCH 15 18
ENDBRANCH 1 14
BRANCH 1 27
ATOM     27  N   ARG H  74      -7.809   3.328  -2.470  1.00 22.12 LIG-0.35  N 
ATOM     28 H    ARG H  74      -7.687   2.477  -2.496  1.00 22.12 LIG 0.16  HD
ATOM     29  C   LEU H  73      -7.194   4.199  -3.267  1.00 24.75 LIG 0.26  C 
ATOM     30 O    LEU H  73      -7.642   5.328  -3.461  1.00 25.51 LIG-0.27  OA
BRANCH 29 31
ATOM     31  CA  LEU H  73      -5.891   3.747  -3.963  1.00 25.64 LIG 0.40  C 
ATOM     32  N   LEU H  73      -5.329   4.695  -4.968  1.00 27.50 LIG 0.61  N 
BRANCH 31 33
ATOM     33  CB  LEU H  73      -4.815   3.341  -2.939  1.00 26.32 LIG 0.06  C 
BRANCH 33 34
ATOM     34  CG  LEU H  73      -4.604   3.954  -1.550  1.00 25.96 LIG-0.02  C 
ATOM     35  CD2 LEU H  73      -3.264   4.679  -1.571  1.00 27.32 LIG 0.01  C 
ATOM     36  CD1 LEU H  73      -4.599   2.921  -0.474  1.00 27.59 LIG 0.01  C 
ENDBRANCH 33 34
ENDBRANCH 31 33
ENDBRANCH 29 31
ENDBRANCH 1 27
TORSDOF 13
ENDMDL
MODEL 18
USER: ADFR SOLUTION from run 76
USER: SCORE 12.439693 LL:  -1.743 LR: -11.783 RR:   0.000 FEB:  -7.905
USER: RMSD 7.214499
USER: SEED 75
USER: STATUS no improvement in best in 4 clusters for 5 generations
USER: GENES 15
USER: genes 0 Translation |==|  0.62232 0.34290 0.16568
USER: genes 1 Rotation |==|  0.92650 0.48212 0.67708 0.69085
USER: genes 2 Torsion [C]-CA--CB-[CG] |==|  0.78611
USER: genes 3 Torsion [CA]-CB--CG-[CD] |==|  0.51367
USER: genes 4 Torsion [CB]-CG--CD-[NE] |==|  0.27307
USER: genes 5 Torsion [CG]-CD--NE-[HE] |==|  0.67904
USER: genes 6 Torsion [N]-CA--C-[N] |==|  0.86625
USER: genes 7 Torsion [C]-N--CA-[C] |==|  0.28685
USER: genes 8 Torsion [N]-CA--C-[N] |==|  0.09997
USER: genes 9 Torsion [C]-N--CA-[C] |==|  0.81824
USER: genes 10 Torsion [N]-CA--C-[O] |==|  0.27876
USER: genes 11 Torsion [CB]-CA--N-[C] |==|  0.19718
USER: genes 12 Torsion [N]-C--CA-[N] |==|  0.79964
USER: genes 13 Torsion [C]-CA--CB-[CG] |==|  0.84069
USER: genes 14 Torsion [CA]-CB--CG-[CD2] |==|  0.61167
ROOT
ATOM      1  CA  ARG H  74      -5.027   2.839  -6.365  1.00 20.60 LIG 0.18  C 
ENDROOT
BRANCH 1 2
ATOM      2  CB  ARG H  74      -5.729   1.607  -5.771  1.00 19.81 LIG 0.04  C 
BRANCH 2 3
ATOM      3  CG  ARG H  74      -5.886   1.607  -4.228  1.00 18.47 LIG 0.02  C 
BRANCH 3 4
ATOM      4  CD  ARG H  74      -6.480   0.299  -3.721  1.00 18.94 LIG 0.14  C 
BRANCH 4 5
ATOM      5  NE  ARG H  74      -5.453  -0.623  -3.227  1.00 19.12 LIG-0.23  N 
ATOM      6 HE   ARG H  74      -5.345  -1.366  -3.646  1.00 19.12 LIG 0.18  HD
ATOM      7  CZ  ARG H  74      -4.678  -0.385  -2.171  1.00 19.95 LIG 0.67  C 
ATOM      8  NH1 ARG H  74      -4.781   0.766  -1.510  1.00 19.07 LIG-0.23  N 
ATOM      9  NH2 ARG H  74      -3.784  -1.297  -1.785  1.00 20.02 LIG-0.23  N 
ATOM     10 2HH1 ARG H  74      -4.279   0.917  -0.829  1.00 19.07 LIG 0.17  HD
ATOM     11 1HH1 ARG H  74      -5.351   1.358  -1.765  1.00 19.07 LIG 0.17  HD
ATOM     12 1HH2 ARG H  74      -3.710  -2.037  -2.218  1.00 20.02 LIG 0.17  HD
ATOM     13 2HH2 ARG H  74      -3.282  -1.145  -1.104  1.00 20.02 LIG 0.17  HD
ENDBRANCH 4 5
ENDBRANCH 3 4
ENDBRANCH 2 3
ENDBRANCH 1 2
BRANCH 1 14
ATOM     14  C   ARG H  74      -5.990   4.031  -6.397  1.00 20.00 LIG 0.24  C 
ATOM     15  N   GLY H  75      -6.297   4.618  -5.246  1.00 19.10 LIG-0.35  N 
ATOM     16 H    GLY H  75      -5.996   4.371  -4.479  1.00 19.10 LIG 0.16  HD
ATOM     17 O    ARG H  74      -6.479   4.394  -7.458  1.00 20.55 LIG-0.27  OA
BRANCH 15 18
ATOM     18  CA  GLY H  75      -7.207   5.774  -5.213  1.00 17.93 LIG 0.23  C 
BRANCH 18 19
ATOM     19  C   GLY H  75      -8.603   5.405  -4.732  1.00 17.33 LIG 0.23  C 
ATOM     20  N   GLY H  76      -8.675   4.474  -3.780  1.00 16.80 LIG-0.35  N 
ATOM     21 H    GLY H  76      -7.998   4.046  -3.466  1.00 16.80 LIG 0.16  HD
ATOM     22 O    GLY H  75      -9.609   5.945  -5.218  1.00 16.80 LIG-0.27  OA
BRANCH 20 23
ATOM     23  CA  GLY H  76      -9.953   4.114  -3.193  1.00 16.50 LIG 0.23  C 
BRANCH 23 24
ATOM     24  C   GLY H  76     -10.632   5.212  -2.397  1.00 16.76 LIG 0.19  C 
ATOM     25 O    GLY H  76     -11.540   5.855  -2.916  1.00 16.89 LIG-0.65  OA
ATOM     26 OXT  GLY H  76     -10.284   5.465  -1.238  1.00 15.95 LIG-0.65  OA
ENDBRANCH 23 24
ENDBRANCH 20 23
ENDBRANCH 18 19
ENDBRANCH 15 18
ENDBRANCH 1 14
BRANCH 1 27
ATOM     27  N   ARG H  74      -3.876   3.235  -5.542  1.00 22.12 LIG-0.35  N 
ATOM     28 H    ARG H  74      -3.983   3.965  -5.101  1.00 22.12 LIG 0.16  HD
ATOM     29  C   LEU H  73      -2.770   2.494  -5.509  1.00 24.75 LIG 0.26  C 
ATOM     30 O    LEU H  73      -2.775   1.309  -5.839  1.00 25.51 LIG-0.27  OA
BRANCH 29 31
ATOM     31  CA  LEU H  73      -1.465   3.164  -5.027  1.00 25.64 LIG 0.40  C 
ATOM     32  N   LEU H  73      -0.852   4.145  -5.970  1.00 27.50 LIG 0.61  N 
BRANCH 31 33
ATOM     33  CB  LEU H  73      -1.633   3.788  -3.629  1.00 26.32 LIG 0.06  C 
BRANCH 33 34
ATOM     34  CG  LEU H  73      -2.664   4.848  -3.224  1.00 25.96 LIG-0.02  C 
ATOM     35  CD2 LEU H  73      -1.964   5.834  -2.298  1.00 27.32 LIG 0.01  C 
ATOM     36  CD1 LEU H  73      -3.838   4.251  -2.524  1.00 27.59 LIG 0.01  C 
ENDBRANCH 33 34
ENDBRANCH 31 33
ENDBRANCH 29 31
ENDBRANCH 1 27
TORSDOF 13
ENDMDL
MODEL 19
USER: ADFR SOLUTION from run 195
USER: SCORE 11.620469 LL:  -1.815 LR: -11.766 RR:   0.000 FEB:  -7.889
USER: RMSD 7.173922
USER: SEED 194
USER: STATUS no improvement in best in 8 clusters for 5 generations
USER: GENES 15
USER: genes 0 Translation |==|  0.62143 0.37502 0.20116
USER: genes 1 Rotation |==|  0.82466 0.38037 0.86095 0.50044
USER: genes 2 Torsion [C]-CA--CB-[CG] |==|  0.44063
USER: genes 3 Torsion [CA]-CB--CG-[CD] |==|  0.24665
USER: genes 4 Torsion [CB]-CG--CD-[NE] |==|  0.12280
USER: genes 5 Torsion [CG]-CD--NE-[HE] |==|  0.18643
USER: genes 6 Torsion [N]-CA--C-[N] |==|  0.04429
USER: genes 7 Torsion [C]-N--CA-[C] |==|  0.30442
USER: genes 8 Torsion [N]-CA--C-[N] |==|  0.05528
USER: genes 9 Torsion [C]-N--CA-[C] |==|  0.81423
USER: genes 10 Torsion [N]-CA--C-[O] |==|  0.32678
USER: genes 11 Torsion [CB]-CA--N-[C] |==|  0.44022
USER: genes 12 Torsion [N]-C--CA-[N] |==|  0.46075
USER: genes 13 Torsion [C]-CA--CB-[CG] |==|  0.53198
USER: genes 14 Torsion [CA]-CB--CG-[CD2] |==|  0.66002
ROOT
ATOM      1  CA  ARG H  74      -5.043   3.297  -5.646  1.00 20.60 LIG 0.18  C 
ENDROOT
BRANCH 1 2
ATOM      2  CB  ARG H  74      -5.292   2.063  -6.529  1.00 19.81 LIG 0.04  C 
BRANCH 2 3
ATOM      3  CG  ARG H  74      -4.084   1.104  -6.691  1.00 18.47 LIG 0.02  C 
BRANCH 3 4
ATOM      4  CD  ARG H  74      -4.053   0.045  -5.597  1.00 18.94 LIG 0.14  C 
BRANCH 4 5
ATOM      5  NE  ARG H  74      -5.376  -0.536  -5.348  1.00 19.12 LIG-0.23  N 
ATOM      6 HE   ARG H  74      -5.729  -1.014  -5.969  1.00 19.12 LIG 0.18  HD
ATOM      7  CZ  ARG H  74      -6.067  -0.370  -4.221  1.00 19.95 LIG 0.67  C 
ATOM      8  NH1 ARG H  74      -5.549   0.331  -3.216  1.00 19.07 LIG-0.23  N 
ATOM      9  NH2 ARG H  74      -7.275  -0.922  -4.097  1.00 20.02 LIG-0.23  N 
ATOM     10 2HH1 ARG H  74      -5.997   0.437  -2.489  1.00 19.07 LIG 0.17  HD
ATOM     11 1HH1 ARG H  74      -4.766   0.678  -3.293  1.00 19.07 LIG 0.17  HD
ATOM     12 1HH2 ARG H  74      -7.605  -1.383  -4.743  1.00 20.02 LIG 0.17  HD
ATOM     13 2HH2 ARG H  74      -7.723  -0.817  -3.371  1.00 20.02 LIG 0.17  HD
ENDBRANCH 4 5
ENDBRANCH 3 4
ENDBRANCH 2 3
ENDBRANCH 1 2
BRANCH 1 14
ATOM     14  C   ARG H  74      -6.060   4.395  -5.976  1.00 20.00 LIG 0.24  C 
ATOM     15  N   GLY H  75      -6.619   5.052  -4.967  1.00 19.10 LIG-0.35  N 
ATOM     16 H    GLY H  75      -6.456   4.899  -4.137  1.00 19.10 LIG 0.16  HD
ATOM     17 O    ARG H  74      -6.358   4.623  -7.140  1.00 20.55 LIG-0.27  OA
BRANCH 15 18
ATOM     18  CA  GLY H  75      -7.594   6.126  -5.220  1.00 17.93 LIG 0.23  C 
BRANCH 18 19
ATOM     19  C   GLY H  75      -9.011   5.734  -4.826  1.00 17.33 LIG 0.23  C 
ATOM     20  N   GLY H  76      -9.128   4.719  -3.968  1.00 16.80 LIG-0.35  N 
ATOM     21 H    GLY H  76      -8.468   4.254  -3.672  1.00 16.80 LIG 0.16  HD
ATOM     22 O    GLY H  75      -9.993   6.331  -5.294  1.00 16.80 LIG-0.27  OA
BRANCH 20 23
ATOM     23  CA  GLY H  76     -10.431   4.324  -3.463  1.00 16.50 LIG 0.23  C 
BRANCH 23 24
ATOM     24  C   GLY H  76     -11.111   5.339  -2.564  1.00 16.76 LIG 0.19  C 
ATOM     25 O    GLY H  76     -12.181   5.828  -2.914  1.00 16.89 LIG-0.65  OA
ATOM     26 OXT  GLY H  76     -10.603   5.677  -1.488  1.00 15.95 LIG-0.65  OA
ENDBRANCH 23 24
ENDBRANCH 20 23
ENDBRANCH 18 19
ENDBRANCH 15 18
ENDBRANCH 1 14
BRANCH 1 27
ATOM     27  N   ARG H  74      -5.208   2.967  -4.224  1.00 22.12 LIG-0.35  N 
ATOM     28 H    ARG H  74      -5.683   2.267  -4.070  1.00 22.12 LIG 0.16  HD
ATOM     29  C   LEU H  73      -4.649   3.717  -3.277  1.00 24.75 LIG 0.26  C 
ATOM     30 O    LEU H  73      -3.703   4.466  -3.518  1.00 25.51 LIG-0.27  OA
BRANCH 29 31
ATOM     31  CA  LEU H  73      -5.218   3.616  -1.844  1.00 25.64 LIG 0.40  C 
ATOM     32  N   LEU H  73      -4.373   4.207  -0.767  1.00 27.50 LIG 0.61  N 
BRANCH 31 33
ATOM     33  CB  LEU H  73      -6.656   4.161  -1.767  1.00 26.32 LIG 0.06  C 
BRANCH 33 34
ATOM     34  CG  LEU H  73      -7.451   4.452  -0.490  1.00 25.96 LIG-0.02  C 
ATOM     35  CD2 LEU H  73      -8.729   3.625  -0.549  1.00 27.32 LIG 0.01  C 
ATOM     36  CD1 LEU H  73      -7.796   5.897  -0.359  1.00 27.59 LIG 0.01  C 
ENDBRANCH 33 34
ENDBRANCH 31 33
ENDBRANCH 29 31
ENDBRANCH 1 27
TORSDOF 13
ENDMDL
MODEL 20
USER: ADFR SOLUTION from run 143
USER: SCORE 11.815436 LL:  -1.567 LR: -11.680 RR:   0.000 FEB:  -7.802
USER: RMSD 5.561976
USER: SEED 142
USER: STATUS no improvement in best in 8 clusters for 5 generations
USER: GENES 15
USER: genes 0 Translation |==|  0.57412 0.45698 0.40728
USER: genes 1 Rotation |==|  0.08252 0.39517 0.26581 0.59939
USER: genes 2 Torsion [C]-CA--CB-[CG] |==|  0.30007
USER: genes 3 Torsion [CA]-CB--CG-[CD] |==|  0.69586
USER: genes 4 Torsion [CB]-CG--CD-[NE] |==|  0.93154
USER: genes 5 Torsion [CG]-CD--NE-[HE] |==|  0.10984
USER: genes 6 Torsion [N]-CA--C-[N] |==|  0.48875
USER: genes 7 Torsion [C]-N--CA-[C] |==|  0.32033
USER: genes 8 Torsion [N]-CA--C-[N] |==|  0.25240
USER: genes 9 Torsion [C]-N--CA-[C] |==|  0.21826
USER: genes 10 Torsion [N]-CA--C-[O] |==|  0.57559
USER: genes 11 Torsion [CB]-CA--N-[C] |==|  0.86111
USER: genes 12 Torsion [N]-C--CA-[N] |==|  0.50056
USER: genes 13 Torsion [C]-CA--CB-[CG] |==|  0.99791
USER: genes 14 Torsion [CA]-CB--CG-[CD2] |==|  0.78898
ROOT
ATOM      1  CA  ARG H  74      -5.895   4.465  -1.473  1.00 20.60 LIG 0.18  C 
ENDROOT
BRANCH 1 2
ATOM      2  CB  ARG H  74      -5.187   3.253  -2.100  1.00 19.81 LIG 0.04  C 
BRANCH 2 3
ATOM      3  CG  ARG H  74      -4.859   3.380  -3.611  1.00 18.47 LIG 0.02  C 
BRANCH 3 4
ATOM      4  CD  ARG H  74      -5.730   2.462  -4.458  1.00 18.94 LIG 0.14  C 
BRANCH 4 5
ATOM      5  NE  ARG H  74      -6.224   1.309  -3.698  1.00 19.12 LIG-0.23  N 
ATOM      6 HE   ARG H  74      -6.470   1.440  -2.885  1.00 19.12 LIG 0.18  HD
ATOM      7  CZ  ARG H  74      -6.316   0.074  -4.186  1.00 19.95 LIG 0.67  C 
ATOM      8  NH1 ARG H  74      -5.982  -0.174  -5.450  1.00 19.07 LIG-0.23  N 
ATOM      9  NH2 ARG H  74      -6.760  -0.915  -3.408  1.00 20.02 LIG-0.23  N 
ATOM     10 2HH1 ARG H  74      -6.042  -0.972  -5.763  1.00 19.07 LIG 0.17  HD
ATOM     11 1HH1 ARG H  74      -5.705   0.466  -5.954  1.00 19.07 LIG 0.17  HD
ATOM     12 1HH2 ARG H  74      -6.985  -0.753  -2.594  1.00 20.02 LIG 0.17  HD
ATOM     13 2HH2 ARG H  74      -6.820  -1.714  -3.721  1.00 20.02 LIG 0.17  HD
ENDBRANCH 4 5
ENDBRANCH 3 4
ENDBRANCH 2 3
ENDBRANCH 1 2
BRANCH 1 14
ATOM     14  C   ARG H  74      -7.359   4.124  -1.174  1.00 20.00 LIG 0.24  C 
ATOM     15  N   GLY H  75      -8.154   3.835  -2.197  1.00 19.10 LIG-0.35  N 
ATOM     16 H    GLY H  75      -7.907   3.832  -3.020  1.00 19.10 LIG 0.16  HD
ATOM     17 O    ARG H  74      -7.772   4.156  -0.023  1.00 20.55 LIG-0.27  OA
BRANCH 15 18
ATOM     18  CA  GLY H  75      -9.567   3.488  -1.973  1.00 17.93 LIG 0.23  C 
BRANCH 18 19
ATOM     19  C   GLY H  75     -10.522   4.509  -2.577  1.00 17.33 LIG 0.23  C 
ATOM     20  N   GLY H  76     -10.918   4.281  -3.829  1.00 16.80 LIG-0.35  N 
ATOM     21 H    GLY H  76     -10.633   3.634  -4.319  1.00 16.80 LIG 0.16  HD
ATOM     22 O    GLY H  75     -10.894   5.498  -1.926  1.00 16.80 LIG-0.27  OA
BRANCH 20 23
ATOM     23  CA  GLY H  76     -11.895   5.147  -4.465  1.00 16.50 LIG 0.23  C 
BRANCH 23 24
ATOM     24  C   GLY H  76     -11.352   6.466  -4.979  1.00 16.76 LIG 0.19  C 
ATOM     25 O    GLY H  76     -12.103   7.433  -5.059  1.00 16.89 LIG-0.65  OA
ATOM     26 OXT  GLY H  76     -10.167   6.578  -5.318  1.00 15.95 LIG-0.65  OA
ENDBRANCH 23 24
ENDBRANCH 20 23
ENDBRANCH 18 19
ENDBRANCH 15 18
ENDBRANCH 1 14
BRANCH 1 27
ATOM     27  N   ARG H  74      -5.267   4.837  -0.197  1.00 22.12 LIG-0.35  N 
ATOM     28 H    ARG H  74      -5.071   5.670  -0.122  1.00 22.12 LIG 0.16  HD
ATOM     29  C   LEU H  73      -5.036   3.925   0.745  1.00 24.75 LIG 0.26  C 
ATOM     30 O    LEU H  73      -5.639   2.853   0.769  1.00 25.51 LIG-0.27  OA
BRANCH 29 31
ATOM     31  CA  LEU H  73      -3.988   4.255   1.830  1.00 25.64 LIG 0.40  C 
ATOM     32  N   LEU H  73      -3.763   3.199   2.859  1.00 27.50 LIG 0.61  N 
BRANCH 31 33
ATOM     33  CB  LEU H  73      -2.652   4.699   1.207  1.00 26.32 LIG 0.06  C 
BRANCH 33 34
ATOM     34  CG  LEU H  73      -2.335   4.802  -0.289  1.00 25.96 LIG-0.02  C 
ATOM     35  CD2 LEU H  73      -2.122   3.385  -0.808  1.00 27.32 LIG 0.01  C 
ATOM     36  CD1 LEU H  73      -1.115   5.619  -0.551  1.00 27.59 LIG 0.01  C 
ENDBRANCH 33 34
ENDBRANCH 31 33
ENDBRANCH 29 31
ENDBRANCH 1 27
TORSDOF 13
ENDMDL
MODEL 21
USER: ADFR SOLUTION from run 28
USER: SCORE 11.801270 LL:  -1.716 LR: -11.641 RR:   0.000 FEB:  -7.763
USER: RMSD 7.472969
USER: SEED 27
USER: STATUS no improvement in best in 9 clusters for 5 generations
USER: GENES 15
USER: genes 0 Translation |==|  0.55853 0.46967 0.19330
USER: genes 1 Rotation |==|  0.98971 0.57315 0.56563 0.52300
USER: genes 2 Torsion [C]-CA--CB-[CG] |==|  0.45917
USER: genes 3 Torsion [CA]-CB--CG-[CD] |==|  0.48715
USER: genes 4 Torsion [CB]-CG--CD-[NE] |==|  0.84342
USER: genes 5 Torsion [CG]-CD--NE-[HE] |==|  0.82579
USER: genes 6 Torsion [N]-CA--C-[N] |==|  0.71864
USER: genes 7 Torsion [C]-N--CA-[C] |==|  0.16727
USER: genes 8 Torsion [N]-CA--C-[N] |==|  0.02222
USER: genes 9 Torsion [C]-N--CA-[C] |==|  0.27212
USER: genes 10 Torsion [N]-CA--C-[O] |==|  0.26460
USER: genes 11 Torsion [CB]-CA--N-[C] |==|  0.87609
USER: genes 12 Torsion [N]-C--CA-[N] |==|  0.37734
USER: genes 13 Torsion [C]-CA--CB-[CG] |==|  0.93837
USER: genes 14 Torsion [CA]-CB--CG-[CD2] |==|  0.75600
ROOT
ATOM      1  CA  ARG H  74      -6.176   4.646  -5.806  1.00 20.60 LIG 0.18  C 
ENDROOT
BRANCH 1 2
ATOM      2  CB  ARG H  74      -6.104   3.111  -5.866  1.00 19.81 LIG 0.04  C 
BRANCH 2 3
ATOM      3  CG  ARG H  74      -5.456   2.523  -7.147  1.00 18.47 LIG 0.02  C 
BRANCH 3 4
ATOM      4  CD  ARG H  74      -5.326   1.008  -7.069  1.00 18.94 LIG 0.14  C 
BRANCH 4 5
ATOM      5  NE  ARG H  74      -4.568   0.575  -5.891  1.00 19.12 LIG-0.23  N 
ATOM      6 HE   ARG H  74      -3.746   0.820  -5.829  1.00 19.12 LIG 0.18  HD
ATOM      7  CZ  ARG H  74      -5.070  -0.173  -4.910  1.00 19.95 LIG 0.67  C 
ATOM      8  NH1 ARG H  74      -6.347  -0.547  -4.941  1.00 19.07 LIG-0.23  N 
ATOM      9  NH2 ARG H  74      -4.294  -0.533  -3.887  1.00 20.02 LIG-0.23  N 
ATOM     10 2HH1 ARG H  74      -6.669  -1.029  -4.306  1.00 19.07 LIG 0.17  HD
ATOM     11 1HH1 ARG H  74      -6.850  -0.306  -5.595  1.00 19.07 LIG 0.17  HD
ATOM     12 1HH2 ARG H  74      -3.471  -0.283  -3.862  1.00 20.02 LIG 0.17  HD
ATOM     13 2HH2 ARG H  74      -4.616  -1.016  -3.252  1.00 20.02 LIG 0.17  HD
ENDBRANCH 4 5
ENDBRANCH 3 4
ENDBRANCH 2 3
ENDBRANCH 1 2
BRANCH 1 14
ATOM     14  C   ARG H  74      -7.141   5.086  -4.700  1.00 20.00 LIG 0.24  C 
ATOM     15  N   GLY H  75      -7.440   4.210  -3.747  1.00 19.10 LIG-0.35  N 
ATOM     16 H    GLY H  75      -7.134   3.407  -3.710  1.00 19.10 LIG 0.16  HD
ATOM     17 O    ARG H  74      -7.637   6.203  -4.729  1.00 20.55 LIG-0.27  OA
BRANCH 15 18
ATOM     18  CA  GLY H  75      -8.352   4.577  -2.651  1.00 17.93 LIG 0.23  C 
BRANCH 18 19
ATOM     19  C   GLY H  75      -9.736   4.968  -3.149  1.00 17.33 LIG 0.23  C 
ATOM     20  N   GLY H  76      -9.977   4.769  -4.445  1.00 16.80 LIG-0.35  N 
ATOM     21 H    GLY H  76      -9.394   4.487  -5.011  1.00 16.80 LIG 0.16  HD
ATOM     22 O    GLY H  75     -10.579   5.453  -2.378  1.00 16.80 LIG-0.27  OA
BRANCH 20 23
ATOM     23  CA  GLY H  76     -11.293   5.028  -5.001  1.00 16.50 LIG 0.23  C 
BRANCH 23 24
ATOM     24  C   GLY H  76     -11.454   6.372  -5.685  1.00 16.76 LIG 0.19  C 
ATOM     25 O    GLY H  76     -11.307   6.448  -6.901  1.00 16.89 LIG-0.65  OA
ATOM     26 OXT  GLY H  76     -11.731   7.388  -5.035  1.00 15.95 LIG-0.65  OA
ENDBRANCH 23 24
ENDBRANCH 20 23
ENDBRANCH 18 19
ENDBRANCH 15 18
ENDBRANCH 1 14
BRANCH 1 27
ATOM     27  N   ARG H  74      -4.861   5.220  -5.487  1.00 22.12 LIG-0.35  N 
ATOM     28 H    ARG H  74      -4.640   5.899  -5.967  1.00 22.12 LIG 0.16  HD
ATOM     29  C   LEU H  73      -4.101   4.703  -4.524  1.00 24.75 LIG 0.26  C 
ATOM     30 O    LEU H  73      -4.575   3.996  -3.636  1.00 25.51 LIG-0.27  OA
BRANCH 29 31
ATOM     31  CA  LEU H  73      -2.591   5.026  -4.543  1.00 25.64 LIG 0.40  C 
ATOM     32  N   LEU H  73      -1.988   5.387  -3.227  1.00 27.50 LIG 0.61  N 
BRANCH 31 33
ATOM     33  CB  LEU H  73      -1.782   3.905  -5.220  1.00 26.32 LIG 0.06  C 
BRANCH 33 34
ATOM     34  CG  LEU H  73      -2.218   2.445  -5.393  1.00 25.96 LIG-0.02  C 
ATOM     35  CD2 LEU H  73      -1.786   1.690  -4.142  1.00 27.32 LIG 0.01  C 
ATOM     36  CD1 LEU H  73      -1.604   1.813  -6.596  1.00 27.59 LIG 0.01  C 
ENDBRANCH 33 34
ENDBRANCH 31 33
ENDBRANCH 29 31
ENDBRANCH 1 27
TORSDOF 13
ENDMDL
MODEL 22
USER: ADFR SOLUTION from run 121
USER: SCORE 12.461246 LL:  -1.709 LR: -11.580 RR:   0.000 FEB:  -7.702
USER: RMSD 6.475018
USER: SEED 120
USER: STATUS no improvement in best in 4 clusters for 5 generations
USER: GENES 15
USER: genes 0 Translation |==|  0.55290 0.41025 0.31700
USER: genes 1 Rotation |==|  0.23071 0.76422 0.27270 0.73665
USER: genes 2 Torsion [C]-CA--CB-[CG] |==|  0.34755
USER: genes 3 Torsion [CA]-CB--CG-[CD] |==|  0.06893
USER: genes 4 Torsion [CB]-CG--CD-[NE] |==|  0.42145
USER: genes 5 Torsion [CG]-CD--NE-[HE] |==|  0.04742
USER: genes 6 Torsion [N]-CA--C-[N] |==|  0.96178
USER: genes 7 Torsion [C]-N--CA-[C] |==|  0.18206
USER: genes 8 Torsion [N]-CA--C-[N] |==|  0.09713
USER: genes 9 Torsion [C]-N--CA-[C] |==|  0.22880
USER: genes 10 Torsion [N]-CA--C-[O] |==|  0.10023
USER: genes 11 Torsion [CB]-CA--N-[C] |==|  0.17778
USER: genes 12 Torsion [N]-C--CA-[N] |==|  0.47130
USER: genes 13 Torsion [C]-CA--CB-[CG] |==|  0.95572
USER: genes 14 Torsion [CA]-CB--CG-[CD2] |==|  0.76360
ROOT
ATOM      1  CA  ARG H  74      -6.277   3.799  -3.301  1.00 20.60 LIG 0.18  C 
ENDROOT
BRANCH 1 2
ATOM      2  CB  ARG H  74      -6.338   4.220  -4.778  1.00 19.81 LIG 0.04  C 
BRANCH 2 3
ATOM      3  CG  ARG H  74      -5.140   5.068  -5.281  1.00 18.47 LIG 0.02  C 
BRANCH 3 4
ATOM      4  CD  ARG H  74      -3.887   4.825  -4.449  1.00 18.94 LIG 0.14  C 
BRANCH 4 5
ATOM      5  NE  ARG H  74      -2.658   5.040  -5.220  1.00 19.12 LIG-0.23  N 
ATOM      6 HE   ARG H  74      -2.717   5.482  -5.955  1.00 19.12 LIG 0.18  HD
ATOM      7  CZ  ARG H  74      -1.458   4.595  -4.855  1.00 19.95 LIG 0.67  C 
ATOM      8  NH1 ARG H  74      -1.308   3.937  -3.708  1.00 19.07 LIG-0.23  N 
ATOM      9  NH2 ARG H  74      -0.401   4.823  -5.636  1.00 20.02 LIG-0.23  N 
ATOM     10 2HH1 ARG H  74      -0.531   3.651  -3.474  1.00 19.07 LIG 0.17  HD
ATOM     11 1HH1 ARG H  74      -1.988   3.799  -3.200  1.00 19.07 LIG 0.17  HD
ATOM     12 1HH2 ARG H  74      -0.496   5.257  -6.373  1.00 20.02 LIG 0.17  HD
ATOM     13 2HH2 ARG H  74       0.376   4.537  -5.402  1.00 20.02 LIG 0.17  HD
ENDBRANCH 4 5
ENDBRANCH 3 4
ENDBRANCH 2 3
ENDBRANCH 1 2
BRANCH 1 14
ATOM     14  C   ARG H  74      -7.549   4.246  -2.572  1.00 20.00 LIG 0.24  C 
ATOM     15  N   GLY H  75      -8.438   3.317  -2.242  1.00 19.10 LIG-0.35  N 
ATOM     16 H    GLY H  75      -8.354   2.479  -2.415  1.00 19.10 LIG 0.16  HD
ATOM     17 O    ARG H  74      -7.737   5.432  -2.340  1.00 20.55 LIG-0.27  OA
BRANCH 15 18
ATOM     18  CA  GLY H  75      -9.674   3.682  -1.530  1.00 17.93 LIG 0.23  C 
BRANCH 18 19
ATOM     19  C   GLY H  75     -10.595   4.556  -2.370  1.00 17.33 LIG 0.23  C 
ATOM     20  N   GLY H  76     -10.617   4.307  -3.679  1.00 16.80 LIG-0.35  N 
ATOM     21 H    GLY H  76     -10.116   3.729  -4.073  1.00 16.80 LIG 0.16  HD
ATOM     22 O    GLY H  75     -11.275   5.453  -1.847  1.00 16.80 LIG-0.27  OA
BRANCH 20 23
ATOM     23  CA  GLY H  76     -11.526   5.026  -4.554  1.00 16.50 LIG 0.23  C 
BRANCH 23 24
ATOM     24  C   GLY H  76     -11.048   6.396  -4.998  1.00 16.76 LIG 0.19  C 
ATOM     25 O    GLY H  76      -9.854   6.571  -5.220  1.00 16.89 LIG-0.65  OA
ATOM     26 OXT  GLY H  76     -11.844   7.332  -5.138  1.00 15.95 LIG-0.65  OA
ENDBRANCH 23 24
ENDBRANCH 20 23
ENDBRANCH 18 19
ENDBRANCH 15 18
ENDBRANCH 1 14
BRANCH 1 27
ATOM     27  N   ARG H  74      -6.196   2.337  -3.174  1.00 22.12 LIG-0.35  N 
ATOM     28 H    ARG H  74      -6.869   1.972  -2.785  1.00 22.12 LIG 0.16  HD
ATOM     29  C   LEU H  73      -5.144   1.666  -3.640  1.00 24.75 LIG 0.26  C 
ATOM     30 O    LEU H  73      -4.397   2.144  -4.492  1.00 25.51 LIG-0.27  OA
BRANCH 29 31
ATOM     31  CA  LEU H  73      -4.889   0.247  -3.086  1.00 25.64 LIG 0.40  C 
ATOM     32  N   LEU H  73      -3.853  -0.553  -3.802  1.00 27.50 LIG 0.61  N 
BRANCH 31 33
ATOM     33  CB  LEU H  73      -4.603   0.275  -1.574  1.00 26.32 LIG 0.06  C 
BRANCH 33 34
ATOM     34  CG  LEU H  73      -4.227   1.506  -0.741  1.00 25.96 LIG-0.02  C 
ATOM     35  CD2 LEU H  73      -2.718   1.690  -0.856  1.00 27.32 LIG 0.01  C 
ATOM     36  CD1 LEU H  73      -4.604   1.352   0.694  1.00 27.59 LIG 0.01  C 
ENDBRANCH 33 34
ENDBRANCH 31 33
ENDBRANCH 29 31
ENDBRANCH 1 27
TORSDOF 13
ENDMDL
MODEL 23
USER: ADFR SOLUTION from run 188
USER: SCORE 13.019400 LL:  -1.820 LR: -11.548 RR:   0.000 FEB:  -7.670
USER: RMSD 4.177851
USER: SEED 187
USER: STATUS no improvement in best in 4 clusters for 5 generations
USER: GENES 15
USER: genes 0 Translation |==|  0.43273 0.46444 0.42952
USER: genes 1 Rotation |==|  0.61742 0.65152 0.44746 0.95879
USER: genes 2 Torsion [C]-CA--CB-[CG] |==|  0.22175
USER: genes 3 Torsion [CA]-CB--CG-[CD] |==|  0.68052
USER: genes 4 Torsion [CB]-CG--CD-[NE] |==|  0.55155
USER: genes 5 Torsion [CG]-CD--NE-[HE] |==|  0.11266
USER: genes 6 Torsion [N]-CA--C-[N] |==|  0.07942
USER: genes 7 Torsion [C]-N--CA-[C] |==|  0.27712
USER: genes 8 Torsion [N]-CA--C-[N] |==|  0.48600
USER: genes 9 Torsion [C]-N--CA-[C] |==|  0.81614
USER: genes 10 Torsion [N]-CA--C-[O] |==|  0.45849
USER: genes 11 Torsion [CB]-CA--N-[C] |==|  0.18889
USER: genes 12 Torsion [N]-C--CA-[N] |==|  0.76429
USER: genes 13 Torsion [C]-CA--CB-[CG] |==|  0.78385
USER: genes 14 Torsion [CA]-CB--CG-[CD2] |==|  0.72728
ROOT
ATOM      1  CA  ARG H  74      -8.440   4.571  -1.022  1.00 20.60 LIG 0.18  C 
ENDROOT
BRANCH 1 2
ATOM      2  CB  ARG H  74      -8.190   5.793  -0.123  1.00 19.81 LIG 0.04  C 
BRANCH 2 3
ATOM      3  CG  ARG H  74      -9.055   5.865   1.162  1.00 18.47 LIG 0.02  C 
BRANCH 3 4
ATOM      4  CD  ARG H  74     -10.000   7.060   1.141  1.00 18.94 LIG 0.14  C 
BRANCH 4 5
ATOM      5  NE  ARG H  74     -10.495   7.399   2.479  1.00 19.12 LIG-0.23  N 
ATOM      6 HE   ARG H  74      -9.940   7.362   3.134  1.00 19.12 LIG 0.18  HD
ATOM      7  CZ  ARG H  74     -11.749   7.760   2.744  1.00 19.95 LIG 0.67  C 
ATOM      8  NH1 ARG H  74     -12.637   7.867   1.759  1.00 19.07 LIG-0.23  N 
ATOM      9  NH2 ARG H  74     -12.110   8.030   3.999  1.00 20.02 LIG-0.23  N 
ATOM     10 2HH1 ARG H  74     -13.446   8.101   1.932  1.00 19.07 LIG 0.17  HD
ATOM     11 1HH1 ARG H  74     -12.402   7.703   0.948  1.00 19.07 LIG 0.17  HD
ATOM     12 1HH2 ARG H  74     -11.534   7.970   4.635  1.00 20.02 LIG 0.17  HD
ATOM     13 2HH2 ARG H  74     -12.919   8.264   4.173  1.00 20.02 LIG 0.17  HD
ENDBRANCH 4 5
ENDBRANCH 3 4
ENDBRANCH 2 3
ENDBRANCH 1 2
BRANCH 1 14
ATOM     14  C   ARG H  74      -9.693   4.792  -1.876  1.00 20.00 LIG 0.24  C 
ATOM     15  N   GLY H  75      -9.742   4.222  -3.074  1.00 19.10 LIG-0.35  N 
ATOM     16 H    GLY H  75      -9.113   3.741  -3.410  1.00 19.10 LIG 0.16  HD
ATOM     17 O    ARG H  74     -10.598   5.504  -1.462  1.00 20.55 LIG-0.27  OA
BRANCH 15 18
ATOM     18  CA  GLY H  75     -10.924   4.387  -3.935  1.00 17.93 LIG 0.23  C 
BRANCH 18 19
ATOM     19  C   GLY H  75     -10.722   5.450  -5.006  1.00 17.33 LIG 0.23  C 
ATOM     20  N   GLY H  76     -11.707   5.590  -5.895  1.00 16.80 LIG-0.35  N 
ATOM     21 H    GLY H  76     -12.408   5.092  -5.926  1.00 16.80 LIG 0.16  HD
ATOM     22 O    GLY H  75      -9.687   6.134  -5.040  1.00 16.80 LIG-0.27  OA
BRANCH 20 23
ATOM     23  CA  GLY H  76     -11.650   6.633  -6.903  1.00 16.50 LIG 0.23  C 
BRANCH 23 24
ATOM     24  C   GLY H  76     -11.729   8.051  -6.372  1.00 16.76 LIG 0.19  C 
ATOM     25 O    GLY H  76     -11.415   8.984  -7.105  1.00 16.89 LIG-0.65  OA
ATOM     26 OXT  GLY H  76     -12.104   8.277  -5.215  1.00 15.95 LIG-0.65  OA
ENDBRANCH 23 24
ENDBRANCH 20 23
ENDBRANCH 18 19
ENDBRANCH 15 18
ENDBRANCH 1 14
BRANCH 1 27
ATOM     27  N   ARG H  74      -7.318   4.361  -1.947  1.00 22.12 LIG-0.35  N 
ATOM     28 H    ARG H  74      -7.502   4.502  -2.774  1.00 22.12 LIG 0.16  HD
ATOM     29  C   LEU H  73      -6.122   3.981  -1.500  1.00 24.75 LIG 0.26  C 
ATOM     30 O    LEU H  73      -5.790   4.140  -0.326  1.00 25.51 LIG-0.27  OA
BRANCH 29 31
ATOM     31  CA  LEU H  73      -5.144   3.337  -2.507  1.00 25.64 LIG 0.40  C 
ATOM     32  N   LEU H  73      -5.309   1.870  -2.725  1.00 27.50 LIG 0.61  N 
BRANCH 31 33
ATOM     33  CB  LEU H  73      -5.142   4.088  -3.851  1.00 26.32 LIG 0.06  C 
BRANCH 33 34
ATOM     34  CG  LEU H  73      -6.202   3.984  -4.953  1.00 25.96 LIG-0.02  C 
ATOM     35  CD2 LEU H  73      -5.677   3.008  -5.999  1.00 27.32 LIG 0.01  C 
ATOM     36  CD1 LEU H  73      -6.479   5.302  -5.594  1.00 27.59 LIG 0.01  C 
ENDBRANCH 33 34
ENDBRANCH 31 33
ENDBRANCH 29 31
ENDBRANCH 1 27
TORSDOF 13
ENDMDL
MODEL 24
USER: ADFR SOLUTION from run 7
USER: SCORE 12.302351 LL:  -1.451 LR: -11.535 RR:   0.000 FEB:  -7.657
USER: RMSD 5.715113
USER: SEED 921106
USER: STATUS no improvement in best in 5 clusters for 5 generations
USER: GENES 15
USER: genes 0 Translation |==|  0.44449 0.49201 0.38950
USER: genes 1 Rotation |==|  0.16524 0.45782 0.16662 0.65815
USER: genes 2 Torsion [C]-CA--CB-[CG] |==|  0.24807
USER: genes 3 Torsion [CA]-CB--CG-[CD] |==|  0.47473
USER: genes 4 Torsion [CB]-CG--CD-[NE] |==|  0.61051
USER: genes 5 Torsion [CG]-CD--NE-[HE] |==|  0.75803
USER: genes 6 Torsion [N]-CA--C-[N] |==|  0.65154
USER: genes 7 Torsion [C]-N--CA-[C] |==|  0.28316
USER: genes 8 Torsion [N]-CA--C-[N] |==|  0.94098
USER: genes 9 Torsion [C]-N--CA-[C] |==|  0.29596
USER: genes 10 Torsion [N]-CA--C-[O] |==|  0.44054
USER: genes 11 Torsion [CB]-CA--N-[C] |==|  0.17072
USER: genes 12 Torsion [N]-C--CA-[N] |==|  0.82936
USER: genes 13 Torsion [C]-CA--CB-[CG] |==|  0.36341
USER: genes 14 Torsion [CA]-CB--CG-[CD2] |==|  0.80048
ROOT
ATOM      1  CA  ARG H  74      -8.228   4.964  -1.833  1.00 20.60 LIG 0.18  C 
ENDROOT
BRANCH 1 2
ATOM      2  CB  ARG H  74      -7.347   4.016  -2.662  1.00 19.81 LIG 0.04  C 
BRANCH 2 3
ATOM      3  CG  ARG H  74      -6.805   4.601  -3.993  1.00 18.47 LIG 0.02  C 
BRANCH 3 4
ATOM      4  CD  ARG H  74      -5.773   3.683  -4.634  1.00 18.94 LIG 0.14  C 
BRANCH 4 5
ATOM      5  NE  ARG H  74      -4.655   4.429  -5.220  1.00 19.12 LIG-0.23  N 
ATOM      6 HE   ARG H  74      -4.737   4.708  -6.029  1.00 19.12 LIG 0.18  HD
ATOM      7  CZ  ARG H  74      -3.519   4.703  -4.580  1.00 19.95 LIG 0.67  C 
ATOM      8  NH1 ARG H  74      -3.357   4.325  -3.314  1.00 19.07 LIG-0.23  N 
ATOM      9  NH2 ARG H  74      -2.550   5.372  -5.206  1.00 20.02 LIG-0.23  N 
ATOM     10 2HH1 ARG H  74      -2.623   4.503  -2.903  1.00 19.07 LIG 0.17  HD
ATOM     11 1HH1 ARG H  74      -3.986   3.903  -2.908  1.00 19.07 LIG 0.17  HD
ATOM     12 1HH2 ARG H  74      -2.659   5.624  -6.021  1.00 20.02 LIG 0.17  HD
ATOM     13 2HH2 ARG H  74      -1.816   5.550  -4.795  1.00 20.02 LIG 0.17  HD
ENDBRANCH 4 5
ENDBRANCH 3 4
ENDBRANCH 2 3
ENDBRANCH 1 2
BRANCH 1 14
ATOM     14  C   ARG H  74      -9.696   4.819  -2.248  1.00 20.00 LIG 0.24  C 
ATOM     15  N   GLY H  75      -9.980   4.021  -3.270  1.00 19.10 LIG-0.35  N 
ATOM     16 H    GLY H  75      -9.395   3.582  -3.723  1.00 19.10 LIG 0.16  HD
ATOM     17 O    ARG H  74     -10.563   5.455  -1.664  1.00 20.55 LIG-0.27  OA
BRANCH 15 18
ATOM     18  CA  GLY H  75     -11.372   3.831  -3.709  1.00 17.93 LIG 0.23  C 
BRANCH 18 19
ATOM     19  C   GLY H  75     -11.707   4.637  -4.956  1.00 17.33 LIG 0.23  C 
ATOM     20  N   GLY H  76     -10.921   5.683  -5.214  1.00 16.80 LIG-0.35  N 
ATOM     21 H    GLY H  76     -10.285   5.951  -4.701  1.00 16.80 LIG 0.16  HD
ATOM     22 O    GLY H  75     -12.667   4.327  -5.678  1.00 16.80 LIG-0.27  OA
BRANCH 20 23
ATOM     23  CA  GLY H  76     -11.103   6.464  -6.425  1.00 16.50 LIG 0.23  C 
BRANCH 23 24
ATOM     24  C   GLY H  76     -11.729   7.831  -6.226  1.00 16.76 LIG 0.19  C 
ATOM     25 O    GLY H  76     -11.565   8.695  -7.081  1.00 16.89 LIG-0.65  OA
ATOM     26 OXT  GLY H  76     -12.399   8.083  -5.217  1.00 15.95 LIG-0.65  OA
ENDBRANCH 23 24
ENDBRANCH 20 23
ENDBRANCH 18 19
ENDBRANCH 15 18
ENDBRANCH 1 14
BRANCH 1 27
ATOM     27  N   ARG H  74      -8.148   4.638  -0.402  1.00 22.12 LIG-0.35  N 
ATOM     28 H    ARG H  74      -8.894   4.405  -0.044  1.00 22.12 LIG 0.16  HD
ATOM     29  C   LEU H  73      -6.992   4.710   0.254  1.00 24.75 LIG 0.26  C 
ATOM     30 O    LEU H  73      -5.911   4.684  -0.334  1.00 25.51 LIG-0.27  OA
BRANCH 29 31
ATOM     31  CA  LEU H  73      -7.040   4.816   1.794  1.00 25.64 LIG 0.40  C 
ATOM     32  N   LEU H  73      -7.728   6.022   2.341  1.00 27.50 LIG 0.61  N 
BRANCH 31 33
ATOM     33  CB  LEU H  73      -7.604   3.534   2.432  1.00 26.32 LIG 0.06  C 
BRANCH 33 34
ATOM     34  CG  LEU H  73      -6.985   2.747   3.593  1.00 25.96 LIG-0.02  C 
ATOM     35  CD2 LEU H  73      -5.742   2.047   3.058  1.00 27.32 LIG 0.01  C 
ATOM     36  CD1 LEU H  73      -7.928   1.735   4.152  1.00 27.59 LIG 0.01  C 
ENDBRANCH 33 34
ENDBRANCH 31 33
ENDBRANCH 29 31
ENDBRANCH 1 27
TORSDOF 13
ENDMDL
MODEL 25
USER: ADFR SOLUTION from run 196
USER: SCORE 12.315073 LL:  -1.591 LR: -11.506 RR:   0.000 FEB:  -7.628
USER: RMSD 5.838739
USER: SEED 195
USER: STATUS no improvement in best in 3 clusters for 5 generations
USER: GENES 15
USER: genes 0 Translation |==|  0.56840 0.47209 0.41691
USER: genes 1 Rotation |==|  0.20306 0.33328 0.13392 0.50343
USER: genes 2 Torsion [C]-CA--CB-[CG] |==|  0.30918
USER: genes 3 Torsion [CA]-CB--CG-[CD] |==|  0.60594
USER: genes 4 Torsion [CB]-CG--CD-[NE] |==|  0.06109
USER: genes 5 Torsion [CG]-CD--NE-[HE] |==|  0.00052
USER: genes 6 Torsion [N]-CA--C-[N] |==|  0.88232
USER: genes 7 Torsion [C]-N--CA-[C] |==|  0.79444
USER: genes 8 Torsion [N]-CA--C-[N] |==|  0.38037
USER: genes 9 Torsion [C]-N--CA-[C] |==|  0.24541
USER: genes 10 Torsion [N]-CA--C-[O] |==|  0.52776
USER: genes 11 Torsion [CB]-CA--N-[C] |==|  0.89780
USER: genes 12 Torsion [N]-C--CA-[N] |==|  0.77525
USER: genes 13 Torsion [C]-CA--CB-[CG] |==|  0.02185
USER: genes 14 Torsion [CA]-CB--CG-[CD2] |==|  0.53787
ROOT
ATOM      1  CA  ARG H  74      -5.998   4.680  -1.278  1.00 20.60 LIG 0.18  C 
ENDROOT
BRANCH 1 2
ATOM      2  CB  ARG H  74      -5.143   3.455  -0.914  1.00 19.81 LIG 0.04  C 
BRANCH 2 3
ATOM      3  CG  ARG H  74      -3.776   3.356  -1.639  1.00 18.47 LIG 0.02  C 
BRANCH 3 4
ATOM      4  CD  ARG H  74      -3.436   1.918  -2.010  1.00 18.94 LIG 0.14  C 
BRANCH 4 5
ATOM      5  NE  ARG H  74      -4.627   1.066  -2.081  1.00 19.12 LIG-0.23  N 
ATOM      6 HE   ARG H  74      -5.390   1.428  -1.919  1.00 19.12 LIG 0.18  HD
ATOM      7  CZ  ARG H  74      -4.604  -0.231  -2.382  1.00 19.95 LIG 0.67  C 
ATOM      8  NH1 ARG H  74      -3.452  -0.829  -2.677  1.00 19.07 LIG-0.23  N 
ATOM      9  NH2 ARG H  74      -5.741  -0.927  -2.401  1.00 20.02 LIG-0.23  N 
ATOM     10 2HH1 ARG H  74      -3.440  -1.667  -2.870  1.00 19.07 LIG 0.17  HD
ATOM     11 1HH1 ARG H  74      -2.721  -0.378  -2.674  1.00 19.07 LIG 0.17  HD
ATOM     12 1HH2 ARG H  74      -6.487  -0.538  -2.220  1.00 20.02 LIG 0.17  HD
ATOM     13 2HH2 ARG H  74      -5.729  -1.765  -2.595  1.00 20.02 LIG 0.17  HD
ENDBRANCH 4 5
ENDBRANCH 3 4
ENDBRANCH 2 3
ENDBRANCH 1 2
BRANCH 1 14
ATOM     14  C   ARG H  74      -7.239   4.244  -2.063  1.00 20.00 LIG 0.24  C 
ATOM     15  N   GLY H  75      -8.257   3.727  -1.386  1.00 19.10 LIG-0.35  N 
ATOM     16 H    GLY H  75      -8.267   3.613  -0.534  1.00 19.10 LIG 0.16  HD
ATOM     17 O    ARG H  74      -7.259   4.346  -3.282  1.00 20.55 LIG-0.27  OA
BRANCH 15 18
ATOM     18  CA  GLY H  75      -9.482   3.300  -2.083  1.00 17.93 LIG 0.23  C 
BRANCH 18 19
ATOM     19  C   GLY H  75     -10.334   4.476  -2.538  1.00 17.33 LIG 0.23  C 
ATOM     20  N   GLY H  76     -10.849   4.394  -3.766  1.00 16.80 LIG-0.35  N 
ATOM     21 H    GLY H  76     -10.690   3.754  -4.318  1.00 16.80 LIG 0.16  HD
ATOM     22 O    GLY H  75     -10.522   5.453  -1.797  1.00 16.80 LIG-0.27  OA
BRANCH 20 23
ATOM     23  CA  GLY H  76     -11.747   5.422  -4.261  1.00 16.50 LIG 0.23  C 
BRANCH 23 24
ATOM     24  C   GLY H  76     -11.072   6.596  -4.944  1.00 16.76 LIG 0.19  C 
ATOM     25 O    GLY H  76     -11.736   7.589  -5.225  1.00 16.89 LIG-0.65  OA
ATOM     26 OXT  GLY H  76      -9.866   6.564  -5.220  1.00 15.95 LIG-0.65  OA
ENDBRANCH 23 24
ENDBRANCH 20 23
ENDBRANCH 18 19
ENDBRANCH 15 18
ENDBRANCH 1 14
BRANCH 1 27
ATOM     27  N   ARG H  74      -6.470   5.368  -0.068  1.00 22.12 LIG-0.35  N 
ATOM     28 H    ARG H  74      -6.498   6.225  -0.129  1.00 22.12 LIG 0.16  HD
ATOM     29  C   LEU H  73      -6.821   4.682   1.018  1.00 24.75 LIG 0.26  C 
ATOM     30 O    LEU H  73      -7.119   3.490   0.963  1.00 25.51 LIG-0.27  OA
BRANCH 29 31
ATOM     31  CA  LEU H  73      -6.855   5.433   2.367  1.00 25.64 LIG 0.40  C 
ATOM     32  N   LEU H  73      -5.538   5.610   3.046  1.00 27.50 LIG 0.61  N 
BRANCH 31 33
ATOM     33  CB  LEU H  73      -7.587   6.782   2.245  1.00 26.32 LIG 0.06  C 
BRANCH 33 34
ATOM     34  CG  LEU H  73      -8.366   7.287   1.024  1.00 25.96 LIG-0.02  C 
ATOM     35  CD2 LEU H  73      -8.617   8.776   1.228  1.00 27.32 LIG 0.01  C 
ATOM     36  CD1 LEU H  73      -9.667   6.578   0.854  1.00 27.59 LIG 0.01  C 
ENDBRANCH 33 34
ENDBRANCH 31 33
ENDBRANCH 29 31
ENDBRANCH 1 27
TORSDOF 13
ENDMDL
MODEL 26
USER: ADFR SOLUTION from run 28
USER: SCORE 11.937036 LL:  -1.876 LR: -11.479 RR:   0.000 FEB:  -7.601
USER: RMSD 6.019270
USER: SEED 27
USER: STATUS no improvement in best in 9 clusters for 5 generations
USER: GENES 15
USER: genes 0 Translation |==|  0.55504 0.43946 0.32092
USER: genes 1 Rotation |==|  0.11226 0.64296 0.27521 0.66938
USER: genes 2 Torsion [C]-CA--CB-[CG] |==|  0.47471
USER: genes 3 Torsion [CA]-CB--CG-[CD] |==|  0.30877
USER: genes 4 Torsion [CB]-CG--CD-[NE] |==|  0.84216
USER: genes 5 Torsion [CG]-CD--NE-[HE] |==|  0.87796
USER: genes 6 Torsion [N]-CA--C-[N] |==|  0.86912
USER: genes 7 Torsion [C]-N--CA-[C] |==|  0.16175
USER: genes 8 Torsion [N]-CA--C-[N] |==|  0.09991
USER: genes 9 Torsion [C]-N--CA-[C] |==|  0.23551
USER: genes 10 Torsion [N]-CA--C-[O] |==|  0.11626
USER: genes 11 Torsion [CB]-CA--N-[C] |==|  0.36308
USER: genes 12 Torsion [N]-C--CA-[N] |==|  0.42481
USER: genes 13 Torsion [C]-CA--CB-[CG] |==|  0.05946
USER: genes 14 Torsion [CA]-CB--CG-[CD2] |==|  0.76204
ROOT
ATOM      1  CA  ARG H  74      -6.238   4.215  -3.221  1.00 20.60 LIG 0.18  C 
ENDROOT
BRANCH 1 2
ATOM      2  CB  ARG H  74      -6.479   3.667  -4.637  1.00 19.81 LIG 0.04  C 
BRANCH 2 3
ATOM      3  CG  ARG H  74      -5.209   3.495  -5.512  1.00 18.47 LIG 0.02  C 
BRANCH 3 4
ATOM      4  CD  ARG H  74      -4.891   2.026  -5.762  1.00 18.94 LIG 0.14  C 
BRANCH 4 5
ATOM      5  NE  ARG H  74      -4.725   1.274  -4.514  1.00 19.12 LIG-0.23  N 
ATOM      6 HE   ARG H  74      -4.263   1.635  -3.886  1.00 19.12 LIG 0.18  HD
ATOM      7  CZ  ARG H  74      -5.244   0.068  -4.292  1.00 19.95 LIG 0.67  C 
ATOM      8  NH1 ARG H  74      -5.998  -0.518  -5.220  1.00 19.07 LIG-0.23  N 
ATOM      9  NH2 ARG H  74      -5.020  -0.547  -3.130  1.00 20.02 LIG-0.23  N 
ATOM     10 2HH1 ARG H  74      -6.332  -1.296  -5.074  1.00 19.07 LIG 0.17  HD
ATOM     11 1HH1 ARG H  74      -6.150  -0.117  -5.965  1.00 19.07 LIG 0.17  HD
ATOM     12 1HH2 ARG H  74      -4.541  -0.164  -2.527  1.00 20.02 LIG 0.17  HD
ATOM     13 2HH2 ARG H  74      -5.354  -1.326  -2.984  1.00 20.02 LIG 0.17  HD
ENDBRANCH 4 5
ENDBRANCH 3 4
ENDBRANCH 2 3
ENDBRANCH 1 2
BRANCH 1 14
ATOM     14  C   ARG H  74      -7.575   4.549  -2.551  1.00 20.00 LIG 0.24  C 
ATOM     15  N   GLY H  75      -8.334   3.542  -2.135  1.00 19.10 LIG-0.35  N 
ATOM     16 H    GLY H  75      -8.131   2.711  -2.222  1.00 19.10 LIG 0.16  HD
ATOM     17 O    ARG H  74      -7.930   5.715  -2.441  1.00 20.55 LIG-0.27  OA
BRANCH 15 18
ATOM     18  CA  GLY H  75      -9.623   3.799  -1.472  1.00 17.93 LIG 0.23  C 
BRANCH 18 19
ATOM     19  C   GLY H  75     -10.577   4.606  -2.343  1.00 17.33 LIG 0.23  C 
ATOM     20  N   GLY H  76     -10.539   4.355  -3.652  1.00 16.80 LIG-0.35  N 
ATOM     21 H    GLY H  76      -9.986   3.814  -4.028  1.00 16.80 LIG 0.16  HD
ATOM     22 O    GLY H  75     -11.334   5.453  -1.844  1.00 16.80 LIG-0.27  OA
BRANCH 20 23
ATOM     23  CA  GLY H  76     -11.468   5.009  -4.556  1.00 16.50 LIG 0.23  C 
BRANCH 23 24
ATOM     24  C   GLY H  76     -11.047   6.385  -5.034  1.00 16.76 LIG 0.19  C 
ATOM     25 O    GLY H  76      -9.877   6.578  -5.350  1.00 16.89 LIG-0.65  OA
ATOM     26 OXT  GLY H  76     -11.865   7.310  -5.109  1.00 15.95 LIG-0.65  OA
ENDBRANCH 23 24
ENDBRANCH 20 23
ENDBRANCH 18 19
ENDBRANCH 15 18
ENDBRANCH 1 14
BRANCH 1 27
ATOM     27  N   ARG H  74      -5.568   3.216  -2.378  1.00 22.12 LIG-0.35  N 
ATOM     28 H    ARG H  74      -5.927   2.435  -2.392  1.00 22.12 LIG 0.16  HD
ATOM     29  C   LEU H  73      -4.491   3.533  -1.664  1.00 24.75 LIG 0.26  C 
ATOM     30 O    LEU H  73      -3.799   4.513  -1.936  1.00 25.51 LIG-0.27  OA
BRANCH 29 31
ATOM     31  CA  LEU H  73      -4.117   2.620  -0.475  1.00 25.64 LIG 0.40  C 
ATOM     32  N   LEU H  73      -2.672   2.592  -0.106  1.00 27.50 LIG 0.61  N 
BRANCH 31 33
ATOM     33  CB  LEU H  73      -4.986   2.918   0.761  1.00 26.32 LIG 0.06  C 
BRANCH 33 34
ATOM     34  CG  LEU H  73      -6.355   3.608   0.765  1.00 25.96 LIG-0.02  C 
ATOM     35  CD2 LEU H  73      -6.109   5.111   0.803  1.00 27.32 LIG 0.01  C 
ATOM     36  CD1 LEU H  73      -7.183   3.207   1.939  1.00 27.59 LIG 0.01  C 
ENDBRANCH 33 34
ENDBRANCH 31 33
ENDBRANCH 29 31
ENDBRANCH 1 27
TORSDOF 13
ENDMDL
MODEL 27
USER: ADFR SOLUTION from run 84
USER: SCORE 11.901510 LL:  -1.738 LR: -11.451 RR:   0.000 FEB:  -7.573
USER: RMSD 7.267671
USER: SEED 83
USER: STATUS no improvement in best in 5 clusters for 5 generations
USER: GENES 15
USER: genes 0 Translation |==|  0.64647 0.36229 0.40462
USER: genes 1 Rotation |==|  0.46237 0.87373 0.31982 0.77649
USER: genes 2 Torsion [C]-CA--CB-[CG] |==|  0.30262
USER: genes 3 Torsion [CA]-CB--CG-[CD] |==|  0.30481
USER: genes 4 Torsion [CB]-CG--CD-[NE] |==|  0.20665
USER: genes 5 Torsion [CG]-CD--NE-[HE] |==|  0.25066
USER: genes 6 Torsion [N]-CA--C-[N] |==|  0.76384
USER: genes 7 Torsion [C]-N--CA-[C] |==|  0.68488
USER: genes 8 Torsion [N]-CA--C-[N] |==|  0.07222
USER: genes 9 Torsion [C]-N--CA-[C] |==|  0.17833
USER: genes 10 Torsion [N]-CA--C-[O] |==|  0.27784
USER: genes 11 Torsion [CB]-CA--N-[C] |==|  0.17987
USER: genes 12 Torsion [N]-C--CA-[N] |==|  0.89146
USER: genes 13 Torsion [C]-CA--CB-[CG] |==|  0.10608
USER: genes 14 Torsion [CA]-CB--CG-[CD2] |==|  0.76722
ROOT
ATOM      1  CA  ARG H  74      -4.592   3.116  -1.526  1.00 20.60 LIG 0.18  C 
ENDROOT
BRANCH 1 2
ATOM      2  CB  ARG H  74      -3.879   4.327  -2.149  1.00 19.81 LIG 0.04  C 
BRANCH 2 3
ATOM      3  CG  ARG H  74      -2.462   4.625  -1.594  1.00 18.47 LIG 0.02  C 
BRANCH 3 4
ATOM      4  CD  ARG H  74      -1.377   4.316  -2.617  1.00 18.94 LIG 0.14  C 
BRANCH 4 5
ATOM      5  NE  ARG H  74      -1.317   5.321  -3.683  1.00 19.12 LIG-0.23  N 
ATOM      6 HE   ARG H  74      -0.798   5.997  -3.569  1.00 19.12 LIG 0.18  HD
ATOM      7  CZ  ARG H  74      -2.013   5.254  -4.816  1.00 19.95 LIG 0.67  C 
ATOM      8  NH1 ARG H  74      -2.802   4.209  -5.057  1.00 19.07 LIG-0.23  N 
ATOM      9  NH2 ARG H  74      -1.906   6.230  -5.719  1.00 20.02 LIG-0.23  N 
ATOM     10 2HH1 ARG H  74      -3.250   4.168  -5.789  1.00 19.07 LIG 0.17  HD
ATOM     11 1HH1 ARG H  74      -2.863   3.575  -4.479  1.00 19.07 LIG 0.17  HD
ATOM     12 1HH2 ARG H  74      -1.389   6.901  -5.568  1.00 20.02 LIG 0.17  HD
ATOM     13 2HH2 ARG H  74      -2.355   6.189  -6.451  1.00 20.02 LIG 0.17  HD
ENDBRANCH 4 5
ENDBRANCH 3 4
ENDBRANCH 2 3
ENDBRANCH 1 2
BRANCH 1 14
ATOM     14  C   ARG H  74      -5.749   3.584  -0.637  1.00 20.00 LIG 0.24  C 
ATOM     15  N   GLY H  75      -6.437   4.654  -1.020  1.00 19.10 LIG-0.35  N 
ATOM     16 H    GLY H  75      -6.275   5.108  -1.732  1.00 19.10 LIG 0.16  HD
ATOM     17 O    ARG H  74      -5.995   2.998   0.407  1.00 20.55 LIG-0.27  OA
BRANCH 15 18
ATOM     18  CA  GLY H  75      -7.567   5.146  -0.215  1.00 17.93 LIG 0.23  C 
BRANCH 18 19
ATOM     19  C   GLY H  75      -8.903   4.997  -0.930  1.00 17.33 LIG 0.23  C 
ATOM     20  N   GLY H  76      -8.980   4.030  -1.846  1.00 16.80 LIG-0.35  N 
ATOM     21 H    GLY H  76      -8.321   3.532  -2.084  1.00 16.80 LIG 0.16  HD
ATOM     22 O    GLY H  75      -9.854   5.750  -0.669  1.00 16.80 LIG-0.27  OA
BRANCH 20 23
ATOM     23  CA  GLY H  76     -10.234   3.751  -2.521  1.00 16.50 LIG 0.23  C 
BRANCH 23 24
ATOM     24  C   GLY H  76     -10.764   4.873  -3.393  1.00 16.76 LIG 0.19  C 
ATOM     25 O    GLY H  76     -10.590   4.822  -4.607  1.00 16.89 LIG-0.65  OA
ATOM     26 OXT  GLY H  76     -11.366   5.834  -2.898  1.00 15.95 LIG-0.65  OA
ENDBRANCH 23 24
ENDBRANCH 20 23
ENDBRANCH 18 19
ENDBRANCH 15 18
ENDBRANCH 1 14
BRANCH 1 27
ATOM     27  N   ARG H  74      -5.168   2.253  -2.567  1.00 22.12 LIG-0.35  N 
ATOM     28 H    ARG H  74      -6.026   2.205  -2.560  1.00 22.12 LIG 0.16  HD
ATOM     29  C   LEU H  73      -4.388   1.613  -3.436  1.00 24.75 LIG 0.26  C 
ATOM     30 O    LEU H  73      -3.233   1.974  -3.657  1.00 25.51 LIG-0.27  OA
BRANCH 29 31
ATOM     31  CA  LEU H  73      -4.980   0.395  -4.179  1.00 25.64 LIG 0.40  C 
ATOM     32  N   LEU H  73      -5.861  -0.495  -3.367  1.00 27.50 LIG 0.61  N 
BRANCH 31 33
ATOM     33  CB  LEU H  73      -5.686   0.816  -5.481  1.00 26.32 LIG 0.06  C 
BRANCH 33 34
ATOM     34  CG  LEU H  73      -5.224   1.905  -6.455  1.00 25.96 LIG-0.02  C 
ATOM     35  CD2 LEU H  73      -5.730   3.239  -5.920  1.00 27.32 LIG 0.01  C 
ATOM     36  CD1 LEU H  73      -5.749   1.687  -7.833  1.00 27.59 LIG 0.01  C 
ENDBRANCH 33 34
ENDBRANCH 31 33
ENDBRANCH 29 31
ENDBRANCH 1 27
TORSDOF 13
ENDMDL
MODEL 28
USER: ADFR SOLUTION from run 91
USER: SCORE 12.552404 LL:  -1.528 LR: -11.453 RR:   0.000 FEB:  -7.575
USER: RMSD 5.767765
USER: SEED 90
USER: STATUS no improvement in best in 7 clusters for 5 generations
USER: GENES 15
USER: genes 0 Translation |==|  0.57392 0.40448 0.37218
USER: genes 1 Rotation |==|  0.72602 0.74758 0.44762 0.86725
USER: genes 2 Torsion [C]-CA--CB-[CG] |==|  0.30022
USER: genes 3 Torsion [CA]-CB--CG-[CD] |==|  0.53424
USER: genes 4 Torsion [CB]-CG--CD-[NE] |==|  0.96660
USER: genes 5 Torsion [CG]-CD--NE-[HE] |==|  0.12260
USER: genes 6 Torsion [N]-CA--C-[N] |==|  0.11578
USER: genes 7 Torsion [C]-N--CA-[C] |==|  0.38321
USER: genes 8 Torsion [N]-CA--C-[N] |==|  0.44103
USER: genes 9 Torsion [C]-N--CA-[C] |==|  0.72872
USER: genes 10 Torsion [N]-CA--C-[O] |==|  0.44641
USER: genes 11 Torsion [CB]-CA--N-[C] |==|  0.17016
USER: genes 12 Torsion [N]-C--CA-[N] |==|  0.41392
USER: genes 13 Torsion [C]-CA--CB-[CG] |==|  0.18561
USER: genes 14 Torsion [CA]-CB--CG-[CD2] |==|  0.66646
ROOT
ATOM      1  CA  ARG H  74      -5.899   3.717  -2.183  1.00 20.60 LIG 0.18  C 
ENDROOT
BRANCH 1 2
ATOM      2  CB  ARG H  74      -5.111   4.316  -1.007  1.00 19.81 LIG 0.04  C 
BRANCH 2 3
ATOM      3  CG  ARG H  74      -4.847   3.353   0.180  1.00 18.47 LIG 0.02  C 
BRANCH 3 4
ATOM      4  CD  ARG H  74      -4.338   4.096   1.408  1.00 18.94 LIG 0.14  C 
BRANCH 4 5
ATOM      5  NE  ARG H  74      -3.951   5.476   1.101  1.00 19.12 LIG-0.23  N 
ATOM      6 HE   ARG H  74      -4.476   5.939   0.602  1.00 19.12 LIG 0.18  HD
ATOM      7  CZ  ARG H  74      -2.840   6.060   1.546  1.00 19.95 LIG 0.67  C 
ATOM      8  NH1 ARG H  74      -2.013   5.398   2.351  1.00 19.07 LIG-0.23  N 
ATOM      9  NH2 ARG H  74      -2.564   7.316   1.194  1.00 20.02 LIG-0.23  N 
ATOM     10 2HH1 ARG H  74      -1.296   5.777   2.637  1.00 19.07 LIG 0.17  HD
ATOM     11 1HH1 ARG H  74      -2.196   4.591   2.586  1.00 19.07 LIG 0.17  HD
ATOM     12 1HH2 ARG H  74      -3.104   7.748   0.681  1.00 20.02 LIG 0.17  HD
ATOM     13 2HH2 ARG H  74      -1.847   7.695   1.480  1.00 20.02 LIG 0.17  HD
ENDBRANCH 4 5
ENDBRANCH 3 4
ENDBRANCH 2 3
ENDBRANCH 1 2
BRANCH 1 14
ATOM     14  C   ARG H  74      -7.316   4.299  -2.220  1.00 20.00 LIG 0.24  C 
ATOM     15  N   GLY H  75      -8.011   4.178  -3.345  1.00 19.10 LIG-0.35  N 
ATOM     16 H    GLY H  75      -7.719   3.801  -4.060  1.00 19.10 LIG 0.16  HD
ATOM     17 O    ARG H  74      -7.763   4.883  -1.243  1.00 20.55 LIG-0.27  OA
BRANCH 15 18
ATOM     18  CA  GLY H  75      -9.382   4.706  -3.438  1.00 17.93 LIG 0.23  C 
BRANCH 18 19
ATOM     19  C   GLY H  75      -9.648   5.410  -4.761  1.00 17.33 LIG 0.23  C 
ATOM     20  N   GLY H  76     -10.926   5.528  -5.123  1.00 16.80 LIG-0.35  N 
ATOM     21 H    GLY H  76     -11.588   5.194  -4.688  1.00 16.80 LIG 0.16  HD
ATOM     22 O    GLY H  75      -8.713   5.838  -5.456  1.00 16.80 LIG-0.27  OA
BRANCH 20 23
ATOM     23  CA  GLY H  76     -11.290   6.260  -6.324  1.00 16.50 LIG 0.23  C 
BRANCH 23 24
ATOM     24  C   GLY H  76     -11.729   7.694  -6.100  1.00 16.76 LIG 0.19  C 
ATOM     25 O    GLY H  76     -11.710   8.481  -7.041  1.00 16.89 LIG-0.65  OA
ATOM     26 OXT  GLY H  76     -12.104   8.078  -4.985  1.00 15.95 LIG-0.65  OA
ENDBRANCH 23 24
ENDBRANCH 20 23
ENDBRANCH 18 19
ENDBRANCH 15 18
ENDBRANCH 1 14
BRANCH 1 27
ATOM     27  N   ARG H  74      -5.261   4.048  -3.465  1.00 22.12 LIG-0.35  N 
ATOM     28 H    ARG H  74      -5.748   4.511  -4.000  1.00 22.12 LIG 0.16  HD
ATOM     29  C   LEU H  73      -4.022   3.644  -3.739  1.00 24.75 LIG 0.26  C 
ATOM     30 O    LEU H  73      -3.236   3.317  -2.851  1.00 25.51 LIG-0.27  OA
BRANCH 29 31
ATOM     31  CA  LEU H  73      -3.585   3.607  -5.220  1.00 25.64 LIG 0.40  C 
ATOM     32  N   LEU H  73      -2.137   3.863  -5.476  1.00 27.50 LIG 0.61  N 
BRANCH 31 33
ATOM     33  CB  LEU H  73      -4.036   2.307  -5.910  1.00 26.32 LIG 0.06  C 
BRANCH 33 34
ATOM     34  CG  LEU H  73      -5.480   1.886  -6.203  1.00 25.96 LIG-0.02  C 
ATOM     35  CD2 LEU H  73      -5.729   0.571  -5.475  1.00 27.32 LIG 0.01  C 
ATOM     36  CD1 LEU H  73      -5.728   1.705  -7.662  1.00 27.59 LIG 0.01  C 
ENDBRANCH 33 34
ENDBRANCH 31 33
ENDBRANCH 29 31
ENDBRANCH 1 27
TORSDOF 13
ENDMDL
MODEL 29
USER: ADFR SOLUTION from run 13
USER: SCORE 12.292680 LL:  -1.213 LR: -11.426 RR:   0.000 FEB:  -7.548
USER: RMSD 7.626546
USER: SEED 691111
USER: STATUS no improvement in best in 9 clusters for 5 generations
USER: GENES 15
USER: genes 0 Translation |==|  0.43295 0.52646 0.27485
USER: genes 1 Rotation |==|  0.10049 0.70274 0.47966 0.72107
USER: genes 2 Torsion [C]-CA--CB-[CG] |==|  0.97525
USER: genes 3 Torsion [CA]-CB--CG-[CD] |==|  0.48951
USER: genes 4 Torsion [CB]-CG--CD-[NE] |==|  0.93633
USER: genes 5 Torsion [CG]-CD--NE-[HE] |==|  0.32512
USER: genes 6 Torsion [N]-CA--C-[N] |==|  0.03947
USER: genes 7 Torsion [C]-N--CA-[C] |==|  0.76087
USER: genes 8 Torsion [N]-CA--C-[N] |==|  0.05556
USER: genes 9 Torsion [C]-N--CA-[C] |==|  0.60312
USER: genes 10 Torsion [N]-CA--C-[O] |==|  0.74030
USER: genes 11 Torsion [CB]-CA--N-[C] |==|  0.18535
USER: genes 12 Torsion [N]-C--CA-[N] |==|  0.78123
USER: genes 13 Torsion [C]-CA--CB-[CG] |==|  0.23815
USER: genes 14 Torsion [CA]-CB--CG-[CD2] |==|  0.35646
ROOT
ATOM      1  CA  ARG H  74      -8.436   5.455  -4.154  1.00 20.60 LIG 0.18  C 
ENDROOT
BRANCH 1 2
ATOM      2  CB  ARG H  74      -9.543   5.426  -5.220  1.00 19.81 LIG 0.04  C 
BRANCH 2 3
ATOM      3  CG  ARG H  74     -10.886   4.793  -4.771  1.00 18.47 LIG 0.02  C 
BRANCH 3 4
ATOM      4  CD  ARG H  74     -11.949   4.891  -5.857  1.00 18.94 LIG 0.14  C 
BRANCH 4 5
ATOM      5  NE  ARG H  74     -11.674   5.976  -6.806  1.00 19.12 LIG-0.23  N 
ATOM      6 HE   ARG H  74     -11.531   5.765  -7.627  1.00 19.12 LIG 0.18  HD
ATOM      7  CZ  ARG H  74     -11.633   7.265  -6.478  1.00 19.95 LIG 0.67  C 
ATOM      8  NH1 ARG H  74     -11.884   7.646  -5.228  1.00 19.07 LIG-0.23  N 
ATOM      9  NH2 ARG H  74     -11.354   8.178  -7.410  1.00 20.02 LIG-0.23  N 
ATOM     10 2HH1 ARG H  74     -11.857   8.480  -5.018  1.00 19.07 LIG 0.17  HD
ATOM     11 1HH1 ARG H  74     -12.074   7.059  -4.629  1.00 19.07 LIG 0.17  HD
ATOM     12 1HH2 ARG H  74     -11.201   7.933  -8.220  1.00 20.02 LIG 0.17  HD
ATOM     13 2HH2 ARG H  74     -11.327   9.012  -7.200  1.00 20.02 LIG 0.17  HD
ENDBRANCH 4 5
ENDBRANCH 3 4
ENDBRANCH 2 3
ENDBRANCH 1 2
BRANCH 1 14
ATOM     14  C   ARG H  74      -9.002   5.035  -2.794  1.00 20.00 LIG 0.24  C 
ATOM     15  N   GLY H  75      -8.303   4.172  -2.065  1.00 19.10 LIG-0.35  N 
ATOM     16 H    GLY H  75      -7.554   3.826  -2.307  1.00 19.10 LIG 0.16  HD
ATOM     17 O    ARG H  74     -10.084   5.466  -2.421  1.00 20.55 LIG-0.27  OA
BRANCH 15 18
ATOM     18  CA  GLY H  75      -8.788   3.740  -0.745  1.00 17.93 LIG 0.23  C 
BRANCH 18 19
ATOM     19  C   GLY H  75      -8.371   4.688   0.370  1.00 17.33 LIG 0.23  C 
ATOM     20  N   GLY H  76      -8.023   5.921  -0.000  1.00 16.80 LIG-0.35  N 
ATOM     21 H    GLY H  76      -7.974   6.188  -0.816  1.00 16.80 LIG 0.16  HD
ATOM     22 O    GLY H  75      -8.354   4.315   1.553  1.00 16.80 LIG-0.27  OA
BRANCH 20 23
ATOM     23  CA  GLY H  76      -7.694   6.927   0.994  1.00 16.50 LIG 0.23  C 
BRANCH 23 24
ATOM     24  C   GLY H  76      -8.156   8.334   0.670  1.00 16.76 LIG 0.19  C 
ATOM     25 O    GLY H  76      -7.387   9.101   0.099  1.00 16.89 LIG-0.65  OA
ATOM     26 OXT  GLY H  76      -9.293   8.715   0.973  1.00 15.95 LIG-0.65  OA
ENDBRANCH 23 24
ENDBRANCH 20 23
ENDBRANCH 18 19
ENDBRANCH 15 18
ENDBRANCH 1 14
BRANCH 1 27
ATOM     27  N   ARG H  74      -7.362   4.510  -4.488  1.00 22.12 LIG-0.35  N 
ATOM     28 H    ARG H  74      -7.287   3.845  -3.947  1.00 22.12 LIG 0.16  HD
ATOM     29  C   LEU H  73      -6.586   4.701  -5.553  1.00 24.75 LIG 0.26  C 
ATOM     30 O    LEU H  73      -6.934   5.423  -6.486  1.00 25.51 LIG-0.27  OA
BRANCH 29 31
ATOM     31  CA  LEU H  73      -5.224   3.974  -5.595  1.00 25.64 LIG 0.40  C 
ATOM     32  N   LEU H  73      -4.134   4.589  -4.782  1.00 27.50 LIG 0.61  N 
BRANCH 31 33
ATOM     33  CB  LEU H  73      -5.371   2.478  -5.262  1.00 26.32 LIG 0.06  C 
BRANCH 33 34
ATOM     34  CG  LEU H  73      -5.719   1.356  -6.248  1.00 25.96 LIG-0.02  C 
ATOM     35  CD2 LEU H  73      -4.669   0.264  -6.084  1.00 27.32 LIG 0.01  C 
ATOM     36  CD1 LEU H  73      -5.729   1.832  -7.661  1.00 27.59 LIG 0.01  C 
ENDBRANCH 33 34
ENDBRANCH 31 33
ENDBRANCH 29 31
ENDBRANCH 1 27
TORSDOF 13
ENDMDL
MODEL 30
USER: ADFR SOLUTION from run 11
USER: SCORE 12.516871 LL:  -1.767 LR: -11.401 RR:   0.000 FEB:  -7.523
USER: RMSD 8.268170
USER: SEED 519021
USER: STATUS no improvement in best in 9 clusters for 5 generations
USER: GENES 15
USER: genes 0 Translation |==|  0.64274 0.43877 0.27157
USER: genes 1 Rotation |==|  0.40972 0.59411 0.20156 0.87937
USER: genes 2 Torsion [C]-CA--CB-[CG] |==|  0.46636
USER: genes 3 Torsion [CA]-CB--CG-[CD] |==|  0.55158
USER: genes 4 Torsion [CB]-CG--CD-[NE] |==|  0.89499
USER: genes 5 Torsion [CG]-CD--NE-[HE] |==|  0.93575
USER: genes 6 Torsion [N]-CA--C-[N] |==|  0.38217
USER: genes 7 Torsion [C]-N--CA-[C] |==|  0.31667
USER: genes 8 Torsion [N]-CA--C-[N] |==|  0.95173
USER: genes 9 Torsion [C]-N--CA-[C] |==|  0.82587
USER: genes 10 Torsion [N]-CA--C-[O] |==|  0.27779
USER: genes 11 Torsion [CB]-CA--N-[C] |==|  0.52880
USER: genes 12 Torsion [N]-C--CA-[N] |==|  0.46184
USER: genes 13 Torsion [C]-CA--CB-[CG] |==|  0.07074
USER: genes 14 Torsion [CA]-CB--CG-[CD2] |==|  0.59566
ROOT
ATOM      1  CA  ARG H  74      -4.660   4.206  -4.221  1.00 20.60 LIG 0.18  C 
ENDROOT
BRANCH 1 2
ATOM      2  CB  ARG H  74      -3.434   4.937  -4.792  1.00 19.81 LIG 0.04  C 
BRANCH 2 3
ATOM      3  CG  ARG H  74      -2.188   4.974  -3.869  1.00 18.47 LIG 0.02  C 
BRANCH 3 4
ATOM      4  CD  ARG H  74      -1.209   6.064  -4.283  1.00 18.94 LIG 0.14  C 
BRANCH 4 5
ATOM      5  NE  ARG H  74      -1.117   6.203  -5.740  1.00 19.12 LIG-0.23  N 
ATOM      6 HE   ARG H  74      -1.338   5.528  -6.223  1.00 19.12 LIG 0.18  HD
ATOM      7  CZ  ARG H  74      -0.714   7.309  -6.363  1.00 19.95 LIG 0.67  C 
ATOM      8  NH1 ARG H  74      -0.395   8.394  -5.662  1.00 19.07 LIG-0.23  N 
ATOM      9  NH2 ARG H  74      -0.643   7.331  -7.695  1.00 20.02 LIG-0.23  N 
ATOM     10 2HH1 ARG H  74      -0.135   9.107  -6.066  1.00 19.07 LIG 0.17  HD
ATOM     11 1HH1 ARG H  74      -0.450   8.383  -4.804  1.00 19.07 LIG 0.17  HD
ATOM     12 1HH2 ARG H  74      -0.859   6.633  -8.149  1.00 20.02 LIG 0.17  HD
ATOM     13 2HH2 ARG H  74      -0.383   8.044  -8.099  1.00 20.02 LIG 0.17  HD
ENDBRANCH 4 5
ENDBRANCH 3 4
ENDBRANCH 2 3
ENDBRANCH 1 2
BRANCH 1 14
ATOM     14  C   ARG H  74      -5.895   4.496  -5.080  1.00 20.00 LIG 0.24  C 
ATOM     15  N   GLY H  75      -6.770   5.390  -4.634  1.00 19.10 LIG-0.35  N 
ATOM     16 H    GLY H  75      -6.695   5.815  -3.890  1.00 19.10 LIG 0.16  HD
ATOM     17 O    ARG H  74      -6.069   3.887  -6.126  1.00 20.55 LIG-0.27  OA
BRANCH 15 18
ATOM     18  CA  GLY H  75      -7.970   5.721  -5.420  1.00 17.93 LIG 0.23  C 
BRANCH 18 19
ATOM     19  C   GLY H  75      -9.257   5.290  -4.730  1.00 17.33 LIG 0.23  C 
ATOM     20  N   GLY H  76      -9.132   4.394  -3.750  1.00 16.80 LIG-0.35  N 
ATOM     21 H    GLY H  76      -8.392   4.019  -3.526  1.00 16.80 LIG 0.16  HD
ATOM     22 O    GLY H  75     -10.354   5.752  -5.079  1.00 16.80 LIG-0.27  OA
BRANCH 20 23
ATOM     23  CA  GLY H  76     -10.288   3.984  -2.972  1.00 16.50 LIG 0.23  C 
BRANCH 23 24
ATOM     24  C   GLY H  76     -10.952   5.086  -2.169  1.00 16.76 LIG 0.19  C 
ATOM     25 O    GLY H  76     -11.968   5.618  -2.606  1.00 16.89 LIG-0.65  OA
ATOM     26 OXT  GLY H  76     -10.483   5.453  -1.084  1.00 15.95 LIG-0.65  OA
ENDBRANCH 23 24
ENDBRANCH 20 23
ENDBRANCH 18 19
ENDBRANCH 15 18
ENDBRANCH 1 14
BRANCH 1 27
ATOM     27  N   ARG H  74      -4.455   2.750  -4.233  1.00 22.12 LIG-0.35  N 
ATOM     28 H    ARG H  74      -3.653   2.502  -4.415  1.00 22.12 LIG 0.16  HD
ATOM     29  C   LEU H  73      -5.460   1.915  -3.977  1.00 24.75 LIG 0.26  C 
ATOM     30 O    LEU H  73      -6.469   2.281  -3.376  1.00 25.51 LIG-0.27  OA
BRANCH 29 31
ATOM     31  CA  LEU H  73      -5.320   0.451  -4.449  1.00 25.64 LIG 0.40  C 
ATOM     32  N   LEU H  73      -6.303  -0.513  -3.873  1.00 27.50 LIG 0.61  N 
BRANCH 31 33
ATOM     33  CB  LEU H  73      -5.299   0.352  -5.985  1.00 26.32 LIG 0.06  C 
BRANCH 33 34
ATOM     34  CG  LEU H  73      -4.860   1.449  -6.961  1.00 25.96 LIG-0.02  C 
ATOM     35  CD2 LEU H  73      -5.734   1.329  -8.204  1.00 27.32 LIG 0.01  C 
ATOM     36  CD1 LEU H  73      -3.425   1.320  -7.344  1.00 27.59 LIG 0.01  C 
ENDBRANCH 33 34
ENDBRANCH 31 33
ENDBRANCH 29 31
ENDBRANCH 1 27
TORSDOF 13
ENDMDL
MODEL 31
USER: ADFR SOLUTION from run 27
USER: SCORE 12.006431 LL:  -1.158 LR: -11.349 RR:   0.000 FEB:  -7.471
USER: RMSD 7.295557
USER: SEED 26
USER: STATUS no improvement in best in 9 clusters for 5 generations
USER: GENES 15
USER: genes 0 Translation |==|  0.60143 0.36120 0.34631
USER: genes 1 Rotation |==|  0.68438 0.69843 0.36128 0.89671
USER: genes 2 Torsion [C]-CA--CB-[CG] |==|  0.39749
USER: genes 3 Torsion [CA]-CB--CG-[CD] |==|  0.09692
USER: genes 4 Torsion [CB]-CG--CD-[NE] |==|  0.80981
USER: genes 5 Torsion [CG]-CD--NE-[HE] |==|  0.96970
USER: genes 6 Torsion [N]-CA--C-[N] |==|  0.35000
USER: genes 7 Torsion [C]-N--CA-[C] |==|  0.70089
USER: genes 8 Torsion [N]-CA--C-[N] |==|  0.05050
USER: genes 9 Torsion [C]-N--CA-[C] |==|  0.73740
USER: genes 10 Torsion [N]-CA--C-[O] |==|  0.89719
USER: genes 11 Torsion [CB]-CA--N-[C] |==|  0.88886
USER: genes 12 Torsion [N]-C--CA-[N] |==|  0.75618
USER: genes 13 Torsion [C]-CA--CB-[CG] |==|  0.01849
USER: genes 14 Torsion [CA]-CB--CG-[CD2] |==|  0.67578
ROOT
ATOM      1  CA  ARG H  74      -5.403   3.100  -2.707  1.00 20.60 LIG 0.18  C 
ENDROOT
BRANCH 1 2
ATOM      2  CB  ARG H  74      -4.472   3.880  -1.765  1.00 19.81 LIG 0.04  C 
BRANCH 2 3
ATOM      3  CG  ARG H  74      -3.765   3.034  -0.674  1.00 18.47 LIG 0.02  C 
BRANCH 3 4
ATOM      4  CD  ARG H  74      -3.413   1.640  -1.179  1.00 18.94 LIG 0.14  C 
BRANCH 4 5
ATOM      5  NE  ARG H  74      -4.604   0.817  -1.410  1.00 19.12 LIG-0.23  N 
ATOM      6 HE   ARG H  74      -5.358   1.110  -1.119  1.00 19.12 LIG 0.18  HD
ATOM      7  CZ  ARG H  74      -4.593  -0.355  -2.043  1.00 19.95 LIG 0.67  C 
ATOM      8  NH1 ARG H  74      -3.458  -0.835  -2.544  1.00 19.07 LIG-0.23  N 
ATOM      9  NH2 ARG H  74      -5.728  -1.042  -2.185  1.00 20.02 LIG-0.23  N 
ATOM     10 2HH1 ARG H  74      -3.454  -1.592  -2.952  1.00 19.07 LIG 0.17  HD
ATOM     11 1HH1 ARG H  74      -2.729  -0.387  -2.461  1.00 19.07 LIG 0.17  HD
ATOM     12 1HH2 ARG H  74      -6.464  -0.727  -1.869  1.00 20.02 LIG 0.17  HD
ATOM     13 2HH2 ARG H  74      -5.724  -1.799  -2.593  1.00 20.02 LIG 0.17  HD
ENDBRANCH 4 5
ENDBRANCH 3 4
ENDBRANCH 2 3
ENDBRANCH 1 2
BRANCH 1 14
ATOM     14  C   ARG H  74      -6.633   3.946  -3.052  1.00 20.00 LIG 0.24  C 
ATOM     15  N   GLY H  75      -7.816   3.540  -2.606  1.00 19.10 LIG-0.35  N 
ATOM     16 H    GLY H  75      -7.943   2.828  -2.141  1.00 19.10 LIG 0.16  HD
ATOM     17 O    ARG H  74      -6.514   4.945  -3.748  1.00 20.55 LIG-0.27  OA
BRANCH 15 18
ATOM     18  CA  GLY H  75      -9.033   4.316  -2.895  1.00 17.93 LIG 0.23  C 
BRANCH 18 19
ATOM     19  C   GLY H  75      -9.567   5.043  -1.668  1.00 17.33 LIG 0.23  C 
ATOM     20  N   GLY H  76      -8.714   5.199  -0.655  1.00 16.80 LIG-0.35  N 
ATOM     21 H    GLY H  76      -7.917   4.877  -0.636  1.00 16.80 LIG 0.16  HD
ATOM     22 O    GLY H  75     -10.737   5.453  -1.628  1.00 16.80 LIG-0.27  OA
BRANCH 20 23
ATOM     23  CA  GLY H  76      -9.098   5.954   0.525  1.00 16.50 LIG 0.23  C 
BRANCH 23 24
ATOM     24  C   GLY H  76      -8.696   7.416   0.517  1.00 16.76 LIG 0.19  C 
ATOM     25 O    GLY H  76      -7.620   7.739   0.024  1.00 16.89 LIG-0.65  OA
ATOM     26 OXT  GLY H  76      -9.436   8.282   1.000  1.00 15.95 LIG-0.65  OA
ENDBRANCH 23 24
ENDBRANCH 20 23
ENDBRANCH 18 19
ENDBRANCH 15 18
ENDBRANCH 1 14
BRANCH 1 27
ATOM     27  N   ARG H  74      -4.725   2.784  -3.972  1.00 22.12 LIG-0.35  N 
ATOM     28 H    ARG H  74      -4.889   1.999  -4.282  1.00 22.12 LIG 0.16  HD
ATOM     29  C   LEU H  73      -3.928   3.672  -4.563  1.00 24.75 LIG 0.26  C 
ATOM     30 O    LEU H  73      -3.998   4.874  -4.311  1.00 25.51 LIG-0.27  OA
BRANCH 29 31
ATOM     31  CA  LEU H  73      -2.905   3.150  -5.596  1.00 25.64 LIG 0.40  C 
ATOM     32  N   LEU H  73      -1.587   2.719  -5.044  1.00 27.50 LIG 0.61  N 
BRANCH 31 33
ATOM     33  CB  LEU H  73      -3.509   2.045  -6.481  1.00 26.32 LIG 0.06  C 
BRANCH 33 34
ATOM     34  CG  LEU H  73      -4.973   1.589  -6.494  1.00 25.96 LIG-0.02  C 
ATOM     35  CD2 LEU H  73      -5.002   0.134  -6.044  1.00 27.32 LIG 0.01  C 
ATOM     36  CD1 LEU H  73      -5.586   1.706  -7.849  1.00 27.59 LIG 0.01  C 
ENDBRANCH 33 34
ENDBRANCH 31 33
ENDBRANCH 29 31
ENDBRANCH 1 27
TORSDOF 13
ENDMDL
MODEL 32
USER: ADFR SOLUTION from run 142
USER: SCORE 11.946478 LL:  -1.423 LR: -11.348 RR:   0.000 FEB:  -7.470
USER: RMSD 6.928639
USER: SEED 141
USER: STATUS no improvement in best in 10 clusters for 5 generations
USER: GENES 15
USER: genes 0 Translation |==|  0.55287 0.39753 0.31448
USER: genes 1 Rotation |==|  0.21647 0.75908 0.26453 0.71689
USER: genes 2 Torsion [C]-CA--CB-[CG] |==|  0.46149
USER: genes 3 Torsion [CA]-CB--CG-[CD] |==|  0.29719
USER: genes 4 Torsion [CB]-CG--CD-[NE] |==|  0.66215
USER: genes 5 Torsion [CG]-CD--NE-[HE] |==|  0.87637
USER: genes 6 Torsion [N]-CA--C-[N] |==|  0.95745
USER: genes 7 Torsion [C]-N--CA-[C] |==|  0.17988
USER: genes 8 Torsion [N]-CA--C-[N] |==|  0.08372
USER: genes 9 Torsion [C]-N--CA-[C] |==|  0.23094
USER: genes 10 Torsion [N]-CA--C-[O] |==|  0.59790
USER: genes 11 Torsion [CB]-CA--N-[C] |==|  0.25037
USER: genes 12 Torsion [N]-C--CA-[N] |==|  0.17296
USER: genes 13 Torsion [C]-CA--CB-[CG] |==|  0.21418
USER: genes 14 Torsion [CA]-CB--CG-[CD2] |==|  0.02188
ROOT
ATOM      1  CA  ARG H  74      -6.277   3.618  -3.352  1.00 20.60 LIG 0.18  C 
ENDROOT
BRANCH 1 2
ATOM      2  CB  ARG H  74      -6.395   3.896  -4.859  1.00 19.81 LIG 0.04  C 
BRANCH 2 3
ATOM      3  CG  ARG H  74      -5.087   3.722  -5.674  1.00 18.47 LIG 0.02  C 
BRANCH 3 4
ATOM      4  CD  ARG H  74      -5.119   2.464  -6.533  1.00 18.94 LIG 0.14  C 
BRANCH 4 5
ATOM      5  NE  ARG H  74      -4.016   1.550  -6.218  1.00 19.12 LIG-0.23  N 
ATOM      6 HE   ARG H  74      -3.231   1.885  -6.119  1.00 19.12 LIG 0.18  HD
ATOM      7  CZ  ARG H  74      -4.153   0.233  -6.076  1.00 19.95 LIG 0.67  C 
ATOM      8  NH1 ARG H  74      -5.354  -0.331  -6.184  1.00 19.07 LIG-0.23  N 
ATOM      9  NH2 ARG H  74      -3.085  -0.520  -5.810  1.00 20.02 LIG-0.23  N 
ATOM     10 2HH1 ARG H  74      -5.440  -1.182  -6.091  1.00 19.07 LIG 0.17  HD
ATOM     11 1HH1 ARG H  74      -6.044   0.156  -6.345  1.00 19.07 LIG 0.17  HD
ATOM     12 1HH2 ARG H  74      -2.310  -0.154  -5.731  1.00 20.02 LIG 0.17  HD
ATOM     13 2HH2 ARG H  74      -3.170  -1.371  -5.718  1.00 20.02 LIG 0.17  HD
ENDBRANCH 4 5
ENDBRANCH 3 4
ENDBRANCH 2 3
ENDBRANCH 1 2
BRANCH 1 14
ATOM     14  C   ARG H  74      -7.515   4.148  -2.619  1.00 20.00 LIG 0.24  C 
ATOM     15  N   GLY H  75      -8.413   3.268  -2.194  1.00 19.10 LIG-0.35  N 
ATOM     16 H    GLY H  75      -8.353   2.417  -2.306  1.00 19.10 LIG 0.16  HD
ATOM     17 O    ARG H  74      -7.669   5.352  -2.471  1.00 20.55 LIG-0.27  OA
BRANCH 15 18
ATOM     18  CA  GLY H  75      -9.617   3.714  -1.473  1.00 17.93 LIG 0.23  C 
BRANCH 18 19
ATOM     19  C   GLY H  75     -10.536   4.562  -2.341  1.00 17.33 LIG 0.23  C 
ATOM     20  N   GLY H  76     -10.528   4.298  -3.648  1.00 16.80 LIG-0.35  N 
ATOM     21 H    GLY H  76     -10.009   3.724  -4.025  1.00 16.80 LIG 0.16  HD
ATOM     22 O    GLY H  75     -11.242   5.453  -1.843  1.00 16.80 LIG-0.27  OA
BRANCH 20 23
ATOM     23  CA  GLY H  76     -11.431   4.991  -4.549  1.00 16.50 LIG 0.23  C 
BRANCH 23 24
ATOM     24  C   GLY H  76     -10.960   6.355  -5.014  1.00 16.76 LIG 0.19  C 
ATOM     25 O    GLY H  76     -11.785   7.247  -5.187  1.00 16.89 LIG-0.65  OA
ATOM     26 OXT  GLY H  76      -9.761   6.578  -5.220  1.00 15.95 LIG-0.65  OA
ENDBRANCH 23 24
ENDBRANCH 20 23
ENDBRANCH 18 19
ENDBRANCH 15 18
ENDBRANCH 1 14
BRANCH 1 27
ATOM     27  N   ARG H  74      -6.203   2.174  -3.089  1.00 22.12 LIG-0.35  N 
ATOM     28 H    ARG H  74      -6.963   1.790  -2.971  1.00 22.12 LIG 0.16  HD
ATOM     29  C   LEU H  73      -5.031   1.545  -3.044  1.00 24.75 LIG 0.26  C 
ATOM     30 O    LEU H  73      -4.021   2.019  -3.563  1.00 25.51 LIG-0.27  OA
BRANCH 29 31
ATOM     31  CA  LEU H  73      -4.970   0.180  -2.323  1.00 25.64 LIG 0.40  C 
ATOM     32  N   LEU H  73      -5.811  -0.903  -2.912  1.00 27.50 LIG 0.61  N 
BRANCH 31 33
ATOM     33  CB  LEU H  73      -3.519  -0.299  -2.142  1.00 26.32 LIG 0.06  C 
BRANCH 33 34
ATOM     34  CG  LEU H  73      -2.517   0.208  -1.098  1.00 25.96 LIG-0.02  C 
ATOM     35  CD2 LEU H  73      -3.275   1.127  -0.148  1.00 27.32 LIG 0.01  C 
ATOM     36  CD1 LEU H  73      -1.385   0.954  -1.720  1.00 27.59 LIG 0.01  C 
ENDBRANCH 33 34
ENDBRANCH 31 33
ENDBRANCH 29 31
ENDBRANCH 1 27
TORSDOF 13
ENDMDL
MODEL 33
USER: ADFR SOLUTION from run 173
USER: SCORE 12.293593 LL:  -1.894 LR: -11.286 RR:   0.000 FEB:  -7.408
USER: RMSD 6.178171
USER: SEED 172
USER: STATUS no improvement in best in 7 clusters for 5 generations
USER: GENES 15
USER: genes 0 Translation |==|  0.55669 0.44692 0.34812
USER: genes 1 Rotation |==|  0.14709 0.44760 0.18710 0.65748
USER: genes 2 Torsion [C]-CA--CB-[CG] |==|  0.30888
USER: genes 3 Torsion [CA]-CB--CG-[CD] |==|  0.21570
USER: genes 4 Torsion [CB]-CG--CD-[NE] |==|  0.47284
USER: genes 5 Torsion [CG]-CD--NE-[HE] |==|  0.96487
USER: genes 6 Torsion [N]-CA--C-[N] |==|  0.95556
USER: genes 7 Torsion [C]-N--CA-[C] |==|  0.85961
USER: genes 8 Torsion [N]-CA--C-[N] |==|  0.33591
USER: genes 9 Torsion [C]-N--CA-[C] |==|  0.23839
USER: genes 10 Torsion [N]-CA--C-[O] |==|  0.51410
USER: genes 11 Torsion [CB]-CA--N-[C] |==|  0.21979
USER: genes 12 Torsion [N]-C--CA-[N] |==|  0.48976
USER: genes 13 Torsion [C]-CA--CB-[CG] |==|  0.22095
USER: genes 14 Torsion [CA]-CB--CG-[CD2] |==|  0.03995
ROOT
ATOM      1  CA  ARG H  74      -6.209   4.322  -2.671  1.00 20.60 LIG 0.18  C 
ENDROOT
BRANCH 1 2
ATOM      2  CB  ARG H  74      -5.360   3.363  -3.522  1.00 19.81 LIG 0.04  C 
BRANCH 2 3
ATOM      3  CG  ARG H  74      -4.534   4.028  -4.653  1.00 18.47 LIG 0.02  C 
BRANCH 3 4
ATOM      4  CD  ARG H  74      -3.280   4.706  -4.114  1.00 18.94 LIG 0.14  C 
BRANCH 4 5
ATOM      5  NE  ARG H  74      -2.377   5.137  -5.186  1.00 19.12 LIG-0.23  N 
ATOM      6 HE   ARG H  74      -2.525   4.841  -5.979  1.00 19.12 LIG 0.18  HD
ATOM      7  CZ  ARG H  74      -1.344   5.958  -5.010  1.00 19.95 LIG 0.67  C 
ATOM      8  NH1 ARG H  74      -1.095   6.472  -3.808  1.00 19.07 LIG-0.23  N 
ATOM      9  NH2 ARG H  74      -0.566   6.276  -6.046  1.00 20.02 LIG-0.23  N 
ATOM     10 2HH1 ARG H  74      -0.427   7.002  -3.697  1.00 19.07 LIG 0.17  HD
ATOM     11 1HH1 ARG H  74      -1.602   6.275  -3.143  1.00 19.07 LIG 0.17  HD
ATOM     12 1HH2 ARG H  74      -0.732   5.951  -6.825  1.00 20.02 LIG 0.17  HD
ATOM     13 2HH2 ARG H  74       0.102   6.805  -5.934  1.00 20.02 LIG 0.17  HD
ENDBRANCH 4 5
ENDBRANCH 3 4
ENDBRANCH 2 3
ENDBRANCH 1 2
BRANCH 1 14
ATOM     14  C   ARG H  74      -7.699   4.089  -2.941  1.00 20.00 LIG 0.24  C 
ATOM     15  N   GLY H  75      -8.407   3.442  -2.023  1.00 19.10 LIG-0.35  N 
ATOM     16 H    GLY H  75      -8.085   3.136  -1.287  1.00 19.10 LIG 0.16  HD
ATOM     17 O    ARG H  74      -8.196   4.467  -3.993  1.00 20.55 LIG-0.27  OA
BRANCH 15 18
ATOM     18  CA  GLY H  75      -9.845   3.198  -2.220  1.00 17.93 LIG 0.23  C 
BRANCH 18 19
ATOM     19  C   GLY H  75     -10.605   4.462  -2.597  1.00 17.33 LIG 0.23  C 
ATOM     20  N   GLY H  76     -11.255   4.438  -3.761  1.00 16.80 LIG-0.35  N 
ATOM     21 H    GLY H  76     -11.228   3.784  -4.320  1.00 16.80 LIG 0.16  HD
ATOM     22 O    GLY H  75     -10.603   5.455  -1.852  1.00 16.80 LIG-0.27  OA
BRANCH 20 23
ATOM     23  CA  GLY H  76     -12.080   5.560  -4.171  1.00 16.50 LIG 0.23  C 
BRANCH 23 24
ATOM     24  C   GLY H  76     -11.343   6.678  -4.884  1.00 16.76 LIG 0.19  C 
ATOM     25 O    GLY H  76     -11.950   7.703  -5.179  1.00 16.89 LIG-0.65  OA
ATOM     26 OXT  GLY H  76     -10.145   6.569  -5.170  1.00 15.95 LIG-0.65  OA
ENDBRANCH 23 24
ENDBRANCH 20 23
ENDBRANCH 18 19
ENDBRANCH 15 18
ENDBRANCH 1 14
BRANCH 1 27
ATOM     27  N   ARG H  74      -5.987   4.087  -1.237  1.00 22.12 LIG-0.35  N 
ATOM     28 H    ARG H  74      -6.600   3.626  -0.849  1.00 22.12 LIG 0.16  HD
ATOM     29  C   LEU H  73      -4.907   4.567  -0.623  1.00 24.75 LIG 0.26  C 
ATOM     30 O    LEU H  73      -3.897   4.890  -1.247  1.00 25.51 LIG-0.27  OA
BRANCH 29 31
ATOM     31  CA  LEU H  73      -4.950   4.699   0.916  1.00 25.64 LIG 0.40  C 
ATOM     32  N   LEU H  73      -3.687   5.160   1.563  1.00 27.50 LIG 0.61  N 
BRANCH 31 33
ATOM     33  CB  LEU H  73      -6.141   5.558   1.376  1.00 26.32 LIG 0.06  C 
BRANCH 33 34
ATOM     34  CG  LEU H  73      -7.599   5.100   1.501  1.00 25.96 LIG-0.02  C 
ATOM     35  CD2 LEU H  73      -7.605   3.578   1.441  1.00 27.32 LIG 0.01  C 
ATOM     36  CD1 LEU H  73      -8.456   5.648   0.411  1.00 27.59 LIG 0.01  C 
ENDBRANCH 33 34
ENDBRANCH 31 33
ENDBRANCH 29 31
ENDBRANCH 1 27
TORSDOF 13
ENDMDL
MODEL 34
USER: ADFR SOLUTION from run 76
USER: SCORE 11.382397 LL:  -1.221 LR: -11.294 RR:   0.000 FEB:  -7.416
USER: RMSD 8.130468
USER: SEED 75
USER: STATUS no improvement in best in 4 clusters for 5 generations
USER: GENES 15
USER: genes 0 Translation |==|  0.61626 0.32723 0.15813
USER: genes 1 Rotation |==|  0.93456 0.49179 0.62503 0.71321
USER: genes 2 Torsion [C]-CA--CB-[CG] |==|  0.79415
USER: genes 3 Torsion [CA]-CB--CG-[CD] |==|  0.51561
USER: genes 4 Torsion [CB]-CG--CD-[NE] |==|  0.26635
USER: genes 5 Torsion [CG]-CD--NE-[HE] |==|  0.73897
USER: genes 6 Torsion [N]-CA--C-[N] |==|  0.82195
USER: genes 7 Torsion [C]-N--CA-[C] |==|  0.28889
USER: genes 8 Torsion [N]-CA--C-[N] |==|  0.11455
USER: genes 9 Torsion [C]-N--CA-[C] |==|  0.82121
USER: genes 10 Torsion [N]-CA--C-[O] |==|  0.29376
USER: genes 11 Torsion [CB]-CA--N-[C] |==|  0.19716
USER: genes 12 Torsion [N]-C--CA-[N] |==|  0.17272
USER: genes 13 Torsion [C]-CA--CB-[CG] |==|  0.19366
USER: genes 14 Torsion [CA]-CB--CG-[CD2] |==|  0.31310
ROOT
ATOM      1  CA  ARG H  74      -5.136   2.616  -6.518  1.00 20.60 LIG 0.18  C 
ENDROOT
BRANCH 1 2
ATOM      2  CB  ARG H  74      -5.783   1.486  -5.700  1.00 19.81 LIG 0.04  C 
BRANCH 2 3
ATOM      3  CG  ARG H  74      -5.675   1.630  -4.160  1.00 18.47 LIG 0.02  C 
BRANCH 3 4
ATOM      4  CD  ARG H  74      -6.218   0.404  -3.438  1.00 18.94 LIG 0.14  C 
BRANCH 4 5
ATOM      5  NE  ARG H  74      -5.159  -0.547  -3.085  1.00 19.12 LIG-0.23  N 
ATOM      6 HE   ARG H  74      -4.998  -1.190  -3.633  1.00 19.12 LIG 0.18  HD
ATOM      7  CZ  ARG H  74      -4.431  -0.479  -1.972  1.00 19.95 LIG 0.67  C 
ATOM      8  NH1 ARG H  74      -4.617   0.518  -1.111  1.00 19.07 LIG-0.23  N 
ATOM      9  NH2 ARG H  74      -3.503  -1.406  -1.730  1.00 20.02 LIG-0.23  N 
ATOM     10 2HH1 ARG H  74      -4.146   0.560  -0.393  1.00 19.07 LIG 0.17  HD
ATOM     11 1HH1 ARG H  74      -5.209   1.121  -1.272  1.00 19.07 LIG 0.17  HD
ATOM     12 1HH2 ARG H  74      -3.376  -2.045  -2.291  1.00 20.02 LIG 0.17  HD
ATOM     13 2HH2 ARG H  74      -3.032  -1.364  -1.012  1.00 20.02 LIG 0.17  HD
ENDBRANCH 4 5
ENDBRANCH 3 4
ENDBRANCH 2 3
ENDBRANCH 1 2
BRANCH 1 14
ATOM     14  C   ARG H  74      -6.000   3.880  -6.446  1.00 20.00 LIG 0.24  C 
ATOM     15  N   GLY H  75      -6.281   4.377  -5.248  1.00 19.10 LIG-0.35  N 
ATOM     16 H    GLY H  75      -6.017   4.035  -4.505  1.00 19.10 LIG 0.16  HD
ATOM     17 O    ARG H  74      -6.437   4.381  -7.473  1.00 20.55 LIG-0.27  OA
BRANCH 15 18
ATOM     18  CA  GLY H  75      -7.096   5.596  -5.114  1.00 17.93 LIG 0.23  C 
BRANCH 18 19
ATOM     19  C   GLY H  75      -8.522   5.299  -4.671  1.00 17.33 LIG 0.23  C 
ATOM     20  N   GLY H  76      -8.667   4.371  -3.725  1.00 16.80 LIG-0.35  N 
ATOM     21 H    GLY H  76      -8.022   3.907  -3.396  1.00 16.80 LIG 0.16  HD
ATOM     22 O    GLY H  75      -9.485   5.893  -5.180  1.00 16.80 LIG-0.27  OA
BRANCH 20 23
ATOM     23  CA  GLY H  76      -9.977   4.077  -3.172  1.00 16.50 LIG 0.23  C 
BRANCH 23 24
ATOM     24  C   GLY H  76     -10.628   5.215  -2.410  1.00 16.76 LIG 0.19  C 
ATOM     25 O    GLY H  76     -11.558   5.827  -2.927  1.00 16.89 LIG-0.65  OA
ATOM     26 OXT  GLY H  76     -10.235   5.532  -1.281  1.00 15.95 LIG-0.65  OA
ENDBRANCH 23 24
ENDBRANCH 20 23
ENDBRANCH 18 19
ENDBRANCH 15 18
ENDBRANCH 1 14
BRANCH 1 27
ATOM     27  N   ARG H  74      -3.814   2.964  -5.979  1.00 22.12 LIG-0.35  N 
ATOM     28 H    ARG H  74      -3.776   3.726  -5.584  1.00 22.12 LIG 0.16  HD
ATOM     29  C   LEU H  73      -2.780   2.136  -6.113  1.00 24.75 LIG 0.26  C 
ATOM     30 O    LEU H  73      -2.935   0.938  -6.342  1.00 25.51 LIG-0.27  OA
BRANCH 29 31
ATOM     31  CA  LEU H  73      -1.360   2.724  -5.959  1.00 25.64 LIG 0.40  C 
ATOM     32  N   LEU H  73      -1.040   3.310  -4.625  1.00 27.50 LIG 0.61  N 
BRANCH 31 33
ATOM     33  CB  LEU H  73      -0.280   1.709  -6.378  1.00 26.32 LIG 0.06  C 
BRANCH 33 34
ATOM     34  CG  LEU H  73       0.006   1.222  -7.804  1.00 25.96 LIG-0.02  C 
ATOM     35  CD2 LEU H  73       1.379   1.750  -8.199  1.00 27.32 LIG 0.01  C 
ATOM     36  CD1 LEU H  73      -1.015   1.703  -8.778  1.00 27.59 LIG 0.01  C 
ENDBRANCH 33 34
ENDBRANCH 31 33
ENDBRANCH 29 31
ENDBRANCH 1 27
TORSDOF 13
ENDMDL
MODEL 35
USER: ADFR SOLUTION from run 149
USER: SCORE 11.666561 LL:  -1.638 LR: -11.279 RR:   0.000 FEB:  -7.401
USER: RMSD 7.307603
USER: SEED 148
USER: STATUS no improvement in best in 6 clusters for 5 generations
USER: GENES 15
USER: genes 0 Translation |==|  0.56409 0.44718 0.19550
USER: genes 1 Rotation |==|  0.98489 0.55335 0.60530 0.53072
USER: genes 2 Torsion [C]-CA--CB-[CG] |==|  0.51051
USER: genes 3 Torsion [CA]-CB--CG-[CD] |==|  0.38391
USER: genes 4 Torsion [CB]-CG--CD-[NE] |==|  0.13106
USER: genes 5 Torsion [CG]-CD--NE-[HE] |==|  0.24332
USER: genes 6 Torsion [N]-CA--C-[N] |==|  0.77222
USER: genes 7 Torsion [C]-N--CA-[C] |==|  0.70214
USER: genes 8 Torsion [N]-CA--C-[N] |==|  0.46139
USER: genes 9 Torsion [C]-N--CA-[C] |==|  0.34929
USER: genes 10 Torsion [N]-CA--C-[O] |==|  0.74174
USER: genes 11 Torsion [CB]-CA--N-[C] |==|  0.88746
USER: genes 12 Torsion [N]-C--CA-[N] |==|  0.93343
USER: genes 13 Torsion [C]-CA--CB-[CG] |==|  0.24386
USER: genes 14 Torsion [CA]-CB--CG-[CD2] |==|  0.80057
ROOT
ATOM      1  CA  ARG H  74      -6.075   4.325  -5.761  1.00 20.60 LIG 0.18  C 
ENDROOT
BRANCH 1 2
ATOM      2  CB  ARG H  74      -6.104   2.790  -5.822  1.00 19.81 LIG 0.04  C 
BRANCH 2 3
ATOM      3  CG  ARG H  74      -4.979   2.133  -6.665  1.00 18.47 LIG 0.02  C 
BRANCH 3 4
ATOM      4  CD  ARG H  74      -4.406   0.899  -5.980  1.00 18.94 LIG 0.14  C 
BRANCH 4 5
ATOM      5  NE  ARG H  74      -5.455   0.002  -5.484  1.00 19.12 LIG-0.23  N 
ATOM      6 HE   ARG H  74      -5.764  -0.592  -6.023  1.00 19.12 LIG 0.18  HD
ATOM      7  CZ  ARG H  74      -5.961   0.049  -4.253  1.00 19.95 LIG 0.67  C 
ATOM      8  NH1 ARG H  74      -5.491   0.926  -3.369  1.00 19.07 LIG-0.23  N 
ATOM      9  NH2 ARG H  74      -6.930  -0.798  -3.902  1.00 20.02 LIG-0.23  N 
ATOM     10 2HH1 ARG H  74      -5.819   0.954  -2.575  1.00 19.07 LIG 0.17  HD
ATOM     11 1HH1 ARG H  74      -4.860   1.465  -3.593  1.00 19.07 LIG 0.17  HD
ATOM     12 1HH2 ARG H  74      -7.226  -1.372  -4.470  1.00 20.02 LIG 0.17  HD
ATOM     13 2HH2 ARG H  74      -7.258  -0.770  -3.107  1.00 20.02 LIG 0.17  HD
ENDBRANCH 4 5
ENDBRANCH 3 4
ENDBRANCH 2 3
ENDBRANCH 1 2
BRANCH 1 14
ATOM     14  C   ARG H  74      -7.177   4.837  -4.826  1.00 20.00 LIG 0.24  C 
ATOM     15  N   GLY H  75      -7.419   4.154  -3.714  1.00 19.10 LIG-0.35  N 
ATOM     16 H    GLY H  75      -7.004   3.437  -3.482  1.00 19.10 LIG 0.16  HD
ATOM     17 O    ARG H  74      -7.826   5.828  -5.130  1.00 20.55 LIG-0.27  OA
BRANCH 15 18
ATOM     18  CA  GLY H  75      -8.456   4.601  -2.770  1.00 17.93 LIG 0.23  C 
BRANCH 18 19
ATOM     19  C   GLY H  75      -7.870   5.194  -1.496  1.00 17.33 LIG 0.23  C 
ATOM     20  N   GLY H  76      -8.711   5.879  -0.720  1.00 16.80 LIG-0.35  N 
ATOM     21 H    GLY H  76      -9.532   6.043  -0.918  1.00 16.80 LIG 0.16  HD
ATOM     22 O    GLY H  75      -6.670   5.045  -1.215  1.00 16.80 LIG-0.27  OA
BRANCH 20 23
ATOM     23  CA  GLY H  76      -8.272   6.410   0.558  1.00 16.50 LIG 0.23  C 
BRANCH 23 24
ATOM     24  C   GLY H  76      -8.497   7.897   0.753  1.00 16.76 LIG 0.19  C 
ATOM     25 O    GLY H  76      -7.599   8.682   0.466  1.00 16.89 LIG-0.65  OA
ATOM     26 OXT  GLY H  76      -9.570   8.325   1.196  1.00 15.95 LIG-0.65  OA
ENDBRANCH 23 24
ENDBRANCH 20 23
ENDBRANCH 18 19
ENDBRANCH 15 18
ENDBRANCH 1 14
BRANCH 1 27
ATOM     27  N   ARG H  74      -4.794   4.806  -5.225  1.00 22.12 LIG-0.35  N 
ATOM     28 H    ARG H  74      -4.476   5.499  -5.621  1.00 22.12 LIG 0.16  HD
ATOM     29  C   LEU H  73      -4.203   4.188  -4.204  1.00 24.75 LIG 0.26  C 
ATOM     30 O    LEU H  73      -4.830   3.455  -3.441  1.00 25.51 LIG-0.27  OA
BRANCH 29 31
ATOM     31  CA  LEU H  73      -2.692   4.428  -3.991  1.00 25.64 LIG 0.40  C 
ATOM     32  N   LEU H  73      -1.925   4.848  -5.200  1.00 27.50 LIG 0.61  N 
BRANCH 31 33
ATOM     33  CB  LEU H  73      -2.433   5.394  -2.821  1.00 26.32 LIG 0.06  C 
BRANCH 33 34
ATOM     34  CG  LEU H  73      -2.285   5.014  -1.343  1.00 25.96 LIG-0.02  C 
ATOM     35  CD2 LEU H  73      -3.665   4.616  -0.834  1.00 27.32 LIG 0.01  C 
ATOM     36  CD1 LEU H  73      -1.754   6.140  -0.523  1.00 27.59 LIG 0.01  C 
ENDBRANCH 33 34
ENDBRANCH 31 33
ENDBRANCH 29 31
ENDBRANCH 1 27
TORSDOF 13
ENDMDL
MODEL 36
USER: ADFR SOLUTION from run 27
USER: SCORE 11.226228 LL:  -1.689 LR: -11.267 RR:   0.000 FEB:  -7.389
USER: RMSD 7.879721
USER: SEED 26
USER: STATUS no improvement in best in 9 clusters for 5 generations
USER: GENES 15
USER: genes 0 Translation |==|  0.59091 0.41845 0.32957
USER: genes 1 Rotation |==|  0.30425 0.68524 0.20557 0.80112
USER: genes 2 Torsion [C]-CA--CB-[CG] |==|  0.48107
USER: genes 3 Torsion [CA]-CB--CG-[CD] |==|  0.69962
USER: genes 4 Torsion [CB]-CG--CD-[NE] |==|  0.71489
USER: genes 5 Torsion [CG]-CD--NE-[HE] |==|  0.05832
USER: genes 6 Torsion [N]-CA--C-[N] |==|  0.06444
USER: genes 7 Torsion [C]-N--CA-[C] |==|  0.76415
USER: genes 8 Torsion [N]-CA--C-[N] |==|  0.96327
USER: genes 9 Torsion [C]-N--CA-[C] |==|  0.75968
USER: genes 10 Torsion [N]-CA--C-[O] |==|  0.88711
USER: genes 11 Torsion [CB]-CA--N-[C] |==|  0.90160
USER: genes 12 Torsion [N]-C--CA-[N] |==|  0.29692
USER: genes 13 Torsion [C]-CA--CB-[CG] |==|  0.05375
USER: genes 14 Torsion [CA]-CB--CG-[CD2] |==|  0.75087
ROOT
ATOM      1  CA  ARG H  74      -5.593   3.916  -3.046  1.00 20.60 LIG 0.18  C 
ENDROOT
BRANCH 1 2
ATOM      2  CB  ARG H  74      -4.845   4.328  -4.325  1.00 19.81 LIG 0.04  C 
BRANCH 2 3
ATOM      3  CG  ARG H  74      -3.313   4.088  -4.309  1.00 18.47 LIG 0.02  C 
BRANCH 3 4
ATOM      4  CD  ARG H  74      -2.537   5.395  -4.205  1.00 18.94 LIG 0.14  C 
BRANCH 4 5
ATOM      5  NE  ARG H  74      -1.972   5.809  -5.493  1.00 19.12 LIG-0.23  N 
ATOM      6 HE   ARG H  74      -2.323   5.486  -6.209  1.00 19.12 LIG 0.18  HD
ATOM      7  CZ  ARG H  74      -0.950   6.653  -5.626  1.00 19.95 LIG 0.67  C 
ATOM      8  NH1 ARG H  74      -0.396   7.208  -4.551  1.00 19.07 LIG-0.23  N 
ATOM      9  NH2 ARG H  74      -0.492   6.953  -6.843  1.00 20.02 LIG-0.23  N 
ATOM     10 2HH1 ARG H  74       0.263   7.753  -4.640  1.00 19.07 LIG 0.17  HD
ATOM     11 1HH1 ARG H  74      -0.698   7.022  -3.768  1.00 19.07 LIG 0.17  HD
ATOM     12 1HH2 ARG H  74      -0.857   6.602  -7.538  1.00 20.02 LIG 0.17  HD
ATOM     13 2HH2 ARG H  74       0.167   7.498  -6.931  1.00 20.02 LIG 0.17  HD
ENDBRANCH 4 5
ENDBRANCH 3 4
ENDBRANCH 2 3
ENDBRANCH 1 2
BRANCH 1 14
ATOM     14  C   ARG H  74      -7.058   4.358  -3.126  1.00 20.00 LIG 0.24  C 
ATOM     15  N   GLY H  75      -7.979   3.565  -2.592  1.00 19.10 LIG-0.35  N 
ATOM     16 H    GLY H  75      -7.812   2.814  -2.209  1.00 19.10 LIG 0.16  HD
ATOM     17 O    ARG H  74      -7.353   5.398  -3.698  1.00 20.55 LIG-0.27  OA
BRANCH 15 18
ATOM     18  CA  GLY H  75      -9.402   3.941  -2.626  1.00 17.93 LIG 0.23  C 
BRANCH 18 19
ATOM     19  C   GLY H  75      -9.793   4.854  -1.472  1.00 17.33 LIG 0.23  C 
ATOM     20  N   GLY H  76      -8.913   4.959  -0.476  1.00 16.80 LIG-0.35  N 
ATOM     21 H    GLY H  76      -8.179   4.513  -0.426  1.00 16.80 LIG 0.16  HD
ATOM     22 O    GLY H  75     -10.880   5.453  -1.472  1.00 16.80 LIG-0.27  OA
BRANCH 20 23
ATOM     23  CA  GLY H  76      -9.153   5.870   0.629  1.00 16.50 LIG 0.23  C 
BRANCH 23 24
ATOM     24  C   GLY H  76      -8.681   7.294   0.407  1.00 16.76 LIG 0.19  C 
ATOM     25 O    GLY H  76      -7.605   7.489  -0.150  1.00 16.89 LIG-0.65  OA
ATOM     26 OXT  GLY H  76      -9.364   8.255   0.780  1.00 15.95 LIG-0.65  OA
ENDBRANCH 23 24
ENDBRANCH 20 23
ENDBRANCH 18 19
ENDBRANCH 15 18
ENDBRANCH 1 14
BRANCH 1 27
ATOM     27  N   ARG H  74      -5.589   2.455  -2.884  1.00 22.12 LIG-0.35  N 
ATOM     28 H    ARG H  74      -5.534   2.184  -2.070  1.00 22.12 LIG 0.16  HD
ATOM     29  C   LEU H  73      -5.667   1.648  -3.939  1.00 24.75 LIG 0.26  C 
ATOM     30 O    LEU H  73      -6.104   2.037  -5.021  1.00 25.51 LIG-0.27  OA
BRANCH 29 31
ATOM     31  CA  LEU H  73      -5.199   0.186  -3.767  1.00 25.64 LIG 0.40  C 
ATOM     32  N   LEU H  73      -6.281  -0.841  -3.720  1.00 27.50 LIG 0.61  N 
BRANCH 31 33
ATOM     33  CB  LEU H  73      -4.136  -0.194  -4.813  1.00 26.32 LIG 0.06  C 
BRANCH 33 34
ATOM     34  CG  LEU H  73      -3.274   0.777  -5.629  1.00 25.96 LIG-0.02  C 
ATOM     35  CD2 LEU H  73      -4.036   1.097  -6.908  1.00 27.32 LIG 0.01  C 
ATOM     36  CD1 LEU H  73      -1.943   0.197  -5.970  1.00 27.59 LIG 0.01  C 
ENDBRANCH 33 34
ENDBRANCH 31 33
ENDBRANCH 29 31
ENDBRANCH 1 27
TORSDOF 13
ENDMDL
MODEL 37
USER: ADFR SOLUTION from run 65
USER: SCORE 11.395392 LL:  -2.678 LR: -11.235 RR:   0.000 FEB:  -7.357
USER: RMSD 5.348184
USER: SEED 64
USER: STATUS no improvement in best in 13 clusters for 5 generations
USER: GENES 15
USER: genes 0 Translation |==|  0.55497 0.47369 0.40723
USER: genes 1 Rotation |==|  0.09010 0.41902 0.23680 0.57840
USER: genes 2 Torsion [C]-CA--CB-[CG] |==|  0.34552
USER: genes 3 Torsion [CA]-CB--CG-[CD] |==|  0.72546
USER: genes 4 Torsion [CB]-CG--CD-[NE] |==|  0.36872
USER: genes 5 Torsion [CG]-CD--NE-[HE] |==|  0.21673
USER: genes 6 Torsion [N]-CA--C-[N] |==|  0.62850
USER: genes 7 Torsion [C]-N--CA-[C] |==|  0.19444
USER: genes 8 Torsion [N]-CA--C-[N] |==|  0.24968
USER: genes 9 Torsion [C]-N--CA-[C] |==|  0.19230
USER: genes 10 Torsion [N]-CA--C-[O] |==|  0.59247
USER: genes 11 Torsion [CB]-CA--N-[C] |==|  0.88897
USER: genes 12 Torsion [N]-C--CA-[N] |==|  0.47723
USER: genes 13 Torsion [C]-CA--CB-[CG] |==|  0.15524
USER: genes 14 Torsion [CA]-CB--CG-[CD2] |==|  0.70671
ROOT
ATOM      1  CA  ARG H  74      -6.239   4.703  -1.474  1.00 20.60 LIG 0.18  C 
ENDROOT
BRANCH 1 2
ATOM      2  CB  ARG H  74      -5.637   3.405  -2.035  1.00 19.81 LIG 0.04  C 
BRANCH 2 3
ATOM      3  CG  ARG H  74      -4.785   3.566  -3.321  1.00 18.47 LIG 0.02  C 
BRANCH 3 4
ATOM      4  CD  ARG H  74      -5.579   3.219  -4.573  1.00 18.94 LIG 0.14  C 
BRANCH 4 5
ATOM      5  NE  ARG H  74      -5.426   4.229  -5.626  1.00 19.12 LIG-0.23  N 
ATOM      6 HE   ARG H  74      -4.703   4.219  -6.090  1.00 19.12 LIG 0.18  HD
ATOM      7  CZ  ARG H  74      -6.335   5.160  -5.909  1.00 19.95 LIG 0.67  C 
ATOM      8  NH1 ARG H  74      -7.487   5.194  -5.244  1.00 19.07 LIG-0.23  N 
ATOM      9  NH2 ARG H  74      -6.095   6.050  -6.873  1.00 20.02 LIG-0.23  N 
ATOM     10 2HH1 ARG H  74      -8.073   5.796  -5.428  1.00 19.07 LIG 0.17  HD
ATOM     11 1HH1 ARG H  74      -7.646   4.614  -4.629  1.00 19.07 LIG 0.17  HD
ATOM     12 1HH2 ARG H  74      -5.354   6.021  -7.310  1.00 20.02 LIG 0.17  HD
ATOM     13 2HH2 ARG H  74      -6.681   6.652  -7.058  1.00 20.02 LIG 0.17  HD
ENDBRANCH 4 5
ENDBRANCH 3 4
ENDBRANCH 2 3
ENDBRANCH 1 2
BRANCH 1 14
ATOM     14  C   ARG H  74      -7.760   4.565  -1.340  1.00 20.00 LIG 0.24  C 
ATOM     15  N   GLY H  75      -8.348   3.536  -1.939  1.00 19.10 LIG-0.35  N 
ATOM     16 H    GLY H  75      -7.936   2.942  -2.404  1.00 19.10 LIG 0.16  HD
ATOM     17 O    ARG H  74      -8.399   5.406  -0.724  1.00 20.55 LIG-0.27  OA
BRANCH 15 18
ATOM     18  CA  GLY H  75      -9.804   3.342  -1.837  1.00 17.93 LIG 0.23  C 
BRANCH 18 19
ATOM     19  C   GLY H  75     -10.589   4.391  -2.612  1.00 17.33 LIG 0.23  C 
ATOM     20  N   GLY H  76     -10.866   4.103  -3.884  1.00 16.80 LIG-0.35  N 
ATOM     21 H    GLY H  76     -10.591   3.399  -4.295  1.00 16.80 LIG 0.16  HD
ATOM     22 O    GLY H  75     -10.935   5.455  -2.075  1.00 16.80 LIG-0.27  OA
BRANCH 20 23
ATOM     23  CA  GLY H  76     -11.683   4.999  -4.683  1.00 16.50 LIG 0.23  C 
BRANCH 23 24
ATOM     24  C   GLY H  76     -11.038   6.326  -5.032  1.00 16.76 LIG 0.19  C 
ATOM     25 O    GLY H  76     -11.740   7.328  -5.126  1.00 16.89 LIG-0.65  OA
ATOM     26 OXT  GLY H  76      -9.818   6.410  -5.220  1.00 15.95 LIG-0.65  OA
ENDBRANCH 23 24
ENDBRANCH 20 23
ENDBRANCH 18 19
ENDBRANCH 15 18
ENDBRANCH 1 14
BRANCH 1 27
ATOM     27  N   ARG H  74      -5.711   4.990  -0.133  1.00 22.12 LIG-0.35  N 
ATOM     28 H    ARG H  74      -5.540   5.819   0.017  1.00 22.12 LIG 0.16  HD
ATOM     29  C   LEU H  73      -5.526   4.014   0.754  1.00 24.75 LIG 0.26  C 
ATOM     30 O    LEU H  73      -6.104   2.933   0.657  1.00 25.51 LIG-0.27  OA
BRANCH 29 31
ATOM     31  CA  LEU H  73      -4.563   4.281   1.932  1.00 25.64 LIG 0.40  C 
ATOM     32  N   LEU H  73      -4.535   3.236   2.997  1.00 27.50 LIG 0.61  N 
BRANCH 31 33
ATOM     33  CB  LEU H  73      -3.139   4.592   1.439  1.00 26.32 LIG 0.06  C 
BRANCH 33 34
ATOM     34  CG  LEU H  73      -2.738   5.696   0.454  1.00 25.96 LIG-0.02  C 
ATOM     35  CD2 LEU H  73      -2.421   5.027  -0.878  1.00 27.32 LIG 0.01  C 
ATOM     36  CD1 LEU H  73      -1.548   6.464   0.924  1.00 27.59 LIG 0.01  C 
ENDBRANCH 33 34
ENDBRANCH 31 33
ENDBRANCH 29 31
ENDBRANCH 1 27
TORSDOF 13
ENDMDL
MODEL 38
USER: ADFR SOLUTION from run 166
USER: SCORE 12.572910 LL:  -1.735 LR: -11.240 RR:   0.000 FEB:  -7.362
USER: RMSD 6.110909
USER: SEED 165
USER: STATUS no improvement in best in 3 clusters for 5 generations
USER: GENES 15
USER: genes 0 Translation |==|  0.57416 0.39105 0.37475
USER: genes 1 Rotation |==|  0.64650 0.82667 0.34056 0.81048
USER: genes 2 Torsion [C]-CA--CB-[CG] |==|  0.31660
USER: genes 3 Torsion [CA]-CB--CG-[CD] |==|  0.51361
USER: genes 4 Torsion [CB]-CG--CD-[NE] |==|  0.16211
USER: genes 5 Torsion [CG]-CD--NE-[HE] |==|  0.88643
USER: genes 6 Torsion [N]-CA--C-[N] |==|  0.19946
USER: genes 7 Torsion [C]-N--CA-[C] |==|  0.27669
USER: genes 8 Torsion [N]-CA--C-[N] |==|  0.02752
USER: genes 9 Torsion [C]-N--CA-[C] |==|  0.26480
USER: genes 10 Torsion [N]-CA--C-[O] |==|  0.11614
USER: genes 11 Torsion [CB]-CA--N-[C] |==|  0.78883
USER: genes 12 Torsion [N]-C--CA-[N] |==|  0.62926
USER: genes 13 Torsion [C]-CA--CB-[CG] |==|  0.26245
USER: genes 14 Torsion [CA]-CB--CG-[CD2] |==|  0.59805
ROOT
ATOM      1  CA  ARG H  74      -5.894   3.525  -2.131  1.00 20.60 LIG 0.18  C 
ENDROOT
BRANCH 1 2
ATOM      2  CB  ARG H  74      -4.625   4.329  -1.807  1.00 19.81 LIG 0.04  C 
BRANCH 2 3
ATOM      3  CG  ARG H  74      -3.635   3.648  -0.826  1.00 18.47 LIG 0.02  C 
BRANCH 3 4
ATOM      4  CD  ARG H  74      -2.471   4.564  -0.471  1.00 18.94 LIG 0.14  C 
BRANCH 4 5
ATOM      5  NE  ARG H  74      -2.919   5.822   0.135  1.00 19.12 LIG-0.23  N 
ATOM      6 HE   ARG H  74      -3.614   6.203  -0.198  1.00 19.12 LIG 0.18  HD
ATOM      7  CZ  ARG H  74      -2.318   6.412   1.167  1.00 19.95 LIG 0.67  C 
ATOM      8  NH1 ARG H  74      -1.261   5.843   1.741  1.00 19.07 LIG-0.23  N 
ATOM      9  NH2 ARG H  74      -2.789   7.569   1.635  1.00 20.02 LIG-0.23  N 
ATOM     10 2HH1 ARG H  74      -0.875   6.226   2.407  1.00 19.07 LIG 0.17  HD
ATOM     11 1HH1 ARG H  74      -0.963   5.093   1.445  1.00 19.07 LIG 0.17  HD
ATOM     12 1HH2 ARG H  74      -3.479   7.931   1.271  1.00 20.02 LIG 0.17  HD
ATOM     13 2HH2 ARG H  74      -2.404   7.952   2.301  1.00 20.02 LIG 0.17  HD
ENDBRANCH 4 5
ENDBRANCH 3 4
ENDBRANCH 2 3
ENDBRANCH 1 2
BRANCH 1 14
ATOM     14  C   ARG H  74      -7.130   4.245  -1.579  1.00 20.00 LIG 0.24  C 
ATOM     15  N   GLY H  75      -8.277   3.577  -1.543  1.00 19.10 LIG-0.35  N 
ATOM     16 H    GLY H  75      -8.378   2.767  -1.815  1.00 19.10 LIG 0.16  HD
ATOM     17 O    ARG H  74      -7.049   5.411  -1.219  1.00 20.55 LIG-0.27  OA
BRANCH 15 18
ATOM     18  CA  GLY H  75      -9.496   4.209  -1.012  1.00 17.93 LIG 0.23  C 
BRANCH 18 19
ATOM     19  C   GLY H  75     -10.411   4.728  -2.113  1.00 17.33 LIG 0.23  C 
ATOM     20  N   GLY H  76     -10.102   4.367  -3.359  1.00 16.80 LIG-0.35  N 
ATOM     21 H    GLY H  76      -9.405   3.912  -3.575  1.00 16.80 LIG 0.16  HD
ATOM     22 O    GLY H  75     -11.382   5.453  -1.846  1.00 16.80 LIG-0.27  OA
BRANCH 20 23
ATOM     23  CA  GLY H  76     -10.960   4.738  -4.470  1.00 16.50 LIG 0.23  C 
BRANCH 23 24
ATOM     24  C   GLY H  76     -10.558   6.001  -5.206  1.00 16.76 LIG 0.19  C 
ATOM     25 O    GLY H  76      -9.371   6.203  -5.446  1.00 16.89 LIG-0.65  OA
ATOM     26 OXT  GLY H  76     -11.407   6.827  -5.564  1.00 15.95 LIG-0.65  OA
ENDBRANCH 23 24
ENDBRANCH 20 23
ENDBRANCH 18 19
ENDBRANCH 15 18
ENDBRANCH 1 14
BRANCH 1 27
ATOM     27  N   ARG H  74      -6.079   3.399  -3.583  1.00 22.12 LIG-0.35  N 
ATOM     28 H    ARG H  74      -5.877   2.628  -3.906  1.00 22.12 LIG 0.16  HD
ATOM     29  C   LEU H  73      -6.526   4.422  -4.309  1.00 24.75 LIG 0.26  C 
ATOM     30 O    LEU H  73      -7.139   5.359  -3.799  1.00 25.51 LIG-0.27  OA
BRANCH 29 31
ATOM     31  CA  LEU H  73      -6.263   4.398  -5.831  1.00 25.64 LIG 0.40  C 
ATOM     32  N   LEU H  73      -5.743   5.666  -6.420  1.00 27.50 LIG 0.61  N 
BRANCH 31 33
ATOM     33  CB  LEU H  73      -5.373   3.208  -6.232  1.00 26.32 LIG 0.06  C 
BRANCH 33 34
ATOM     34  CG  LEU H  73      -5.852   1.838  -6.723  1.00 25.96 LIG-0.02  C 
ATOM     35  CD2 LEU H  73      -4.884   0.794  -6.181  1.00 27.32 LIG 0.01  C 
ATOM     36  CD1 LEU H  73      -5.894   1.756  -8.212  1.00 27.59 LIG 0.01  C 
ENDBRANCH 33 34
ENDBRANCH 31 33
ENDBRANCH 29 31
ENDBRANCH 1 27
TORSDOF 13
ENDMDL
MODEL 39
USER: ADFR SOLUTION from run 75
USER: SCORE 10.880071 LL:  -1.176 LR: -11.238 RR:   0.000 FEB:  -7.360
USER: RMSD 7.684849
USER: SEED 74
USER: STATUS no improvement in best in 7 clusters for 5 generations
USER: GENES 15
USER: genes 0 Translation |==|  0.44561 0.49568 0.48238
USER: genes 1 Rotation |==|  0.28258 0.89035 0.69147 0.61704
USER: genes 2 Torsion [C]-CA--CB-[CG] |==|  0.21138
USER: genes 3 Torsion [CA]-CB--CG-[CD] |==|  0.65773
USER: genes 4 Torsion [CB]-CG--CD-[NE] |==|  0.75125
USER: genes 5 Torsion [CG]-CD--NE-[HE] |==|  0.90367
USER: genes 6 Torsion [N]-CA--C-[N] |==|  0.67172
USER: genes 7 Torsion [C]-N--CA-[C] |==|  0.55298
USER: genes 8 Torsion [N]-CA--C-[N] |==|  0.31827
USER: genes 9 Torsion [C]-N--CA-[C] |==|  0.53846
USER: genes 10 Torsion [N]-CA--C-[O] |==|  0.35739
USER: genes 11 Torsion [CB]-CA--N-[C] |==|  0.12414
USER: genes 12 Torsion [N]-C--CA-[N] |==|  0.31417
USER: genes 13 Torsion [C]-CA--CB-[CG] |==|  0.73827
USER: genes 14 Torsion [CA]-CB--CG-[CD2] |==|  0.08586
ROOT
ATOM      1  CA  ARG H  74      -8.208   5.016   0.048  1.00 20.60 LIG 0.18  C 
ENDROOT
BRANCH 1 2
ATOM      2  CB  ARG H  74      -9.260   5.830   0.820  1.00 19.81 LIG 0.04  C 
BRANCH 2 3
ATOM      3  CG  ARG H  74      -8.697   6.934   1.754  1.00 18.47 LIG 0.02  C 
BRANCH 3 4
ATOM      4  CD  ARG H  74      -9.162   6.748   3.192  1.00 18.94 LIG 0.14  C 
BRANCH 4 5
ATOM      5  NE  ARG H  74     -10.426   7.442   3.460  1.00 19.12 LIG-0.23  N 
ATOM      6 HE   ARG H  74     -10.568   8.189   3.059  1.00 19.12 LIG 0.18  HD
ATOM      7  CZ  ARG H  74     -11.369   6.989   4.284  1.00 19.95 LIG 0.67  C 
ATOM      8  NH1 ARG H  74     -11.214   5.820   4.901  1.00 19.07 LIG-0.23  N 
ATOM      9  NH2 ARG H  74     -12.478   7.703   4.479  1.00 20.02 LIG-0.23  N 
ATOM     10 2HH1 ARG H  74     -11.824   5.530   5.433  1.00 19.07 LIG 0.17  HD
ATOM     11 1HH1 ARG H  74     -10.503   5.355   4.768  1.00 19.07 LIG 0.17  HD
ATOM     12 1HH2 ARG H  74     -12.583   8.455   4.073  1.00 20.02 LIG 0.17  HD
ATOM     13 2HH2 ARG H  74     -13.089   7.413   5.011  1.00 20.02 LIG 0.17  HD
ENDBRANCH 4 5
ENDBRANCH 3 4
ENDBRANCH 2 3
ENDBRANCH 1 2
BRANCH 1 14
ATOM     14  C   ARG H  74      -7.536   4.004   0.981  1.00 20.00 LIG 0.24  C 
ATOM     15  N   GLY H  75      -7.963   3.931   2.236  1.00 19.10 LIG-0.35  N 
ATOM     16 H    GLY H  75      -8.589   4.419   2.566  1.00 19.10 LIG 0.16  HD
ATOM     17 O    ARG H  74      -6.612   3.315   0.572  1.00 20.55 LIG-0.27  OA
BRANCH 15 18
ATOM     18  CA  GLY H  75      -7.365   2.970   3.177  1.00 17.93 LIG 0.23  C 
BRANCH 18 19
ATOM     19  C   GLY H  75      -8.254   2.703   4.383  1.00 17.33 LIG 0.23  C 
ATOM     20  N   GLY H  76      -8.738   1.465   4.500  1.00 16.80 LIG-0.35  N 
ATOM     21 H    GLY H  76      -8.620   0.840   3.921  1.00 16.80 LIG 0.16  HD
ATOM     22 O    GLY H  75      -8.512   3.602   5.199  1.00 16.80 LIG-0.27  OA
BRANCH 20 23
ATOM     23  CA  GLY H  76      -9.525   1.086   5.660  1.00 16.50 LIG 0.23  C 
BRANCH 23 24
ATOM     24  C   GLY H  76      -9.736  -0.406   5.839  1.00 16.76 LIG 0.19  C 
ATOM     25 O    GLY H  76      -9.479  -0.922   6.922  1.00 16.89 LIG-0.65  OA
ATOM     26 OXT  GLY H  76     -10.162  -1.103   4.910  1.00 15.95 LIG-0.65  OA
ENDBRANCH 23 24
ENDBRANCH 20 23
ENDBRANCH 18 19
ENDBRANCH 15 18
ENDBRANCH 1 14
BRANCH 1 27
ATOM     27  N   ARG H  74      -8.831   4.254  -1.043  1.00 22.12 LIG-0.35  N 
ATOM     28 H    ARG H  74      -8.565   3.439  -1.109  1.00 22.12 LIG 0.16  HD
ATOM     29  C   LEU H  73      -9.734   4.816  -1.844  1.00 24.75 LIG 0.26  C 
ATOM     30 O    LEU H  73     -10.352   5.827  -1.513  1.00 25.51 LIG-0.27  OA
BRANCH 29 31
ATOM     31  CA  LEU H  73      -9.999   4.152  -3.213  1.00 25.64 LIG 0.40  C 
ATOM     32  N   LEU H  73     -11.352   3.548  -3.391  1.00 27.50 LIG 0.61  N 
BRANCH 31 33
ATOM     33  CB  LEU H  73      -9.673   5.106  -4.376  1.00 26.32 LIG 0.06  C 
BRANCH 33 34
ATOM     34  CG  LEU H  73     -10.662   6.025  -5.103  1.00 25.96 LIG-0.02  C 
ATOM     35  CD2 LEU H  73     -11.729   6.435  -4.095  1.00 27.32 LIG 0.01  C 
ATOM     36  CD1 LEU H  73     -11.305   5.351  -6.267  1.00 27.59 LIG 0.01  C 
ENDBRANCH 33 34
ENDBRANCH 31 33
ENDBRANCH 29 31
ENDBRANCH 1 27
TORSDOF 13
ENDMDL
MODEL 40
USER: ADFR SOLUTION from run 82
USER: SCORE 11.363174 LL:  -1.856 LR: -11.216 RR:   0.000 FEB:  -7.338
USER: RMSD 7.578760
USER: SEED 81
USER: STATUS no improvement in best in 3 clusters for 5 generations
USER: GENES 15
USER: genes 0 Translation |==|  0.56252 0.35686 0.26440
USER: genes 1 Rotation |==|  0.95399 0.65448 0.47023 0.63837
USER: genes 2 Torsion [C]-CA--CB-[CG] |==|  0.39762
USER: genes 3 Torsion [CA]-CB--CG-[CD] |==|  0.17245
USER: genes 4 Torsion [CB]-CG--CD-[NE] |==|  0.67951
USER: genes 5 Torsion [CG]-CD--NE-[HE] |==|  0.80109
USER: genes 6 Torsion [N]-CA--C-[N] |==|  0.53890
USER: genes 7 Torsion [C]-N--CA-[C] |==|  0.22018
USER: genes 8 Torsion [N]-CA--C-[N] |==|  0.02224
USER: genes 9 Torsion [C]-N--CA-[C] |==|  0.27762
USER: genes 10 Torsion [N]-CA--C-[O] |==|  0.61260
USER: genes 11 Torsion [CB]-CA--N-[C] |==|  0.88086
USER: genes 12 Torsion [N]-C--CA-[N] |==|  0.28795
USER: genes 13 Torsion [C]-CA--CB-[CG] |==|  0.19705
USER: genes 14 Torsion [CA]-CB--CG-[CD2] |==|  0.09446
ROOT
ATOM      1  CA  ARG H  74      -6.104   3.038  -4.366  1.00 20.60 LIG 0.18  C 
ENDROOT
BRANCH 1 2
ATOM      2  CB  ARG H  74      -5.545   1.772  -3.698  1.00 19.81 LIG 0.04  C 
BRANCH 2 3
ATOM      3  CG  ARG H  74      -5.526   0.501  -4.586  1.00 18.47 LIG 0.02  C 
BRANCH 3 4
ATOM      4  CD  ARG H  74      -4.635   0.679  -5.809  1.00 18.94 LIG 0.14  C 
BRANCH 4 5
ATOM      5  NE  ARG H  74      -5.396   0.633  -7.062  1.00 19.12 LIG-0.23  N 
ATOM      6 HE   ARG H  74      -5.709  -0.127  -7.314  1.00 19.12 LIG 0.18  HD
ATOM      7  CZ  ARG H  74      -5.632   1.691  -7.834  1.00 19.95 LIG 0.67  C 
ATOM      8  NH1 ARG H  74      -5.200   2.896  -7.469  1.00 19.07 LIG-0.23  N 
ATOM      9  NH2 ARG H  74      -6.318   1.545  -8.968  1.00 20.02 LIG-0.23  N 
ATOM     10 2HH1 ARG H  74      -5.354   3.578  -7.969  1.00 19.07 LIG 0.17  HD
ATOM     11 1HH1 ARG H  74      -4.766   2.992  -6.733  1.00 19.07 LIG 0.17  HD
ATOM     12 1HH2 ARG H  74      -6.607   0.768  -9.199  1.00 20.02 LIG 0.17  HD
ATOM     13 2HH2 ARG H  74      -6.473   2.227  -9.468  1.00 20.02 LIG 0.17  HD
ENDBRANCH 4 5
ENDBRANCH 3 4
ENDBRANCH 2 3
ENDBRANCH 1 2
BRANCH 1 14
ATOM     14  C   ARG H  74      -6.903   3.862  -3.351  1.00 20.00 LIG 0.24  C 
ATOM     15  N   GLY H  75      -7.758   3.221  -2.562  1.00 19.10 LIG-0.35  N 
ATOM     16 H    GLY H  75      -7.901   2.373  -2.585  1.00 19.10 LIG 0.16  HD
ATOM     17 O    ARG H  74      -6.769   5.076  -3.306  1.00 20.55 LIG-0.27  OA
BRANCH 15 18
ATOM     18  CA  GLY H  75      -8.546   3.955  -1.558  1.00 17.93 LIG 0.23  C 
BRANCH 18 19
ATOM     19  C   GLY H  75      -9.749   4.664  -2.164  1.00 17.33 LIG 0.23  C 
ATOM     20  N   GLY H  76     -10.012   4.395  -3.444  1.00 16.80 LIG-0.35  N 
ATOM     21 H    GLY H  76      -9.525   3.895  -3.946  1.00 16.80 LIG 0.16  HD
ATOM     22 O    GLY H  75     -10.431   5.453  -1.492  1.00 16.80 LIG-0.27  OA
BRANCH 20 23
ATOM     23  CA  GLY H  76     -11.187   4.952  -4.090  1.00 16.50 LIG 0.23  C 
BRANCH 23 24
ATOM     24  C   GLY H  76     -10.933   6.172  -4.955  1.00 16.76 LIG 0.19  C 
ATOM     25 O    GLY H  76     -11.731   7.103  -4.928  1.00 16.89 LIG-0.65  OA
ATOM     26 OXT  GLY H  76      -9.935   6.238  -5.683  1.00 15.95 LIG-0.65  OA
ENDBRANCH 23 24
ENDBRANCH 20 23
ENDBRANCH 18 19
ENDBRANCH 15 18
ENDBRANCH 1 14
BRANCH 1 27
ATOM     27  N   ARG H  74      -5.017   3.895  -4.859  1.00 22.12 LIG-0.35  N 
ATOM     28 H    ARG H  74      -5.148   4.230  -5.640  1.00 22.12 LIG 0.16  HD
ATOM     29  C   LEU H  73      -3.928   4.113  -4.124  1.00 24.75 LIG 0.26  C 
ATOM     30 O    LEU H  73      -3.923   3.937  -2.906  1.00 25.51 LIG-0.27  OA
BRANCH 29 31
ATOM     31  CA  LEU H  73      -2.656   4.611  -4.845  1.00 25.64 LIG 0.40  C 
ATOM     32  N   LEU H  73      -2.342   6.061  -4.681  1.00 27.50 LIG 0.61  N 
BRANCH 31 33
ATOM     33  CB  LEU H  73      -1.432   3.748  -4.492  1.00 26.32 LIG 0.06  C 
BRANCH 33 34
ATOM     34  CG  LEU H  73      -1.174   2.306  -4.945  1.00 25.96 LIG-0.02  C 
ATOM     35  CD2 LEU H  73      -1.754   2.158  -6.346  1.00 27.32 LIG 0.01  C 
ATOM     36  CD1 LEU H  73      -1.806   1.308  -4.034  1.00 27.59 LIG 0.01  C 
ENDBRANCH 33 34
ENDBRANCH 31 33
ENDBRANCH 29 31
ENDBRANCH 1 27
TORSDOF 13
ENDMDL
MODEL 41
USER: ADFR SOLUTION from run 63
USER: SCORE 11.358784 LL:  -1.626 LR: -11.203 RR:   0.000 FEB:  -7.325
USER: RMSD 7.541251
USER: SEED 62
USER: STATUS no improvement in best in 9 clusters for 5 generations
USER: GENES 15
USER: genes 0 Translation |==|  0.70613 0.38821 0.23532
USER: genes 1 Rotation |==|  0.95907 0.65395 0.60039 0.57404
USER: genes 2 Torsion [C]-CA--CB-[CG] |==|  0.26914
USER: genes 3 Torsion [CA]-CB--CG-[CD] |==|  0.88915
USER: genes 4 Torsion [CB]-CG--CD-[NE] |==|  0.69353
USER: genes 5 Torsion [CG]-CD--NE-[HE] |==|  0.70834
USER: genes 6 Torsion [N]-CA--C-[N] |==|  0.28886
USER: genes 7 Torsion [C]-N--CA-[C] |==|  0.49813
USER: genes 8 Torsion [N]-CA--C-[N] |==|  0.45000
USER: genes 9 Torsion [C]-N--CA-[C] |==|  0.60312
USER: genes 10 Torsion [N]-CA--C-[O] |==|  0.92499
USER: genes 11 Torsion [CB]-CA--N-[C] |==|  0.16932
USER: genes 12 Torsion [N]-C--CA-[N] |==|  0.71037
USER: genes 13 Torsion [C]-CA--CB-[CG] |==|  0.19719
USER: genes 14 Torsion [CA]-CB--CG-[CD2] |==|  0.73004
ROOT
ATOM      1  CA  ARG H  74      -3.519   3.485  -4.955  1.00 20.60 LIG 0.18  C 
ENDROOT
BRANCH 1 2
ATOM      2  CB  ARG H  74      -2.998   2.077  -4.622  1.00 19.81 LIG 0.04  C 
BRANCH 2 3
ATOM      3  CG  ARG H  74      -3.444   0.953  -5.593  1.00 18.47 LIG 0.02  C 
BRANCH 3 4
ATOM      4  CD  ARG H  74      -4.897   1.118  -6.020  1.00 18.94 LIG 0.14  C 
BRANCH 4 5
ATOM      5  NE  ARG H  74      -5.764   0.082  -5.450  1.00 19.12 LIG-0.23  N 
ATOM      6 HE   ARG H  74      -6.033  -0.547  -5.970  1.00 19.12 LIG 0.18  HD
ATOM      7  CZ  ARG H  74      -6.161   0.053  -4.179  1.00 19.95 LIG 0.67  C 
ATOM      8  NH1 ARG H  74      -5.742   0.984  -3.326  1.00 19.07 LIG-0.23  N 
ATOM      9  NH2 ARG H  74      -6.969  -0.922  -3.759  1.00 20.02 LIG-0.23  N 
ATOM     10 2HH1 ARG H  74      -6.000   0.963  -2.506  1.00 19.07 LIG 0.17  HD
ATOM     11 1HH1 ARG H  74      -5.214   1.607  -3.594  1.00 19.07 LIG 0.17  HD
ATOM     12 1HH2 ARG H  74      -7.232  -1.529  -4.309  1.00 20.02 LIG 0.17  HD
ATOM     13 2HH2 ARG H  74      -7.227  -0.943  -2.939  1.00 20.02 LIG 0.17  HD
ENDBRANCH 4 5
ENDBRANCH 3 4
ENDBRANCH 2 3
ENDBRANCH 1 2
BRANCH 1 14
ATOM     14  C   ARG H  74      -4.770   3.794  -4.126  1.00 20.00 LIG 0.24  C 
ATOM     15  N   GLY H  75      -5.805   4.354  -4.742  1.00 19.10 LIG-0.35  N 
ATOM     16 H    GLY H  75      -5.820   4.562  -5.576  1.00 19.10 LIG 0.16  HD
ATOM     17 O    ARG H  74      -4.784   3.556  -2.926  1.00 20.55 LIG-0.27  OA
BRANCH 15 18
ATOM     18  CA  GLY H  75      -7.039   4.663  -4.002  1.00 17.93 LIG 0.23  C 
BRANCH 18 19
ATOM     19  C   GLY H  75      -8.098   5.315  -4.880  1.00 17.33 LIG 0.23  C 
ATOM     20  N   GLY H  76      -9.348   5.292  -4.416  1.00 16.80 LIG-0.35  N 
ATOM     21 H    GLY H  76      -9.591   4.896  -3.692  1.00 16.80 LIG 0.16  HD
ATOM     22 O    GLY H  75      -7.798   5.827  -5.970  1.00 16.80 LIG-0.27  OA
BRANCH 20 23
ATOM     23  CA  GLY H  76     -10.417   5.961  -5.136  1.00 16.50 LIG 0.23  C 
BRANCH 23 24
ATOM     24  C   GLY H  76     -11.462   6.633  -4.267  1.00 16.76 LIG 0.19  C 
ATOM     25 O    GLY H  76     -11.669   6.201  -3.137  1.00 16.89 LIG-0.65  OA
ATOM     26 OXT  GLY H  76     -12.104   7.606  -4.681  1.00 15.95 LIG-0.65  OA
ENDBRANCH 23 24
ENDBRANCH 20 23
ENDBRANCH 18 19
ENDBRANCH 15 18
ENDBRANCH 1 14
BRANCH 1 27
ATOM     27  N   ARG H  74      -2.516   4.507  -4.624  1.00 22.12 LIG-0.35  N 
ATOM     28 H    ARG H  74      -2.768   5.080  -4.035  1.00 22.12 LIG 0.16  HD
ATOM     29  C   LEU H  73      -1.322   4.513  -5.213  1.00 24.75 LIG 0.26  C 
ATOM     30 O    LEU H  73      -0.863   3.508  -5.754  1.00 25.51 LIG-0.27  OA
BRANCH 29 31
ATOM     31  CA  LEU H  73      -0.510   5.826  -5.190  1.00 25.64 LIG 0.40  C 
ATOM     32  N   LEU H  73      -0.480   6.593  -6.469  1.00 27.50 LIG 0.61  N 
BRANCH 31 33
ATOM     33  CB  LEU H  73      -0.939   6.735  -4.023  1.00 26.32 LIG 0.06  C 
BRANCH 33 34
ATOM     34  CG  LEU H  73      -0.666   6.493  -2.534  1.00 25.96 LIG-0.02  C 
ATOM     35  CD2 LEU H  73      -1.913   5.849  -1.941  1.00 27.32 LIG 0.01  C 
ATOM     36  CD1 LEU H  73      -0.360   7.757  -1.805  1.00 27.59 LIG 0.01  C 
ENDBRANCH 33 34
ENDBRANCH 31 33
ENDBRANCH 29 31
ENDBRANCH 1 27
TORSDOF 13
ENDMDL
MODEL 42
USER: ADFR SOLUTION from run 28
USER: SCORE 12.031763 LL:  -1.554 LR: -11.161 RR:   0.000 FEB:  -7.283
USER: RMSD 7.129494
USER: SEED 27
USER: STATUS no improvement in best in 9 clusters for 5 generations
USER: GENES 15
USER: genes 0 Translation |==|  0.57421 0.38703 0.28855
USER: genes 1 Rotation |==|  0.97204 0.60073 0.57744 0.60506
USER: genes 2 Torsion [C]-CA--CB-[CG] |==|  0.31632
USER: genes 3 Torsion [CA]-CB--CG-[CD] |==|  0.22146
USER: genes 4 Torsion [CB]-CG--CD-[NE] |==|  0.63185
USER: genes 5 Torsion [CG]-CD--NE-[HE] |==|  0.74622
USER: genes 6 Torsion [N]-CA--C-[N] |==|  0.63488
USER: genes 7 Torsion [C]-N--CA-[C] |==|  0.17247
USER: genes 8 Torsion [N]-CA--C-[N] |==|  0.05963
USER: genes 9 Torsion [C]-N--CA-[C] |==|  0.21376
USER: genes 10 Torsion [N]-CA--C-[O] |==|  0.09543
USER: genes 11 Torsion [CB]-CA--N-[C] |==|  0.17076
USER: genes 12 Torsion [N]-C--CA-[N] |==|  0.75053
USER: genes 13 Torsion [C]-CA--CB-[CG] |==|  0.19251
USER: genes 14 Torsion [CA]-CB--CG-[CD2] |==|  0.74737
ROOT
ATOM      1  CA  ARG H  74      -5.893   3.468  -3.877  1.00 20.60 LIG 0.18  C 
ENDROOT
BRANCH 1 2
ATOM      2  CB  ARG H  74      -5.724   2.010  -3.420  1.00 19.81 LIG 0.04  C 
BRANCH 2 3
ATOM      3  CG  ARG H  74      -6.104   0.933  -4.470  1.00 18.47 LIG 0.02  C 
BRANCH 3 4
ATOM      4  CD  ARG H  74      -4.995   0.725  -5.493  1.00 18.94 LIG 0.14  C 
BRANCH 4 5
ATOM      5  NE  ARG H  74      -5.503   0.721  -6.869  1.00 19.12 LIG-0.23  N 
ATOM      6 HE   ARG H  74      -5.729  -0.034  -7.211  1.00 19.12 LIG 0.18  HD
ATOM      7  CZ  ARG H  74      -5.636   1.812  -7.621  1.00 19.95 LIG 0.67  C 
ATOM      8  NH1 ARG H  74      -5.334   3.009  -7.124  1.00 19.07 LIG-0.23  N 
ATOM      9  NH2 ARG H  74      -6.088   1.703  -8.871  1.00 20.02 LIG-0.23  N 
ATOM     10 2HH1 ARG H  74      -5.421   3.711  -7.612  1.00 19.07 LIG 0.17  HD
ATOM     11 1HH1 ARG H  74      -5.052   3.079  -6.315  1.00 19.07 LIG 0.17  HD
ATOM     12 1HH2 ARG H  74      -6.293   0.930  -9.189  1.00 20.02 LIG 0.17  HD
ATOM     13 2HH2 ARG H  74      -6.176   2.406  -9.359  1.00 20.02 LIG 0.17  HD
ENDBRANCH 4 5
ENDBRANCH 3 4
ENDBRANCH 2 3
ENDBRANCH 1 2
BRANCH 1 14
ATOM     14  C   ARG H  74      -6.999   4.150  -3.064  1.00 20.00 LIG 0.24  C 
ATOM     15  N   GLY H  75      -7.766   3.390  -2.291  1.00 19.10 LIG-0.35  N 
ATOM     16 H    GLY H  75      -7.690   2.537  -2.220  1.00 19.10 LIG 0.16  HD
ATOM     17 O    ARG H  74      -7.176   5.357  -3.163  1.00 20.55 LIG-0.27  OA
BRANCH 15 18
ATOM     18  CA  GLY H  75      -8.837   3.988  -1.478  1.00 17.93 LIG 0.23  C 
BRANCH 18 19
ATOM     19  C   GLY H  75      -9.901   4.672  -2.324  1.00 17.33 LIG 0.23  C 
ATOM     20  N   GLY H  76      -9.987   4.281  -3.596  1.00 16.80 LIG-0.35  N 
ATOM     21 H    GLY H  76      -9.456   3.716  -3.968  1.00 16.80 LIG 0.16  HD
ATOM     22 O    GLY H  75     -10.635   5.549  -1.842  1.00 16.80 LIG-0.27  OA
BRANCH 20 23
ATOM     23  CA  GLY H  76     -11.026   4.808  -4.463  1.00 16.50 LIG 0.23  C 
BRANCH 23 24
ATOM     24  C   GLY H  76     -10.787   6.215  -4.977  1.00 16.76 LIG 0.19  C 
ATOM     25 O    GLY H  76      -9.640   6.578  -5.220  1.00 16.89 LIG-0.65  OA
ATOM     26 OXT  GLY H  76     -11.730   6.996  -5.154  1.00 15.95 LIG-0.65  OA
ENDBRANCH 23 24
ENDBRANCH 20 23
ENDBRANCH 18 19
ENDBRANCH 15 18
ENDBRANCH 1 14
BRANCH 1 27
ATOM     27  N   ARG H  74      -4.659   4.234  -3.657  1.00 22.12 LIG-0.35  N 
ATOM     28 H    ARG H  74      -4.738   4.897  -3.116  1.00 22.12 LIG 0.16  HD
ATOM     29  C   LEU H  73      -3.524   3.896  -4.268  1.00 24.75 LIG 0.26  C 
ATOM     30 O    LEU H  73      -3.348   2.769  -4.727  1.00 25.51 LIG-0.27  OA
BRANCH 29 31
ATOM     31  CA  LEU H  73      -2.415   4.966  -4.376  1.00 25.64 LIG 0.40  C 
ATOM     32  N   LEU H  73      -2.462   5.828  -5.593  1.00 27.50 LIG 0.61  N 
BRANCH 31 33
ATOM     33  CB  LEU H  73      -2.336   5.828  -3.103  1.00 26.32 LIG 0.06  C 
BRANCH 33 34
ATOM     34  CG  LEU H  73      -1.857   5.368  -1.721  1.00 25.96 LIG-0.02  C 
ATOM     35  CD2 LEU H  73      -3.079   4.871  -0.958  1.00 27.32 LIG 0.01  C 
ATOM     36  CD1 LEU H  73      -1.203   6.469  -0.957  1.00 27.59 LIG 0.01  C 
ENDBRANCH 33 34
ENDBRANCH 31 33
ENDBRANCH 29 31
ENDBRANCH 1 27
TORSDOF 13
ENDMDL
MODEL 43
USER: ADFR SOLUTION from run 14
USER: SCORE 11.837610 LL:  -1.172 LR: -11.154 RR:   0.000 FEB:  -7.276
USER: RMSD 5.727102
USER: SEED 393568
USER: STATUS no improvement in best in 8 clusters for 5 generations
USER: GENES 15
USER: genes 0 Translation |==|  0.57146 0.46646 0.40990
USER: genes 1 Rotation |==|  0.13193 0.39516 0.18246 0.55197
USER: genes 2 Torsion [C]-CA--CB-[CG] |==|  0.24987
USER: genes 3 Torsion [CA]-CB--CG-[CD] |==|  0.00886
USER: genes 4 Torsion [CB]-CG--CD-[NE] |==|  0.39068
USER: genes 5 Torsion [CG]-CD--NE-[HE] |==|  0.30783
USER: genes 6 Torsion [N]-CA--C-[N] |==|  0.36609
USER: genes 7 Torsion [C]-N--CA-[C] |==|  0.51924
USER: genes 8 Torsion [N]-CA--C-[N] |==|  0.52202
USER: genes 9 Torsion [C]-N--CA-[C] |==|  0.73920
USER: genes 10 Torsion [N]-CA--C-[O] |==|  0.93331
USER: genes 11 Torsion [CB]-CA--N-[C] |==|  0.87778
USER: genes 12 Torsion [N]-C--CA-[N] |==|  0.95399
USER: genes 13 Torsion [C]-CA--CB-[CG] |==|  0.12469
USER: genes 14 Torsion [CA]-CB--CG-[CD2] |==|  0.48681
ROOT
ATOM      1  CA  ARG H  74      -5.943   4.600  -1.419  1.00 20.60 LIG 0.18  C 
ENDROOT
BRANCH 1 2
ATOM      2  CB  ARG H  74      -5.196   3.281  -1.678  1.00 19.81 LIG 0.04  C 
BRANCH 2 3
ATOM      3  CG  ARG H  74      -4.642   3.098  -3.115  1.00 18.47 LIG 0.02  C 
BRANCH 3 4
ATOM      4  CD  ARG H  74      -4.892   4.328  -3.978  1.00 18.94 LIG 0.14  C 
BRANCH 4 5
ATOM      5  NE  ARG H  74      -3.755   4.633  -4.853  1.00 19.12 LIG-0.23  N 
ATOM      6 HE   ARG H  74      -3.856   4.516  -5.698  1.00 19.12 LIG 0.18  HD
ATOM      7  CZ  ARG H  74      -2.576   5.077  -4.421  1.00 19.95 LIG 0.67  C 
ATOM      8  NH1 ARG H  74      -2.381   5.308  -3.125  1.00 19.07 LIG-0.23  N 
ATOM      9  NH2 ARG H  74      -1.594   5.306  -5.294  1.00 20.02 LIG-0.23  N 
ATOM     10 2HH1 ARG H  74      -1.619   5.595  -2.849  1.00 19.07 LIG 0.17  HD
ATOM     11 1HH1 ARG H  74      -3.017   5.169  -2.564  1.00 19.07 LIG 0.17  HD
ATOM     12 1HH2 ARG H  74      -1.723   5.167  -6.133  1.00 20.02 LIG 0.17  HD
ATOM     13 2HH2 ARG H  74      -0.832   5.594  -5.019  1.00 20.02 LIG 0.17  HD
ENDBRANCH 4 5
ENDBRANCH 3 4
ENDBRANCH 2 3
ENDBRANCH 1 2
BRANCH 1 14
ATOM     14  C   ARG H  74      -7.434   4.431  -1.729  1.00 20.00 LIG 0.24  C 
ATOM     15  N   GLY H  75      -7.914   5.009  -2.824  1.00 19.10 LIG-0.35  N 
ATOM     16 H    GLY H  75      -7.446   5.480  -3.371  1.00 19.10 LIG 0.16  HD
ATOM     17 O    ARG H  74      -8.152   3.807  -0.960  1.00 20.55 LIG-0.27  OA
BRANCH 15 18
ATOM     18  CA  GLY H  75      -9.335   4.873  -3.182  1.00 17.93 LIG 0.23  C 
BRANCH 18 19
ATOM     19  C   GLY H  75      -9.652   5.462  -4.550  1.00 17.33 LIG 0.23  C 
ATOM     20  N   GLY H  76     -10.942   5.528  -4.881  1.00 16.80 LIG-0.35  N 
ATOM     21 H    GLY H  76     -11.585   5.219  -4.400  1.00 16.80 LIG 0.16  HD
ATOM     22 O    GLY H  75      -8.746   5.845  -5.305  1.00 16.80 LIG-0.27  OA
BRANCH 20 23
ATOM     23  CA  GLY H  76     -11.354   6.151  -6.126  1.00 16.50 LIG 0.23  C 
BRANCH 23 24
ATOM     24  C   GLY H  76     -11.729   7.617  -6.023  1.00 16.76 LIG 0.19  C 
ATOM     25 O    GLY H  76     -12.097   8.067  -4.943  1.00 16.89 LIG-0.65  OA
ATOM     26 OXT  GLY H  76     -11.668   8.360  -7.010  1.00 15.95 LIG-0.65  OA
ENDBRANCH 23 24
ENDBRANCH 20 23
ENDBRANCH 18 19
ENDBRANCH 15 18
ENDBRANCH 1 14
BRANCH 1 27
ATOM     27  N   ARG H  74      -5.835   4.997  -0.009  1.00 22.12 LIG-0.35  N 
ATOM     28 H    ARG H  74      -5.665   5.830   0.119  1.00 22.12 LIG 0.16  HD
ATOM     29  C   LEU H  73      -5.996   4.106   0.968  1.00 24.75 LIG 0.26  C 
ATOM     30 O    LEU H  73      -6.584   3.042   0.784  1.00 25.51 LIG-0.27  OA
BRANCH 29 31
ATOM     31  CA  LEU H  73      -5.427   4.452   2.362  1.00 25.64 LIG 0.40  C 
ATOM     32  N   LEU H  73      -4.429   5.560   2.399  1.00 27.50 LIG 0.61  N 
BRANCH 31 33
ATOM     33  CB  LEU H  73      -6.550   4.699   3.385  1.00 26.32 LIG 0.06  C 
BRANCH 33 34
ATOM     34  CG  LEU H  73      -7.808   3.845   3.579  1.00 25.96 LIG-0.02  C 
ATOM     35  CD2 LEU H  73      -8.561   4.408   4.779  1.00 27.32 LIG 0.01  C 
ATOM     36  CD1 LEU H  73      -7.482   2.410   3.821  1.00 27.59 LIG 0.01  C 
ENDBRANCH 33 34
ENDBRANCH 31 33
ENDBRANCH 29 31
ENDBRANCH 1 27
TORSDOF 13
ENDMDL
MODEL 44
USER: ADFR SOLUTION from run 136
USER: SCORE 12.154954 LL:  -1.669 LR: -11.139 RR:   0.000 FEB:  -7.261
USER: RMSD 8.334334
USER: SEED 135
USER: STATUS no improvement in best in 9 clusters for 5 generations
USER: GENES 15
USER: genes 0 Translation |==|  0.45162 0.44721 0.31817
USER: genes 1 Rotation |==|  0.72404 0.93852 0.41459 0.51445
USER: genes 2 Torsion [C]-CA--CB-[CG] |==|  0.17498
USER: genes 3 Torsion [CA]-CB--CG-[CD] |==|  0.17503
USER: genes 4 Torsion [CB]-CG--CD-[NE] |==|  0.68697
USER: genes 5 Torsion [CG]-CD--NE-[HE] |==|  0.02479
USER: genes 6 Torsion [N]-CA--C-[N] |==|  0.68302
USER: genes 7 Torsion [C]-N--CA-[C] |==|  0.79091
USER: genes 8 Torsion [N]-CA--C-[N] |==|  0.94495
USER: genes 9 Torsion [C]-N--CA-[C] |==|  0.39829
USER: genes 10 Torsion [N]-CA--C-[O] |==|  0.42489
USER: genes 11 Torsion [CB]-CA--N-[C] |==|  0.15945
USER: genes 12 Torsion [N]-C--CA-[N] |==|  0.55126
USER: genes 13 Torsion [C]-CA--CB-[CG] |==|  0.80299
USER: genes 14 Torsion [CA]-CB--CG-[CD2] |==|  0.23762
ROOT
ATOM      1  CA  ARG H  74      -8.100   4.326  -3.277  1.00 20.60 LIG 0.18  C 
ENDROOT
BRANCH 1 2
ATOM      2  CB  ARG H  74      -6.700   4.755  -3.745  1.00 19.81 LIG 0.04  C 
BRANCH 2 3
ATOM      3  CG  ARG H  74      -5.575   3.707  -3.535  1.00 18.47 LIG 0.02  C 
BRANCH 3 4
ATOM      4  CD  ARG H  74      -5.825   2.440  -4.342  1.00 18.94 LIG 0.14  C 
BRANCH 4 5
ATOM      5  NE  ARG H  74      -6.108   1.283  -3.486  1.00 19.12 LIG-0.23  N 
ATOM      6 HE   ARG H  74      -6.226   1.424  -2.646  1.00 19.12 LIG 0.18  HD
ATOM      7  CZ  ARG H  74      -6.192   0.029  -3.926  1.00 19.95 LIG 0.67  C 
ATOM      8  NH1 ARG H  74      -6.053  -0.237  -5.222  1.00 19.07 LIG-0.23  N 
ATOM      9  NH2 ARG H  74      -6.433  -0.960  -3.064  1.00 20.02 LIG-0.23  N 
ATOM     10 2HH1 ARG H  74      -6.108  -1.047  -5.503  1.00 19.07 LIG 0.17  HD
ATOM     11 1HH1 ARG H  74      -5.908   0.402  -5.778  1.00 19.07 LIG 0.17  HD
ATOM     12 1HH2 ARG H  74      -6.533  -0.787  -2.227  1.00 20.02 LIG 0.17  HD
ATOM     13 2HH2 ARG H  74      -6.488  -1.771  -3.345  1.00 20.02 LIG 0.17  HD
ENDBRANCH 4 5
ENDBRANCH 3 4
ENDBRANCH 2 3
ENDBRANCH 1 2
BRANCH 1 14
ATOM     14  C   ARG H  74      -8.101   4.091  -1.763  1.00 20.00 LIG 0.24  C 
ATOM     15  N   GLY H  75      -7.006   4.406  -1.081  1.00 19.10 LIG-0.35  N 
ATOM     16 H    GLY H  75      -6.290   4.728  -1.432  1.00 19.10 LIG 0.16  HD
ATOM     17 O    ARG H  74      -9.079   3.596  -1.221  1.00 20.55 LIG-0.27  OA
BRANCH 15 18
ATOM     18  CA  GLY H  75      -6.950   4.216   0.377  1.00 17.93 LIG 0.23  C 
BRANCH 18 19
ATOM     19  C   GLY H  75      -7.739   5.274   1.136  1.00 17.33 LIG 0.23  C 
ATOM     20  N   GLY H  76      -8.003   6.402   0.475  1.00 16.80 LIG-0.35  N 
ATOM     21 H    GLY H  76      -7.718   6.580  -0.316  1.00 16.80 LIG 0.16  HD
ATOM     22 O    GLY H  75      -8.100   5.083   2.307  1.00 16.80 LIG-0.27  OA
BRANCH 20 23
ATOM     23  CA  GLY H  76      -8.823   7.437   1.079  1.00 16.50 LIG 0.23  C 
BRANCH 23 24
ATOM     24  C   GLY H  76      -8.405   8.860   0.763  1.00 16.76 LIG 0.19  C 
ATOM     25 O    GLY H  76      -9.249   9.751   0.780  1.00 16.89 LIG-0.65  OA
ATOM     26 OXT  GLY H  76      -7.229   9.132   0.490  1.00 15.95 LIG-0.65  OA
ENDBRANCH 23 24
ENDBRANCH 20 23
ENDBRANCH 18 19
ENDBRANCH 15 18
ENDBRANCH 1 14
BRANCH 1 27
ATOM     27  N   ARG H  74      -9.091   5.375  -3.554  1.00 22.12 LIG-0.35  N 
ATOM     28 H    ARG H  74      -9.518   5.657  -2.864  1.00 22.12 LIG 0.16  HD
ATOM     29  C   LEU H  73      -9.282   5.829  -4.791  1.00 24.75 LIG 0.26  C 
ATOM     30 O    LEU H  73      -8.434   5.686  -5.671  1.00 25.51 LIG-0.27  OA
BRANCH 29 31
ATOM     31  CA  LEU H  73     -10.608   6.559  -5.097  1.00 25.64 LIG 0.40  C 
ATOM     32  N   LEU H  73     -10.972   6.667  -6.540  1.00 27.50 LIG 0.61  N 
BRANCH 31 33
ATOM     33  CB  LEU H  73     -11.777   5.970  -4.285  1.00 26.32 LIG 0.06  C 
BRANCH 33 34
ATOM     34  CG  LEU H  73     -12.433   4.601  -4.497  1.00 25.96 LIG-0.02  C 
ATOM     35  CD2 LEU H  73     -11.615   3.578  -3.720  1.00 27.32 LIG 0.01  C 
ATOM     36  CD1 LEU H  73     -12.479   4.216  -5.937  1.00 27.59 LIG 0.01  C 
ENDBRANCH 33 34
ENDBRANCH 31 33
ENDBRANCH 29 31
ENDBRANCH 1 27
TORSDOF 13
ENDMDL
MODEL 45
USER: ADFR SOLUTION from run 3
USER: SCORE 11.523758 LL:  -1.624 LR: -11.087 RR:   0.000 FEB:  -7.209
USER: RMSD 6.024584
USER: SEED 668434
USER: STATUS no improvement in best in 4 clusters for 5 generations
USER: GENES 15
USER: genes 0 Translation |==|  0.56937 0.44096 0.33956
USER: genes 1 Rotation |==|  0.11771 0.63136 0.27450 0.68906
USER: genes 2 Torsion [C]-CA--CB-[CG] |==|  0.50120
USER: genes 3 Torsion [CA]-CB--CG-[CD] |==|  0.27162
USER: genes 4 Torsion [CB]-CG--CD-[NE] |==|  0.97257
USER: genes 5 Torsion [CG]-CD--NE-[HE] |==|  0.87541
USER: genes 6 Torsion [N]-CA--C-[N] |==|  0.83013
USER: genes 7 Torsion [C]-N--CA-[C] |==|  0.17843
USER: genes 8 Torsion [N]-CA--C-[N] |==|  0.15556
USER: genes 9 Torsion [C]-N--CA-[C] |==|  0.21201
USER: genes 10 Torsion [N]-CA--C-[O] |==|  0.55863
USER: genes 11 Torsion [CB]-CA--N-[C] |==|  0.24961
USER: genes 12 Torsion [N]-C--CA-[N] |==|  0.72369
USER: genes 13 Torsion [C]-CA--CB-[CG] |==|  0.34693
USER: genes 14 Torsion [CA]-CB--CG-[CD2] |==|  0.75743
ROOT
ATOM      1  CA  ARG H  74      -5.980   4.237  -2.844  1.00 20.60 LIG 0.18  C 
ENDROOT
BRANCH 1 2
ATOM      2  CB  ARG H  74      -6.116   3.744  -4.294  1.00 19.81 LIG 0.04  C 
BRANCH 2 3
ATOM      3  CG  ARG H  74      -4.780   3.473  -5.034  1.00 18.47 LIG 0.02  C 
BRANCH 3 4
ATOM      4  CD  ARG H  74      -4.408   1.997  -5.008  1.00 18.94 LIG 0.14  C 
BRANCH 4 5
ATOM      5  NE  ARG H  74      -5.265   1.224  -4.103  1.00 19.12 LIG-0.23  N 
ATOM      6 HE   ARG H  74      -5.429   1.554  -3.326  1.00 19.12 LIG 0.18  HD
ATOM      7  CZ  ARG H  74      -5.804   0.045  -4.407  1.00 19.95 LIG 0.67  C 
ATOM      8  NH1 ARG H  74      -5.609  -0.491  -5.609  1.00 19.07 LIG-0.23  N 
ATOM      9  NH2 ARG H  74      -6.554  -0.592  -3.506  1.00 20.02 LIG-0.23  N 
ATOM     10 2HH1 ARG H  74      -5.959  -1.252  -5.803  1.00 19.07 LIG 0.17  HD
ATOM     11 1HH1 ARG H  74      -5.134  -0.075  -6.193  1.00 19.07 LIG 0.17  HD
ATOM     12 1HH2 ARG H  74      -6.689  -0.241  -2.732  1.00 20.02 LIG 0.17  HD
ATOM     13 2HH2 ARG H  74      -6.904  -1.353  -3.700  1.00 20.02 LIG 0.17  HD
ENDBRANCH 4 5
ENDBRANCH 3 4
ENDBRANCH 2 3
ENDBRANCH 1 2
BRANCH 1 14
ATOM     14  C   ARG H  74      -7.367   4.453  -2.229  1.00 20.00 LIG 0.24  C 
ATOM     15  N   GLY H  75      -8.189   3.413  -2.160  1.00 19.10 LIG-0.35  N 
ATOM     16 H    GLY H  75      -8.001   2.624  -2.444  1.00 19.10 LIG 0.16  HD
ATOM     17 O    ARG H  74      -7.701   5.567  -1.848  1.00 20.55 LIG-0.27  OA
BRANCH 15 18
ATOM     18  CA  GLY H  75      -9.530   3.555  -1.569  1.00 17.93 LIG 0.23  C 
BRANCH 18 19
ATOM     19  C   GLY H  75     -10.422   4.499  -2.364  1.00 17.33 LIG 0.23  C 
ATOM     20  N   GLY H  76     -10.593   4.207  -3.653  1.00 16.80 LIG-0.35  N 
ATOM     21 H    GLY H  76     -10.199   3.561  -4.063  1.00 16.80 LIG 0.16  HD
ATOM     22 O    GLY H  75     -10.945   5.487  -1.825  1.00 16.80 LIG-0.27  OA
BRANCH 20 23
ATOM     23  CA  GLY H  76     -11.493   4.994  -4.477  1.00 16.50 LIG 0.23  C 
BRANCH 23 24
ATOM     24  C   GLY H  76     -10.960   6.348  -4.906  1.00 16.76 LIG 0.19  C 
ATOM     25 O    GLY H  76     -11.750   7.221  -5.252  1.00 16.89 LIG-0.65  OA
ATOM     26 OXT  GLY H  76      -9.745   6.579  -4.913  1.00 15.95 LIG-0.65  OA
ENDBRANCH 23 24
ENDBRANCH 20 23
ENDBRANCH 18 19
ENDBRANCH 15 18
ENDBRANCH 1 14
BRANCH 1 27
ATOM     27  N   ARG H  74      -5.288   3.242  -2.013  1.00 22.12 LIG-0.35  N 
ATOM     28 H    ARG H  74      -5.805   2.669  -1.633  1.00 22.12 LIG 0.16  HD
ATOM     29  C   LEU H  73      -3.963   3.258  -1.885  1.00 24.75 LIG 0.26  C 
ATOM     30 O    LEU H  73      -3.241   3.828  -2.701  1.00 25.51 LIG-0.27  OA
BRANCH 29 31
ATOM     31  CA  LEU H  73      -3.345   2.521  -0.676  1.00 25.64 LIG 0.40  C 
ATOM     32  N   LEU H  73      -2.966   3.381   0.483  1.00 27.50 LIG 0.61  N 
BRANCH 31 33
ATOM     33  CB  LEU H  73      -4.230   1.349  -0.216  1.00 26.32 LIG 0.06  C 
BRANCH 33 34
ATOM     34  CG  LEU H  73      -3.796  -0.113  -0.063  1.00 25.96 LIG-0.02  C 
ATOM     35  CD2 LEU H  73      -3.982  -0.788  -1.416  1.00 27.32 LIG 0.01  C 
ATOM     36  CD1 LEU H  73      -4.596  -0.833   0.970  1.00 27.59 LIG 0.01  C 
ENDBRANCH 33 34
ENDBRANCH 31 33
ENDBRANCH 29 31
ENDBRANCH 1 27
TORSDOF 13
ENDMDL
