MODEL 1
USER: ADFR SOLUTION from run 161
USER: SCORE 16.655283 LL:  -4.188 LR: -13.637 RR:   0.000 FEB:  -8.268
USER: RMSD 7.999262
USER: SEED 160
USER: STATUS no improvement in best in 2 clusters for 5 generations
USER: GENES 20
USER: genes 0 Translation |==|  0.37601 0.40248 0.44616
USER: genes 1 Rotation |==|  0.64260 0.62017 0.90246 0.73076
USER: genes 2 Torsion [N]-C--CA-[N] |==|  0.05914
USER: genes 3 Torsion [C]-CA--N-[C] |==|  0.61713
USER: genes 4 Torsion [N]-C--CA-[N] |==|  0.47976
USER: genes 5 Torsion [C]-CA--CB-[CG] |==|  0.88764
USER: genes 6 Torsion [CA]-CB--CG-[CD] |==|  0.40076
USER: genes 7 Torsion [CB]-CG--CD-[OE1] |==|  0.47066
USER: genes 8 Torsion [C]-CA--N-[C] |==|  0.78093
USER: genes 9 Torsion [N]-C--CA-[N] |==|  0.24633
USER: genes 10 Torsion [C]-CA--N-[H1] |==|  0.41705
USER: genes 11 Torsion [C]-N--CA-[CB] |==|  0.82222
USER: genes 12 Torsion [N]-CA--C-[N] |==|  0.16528
USER: genes 13 Torsion [C]-N--CA-[CB] |==|  0.86523
USER: genes 14 Torsion [N]-CA--CB-[CG] |==|  0.80882
USER: genes 15 Torsion [CA]-CB--CG-[CD] |==|  0.33180
USER: genes 16 Torsion [CB]-CG--CD-[OE1] |==|  0.01480
USER: genes 17 Torsion [N]-CA--C-[N] |==|  0.88573
USER: genes 18 Torsion [C]-N--CA-[C] |==|  0.75422
USER: genes 19 Torsion [N]-CA--C-[O] |==|  0.10323
ROOT
ATOM      1  C   ALA Z   3      30.350  49.651  45.592  1.00 51.02 LIG 0.24  C 
ATOM      2 O    ALA Z   3      30.948  50.686  45.324  1.00 42.99 LIG-0.27  OA
ATOM      3  N   ALA Z   4      30.356  48.584  44.800  1.00 57.04 LIG-0.35  N 
ATOM      4 H    ALA Z   4      29.987  47.834  45.003  1.00 57.04 LIG 0.16  HD
ENDROOT
BRANCH 1 5
ATOM      5  CA  ALA Z   3      29.581  49.537  46.892  1.00 57.97 LIG 0.17  C 
ATOM      6  CB  ALA Z   3      30.316  50.260  48.012  1.00 56.61 LIG 0.04  C 
BRANCH 5 7
ATOM      7  N   ALA Z   3      29.455  48.118  47.183  1.00 65.45 LIG-0.35  N 
ATOM      8 H    ALA Z   3      30.170  47.663  47.037  1.00 65.45 LIG 0.16  HD
ATOM      9  C   GLU Z   2      28.324  47.592  47.635  1.00 71.12 LIG 0.24  C 
ATOM     10 O    GLU Z   2      27.368  48.272  48.013  1.00 75.44 LIG-0.27  OA
BRANCH 9 11
ATOM     11  CA  GLU Z   2      28.268  46.070  47.666  1.00 68.69 LIG 0.18  C 
BRANCH 11 12
ATOM     12  CB  GLU Z   2      28.344  45.539  46.235  1.00 66.81 LIG 0.04  C 
BRANCH 12 13
ATOM     13  CG  GLU Z   2      27.537  46.348  45.245  1.00 69.78 LIG 0.12  C 
BRANCH 13 14
ATOM     14  CD  GLU Z   2      28.201  46.437  43.890  1.00 73.92 LIG 0.17  C 
ATOM     15 OE2  GLU Z   2      29.385  46.052  43.778  1.00 73.75 LIG-0.65  OA
ATOM     16 OE1  GLU Z   2      27.542  46.905  42.939  1.00 77.56 LIG-0.65  OA
ENDBRANCH 13 14
ENDBRANCH 12 13
ENDBRANCH 11 12
BRANCH 11 17
ATOM     17  N   GLU Z   2      27.072  45.563  48.327  1.00 66.77 LIG-0.35  N 
ATOM     18 H    GLU Z   2      26.456  45.298  47.789  1.00 66.77 LIG 0.16  HD
ATOM     19  C   ALA Z   1      26.966  45.524  49.651  1.00 62.39 LIG 0.25  C 
ATOM     20 O    ALA Z   1      27.788  46.041  50.409  1.00 53.49 LIG-0.27  OA
BRANCH 19 21
ATOM     21  CA  ALA Z   1      25.739  44.790  50.197  1.00 66.83 LIG 0.27  C 
ATOM     22  CB  ALA Z   1      25.261  45.424  51.497  1.00 68.73 LIG 0.05  C 
BRANCH 21 23
ATOM     23  N   ALA Z   1      26.001  43.365  50.382  1.00 64.95 LIG-0.07  N 
ATOM     24 H3   ALA Z   1      26.863  43.243  50.571  1.00 64.95 LIG 0.28  HD
ATOM     25 H2   ALA Z   1      25.796  42.926  49.635  1.00 64.95 LIG 0.28  HD
ATOM     26 H1   ALA Z   1      25.504  43.056  51.052  1.00 64.95 LIG 0.28  HD
ENDBRANCH 21 23
ENDBRANCH 19 21
ENDBRANCH 11 17
ENDBRANCH 9 11
ENDBRANCH 5 7
ENDBRANCH 1 5
BRANCH 3 27
ATOM     27  CA  ALA Z   4      31.006  48.604  43.492  1.00 62.38 LIG 0.17  C 
ATOM     28  CB  ALA Z   4      30.312  49.606  42.562  1.00 63.33 LIG 0.04  C 
BRANCH 27 29
ATOM     29  C   ALA Z   4      32.501  48.918  43.621  1.00 62.21 LIG 0.24  C 
ATOM     30  N   GLN Z   5      33.224  48.077  44.357  1.00 63.49 LIG-0.35  N 
ATOM     31 H    GLN Z   5      32.889  47.419  44.798  1.00 63.49 LIG 0.16  HD
ATOM     32 O    ALA Z   4      32.984  49.908  43.073  1.00 60.79 LIG-0.27  OA
BRANCH 30 33
ATOM     33  CA  GLN Z   5      34.677  48.202  44.480  1.00 64.68 LIG 0.18  C 
BRANCH 33 34
ATOM     34  CB  GLN Z   5      35.323  48.370  43.102  1.00 64.60 LIG 0.04  C 
BRANCH 34 35
ATOM     35  CG  GLN Z   5      35.255  47.134  42.228  1.00 70.87 LIG 0.10  C 
BRANCH 35 36
ATOM     36  CD  GLN Z   5      34.494  47.383  40.939  1.00 74.77 LIG 0.21  C 
ATOM     37  NE2 GLN Z   5      34.280  46.329  40.161  1.00 75.28 LIG-0.37  N 
ATOM     38 22HE GLN Z   5      33.849  46.421  39.423  1.00 75.28 LIG 0.16  HD
ATOM     39 21HE GLN Z   5      34.572  45.555  40.395  1.00 75.28 LIG 0.16  HD
ATOM     40 OE1  GLN Z   5      34.096  48.512  40.651  1.00 77.42 LIG-0.27  OA
ENDBRANCH 35 36
ENDBRANCH 34 35
ENDBRANCH 33 34
BRANCH 33 41
ATOM     41  C   GLN Z   5      35.073  49.366  45.387  1.00 64.95 LIG 0.24  C 
ATOM     42 O    GLN Z   5      35.993  49.248  46.197  1.00 67.50 LIG-0.27  OA
ATOM     43  N   ALA Z   6      34.369  50.486  45.248  1.00 62.70 LIG-0.35  N 
ATOM     44 H    ALA Z   6      33.719  50.573  44.691  1.00 62.70 LIG 0.16  HD
BRANCH 43 45
ATOM     45  CA  ALA Z   6      34.640  51.684  46.042  1.00 61.33 LIG 0.16  C 
ATOM     46  CB  ALA Z   6      34.344  52.935  45.222  1.00 62.02 LIG 0.04  C 
BRANCH 45 47
ATOM     47  C   ALA Z   6      33.876  51.714  47.372  1.00 59.00 LIG 0.22  C 
ATOM     48 O    ALA Z   6      33.690  50.687  48.031  1.00 53.12 LIG-0.29  OA
ENDBRANCH 45 47
ENDBRANCH 43 45
ENDBRANCH 33 41
ENDBRANCH 30 33
ENDBRANCH 27 29
ENDBRANCH 3 27
TORSDOF 18
ENDMDL
MODEL 2
USER: ADFR SOLUTION from run 40
USER: SCORE 12.870866 LL:  -2.753 LR: -12.373 RR:   0.000 FEB:  -7.003
USER: RMSD 10.930166
USER: SEED 39
USER: STATUS no improvement in best in 15 clusters for 5 generations
USER: GENES 20
USER: genes 0 Translation |==|  0.66437 0.35384 0.42702
USER: genes 1 Rotation |==|  0.04877 0.71388 0.51781 0.51802
USER: genes 2 Torsion [N]-C--CA-[N] |==|  0.26334
USER: genes 3 Torsion [C]-CA--N-[C] |==|  0.52222
USER: genes 4 Torsion [N]-C--CA-[N] |==|  0.27938
USER: genes 5 Torsion [C]-CA--CB-[CG] |==|  0.15911
USER: genes 6 Torsion [CA]-CB--CG-[CD] |==|  0.60468
USER: genes 7 Torsion [CB]-CG--CD-[OE1] |==|  0.31822
USER: genes 8 Torsion [C]-CA--N-[C] |==|  0.85506
USER: genes 9 Torsion [N]-C--CA-[N] |==|  0.79477
USER: genes 10 Torsion [C]-CA--N-[H1] |==|  0.11151
USER: genes 11 Torsion [C]-N--CA-[CB] |==|  0.16177
USER: genes 12 Torsion [N]-CA--C-[N] |==|  0.58429
USER: genes 13 Torsion [C]-N--CA-[CB] |==|  0.83549
USER: genes 14 Torsion [N]-CA--CB-[CG] |==|  0.80661
USER: genes 15 Torsion [CA]-CB--CG-[CD] |==|  0.94782
USER: genes 16 Torsion [CB]-CG--CD-[OE1] |==|  0.81675
USER: genes 17 Torsion [N]-CA--C-[N] |==|  0.35476
USER: genes 18 Torsion [C]-N--CA-[C] |==|  0.21735
USER: genes 19 Torsion [N]-CA--C-[O] |==|  0.21003
ROOT
ATOM      1  C   ALA Z   3      35.108  48.703  45.119  1.00 51.02 LIG 0.24  C 
ATOM      2 O    ALA Z   3      36.259  48.911  44.757  1.00 42.99 LIG-0.27  OA
ATOM      3  N   ALA Z   4      34.440  49.524  45.924  1.00 57.04 LIG-0.35  N 
ATOM      4 H    ALA Z   4      33.615  49.418  46.140  1.00 57.04 LIG 0.16  HD
ENDROOT
BRANCH 1 5
ATOM      5  CA  ALA Z   3      34.369  47.477  44.624  1.00 57.97 LIG 0.17  C 
ATOM      6  CB  ALA Z   3      35.317  46.291  44.515  1.00 56.61 LIG 0.04  C 
BRANCH 5 7
ATOM      7  N   ALA Z   3      33.810  47.817  43.326  1.00 65.45 LIG-0.35  N 
ATOM      8 H    ALA Z   3      34.070  48.577  43.018  1.00 65.45 LIG 0.16  HD
ATOM      9  C   GLU Z   2      32.971  47.011  42.690  1.00 71.12 LIG 0.24  C 
ATOM     10 O    GLU Z   2      32.746  45.853  43.049  1.00 75.44 LIG-0.27  OA
BRANCH 9 11
ATOM     11  CA  GLU Z   2      32.286  47.601  41.463  1.00 68.69 LIG 0.18  C 
BRANCH 11 12
ATOM     12  CB  GLU Z   2      30.808  47.210  41.481  1.00 66.81 LIG 0.04  C 
BRANCH 12 13
ATOM     13  CG  GLU Z   2      30.081  47.648  42.731  1.00 69.78 LIG 0.12  C 
BRANCH 13 14
ATOM     14  CD  GLU Z   2      29.069  46.629  43.201  1.00 73.92 LIG 0.17  C 
ATOM     15 OE2  GLU Z   2      28.072  46.400  42.482  1.00 73.75 LIG-0.65  OA
ATOM     16 OE1  GLU Z   2      29.264  46.064  44.297  1.00 77.56 LIG-0.65  OA
ENDBRANCH 13 14
ENDBRANCH 12 13
ENDBRANCH 11 12
BRANCH 11 17
ATOM     17  N   GLU Z   2      32.903  47.176  40.214  1.00 66.77 LIG-0.35  N 
ATOM     18 H    GLU Z   2      32.353  46.846  39.641  1.00 66.77 LIG 0.16  HD
ATOM     19  C   ALA Z   1      34.210  47.298  40.000  1.00 62.39 LIG 0.25  C 
ATOM     20 O    ALA Z   1      35.008  47.631  40.877  1.00 53.49 LIG-0.27  OA
BRANCH 19 21
ATOM     21  CA  ALA Z   1      34.680  46.991  38.577  1.00 66.83 LIG 0.27  C 
ATOM     22  CB  ALA Z   1      33.844  47.750  37.554  1.00 68.73 LIG 0.05  C 
BRANCH 21 23
ATOM     23  N   ALA Z   1      34.661  45.558  38.299  1.00 64.95 LIG-0.07  N 
ATOM     24 H3   ALA Z   1      35.386  45.178  38.650  1.00 64.95 LIG 0.28  HD
ATOM     25 H2   ALA Z   1      34.653  45.426  37.419  1.00 64.95 LIG 0.28  HD
ATOM     26 H1   ALA Z   1      33.932  45.195  38.659  1.00 64.95 LIG 0.28  HD
ENDBRANCH 21 23
ENDBRANCH 19 21
ENDBRANCH 11 17
ENDBRANCH 9 11
ENDBRANCH 5 7
ENDBRANCH 1 5
BRANCH 3 27
ATOM     27  CA  ALA Z   4      35.074  50.698  46.517  1.00 62.38 LIG 0.17  C 
ATOM     28  CB  ALA Z   4      35.617  51.626  45.424  1.00 63.33 LIG 0.04  C 
BRANCH 27 29
ATOM     29  C   ALA Z   4      34.104  51.446  47.439  1.00 62.21 LIG 0.24  C 
ATOM     30  N   GLN Z   5      34.273  52.762  47.540  1.00 63.49 LIG-0.35  N 
ATOM     31 H    GLN Z   5      34.920  53.189  47.168  1.00 63.49 LIG 0.16  HD
ATOM     32 O    ALA Z   4      33.227  50.838  48.054  1.00 60.79 LIG-0.27  OA
BRANCH 30 33
ATOM     33  CA  GLN Z   5      33.357  53.609  48.306  1.00 64.68 LIG 0.18  C 
BRANCH 33 34
ATOM     34  CB  GLN Z   5      31.933  53.497  47.756  1.00 64.60 LIG 0.04  C 
BRANCH 34 35
ATOM     35  CG  GLN Z   5      31.741  54.126  46.391  1.00 70.87 LIG 0.10  C 
BRANCH 35 36
ATOM     36  CD  GLN Z   5      32.843  55.112  46.052  1.00 74.77 LIG 0.21  C 
ATOM     37  NE2 GLN Z   5      33.638  54.791  45.039  1.00 75.28 LIG-0.37  N 
ATOM     38 22HE GLN Z   5      34.274  55.322  44.808  1.00 75.28 LIG 0.16  HD
ATOM     39 21HE GLN Z   5      33.518  54.053  44.615  1.00 75.28 LIG 0.16  HD
ATOM     40 OE1  GLN Z   5      32.972  56.156  46.692  1.00 77.42 LIG-0.27  OA
ENDBRANCH 35 36
ENDBRANCH 34 35
ENDBRANCH 33 34
BRANCH 33 41
ATOM     41  C   GLN Z   5      33.371  53.262  49.794  1.00 64.95 LIG 0.24  C 
ATOM     42 O    GLN Z   5      33.197  52.104  50.172  1.00 67.50 LIG-0.27  OA
ATOM     43  N   ALA Z   6      33.575  54.276  50.631  1.00 62.70 LIG-0.35  N 
ATOM     44 H    ALA Z   6      33.689  55.089  50.374  1.00 62.70 LIG 0.16  HD
BRANCH 43 45
ATOM     45  CA  ALA Z   6      33.624  54.094  52.081  1.00 61.33 LIG 0.16  C 
ATOM     46  CB  ALA Z   6      32.464  53.219  52.540  1.00 62.02 LIG 0.04  C 
BRANCH 45 47
ATOM     47  C   ALA Z   6      34.961  53.523  52.574  1.00 59.00 LIG 0.22  C 
ATOM     48 O    ALA Z   6      35.974  54.224  52.640  1.00 53.12 LIG-0.29  OA
ENDBRANCH 45 47
ENDBRANCH 43 45
ENDBRANCH 33 41
ENDBRANCH 30 33
ENDBRANCH 27 29
ENDBRANCH 3 27
TORSDOF 18
ENDMDL
MODEL 3
USER: ADFR SOLUTION from run 183
USER: SCORE 13.807228 LL:  -4.157 LR: -12.059 RR:   0.000 FEB:  -6.690
USER: RMSD 11.247512
USER: SEED 182
USER: STATUS no improvement in best in 28 clusters for 5 generations
USER: GENES 20
USER: genes 0 Translation |==|  0.64297 0.37079 0.43395
USER: genes 1 Rotation |==|  0.02952 0.65986 0.49745 0.55553
USER: genes 2 Torsion [N]-C--CA-[N] |==|  0.31348
USER: genes 3 Torsion [C]-CA--N-[C] |==|  0.57346
USER: genes 4 Torsion [N]-C--CA-[N] |==|  0.02210
USER: genes 5 Torsion [C]-CA--CB-[CG] |==|  0.54412
USER: genes 6 Torsion [CA]-CB--CG-[CD] |==|  0.90172
USER: genes 7 Torsion [CB]-CG--CD-[OE1] |==|  0.86914
USER: genes 8 Torsion [C]-CA--N-[C] |==|  0.77111
USER: genes 9 Torsion [N]-C--CA-[N] |==|  0.18491
USER: genes 10 Torsion [C]-CA--N-[H1] |==|  0.70344
USER: genes 11 Torsion [C]-N--CA-[CB] |==|  0.21561
USER: genes 12 Torsion [N]-CA--C-[N] |==|  0.42069
USER: genes 13 Torsion [C]-N--CA-[CB] |==|  0.22735
USER: genes 14 Torsion [N]-CA--CB-[CG] |==|  0.56189
USER: genes 15 Torsion [CA]-CB--CG-[CD] |==|  0.32207
USER: genes 16 Torsion [CB]-CG--CD-[OE1] |==|  0.80980
USER: genes 17 Torsion [N]-CA--C-[N] |==|  0.85801
USER: genes 18 Torsion [C]-N--CA-[C] |==|  0.20089
USER: genes 19 Torsion [N]-CA--C-[O] |==|  0.29695
ROOT
ATOM      1  C   ALA Z   3      34.755  49.033  45.290  1.00 51.02 LIG 0.24  C 
ATOM      2 O    ALA Z   3      35.868  49.521  45.135  1.00 42.99 LIG-0.27  OA
ATOM      3  N   ALA Z   4      33.817  49.593  46.048  1.00 57.04 LIG-0.35  N 
ATOM      4 H    ALA Z   4      33.015  49.291  46.121  1.00 57.04 LIG 0.16  HD
ENDROOT
BRANCH 1 5
ATOM      5  CA  ALA Z   3      34.385  47.748  44.578  1.00 57.97 LIG 0.17  C 
ATOM      6  CB  ALA Z   3      35.396  46.655  44.893  1.00 56.61 LIG 0.04  C 
BRANCH 5 7
ATOM      7  N   ALA Z   3      34.365  48.046  43.156  1.00 65.45 LIG-0.35  N 
ATOM      8 H    ALA Z   3      34.875  48.699  42.924  1.00 65.45 LIG 0.16  HD
ATOM      9  C   GLU Z   2      33.618  47.356  42.304  1.00 71.12 LIG 0.24  C 
ATOM     10 O    GLU Z   2      33.036  46.313  42.611  1.00 75.44 LIG-0.27  OA
BRANCH 9 11
ATOM     11  CA  GLU Z   2      33.516  47.929  40.897  1.00 68.69 LIG 0.18  C 
BRANCH 11 12
ATOM     12  CB  GLU Z   2      33.803  46.819  39.885  1.00 66.81 LIG 0.04  C 
BRANCH 12 13
ATOM     13  CG  GLU Z   2      34.106  47.331  38.495  1.00 69.78 LIG 0.12  C 
BRANCH 13 14
ATOM     14  CD  GLU Z   2      33.302  48.561  38.141  1.00 73.92 LIG 0.17  C 
ATOM     15 OE2  GLU Z   2      33.896  49.539  37.640  1.00 73.75 LIG-0.65  OA
ATOM     16 OE1  GLU Z   2      32.076  48.553  38.377  1.00 77.56 LIG-0.65  OA
ENDBRANCH 13 14
ENDBRANCH 12 13
ENDBRANCH 11 12
BRANCH 11 17
ATOM     17  N   GLU Z   2      34.417  49.052  40.679  1.00 66.77 LIG-0.35  N 
ATOM     18 H    GLU Z   2      35.155  48.844  40.289  1.00 66.77 LIG 0.16  HD
ATOM     19  C   ALA Z   1      34.104  50.287  41.060  1.00 62.39 LIG 0.25  C 
ATOM     20 O    ALA Z   1      33.117  50.550  41.747  1.00 53.49 LIG-0.27  OA
BRANCH 19 21
ATOM     21  CA  ALA Z   1      35.058  51.387  40.592  1.00 66.83 LIG 0.27  C 
ATOM     22  CB  ALA Z   1      34.753  52.704  41.294  1.00 68.73 LIG 0.05  C 
BRANCH 21 23
ATOM     23  N   ALA Z   1      35.021  51.553  39.142  1.00 64.95 LIG-0.07  N 
ATOM     24 H3   ALA Z   1      34.958  52.419  38.943  1.00 64.95 LIG 0.28  HD
ATOM     25 H2   ALA Z   1      34.317  51.121  38.811  1.00 64.95 LIG 0.28  HD
ATOM     26 H1   ALA Z   1      35.766  51.221  38.785  1.00 64.95 LIG 0.28  HD
ENDBRANCH 21 23
ENDBRANCH 19 21
ENDBRANCH 11 17
ENDBRANCH 9 11
ENDBRANCH 5 7
ENDBRANCH 1 5
BRANCH 3 27
ATOM     27  CA  ALA Z   4      34.084  50.794  46.835  1.00 62.38 LIG 0.17  C 
ATOM     28  CB  ALA Z   4      34.073  52.038  45.940  1.00 63.33 LIG 0.04  C 
BRANCH 27 29
ATOM     29  C   ALA Z   4      33.080  50.937  47.986  1.00 62.21 LIG 0.24  C 
ATOM     30  N   GLN Z   5      33.507  51.578  49.071  1.00 63.49 LIG-0.35  N 
ATOM     31 H    GLN Z   5      34.315  51.855  49.175  1.00 63.49 LIG 0.16  HD
ATOM     32 O    ALA Z   4      31.947  50.466  47.893  1.00 60.79 LIG-0.27  OA
BRANCH 30 33
ATOM     33  CA  GLN Z   5      32.623  51.872  50.200  1.00 64.68 LIG 0.18  C 
BRANCH 33 34
ATOM     34  CB  GLN Z   5      32.490  50.652  51.114  1.00 64.60 LIG 0.04  C 
BRANCH 34 35
ATOM     35  CG  GLN Z   5      31.240  50.650  51.973  1.00 70.87 LIG 0.10  C 
BRANCH 35 36
ATOM     36  CD  GLN Z   5      30.312  49.499  51.634  1.00 74.77 LIG 0.21  C 
ATOM     37  NE2 GLN Z   5      30.176  48.553  52.555  1.00 75.28 LIG-0.37  N 
ATOM     38 22HE GLN Z   5      29.657  47.884  52.410  1.00 75.28 LIG 0.16  HD
ATOM     39 21HE GLN Z   5      30.607  48.611  53.297  1.00 75.28 LIG 0.16  HD
ATOM     40 OE1  GLN Z   5      29.718  49.465  50.556  1.00 77.42 LIG-0.27  OA
ENDBRANCH 35 36
ENDBRANCH 34 35
ENDBRANCH 33 34
BRANCH 33 41
ATOM     41  C   GLN Z   5      33.109  53.077  51.004  1.00 64.95 LIG 0.24  C 
ATOM     42 O    GLN Z   5      32.347  54.009  51.263  1.00 67.50 LIG-0.27  OA
ATOM     43  N   ALA Z   6      34.381  53.051  51.390  1.00 62.70 LIG-0.35  N 
ATOM     44 H    ALA Z   6      34.921  52.408  51.205  1.00 62.70 LIG 0.16  HD
BRANCH 43 45
ATOM     45  CA  ALA Z   6      34.982  54.130  52.174  1.00 61.33 LIG 0.16  C 
ATOM     46  CB  ALA Z   6      34.733  55.473  51.497  1.00 62.02 LIG 0.04  C 
BRANCH 45 47
ATOM     47  C   ALA Z   6      34.500  54.160  53.631  1.00 59.00 LIG 0.22  C 
ATOM     48 O    ALA Z   6      35.233  53.803  54.558  1.00 53.12 LIG-0.29  OA
ENDBRANCH 45 47
ENDBRANCH 43 45
ENDBRANCH 33 41
ENDBRANCH 30 33
ENDBRANCH 27 29
ENDBRANCH 3 27
TORSDOF 18
ENDMDL
MODEL 4
USER: ADFR SOLUTION from run 185
USER: SCORE 14.619620 LL:  -4.189 LR: -12.062 RR:   0.000 FEB:  -6.692
USER: RMSD 11.491639
USER: SEED 184
USER: STATUS no improvement in best in 3 clusters for 5 generations
USER: GENES 20
USER: genes 0 Translation |==|  0.66439 0.43204 0.44634
USER: genes 1 Rotation |==|  0.01642 0.61641 0.54756 0.51832
USER: genes 2 Torsion [N]-C--CA-[N] |==|  0.39401
USER: genes 3 Torsion [C]-CA--N-[C] |==|  0.81173
USER: genes 4 Torsion [N]-C--CA-[N] |==|  0.29584
USER: genes 5 Torsion [C]-CA--CB-[CG] |==|  0.75609
USER: genes 6 Torsion [CA]-CB--CG-[CD] |==|  0.76440
USER: genes 7 Torsion [CB]-CG--CD-[OE1] |==|  0.31699
USER: genes 8 Torsion [C]-CA--N-[C] |==|  0.78277
USER: genes 9 Torsion [N]-C--CA-[N] |==|  0.99463
USER: genes 10 Torsion [C]-CA--N-[H1] |==|  0.43057
USER: genes 11 Torsion [C]-N--CA-[CB] |==|  0.16304
USER: genes 12 Torsion [N]-CA--C-[N] |==|  0.13889
USER: genes 13 Torsion [C]-N--CA-[CB] |==|  0.51959
USER: genes 14 Torsion [N]-CA--CB-[CG] |==|  0.52050
USER: genes 15 Torsion [CA]-CB--CG-[CD] |==|  0.27716
USER: genes 16 Torsion [CB]-CG--CD-[OE1] |==|  0.86866
USER: genes 17 Torsion [N]-CA--C-[N] |==|  0.83512
USER: genes 18 Torsion [C]-N--CA-[C] |==|  0.57713
USER: genes 19 Torsion [N]-CA--C-[O] |==|  0.64922
ROOT
ATOM      1  C   ALA Z   3      35.108  50.228  45.597  1.00 51.02 LIG 0.24  C 
ATOM      2 O    ALA Z   3      36.039  50.899  45.169  1.00 42.99 LIG-0.27  OA
ATOM      3  N   ALA Z   4      34.252  50.674  46.510  1.00 57.04 LIG-0.35  N 
ATOM      4 H    ALA Z   4      33.563  50.234  46.778  1.00 57.04 LIG 0.16  HD
ENDROOT
BRANCH 1 5
ATOM      5  CA  ALA Z   3      34.876  48.829  45.064  1.00 57.97 LIG 0.17  C 
ATOM      6  CB  ALA Z   3      35.758  47.827  45.794  1.00 56.61 LIG 0.04  C 
BRANCH 5 7
ATOM      7  N   ALA Z   3      35.189  48.862  43.645  1.00 65.45 LIG-0.35  N 
ATOM      8 H    ALA Z   3      35.889  48.410  43.427  1.00 65.45 LIG 0.16  HD
ATOM      9  C   GLU Z   2      34.447  49.537  42.777  1.00 71.12 LIG 0.24  C 
ATOM     10 O    GLU Z   2      33.354  50.026  43.064  1.00 75.44 LIG-0.27  OA
BRANCH 9 11
ATOM     11  CA  GLU Z   2      35.029  49.676  41.376  1.00 68.69 LIG 0.18  C 
BRANCH 11 12
ATOM     12  CB  GLU Z   2      34.955  51.142  40.948  1.00 66.81 LIG 0.04  C 
BRANCH 12 13
ATOM     13  CG  GLU Z   2      33.649  51.514  40.284  1.00 69.78 LIG 0.12  C 
BRANCH 13 14
ATOM     14  CD  GLU Z   2      33.642  51.205  38.805  1.00 73.92 LIG 0.17  C 
ATOM     15 OE2  GLU Z   2      34.408  51.848  38.056  1.00 73.75 LIG-0.65  OA
ATOM     16 OE1  GLU Z   2      32.860  50.325  38.389  1.00 77.56 LIG-0.65  OA
ENDBRANCH 13 14
ENDBRANCH 12 13
ENDBRANCH 11 12
BRANCH 11 17
ATOM     17  N   GLU Z   2      34.352  48.834  40.399  1.00 66.77 LIG-0.35  N 
ATOM     18 H    GLU Z   2      33.792  49.252  39.898  1.00 66.77 LIG 0.16  HD
ATOM     19  C   ALA Z   1      34.597  47.530  40.307  1.00 62.39 LIG 0.25  C 
ATOM     20 O    ALA Z   1      35.286  46.915  41.122  1.00 53.49 LIG-0.27  OA
BRANCH 19 21
ATOM     21  CA  ALA Z   1      33.959  46.818  39.112  1.00 66.83 LIG 0.27  C 
ATOM     22  CB  ALA Z   1      35.021  46.143  38.254  1.00 68.73 LIG 0.05  C 
BRANCH 21 23
ATOM     23  N   ALA Z   1      33.148  47.730  38.310  1.00 64.95 LIG-0.07  N 
ATOM     24 H3   ALA Z   1      33.525  48.537  38.306  1.00 64.95 LIG 0.28  HD
ATOM     25 H2   ALA Z   1      32.331  47.785  38.659  1.00 64.95 LIG 0.28  HD
ATOM     26 H1   ALA Z   1      33.094  47.424  37.476  1.00 64.95 LIG 0.28  HD
ENDBRANCH 21 23
ENDBRANCH 19 21
ENDBRANCH 11 17
ENDBRANCH 9 11
ENDBRANCH 5 7
ENDBRANCH 1 5
BRANCH 3 27
ATOM     27  CA  ALA Z   4      34.419  51.978  47.145  1.00 62.38 LIG 0.17  C 
ATOM     28  CB  ALA Z   4      34.424  53.092  46.092  1.00 63.33 LIG 0.04  C 
BRANCH 27 29
ATOM     29  C   ALA Z   4      33.334  52.225  48.200  1.00 62.21 LIG 0.24  C 
ATOM     30  N   GLN Z   5      33.141  51.257  49.093  1.00 63.49 LIG-0.35  N 
ATOM     31 H    GLN Z   5      33.546  50.498  49.069  1.00 63.49 LIG 0.16  HD
ATOM     32 O    ALA Z   4      32.678  53.267  48.195  1.00 60.79 LIG-0.27  OA
BRANCH 30 33
ATOM     33  CA  GLN Z   5      32.209  51.404  50.212  1.00 64.68 LIG 0.18  C 
BRANCH 33 34
ATOM     34  CB  GLN Z   5      32.321  50.214  51.168  1.00 64.60 LIG 0.04  C 
BRANCH 34 35
ATOM     35  CG  GLN Z   5      31.271  50.193  52.261  1.00 70.87 LIG 0.10  C 
BRANCH 35 36
ATOM     36  CD  GLN Z   5      30.129  49.247  51.943  1.00 74.77 LIG 0.21  C 
ATOM     37  NE2 GLN Z   5      29.748  48.426  52.913  1.00 75.28 LIG-0.37  N 
ATOM     38 22HE GLN Z   5      29.102  47.875  52.781  1.00 75.28 LIG 0.16  HD
ATOM     39 21HE GLN Z   5      30.148  48.445  53.674  1.00 75.28 LIG 0.16  HD
ATOM     40 OE1  GLN Z   5      29.590  49.260  50.836  1.00 77.42 LIG-0.27  OA
ENDBRANCH 35 36
ENDBRANCH 34 35
ENDBRANCH 33 34
BRANCH 33 41
ATOM     41  C   GLN Z   5      32.437  52.709  50.974  1.00 64.95 LIG 0.24  C 
ATOM     42 O    GLN Z   5      31.538  53.545  51.072  1.00 67.50 LIG-0.27  OA
ATOM     43  N   ALA Z   6      33.644  52.876  51.506  1.00 62.70 LIG-0.35  N 
ATOM     44 H    ALA Z   6      34.279  52.301  51.433  1.00 62.70 LIG 0.16  HD
BRANCH 43 45
ATOM     45  CA  ALA Z   6      34.003  54.070  52.270  1.00 61.33 LIG 0.16  C 
ATOM     46  CB  ALA Z   6      33.540  53.928  53.715  1.00 62.02 LIG 0.04  C 
BRANCH 45 47
ATOM     47  C   ALA Z   6      35.501  54.398  52.212  1.00 59.00 LIG 0.22  C 
ATOM     48 O    ALA Z   6      36.167  54.552  53.239  1.00 53.12 LIG-0.29  OA
ENDBRANCH 45 47
ENDBRANCH 43 45
ENDBRANCH 33 41
ENDBRANCH 30 33
ENDBRANCH 27 29
ENDBRANCH 3 27
TORSDOF 18
ENDMDL
MODEL 5
USER: ADFR SOLUTION from run 193
USER: SCORE 13.511322 LL:  -3.581 LR: -12.051 RR:   0.000 FEB:  -6.681
USER: RMSD 3.255224
USER: SEED 192
USER: STATUS no improvement in best in 22 clusters for 5 generations
USER: GENES 20
USER: genes 0 Translation |==|  0.51974 0.48802 0.51680
USER: genes 1 Rotation |==|  0.55421 0.45612 0.55557 0.99198
USER: genes 2 Torsion [N]-C--CA-[N] |==|  0.41111
USER: genes 3 Torsion [C]-CA--N-[C] |==|  0.55727
USER: genes 4 Torsion [N]-C--CA-[N] |==|  0.44915
USER: genes 5 Torsion [C]-CA--CB-[CG] |==|  0.19047
USER: genes 6 Torsion [CA]-CB--CG-[CD] |==|  0.64888
USER: genes 7 Torsion [CB]-CG--CD-[OE1] |==|  0.28510
USER: genes 8 Torsion [C]-CA--N-[C] |==|  0.75484
USER: genes 9 Torsion [N]-C--CA-[N] |==|  0.44984
USER: genes 10 Torsion [C]-CA--N-[H1] |==|  0.24689
USER: genes 11 Torsion [C]-N--CA-[CB] |==|  0.48571
USER: genes 12 Torsion [N]-CA--C-[N] |==|  0.40419
USER: genes 13 Torsion [C]-N--CA-[CB] |==|  0.29425
USER: genes 14 Torsion [N]-CA--CB-[CG] |==|  0.92139
USER: genes 15 Torsion [CA]-CB--CG-[CD] |==|  0.79734
USER: genes 16 Torsion [CB]-CG--CD-[OE1] |==|  0.95608
USER: genes 17 Torsion [N]-CA--C-[N] |==|  0.39049
USER: genes 18 Torsion [C]-N--CA-[C] |==|  0.49201
USER: genes 19 Torsion [N]-CA--C-[O] |==|  0.32673
ROOT
ATOM      1  C   ALA Z   3      32.722  51.319  47.341  1.00 51.02 LIG 0.24  C 
ATOM      2 O    ALA Z   3      33.488  50.398  47.591  1.00 42.99 LIG-0.27  OA
ATOM      3  N   ALA Z   4      31.748  51.229  46.440  1.00 57.04 LIG-0.35  N 
ATOM      4 H    ALA Z   4      31.170  51.849  46.295  1.00 57.04 LIG 0.16  HD
ENDROOT
BRANCH 1 5
ATOM      5  CA  ALA Z   3      32.841  52.629  48.093  1.00 57.97 LIG 0.17  C 
ATOM      6  CB  ALA Z   3      33.788  53.575  47.368  1.00 56.61 LIG 0.04  C 
BRANCH 5 7
ATOM      7  N   ALA Z   3      33.340  52.309  49.420  1.00 65.45 LIG-0.35  N 
ATOM      8 H    ALA Z   3      33.736  51.547  49.474  1.00 65.45 LIG 0.16  HD
ATOM      9  C   GLU Z   2      33.185  53.135  50.446  1.00 71.12 LIG 0.24  C 
ATOM     10 O    GLU Z   2      32.783  54.293  50.324  1.00 75.44 LIG-0.27  OA
BRANCH 9 11
ATOM     11  CA  GLU Z   2      33.543  52.567  51.814  1.00 68.69 LIG 0.18  C 
BRANCH 11 12
ATOM     12  CB  GLU Z   2      32.429  51.623  52.268  1.00 66.81 LIG 0.04  C 
BRANCH 12 13
ATOM     13  CG  GLU Z   2      32.339  50.354  51.451  1.00 69.78 LIG 0.12  C 
BRANCH 13 14
ATOM     14  CD  GLU Z   2      30.953  50.118  50.897  1.00 73.92 LIG 0.17  C 
ATOM     15 OE2  GLU Z   2      30.073  49.666  51.661  1.00 73.75 LIG-0.65  OA
ATOM     16 OE1  GLU Z   2      30.747  50.373  49.693  1.00 77.56 LIG-0.65  OA
ENDBRANCH 13 14
ENDBRANCH 12 13
ENDBRANCH 11 12
BRANCH 11 17
ATOM     17  N   GLU Z   2      33.763  53.602  52.815  1.00 66.77 LIG-0.35  N 
ATOM     18 H    GLU Z   2      33.062  53.815  53.264  1.00 66.77 LIG 0.16  HD
ATOM     19  C   ALA Z   1      34.958  54.155  53.000  1.00 62.39 LIG 0.25  C 
ATOM     20 O    ALA Z   1      35.917  53.952  52.255  1.00 53.49 LIG-0.27  OA
BRANCH 19 21
ATOM     21  CA  ALA Z   1      35.078  55.083  54.211  1.00 66.83 LIG 0.27  C 
ATOM     22  CB  ALA Z   1      34.373  56.408  53.952  1.00 68.73 LIG 0.05  C 
BRANCH 21 23
ATOM     23  N   ALA Z   1      36.473  55.303  54.585  1.00 64.95 LIG-0.07  N 
ATOM     24 H3   ALA Z   1      36.951  54.579  54.387  1.00 64.95 LIG 0.28  HD
ATOM     25 H2   ALA Z   1      36.524  55.463  55.459  1.00 64.95 LIG 0.28  HD
ATOM     26 H1   ALA Z   1      36.794  56.002  54.137  1.00 64.95 LIG 0.28  HD
ENDBRANCH 21 23
ENDBRANCH 19 21
ENDBRANCH 11 17
ENDBRANCH 9 11
ENDBRANCH 5 7
ENDBRANCH 1 5
BRANCH 3 27
ATOM     27  CA  ALA Z   4      31.582  50.041  45.607  1.00 62.38 LIG 0.17  C 
ATOM     28  CB  ALA Z   4      30.314  50.154  44.754  1.00 63.33 LIG 0.04  C 
BRANCH 27 29
ATOM     29  C   ALA Z   4      32.816  49.804  44.728  1.00 62.21 LIG 0.24  C 
ATOM     30  N   GLN Z   5      33.143  48.536  44.491  1.00 63.49 LIG-0.35  N 
ATOM     31 H    GLN Z   5      32.739  47.864  44.847  1.00 63.49 LIG 0.16  HD
ATOM     32 O    ALA Z   4      33.463  50.752  44.284  1.00 60.79 LIG-0.27  OA
BRANCH 30 33
ATOM     33  CA  GLN Z   5      34.235  48.169  43.588  1.00 64.68 LIG 0.18  C 
BRANCH 33 34
ATOM     34  CB  GLN Z   5      35.451  47.683  44.381  1.00 64.60 LIG 0.04  C 
BRANCH 34 35
ATOM     35  CG  GLN Z   5      35.567  48.280  45.770  1.00 70.87 LIG 0.10  C 
BRANCH 35 36
ATOM     36  CD  GLN Z   5      35.996  49.734  45.736  1.00 74.77 LIG 0.21  C 
ATOM     37  NE2 GLN Z   5      35.824  50.432  46.852  1.00 75.28 LIG-0.37  N 
ATOM     38 22HE GLN Z   5      36.056  51.259  46.882  1.00 75.28 LIG 0.16  HD
ATOM     39 21HE GLN Z   5      35.480  50.056  47.545  1.00 75.28 LIG 0.16  HD
ATOM     40 OE1  GLN Z   5      36.483  50.224  44.716  1.00 77.42 LIG-0.27  OA
ENDBRANCH 35 36
ENDBRANCH 34 35
ENDBRANCH 33 34
BRANCH 33 41
ATOM     41  C   GLN Z   5      33.807  47.101  42.582  1.00 64.95 LIG 0.24  C 
ATOM     42 O    GLN Z   5      33.078  46.170  42.925  1.00 67.50 LIG-0.27  OA
ATOM     43  N   ALA Z   6      34.270  47.242  41.344  1.00 62.70 LIG-0.35  N 
ATOM     44 H    ALA Z   6      34.787  47.884  41.099  1.00 62.70 LIG 0.16  HD
BRANCH 43 45
ATOM     45  CA  ALA Z   6      33.937  46.303  40.273  1.00 61.33 LIG 0.16  C 
ATOM     46  CB  ALA Z   6      32.425  46.133  40.175  1.00 62.02 LIG 0.04  C 
BRANCH 45 47
ATOM     47  C   ALA Z   6      34.526  46.703  38.913  1.00 59.00 LIG 0.22  C 
ATOM     48 O    ALA Z   6      35.342  45.984  38.330  1.00 53.12 LIG-0.29  OA
ENDBRANCH 45 47
ENDBRANCH 43 45
ENDBRANCH 33 41
ENDBRANCH 30 33
ENDBRANCH 27 29
ENDBRANCH 3 27
TORSDOF 18
ENDMDL
MODEL 6
USER: ADFR SOLUTION from run 171
USER: SCORE 12.926726 LL:  -3.527 LR: -12.016 RR:   0.000 FEB:  -6.646
USER: RMSD 10.356385
USER: SEED 170
USER: STATUS no improvement in best in 24 clusters for 5 generations
USER: GENES 20
USER: genes 0 Translation |==|  0.66104 0.37087 0.43352
USER: genes 1 Rotation |==|  0.11552 0.74457 0.29421 0.49682
USER: genes 2 Torsion [N]-C--CA-[N] |==|  0.11178
USER: genes 3 Torsion [C]-CA--N-[C] |==|  0.18195
USER: genes 4 Torsion [N]-C--CA-[N] |==|  0.36343
USER: genes 5 Torsion [C]-CA--CB-[CG] |==|  0.25105
USER: genes 6 Torsion [CA]-CB--CG-[CD] |==|  0.06369
USER: genes 7 Torsion [CB]-CG--CD-[OE1] |==|  0.72061
USER: genes 8 Torsion [C]-CA--N-[C] |==|  0.78904
USER: genes 9 Torsion [N]-C--CA-[N] |==|  0.66848
USER: genes 10 Torsion [C]-CA--N-[H1] |==|  0.16805
USER: genes 11 Torsion [C]-N--CA-[CB] |==|  0.41623
USER: genes 12 Torsion [N]-CA--C-[N] |==|  0.62378
USER: genes 13 Torsion [C]-N--CA-[CB] |==|  0.52828
USER: genes 14 Torsion [N]-CA--CB-[CG] |==|  0.92640
USER: genes 15 Torsion [CA]-CB--CG-[CD] |==|  0.72961
USER: genes 16 Torsion [CB]-CG--CD-[OE1] |==|  0.91463
USER: genes 17 Torsion [N]-CA--C-[N] |==|  0.30666
USER: genes 18 Torsion [C]-N--CA-[C] |==|  0.78638
USER: genes 19 Torsion [N]-CA--C-[O] |==|  0.83980
ROOT
ATOM      1  C   ALA Z   3      35.053  49.035  45.280  1.00 51.02 LIG 0.24  C 
ATOM      2 O    ALA Z   3      36.142  48.973  45.835  1.00 42.99 LIG-0.27  OA
ATOM      3  N   ALA Z   4      34.430  50.183  45.031  1.00 57.04 LIG-0.35  N 
ATOM      4 H    ALA Z   4      33.692  50.244  44.594  1.00 57.04 LIG 0.16  HD
ENDROOT
BRANCH 1 5
ATOM      5  CA  ALA Z   3      34.366  47.767  44.814  1.00 57.97 LIG 0.17  C 
ATOM      6  CB  ALA Z   3      35.363  46.619  44.737  1.00 56.61 LIG 0.04  C 
BRANCH 5 7
ATOM      7  N   ALA Z   3      33.797  48.052  43.507  1.00 65.45 LIG-0.35  N 
ATOM      8 H    ALA Z   3      32.938  48.032  43.484  1.00 65.45 LIG 0.16  HD
ATOM      9  C   GLU Z   2      34.558  48.318  42.453  1.00 71.12 LIG 0.24  C 
ATOM     10 O    GLU Z   2      35.770  48.524  42.533  1.00 75.44 LIG-0.27  OA
BRANCH 9 11
ATOM     11  CA  GLU Z   2      33.839  48.359  41.111  1.00 68.69 LIG 0.18  C 
BRANCH 11 12
ATOM     12  CB  GLU Z   2      34.196  47.104  40.315  1.00 66.81 LIG 0.04  C 
BRANCH 12 13
ATOM     13  CG  GLU Z   2      33.251  45.947  40.552  1.00 69.78 LIG 0.12  C 
BRANCH 13 14
ATOM     14  CD  GLU Z   2      31.897  46.397  41.050  1.00 73.92 LIG 0.17  C 
ATOM     15 OE2  GLU Z   2      31.078  46.855  40.225  1.00 73.75 LIG-0.65  OA
ATOM     16 OE1  GLU Z   2      31.657  46.303  42.272  1.00 77.56 LIG-0.65  OA
ENDBRANCH 13 14
ENDBRANCH 12 13
ENDBRANCH 11 12
BRANCH 11 17
ATOM     17  N   GLU Z   2      34.157  49.552  40.337  1.00 66.77 LIG-0.35  N 
ATOM     18 H    GLU Z   2      34.702  49.416  39.686  1.00 66.77 LIG 0.16  HD
ATOM     19  C   ALA Z   1      33.636  50.739  40.632  1.00 62.39 LIG 0.25  C 
ATOM     20 O    ALA Z   1      32.978  50.952  41.651  1.00 53.49 LIG-0.27  OA
BRANCH 19 21
ATOM     21  CA  ALA Z   1      33.908  51.852  39.618  1.00 66.83 LIG 0.27  C 
ATOM     22  CB  ALA Z   1      34.646  51.310  38.401  1.00 68.73 LIG 0.05  C 
BRANCH 21 23
ATOM     23  N   ALA Z   1      34.646  52.960  40.219  1.00 64.95 LIG-0.07  N 
ATOM     24 H3   ALA Z   1      34.176  53.298  40.896  1.00 64.95 LIG 0.28  HD
ATOM     25 H2   ALA Z   1      34.782  53.592  39.607  1.00 64.95 LIG 0.28  HD
ATOM     26 H1   ALA Z   1      35.430  52.666  40.520  1.00 64.95 LIG 0.28  HD
ENDBRANCH 21 23
ENDBRANCH 19 21
ENDBRANCH 11 17
ENDBRANCH 9 11
ENDBRANCH 5 7
ENDBRANCH 1 5
BRANCH 3 27
ATOM     27  CA  ALA Z   4      34.964  51.460  45.496  1.00 62.38 LIG 0.17  C 
ATOM     28  CB  ALA Z   4      34.569  52.589  44.537  1.00 63.33 LIG 0.04  C 
BRANCH 27 29
ATOM     29  C   ALA Z   4      34.503  51.768  46.925  1.00 62.21 LIG 0.24  C 
ATOM     30  N   GLN Z   5      34.082  53.008  47.161  1.00 63.49 LIG-0.35  N 
ATOM     31 H    GLN Z   5      34.112  53.641  46.579  1.00 63.49 LIG 0.16  HD
ATOM     32 O    ALA Z   4      34.539  50.900  47.797  1.00 60.79 LIG-0.27  OA
BRANCH 30 33
ATOM     33  CA  GLN Z   5      33.521  53.408  48.452  1.00 64.68 LIG 0.18  C 
BRANCH 33 34
ATOM     34  CB  GLN Z   5      32.895  54.802  48.361  1.00 64.60 LIG 0.04  C 
BRANCH 34 35
ATOM     35  CG  GLN Z   5      33.497  55.685  47.286  1.00 70.87 LIG 0.10  C 
BRANCH 35 36
ATOM     36  CD  GLN Z   5      34.546  56.631  47.839  1.00 74.77 LIG 0.21  C 
ATOM     37  NE2 GLN Z   5      35.531  56.974  47.019  1.00 75.28 LIG-0.37  N 
ATOM     38 22HE GLN Z   5      36.146  57.511  47.287  1.00 75.28 LIG 0.16  HD
ATOM     39 21HE GLN Z   5      35.554  56.658  46.219  1.00 75.28 LIG 0.16  HD
ATOM     40 OE1  GLN Z   5      34.466  57.054  48.993  1.00 77.42 LIG-0.27  OA
ENDBRANCH 35 36
ENDBRANCH 34 35
ENDBRANCH 33 34
BRANCH 33 41
ATOM     41  C   GLN Z   5      32.487  52.404  48.959  1.00 64.95 LIG 0.24  C 
ATOM     42 O    GLN Z   5      31.395  52.290  48.403  1.00 67.50 LIG-0.27  OA
ATOM     43  N   ALA Z   6      32.839  51.683  50.020  1.00 62.70 LIG-0.35  N 
ATOM     44 H    ALA Z   6      33.596  51.764  50.420  1.00 62.70 LIG 0.16  HD
BRANCH 43 45
ATOM     45  CA  ALA Z   6      31.956  50.677  50.610  1.00 61.33 LIG 0.16  C 
ATOM     46  CB  ALA Z   6      32.769  49.678  51.425  1.00 62.02 LIG 0.04  C 
BRANCH 45 47
ATOM     47  C   ALA Z   6      30.831  51.283  51.460  1.00 59.00 LIG 0.22  C 
ATOM     48 O    ALA Z   6      31.077  52.016  52.423  1.00 53.12 LIG-0.29  OA
ENDBRANCH 45 47
ENDBRANCH 43 45
ENDBRANCH 33 41
ENDBRANCH 30 33
ENDBRANCH 27 29
ENDBRANCH 3 27
TORSDOF 18
ENDMDL
MODEL 7
USER: ADFR SOLUTION from run 103
USER: SCORE 13.656567 LL:  -3.405 LR: -11.916 RR:   0.000 FEB:  -6.547
USER: RMSD 11.339489
USER: SEED 102
USER: STATUS searching
USER: GENES 20
USER: genes 0 Translation |==|  0.48058 0.45132 0.52898
USER: genes 1 Rotation |==|  0.12416 0.77663 0.48132 0.67853
USER: genes 2 Torsion [N]-C--CA-[N] |==|  0.56208
USER: genes 3 Torsion [C]-CA--N-[C] |==|  0.72611
USER: genes 4 Torsion [N]-C--CA-[N] |==|  0.40798
USER: genes 5 Torsion [C]-CA--CB-[CG] |==|  0.92152
USER: genes 6 Torsion [CA]-CB--CG-[CD] |==|  0.78691
USER: genes 7 Torsion [CB]-CG--CD-[OE1] |==|  0.46801
USER: genes 8 Torsion [C]-CA--N-[C] |==|  0.67332
USER: genes 9 Torsion [N]-C--CA-[N] |==|  0.52214
USER: genes 10 Torsion [C]-CA--N-[H1] |==|  0.94401
USER: genes 11 Torsion [C]-N--CA-[CB] |==|  0.84221
USER: genes 12 Torsion [N]-CA--C-[N] |==|  0.43449
USER: genes 13 Torsion [C]-N--CA-[CB] |==|  0.23889
USER: genes 14 Torsion [N]-CA--CB-[CG] |==|  0.75293
USER: genes 15 Torsion [CA]-CB--CG-[CD] |==|  0.64949
USER: genes 16 Torsion [CB]-CG--CD-[OE1] |==|  0.93385
USER: genes 17 Torsion [N]-CA--C-[N] |==|  0.82509
USER: genes 18 Torsion [C]-N--CA-[C] |==|  0.15895
USER: genes 19 Torsion [N]-CA--C-[O] |==|  0.09720
ROOT
ATOM      1  C   ALA Z   3      32.076  50.604  47.642  1.00 51.02 LIG 0.24  C 
ATOM      2 O    ALA Z   3      33.275  50.391  47.770  1.00 42.99 LIG-0.27  OA
ATOM      3  N   ALA Z   4      31.348  51.231  48.562  1.00 57.04 LIG-0.35  N 
ATOM      4 H    ALA Z   4      30.519  51.435  48.460  1.00 57.04 LIG 0.16  HD
ENDROOT
BRANCH 1 5
ATOM      5  CA  ALA Z   3      31.360  50.171  46.379  1.00 57.97 LIG 0.17  C 
ATOM      6  CB  ALA Z   3      29.946  49.707  46.701  1.00 56.61 LIG 0.04  C 
BRANCH 5 7
ATOM      7  N   ALA Z   3      32.143  49.092  45.800  1.00 65.45 LIG-0.35  N 
ATOM      8 H    ALA Z   3      32.001  48.322  46.156  1.00 65.45 LIG 0.16  HD
ATOM      9  C   GLU Z   2      32.998  49.300  44.807  1.00 71.12 LIG 0.24  C 
ATOM     10 O    GLU Z   2      33.061  50.361  44.184  1.00 75.44 LIG-0.27  OA
BRANCH 9 11
ATOM     11  CA  GLU Z   2      33.915  48.132  44.467  1.00 68.69 LIG 0.18  C 
BRANCH 11 12
ATOM     12  CB  GLU Z   2      35.197  48.248  45.292  1.00 66.81 LIG 0.04  C 
BRANCH 12 13
ATOM     13  CG  GLU Z   2      35.556  49.671  45.657  1.00 69.78 LIG 0.12  C 
BRANCH 13 14
ATOM     14  CD  GLU Z   2      36.159  50.432  44.499  1.00 73.92 LIG 0.17  C 
ATOM     15 OE2  GLU Z   2      36.511  49.794  43.483  1.00 73.75 LIG-0.65  OA
ATOM     16 OE1  GLU Z   2      36.293  51.668  44.610  1.00 77.56 LIG-0.65  OA
ENDBRANCH 13 14
ENDBRANCH 12 13
ENDBRANCH 11 12
BRANCH 11 17
ATOM     17  N   GLU Z   2      34.236  48.062  43.048  1.00 66.77 LIG-0.35  N 
ATOM     18 H    GLU Z   2      34.665  48.744  42.748  1.00 66.77 LIG 0.16  HD
ATOM     19  C   ALA Z   1      33.884  47.021  42.300  1.00 62.39 LIG 0.25  C 
ATOM     20 O    ALA Z   1      33.144  46.122  42.701  1.00 53.49 LIG-0.27  OA
BRANCH 19 21
ATOM     21  CA  ALA Z   1      34.457  47.000  40.881  1.00 66.83 LIG 0.27  C 
ATOM     22  CB  ALA Z   1      34.268  48.349  40.200  1.00 68.73 LIG 0.05  C 
BRANCH 21 23
ATOM     23  N   ALA Z   1      33.873  45.928  40.079  1.00 64.95 LIG-0.07  N 
ATOM     24 H3   ALA Z   1      34.506  45.555  39.576  1.00 64.95 LIG 0.28  HD
ATOM     25 H2   ALA Z   1      33.236  46.262  39.556  1.00 64.95 LIG 0.28  HD
ATOM     26 H1   ALA Z   1      33.521  45.312  40.617  1.00 64.95 LIG 0.28  HD
ENDBRANCH 21 23
ENDBRANCH 19 21
ENDBRANCH 11 17
ENDBRANCH 9 11
ENDBRANCH 5 7
ENDBRANCH 1 5
BRANCH 3 27
ATOM     27  CA  ALA Z   4      31.916  51.631  49.846  1.00 62.38 LIG 0.17  C 
ATOM     28  CB  ALA Z   4      32.501  50.417  50.577  1.00 63.33 LIG 0.04  C 
BRANCH 27 29
ATOM     29  C   ALA Z   4      32.974  52.726  49.668  1.00 62.21 LIG 0.24  C 
ATOM     30  N   GLN Z   5      33.211  53.502  50.722  1.00 63.49 LIG-0.35  N 
ATOM     31 H    GLN Z   5      32.767  53.456  51.458  1.00 63.49 LIG 0.16  HD
ATOM     32 O    ALA Z   4      33.555  52.869  48.592  1.00 60.79 LIG-0.27  OA
BRANCH 30 33
ATOM     33  CA  GLN Z   5      34.264  54.519  50.721  1.00 64.68 LIG 0.18  C 
BRANCH 33 34
ATOM     34  CB  GLN Z   5      33.747  55.831  50.127  1.00 64.60 LIG 0.04  C 
BRANCH 34 35
ATOM     35  CG  GLN Z   5      33.910  55.941  48.624  1.00 70.87 LIG 0.10  C 
BRANCH 35 36
ATOM     36  CD  GLN Z   5      34.646  57.203  48.216  1.00 74.77 LIG 0.21  C 
ATOM     37  NE2 GLN Z   5      35.257  57.183  47.038  1.00 75.28 LIG-0.37  N 
ATOM     38 22HE GLN Z   5      35.683  57.877  46.763  1.00 75.28 LIG 0.16  HD
ATOM     39 21HE GLN Z   5      35.226  56.475  46.550  1.00 75.28 LIG 0.16  HD
ATOM     40 OE1  GLN Z   5      34.659  58.190  48.953  1.00 77.42 LIG-0.27  OA
ENDBRANCH 35 36
ENDBRANCH 34 35
ENDBRANCH 33 34
BRANCH 33 41
ATOM     41  C   GLN Z   5      34.820  54.764  52.123  1.00 64.95 LIG 0.24  C 
ATOM     42 O    GLN Z   5      35.997  54.518  52.384  1.00 67.50 LIG-0.27  OA
ATOM     43  N   ALA Z   6      33.963  55.244  53.019  1.00 62.70 LIG-0.35  N 
ATOM     44 H    ALA Z   6      33.137  55.409  52.847  1.00 62.70 LIG 0.16  HD
BRANCH 43 45
ATOM     45  CA  ALA Z   6      34.356  55.536  54.397  1.00 61.33 LIG 0.16  C 
ATOM     46  CB  ALA Z   6      34.692  54.244  55.133  1.00 62.02 LIG 0.04  C 
BRANCH 45 47
ATOM     47  C   ALA Z   6      35.518  56.534  54.496  1.00 59.00 LIG 0.22  C 
ATOM     48 O    ALA Z   6      35.639  57.462  53.692  1.00 53.12 LIG-0.29  OA
ENDBRANCH 45 47
ENDBRANCH 43 45
ENDBRANCH 33 41
ENDBRANCH 30 33
ENDBRANCH 27 29
ENDBRANCH 3 27
TORSDOF 18
ENDMDL
MODEL 8
USER: ADFR SOLUTION from run 98
USER: SCORE 15.864821 LL:  -4.771 LR: -11.787 RR:   0.000 FEB:  -6.417
USER: RMSD 8.360794
USER: SEED 97
USER: STATUS 1 or 2 clusters left
USER: GENES 20
USER: genes 0 Translation |==|  0.65267 0.39601 0.40151
USER: genes 1 Rotation |==|  0.31181 0.13855 0.44879 0.78516
USER: genes 2 Torsion [N]-C--CA-[N] |==|  0.26019
USER: genes 3 Torsion [C]-CA--N-[C] |==|  0.74075
USER: genes 4 Torsion [N]-C--CA-[N] |==|  0.37433
USER: genes 5 Torsion [C]-CA--CB-[CG] |==|  0.77122
USER: genes 6 Torsion [CA]-CB--CG-[CD] |==|  0.77324
USER: genes 7 Torsion [CB]-CG--CD-[OE1] |==|  0.89999
USER: genes 8 Torsion [C]-CA--N-[C] |==|  0.62530
USER: genes 9 Torsion [N]-C--CA-[N] |==|  0.11636
USER: genes 10 Torsion [C]-CA--N-[H1] |==|  0.94889
USER: genes 11 Torsion [C]-N--CA-[CB] |==|  0.86107
USER: genes 12 Torsion [N]-CA--C-[N] |==|  0.94922
USER: genes 13 Torsion [C]-N--CA-[CB] |==|  0.84849
USER: genes 14 Torsion [N]-CA--CB-[CG] |==|  0.87981
USER: genes 15 Torsion [CA]-CB--CG-[CD] |==|  0.30834
USER: genes 16 Torsion [CB]-CG--CD-[OE1] |==|  0.68053
USER: genes 17 Torsion [N]-CA--C-[N] |==|  0.36373
USER: genes 18 Torsion [C]-N--CA-[C] |==|  0.14478
USER: genes 19 Torsion [N]-CA--C-[O] |==|  0.67424
ROOT
ATOM      1  C   ALA Z   3      34.915  49.525  44.487  1.00 51.02 LIG 0.24  C 
ATOM      2 O    ALA Z   3      33.952  49.276  45.202  1.00 42.99 LIG-0.27  OA
ATOM      3  N   ALA Z   4      35.494  48.618  43.707  1.00 57.04 LIG-0.35  N 
ATOM      4 H    ALA Z   4      36.134  48.793  43.160  1.00 57.04 LIG 0.16  HD
ENDROOT
BRANCH 1 5
ATOM      5  CA  ALA Z   3      35.483  50.929  44.445  1.00 57.97 LIG 0.17  C 
ATOM      6  CB  ALA Z   3      35.396  51.581  45.818  1.00 56.61 LIG 0.04  C 
BRANCH 5 7
ATOM      7  N   ALA Z   3      34.704  51.669  43.467  1.00 65.45 LIG-0.35  N 
ATOM      8 H    ALA Z   3      33.990  52.030  43.784  1.00 65.45 LIG 0.16  HD
ATOM      9  C   GLU Z   2      35.079  51.766  42.198  1.00 71.12 LIG 0.24  C 
ATOM     10 O    GLU Z   2      36.185  51.404  41.793  1.00 75.44 LIG-0.27  OA
BRANCH 9 11
ATOM     11  CA  GLU Z   2      34.050  52.364  41.247  1.00 68.69 LIG 0.18  C 
BRANCH 11 12
ATOM     12  CB  GLU Z   2      33.397  51.237  40.446  1.00 66.81 LIG 0.04  C 
BRANCH 12 13
ATOM     13  CG  GLU Z   2      34.210  50.794  39.250  1.00 69.78 LIG 0.12  C 
BRANCH 13 14
ATOM     14  CD  GLU Z   2      34.018  51.695  38.052  1.00 73.92 LIG 0.17  C 
ATOM     15 OE2  GLU Z   2      35.000  51.928  37.315  1.00 73.75 LIG-0.65  OA
ATOM     16 OE1  GLU Z   2      32.885  52.180  37.854  1.00 77.56 LIG-0.65  OA
ENDBRANCH 13 14
ENDBRANCH 12 13
ENDBRANCH 11 12
BRANCH 11 17
ATOM     17  N   GLU Z   2      34.624  53.354  40.345  1.00 66.77 LIG-0.35  N 
ATOM     18 H    GLU Z   2      35.369  53.117  39.987  1.00 66.77 LIG 0.16  HD
ATOM     19  C   ALA Z   1      34.027  54.519  40.111  1.00 62.39 LIG 0.25  C 
ATOM     20 O    ALA Z   1      33.043  54.910  40.739  1.00 53.49 LIG-0.27  OA
BRANCH 19 21
ATOM     21  CA  ALA Z   1      34.645  55.368  38.999  1.00 66.83 LIG 0.27  C 
ATOM     22  CB  ALA Z   1      33.702  56.490  38.585  1.00 68.73 LIG 0.05  C 
BRANCH 21 23
ATOM     23  N   ALA Z   1      35.021  54.556  37.845  1.00 64.95 LIG-0.07  N 
ATOM     24 H3   ALA Z   1      35.812  54.826  37.536  1.00 64.95 LIG 0.28  HD
ATOM     25 H2   ALA Z   1      34.407  54.646  37.206  1.00 64.95 LIG 0.28  HD
ATOM     26 H1   ALA Z   1      35.073  53.702  38.087  1.00 64.95 LIG 0.28  HD
ENDBRANCH 21 23
ENDBRANCH 19 21
ENDBRANCH 11 17
ENDBRANCH 9 11
ENDBRANCH 5 7
ENDBRANCH 1 5
BRANCH 3 27
ATOM     27  CA  ALA Z   4      35.076  47.219  43.718  1.00 62.38 LIG 0.17  C 
ATOM     28  CB  ALA Z   4      35.021  46.685  45.154  1.00 63.33 LIG 0.04  C 
BRANCH 27 29
ATOM     29  C   ALA Z   4      33.726  47.038  43.013  1.00 62.21 LIG 0.24  C 
ATOM     30  N   GLN Z   5      32.987  48.133  42.853  1.00 63.49 LIG-0.35  N 
ATOM     31 H    GLN Z   5      33.201  48.904  43.171  1.00 63.49 LIG 0.16  HD
ATOM     32 O    ALA Z   4      33.359  45.926  42.633  1.00 60.79 LIG-0.27  OA
BRANCH 30 33
ATOM     33  CA  GLN Z   5      31.726  48.120  42.110  1.00 64.68 LIG 0.18  C 
BRANCH 33 34
ATOM     34  CB  GLN Z   5      31.933  47.549  40.706  1.00 64.60 LIG 0.04  C 
BRANCH 34 35
ATOM     35  CG  GLN Z   5      33.178  48.054  40.005  1.00 70.87 LIG 0.10  C 
BRANCH 35 36
ATOM     36  CD  GLN Z   5      34.227  46.971  39.843  1.00 74.77 LIG 0.21  C 
ATOM     37  NE2 GLN Z   5      33.914  45.952  39.053  1.00 75.28 LIG-0.37  N 
ATOM     38 22HE GLN Z   5      34.478  45.316  38.927  1.00 75.28 LIG 0.16  HD
ATOM     39 21HE GLN Z   5      33.146  45.928  38.666  1.00 75.28 LIG 0.16  HD
ATOM     40 OE1  GLN Z   5      35.312  47.053  40.420  1.00 77.42 LIG-0.27  OA
ENDBRANCH 35 36
ENDBRANCH 34 35
ENDBRANCH 33 34
BRANCH 33 41
ATOM     41  C   GLN Z   5      30.643  47.328  42.842  1.00 64.95 LIG 0.24  C 
ATOM     42 O    GLN Z   5      30.872  46.198  43.272  1.00 67.50 LIG-0.27  OA
ATOM     43  N   ALA Z   6      29.463  47.929  42.972  1.00 62.70 LIG-0.35  N 
ATOM     44 H    ALA Z   6      29.293  48.714  42.666  1.00 62.70 LIG 0.16  HD
BRANCH 43 45
ATOM     45  CA  ALA Z   6      28.336  47.297  43.657  1.00 61.33 LIG 0.16  C 
ATOM     46  CB  ALA Z   6      27.765  46.172  42.801  1.00 62.02 LIG 0.04  C 
BRANCH 45 47
ATOM     47  C   ALA Z   6      28.691  46.784  45.059  1.00 59.00 LIG 0.22  C 
ATOM     48 O    ALA Z   6      28.630  45.584  45.340  1.00 53.12 LIG-0.29  OA
ENDBRANCH 45 47
ENDBRANCH 43 45
ENDBRANCH 33 41
ENDBRANCH 30 33
ENDBRANCH 27 29
ENDBRANCH 3 27
TORSDOF 18
ENDMDL
MODEL 9
USER: ADFR SOLUTION from run 100
USER: SCORE 14.938631 LL:  -3.979 LR: -11.746 RR:   0.000 FEB:  -6.376
USER: RMSD 4.113842
USER: SEED 99
USER: STATUS no improvement in best in 22 clusters for 5 generations
USER: GENES 20
USER: genes 0 Translation |==|  0.66078 0.47489 0.45572
USER: genes 1 Rotation |==|  0.45890 0.35739 0.69426 0.93616
USER: genes 2 Torsion [N]-C--CA-[N] |==|  0.41895
USER: genes 3 Torsion [C]-CA--N-[C] |==|  0.52534
USER: genes 4 Torsion [N]-C--CA-[N] |==|  0.92645
USER: genes 5 Torsion [C]-CA--CB-[CG] |==|  0.50039
USER: genes 6 Torsion [CA]-CB--CG-[CD] |==|  0.27148
USER: genes 7 Torsion [CB]-CG--CD-[OE1] |==|  0.75104
USER: genes 8 Torsion [C]-CA--N-[C] |==|  0.75919
USER: genes 9 Torsion [N]-C--CA-[N] |==|  0.06739
USER: genes 10 Torsion [C]-CA--N-[H1] |==|  0.25164
USER: genes 11 Torsion [C]-N--CA-[CB] |==|  0.11801
USER: genes 12 Torsion [N]-CA--C-[N] |==|  0.08335
USER: genes 13 Torsion [C]-N--CA-[CB] |==|  0.85250
USER: genes 14 Torsion [N]-CA--CB-[CG] |==|  0.50567
USER: genes 15 Torsion [CA]-CB--CG-[CD] |==|  0.17527
USER: genes 16 Torsion [CB]-CG--CD-[OE1] |==|  0.84547
USER: genes 17 Torsion [N]-CA--C-[N] |==|  0.34508
USER: genes 18 Torsion [C]-N--CA-[C] |==|  0.60499
USER: genes 19 Torsion [N]-CA--C-[O] |==|  0.22653
ROOT
ATOM      1  C   ALA Z   3      35.049  51.063  45.829  1.00 51.02 LIG 0.24  C 
ATOM      2 O    ALA Z   3      35.817  50.780  46.740  1.00 42.99 LIG-0.27  OA
ATOM      3  N   ALA Z   4      34.855  50.279  44.773  1.00 57.04 LIG-0.35  N 
ATOM      4 H    ALA Z   4      34.279  50.440  44.155  1.00 57.04 LIG 0.16  HD
ENDROOT
BRANCH 1 5
ATOM      5  CA  ALA Z   3      34.244  52.346  45.888  1.00 57.97 LIG 0.17  C 
ATOM      6  CB  ALA Z   3      34.982  53.470  45.175  1.00 56.61 LIG 0.04  C 
BRANCH 5 7
ATOM      7  N   ALA Z   3      34.053  52.658  47.294  1.00 65.45 LIG-0.35  N 
ATOM      8 H    ALA Z   3      34.510  52.166  47.831  1.00 65.45 LIG 0.16  HD
ATOM      9  C   GLU Z   2      33.236  53.625  47.694  1.00 71.12 LIG 0.24  C 
ATOM     10 O    GLU Z   2      32.729  54.440  46.921  1.00 75.44 LIG-0.27  OA
BRANCH 9 11
ATOM     11  CA  GLU Z   2      32.956  53.678  49.190  1.00 68.69 LIG 0.18  C 
BRANCH 11 12
ATOM     12  CB  GLU Z   2      33.896  54.695  49.838  1.00 66.81 LIG 0.04  C 
BRANCH 12 13
ATOM     13  CG  GLU Z   2      33.707  54.830  51.332  1.00 69.78 LIG 0.12  C 
BRANCH 13 14
ATOM     14  CD  GLU Z   2      34.706  54.013  52.118  1.00 73.92 LIG 0.17  C 
ATOM     15 OE2  GLU Z   2      35.793  54.543  52.436  1.00 73.75 LIG-0.65  OA
ATOM     16 OE1  GLU Z   2      34.409  52.837  52.409  1.00 77.56 LIG-0.65  OA
ENDBRANCH 13 14
ENDBRANCH 12 13
ENDBRANCH 11 12
BRANCH 11 17
ATOM     17  N   GLU Z   2      33.097  52.381  49.837  1.00 66.77 LIG-0.35  N 
ATOM     18 H    GLU Z   2      33.877  52.235  50.171  1.00 66.77 LIG 0.16  HD
ATOM     19  C   ALA Z   1      32.092  51.513  49.895  1.00 62.39 LIG 0.25  C 
ATOM     20 O    ALA Z   1      31.032  51.668  49.288  1.00 53.49 LIG-0.27  OA
BRANCH 19 21
ATOM     21  CA  ALA Z   1      32.330  50.281  50.771  1.00 66.83 LIG 0.27  C 
ATOM     22  CB  ALA Z   1      31.027  49.800  51.396  1.00 68.73 LIG 0.05  C 
BRANCH 21 23
ATOM     23  N   ALA Z   1      33.334  50.536  51.800  1.00 64.95 LIG-0.07  N 
ATOM     24 H3   ALA Z   1      33.913  51.146  51.506  1.00 64.95 LIG 0.28  HD
ATOM     25 H2   ALA Z   1      33.768  49.781  51.986  1.00 64.95 LIG 0.28  HD
ATOM     26 H1   ALA Z   1      32.935  50.836  52.537  1.00 64.95 LIG 0.28  HD
ENDBRANCH 21 23
ENDBRANCH 19 21
ENDBRANCH 11 17
ENDBRANCH 9 11
ENDBRANCH 5 7
ENDBRANCH 1 5
BRANCH 3 27
ATOM     27  CA  ALA Z   4      35.626  49.055  44.576  1.00 62.38 LIG 0.17  C 
ATOM     28  CB  ALA Z   4      35.768  48.290  45.897  1.00 63.33 LIG 0.04  C 
BRANCH 27 29
ATOM     29  C   ALA Z   4      34.995  48.170  43.495  1.00 62.21 LIG 0.24  C 
ATOM     30  N   GLN Z   5      34.330  48.796  42.527  1.00 63.49 LIG-0.35  N 
ATOM     31 H    GLN Z   5      34.193  49.646  42.515  1.00 63.49 LIG 0.16  HD
ATOM     32 O    ALA Z   4      35.101  46.945  43.544  1.00 60.79 LIG-0.27  OA
BRANCH 30 33
ATOM     33  CA  GLN Z   5      33.766  48.082  41.381  1.00 64.68 LIG 0.18  C 
BRANCH 33 34
ATOM     34  CB  GLN Z   5      34.835  47.226  40.698  1.00 64.60 LIG 0.04  C 
BRANCH 34 35
ATOM     35  CG  GLN Z   5      34.349  46.486  39.468  1.00 70.87 LIG 0.10  C 
BRANCH 35 36
ATOM     36  CD  GLN Z   5      33.910  47.430  38.365  1.00 74.77 LIG 0.21  C 
ATOM     37  NE2 GLN Z   5      34.489  47.274  37.182  1.00 75.28 LIG-0.37  N 
ATOM     38 22HE GLN Z   5      34.269  47.784  36.525  1.00 75.28 LIG 0.16  HD
ATOM     39 21HE GLN Z   5      35.085  46.664  37.072  1.00 75.28 LIG 0.16  HD
ATOM     40 OE1  GLN Z   5      33.052  48.288  38.576  1.00 77.42 LIG-0.27  OA
ENDBRANCH 35 36
ENDBRANCH 34 35
ENDBRANCH 33 34
BRANCH 33 41
ATOM     41  C   GLN Z   5      32.577  47.209  41.784  1.00 64.95 LIG 0.24  C 
ATOM     42 O    GLN Z   5      32.694  46.354  42.661  1.00 67.50 LIG-0.27  OA
ATOM     43  N   ALA Z   6      31.440  47.429  41.132  1.00 62.70 LIG-0.35  N 
ATOM     44 H    ALA Z   6      31.353  48.018  40.511  1.00 62.70 LIG 0.16  HD
BRANCH 43 45
ATOM     45  CA  ALA Z   6      30.218  46.678  41.416  1.00 61.33 LIG 0.16  C 
ATOM     46  CB  ALA Z   6      29.368  47.425  42.438  1.00 62.02 LIG 0.04  C 
BRANCH 45 47
ATOM     47  C   ALA Z   6      29.397  46.358  40.159  1.00 59.00 LIG 0.22  C 
ATOM     48 O    ALA Z   6      29.682  45.403  39.431  1.00 53.12 LIG-0.29  OA
ENDBRANCH 45 47
ENDBRANCH 43 45
ENDBRANCH 33 41
ENDBRANCH 30 33
ENDBRANCH 27 29
ENDBRANCH 3 27
TORSDOF 18
ENDMDL
MODEL 10
USER: ADFR SOLUTION from run 132
USER: SCORE 13.599378 LL:  -3.744 LR: -11.734 RR:   0.000 FEB:  -6.365
USER: RMSD 10.886017
USER: SEED 131
USER: STATUS no improvement in best in 21 clusters for 5 generations
USER: GENES 20
USER: genes 0 Translation |==|  0.60514 0.42384 0.48083
USER: genes 1 Rotation |==|  0.05227 0.55260 0.35202 0.65771
USER: genes 2 Torsion [N]-C--CA-[N] |==|  0.09175
USER: genes 3 Torsion [C]-CA--N-[C] |==|  0.57235
USER: genes 4 Torsion [N]-C--CA-[N] |==|  0.37763
USER: genes 5 Torsion [C]-CA--CB-[CG] |==|  0.44245
USER: genes 6 Torsion [CA]-CB--CG-[CD] |==|  0.15114
USER: genes 7 Torsion [CB]-CG--CD-[OE1] |==|  0.77327
USER: genes 8 Torsion [C]-CA--N-[C] |==|  0.78461
USER: genes 9 Torsion [N]-C--CA-[N] |==|  0.98483
USER: genes 10 Torsion [C]-CA--N-[H1] |==|  0.59756
USER: genes 11 Torsion [C]-N--CA-[CB] |==|  0.54084
USER: genes 12 Torsion [N]-CA--C-[N] |==|  0.41111
USER: genes 13 Torsion [C]-N--CA-[CB] |==|  0.53730
USER: genes 14 Torsion [N]-CA--CB-[CG] |==|  0.59982
USER: genes 15 Torsion [CA]-CB--CG-[CD] |==|  0.17511
USER: genes 16 Torsion [CB]-CG--CD-[OE1] |==|  0.63529
USER: genes 17 Torsion [N]-CA--C-[N] |==|  0.77132
USER: genes 18 Torsion [C]-N--CA-[C] |==|  0.73237
USER: genes 19 Torsion [N]-CA--C-[O] |==|  0.04496
ROOT
ATOM      1  C   ALA Z   3      34.131  50.068  46.451  1.00 51.02 LIG 0.24  C 
ATOM      2 O    ALA Z   3      34.818  50.801  47.150  1.00 42.99 LIG-0.27  OA
ATOM      3  N   ALA Z   4      32.806  50.163  46.383  1.00 57.04 LIG-0.35  N 
ATOM      4 H    ALA Z   4      32.318  49.691  45.855  1.00 57.04 LIG 0.16  HD
ENDROOT
BRANCH 1 5
ATOM      5  CA  ALA Z   3      34.788  49.010  45.588  1.00 57.97 LIG 0.17  C 
ATOM      6  CB  ALA Z   3      36.221  49.405  45.259  1.00 56.61 LIG 0.04  C 
BRANCH 5 7
ATOM      7  N   ALA Z   3      33.989  48.897  44.379  1.00 65.45 LIG-0.35  N 
ATOM      8 H    ALA Z   3      33.551  49.609  44.177  1.00 65.45 LIG 0.16  HD
ATOM      9  C   GLU Z   2      33.952  47.780  43.663  1.00 71.12 LIG 0.24  C 
ATOM     10 O    GLU Z   2      34.717  46.833  43.854  1.00 75.44 LIG-0.27  OA
BRANCH 9 11
ATOM     11  CA  GLU Z   2      32.896  47.731  42.567  1.00 68.69 LIG 0.18  C 
BRANCH 11 12
ATOM     12  CB  GLU Z   2      31.711  46.895  43.054  1.00 66.81 LIG 0.04  C 
BRANCH 12 13
ATOM     13  CG  GLU Z   2      30.428  47.167  42.301  1.00 69.78 LIG 0.12  C 
BRANCH 13 14
ATOM     14  CD  GLU Z   2      30.587  47.007  40.807  1.00 73.92 LIG 0.17  C 
ATOM     15 OE2  GLU Z   2      30.236  45.930  40.281  1.00 73.75 LIG-0.65  OA
ATOM     16 OE1  GLU Z   2      31.075  47.957  40.160  1.00 77.56 LIG-0.65  OA
ENDBRANCH 13 14
ENDBRANCH 12 13
ENDBRANCH 11 12
BRANCH 11 17
ATOM     17  N   GLU Z   2      33.408  47.193  41.314  1.00 66.77 LIG-0.35  N 
ATOM     18 H    GLU Z   2      33.183  46.377  41.161  1.00 66.77 LIG 0.16  HD
ATOM     19  C   ALA Z   1      34.158  47.921  40.493  1.00 62.39 LIG 0.25  C 
ATOM     20 O    ALA Z   1      34.597  49.032  40.789  1.00 53.49 LIG-0.27  OA
BRANCH 19 21
ATOM     21  CA  ALA Z   1      34.458  47.288  39.132  1.00 66.83 LIG 0.27  C 
ATOM     22  CB  ALA Z   1      33.896  48.141  38.002  1.00 68.73 LIG 0.05  C 
BRANCH 21 23
ATOM     23  N   ALA Z   1      33.951  45.921  39.049  1.00 64.95 LIG-0.07  N 
ATOM     24 H3   ALA Z   1      33.146  45.925  38.669  1.00 64.95 LIG 0.28  HD
ATOM     25 H2   ALA Z   1      33.891  45.576  39.868  1.00 64.95 LIG 0.28  HD
ATOM     26 H1   ALA Z   1      34.507  45.427  38.561  1.00 64.95 LIG 0.28  HD
ENDBRANCH 21 23
ENDBRANCH 19 21
ENDBRANCH 11 17
ENDBRANCH 9 11
ENDBRANCH 5 7
ENDBRANCH 1 5
BRANCH 3 27
ATOM     27  CA  ALA Z   4      32.061  51.098  47.221  1.00 62.38 LIG 0.17  C 
ATOM     28  CB  ALA Z   4      30.567  50.755  47.214  1.00 63.33 LIG 0.04  C 
BRANCH 27 29
ATOM     29  C   ALA Z   4      32.612  51.119  48.652  1.00 62.21 LIG 0.24  C 
ATOM     30  N   GLN Z   5      32.532  52.277  49.303  1.00 63.49 LIG-0.35  N 
ATOM     31 H    GLN Z   5      32.247  53.007  48.946  1.00 63.49 LIG 0.16  HD
ATOM     32 O    ALA Z   4      33.109  50.109  49.150  1.00 60.79 LIG-0.27  OA
BRANCH 30 33
ATOM     33  CA  GLN Z   5      32.927  52.411  50.706  1.00 64.68 LIG 0.18  C 
BRANCH 33 34
ATOM     34  CB  GLN Z   5      32.427  53.737  51.284  1.00 64.60 LIG 0.04  C 
BRANCH 34 35
ATOM     35  CG  GLN Z   5      33.374  54.380  52.277  1.00 70.87 LIG 0.10  C 
BRANCH 35 36
ATOM     36  CD  GLN Z   5      34.700  54.759  51.645  1.00 74.77 LIG 0.21  C 
ATOM     37  NE2 GLN Z   5      34.645  55.437  50.506  1.00 75.28 LIG-0.37  N 
ATOM     38 22HE GLN Z   5      35.371  55.677  50.113  1.00 75.28 LIG 0.16  HD
ATOM     39 21HE GLN Z   5      33.883  55.636  50.161  1.00 75.28 LIG 0.16  HD
ATOM     40 OE1  GLN Z   5      35.765  54.449  52.181  1.00 77.42 LIG-0.27  OA
ENDBRANCH 35 36
ENDBRANCH 34 35
ENDBRANCH 33 34
BRANCH 33 41
ATOM     41  C   GLN Z   5      32.417  51.247  51.554  1.00 64.95 LIG 0.24  C 
ATOM     42 O    GLN Z   5      33.149  50.292  51.816  1.00 67.50 LIG-0.27  OA
ATOM     43  N   ALA Z   6      31.159  51.333  51.975  1.00 62.70 LIG-0.35  N 
ATOM     44 H    ALA Z   6      30.639  51.992  51.788  1.00 62.70 LIG 0.16  HD
BRANCH 43 45
ATOM     45  CA  ALA Z   6      30.539  50.299  52.802  1.00 61.33 LIG 0.16  C 
ATOM     46  CB  ALA Z   6      29.682  50.939  53.889  1.00 62.02 LIG 0.04  C 
BRANCH 45 47
ATOM     47  C   ALA Z   6      29.718  49.287  51.991  1.00 59.00 LIG 0.22  C 
ATOM     48 O    ALA Z   6      29.847  49.187  50.768  1.00 53.12 LIG-0.29  OA
ENDBRANCH 45 47
ENDBRANCH 43 45
ENDBRANCH 33 41
ENDBRANCH 30 33
ENDBRANCH 27 29
ENDBRANCH 3 27
TORSDOF 18
ENDMDL
MODEL 11
USER: ADFR SOLUTION from run 174
USER: SCORE 12.767893 LL:  -3.230 LR: -11.700 RR:   0.000 FEB:  -6.330
USER: RMSD 5.105051
USER: SEED 173
USER: STATUS no improvement in best in 13 clusters for 5 generations
USER: GENES 20
USER: genes 0 Translation |==|  0.60823 0.49871 0.51390
USER: genes 1 Rotation |==|  0.56630 0.32223 0.73411 0.89899
USER: genes 2 Torsion [N]-C--CA-[N] |==|  0.45821
USER: genes 3 Torsion [C]-CA--N-[C] |==|  0.50649
USER: genes 4 Torsion [N]-C--CA-[N] |==|  0.73853
USER: genes 5 Torsion [C]-CA--CB-[CG] |==|  0.18254
USER: genes 6 Torsion [CA]-CB--CG-[CD] |==|  0.30777
USER: genes 7 Torsion [CB]-CG--CD-[OE1] |==|  0.92814
USER: genes 8 Torsion [C]-CA--N-[C] |==|  0.18295
USER: genes 9 Torsion [N]-C--CA-[N] |==|  0.81138
USER: genes 10 Torsion [C]-CA--N-[H1] |==|  0.03540
USER: genes 11 Torsion [C]-N--CA-[CB] |==|  0.20341
USER: genes 12 Torsion [N]-CA--C-[N] |==|  0.96689
USER: genes 13 Torsion [C]-N--CA-[CB] |==|  0.83889
USER: genes 14 Torsion [N]-CA--CB-[CG] |==|  0.73294
USER: genes 15 Torsion [CA]-CB--CG-[CD] |==|  0.13500
USER: genes 16 Torsion [CB]-CG--CD-[OE1] |==|  0.78050
USER: genes 17 Torsion [N]-CA--C-[N] |==|  0.33334
USER: genes 18 Torsion [C]-N--CA-[C] |==|  0.16098
USER: genes 19 Torsion [N]-CA--C-[O] |==|  0.24922
ROOT
ATOM      1  C   ALA Z   3      34.182  51.528  47.269  1.00 51.02 LIG 0.24  C 
ATOM      2 O    ALA Z   3      35.067  51.202  48.050  1.00 42.99 LIG-0.27  OA
ATOM      3  N   ALA Z   4      34.168  51.156  45.992  1.00 57.04 LIG-0.35  N 
ATOM      4 H    ALA Z   4      33.525  51.331  45.449  1.00 57.04 LIG 0.16  HD
ENDROOT
BRANCH 1 5
ATOM      5  CA  ALA Z   3      33.018  52.370  47.751  1.00 57.97 LIG 0.17  C 
ATOM      6  CB  ALA Z   3      33.138  53.794  47.225  1.00 56.61 LIG 0.04  C 
BRANCH 5 7
ATOM      7  N   ALA Z   3      33.055  52.347  49.204  1.00 65.45 LIG-0.35  N 
ATOM      8 H    ALA Z   3      33.717  51.907  49.533  1.00 65.45 LIG 0.16  HD
ATOM      9  C   GLU Z   2      32.134  52.957  49.939  1.00 71.12 LIG 0.24  C 
ATOM     10 O    GLU Z   2      31.300  53.731  49.467  1.00 75.44 LIG-0.27  OA
BRANCH 9 11
ATOM     11  CA  GLU Z   2      32.166  52.648  51.430  1.00 68.69 LIG 0.18  C 
BRANCH 11 12
ATOM     12  CB  GLU Z   2      33.599  52.304  51.837  1.00 66.81 LIG 0.04  C 
BRANCH 12 13
ATOM     13  CG  GLU Z   2      34.560  53.464  51.709  1.00 69.78 LIG 0.12  C 
BRANCH 13 14
ATOM     14  CD  GLU Z   2      35.034  53.976  53.049  1.00 73.92 LIG 0.17  C 
ATOM     15 OE2  GLU Z   2      36.146  54.542  53.114  1.00 73.75 LIG-0.65  OA
ATOM     16 OE1  GLU Z   2      34.299  53.800  54.042  1.00 77.56 LIG-0.65  OA
ENDBRANCH 13 14
ENDBRANCH 12 13
ENDBRANCH 11 12
BRANCH 11 17
ATOM     17  N   GLU Z   2      31.265  51.565  51.801  1.00 66.77 LIG-0.35  N 
ATOM     18 H    GLU Z   2      30.612  51.805  52.306  1.00 66.77 LIG 0.16  HD
ATOM     19  C   ALA Z   1      31.457  50.318  51.381  1.00 62.39 LIG 0.25  C 
ATOM     20 O    ALA Z   1      32.471  49.957  50.784  1.00 53.49 LIG-0.27  OA
BRANCH 19 21
ATOM     21  CA  ALA Z   1      30.327  49.334  51.689  1.00 66.83 LIG 0.27  C 
ATOM     22  CB  ALA Z   1      29.003  49.832  51.124  1.00 68.73 LIG 0.05  C 
BRANCH 21 23
ATOM     23  N   ALA Z   1      30.213  49.074  53.122  1.00 64.95 LIG-0.07  N 
ATOM     24 H3   ALA Z   1      30.513  48.256  53.301  1.00 64.95 LIG 0.28  HD
ATOM     25 H2   ALA Z   1      29.360  49.138  53.369  1.00 64.95 LIG 0.28  HD
ATOM     26 H1   ALA Z   1      30.696  49.672  53.571  1.00 64.95 LIG 0.28  HD
ENDBRANCH 21 23
ENDBRANCH 19 21
ENDBRANCH 11 17
ENDBRANCH 9 11
ENDBRANCH 5 7
ENDBRANCH 1 5
BRANCH 3 27
ATOM     27  CA  ALA Z   4      35.270  50.402  45.402  1.00 62.38 LIG 0.17  C 
ATOM     28  CB  ALA Z   4      35.258  48.952  45.898  1.00 63.33 LIG 0.04  C 
BRANCH 27 29
ATOM     29  C   ALA Z   4      35.223  50.459  43.870  1.00 62.21 LIG 0.24  C 
ATOM     30  N   GLN Z   5      34.107  50.940  43.327  1.00 63.49 LIG-0.35  N 
ATOM     31 H    GLN Z   5      33.411  51.158  43.782  1.00 63.49 LIG 0.16  HD
ATOM     32 O    ALA Z   4      36.175  50.064  43.197  1.00 60.79 LIG-0.27  OA
BRANCH 30 33
ATOM     33  CA  GLN Z   5      33.968  51.142  41.884  1.00 64.68 LIG 0.18  C 
BRANCH 33 34
ATOM     34  CB  GLN Z   5      35.053  52.089  41.365  1.00 64.60 LIG 0.04  C 
BRANCH 34 35
ATOM     35  CG  GLN Z   5      34.614  53.535  41.247  1.00 70.87 LIG 0.10  C 
BRANCH 35 36
ATOM     36  CD  GLN Z   5      33.922  54.030  42.503  1.00 74.77 LIG 0.21  C 
ATOM     37  NE2 GLN Z   5      34.646  54.780  43.324  1.00 75.28 LIG-0.37  N 
ATOM     38 22HE GLN Z   5      34.295  55.087  44.047  1.00 75.28 LIG 0.16  HD
ATOM     39 21HE GLN Z   5      35.465  54.958  43.134  1.00 75.28 LIG 0.16  HD
ATOM     40 OE1  GLN Z   5      32.746  53.745  42.728  1.00 77.42 LIG-0.27  OA
ENDBRANCH 35 36
ENDBRANCH 34 35
ENDBRANCH 33 34
BRANCH 33 41
ATOM     41  C   GLN Z   5      34.016  49.822  41.117  1.00 64.95 LIG 0.24  C 
ATOM     42 O    GLN Z   5      35.008  49.096  41.176  1.00 67.50 LIG-0.27  OA
ATOM     43  N   ALA Z   6      32.940  49.522  40.395  1.00 62.70 LIG-0.35  N 
ATOM     44 H    ALA Z   6      32.247  50.029  40.342  1.00 62.70 LIG 0.16  HD
BRANCH 43 45
ATOM     45  CA  ALA Z   6      32.840  48.288  39.617  1.00 61.33 LIG 0.16  C 
ATOM     46  CB  ALA Z   6      33.849  48.303  38.475  1.00 62.02 LIG 0.04  C 
BRANCH 45 47
ATOM     47  C   ALA Z   6      33.003  47.021  40.469  1.00 59.00 LIG 0.22  C 
ATOM     48 O    ALA Z   6      32.033  46.472  40.998  1.00 53.12 LIG-0.29  OA
ENDBRANCH 45 47
ENDBRANCH 43 45
ENDBRANCH 33 41
ENDBRANCH 30 33
ENDBRANCH 27 29
ENDBRANCH 3 27
TORSDOF 18
ENDMDL
MODEL 12
USER: ADFR SOLUTION from run 163
USER: SCORE 14.826855 LL:  -4.148 LR: -11.685 RR:   0.000 FEB:  -6.316
USER: RMSD 11.381522
USER: SEED 162
USER: STATUS no improvement in best in 16 clusters for 5 generations
USER: GENES 20
USER: genes 0 Translation |==|  0.57043 0.39322 0.43348
USER: genes 1 Rotation |==|  0.00127 0.46793 0.49533 0.51466
USER: genes 2 Torsion [N]-C--CA-[N] |==|  0.38309
USER: genes 3 Torsion [C]-CA--N-[C] |==|  0.84117
USER: genes 4 Torsion [N]-C--CA-[N] |==|  0.33889
USER: genes 5 Torsion [C]-CA--CB-[CG] |==|  0.52168
USER: genes 6 Torsion [CA]-CB--CG-[CD] |==|  0.23467
USER: genes 7 Torsion [CB]-CG--CD-[OE1] |==|  0.15883
USER: genes 8 Torsion [C]-CA--N-[C] |==|  0.78384
USER: genes 9 Torsion [N]-C--CA-[N] |==|  0.06228
USER: genes 10 Torsion [C]-CA--N-[H1] |==|  0.69852
USER: genes 11 Torsion [C]-N--CA-[CB] |==|  0.51469
USER: genes 12 Torsion [N]-CA--C-[N] |==|  0.39538
USER: genes 13 Torsion [C]-N--CA-[CB] |==|  0.50197
USER: genes 14 Torsion [N]-CA--CB-[CG] |==|  0.72558
USER: genes 15 Torsion [CA]-CB--CG-[CD] |==|  0.72159
USER: genes 16 Torsion [CB]-CG--CD-[OE1] |==|  0.92188
USER: genes 17 Torsion [N]-CA--C-[N] |==|  0.47522
USER: genes 18 Torsion [C]-N--CA-[C] |==|  0.48483
USER: genes 19 Torsion [N]-CA--C-[O] |==|  0.76876
ROOT
ATOM      1  C   ALA Z   3      33.558  49.471  45.279  1.00 51.02 LIG 0.24  C 
ATOM      2 O    ALA Z   3      34.029  50.569  45.010  1.00 42.99 LIG-0.27  OA
ATOM      3  N   ALA Z   4      32.423  49.314  45.954  1.00 57.04 LIG-0.35  N 
ATOM      4 H    ALA Z   4      32.054  48.551  46.101  1.00 57.04 LIG 0.16  HD
ENDROOT
BRANCH 1 5
ATOM      5  CA  ALA Z   3      34.259  48.211  44.813  1.00 57.97 LIG 0.17  C 
ATOM      6  CB  ALA Z   3      35.425  47.879  45.733  1.00 56.61 LIG 0.04  C 
BRANCH 5 7
ATOM      7  N   ALA Z   3      34.720  48.462  43.457  1.00 65.45 LIG-0.35  N 
ATOM      8 H    ALA Z   3      35.567  48.362  43.348  1.00 65.45 LIG 0.16  HD
ATOM      9  C   GLU Z   2      33.887  48.815  42.487  1.00 71.12 LIG 0.24  C 
ATOM     10 O    GLU Z   2      32.661  48.779  42.605  1.00 75.44 LIG-0.27  OA
BRANCH 9 11
ATOM     11  CA  GLU Z   2      34.540  49.274  41.189  1.00 68.69 LIG 0.18  C 
BRANCH 11 12
ATOM     12  CB  GLU Z   2      34.205  50.747  40.956  1.00 66.81 LIG 0.04  C 
BRANCH 12 13
ATOM     13  CG  GLU Z   2      34.643  51.262  39.604  1.00 69.78 LIG 0.12  C 
BRANCH 13 14
ATOM     14  CD  GLU Z   2      33.632  50.974  38.518  1.00 73.92 LIG 0.17  C 
ATOM     15 OE2  GLU Z   2      34.002  50.331  37.512  1.00 73.75 LIG-0.65  OA
ATOM     16 OE1  GLU Z   2      32.469  51.402  38.665  1.00 77.56 LIG-0.65  OA
ENDBRANCH 13 14
ENDBRANCH 12 13
ENDBRANCH 11 12
BRANCH 11 17
ATOM     17  N   GLU Z   2      34.130  48.478  40.040  1.00 66.77 LIG-0.35  N 
ATOM     18 H    GLU Z   2      33.542  48.857  39.538  1.00 66.77 LIG 0.16  HD
ATOM     19  C   ALA Z   1      34.635  47.271  39.806  1.00 62.39 LIG 0.25  C 
ATOM     20 O    ALA Z   1      35.360  46.678  40.606  1.00 53.49 LIG-0.27  OA
BRANCH 19 21
ATOM     21  CA  ALA Z   1      34.256  46.641  38.464  1.00 66.83 LIG 0.27  C 
ATOM     22  CB  ALA Z   1      35.396  45.787  37.925  1.00 68.73 LIG 0.05  C 
BRANCH 21 23
ATOM     23  N   ALA Z   1      33.860  47.652  37.487  1.00 64.95 LIG-0.07  N 
ATOM     24 H3   ALA Z   1      34.288  47.507  36.720  1.00 64.95 LIG 0.28  HD
ATOM     25 H2   ALA Z   1      34.067  48.461  37.795  1.00 64.95 LIG 0.28  HD
ATOM     26 H1   ALA Z   1      32.982  47.604  37.350  1.00 64.95 LIG 0.28  HD
ENDBRANCH 21 23
ENDBRANCH 19 21
ENDBRANCH 11 17
ENDBRANCH 9 11
ENDBRANCH 5 7
ENDBRANCH 1 5
BRANCH 3 27
ATOM     27  CA  ALA Z   4      31.700  50.453  46.511  1.00 62.38 LIG 0.17  C 
ATOM     28  CB  ALA Z   4      30.505  49.976  47.345  1.00 63.33 LIG 0.04  C 
BRANCH 27 29
ATOM     29  C   ALA Z   4      32.628  51.347  47.342  1.00 62.21 LIG 0.24  C 
ATOM     30  N   GLN Z   5      32.422  52.659  47.258  1.00 63.49 LIG-0.35  N 
ATOM     31 H    GLN Z   5      31.848  53.019  46.729  1.00 63.49 LIG 0.16  HD
ATOM     32 O    ALA Z   4      33.518  50.855  48.036  1.00 60.79 LIG-0.27  OA
BRANCH 30 33
ATOM     33  CA  GLN Z   5      33.169  53.618  48.074  1.00 64.68 LIG 0.18  C 
BRANCH 33 34
ATOM     34  CB  GLN Z   5      32.712  55.049  47.780  1.00 64.60 LIG 0.04  C 
BRANCH 34 35
ATOM     35  CG  GLN Z   5      33.609  55.804  46.820  1.00 70.87 LIG 0.10  C 
BRANCH 35 36
ATOM     36  CD  GLN Z   5      34.553  56.749  47.538  1.00 74.77 LIG 0.21  C 
ATOM     37  NE2 GLN Z   5      35.704  57.015  46.934  1.00 75.28 LIG-0.37  N 
ATOM     38 22HE GLN Z   5      36.269  57.548  47.301  1.00 75.28 LIG 0.16  HD
ATOM     39 21HE GLN Z   5      35.885  56.653  46.175  1.00 75.28 LIG 0.16  HD
ATOM     40 OE1  GLN Z   5      34.246  57.241  48.625  1.00 77.42 LIG-0.27  OA
ENDBRANCH 35 36
ENDBRANCH 34 35
ENDBRANCH 33 34
BRANCH 33 41
ATOM     41  C   GLN Z   5      33.032  53.322  49.567  1.00 64.95 LIG 0.24  C 
ATOM     42 O    GLN Z   5      32.228  52.483  49.971  1.00 67.50 LIG-0.27  OA
ATOM     43  N   ALA Z   6      33.819  54.023  50.379  1.00 62.70 LIG-0.35  N 
ATOM     44 H    ALA Z   6      34.376  54.618  50.105  1.00 62.70 LIG 0.16  HD
BRANCH 43 45
ATOM     45  CA  ALA Z   6      33.804  53.841  51.830  1.00 61.33 LIG 0.16  C 
ATOM     46  CB  ALA Z   6      33.927  52.361  52.175  1.00 62.02 LIG 0.04  C 
BRANCH 45 47
ATOM     47  C   ALA Z   6      34.885  54.657  52.553  1.00 59.00 LIG 0.22  C 
ATOM     48 O    ALA Z   6      36.043  54.244  52.653  1.00 53.12 LIG-0.29  OA
ENDBRANCH 45 47
ENDBRANCH 43 45
ENDBRANCH 33 41
ENDBRANCH 30 33
ENDBRANCH 27 29
ENDBRANCH 3 27
TORSDOF 18
ENDMDL
MODEL 13
USER: ADFR SOLUTION from run 111
USER: SCORE 13.797692 LL:  -3.737 LR: -11.686 RR:   0.000 FEB:  -6.317
USER: RMSD 11.439088
USER: SEED 110
USER: STATUS no improvement in best in 17 clusters for 5 generations
USER: GENES 20
USER: genes 0 Translation |==|  0.58866 0.41098 0.45347
USER: genes 1 Rotation |==|  0.73550 0.68213 0.12362 0.64039
USER: genes 2 Torsion [N]-C--CA-[N] |==|  0.58376
USER: genes 3 Torsion [C]-CA--N-[C] |==|  0.60642
USER: genes 4 Torsion [N]-C--CA-[N] |==|  0.32823
USER: genes 5 Torsion [C]-CA--CB-[CG] |==|  0.40377
USER: genes 6 Torsion [CA]-CB--CG-[CD] |==|  0.30729
USER: genes 7 Torsion [CB]-CG--CD-[OE1] |==|  0.40410
USER: genes 8 Torsion [C]-CA--N-[C] |==|  0.79860
USER: genes 9 Torsion [N]-C--CA-[N] |==|  0.93585
USER: genes 10 Torsion [C]-CA--N-[H1] |==|  0.60502
USER: genes 11 Torsion [C]-N--CA-[CB] |==|  0.84369
USER: genes 12 Torsion [N]-CA--C-[N] |==|  0.36900
USER: genes 13 Torsion [C]-N--CA-[CB] |==|  0.20956
USER: genes 14 Torsion [N]-CA--CB-[CG] |==|  0.52021
USER: genes 15 Torsion [CA]-CB--CG-[CD] |==|  0.22600
USER: genes 16 Torsion [CB]-CG--CD-[OE1] |==|  0.49248
USER: genes 17 Torsion [N]-CA--C-[N] |==|  0.88333
USER: genes 18 Torsion [C]-N--CA-[C] |==|  0.50215
USER: genes 19 Torsion [N]-CA--C-[O] |==|  0.17879
ROOT
ATOM      1  C   ALA Z   3      33.859  49.817  45.773  1.00 51.02 LIG 0.24  C 
ATOM      2 O    ALA Z   3      32.673  50.075  45.611  1.00 42.99 LIG-0.27  OA
ATOM      3  N   ALA Z   4      34.640  50.493  46.610  1.00 57.04 LIG-0.35  N 
ATOM      4 H    ALA Z   4      35.459  50.287  46.775  1.00 57.04 LIG 0.16  HD
ENDROOT
BRANCH 1 5
ATOM      5  CA  ALA Z   3      34.493  48.663  45.024  1.00 57.97 LIG 0.17  C 
ATOM      6  CB  ALA Z   3      35.979  48.916  44.816  1.00 56.61 LIG 0.04  C 
BRANCH 5 7
ATOM      7  N   ALA Z   3      33.799  48.556  43.751  1.00 65.45 LIG-0.35  N 
ATOM      8 H    ALA Z   3      33.593  49.313  43.397  1.00 65.45 LIG 0.16  HD
ATOM      9  C   GLU Z   2      33.518  47.382  43.201  1.00 71.12 LIG 0.24  C 
ATOM     10 O    GLU Z   2      33.974  46.317  43.619  1.00 75.44 LIG-0.27  OA
BRANCH 9 11
ATOM     11  CA  GLU Z   2      32.586  47.421  41.997  1.00 68.69 LIG 0.18  C 
BRANCH 11 12
ATOM     12  CB  GLU Z   2      31.328  46.612  42.315  1.00 66.81 LIG 0.04  C 
BRANCH 12 13
ATOM     13  CG  GLU Z   2      30.071  47.178  41.693  1.00 69.78 LIG 0.12  C 
BRANCH 13 14
ATOM     14  CD  GLU Z   2      29.525  46.303  40.589  1.00 73.92 LIG 0.17  C 
ATOM     15 OE2  GLU Z   2      30.332  45.691  39.856  1.00 73.75 LIG-0.65  OA
ATOM     16 OE1  GLU Z   2      28.287  46.237  40.445  1.00 77.56 LIG-0.65  OA
ENDBRANCH 13 14
ENDBRANCH 12 13
ENDBRANCH 11 12
BRANCH 11 17
ATOM     17  N   GLU Z   2      33.213  46.918  40.782  1.00 66.77 LIG-0.35  N 
ATOM     18 H    GLU Z   2      32.927  46.147  40.529  1.00 66.77 LIG 0.16  HD
ATOM     19  C   ALA Z   1      34.145  47.611  40.135  1.00 62.39 LIG 0.25  C 
ATOM     20 O    ALA Z   1      34.652  48.640  40.583  1.00 53.49 LIG-0.27  OA
BRANCH 19 21
ATOM     21  CA  ALA Z   1      34.567  47.047  38.777  1.00 66.83 LIG 0.27  C 
ATOM     22  CB  ALA Z   1      33.896  47.807  37.641  1.00 68.73 LIG 0.05  C 
BRANCH 21 23
ATOM     23  N   ALA Z   1      34.290  45.617  38.677  1.00 64.95 LIG-0.07  N 
ATOM     24 H3   ALA Z   1      33.521  45.492  38.246  1.00 64.95 LIG 0.28  HD
ATOM     25 H2   ALA Z   1      34.233  45.267  39.494  1.00 64.95 LIG 0.28  HD
ATOM     26 H1   ALA Z   1      34.948  45.217  38.230  1.00 64.95 LIG 0.28  HD
ENDBRANCH 21 23
ENDBRANCH 19 21
ENDBRANCH 11 17
ENDBRANCH 9 11
ENDBRANCH 5 7
ENDBRANCH 1 5
BRANCH 3 27
ATOM     27  CA  ALA Z   4      34.156  51.666  47.333  1.00 62.38 LIG 0.17  C 
ATOM     28  CB  ALA Z   4      33.621  52.717  46.354  1.00 63.33 LIG 0.04  C 
BRANCH 27 29
ATOM     29  C   ALA Z   4      33.087  51.281  48.362  1.00 62.21 LIG 0.24  C 
ATOM     30  N   GLN Z   5      33.225  51.794  49.583  1.00 63.49 LIG-0.35  N 
ATOM     31 H    GLN Z   5      33.899  52.269  49.827  1.00 63.49 LIG 0.16  HD
ATOM     32 O    ALA Z   4      32.164  50.525  48.058  1.00 60.79 LIG-0.27  OA
BRANCH 30 33
ATOM     33  CA  GLN Z   5      32.224  51.589  50.631  1.00 64.68 LIG 0.18  C 
BRANCH 33 34
ATOM     34  CB  GLN Z   5      32.318  50.170  51.198  1.00 64.60 LIG 0.04  C 
BRANCH 34 35
ATOM     35  CG  GLN Z   5      31.208  49.812  52.166  1.00 70.87 LIG 0.10  C 
BRANCH 35 36
ATOM     36  CD  GLN Z   5      29.935  49.395  51.453  1.00 74.77 LIG 0.21  C 
ATOM     37  NE2 GLN Z   5      29.951  49.448  50.127  1.00 75.28 LIG-0.37  N 
ATOM     38 22HE GLN Z   5      29.254  49.217  49.680  1.00 75.28 LIG 0.16  HD
ATOM     39 21HE GLN Z   5      30.658  49.713  49.716  1.00 75.28 LIG 0.16  HD
ATOM     40 OE1  GLN Z   5      28.949  49.024  52.090  1.00 77.42 LIG-0.27  OA
ENDBRANCH 35 36
ENDBRANCH 34 35
ENDBRANCH 33 34
BRANCH 33 41
ATOM     41  C   GLN Z   5      32.363  52.612  51.758  1.00 64.95 LIG 0.24  C 
ATOM     42 O    GLN Z   5      31.368  53.140  52.253  1.00 67.50 LIG-0.27  OA
ATOM     43  N   ALA Z   6      33.603  52.886  52.152  1.00 62.70 LIG-0.35  N 
ATOM     44 H    ALA Z   6      34.303  52.528  51.805  1.00 62.70 LIG 0.16  HD
BRANCH 43 45
ATOM     45  CA  ALA Z   6      33.889  53.837  53.226  1.00 61.33 LIG 0.16  C 
ATOM     46  CB  ALA Z   6      33.156  53.428  54.499  1.00 62.02 LIG 0.04  C 
BRANCH 45 47
ATOM     47  C   ALA Z   6      35.390  54.009  53.497  1.00 59.00 LIG 0.22  C 
ATOM     48 O    ALA Z   6      36.146  54.488  52.647  1.00 53.12 LIG-0.29  OA
ENDBRANCH 45 47
ENDBRANCH 43 45
ENDBRANCH 33 41
ENDBRANCH 30 33
ENDBRANCH 27 29
ENDBRANCH 3 27
TORSDOF 18
ENDMDL
MODEL 14
USER: ADFR SOLUTION from run 153
USER: SCORE 15.143950 LL:  -4.515 LR: -11.677 RR:   0.000 FEB:  -6.308
USER: RMSD 11.047566
USER: SEED 152
USER: STATUS no improvement in best in 8 clusters for 5 generations
USER: GENES 20
USER: genes 0 Translation |==|  0.65533 0.53813 0.38204
USER: genes 1 Rotation |==|  0.20048 0.54939 0.63398 0.87403
USER: genes 2 Torsion [N]-C--CA-[N] |==|  0.93217
USER: genes 3 Torsion [C]-CA--N-[C] |==|  0.78511
USER: genes 4 Torsion [N]-C--CA-[N] |==|  0.40105
USER: genes 5 Torsion [C]-CA--CB-[CG] |==|  0.76864
USER: genes 6 Torsion [CA]-CB--CG-[CD] |==|  0.76420
USER: genes 7 Torsion [CB]-CG--CD-[OE1] |==|  0.36970
USER: genes 8 Torsion [C]-CA--N-[C] |==|  0.63361
USER: genes 9 Torsion [N]-C--CA-[N] |==|  0.14966
USER: genes 10 Torsion [C]-CA--N-[H1] |==|  0.49023
USER: genes 11 Torsion [C]-N--CA-[CB] |==|  0.83888
USER: genes 12 Torsion [N]-CA--C-[N] |==|  0.98623
USER: genes 13 Torsion [C]-N--CA-[CB] |==|  0.53368
USER: genes 14 Torsion [N]-CA--CB-[CG] |==|  0.54580
USER: genes 15 Torsion [CA]-CB--CG-[CD] |==|  0.31893
USER: genes 16 Torsion [CB]-CG--CD-[OE1] |==|  0.45671
USER: genes 17 Torsion [N]-CA--C-[N] |==|  0.29205
USER: genes 18 Torsion [C]-N--CA-[C] |==|  0.21667
USER: genes 19 Torsion [N]-CA--C-[O] |==|  0.31638
ROOT
ATOM      1  C   ALA Z   3      34.959  52.296  44.006  1.00 51.02 LIG 0.24  C 
ATOM      2 O    ALA Z   3      35.928  52.650  44.666  1.00 42.99 LIG-0.27  OA
ATOM      3  N   ALA Z   4      34.150  51.309  44.376  1.00 57.04 LIG-0.35  N 
ATOM      4 H    ALA Z   4      33.436  51.088  43.950  1.00 57.04 LIG 0.16  HD
ENDROOT
BRANCH 1 5
ATOM      5  CA  ALA Z   3      34.620  53.013  42.715  1.00 57.97 LIG 0.17  C 
ATOM      6  CB  ALA Z   3      33.831  54.283  43.002  1.00 56.61 LIG 0.04  C 
BRANCH 5 7
ATOM      7  N   ALA Z   3      33.840  52.087  41.911  1.00 65.45 LIG-0.35  N 
ATOM      8 H    ALA Z   3      32.995  52.246  41.909  1.00 65.45 LIG 0.16  HD
ATOM      9  C   GLU Z   2      34.405  51.088  41.245  1.00 71.12 LIG 0.24  C 
ATOM     10 O    GLU Z   2      35.624  50.976  41.106  1.00 75.44 LIG-0.27  OA
BRANCH 9 11
ATOM     11  CA  GLU Z   2      33.447  50.066  40.647  1.00 68.69 LIG 0.18  C 
BRANCH 11 12
ATOM     12  CB  GLU Z   2      33.255  48.920  41.641  1.00 66.81 LIG 0.04  C 
BRANCH 12 13
ATOM     13  CG  GLU Z   2      34.344  47.872  41.574  1.00 69.78 LIG 0.12  C 
BRANCH 13 14
ATOM     14  CD  GLU Z   2      34.084  46.833  40.509  1.00 73.92 LIG 0.17  C 
ATOM     15 OE2  GLU Z   2      32.949  46.314  40.443  1.00 73.75 LIG-0.65  OA
ATOM     16 OE1  GLU Z   2      35.021  46.526  39.743  1.00 77.56 LIG-0.65  OA
ENDBRANCH 13 14
ENDBRANCH 12 13
ENDBRANCH 11 12
BRANCH 11 17
ATOM     17  N   GLU Z   2      33.905  49.547  39.365  1.00 66.77 LIG-0.35  N 
ATOM     18 H    GLU Z   2      34.727  49.295  39.358  1.00 66.77 LIG 0.16  HD
ATOM     19  C   ALA Z   1      33.100  49.479  38.309  1.00 62.39 LIG 0.25  C 
ATOM     20 O    ALA Z   1      31.974  49.977  38.285  1.00 53.49 LIG-0.27  OA
BRANCH 19 21
ATOM     21  CA  ALA Z   1      33.662  48.735  37.095  1.00 66.83 LIG 0.27  C 
ATOM     22  CB  ALA Z   1      32.635  48.678  35.971  1.00 68.73 LIG 0.05  C 
BRANCH 21 23
ATOM     23  N   ALA Z   1      34.119  47.394  37.447  1.00 64.95 LIG-0.07  N 
ATOM     24 H3   ALA Z   1      33.449  46.940  37.820  1.00 64.95 LIG 0.28  HD
ATOM     25 H2   ALA Z   1      34.795  47.452  38.023  1.00 64.95 LIG 0.28  HD
ATOM     26 H1   ALA Z   1      34.391  46.970  36.713  1.00 64.95 LIG 0.28  HD
ENDBRANCH 21 23
ENDBRANCH 19 21
ENDBRANCH 11 17
ENDBRANCH 9 11
ENDBRANCH 5 7
ENDBRANCH 1 5
BRANCH 3 27
ATOM     27  CA  ALA Z   4      34.418  50.503  45.564  1.00 62.38 LIG 0.17  C 
ATOM     28  CB  ALA Z   4      35.791  49.830  45.459  1.00 63.33 LIG 0.04  C 
BRANCH 27 29
ATOM     29  C   ALA Z   4      34.317  51.347  46.840  1.00 62.21 LIG 0.24  C 
ATOM     30  N   GLN Z   5      34.113  52.652  46.676  1.00 63.49 LIG-0.35  N 
ATOM     31 H    GLN Z   5      34.096  53.039  45.908  1.00 63.49 LIG 0.16  HD
ATOM     32 O    ALA Z   4      34.432  50.825  47.949  1.00 60.79 LIG-0.27  OA
BRANCH 30 33
ATOM     33  CA  GLN Z   5      33.897  53.554  47.808  1.00 64.68 LIG 0.18  C 
BRANCH 33 34
ATOM     34  CB  GLN Z   5      33.398  54.918  47.324  1.00 64.60 LIG 0.04  C 
BRANCH 34 35
ATOM     35  CG  GLN Z   5      33.520  56.026  48.351  1.00 70.87 LIG 0.10  C 
BRANCH 35 36
ATOM     36  CD  GLN Z   5      34.500  57.101  47.923  1.00 74.77 LIG 0.21  C 
ATOM     37  NE2 GLN Z   5      35.320  56.796  46.925  1.00 75.28 LIG-0.37  N 
ATOM     38 22HE GLN Z   5      35.890  57.376  46.645  1.00 75.28 LIG 0.16  HD
ATOM     39 21HE GLN Z   5      35.281  56.020  46.559  1.00 75.28 LIG 0.16  HD
ATOM     40 OE1  GLN Z   5      34.515  58.198  48.482  1.00 77.42 LIG-0.27  OA
ENDBRANCH 35 36
ENDBRANCH 34 35
ENDBRANCH 33 34
BRANCH 33 41
ATOM     41  C   GLN Z   5      32.916  52.969  48.823  1.00 64.95 LIG 0.24  C 
ATOM     42 O    GLN Z   5      31.708  52.946  48.589  1.00 67.50 LIG-0.27  OA
ATOM     43  N   ALA Z   6      33.446  52.505  49.951  1.00 62.70 LIG-0.35  N 
ATOM     44 H    ALA Z   6      34.287  52.527  50.126  1.00 62.70 LIG 0.16  HD
BRANCH 43 45
ATOM     45  CA  ALA Z   6      32.631  51.909  51.010  1.00 61.33 LIG 0.16  C 
ATOM     46  CB  ALA Z   6      31.413  52.781  51.290  1.00 62.02 LIG 0.04  C 
BRANCH 45 47
ATOM     47  C   ALA Z   6      32.206  50.466  50.705  1.00 59.00 LIG 0.22  C 
ATOM     48 O    ALA Z   6      32.617  49.518  51.379  1.00 53.12 LIG-0.29  OA
ENDBRANCH 45 47
ENDBRANCH 43 45
ENDBRANCH 33 41
ENDBRANCH 30 33
ENDBRANCH 27 29
ENDBRANCH 3 27
TORSDOF 18
ENDMDL
MODEL 15
USER: ADFR SOLUTION from run 64
USER: SCORE 12.658141 LL:  -3.690 LR: -11.673 RR:   0.000 FEB:  -6.304
USER: RMSD 11.408498
USER: SEED 63
USER: STATUS no improvement in best in 21 clusters for 5 generations
USER: GENES 20
USER: genes 0 Translation |==|  0.65083 0.36324 0.43343
USER: genes 1 Rotation |==|  0.96035 0.30591 0.51806 0.50897
USER: genes 2 Torsion [N]-C--CA-[N] |==|  0.17604
USER: genes 3 Torsion [C]-CA--N-[C] |==|  0.18333
USER: genes 4 Torsion [N]-C--CA-[N] |==|  0.60988
USER: genes 5 Torsion [C]-CA--CB-[CG] |==|  0.46369
USER: genes 6 Torsion [CA]-CB--CG-[CD] |==|  0.18887
USER: genes 7 Torsion [CB]-CG--CD-[OE1] |==|  0.21002
USER: genes 8 Torsion [C]-CA--N-[C] |==|  0.14104
USER: genes 9 Torsion [N]-C--CA-[N] |==|  0.00794
USER: genes 10 Torsion [C]-CA--N-[H1] |==|  0.15963
USER: genes 11 Torsion [C]-N--CA-[CB] |==|  0.24903
USER: genes 12 Torsion [N]-CA--C-[N] |==|  0.56936
USER: genes 13 Torsion [C]-N--CA-[CB] |==|  0.20048
USER: genes 14 Torsion [N]-CA--CB-[CG] |==|  0.40069
USER: genes 15 Torsion [CA]-CB--CG-[CD] |==|  0.52187
USER: genes 16 Torsion [CB]-CG--CD-[OE1] |==|  0.21647
USER: genes 17 Torsion [N]-CA--C-[N] |==|  0.86661
USER: genes 18 Torsion [C]-N--CA-[C] |==|  0.57107
USER: genes 19 Torsion [N]-CA--C-[O] |==|  0.39333
ROOT
ATOM      1  C   ALA Z   3      34.885  48.886  45.277  1.00 51.02 LIG 0.24  C 
ATOM      2 O    ALA Z   3      36.045  49.142  44.981  1.00 42.99 LIG-0.27  OA
ATOM      3  N   ALA Z   4      34.082  49.755  45.884  1.00 57.04 LIG-0.35  N 
ATOM      4 H    ALA Z   4      33.251  49.608  46.048  1.00 57.04 LIG 0.16  HD
ENDROOT
BRANCH 1 5
ATOM      5  CA  ALA Z   3      34.294  47.536  44.928  1.00 57.97 LIG 0.17  C 
ATOM      6  CB  ALA Z   3      35.360  46.625  44.337  1.00 56.61 LIG 0.04  C 
BRANCH 5 7
ATOM      7  N   ALA Z   3      33.227  47.778  43.970  1.00 65.45 LIG-0.35  N 
ATOM      8 H    ALA Z   3      32.441  47.589  44.263  1.00 65.45 LIG 0.16  HD
ATOM      9  C   GLU Z   2      33.469  48.251  42.755  1.00 71.12 LIG 0.24  C 
ATOM     10 O    GLU Z   2      34.568  48.688  42.408  1.00 75.44 LIG-0.27  OA
BRANCH 9 11
ATOM     11  CA  GLU Z   2      32.291  48.227  41.789  1.00 68.69 LIG 0.18  C 
BRANCH 11 12
ATOM     12  CB  GLU Z   2      31.231  47.262  42.319  1.00 66.81 LIG 0.04  C 
BRANCH 12 13
ATOM     13  CG  GLU Z   2      29.896  47.385  41.620  1.00 69.78 LIG 0.12  C 
BRANCH 13 14
ATOM     14  CD  GLU Z   2      29.949  46.928  40.181  1.00 73.92 LIG 0.17  C 
ATOM     15 OE2  GLU Z   2      29.944  47.792  39.278  1.00 73.75 LIG-0.65  OA
ATOM     16 OE1  GLU Z   2      29.984  45.701  39.953  1.00 77.56 LIG-0.65  OA
ENDBRANCH 13 14
ENDBRANCH 12 13
ENDBRANCH 11 12
BRANCH 11 17
ATOM     17  N   GLU Z   2      32.680  47.853  40.435  1.00 66.77 LIG-0.35  N 
ATOM     18 H    GLU Z   2      32.401  48.391  39.825  1.00 66.77 LIG 0.16  HD
ATOM     19  C   ALA Z   1      33.404  46.766  40.189  1.00 62.39 LIG 0.25  C 
ATOM     20 O    ALA Z   1      33.670  45.924  41.048  1.00 53.49 LIG-0.27  OA
BRANCH 19 21
ATOM     21  CA  ALA Z   1      33.896  46.609  38.748  1.00 66.83 LIG 0.27  C 
ATOM     22  CB  ALA Z   1      35.403  46.394  38.710  1.00 68.73 LIG 0.05  C 
BRANCH 21 23
ATOM     23  N   ALA Z   1      33.516  47.751  37.921  1.00 64.95 LIG-0.07  N 
ATOM     24 H3   ALA Z   1      32.628  47.804  37.877  1.00 64.95 LIG 0.28  HD
ATOM     25 H2   ALA Z   1      33.848  47.648  37.102  1.00 64.95 LIG 0.28  HD
ATOM     26 H1   ALA Z   1      33.840  48.499  38.279  1.00 64.95 LIG 0.28  HD
ENDBRANCH 21 23
ENDBRANCH 19 21
ENDBRANCH 11 17
ENDBRANCH 9 11
ENDBRANCH 5 7
ENDBRANCH 1 5
BRANCH 3 27
ATOM     27  CA  ALA Z   4      34.563  51.060  46.330  1.00 62.38 LIG 0.17  C 
ATOM     28  CB  ALA Z   4      34.398  52.103  45.219  1.00 63.33 LIG 0.04  C 
BRANCH 27 29
ATOM     29  C   ALA Z   4      33.850  51.506  47.612  1.00 62.21 LIG 0.24  C 
ATOM     30  N   GLN Z   5      33.794  52.816  47.837  1.00 63.49 LIG-0.35  N 
ATOM     31 H    GLN Z   5      34.182  53.402  47.340  1.00 63.49 LIG 0.16  HD
ATOM     32 O    ALA Z   4      33.370  50.677  48.385  1.00 60.79 LIG-0.27  OA
BRANCH 30 33
ATOM     33  CA  GLN Z   5      33.058  53.382  48.968  1.00 64.68 LIG 0.18  C 
BRANCH 33 34
ATOM     34  CB  GLN Z   5      33.789  53.101  50.283  1.00 64.60 LIG 0.04  C 
BRANCH 34 35
ATOM     35  CG  GLN Z   5      33.690  54.220  51.302  1.00 70.87 LIG 0.10  C 
BRANCH 35 36
ATOM     36  CD  GLN Z   5      34.581  53.982  52.506  1.00 74.77 LIG 0.21  C 
ATOM     37  NE2 GLN Z   5      33.990  53.535  53.606  1.00 75.28 LIG-0.37  N 
ATOM     38 22HE GLN Z   5      34.455  53.382  54.312  1.00 75.28 LIG 0.16  HD
ATOM     39 21HE GLN Z   5      33.141  53.399  53.613  1.00 75.28 LIG 0.16  HD
ATOM     40 OE1  GLN Z   5      35.793  54.193  52.443  1.00 77.42 LIG-0.27  OA
ENDBRANCH 35 36
ENDBRANCH 34 35
ENDBRANCH 33 34
BRANCH 33 41
ATOM     41  C   GLN Z   5      32.832  54.884  48.807  1.00 64.95 LIG 0.24  C 
ATOM     42 O    GLN Z   5      31.717  55.375  48.984  1.00 67.50 LIG-0.27  OA
ATOM     43  N   ALA Z   6      33.896  55.605  48.464  1.00 62.70 LIG-0.35  N 
ATOM     44 H    ALA Z   6      34.676  55.267  48.330  1.00 62.70 LIG 0.16  HD
BRANCH 43 45
ATOM     45  CA  ALA Z   6      33.833  57.054  48.283  1.00 61.33 LIG 0.16  C 
ATOM     46  CB  ALA Z   6      33.909  57.757  49.634  1.00 62.02 LIG 0.04  C 
BRANCH 45 47
ATOM     47  C   ALA Z   6      34.911  57.593  47.332  1.00 59.00 LIG 0.22  C 
ATOM     48 O    ALA Z   6      34.668  58.503  46.535  1.00 53.12 LIG-0.29  OA
ENDBRANCH 45 47
ENDBRANCH 43 45
ENDBRANCH 33 41
ENDBRANCH 30 33
ENDBRANCH 27 29
ENDBRANCH 3 27
TORSDOF 18
ENDMDL
MODEL 16
USER: ADFR SOLUTION from run 184
USER: SCORE 12.966858 LL:  -3.236 LR: -11.675 RR:   0.000 FEB:  -6.305
USER: RMSD 10.807328
USER: SEED 183
USER: STATUS no improvement in best in 18 clusters for 5 generations
USER: GENES 20
USER: genes 0 Translation |==|  0.65521 0.35742 0.41882
USER: genes 1 Rotation |==|  0.03878 0.68915 0.53526 0.51609
USER: genes 2 Torsion [N]-C--CA-[N] |==|  0.26513
USER: genes 3 Torsion [C]-CA--N-[C] |==|  0.55615
USER: genes 4 Torsion [N]-C--CA-[N] |==|  0.18262
USER: genes 5 Torsion [C]-CA--CB-[CG] |==|  0.26144
USER: genes 6 Torsion [CA]-CB--CG-[CD] |==|  0.81284
USER: genes 7 Torsion [CB]-CG--CD-[OE1] |==|  0.74893
USER: genes 8 Torsion [C]-CA--N-[C] |==|  0.14509
USER: genes 9 Torsion [N]-C--CA-[N] |==|  0.53479
USER: genes 10 Torsion [C]-CA--N-[H1] |==|  0.02738
USER: genes 11 Torsion [C]-N--CA-[CB] |==|  0.18674
USER: genes 12 Torsion [N]-CA--C-[N] |==|  0.57044
USER: genes 13 Torsion [C]-N--CA-[CB] |==|  0.19434
USER: genes 14 Torsion [N]-CA--CB-[CG] |==|  0.59815
USER: genes 15 Torsion [CA]-CB--CG-[CD] |==|  0.27620
USER: genes 16 Torsion [CB]-CG--CD-[OE1] |==|  0.53259
USER: genes 17 Torsion [N]-CA--C-[N] |==|  0.06644
USER: genes 18 Torsion [C]-N--CA-[C] |==|  0.57469
USER: genes 19 Torsion [N]-CA--C-[O] |==|  0.97813
ROOT
ATOM      1  C   ALA Z   3      34.957  48.773  44.916  1.00 51.02 LIG 0.24  C 
ATOM      2 O    ALA Z   3      36.054  49.114  44.492  1.00 42.99 LIG-0.27  OA
ATOM      3  N   ALA Z   4      34.256  49.498  45.782  1.00 57.04 LIG-0.35  N 
ATOM      4 H    ALA Z   4      33.462  49.297  46.045  1.00 57.04 LIG 0.16  HD
ENDROOT
BRANCH 1 5
ATOM      5  CA  ALA Z   3      34.325  47.484  44.431  1.00 57.97 LIG 0.17  C 
ATOM      6  CB  ALA Z   3      35.386  46.407  44.248  1.00 56.61 LIG 0.04  C 
BRANCH 5 7
ATOM      7  N   ALA Z   3      33.665  47.785  43.172  1.00 65.45 LIG-0.35  N 
ATOM      8 H    ALA Z   3      33.952  48.498  42.785  1.00 65.45 LIG 0.16  HD
ATOM      9  C   GLU Z   2      32.705  47.014  42.680  1.00 71.12 LIG 0.24  C 
ATOM     10 O    GLU Z   2      32.429  45.905  43.142  1.00 75.44 LIG-0.27  OA
BRANCH 9 11
ATOM     11  CA  GLU Z   2      31.948  47.579  41.485  1.00 68.69 LIG 0.18  C 
BRANCH 11 12
ATOM     12  CB  GLU Z   2      30.755  46.674  41.178  1.00 66.81 LIG 0.04  C 
BRANCH 12 13
ATOM     13  CG  GLU Z   2      29.469  47.125  41.833  1.00 69.78 LIG 0.12  C 
BRANCH 13 14
ATOM     14  CD  GLU Z   2      29.510  46.998  43.339  1.00 73.92 LIG 0.17  C 
ATOM     15 OE2  GLU Z   2      29.940  47.961  44.008  1.00 73.75 LIG-0.65  OA
ATOM     16 OE1  GLU Z   2      29.122  45.928  43.852  1.00 77.56 LIG-0.65  OA
ENDBRANCH 13 14
ENDBRANCH 12 13
ENDBRANCH 11 12
BRANCH 11 17
ATOM     17  N   GLU Z   2      32.787  47.722  40.302  1.00 66.77 LIG-0.35  N 
ATOM     18 H    GLU Z   2      32.767  48.505  39.946  1.00 66.77 LIG 0.16  HD
ATOM     19  C   ALA Z   1      33.514  46.713  39.832  1.00 62.39 LIG 0.25  C 
ATOM     20 O    ALA Z   1      33.422  45.561  40.257  1.00 53.49 LIG-0.27  OA
BRANCH 19 21
ATOM     21  CA  ALA Z   1      34.488  47.066  38.706  1.00 66.83 LIG 0.27  C 
ATOM     22  CB  ALA Z   1      33.829  47.984  37.686  1.00 68.73 LIG 0.05  C 
BRANCH 21 23
ATOM     23  N   ALA Z   1      35.021  45.870  38.059  1.00 64.95 LIG-0.07  N 
ATOM     24 H3   ALA Z   1      35.883  45.781  38.262  1.00 64.95 LIG 0.28  HD
ATOM     25 H2   ALA Z   1      34.931  45.945  37.176  1.00 64.95 LIG 0.28  HD
ATOM     26 H1   ALA Z   1      34.574  45.155  38.342  1.00 64.95 LIG 0.28  HD
ENDBRANCH 21 23
ENDBRANCH 19 21
ENDBRANCH 11 17
ENDBRANCH 9 11
ENDBRANCH 5 7
ENDBRANCH 1 5
BRANCH 3 27
ATOM     27  CA  ALA Z   4      34.795  50.722  46.369  1.00 62.38 LIG 0.17  C 
ATOM     28  CB  ALA Z   4      34.956  51.807  45.298  1.00 63.33 LIG 0.04  C 
BRANCH 27 29
ATOM     29  C   ALA Z   4      33.916  51.216  47.524  1.00 62.21 LIG 0.24  C 
ATOM     30  N   GLN Z   5      33.965  52.519  47.793  1.00 63.49 LIG-0.35  N 
ATOM     31 H    GLN Z   5      34.498  53.068  47.399  1.00 63.49 LIG 0.16  HD
ATOM     32 O    ALA Z   4      33.216  50.431  48.163  1.00 60.79 LIG-0.27  OA
BRANCH 30 33
ATOM     33  CA  GLN Z   5      33.104  53.139  48.802  1.00 64.68 LIG 0.18  C 
BRANCH 33 34
ATOM     34  CB  GLN Z   5      33.517  52.701  50.208  1.00 64.60 LIG 0.04  C 
BRANCH 34 35
ATOM     35  CG  GLN Z   5      32.361  52.533  51.174  1.00 70.87 LIG 0.10  C 
BRANCH 35 36
ATOM     36  CD  GLN Z   5      31.947  51.082  51.329  1.00 74.77 LIG 0.21  C 
ATOM     37  NE2 GLN Z   5      32.771  50.171  50.828  1.00 75.28 LIG-0.37  N 
ATOM     38 22HE GLN Z   5      32.580  49.336  50.896  1.00 75.28 LIG 0.16  HD
ATOM     39 21HE GLN Z   5      33.496  50.416  50.435  1.00 75.28 LIG 0.16  HD
ATOM     40 OE1  GLN Z   5      30.897  50.785  51.900  1.00 77.42 LIG-0.27  OA
ENDBRANCH 35 36
ENDBRANCH 34 35
ENDBRANCH 33 34
BRANCH 33 41
ATOM     41  C   GLN Z   5      33.120  54.664  48.704  1.00 64.95 LIG 0.24  C 
ATOM     42 O    GLN Z   5      32.835  55.359  49.678  1.00 67.50 LIG-0.27  OA
ATOM     43  N   ALA Z   6      33.450  55.173  47.520  1.00 62.70 LIG-0.35  N 
ATOM     44 H    ALA Z   6      33.641  54.693  46.833  1.00 62.70 LIG 0.16  HD
BRANCH 43 45
ATOM     45  CA  ALA Z   6      33.517  56.614  47.280  1.00 61.33 LIG 0.16  C 
ATOM     46  CB  ALA Z   6      34.857  57.164  47.755  1.00 62.02 LIG 0.04  C 
BRANCH 45 47
ATOM     47  C   ALA Z   6      33.263  56.996  45.816  1.00 59.00 LIG 0.22  C 
ATOM     48 O    ALA Z   6      33.172  56.137  44.934  1.00 53.12 LIG-0.29  OA
ENDBRANCH 45 47
ENDBRANCH 43 45
ENDBRANCH 33 41
ENDBRANCH 30 33
ENDBRANCH 27 29
ENDBRANCH 3 27
TORSDOF 18
ENDMDL
MODEL 17
USER: ADFR SOLUTION from run 70
USER: SCORE 15.425281 LL:  -4.677 LR: -11.664 RR:   0.000 FEB:  -6.294
USER: RMSD 10.024998
USER: SEED 69
USER: STATUS 1 or 2 clusters left
USER: GENES 20
USER: genes 0 Translation |==|  0.64693 0.50670 0.39348
USER: genes 1 Rotation |==|  0.18195 0.36781 0.65574 0.82728
USER: genes 2 Torsion [N]-C--CA-[N] |==|  0.06570
USER: genes 3 Torsion [C]-CA--N-[C] |==|  0.69397
USER: genes 4 Torsion [N]-C--CA-[N] |==|  0.43532
USER: genes 5 Torsion [C]-CA--CB-[CG] |==|  0.76135
USER: genes 6 Torsion [CA]-CB--CG-[CD] |==|  0.77160
USER: genes 7 Torsion [CB]-CG--CD-[OE1] |==|  0.36817
USER: genes 8 Torsion [C]-CA--N-[C] |==|  0.64065
USER: genes 9 Torsion [N]-C--CA-[N] |==|  0.16895
USER: genes 10 Torsion [C]-CA--N-[H1] |==|  0.44338
USER: genes 11 Torsion [C]-N--CA-[CB] |==|  0.82777
USER: genes 12 Torsion [N]-CA--C-[N] |==|  0.19092
USER: genes 13 Torsion [C]-N--CA-[CB] |==|  0.16611
USER: genes 14 Torsion [N]-CA--CB-[CG] |==|  0.63094
USER: genes 15 Torsion [CA]-CB--CG-[CD] |==|  0.16968
USER: genes 16 Torsion [CB]-CG--CD-[OE1] |==|  0.75523
USER: genes 17 Torsion [N]-CA--C-[N] |==|  0.12605
USER: genes 18 Torsion [C]-N--CA-[C] |==|  0.62920
USER: genes 19 Torsion [N]-CA--C-[O] |==|  0.68173
ROOT
ATOM      1  C   ALA Z   3      34.820  51.684  44.289  1.00 51.02 LIG 0.24  C 
ATOM      2 O    ALA Z   3      35.040  52.362  45.284  1.00 42.99 LIG-0.27  OA
ATOM      3  N   ALA Z   4      34.589  50.375  44.339  1.00 57.04 LIG-0.35  N 
ATOM      4 H    ALA Z   4      34.380  49.898  43.654  1.00 57.04 LIG 0.16  HD
ENDROOT
BRANCH 1 5
ATOM      5  CA  ALA Z   3      34.775  52.336  42.922  1.00 57.97 LIG 0.17  C 
ATOM      6  CB  ALA Z   3      34.194  53.739  43.021  1.00 56.61 LIG 0.04  C 
BRANCH 5 7
ATOM      7  N   ALA Z   3      33.949  51.489  42.078  1.00 65.45 LIG-0.35  N 
ATOM      8 H    ALA Z   3      33.114  51.494  42.282  1.00 65.45 LIG 0.16  HD
ATOM      9  C   GLU Z   2      34.462  50.776  41.083  1.00 71.12 LIG 0.24  C 
ATOM     10 O    GLU Z   2      35.619  50.913  40.684  1.00 75.44 LIG-0.27  OA
BRANCH 9 11
ATOM     11  CA  GLU Z   2      33.524  49.761  40.444  1.00 68.69 LIG 0.18  C 
BRANCH 11 12
ATOM     12  CB  GLU Z   2      33.480  48.505  41.316  1.00 66.81 LIG 0.04  C 
BRANCH 12 13
ATOM     13  CG  GLU Z   2      34.585  47.519  41.013  1.00 69.78 LIG 0.12  C 
BRANCH 13 14
ATOM     14  CD  GLU Z   2      34.266  46.635  39.829  1.00 73.92 LIG 0.17  C 
ATOM     15 OE2  GLU Z   2      33.146  46.082  39.780  1.00 73.75 LIG-0.65  OA
ATOM     16 OE1  GLU Z   2      35.141  46.485  38.952  1.00 77.56 LIG-0.65  OA
ENDBRANCH 13 14
ENDBRANCH 12 13
ENDBRANCH 11 12
BRANCH 11 17
ATOM     17  N   GLU Z   2      33.911  49.414  39.083  1.00 66.77 LIG-0.35  N 
ATOM     18 H    GLU Z   2      34.736  49.187  38.996  1.00 66.77 LIG 0.16  HD
ATOM     19  C   ALA Z   1      33.043  49.451  38.077  1.00 62.39 LIG 0.25  C 
ATOM     20 O    ALA Z   1      31.908  49.917  38.182  1.00 53.49 LIG-0.27  OA
BRANCH 19 21
ATOM     21  CA  ALA Z   1      33.543  48.876  36.749  1.00 66.83 LIG 0.27  C 
ATOM     22  CB  ALA Z   1      32.512  49.080  35.647  1.00 68.73 LIG 0.05  C 
BRANCH 21 23
ATOM     23  N   ALA Z   1      33.896  47.464  36.872  1.00 64.95 LIG-0.07  N 
ATOM     24 H3   ALA Z   1      33.302  47.053  37.392  1.00 64.95 LIG 0.28  HD
ATOM     25 H2   ALA Z   1      34.707  47.391  37.231  1.00 64.95 LIG 0.28  HD
ATOM     26 H1   ALA Z   1      33.895  47.086  36.066  1.00 64.95 LIG 0.28  HD
ENDBRANCH 21 23
ENDBRANCH 19 21
ENDBRANCH 11 17
ENDBRANCH 9 11
ENDBRANCH 5 7
ENDBRANCH 1 5
BRANCH 3 27
ATOM     27  CA  ALA Z   4      34.676  49.629  45.591  1.00 62.38 LIG 0.17  C 
ATOM     28  CB  ALA Z   4      36.098  49.696  46.160  1.00 63.33 LIG 0.04  C 
BRANCH 27 29
ATOM     29  C   ALA Z   4      33.652  50.139  46.612  1.00 62.21 LIG 0.24  C 
ATOM     30  N   GLN Z   5      32.371  49.901  46.340  1.00 63.49 LIG-0.35  N 
ATOM     31 H    GLN Z   5      32.099  49.537  45.610  1.00 63.49 LIG 0.16  HD
ATOM     32 O    ALA Z   4      34.017  50.746  47.619  1.00 60.79 LIG-0.27  OA
BRANCH 30 33
ATOM     33  CA  GLN Z   5      31.300  50.243  47.277  1.00 64.68 LIG 0.18  C 
BRANCH 33 34
ATOM     34  CB  GLN Z   5      31.294  51.746  47.564  1.00 64.60 LIG 0.04  C 
BRANCH 34 35
ATOM     35  CG  GLN Z   5      31.190  52.099  49.035  1.00 70.87 LIG 0.10  C 
BRANCH 35 36
ATOM     36  CD  GLN Z   5      32.358  51.560  49.839  1.00 74.77 LIG 0.21  C 
ATOM     37  NE2 GLN Z   5      33.397  52.369  49.996  1.00 75.28 LIG-0.37  N 
ATOM     38 22HE GLN Z   5      34.081  52.109  50.448  1.00 75.28 LIG 0.16  HD
ATOM     39 21HE GLN Z   5      33.388  53.154  49.645  1.00 75.28 LIG 0.16  HD
ATOM     40 OE1  GLN Z   5      32.321  50.427  50.321  1.00 77.42 LIG-0.27  OA
ENDBRANCH 35 36
ENDBRANCH 34 35
ENDBRANCH 33 34
BRANCH 33 41
ATOM     41  C   GLN Z   5      29.930  49.805  46.759  1.00 64.95 LIG 0.24  C 
ATOM     42 O    GLN Z   5      28.963  50.563  46.823  1.00 67.50 LIG-0.27  OA
ATOM     43  N   ALA Z   6      29.859  48.578  46.252  1.00 62.70 LIG-0.35  N 
ATOM     44 H    ALA Z   6      30.529  48.040  46.212  1.00 62.70 LIG 0.16  HD
BRANCH 43 45
ATOM     45  CA  ALA Z   6      28.617  48.027  45.710  1.00 61.33 LIG 0.16  C 
ATOM     46  CB  ALA Z   6      28.641  48.077  44.187  1.00 62.02 LIG 0.04  C 
BRANCH 45 47
ATOM     47  C   ALA Z   6      28.323  46.603  46.201  1.00 59.00 LIG 0.22  C 
ATOM     48 O    ALA Z   6      28.315  45.644  45.424  1.00 53.12 LIG-0.29  OA
ENDBRANCH 45 47
ENDBRANCH 43 45
ENDBRANCH 33 41
ENDBRANCH 30 33
ENDBRANCH 27 29
ENDBRANCH 3 27
TORSDOF 18
ENDMDL
MODEL 18
USER: ADFR SOLUTION from run 1
USER: SCORE 14.511829 LL:  -4.111 LR: -11.654 RR:   0.000 FEB:  -6.285
USER: RMSD 10.586444
USER: SEED 535043
USER: STATUS no improvement in best in 6 clusters for 5 generations
USER: GENES 20
USER: genes 0 Translation |==|  0.61991 0.42060 0.46453
USER: genes 1 Rotation |==|  0.12856 0.71079 0.26264 0.60615
USER: genes 2 Torsion [N]-C--CA-[N] |==|  0.13857
USER: genes 3 Torsion [C]-CA--N-[C] |==|  0.18068
USER: genes 4 Torsion [N]-C--CA-[N] |==|  0.94990
USER: genes 5 Torsion [C]-CA--CB-[CG] |==|  0.89366
USER: genes 6 Torsion [CA]-CB--CG-[CD] |==|  0.81931
USER: genes 7 Torsion [CB]-CG--CD-[OE1] |==|  0.85974
USER: genes 8 Torsion [C]-CA--N-[C] |==|  0.79527
USER: genes 9 Torsion [N]-C--CA-[N] |==|  0.36897
USER: genes 10 Torsion [C]-CA--N-[H1] |==|  0.24686
USER: genes 11 Torsion [C]-N--CA-[CB] |==|  0.51898
USER: genes 12 Torsion [N]-CA--C-[N] |==|  0.46624
USER: genes 13 Torsion [C]-N--CA-[CB] |==|  0.52275
USER: genes 14 Torsion [N]-CA--CB-[CG] |==|  0.54296
USER: genes 15 Torsion [CA]-CB--CG-[CD] |==|  0.30062
USER: genes 16 Torsion [CB]-CG--CD-[OE1] |==|  0.98856
USER: genes 17 Torsion [N]-CA--C-[N] |==|  0.30556
USER: genes 18 Torsion [C]-N--CA-[C] |==|  0.17267
USER: genes 19 Torsion [N]-CA--C-[O] |==|  0.01420
ROOT
ATOM      1  C   ALA Z   3      34.374  50.005  46.047  1.00 51.02 LIG 0.24  C 
ATOM      2 O    ALA Z   3      35.222  50.039  46.930  1.00 42.99 LIG-0.27  OA
ATOM      3  N   ALA Z   4      33.549  51.016  45.795  1.00 57.04 LIG-0.35  N 
ATOM      4 H    ALA Z   4      32.988  51.026  45.143  1.00 57.04 LIG 0.16  HD
ENDROOT
BRANCH 1 5
ATOM      5  CA  ALA Z   3      34.250  48.781  45.163  1.00 57.97 LIG 0.17  C 
ATOM      6  CB  ALA Z   3      35.399  47.817  45.424  1.00 56.61 LIG 0.04  C 
BRANCH 5 7
ATOM      7  N   ALA Z   3      34.267  49.251  43.788  1.00 65.45 LIG-0.35  N 
ATOM      8 H    ALA Z   3      33.533  49.116  43.360  1.00 65.45 LIG 0.16  HD
ATOM      9  C   GLU Z   2      35.333  49.836  43.259  1.00 71.12 LIG 0.24  C 
ATOM     10 O    GLU Z   2      36.308  50.189  43.925  1.00 75.44 LIG-0.27  OA
BRANCH 9 11
ATOM     11  CA  GLU Z   2      35.288  50.057  41.752  1.00 68.69 LIG 0.18  C 
BRANCH 11 12
ATOM     12  CB  GLU Z   2      35.018  51.536  41.473  1.00 66.81 LIG 0.04  C 
BRANCH 12 13
ATOM     13  CG  GLU Z   2      34.034  52.164  42.435  1.00 69.78 LIG 0.12  C 
BRANCH 13 14
ATOM     14  CD  GLU Z   2      32.649  51.572  42.317  1.00 73.92 LIG 0.17  C 
ATOM     15 OE2  GLU Z   2      32.079  51.173  43.355  1.00 73.75 LIG-0.65  OA
ATOM     16 OE1  GLU Z   2      32.135  51.494  41.183  1.00 77.56 LIG-0.65  OA
ENDBRANCH 13 14
ENDBRANCH 12 13
ENDBRANCH 11 12
BRANCH 11 17
ATOM     17  N   GLU Z   2      34.287  49.231  41.091  1.00 66.77 LIG-0.35  N 
ATOM     18 H    GLU Z   2      33.589  49.660  40.831  1.00 66.77 LIG 0.16  HD
ATOM     19  C   ALA Z   1      34.462  47.925  40.914  1.00 62.39 LIG 0.25  C 
ATOM     20 O    ALA Z   1      35.392  47.295  41.419  1.00 53.49 LIG-0.27  OA
BRANCH 19 21
ATOM     21  CA  ALA Z   1      33.420  47.229  40.036  1.00 66.83 LIG 0.27  C 
ATOM     22  CB  ALA Z   1      32.428  46.446  40.887  1.00 68.73 LIG 0.05  C 
BRANCH 21 23
ATOM     23  N   ALA Z   1      34.045  46.363  39.041  1.00 64.95 LIG-0.07  N 
ATOM     24 H3   ALA Z   1      34.835  46.700  38.807  1.00 64.95 LIG 0.28  HD
ATOM     25 H2   ALA Z   1      33.521  46.309  38.323  1.00 64.95 LIG 0.28  HD
ATOM     26 H1   ALA Z   1      34.159  45.550  39.384  1.00 64.95 LIG 0.28  HD
ENDBRANCH 21 23
ENDBRANCH 19 21
ENDBRANCH 11 17
ENDBRANCH 9 11
ENDBRANCH 5 7
ENDBRANCH 1 5
BRANCH 3 27
ATOM     27  CA  ALA Z   4      33.531  52.216  46.626  1.00 62.38 LIG 0.17  C 
ATOM     28  CB  ALA Z   4      32.378  53.138  46.215  1.00 63.33 LIG 0.04  C 
BRANCH 27 29
ATOM     29  C   ALA Z   4      33.445  51.859  48.114  1.00 62.21 LIG 0.24  C 
ATOM     30  N   GLN Z   5      33.672  52.846  48.977  1.00 63.49 LIG-0.35  N 
ATOM     31 H    GLN Z   5      33.916  53.638  48.743  1.00 63.49 LIG 0.16  HD
ATOM     32 O    ALA Z   4      33.188  50.709  48.471  1.00 60.79 LIG-0.27  OA
BRANCH 30 33
ATOM     33  CA  GLN Z   5      33.523  52.667  50.422  1.00 64.68 LIG 0.18  C 
BRANCH 33 34
ATOM     34  CB  GLN Z   5      33.649  54.009  51.149  1.00 64.60 LIG 0.04  C 
BRANCH 34 35
ATOM     35  CG  GLN Z   5      33.878  53.889  52.642  1.00 70.87 LIG 0.10  C 
BRANCH 35 36
ATOM     36  CD  GLN Z   5      35.292  54.268  53.039  1.00 74.77 LIG 0.21  C 
ATOM     37  NE2 GLN Z   5      35.566  54.268  54.338  1.00 75.28 LIG-0.37  N 
ATOM     38 22HE GLN Z   5      36.356  54.472  54.610  1.00 75.28 LIG 0.16  HD
ATOM     39 21HE GLN Z   5      34.954  54.065  54.906  1.00 75.28 LIG 0.16  HD
ATOM     40 OE1  GLN Z   5      36.132  54.550  52.184  1.00 77.42 LIG-0.27  OA
ENDBRANCH 35 36
ENDBRANCH 34 35
ENDBRANCH 33 34
BRANCH 33 41
ATOM     41  C   GLN Z   5      32.194  52.002  50.780  1.00 64.95 LIG 0.24  C 
ATOM     42 O    GLN Z   5      31.132  52.609  50.647  1.00 67.50 LIG-0.27  OA
ATOM     43  N   ALA Z   6      32.266  50.756  51.237  1.00 62.70 LIG-0.35  N 
ATOM     44 H    ALA Z   6      33.005  50.329  51.341  1.00 62.70 LIG 0.16  HD
BRANCH 43 45
ATOM     45  CA  ALA Z   6      31.076  49.991  51.610  1.00 61.33 LIG 0.16  C 
ATOM     46  CB  ALA Z   6      30.353  50.673  52.766  1.00 62.02 LIG 0.04  C 
BRANCH 45 47
ATOM     47  C   ALA Z   6      30.117  49.754  50.435  1.00 59.00 LIG 0.22  C 
ATOM     48 O    ALA Z   6      30.408  50.102  49.288  1.00 53.12 LIG-0.29  OA
ENDBRANCH 45 47
ENDBRANCH 43 45
ENDBRANCH 33 41
ENDBRANCH 30 33
ENDBRANCH 27 29
ENDBRANCH 3 27
TORSDOF 18
ENDMDL
