MODEL 1
USER: ADFR SOLUTION from run 200
USER: SCORE 14.824181 LL:  -1.634 LR: -14.322 RR:   0.000 FEB:  -9.847
USER: RMSD 2.683296
USER: SEED 199
USER: STATUS no improvement in best in 6 clusters for 5 generations
USER: GENES 17
USER: genes 0 Translation |==|  0.49090 0.53556 0.47491
USER: genes 1 Rotation |==|  0.72381 0.68282 0.60765 0.89357
USER: genes 2 Torsion [C]-CA--CB-[CG] |==|  0.51205
USER: genes 3 Torsion [CA]-CB--CG-[CD2] |==|  0.54884
USER: genes 4 Torsion [N]-CA--C-[N] |==|  0.37035
USER: genes 5 Torsion [C]-N--CA-[C] |==|  0.69829
USER: genes 6 Torsion [N]-CA--CB-[OG] |==|  0.49600
USER: genes 7 Torsion [CA]-CB--OG-[HG] |==|  0.49293
USER: genes 8 Torsion [N]-CA--C-[N] |==|  0.27780
USER: genes 9 Torsion [C]-N--CA-[CB] |==|  0.48779
USER: genes 10 Torsion [N]-CA--C-[O] |==|  0.20496
USER: genes 11 Torsion [CB]-CA--N-[C] |==|  0.50000
USER: genes 12 Torsion [N]-C--CA-[N] |==|  0.41299
USER: genes 13 Torsion [C]-CA--N-[C] |==|  0.61581
USER: genes 14 Torsion [N]-C--CA-[N] |==|  0.27047
USER: genes 15 Torsion [C]-CA--CB-[OG] |==|  0.72362
USER: genes 16 Torsion [CA]-CB--OG-[HG] |==|  0.68978
ROOT
ATOM      1  CA  TRP E   4      26.855  35.699  20.002  1.00 23.90 LIG 0.18  C 
ENDROOT
BRANCH 1 2
ATOM      2  CB  TRP E   4      26.483  36.031  21.471  1.00 23.42 LIG 0.07  C 
BRANCH 2 3
ATOM      3  CG  TRP E   4      25.115  36.663  21.675  1.00 21.81 LIG-0.03  A 
ATOM      4  CD1 TRP E   4      24.060  36.639  20.787  1.00 20.28 LIG 0.10  A 
ATOM      5  NE1 TRP E   4      22.990  37.299  21.311  1.00 14.71 LIG-0.36  N 
ATOM      6 HE1  TRP E   4      22.235  37.410  20.915  1.00 14.71 LIG 0.17  HD
ATOM      7  CE2 TRP E   4      23.294  37.759  22.558  1.00 22.42 LIG 0.04  A 
ATOM      8  CD2 TRP E   4      24.634  37.386  22.831  1.00 21.74 LIG-0.00  A 
ATOM      9  CZ2 TRP E   4      22.518  38.514  23.451  1.00 22.45 LIG 0.03  A 
ATOM     10  CE3 TRP E   4      25.209  37.769  24.066  1.00 23.04 LIG 0.01  A 
ATOM     11  CZ3 TRP E   4      24.423  38.487  24.964  1.00 25.12 LIG 0.00  A 
ATOM     12  CH2 TRP E   4      23.092  38.852  24.648  1.00 23.64 LIG 0.00  A 
ENDBRANCH 2 3
ENDBRANCH 1 2
BRANCH 1 13
ATOM     13  C   TRP E   4      28.204  34.973  19.941  1.00 25.70 LIG 0.24  C 
ATOM     14  N   SER E   5      29.285  35.680  19.583  1.00 27.23 LIG-0.34  N 
ATOM     15 H    SER E   5      29.268  36.506  19.346  1.00 27.23 LIG 0.16  HD
ATOM     16 O    TRP E   4      28.263  33.775  20.227  1.00 24.65 LIG-0.27  OA
BRANCH 14 17
ATOM     17  CA  SER E   5      30.634  35.058  19.574  1.00 29.24 LIG 0.20  C 
BRANCH 17 18
ATOM     18  CB  SER E   5      31.353  35.273  18.239  1.00 29.98 LIG 0.20  C 
BRANCH 18 19
ATOM     19 OG   SER E   5      32.650  34.697  18.272  1.00 32.06 LIG-0.40  OA
ATOM     20 HG   SER E   5      33.018  34.792  17.523  1.00 32.06 LIG 0.21  HD
ENDBRANCH 18 19
ENDBRANCH 17 18
BRANCH 17 21
ATOM     21  C   SER E   5      31.525  35.564  20.696  1.00 30.08 LIG 0.24  C 
ATOM     22  N   ALA E   6      31.624  34.771  21.756  1.00 30.82 LIG-0.35  N 
ATOM     23 H    ALA E   6      31.153  34.059  21.864  1.00 30.82 LIG 0.16  HD
ATOM     24 O    SER E   5      32.109  36.644  20.594  1.00 31.18 LIG-0.27  OA
BRANCH 22 25
ATOM     25  CA  ALA E   6      32.557  35.041  22.855  1.00 31.79 LIG 0.16  C 
ATOM     26  CB  ALA E   6      32.358  34.019  23.961  1.00 32.45 LIG 0.04  C 
BRANCH 25 27
ATOM     27  C   ALA E   6      33.998  34.992  22.347  1.00 32.63 LIG 0.22  C 
ATOM     28 O    ALA E   6      34.455  35.907  21.654  1.00 33.08 LIG-0.29  OA
ENDBRANCH 25 27
ENDBRANCH 22 25
ENDBRANCH 17 21
ENDBRANCH 14 17
ENDBRANCH 1 13
BRANCH 1 29
ATOM     29  N   TRP E   4      25.825  34.892  19.321  1.00 23.46 LIG-0.35  N 
ATOM     30  C   SER E   3      25.914  34.477  18.047  1.00 23.52 LIG 0.24  C 
ATOM     31 O    SER E   3      26.710  34.952  17.216  1.00 23.44 LIG-0.27  OA
ATOM     32 H    TRP E   4      25.151  34.709  19.823  1.00 23.46 LIG 0.16  HD
BRANCH 30 33
ATOM     33  CA  SER E   3      24.929  33.366  17.636  1.00 23.60 LIG 0.20  C 
BRANCH 33 34
ATOM     34  N   SER E   3      24.503  33.406  16.221  1.00 22.15 LIG-0.34  N 
ATOM     35  C   ALA E   2      23.225  33.183  15.875  1.00 22.11 LIG 0.26  C 
ATOM     36 O    ALA E   2      22.338  32.886  16.668  1.00 20.14 LIG-0.27  OA
ATOM     37 H    SER E   3      25.132  33.581  15.661  1.00 22.15 LIG 0.16  HD
BRANCH 35 38
ATOM     38  CA  ALA E   2      22.846  33.327  14.425  1.00 21.91 LIG 0.40  C 
ATOM     39  N   ALA E   2      22.848  31.951  13.781  1.00 22.04 LIG 0.61  N 
ATOM     40  CB  ALA E   2      21.429  33.970  14.343  1.00 22.52 LIG 0.06  C 
ENDBRANCH 35 38
ENDBRANCH 33 34
BRANCH 33 41
ATOM     41  CB  SER E   3      25.529  31.999  17.985  1.00 24.43 LIG 0.20  C 
BRANCH 41 42
ATOM     42 OG   SER E   3      26.110  31.387  16.838  1.00 28.93 LIG-0.40  OA
ATOM     43 HG   SER E   3      25.658  30.714  16.621  1.00 28.93 LIG 0.21  HD
ENDBRANCH 41 42
ENDBRANCH 33 41
ENDBRANCH 30 33
ENDBRANCH 1 29
TORSDOF 15
ENDMDL
MODEL 2
USER: ADFR SOLUTION from run 198
USER: SCORE 14.300534 LL:  -1.837 LR: -14.088 RR:   0.000 FEB:  -9.614
USER: RMSD 4.259205
USER: SEED 197
USER: STATUS no improvement in best in 10 clusters for 5 generations
USER: GENES 17
USER: genes 0 Translation |==|  0.48969 0.53548 0.47801
USER: genes 1 Rotation |==|  0.71814 0.68145 0.60742 0.89743
USER: genes 2 Torsion [C]-CA--CB-[CG] |==|  0.51146
USER: genes 3 Torsion [CA]-CB--CG-[CD2] |==|  0.53817
USER: genes 4 Torsion [N]-CA--C-[N] |==|  0.17141
USER: genes 5 Torsion [C]-N--CA-[C] |==|  0.67656
USER: genes 6 Torsion [N]-CA--CB-[OG] |==|  0.77502
USER: genes 7 Torsion [CA]-CB--OG-[HG] |==|  0.83685
USER: genes 8 Torsion [N]-CA--C-[N] |==|  0.97563
USER: genes 9 Torsion [C]-N--CA-[CB] |==|  0.86490
USER: genes 10 Torsion [N]-CA--C-[O] |==|  0.39325
USER: genes 11 Torsion [CB]-CA--N-[C] |==|  0.48333
USER: genes 12 Torsion [N]-C--CA-[N] |==|  0.42332
USER: genes 13 Torsion [C]-CA--N-[C] |==|  0.60799
USER: genes 14 Torsion [N]-C--CA-[N] |==|  0.28570
USER: genes 15 Torsion [C]-CA--CB-[OG] |==|  0.73270
USER: genes 16 Torsion [CA]-CB--OG-[HG] |==|  0.65280
ROOT
ATOM      1  CA  TRP E   4      26.833  35.698  20.067  1.00 23.90 LIG 0.18  C 
ENDROOT
BRANCH 1 2
ATOM      2  CB  TRP E   4      26.439  36.064  21.522  1.00 23.42 LIG 0.07  C 
BRANCH 2 3
ATOM      3  CG  TRP E   4      25.069  36.702  21.691  1.00 21.81 LIG-0.03  A 
ATOM      4  CD1 TRP E   4      24.053  36.723  20.757  1.00 20.28 LIG 0.10  A 
ATOM      5  NE1 TRP E   4      22.967  37.375  21.260  1.00 14.71 LIG-0.36  N 
ATOM      6 HE1  TRP E   4      22.231  37.509  20.836  1.00 14.71 LIG 0.17  HD
ATOM      7  CE2 TRP E   4      23.221  37.784  22.535  1.00 22.42 LIG 0.04  A 
ATOM      8  CD2 TRP E   4      24.545  37.388  22.851  1.00 21.74 LIG-0.00  A 
ATOM      9  CZ2 TRP E   4      22.414  38.514  23.422  1.00 22.45 LIG 0.03  A 
ATOM     10  CE3 TRP E   4      25.069  37.718  24.124  1.00 23.04 LIG 0.01  A 
ATOM     11  CZ3 TRP E   4      24.252  38.411  25.013  1.00 25.12 LIG 0.00  A 
ATOM     12  CH2 TRP E   4      22.939  38.801  24.654  1.00 23.64 LIG 0.00  A 
ENDBRANCH 2 3
ENDBRANCH 1 2
BRANCH 1 13
ATOM     13  C   TRP E   4      28.183  34.974  20.043  1.00 25.70 LIG 0.24  C 
ATOM     14  N   SER E   5      28.735  34.707  18.851  1.00 27.23 LIG-0.34  N 
ATOM     15 H    SER E   5      28.363  34.878  18.095  1.00 27.23 LIG 0.16  HD
ATOM     16 O    TRP E   4      28.727  34.665  21.107  1.00 24.65 LIG-0.27  OA
BRANCH 14 17
ATOM     17  CA  SER E   5      30.074  34.073  18.755  1.00 29.24 LIG 0.20  C 
BRANCH 17 18
ATOM     18  CB  SER E   5      30.024  32.739  18.005  1.00 29.98 LIG 0.20  C 
BRANCH 18 19
ATOM     19 OG   SER E   5      29.586  31.699  18.865  1.00 32.06 LIG-0.40  OA
ATOM     20 HG   SER E   5      30.108  31.639  19.521  1.00 32.06 LIG 0.21  HD
ENDBRANCH 18 19
ENDBRANCH 17 18
BRANCH 17 21
ATOM     21  C   SER E   5      31.105  34.970  18.089  1.00 30.08 LIG 0.24  C 
ATOM     22  N   ALA E   6      30.631  36.082  17.538  1.00 30.82 LIG-0.35  N 
ATOM     23 H    ALA E   6      29.792  36.259  17.469  1.00 30.82 LIG 0.16  HD
ATOM     24 O    SER E   5      32.296  34.659  18.083  1.00 31.18 LIG-0.27  OA
BRANCH 22 25
ATOM     25  CA  ALA E   6      31.508  37.122  16.990  1.00 31.79 LIG 0.16  C 
ATOM     26  CB  ALA E   6      32.595  37.459  17.996  1.00 32.45 LIG 0.04  C 
BRANCH 25 27
ATOM     27  C   ALA E   6      32.134  36.648  15.678  1.00 32.63 LIG 0.22  C 
ATOM     28 O    ALA E   6      32.287  37.429  14.733  1.00 33.08 LIG-0.29  OA
ENDBRANCH 25 27
ENDBRANCH 22 25
ENDBRANCH 17 21
ENDBRANCH 14 17
ENDBRANCH 1 13
BRANCH 1 29
ATOM     29  N   TRP E   4      25.814  34.873  19.391  1.00 23.46 LIG-0.35  N 
ATOM     30  C   SER E   3      25.866  34.524  18.095  1.00 23.52 LIG 0.24  C 
ATOM     31 O    SER E   3      26.600  35.078  17.256  1.00 23.44 LIG-0.27  OA
ATOM     32 H    TRP E   4      25.172  34.631  19.911  1.00 23.46 LIG 0.16  HD
BRANCH 30 33
ATOM     33  CA  SER E   3      24.919  33.385  17.671  1.00 23.60 LIG 0.20  C 
BRANCH 33 34
ATOM     34  N   SER E   3      24.498  33.423  16.255  1.00 22.15 LIG-0.34  N 
ATOM     35  C   ALA E   2      23.242  33.106  15.897  1.00 22.11 LIG 0.26  C 
ATOM     36 O    ALA E   2      22.379  32.722  16.678  1.00 20.14 LIG-0.27  OA
ATOM     37 H    SER E   3      25.113  33.660  15.703  1.00 22.15 LIG 0.16  HD
BRANCH 35 38
ATOM     38  CA  ALA E   2      22.860  33.253  14.447  1.00 21.91 LIG 0.40  C 
ATOM     39  N   ALA E   2      22.842  31.876  13.806  1.00 22.04 LIG 0.61  N 
ATOM     40  CB  ALA E   2      21.450  33.913  14.370  1.00 22.52 LIG 0.06  C 
ENDBRANCH 35 38
ENDBRANCH 33 34
BRANCH 33 41
ATOM     41  CB  SER E   3      25.562  32.035  18.012  1.00 24.43 LIG 0.20  C 
BRANCH 41 42
ATOM     42 OG   SER E   3      26.231  31.487  16.881  1.00 28.93 LIG-0.40  OA
ATOM     43 HG   SER E   3      25.939  30.714  16.730  1.00 28.93 LIG 0.21  HD
ENDBRANCH 41 42
ENDBRANCH 33 41
ENDBRANCH 30 33
ENDBRANCH 1 29
TORSDOF 15
ENDMDL
MODEL 3
USER: ADFR SOLUTION from run 49
USER: SCORE 14.848545 LL:  -1.630 LR: -14.008 RR:   0.000 FEB:  -9.533
USER: RMSD 8.380310
USER: SEED 48
USER: STATUS no improvement in best in 2 clusters for 5 generations
USER: GENES 17
USER: genes 0 Translation |==|  0.43621 0.51974 0.47920
USER: genes 1 Rotation |==|  0.31359 0.96174 0.47678 0.53879
USER: genes 2 Torsion [C]-CA--CB-[CG] |==|  0.40788
USER: genes 3 Torsion [CA]-CB--CG-[CD2] |==|  0.21237
USER: genes 4 Torsion [N]-CA--C-[N] |==|  0.37830
USER: genes 5 Torsion [C]-N--CA-[C] |==|  0.57548
USER: genes 6 Torsion [N]-CA--CB-[OG] |==|  0.41904
USER: genes 7 Torsion [CA]-CB--OG-[HG] |==|  0.68500
USER: genes 8 Torsion [N]-CA--C-[N] |==|  0.34601
USER: genes 9 Torsion [C]-N--CA-[CB] |==|  0.84661
USER: genes 10 Torsion [N]-CA--C-[O] |==|  0.83614
USER: genes 11 Torsion [CB]-CA--N-[C] |==|  0.57349
USER: genes 12 Torsion [N]-C--CA-[N] |==|  0.39444
USER: genes 13 Torsion [C]-CA--N-[C] |==|  0.70428
USER: genes 14 Torsion [N]-C--CA-[N] |==|  0.31411
USER: genes 15 Torsion [C]-CA--CB-[OG] |==|  0.64556
USER: genes 16 Torsion [CA]-CB--OG-[HG] |==|  0.90713
ROOT
ATOM      1  CA  TRP E   4      25.830  35.450  20.092  1.00 23.90 LIG 0.18  C 
ENDROOT
BRANCH 1 2
ATOM      2  CB  TRP E   4      25.264  36.885  19.929  1.00 23.42 LIG 0.07  C 
BRANCH 2 3
ATOM      3  CG  TRP E   4      24.273  37.326  20.995  1.00 21.81 LIG-0.03  A 
ATOM      4  CD1 TRP E   4      22.901  37.385  20.865  1.00 20.28 LIG 0.10  A 
ATOM      5  NE1 TRP E   4      22.338  37.817  22.029  1.00 14.71 LIG-0.36  N 
ATOM      6 HE1  TRP E   4      21.496  37.934  22.157  1.00 14.71 LIG 0.17  HD
ATOM      7  CE2 TRP E   4      23.309  38.035  22.961  1.00 22.42 LIG 0.04  A 
ATOM      8  CD2 TRP E   4      24.555  37.745  22.350  1.00 21.74 LIG-0.00  A 
ATOM      9  CZ2 TRP E   4      23.200  38.510  24.277  1.00 22.45 LIG 0.03  A 
ATOM     10  CE3 TRP E   4      25.739  37.916  23.105  1.00 23.04 LIG 0.01  A 
ATOM     11  CZ3 TRP E   4      25.624  38.354  24.422  1.00 25.12 LIG 0.00  A 
ATOM     12  CH2 TRP E   4      24.360  38.647  24.991  1.00 23.64 LIG 0.00  A 
ENDBRANCH 2 3
ENDBRANCH 1 2
BRANCH 1 13
ATOM     13  C   TRP E   4      26.092  34.817  18.721  1.00 25.70 LIG 0.24  C 
ATOM     14  N   SER E   5      25.174  33.975  18.228  1.00 27.23 LIG-0.34  N 
ATOM     15 H    SER E   5      24.463  33.733  18.648  1.00 27.23 LIG 0.16  HD
ATOM     16 O    TRP E   4      27.125  35.101  18.108  1.00 24.65 LIG-0.27  OA
BRANCH 14 17
ATOM     17  CA  SER E   5      25.329  33.383  16.875  1.00 29.24 LIG 0.20  C 
BRANCH 17 18
ATOM     18  CB  SER E   5      26.216  32.135  16.895  1.00 29.98 LIG 0.20  C 
BRANCH 18 19
ATOM     19 OG   SER E   5      25.843  31.241  15.857  1.00 32.06 LIG-0.40  OA
ATOM     20 HG   SER E   5      25.526  30.539  16.192  1.00 32.06 LIG 0.21  HD
ENDBRANCH 18 19
ENDBRANCH 17 18
BRANCH 17 21
ATOM     21  C   SER E   5      24.000  33.028  16.231  1.00 30.08 LIG 0.24  C 
ATOM     22  N   ALA E   6      23.774  33.566  15.037  1.00 30.82 LIG-0.35  N 
ATOM     23 H    ALA E   6      24.290  34.152  14.675  1.00 30.82 LIG 0.16  HD
ATOM     24 O    SER E   5      23.206  32.280  16.803  1.00 31.18 LIG-0.27  OA
BRANCH 22 25
ATOM     25  CA  ALA E   6      22.612  33.204  14.219  1.00 31.79 LIG 0.16  C 
ATOM     26  CB  ALA E   6      22.581  31.700  14.008  1.00 32.45 LIG 0.04  C 
BRANCH 25 27
ATOM     27  C   ALA E   6      21.324  33.666  14.899  1.00 32.63 LIG 0.22  C 
ATOM     28 O    ALA E   6      21.026  33.264  16.029  1.00 33.08 LIG-0.29  OA
ENDBRANCH 25 27
ENDBRANCH 22 25
ENDBRANCH 17 21
ENDBRANCH 14 17
ENDBRANCH 1 13
BRANCH 1 29
ATOM     29  N   TRP E   4      27.062  35.411  20.902  1.00 23.46 LIG-0.35  N 
ATOM     30  C   SER E   3      28.008  34.464  20.790  1.00 23.52 LIG 0.24  C 
ATOM     31 O    SER E   3      27.833  33.373  20.217  1.00 23.44 LIG-0.27  OA
ATOM     32 H    TRP E   4      27.121  36.062  21.462  1.00 23.46 LIG 0.16  HD
BRANCH 30 33
ATOM     33  CA  SER E   3      29.361  34.788  21.453  1.00 23.60 LIG 0.20  C 
BRANCH 33 34
ATOM     34  N   SER E   3      30.022  33.639  22.106  1.00 22.15 LIG-0.34  N 
ATOM     35  C   ALA E   2      30.061  33.531  23.444  1.00 22.11 LIG 0.26  C 
ATOM     36 O    ALA E   2      29.612  34.370  24.217  1.00 20.14 LIG-0.27  OA
ATOM     37 H    SER E   3      30.367  33.067  21.564  1.00 22.15 LIG 0.16  HD
BRANCH 35 38
ATOM     38  CA  ALA E   2      30.674  32.291  24.038  1.00 21.91 LIG 0.40  C 
ATOM     39  N   ALA E   2      31.952  32.677  24.762  1.00 22.04 LIG 0.61  N 
ATOM     40  CB  ALA E   2      29.651  31.657  25.029  1.00 22.52 LIG 0.06  C 
ENDBRANCH 35 38
ENDBRANCH 33 34
BRANCH 33 41
ATOM     41  CB  SER E   3      30.290  35.438  20.421  1.00 24.43 LIG 0.20  C 
BRANCH 41 42
ATOM     42 OG   SER E   3      31.543  34.764  20.365  1.00 28.93 LIG-0.40  OA
ATOM     43 HG   SER E   3      31.741  34.476  21.129  1.00 28.93 LIG 0.21  HD
ENDBRANCH 41 42
ENDBRANCH 33 41
ENDBRANCH 30 33
ENDBRANCH 1 29
TORSDOF 15
ENDMDL
MODEL 4
USER: ADFR SOLUTION from run 118
USER: SCORE 15.004307 LL:  -2.195 LR: -13.889 RR:   0.000 FEB:  -9.414
USER: RMSD 4.407662
USER: SEED 117
USER: STATUS no improvement in best in 3 clusters for 5 generations
USER: GENES 17
USER: genes 0 Translation |==|  0.44664 0.57185 0.46416
USER: genes 1 Rotation |==|  0.73724 0.72981 0.67056 0.83439
USER: genes 2 Torsion [C]-CA--CB-[CG] |==|  0.42382
USER: genes 3 Torsion [CA]-CB--CG-[CD2] |==|  0.61547
USER: genes 4 Torsion [N]-CA--C-[N] |==|  0.78684
USER: genes 5 Torsion [C]-N--CA-[C] |==|  0.71627
USER: genes 6 Torsion [N]-CA--CB-[OG] |==|  0.10525
USER: genes 7 Torsion [CA]-CB--OG-[HG] |==|  0.33158
USER: genes 8 Torsion [N]-CA--C-[N] |==|  0.96325
USER: genes 9 Torsion [C]-N--CA-[CB] |==|  0.86095
USER: genes 10 Torsion [N]-CA--C-[O] |==|  0.02018
USER: genes 11 Torsion [CB]-CA--N-[C] |==|  0.58333
USER: genes 12 Torsion [N]-C--CA-[N] |==|  0.37282
USER: genes 13 Torsion [C]-CA--N-[C] |==|  0.62894
USER: genes 14 Torsion [N]-C--CA-[N] |==|  0.32810
USER: genes 15 Torsion [C]-CA--CB-[OG] |==|  0.65957
USER: genes 16 Torsion [CA]-CB--OG-[HG] |==|  0.61682
ROOT
ATOM      1  CA  TRP E   4      26.026  36.271  19.776  1.00 23.90 LIG 0.18  C 
ENDROOT
BRANCH 1 2
ATOM      2  CB  TRP E   4      25.816  36.204  21.312  1.00 23.42 LIG 0.07  C 
BRANCH 2 3
ATOM      3  CG  TRP E   4      24.646  37.013  21.851  1.00 21.81 LIG-0.03  A 
ATOM      4  CD1 TRP E   4      23.386  37.101  21.297  1.00 20.28 LIG 0.10  A 
ATOM      5  NE1 TRP E   4      22.595  37.910  22.057  1.00 14.71 LIG-0.36  N 
ATOM      6 HE1  TRP E   4      21.777  38.107  21.882  1.00 14.71 LIG 0.17  HD
ATOM      7  CE2 TRP E   4      23.295  38.362  23.136  1.00 22.42 LIG 0.04  A 
ATOM      8  CD2 TRP E   4      24.605  37.826  23.045  1.00 21.74 LIG-0.00  A 
ATOM      9  CZ2 TRP E   4      22.901  39.236  24.161  1.00 22.45 LIG 0.03  A 
ATOM     10  CE3 TRP E   4      25.549  38.165  24.043  1.00 23.04 LIG 0.01  A 
ATOM     11  CZ3 TRP E   4      25.143  39.005  25.077  1.00 25.12 LIG 0.00  A 
ATOM     12  CH2 TRP E   4      23.829  39.531  25.124  1.00 23.64 LIG 0.00  A 
ENDBRANCH 2 3
ENDBRANCH 1 2
BRANCH 1 13
ATOM     13  C   TRP E   4      27.499  36.038  19.425  1.00 25.70 LIG 0.24  C 
ATOM     14  N   SER E   5      28.125  34.996  19.988  1.00 27.23 LIG-0.34  N 
ATOM     15 H    SER E   5      27.767  34.469  20.565  1.00 27.23 LIG 0.16  HD
ATOM     16 O    TRP E   4      28.064  36.801  18.637  1.00 24.65 LIG-0.27  OA
BRANCH 14 17
ATOM     17  CA  SER E   5      29.531  34.669  19.637  1.00 29.24 LIG 0.20  C 
BRANCH 17 18
ATOM     18  CB  SER E   5      30.374  34.364  20.878  1.00 29.98 LIG 0.20  C 
BRANCH 18 19
ATOM     19 OG   SER E   5      29.614  33.639  21.832  1.00 32.06 LIG-0.40  OA
ATOM     20 HG   SER E   5      29.976  32.894  21.972  1.00 32.06 LIG 0.21  HD
ENDBRANCH 18 19
ENDBRANCH 17 18
BRANCH 17 21
ATOM     21  C   SER E   5      29.642  33.501  18.671  1.00 30.08 LIG 0.24  C 
ATOM     22  N   ALA E   6      28.536  32.784  18.503  1.00 30.82 LIG-0.35  N 
ATOM     23 H    ALA E   6      27.820  32.898  18.968  1.00 30.82 LIG 0.16  HD
ATOM     24 O    SER E   5      30.702  33.265  18.092  1.00 31.18 LIG-0.27  OA
BRANCH 22 25
ATOM     25  CA  ALA E   6      28.434  31.722  17.498  1.00 31.79 LIG 0.16  C 
ATOM     26  CB  ALA E   6      28.901  32.244  16.150  1.00 32.45 LIG 0.04  C 
BRANCH 25 27
ATOM     27  C   ALA E   6      29.276  30.517  17.916  1.00 32.63 LIG 0.22  C 
ATOM     28 O    ALA E   6      29.810  30.475  19.029  1.00 33.08 LIG-0.29  OA
ENDBRANCH 25 27
ENDBRANCH 22 25
ENDBRANCH 17 21
ENDBRANCH 14 17
ENDBRANCH 1 13
BRANCH 1 29
ATOM     29  N   TRP E   4      25.182  35.308  19.042  1.00 23.46 LIG-0.35  N 
ATOM     30  C   SER E   3      25.525  34.744  17.874  1.00 23.52 LIG 0.24  C 
ATOM     31 O    SER E   3      26.436  35.169  17.138  1.00 23.44 LIG-0.27  OA
ATOM     32 H    TRP E   4      24.437  35.139  19.439  1.00 23.46 LIG 0.16  HD
BRANCH 30 33
ATOM     33  CA  SER E   3      24.693  33.518  17.452  1.00 23.60 LIG 0.20  C 
BRANCH 33 34
ATOM     34  N   SER E   3      24.250  33.523  16.042  1.00 22.15 LIG-0.34  N 
ATOM     35  C   ALA E   2      22.982  33.227  15.713  1.00 22.11 LIG 0.26  C 
ATOM     36 O    ALA E   2      22.121  32.889  16.519  1.00 20.14 LIG-0.27  OA
ATOM     37 H    SER E   3      24.862  33.727  15.474  1.00 22.15 LIG 0.16  HD
BRANCH 35 38
ATOM     38  CA  ALA E   2      22.580  33.338  14.266  1.00 21.91 LIG 0.40  C 
ATOM     39  N   ALA E   2      22.151  31.967  13.772  1.00 22.04 LIG 0.61  N 
ATOM     40  CB  ALA E   2      21.404  34.355  14.154  1.00 22.52 LIG 0.06  C 
ENDBRANCH 35 38
ENDBRANCH 33 34
BRANCH 33 41
ATOM     41  CB  SER E   3      25.473  32.238  17.774  1.00 24.43 LIG 0.20  C 
BRANCH 41 42
ATOM     42 OG   SER E   3      25.665  31.448  16.605  1.00 28.93 LIG-0.40  OA
ATOM     43 HG   SER E   3      25.537  30.639  16.789  1.00 28.93 LIG 0.21  HD
ENDBRANCH 41 42
ENDBRANCH 33 41
ENDBRANCH 30 33
ENDBRANCH 1 29
TORSDOF 15
ENDMDL
MODEL 5
USER: ADFR SOLUTION from run 162
USER: SCORE 14.555665 LL:  -1.645 LR: -13.611 RR:   0.000 FEB:  -9.136
USER: RMSD 8.602535
USER: SEED 161
USER: STATUS no improvement in best in 6 clusters for 5 generations
USER: GENES 17
USER: genes 0 Translation |==|  0.45835 0.48620 0.45578
USER: genes 1 Rotation |==|  0.71221 0.05165 0.44173 0.52360
USER: genes 2 Torsion [C]-CA--CB-[CG] |==|  0.50041
USER: genes 3 Torsion [CA]-CB--CG-[CD2] |==|  0.61494
USER: genes 4 Torsion [N]-CA--C-[N] |==|  0.36550
USER: genes 5 Torsion [C]-N--CA-[C] |==|  0.63600
USER: genes 6 Torsion [N]-CA--CB-[OG] |==|  0.31962
USER: genes 7 Torsion [CA]-CB--OG-[HG] |==|  0.59078
USER: genes 8 Torsion [N]-CA--C-[N] |==|  0.36638
USER: genes 9 Torsion [C]-N--CA-[CB] |==|  0.45609
USER: genes 10 Torsion [N]-CA--C-[O] |==|  0.99217
USER: genes 11 Torsion [CB]-CA--N-[C] |==|  0.58899
USER: genes 12 Torsion [N]-C--CA-[N] |==|  0.22456
USER: genes 13 Torsion [C]-CA--N-[C] |==|  0.76559
USER: genes 14 Torsion [N]-C--CA-[N] |==|  0.22593
USER: genes 15 Torsion [C]-CA--CB-[OG] |==|  0.50099
USER: genes 16 Torsion [CA]-CB--OG-[HG] |==|  0.54591
ROOT
ATOM      1  CA  TRP E   4      26.245  34.922  19.600  1.00 23.90 LIG 0.18  C 
ENDROOT
BRANCH 1 2
ATOM      2  CB  TRP E   4      25.530  36.254  19.948  1.00 23.42 LIG 0.07  C 
BRANCH 2 3
ATOM      3  CG  TRP E   4      25.646  36.703  21.396  1.00 21.81 LIG-0.03  A 
ATOM      4  CD1 TRP E   4      26.782  36.662  22.178  1.00 20.28 LIG 0.10  A 
ATOM      5  NE1 TRP E   4      26.513  37.156  23.420  1.00 14.71 LIG-0.36  N 
ATOM      6 HE1  TRP E   4      27.081  37.209  24.064  1.00 14.71 LIG 0.17  HD
ATOM      7  CE2 TRP E   4      25.212  37.552  23.490  1.00 22.42 LIG 0.04  A 
ATOM      8  CD2 TRP E   4      24.617  37.278  22.233  1.00 21.74 LIG-0.00  A 
ATOM      9  CZ2 TRP E   4      24.492  38.085  24.571  1.00 22.45 LIG 0.03  A 
ATOM     10  CE3 TRP E   4      23.246  37.578  22.048  1.00 23.04 LIG 0.01  A 
ATOM     11  CZ3 TRP E   4      22.545  38.140  23.112  1.00 25.12 LIG 0.00  A 
ATOM     12  CH2 TRP E   4      23.173  38.385  24.358  1.00 23.64 LIG 0.00  A 
ENDBRANCH 2 3
ENDBRANCH 1 2
BRANCH 1 13
ATOM     13  C   TRP E   4      26.057  34.582  18.118  1.00 25.70 LIG 0.24  C 
ATOM     14  N   SER E   5      25.169  33.631  17.796  1.00 27.23 LIG-0.34  N 
ATOM     15 H    SER E   5      24.725  33.168  18.368  1.00 27.23 LIG 0.16  HD
ATOM     16 O    TRP E   4      26.712  35.190  17.267  1.00 24.65 LIG-0.27  OA
BRANCH 14 17
ATOM     17  CA  SER E   5      24.884  33.303  16.376  1.00 29.24 LIG 0.20  C 
BRANCH 17 18
ATOM     18  CB  SER E   5      25.514  31.971  15.959  1.00 29.98 LIG 0.20  C 
BRANCH 18 19
ATOM     19 OG   SER E   5      24.509  31.022  15.639  1.00 32.06 LIG-0.40  OA
ATOM     20 HG   SER E   5      24.774  30.252  15.846  1.00 32.06 LIG 0.21  HD
ENDBRANCH 18 19
ENDBRANCH 17 18
BRANCH 17 21
ATOM     21  C   SER E   5      23.397  33.257  16.068  1.00 30.08 LIG 0.24  C 
ATOM     22  N   ALA E   6      23.010  33.925  14.987  1.00 30.82 LIG-0.35  N 
ATOM     23 H    ALA E   6      23.532  34.433  14.529  1.00 30.82 LIG 0.16  HD
ATOM     24 O    SER E   5      22.626  32.626  16.792  1.00 31.18 LIG-0.27  OA
BRANCH 22 25
ATOM     25  CA  ALA E   6      21.639  33.857  14.470  1.00 31.79 LIG 0.16  C 
ATOM     26  CB  ALA E   6      21.401  34.996  13.494  1.00 32.45 LIG 0.04  C 
BRANCH 25 27
ATOM     27  C   ALA E   6      21.402  32.514  13.779  1.00 32.63 LIG 0.22  C 
ATOM     28 O    ALA E   6      22.316  31.689  13.670  1.00 33.08 LIG-0.29  OA
ENDBRANCH 25 27
ENDBRANCH 22 25
ENDBRANCH 17 21
ENDBRANCH 14 17
ENDBRANCH 1 13
BRANCH 1 29
ATOM     29  N   TRP E   4      27.684  34.944  19.926  1.00 23.46 LIG-0.35  N 
ATOM     30  C   SER E   3      28.623  34.277  19.237  1.00 23.52 LIG 0.24  C 
ATOM     31 O    SER E   3      28.375  33.351  18.443  1.00 23.44 LIG-0.27  OA
ATOM     32 H    TRP E   4      27.869  35.432  20.611  1.00 23.46 LIG 0.16  HD
BRANCH 30 33
ATOM     33  CA  SER E   3      30.079  34.705  19.504  1.00 23.60 LIG 0.20  C 
BRANCH 33 34
ATOM     34  N   SER E   3      30.679  34.131  20.727  1.00 22.15 LIG-0.34  N 
ATOM     35  C   ALA E   2      30.490  34.705  21.927  1.00 22.11 LIG 0.26  C 
ATOM     36 O    ALA E   2      29.867  35.747  22.102  1.00 20.14 LIG-0.27  OA
ATOM     37 H    SER E   3      31.145  33.420  20.599  1.00 22.15 LIG 0.16  HD
BRANCH 35 38
ATOM     38  CA  ALA E   2      31.058  34.017  23.140  1.00 21.91 LIG 0.40  C 
ATOM     39  N   ALA E   2      32.533  34.362  23.251  1.00 22.04 LIG 0.61  N 
ATOM     40  CB  ALA E   2      30.283  34.510  24.399  1.00 22.52 LIG 0.06  C 
ENDBRANCH 35 38
ENDBRANCH 33 34
BRANCH 33 41
ATOM     41  CB  SER E   3      30.937  34.386  18.274  1.00 24.43 LIG 0.20  C 
BRANCH 41 42
ATOM     42 OG   SER E   3      32.294  34.760  18.487  1.00 28.93 LIG-0.40  OA
ATOM     43 HG   SER E   3      32.695  34.792  17.750  1.00 28.93 LIG 0.21  HD
ENDBRANCH 41 42
ENDBRANCH 33 41
ENDBRANCH 30 33
ENDBRANCH 1 29
TORSDOF 15
ENDMDL
MODEL 6
USER: ADFR SOLUTION from run 33
USER: SCORE 13.885169 LL:  -2.260 LR: -13.447 RR:   0.000 FEB:  -8.973
USER: RMSD 8.422697
USER: SEED 32
USER: STATUS no improvement in best in 9 clusters for 5 generations
USER: GENES 17
USER: genes 0 Translation |==|  0.47971 0.41909 0.46486
USER: genes 1 Rotation |==|  0.68845 0.04968 0.50124 0.60814
USER: genes 2 Torsion [C]-CA--CB-[CG] |==|  0.43602
USER: genes 3 Torsion [CA]-CB--CG-[CD2] |==|  0.60882
USER: genes 4 Torsion [N]-CA--C-[N] |==|  0.55397
USER: genes 5 Torsion [C]-N--CA-[C] |==|  0.84510
USER: genes 6 Torsion [N]-CA--CB-[OG] |==|  0.57407
USER: genes 7 Torsion [CA]-CB--OG-[HG] |==|  0.62285
USER: genes 8 Torsion [N]-CA--C-[N] |==|  0.34444
USER: genes 9 Torsion [C]-N--CA-[CB] |==|  0.30981
USER: genes 10 Torsion [N]-CA--C-[O] |==|  0.95820
USER: genes 11 Torsion [CB]-CA--N-[C] |==|  0.88946
USER: genes 12 Torsion [N]-C--CA-[N] |==|  0.98032
USER: genes 13 Torsion [C]-CA--N-[C] |==|  0.78355
USER: genes 14 Torsion [N]-C--CA-[N] |==|  0.23780
USER: genes 15 Torsion [C]-CA--CB-[OG] |==|  0.46661
USER: genes 16 Torsion [CA]-CB--OG-[HG] |==|  0.52254
ROOT
ATOM      1  CA  TRP E   4      26.646  33.865  19.791  1.00 23.90 LIG 0.18  C 
ENDROOT
BRANCH 1 2
ATOM      2  CB  TRP E   4      26.020  35.284  19.775  1.00 23.42 LIG 0.07  C 
BRANCH 2 3
ATOM      3  CG  TRP E   4      25.976  35.998  21.117  1.00 21.81 LIG-0.03  A 
ATOM      4  CD1 TRP E   4      26.965  35.999  22.078  1.00 20.28 LIG 0.10  A 
ATOM      5  NE1 TRP E   4      26.581  36.753  23.146  1.00 14.71 LIG-0.36  N 
ATOM      6 HE1  TRP E   4      27.047  36.875  23.858  1.00 14.71 LIG 0.17  HD
ATOM      7  CE2 TRP E   4      25.347  37.285  22.918  1.00 22.42 LIG 0.04  A 
ATOM      8  CD2 TRP E   4      24.918  36.828  21.646  1.00 21.74 LIG-0.00  A 
ATOM      9  CZ2 TRP E   4      24.550  38.092  23.745  1.00 22.45 LIG 0.03  A 
ATOM     10  CE3 TRP E   4      23.642  37.222  21.177  1.00 23.04 LIG 0.01  A 
ATOM     11  CZ3 TRP E   4      22.869  38.052  21.986  1.00 25.12 LIG 0.00  A 
ATOM     12  CH2 TRP E   4      23.329  38.475  23.257  1.00 23.64 LIG 0.00  A 
ENDBRANCH 2 3
ENDBRANCH 1 2
BRANCH 1 13
ATOM     13  C   TRP E   4      26.143  33.043  18.599  1.00 25.70 LIG 0.24  C 
ATOM     14  N   SER E   5      24.878  33.222  18.197  1.00 27.23 LIG-0.34  N 
ATOM     15 H    SER E   5      24.313  33.738  18.589  1.00 27.23 LIG 0.16  HD
ATOM     16 O    TRP E   4      26.909  32.253  18.040  1.00 24.65 LIG-0.27  OA
BRANCH 14 17
ATOM     17  CA  SER E   5      24.348  32.512  17.005  1.00 29.24 LIG 0.20  C 
BRANCH 17 18
ATOM     18  CB  SER E   5      22.892  32.889  16.715  1.00 29.98 LIG 0.20  C 
BRANCH 18 19
ATOM     19 OG   SER E   5      22.231  31.835  16.032  1.00 32.06 LIG-0.40  OA
ATOM     20 HG   SER E   5      21.776  32.153  15.401  1.00 32.06 LIG 0.21  HD
ENDBRANCH 18 19
ENDBRANCH 17 18
BRANCH 17 21
ATOM     21  C   SER E   5      25.175  32.762  15.755  1.00 30.08 LIG 0.24  C 
ATOM     22  N   ALA E   6      25.642  31.677  15.145  1.00 30.82 LIG-0.35  N 
ATOM     23 H    ALA E   6      25.572  30.883  15.469  1.00 30.82 LIG 0.16  HD
ATOM     24 O    SER E   5      25.376  33.909  15.354  1.00 31.18 LIG-0.27  OA
BRANCH 22 25
ATOM     25  CA  ALA E   6      26.326  31.737  13.850  1.00 31.79 LIG 0.16  C 
ATOM     26  CB  ALA E   6      27.794  31.389  14.028  1.00 32.45 LIG 0.04  C 
BRANCH 25 27
ATOM     27  C   ALA E   6      25.673  30.771  12.862  1.00 32.63 LIG 0.22  C 
ATOM     28 O    ALA E   6      24.903  29.889  13.257  1.00 33.08 LIG-0.29  OA
ENDBRANCH 25 27
ENDBRANCH 22 25
ENDBRANCH 17 21
ENDBRANCH 14 17
ENDBRANCH 1 13
BRANCH 1 29
ATOM     29  N   TRP E   4      28.121  33.891  19.791  1.00 23.46 LIG-0.35  N 
ATOM     30  C   SER E   3      28.858  34.750  19.069  1.00 23.52 LIG 0.24  C 
ATOM     31 O    SER E   3      28.414  35.416  18.116  1.00 23.44 LIG-0.27  OA
ATOM     32 H    TRP E   4      28.471  33.296  20.304  1.00 23.46 LIG 0.16  HD
BRANCH 30 33
ATOM     33  CA  SER E   3      30.342  34.858  19.470  1.00 23.60 LIG 0.20  C 
BRANCH 33 34
ATOM     34  N   SER E   3      30.708  34.122  20.699  1.00 22.15 LIG-0.34  N 
ATOM     35  C   ALA E   2      30.419  34.616  21.914  1.00 22.11 LIG 0.26  C 
ATOM     36 O    ALA E   2      29.891  35.705  22.108  1.00 20.14 LIG-0.27  OA
ATOM     37 H    SER E   3      31.110  33.374  20.563  1.00 22.15 LIG 0.16  HD
BRANCH 35 38
ATOM     38  CA  ALA E   2      30.743  33.771  23.118  1.00 21.91 LIG 0.40  C 
ATOM     39  N   ALA E   2      32.190  34.014  23.510  1.00 22.04 LIG 0.61  N 
ATOM     40  CB  ALA E   2      29.784  34.173  24.279  1.00 22.52 LIG 0.06  C 
ENDBRANCH 35 38
ENDBRANCH 33 34
BRANCH 33 41
ATOM     41  CB  SER E   3      31.220  34.422  18.291  1.00 24.43 LIG 0.20  C 
BRANCH 41 42
ATOM     42 OG   SER E   3      32.584  34.764  18.516  1.00 28.93 LIG-0.40  OA
ATOM     43 HG   SER E   3      33.028  34.619  17.818  1.00 28.93 LIG 0.21  HD
ENDBRANCH 41 42
ENDBRANCH 33 41
ENDBRANCH 30 33
ENDBRANCH 1 29
TORSDOF 15
ENDMDL
MODEL 7
USER: ADFR SOLUTION from run 141
USER: SCORE 14.368423 LL:  -2.446 LR: -13.366 RR:   0.000 FEB:  -8.891
USER: RMSD 1.192934
USER: SEED 140
USER: STATUS no improvement in best in 1 clusters for 5 generations
USER: GENES 17
USER: genes 0 Translation |==|  0.46456 0.56569 0.46814
USER: genes 1 Rotation |==|  0.48727 0.51041 0.52718 0.99899
USER: genes 2 Torsion [C]-CA--CB-[CG] |==|  0.85807
USER: genes 3 Torsion [CA]-CB--CG-[CD2] |==|  0.22569
USER: genes 4 Torsion [N]-CA--C-[N] |==|  0.36111
USER: genes 5 Torsion [C]-N--CA-[C] |==|  0.64896
USER: genes 6 Torsion [N]-CA--CB-[OG] |==|  0.94738
USER: genes 7 Torsion [CA]-CB--OG-[HG] |==|  0.52510
USER: genes 8 Torsion [N]-CA--C-[N] |==|  0.36717
USER: genes 9 Torsion [C]-N--CA-[CB] |==|  0.18549
USER: genes 10 Torsion [N]-CA--C-[O] |==|  0.01068
USER: genes 11 Torsion [CB]-CA--N-[C] |==|  0.26483
USER: genes 12 Torsion [N]-C--CA-[N] |==|  0.45997
USER: genes 13 Torsion [C]-CA--N-[C] |==|  0.68241
USER: genes 14 Torsion [N]-C--CA-[N] |==|  0.90490
USER: genes 15 Torsion [C]-CA--CB-[OG] |==|  0.70862
USER: genes 16 Torsion [CA]-CB--OG-[HG] |==|  0.78699
ROOT
ATOM      1  CA  TRP E   4      26.362  36.174  19.860  1.00 23.90 LIG 0.18  C 
ENDROOT
BRANCH 1 2
ATOM      2  CB  TRP E   4      25.630  37.541  19.836  1.00 23.42 LIG 0.07  C 
BRANCH 2 3
ATOM      3  CG  TRP E   4      24.547  37.725  20.888  1.00 21.81 LIG-0.03  A 
ATOM      4  CD1 TRP E   4      23.190  37.548  20.708  1.00 20.28 LIG 0.10  A 
ATOM      5  NE1 TRP E   4      22.527  37.793  21.873  1.00 14.71 LIG-0.36  N 
ATOM      6 HE1  TRP E   4      21.674  37.750  21.975  1.00 14.71 LIG 0.17  HD
ATOM      7  CE2 TRP E   4      23.416  38.117  22.854  1.00 22.42 LIG 0.04  A 
ATOM      8  CD2 TRP E   4      24.711  38.095  22.276  1.00 21.74 LIG-0.00  A 
ATOM      9  CZ2 TRP E   4      23.188  38.475  24.192  1.00 22.45 LIG 0.03  A 
ATOM     10  CE3 TRP E   4      25.824  38.423  23.086  1.00 23.04 LIG 0.01  A 
ATOM     11  CZ3 TRP E   4      25.595  38.743  24.422  1.00 25.12 LIG 0.00  A 
ATOM     12  CH2 TRP E   4      24.284  38.767  24.958  1.00 23.64 LIG 0.00  A 
ENDBRANCH 2 3
ENDBRANCH 1 2
BRANCH 1 13
ATOM     13  C   TRP E   4      26.864  35.859  21.273  1.00 25.70 LIG 0.24  C 
ATOM     14  N   SER E   5      28.175  35.988  21.520  1.00 27.23 LIG-0.34  N 
ATOM     15 H    SER E   5      28.762  36.197  20.928  1.00 27.23 LIG 0.16  HD
ATOM     16 O    TRP E   4      26.060  35.508  22.141  1.00 24.65 LIG-0.27  OA
BRANCH 14 17
ATOM     17  CA  SER E   5      28.720  35.770  22.884  1.00 29.24 LIG 0.20  C 
BRANCH 17 18
ATOM     18  CB  SER E   5      29.568  34.497  22.965  1.00 29.98 LIG 0.20  C 
BRANCH 18 19
ATOM     19 OG   SER E   5      29.276  33.633  21.877  1.00 32.06 LIG-0.40  OA
ATOM     20 HG   SER E   5      29.652  32.892  21.999  1.00 32.06 LIG 0.21  HD
ENDBRANCH 18 19
ENDBRANCH 17 18
BRANCH 17 21
ATOM     21  C   SER E   5      29.549  36.942  23.383  1.00 30.08 LIG 0.24  C 
ATOM     22  N   ALA E   6      29.271  37.364  24.611  1.00 30.82 LIG-0.35  N 
ATOM     23 H    ALA E   6      28.609  37.072  25.077  1.00 30.82 LIG 0.16  HD
ATOM     24 O    SER E   5      30.420  37.441  22.670  1.00 31.18 LIG-0.27  OA
BRANCH 22 25
ATOM     25  CA  ALA E   6      30.077  38.382  25.293  1.00 31.79 LIG 0.16  C 
ATOM     26  CB  ALA E   6      29.929  39.716  24.583  1.00 32.45 LIG 0.04  C 
BRANCH 25 27
ATOM     27  C   ALA E   6      29.641  38.511  26.752  1.00 32.63 LIG 0.22  C 
ATOM     28 O    ALA E   6      28.775  37.764  27.221  1.00 33.08 LIG-0.29  OA
ENDBRANCH 25 27
ENDBRANCH 22 25
ENDBRANCH 17 21
ENDBRANCH 14 17
ENDBRANCH 1 13
BRANCH 1 29
ATOM     29  N   TRP E   4      25.517  35.066  19.375  1.00 23.46 LIG-0.35  N 
ATOM     30  C   SER E   3      25.526  34.609  18.112  1.00 23.52 LIG 0.24  C 
ATOM     31 O    SER E   3      26.014  35.233  17.152  1.00 23.44 LIG-0.27  OA
ATOM     32 H    TRP E   4      25.010  34.733  19.985  1.00 23.46 LIG 0.16  HD
BRANCH 30 33
ATOM     33  CA  SER E   3      24.854  33.240  17.891  1.00 23.60 LIG 0.20  C 
BRANCH 33 34
ATOM     34  N   SER E   3      24.575  32.907  16.478  1.00 22.15 LIG-0.34  N 
ATOM     35  C   ALA E   2      23.314  32.787  16.031  1.00 22.11 LIG 0.26  C 
ATOM     36 O    ALA E   2      22.318  32.888  16.740  1.00 20.14 LIG-0.27  OA
ATOM     37 H    SER E   3      25.274  32.802  15.988  1.00 22.15 LIG 0.16  HD
BRANCH 35 38
ATOM     38  CA  ALA E   2      23.103  32.533  14.562  1.00 21.91 LIG 0.40  C 
ATOM     39  N   ALA E   2      24.183  33.262  13.781  1.00 22.04 LIG 0.61  N 
ATOM     40  CB  ALA E   2      23.183  30.997  14.307  1.00 22.52 LIG 0.06  C 
ENDBRANCH 35 38
ENDBRANCH 33 34
BRANCH 33 41
ATOM     41  CB  SER E   3      25.700  32.146  18.552  1.00 24.43 LIG 0.20  C 
BRANCH 41 42
ATOM     42 OG   SER E   3      26.419  31.397  17.578  1.00 28.93 LIG-0.40  OA
ATOM     43 HG   SER E   3      25.897  30.860  17.195  1.00 28.93 LIG 0.21  HD
ENDBRANCH 41 42
ENDBRANCH 33 41
ENDBRANCH 30 33
ENDBRANCH 1 29
TORSDOF 15
ENDMDL
MODEL 8
USER: ADFR SOLUTION from run 145
USER: SCORE 13.722740 LL:  -2.368 LR: -13.295 RR:   0.000 FEB:  -8.821
USER: RMSD 6.131418
USER: SEED 144
USER: STATUS no improvement in best in 5 clusters for 5 generations
USER: GENES 17
USER: genes 0 Translation |==|  0.39345 0.39554 0.38645
USER: genes 1 Rotation |==|  0.28217 0.28505 0.10609 0.53439
USER: genes 2 Torsion [C]-CA--CB-[CG] |==|  0.83654
USER: genes 3 Torsion [CA]-CB--CG-[CD2] |==|  0.24070
USER: genes 4 Torsion [N]-CA--C-[N] |==|  0.35694
USER: genes 5 Torsion [C]-N--CA-[C] |==|  0.66095
USER: genes 6 Torsion [N]-CA--CB-[OG] |==|  0.13902
USER: genes 7 Torsion [CA]-CB--OG-[HG] |==|  0.40715
USER: genes 8 Torsion [N]-CA--C-[N] |==|  0.54444
USER: genes 9 Torsion [C]-N--CA-[CB] |==|  0.29491
USER: genes 10 Torsion [N]-CA--C-[O] |==|  0.91930
USER: genes 11 Torsion [CB]-CA--N-[C] |==|  0.29902
USER: genes 12 Torsion [N]-C--CA-[N] |==|  0.13579
USER: genes 13 Torsion [C]-CA--N-[C] |==|  0.14072
USER: genes 14 Torsion [N]-C--CA-[N] |==|  0.91949
USER: genes 15 Torsion [C]-CA--CB-[OG] |==|  0.71754
USER: genes 16 Torsion [CA]-CB--OG-[HG] |==|  0.81326
ROOT
ATOM      1  CA  TRP E   4      25.028  33.494  18.144  1.00 23.90 LIG 0.18  C 
ENDROOT
BRANCH 1 2
ATOM      2  CB  TRP E   4      26.089  32.461  18.606  1.00 23.42 LIG 0.07  C 
BRANCH 2 3
ATOM      3  CG  TRP E   4      27.488  32.660  18.043  1.00 21.81 LIG-0.03  A 
ATOM      4  CD1 TRP E   4      28.001  32.085  16.899  1.00 20.28 LIG 0.10  A 
ATOM      5  NE1 TRP E   4      29.284  32.499  16.700  1.00 14.71 LIG-0.36  N 
ATOM      6 HE1  TRP E   4      29.789  32.250  16.050  1.00 14.71 LIG 0.17  HD
ATOM      7  CE2 TRP E   4      29.649  33.367  17.686  1.00 22.42 LIG 0.04  A 
ATOM      8  CD2 TRP E   4      28.546  33.495  18.567  1.00 21.74 LIG-0.00  A 
ATOM      9  CZ2 TRP E   4      30.875  34.014  17.904  1.00 22.45 LIG 0.03  A 
ATOM     10  CE3 TRP E   4      28.675  34.330  19.702  1.00 23.04 LIG 0.01  A 
ATOM     11  CZ3 TRP E   4      29.881  34.998  19.895  1.00 25.12 LIG 0.00  A 
ATOM     12  CH2 TRP E   4      30.965  34.833  18.999  1.00 23.64 LIG 0.00  A 
ENDBRANCH 2 3
ENDBRANCH 1 2
BRANCH 1 13
ATOM     13  C   TRP E   4      25.458  34.914  18.530  1.00 25.70 LIG 0.24  C 
ATOM     14  N   SER E   5      24.817  35.514  19.542  1.00 27.23 LIG-0.34  N 
ATOM     15 H    SER E   5      24.152  35.172  19.966  1.00 27.23 LIG 0.16  HD
ATOM     16 O    TRP E   4      26.377  35.459  17.914  1.00 24.65 LIG-0.27  OA
BRANCH 14 17
ATOM     17  CA  SER E   5      25.230  36.860  20.016  1.00 29.24 LIG 0.20  C 
BRANCH 17 18
ATOM     18  CB  SER E   5      24.142  37.910  19.772  1.00 29.98 LIG 0.20  C 
BRANCH 18 19
ATOM     19 OG   SER E   5      22.890  37.454  20.261  1.00 32.06 LIG-0.40  OA
ATOM     20 HG   SER E   5      22.447  38.108  20.548  1.00 32.06 LIG 0.21  HD
ENDBRANCH 18 19
ENDBRANCH 17 18
BRANCH 17 21
ATOM     21  C   SER E   5      25.605  36.877  21.488  1.00 30.08 LIG 0.24  C 
ATOM     22  N   ALA E   6      25.662  38.078  22.054  1.00 30.82 LIG-0.35  N 
ATOM     23 H    ALA E   6      25.587  38.815  21.617  1.00 30.82 LIG 0.16  HD
ATOM     24 O    SER E   5      25.830  35.828  22.090  1.00 31.18 LIG-0.27  OA
BRANCH 22 25
ATOM     25  CA  ALA E   6      25.862  38.257  23.496  1.00 31.79 LIG 0.16  C 
ATOM     26  CB  ALA E   6      27.277  38.741  23.763  1.00 32.45 LIG 0.04  C 
BRANCH 25 27
ATOM     27  C   ALA E   6      24.850  39.262  24.048  1.00 32.63 LIG 0.22  C 
ATOM     28 O    ALA E   6      24.402  40.165  23.333  1.00 33.08 LIG-0.29  OA
ENDBRANCH 25 27
ENDBRANCH 22 25
ENDBRANCH 17 21
ENDBRANCH 14 17
ENDBRANCH 1 13
BRANCH 1 29
ATOM     29  N   TRP E   4      24.764  33.431  16.695  1.00 23.46 LIG-0.35  N 
ATOM     30  C   SER E   3      23.638  32.937  16.155  1.00 23.52 LIG 0.24  C 
ATOM     31 O    SER E   3      22.826  32.224  16.774  1.00 23.44 LIG-0.27  OA
ATOM     32 H    TRP E   4      25.408  33.745  16.218  1.00 23.46 LIG 0.16  HD
BRANCH 30 33
ATOM     33  CA  SER E   3      23.399  33.281  14.672  1.00 23.60 LIG 0.20  C 
BRANCH 33 34
ATOM     34  N   SER E   3      24.557  33.039  13.785  1.00 22.15 LIG-0.34  N 
ATOM     35  C   ALA E   2      25.201  31.861  13.794  1.00 22.11 LIG 0.26  C 
ATOM     36 O    ALA E   2      24.930  30.932  14.547  1.00 20.14 LIG-0.27  OA
ATOM     37 H    SER E   3      24.768  33.703  13.281  1.00 22.15 LIG 0.16  HD
BRANCH 35 38
ATOM     38  CA  ALA E   2      26.315  31.655  12.802  1.00 21.91 LIG 0.40  C 
ATOM     39  N   ALA E   2      26.031  32.493  11.568  1.00 22.04 LIG 0.61  N 
ATOM     40  CB  ALA E   2      27.658  32.089  13.464  1.00 22.52 LIG 0.06  C 
ENDBRANCH 35 38
ENDBRANCH 33 34
BRANCH 33 41
ATOM     41  CB  SER E   3      22.160  32.532  14.169  1.00 24.43 LIG 0.20  C 
BRANCH 41 42
ATOM     42 OG   SER E   3      22.530  31.389  13.404  1.00 28.93 LIG-0.40  OA
ATOM     43 HG   SER E   3      22.899  31.636  12.691  1.00 28.93 LIG 0.21  HD
ENDBRANCH 41 42
ENDBRANCH 33 41
ENDBRANCH 30 33
ENDBRANCH 1 29
TORSDOF 15
ENDMDL
MODEL 9
USER: ADFR SOLUTION from run 118
USER: SCORE 14.780696 LL:  -2.893 LR: -13.181 RR:   0.000 FEB:  -8.707
USER: RMSD 5.129133
USER: SEED 117
USER: STATUS no improvement in best in 3 clusters for 5 generations
USER: GENES 17
USER: genes 0 Translation |==|  0.45075 0.54997 0.44936
USER: genes 1 Rotation |==|  0.69528 0.78018 0.66334 0.82663
USER: genes 2 Torsion [C]-CA--CB-[CG] |==|  0.41732
USER: genes 3 Torsion [CA]-CB--CG-[CD2] |==|  0.55704
USER: genes 4 Torsion [N]-CA--C-[N] |==|  0.88946
USER: genes 5 Torsion [C]-N--CA-[C] |==|  0.79129
USER: genes 6 Torsion [N]-CA--CB-[OG] |==|  0.05363
USER: genes 7 Torsion [CA]-CB--OG-[HG] |==|  0.55052
USER: genes 8 Torsion [N]-CA--C-[N] |==|  0.88503
USER: genes 9 Torsion [C]-N--CA-[CB] |==|  0.42368
USER: genes 10 Torsion [N]-CA--C-[O] |==|  0.24159
USER: genes 11 Torsion [CB]-CA--N-[C] |==|  0.53333
USER: genes 12 Torsion [N]-C--CA-[N] |==|  0.42532
USER: genes 13 Torsion [C]-CA--N-[C] |==|  0.73444
USER: genes 14 Torsion [N]-C--CA-[N] |==|  0.71759
USER: genes 15 Torsion [C]-CA--CB-[OG] |==|  0.71624
USER: genes 16 Torsion [CA]-CB--OG-[HG] |==|  0.72994
ROOT
ATOM      1  CA  TRP E   4      26.102  35.926  19.466  1.00 23.90 LIG 0.18  C 
ENDROOT
BRANCH 1 2
ATOM      2  CB  TRP E   4      26.046  36.116  21.004  1.00 23.42 LIG 0.07  C 
BRANCH 2 3
ATOM      3  CG  TRP E   4      24.835  36.871  21.529  1.00 21.81 LIG-0.03  A 
ATOM      4  CD1 TRP E   4      23.626  37.032  20.884  1.00 20.28 LIG 0.10  A 
ATOM      5  NE1 TRP E   4      22.774  37.759  21.660  1.00 14.71 LIG-0.36  N 
ATOM      6 HE1  TRP E   4      21.973  37.982  21.439  1.00 14.71 LIG 0.17  HD
ATOM      7  CE2 TRP E   4      23.379  38.082  22.837  1.00 22.42 LIG 0.04  A 
ATOM      8  CD2 TRP E   4      24.692  37.548  22.798  1.00 21.74 LIG-0.00  A 
ATOM      9  CZ2 TRP E   4      22.900  38.842  23.915  1.00 22.45 LIG 0.03  A 
ATOM     10  CE3 TRP E   4      25.549  37.767  23.903  1.00 23.04 LIG 0.01  A 
ATOM     11  CZ3 TRP E   4      25.056  38.491  24.986  1.00 25.12 LIG 0.00  A 
ATOM     12  CH2 TRP E   4      23.742  39.020  24.980  1.00 23.64 LIG 0.00  A 
ENDBRANCH 2 3
ENDBRANCH 1 2
BRANCH 1 13
ATOM     13  C   TRP E   4      27.557  35.861  18.986  1.00 25.70 LIG 0.24  C 
ATOM     14  N   SER E   5      28.182  34.677  19.026  1.00 27.23 LIG-0.34  N 
ATOM     15 H    SER E   5      27.836  33.956  19.342  1.00 27.23 LIG 0.16  HD
ATOM     16 O    TRP E   4      28.107  36.885  18.571  1.00 24.65 LIG-0.27  OA
BRANCH 14 17
ATOM     17  CA  SER E   5      29.566  34.527  18.510  1.00 29.24 LIG 0.20  C 
BRANCH 17 18
ATOM     18  CB  SER E   5      30.241  33.259  19.041  1.00 29.98 LIG 0.20  C 
BRANCH 18 19
ATOM     19 OG   SER E   5      29.270  32.338  19.515  1.00 32.06 LIG-0.40  OA
ATOM     20 HG   SER E   5      29.639  31.776  20.018  1.00 32.06 LIG 0.21  HD
ENDBRANCH 18 19
ENDBRANCH 17 18
BRANCH 17 21
ATOM     21  C   SER E   5      29.631  34.515  16.992  1.00 30.08 LIG 0.24  C 
ATOM     22  N   ALA E   6      28.680  33.819  16.379  1.00 30.82 LIG-0.35  N 
ATOM     23 H    ALA E   6      28.110  33.325  16.793  1.00 30.82 LIG 0.16  HD
ATOM     24 O    SER E   5      30.518  35.127  16.397  1.00 31.18 LIG-0.27  OA
BRANCH 22 25
ATOM     25  CA  ALA E   6      28.512  33.831  14.922  1.00 31.79 LIG 0.16  C 
ATOM     26  CB  ALA E   6      27.879  32.527  14.467  1.00 32.45 LIG 0.04  C 
BRANCH 25 27
ATOM     27  C   ALA E   6      27.641  35.014  14.500  1.00 32.63 LIG 0.22  C 
ATOM     28 O    ALA E   6      28.143  36.122  14.285  1.00 33.08 LIG-0.29  OA
ENDBRANCH 25 27
ENDBRANCH 22 25
ENDBRANCH 17 21
ENDBRANCH 14 17
ENDBRANCH 1 13
BRANCH 1 29
ATOM     29  N   TRP E   4      25.375  34.726  19.011  1.00 23.46 LIG-0.35  N 
ATOM     30  C   SER E   3      25.464  34.215  17.773  1.00 23.52 LIG 0.24  C 
ATOM     31 O    SER E   3      25.925  34.836  16.797  1.00 23.44 LIG-0.27  OA
ATOM     32 H    TRP E   4      24.879  34.378  19.623  1.00 23.46 LIG 0.16  HD
BRANCH 30 33
ATOM     33  CA  SER E   3      24.922  32.783  17.599  1.00 23.60 LIG 0.20  C 
BRANCH 33 34
ATOM     34  N   SER E   3      24.446  32.460  16.238  1.00 22.15 LIG-0.34  N 
ATOM     35  C   ALA E   2      23.147  32.568  15.914  1.00 22.11 LIG 0.26  C 
ATOM     36 O    ALA E   2      22.264  32.884  16.704  1.00 20.14 LIG-0.27  OA
ATOM     37 H    SER E   3      25.061  32.206  15.693  1.00 22.15 LIG 0.16  HD
BRANCH 35 38
ATOM     38  CA  ALA E   2      22.748  32.308  14.486  1.00 21.91 LIG 0.40  C 
ATOM     39  N   ALA E   2      22.529  33.640  13.789  1.00 22.04 LIG 0.61  N 
ATOM     40  CB  ALA E   2      23.888  31.504  13.790  1.00 22.52 LIG 0.06  C 
ENDBRANCH 35 38
ENDBRANCH 33 34
BRANCH 33 41
ATOM     41  CB  SER E   3      25.985  31.778  18.058  1.00 24.43 LIG 0.20  C 
BRANCH 41 42
ATOM     42 OG   SER E   3      26.651  31.194  16.944  1.00 28.93 LIG-0.40  OA
ATOM     43 HG   SER E   3      26.303  30.451  16.767  1.00 28.93 LIG 0.21  HD
ENDBRANCH 41 42
ENDBRANCH 33 41
ENDBRANCH 30 33
ENDBRANCH 1 29
TORSDOF 15
ENDMDL
MODEL 10
USER: ADFR SOLUTION from run 36
USER: SCORE 14.043384 LL:  -1.659 LR: -13.147 RR:   0.000 FEB:  -8.672
USER: RMSD 3.679842
USER: SEED 35
USER: STATUS no improvement in best in 18 clusters for 5 generations
USER: GENES 17
USER: genes 0 Translation |==|  0.46909 0.51140 0.41414
USER: genes 1 Rotation |==|  0.77187 0.57775 0.68280 0.86963
USER: genes 2 Torsion [C]-CA--CB-[CG] |==|  0.21546
USER: genes 3 Torsion [CA]-CB--CG-[CD2] |==|  0.33221
USER: genes 4 Torsion [N]-CA--C-[N] |==|  0.34672
USER: genes 5 Torsion [C]-N--CA-[C] |==|  0.63339
USER: genes 6 Torsion [N]-CA--CB-[OG] |==|  0.40916
USER: genes 7 Torsion [CA]-CB--OG-[HG] |==|  0.47659
USER: genes 8 Torsion [N]-CA--C-[N] |==|  0.31499
USER: genes 9 Torsion [C]-N--CA-[CB] |==|  0.46915
USER: genes 10 Torsion [N]-CA--C-[O] |==|  0.18677
USER: genes 11 Torsion [CB]-CA--N-[C] |==|  0.87222
USER: genes 12 Torsion [N]-C--CA-[N] |==|  0.15797
USER: genes 13 Torsion [C]-CA--N-[C] |==|  0.15312
USER: genes 14 Torsion [N]-C--CA-[N] |==|  0.11292
USER: genes 15 Torsion [C]-CA--CB-[OG] |==|  0.33043
USER: genes 16 Torsion [CA]-CB--OG-[HG] |==|  0.34269
ROOT
ATOM      1  CA  TRP E   4      26.446  35.319  18.726  1.00 23.90 LIG 0.18  C 
ENDROOT
BRANCH 1 2
ATOM      2  CB  TRP E   4      25.528  35.097  19.957  1.00 23.42 LIG 0.07  C 
BRANCH 2 3
ATOM      3  CG  TRP E   4      25.879  35.911  21.192  1.00 21.81 LIG-0.03  A 
ATOM      4  CD1 TRP E   4      27.074  35.883  21.881  1.00 20.28 LIG 0.10  A 
ATOM      5  NE1 TRP E   4      27.031  36.751  22.931  1.00 14.71 LIG-0.36  N 
ATOM      6 HE1  TRP E   4      27.670  36.878  23.493  1.00 14.71 LIG 0.17  HD
ATOM      7  CE2 TRP E   4      25.827  37.388  22.957  1.00 22.42 LIG 0.04  A 
ATOM      8  CD2 TRP E   4      25.058  36.883  21.878  1.00 21.74 LIG-0.00  A 
ATOM      9  CZ2 TRP E   4      25.330  38.332  23.868  1.00 22.45 LIG 0.03  A 
ATOM     10  CE3 TRP E   4      23.741  37.369  21.696  1.00 23.04 LIG 0.01  A 
ATOM     11  CZ3 TRP E   4      23.265  38.332  22.581  1.00 25.12 LIG 0.00  A 
ATOM     12  CH2 TRP E   4      24.061  38.801  23.655  1.00 23.64 LIG 0.00  A 
ENDBRANCH 2 3
ENDBRANCH 1 2
BRANCH 1 13
ATOM     13  C   TRP E   4      27.771  34.568  18.903  1.00 25.70 LIG 0.24  C 
ATOM     14  N   SER E   5      28.883  35.288  19.101  1.00 27.23 LIG-0.34  N 
ATOM     15 H    SER E   5      28.912  36.147  19.095  1.00 27.23 LIG 0.16  HD
ATOM     16 O    TRP E   4      27.780  33.334  18.867  1.00 24.65 LIG-0.27  OA
BRANCH 14 17
ATOM     17  CA  SER E   5      30.188  34.624  19.351  1.00 29.24 LIG 0.20  C 
BRANCH 17 18
ATOM     18  CB  SER E   5      31.103  34.679  18.125  1.00 29.98 LIG 0.20  C 
BRANCH 18 19
ATOM     19 OG   SER E   5      32.463  34.765  18.521  1.00 32.06 LIG-0.40  OA
ATOM     20 HG   SER E   5      32.957  34.678  17.847  1.00 32.06 LIG 0.21  HD
ENDBRANCH 18 19
ENDBRANCH 17 18
BRANCH 17 21
ATOM     21  C   SER E   5      30.929  35.210  20.541  1.00 30.08 LIG 0.24  C 
ATOM     22  N   ALA E   6      31.071  34.404  21.587  1.00 30.82 LIG-0.35  N 
ATOM     23 H    ALA E   6      30.697  33.631  21.647  1.00 30.82 LIG 0.16  HD
ATOM     24 O    SER E   5      31.364  36.361  20.503  1.00 31.18 LIG-0.27  OA
BRANCH 22 25
ATOM     25  CA  ALA E   6      31.888  34.763  22.751  1.00 31.79 LIG 0.16  C 
ATOM     26  CB  ALA E   6      31.636  33.779  23.880  1.00 32.45 LIG 0.04  C 
BRANCH 25 27
ATOM     27  C   ALA E   6      33.370  34.764  22.375  1.00 32.63 LIG 0.22  C 
ATOM     28 O    ALA E   6      33.821  35.603  21.588  1.00 33.08 LIG-0.29  OA
ENDBRANCH 25 27
ENDBRANCH 22 25
ENDBRANCH 17 21
ENDBRANCH 14 17
ENDBRANCH 1 13
BRANCH 1 29
ATOM     29  N   TRP E   4      25.810  34.913  17.459  1.00 23.46 LIG-0.35  N 
ATOM     30  C   SER E   3      25.145  33.759  17.285  1.00 23.52 LIG 0.24  C 
ATOM     31 O    SER E   3      25.230  32.786  18.056  1.00 23.44 LIG-0.27  OA
ATOM     32 H    TRP E   4      25.905  35.493  16.830  1.00 23.46 LIG 0.16  HD
BRANCH 30 33
ATOM     33  CA  SER E   3      24.261  33.680  16.025  1.00 23.60 LIG 0.20  C 
BRANCH 33 34
ATOM     34  N   SER E   3      24.973  33.916  14.752  1.00 22.15 LIG-0.34  N 
ATOM     35  C   ALA E   2      26.052  33.189  14.416  1.00 22.11 LIG 0.26  C 
ATOM     36 O    ALA E   2      26.555  32.330  15.132  1.00 20.14 LIG-0.27  OA
ATOM     37 H    SER E   3      24.641  34.542  14.265  1.00 22.15 LIG 0.16  HD
BRANCH 35 38
ATOM     38  CA  ALA E   2      26.673  33.425  13.064  1.00 21.91 LIG 0.40  C 
ATOM     39  N   ALA E   2      26.679  34.918  12.784  1.00 22.04 LIG 0.61  N 
ATOM     40  CB  ALA E   2      28.127  32.863  13.081  1.00 22.52 LIG 0.06  C 
ENDBRANCH 35 38
ENDBRANCH 33 34
BRANCH 33 41
ATOM     41  CB  SER E   3      23.532  32.331  16.000  1.00 24.43 LIG 0.20  C 
BRANCH 41 42
ATOM     42 OG   SER E   3      22.120  32.514  16.029  1.00 28.93 LIG-0.40  OA
ATOM     43 HG   SER E   3      21.775  32.136  15.363  1.00 28.93 LIG 0.21  HD
ENDBRANCH 41 42
ENDBRANCH 33 41
ENDBRANCH 30 33
ENDBRANCH 1 29
TORSDOF 15
ENDMDL
MODEL 11
USER: ADFR SOLUTION from run 20
USER: SCORE 13.624267 LL:  -2.621 LR: -13.111 RR:   0.000 FEB:  -8.637
USER: RMSD 6.689461
USER: SEED 19
USER: STATUS no improvement in best in 12 clusters for 5 generations
USER: GENES 17
USER: genes 0 Translation |==|  0.39504 0.37064 0.38494
USER: genes 1 Rotation |==|  0.27132 0.30119 0.10483 0.54495
USER: genes 2 Torsion [C]-CA--CB-[CG] |==|  0.84739
USER: genes 3 Torsion [CA]-CB--CG-[CD2] |==|  0.24474
USER: genes 4 Torsion [N]-CA--C-[N] |==|  0.49456
USER: genes 5 Torsion [C]-N--CA-[C] |==|  0.21111
USER: genes 6 Torsion [N]-CA--CB-[OG] |==|  0.27297
USER: genes 7 Torsion [CA]-CB--OG-[HG] |==|  0.85469
USER: genes 8 Torsion [N]-CA--C-[N] |==|  0.03021
USER: genes 9 Torsion [C]-N--CA-[CB] |==|  0.80801
USER: genes 10 Torsion [N]-CA--C-[O] |==|  0.33457
USER: genes 11 Torsion [CB]-CA--N-[C] |==|  0.34411
USER: genes 12 Torsion [N]-C--CA-[N] |==|  0.11715
USER: genes 13 Torsion [C]-CA--N-[C] |==|  0.14003
USER: genes 14 Torsion [N]-C--CA-[N] |==|  0.89942
USER: genes 15 Torsion [C]-CA--CB-[OG] |==|  0.71523
USER: genes 16 Torsion [CA]-CB--OG-[HG] |==|  0.33290
ROOT
ATOM      1  CA  TRP E   4      25.058  33.102  18.113  1.00 23.90 LIG 0.18  C 
ENDROOT
BRANCH 1 2
ATOM      2  CB  TRP E   4      26.126  32.027  18.444  1.00 23.42 LIG 0.07  C 
BRANCH 2 3
ATOM      3  CG  TRP E   4      27.520  32.295  17.897  1.00 21.81 LIG-0.03  A 
ATOM      4  CD1 TRP E   4      28.015  31.881  16.677  1.00 20.28 LIG 0.10  A 
ATOM      5  NE1 TRP E   4      29.299  32.313  16.522  1.00 14.71 LIG-0.36  N 
ATOM      6 HE1  TRP E   4      29.794  32.154  15.837  1.00 14.71 LIG 0.17  HD
ATOM      7  CE2 TRP E   4      29.681  33.034  17.613  1.00 22.42 LIG 0.04  A 
ATOM      8  CD2 TRP E   4      28.588  33.045  18.517  1.00 21.74 LIG-0.00  A 
ATOM      9  CZ2 TRP E   4      30.913  33.639  17.904  1.00 22.45 LIG 0.03  A 
ATOM     10  CE3 TRP E   4      28.736  33.715  19.755  1.00 23.04 LIG 0.01  A 
ATOM     11  CZ3 TRP E   4      29.949  34.343  20.024  1.00 25.12 LIG 0.00  A 
ATOM     12  CH2 TRP E   4      31.022  34.298  19.100  1.00 23.64 LIG 0.00  A 
ENDBRANCH 2 3
ENDBRANCH 1 2
BRANCH 1 13
ATOM     13  C   TRP E   4      25.530  34.486  18.570  1.00 25.70 LIG 0.24  C 
ATOM     14  N   SER E   5      25.848  34.650  19.861  1.00 27.23 LIG-0.34  N 
ATOM     15 H    SER E   5      25.768  34.040  20.462  1.00 27.23 LIG 0.16  HD
ATOM     16 O    TRP E   4      25.613  35.402  17.748  1.00 24.65 LIG-0.27  OA
BRANCH 14 17
ATOM     17  CA  SER E   5      26.382  35.944  20.357  1.00 29.24 LIG 0.20  C 
BRANCH 17 18
ATOM     18  CB  SER E   5      27.496  36.487  19.457  1.00 29.98 LIG 0.20  C 
BRANCH 18 19
ATOM     19 OG   SER E   5      26.983  37.459  18.559  1.00 32.06 LIG-0.40  OA
ATOM     20 HG   SER E   5      26.320  37.143  18.152  1.00 32.06 LIG 0.21  HD
ENDBRANCH 18 19
ENDBRANCH 17 18
BRANCH 17 21
ATOM     21  C   SER E   5      25.307  37.009  20.500  1.00 30.08 LIG 0.24  C 
ATOM     22  N   ALA E   6      24.054  36.583  20.387  1.00 30.82 LIG-0.35  N 
ATOM     23 H    ALA E   6      23.843  35.781  20.157  1.00 30.82 LIG 0.16  HD
ATOM     24 O    SER E   5      25.612  38.183  20.713  1.00 31.18 LIG-0.27  OA
BRANCH 22 25
ATOM     25  CA  ALA E   6      22.902  37.452  20.648  1.00 31.79 LIG 0.16  C 
ATOM     26  CB  ALA E   6      22.825  37.771  22.132  1.00 32.45 LIG 0.04  C 
BRANCH 25 27
ATOM     27  C   ALA E   6      23.021  38.743  19.838  1.00 32.63 LIG 0.22  C 
ATOM     28 O    ALA E   6      22.151  39.057  19.019  1.00 33.08 LIG-0.29  OA
ENDBRANCH 25 27
ENDBRANCH 22 25
ENDBRANCH 17 21
ENDBRANCH 14 17
ENDBRANCH 1 13
BRANCH 1 29
ATOM     29  N   TRP E   4      24.714  33.142  16.679  1.00 23.46 LIG-0.35  N 
ATOM     30  C   SER E   3      23.469  33.001  16.198  1.00 23.52 LIG 0.24  C 
ATOM     31 O    SER E   3      22.519  32.539  16.857  1.00 23.44 LIG-0.27  OA
ATOM     32 H    TRP E   4      25.397  33.266  16.170  1.00 23.46 LIG 0.16  HD
BRANCH 30 33
ATOM     33  CA  SER E   3      23.266  33.424  14.731  1.00 23.60 LIG 0.20  C 
BRANCH 33 34
ATOM     34  N   SER E   3      24.343  33.005  13.809  1.00 22.15 LIG-0.34  N 
ATOM     35  C   ALA E   2      24.771  31.732  13.777  1.00 22.11 LIG 0.26  C 
ATOM     36 O    ALA E   2      24.357  30.846  14.516  1.00 20.14 LIG-0.27  OA
ATOM     37 H    SER E   3      24.657  33.634  13.314  1.00 22.15 LIG 0.16  HD
BRANCH 35 38
ATOM     38  CA  ALA E   2      25.810  31.359  12.752  1.00 21.91 LIG 0.40  C 
ATOM     39  N   ALA E   2      25.539  32.139  11.477  1.00 22.04 LIG 0.61  N 
ATOM     40  CB  ALA E   2      27.217  31.709  13.322  1.00 22.52 LIG 0.06  C 
ENDBRANCH 35 38
ENDBRANCH 33 34
BRANCH 33 41
ATOM     41  CB  SER E   3      21.903  32.921  14.240  1.00 24.43 LIG 0.20  C 
BRANCH 41 42
ATOM     42 OG   SER E   3      22.049  31.764  13.423  1.00 28.93 LIG-0.40  OA
ATOM     43 HG   SER E   3      21.634  31.122  13.771  1.00 28.93 LIG 0.21  HD
ENDBRANCH 41 42
ENDBRANCH 33 41
ENDBRANCH 30 33
ENDBRANCH 1 29
TORSDOF 15
ENDMDL
MODEL 12
USER: ADFR SOLUTION from run 43
USER: SCORE 13.838011 LL:  -2.919 LR: -13.087 RR:   0.000 FEB:  -8.612
USER: RMSD 7.111324
USER: SEED 42
USER: STATUS searching
USER: GENES 17
USER: genes 0 Translation |==|  0.42318 0.34322 0.40923
USER: genes 1 Rotation |==|  0.25566 0.39359 0.08317 0.57226
USER: genes 2 Torsion [C]-CA--CB-[CG] |==|  0.74167
USER: genes 3 Torsion [CA]-CB--CG-[CD2] |==|  0.79675
USER: genes 4 Torsion [N]-CA--C-[N] |==|  0.16913
USER: genes 5 Torsion [C]-N--CA-[C] |==|  0.56530
USER: genes 6 Torsion [N]-CA--CB-[OG] |==|  0.75845
USER: genes 7 Torsion [CA]-CB--OG-[HG] |==|  0.16529
USER: genes 8 Torsion [N]-CA--C-[N] |==|  0.48333
USER: genes 9 Torsion [C]-N--CA-[CB] |==|  0.24507
USER: genes 10 Torsion [N]-CA--C-[O] |==|  0.30240
USER: genes 11 Torsion [CB]-CA--N-[C] |==|  0.25985
USER: genes 12 Torsion [N]-C--CA-[N] |==|  0.15726
USER: genes 13 Torsion [C]-CA--N-[C] |==|  0.79866
USER: genes 14 Torsion [N]-C--CA-[N] |==|  0.28673
USER: genes 15 Torsion [C]-CA--CB-[OG] |==|  0.10838
USER: genes 16 Torsion [CA]-CB--OG-[HG] |==|  0.57709
ROOT
ATOM      1  CA  TRP E   4      25.586  32.670  18.623  1.00 23.90 LIG 0.18  C 
ENDROOT
BRANCH 1 2
ATOM      2  CB  TRP E   4      26.525  31.450  18.431  1.00 23.42 LIG 0.07  C 
BRANCH 2 3
ATOM      3  CG  TRP E   4      27.400  31.484  17.188  1.00 21.81 LIG-0.03  A 
ATOM      4  CD1 TRP E   4      28.763  31.697  17.149  1.00 20.28 LIG 0.10  A 
ATOM      5  NE1 TRP E   4      29.208  31.649  15.862  1.00 14.71 LIG-0.36  N 
ATOM      6 HE1  TRP E   4      30.024  31.768  15.617  1.00 14.71 LIG 0.17  HD
ATOM      7  CE2 TRP E   4      28.169  31.387  15.021  1.00 22.42 LIG 0.04  A 
ATOM      8  CD2 TRP E   4      26.999  31.282  15.814  1.00 21.74 LIG-0.00  A 
ATOM      9  CZ2 TRP E   4      28.151  31.282  13.621  1.00 22.45 LIG 0.03  A 
ATOM     10  CE3 TRP E   4      25.762  31.034  15.172  1.00 23.04 LIG 0.01  A 
ATOM     11  CZ3 TRP E   4      25.755  30.894  13.787  1.00 25.12 LIG 0.00  A 
ATOM     12  CH2 TRP E   4      26.944  31.020  13.028  1.00 23.64 LIG 0.00  A 
ENDBRANCH 2 3
ENDBRANCH 1 2
BRANCH 1 13
ATOM     13  C   TRP E   4      26.261  33.736  19.493  1.00 25.70 LIG 0.24  C 
ATOM     14  N   SER E   5      25.539  34.805  19.855  1.00 27.23 LIG-0.34  N 
ATOM     15 H    SER E   5      24.732  34.955  19.598  1.00 27.23 LIG 0.16  HD
ATOM     16 O    TRP E   4      27.434  33.582  19.842  1.00 24.65 LIG-0.27  OA
BRANCH 14 17
ATOM     17  CA  SER E   5      26.107  35.839  20.756  1.00 29.24 LIG 0.20  C 
BRANCH 17 18
ATOM     18  CB  SER E   5      27.011  36.820  20.004  1.00 29.98 LIG 0.20  C 
BRANCH 18 19
ATOM     19 OG   SER E   5      28.339  36.323  19.937  1.00 32.06 LIG-0.40  OA
ATOM     20 HG   SER E   5      28.341  35.582  19.540  1.00 32.06 LIG 0.21  HD
ENDBRANCH 18 19
ENDBRANCH 17 18
BRANCH 17 21
ATOM     21  C   SER E   5      25.039  36.629  21.495  1.00 30.08 LIG 0.24  C 
ATOM     22  N   ALA E   6      25.482  37.485  22.409  1.00 30.82 LIG-0.35  N 
ATOM     23 H    ALA E   6      26.306  37.539  22.649  1.00 30.82 LIG 0.16  HD
ATOM     24 O    SER E   5      23.846  36.467  21.234  1.00 31.18 LIG-0.27  OA
BRANCH 22 25
ATOM     25  CA  ALA E   6      24.595  38.426  23.099  1.00 31.79 LIG 0.16  C 
ATOM     26  CB  ALA E   6      24.015  37.770  24.341  1.00 32.45 LIG 0.04  C 
BRANCH 25 27
ATOM     27  C   ALA E   6      25.363  39.691  23.483  1.00 32.63 LIG 0.22  C 
ATOM     28 O    ALA E   6      25.151  40.760  22.901  1.00 33.08 LIG-0.29  OA
ENDBRANCH 25 27
ENDBRANCH 22 25
ENDBRANCH 17 21
ENDBRANCH 14 17
ENDBRANCH 1 13
BRANCH 1 29
ATOM     29  N   TRP E   4      25.160  33.269  17.344  1.00 23.46 LIG-0.35  N 
ATOM     30  C   SER E   3      24.025  32.947  16.702  1.00 23.52 LIG 0.24  C 
ATOM     31 O    SER E   3      23.356  31.925  16.944  1.00 23.44 LIG-0.27  OA
ATOM     32 H    TRP E   4      25.715  33.853  17.041  1.00 23.46 LIG 0.16  HD
BRANCH 30 33
ATOM     33  CA  SER E   3      23.587  33.919  15.590  1.00 23.60 LIG 0.20  C 
BRANCH 33 34
ATOM     34  N   SER E   3      24.591  34.142  14.529  1.00 22.15 LIG-0.34  N 
ATOM     35  C   ALA E   2      25.696  34.871  14.763  1.00 22.11 LIG 0.26  C 
ATOM     36 O    ALA E   2      25.936  35.437  15.823  1.00 20.14 LIG-0.27  OA
ATOM     37 H    SER E   3      24.406  33.773  13.775  1.00 22.15 LIG 0.16  HD
BRANCH 35 38
ATOM     38  CA  ALA E   2      26.718  34.983  13.663  1.00 21.91 LIG 0.40  C 
ATOM     39  N   ALA E   2      26.587  36.349  13.012  1.00 22.04 LIG 0.61  N 
ATOM     40  CB  ALA E   2      28.136  34.802  14.282  1.00 22.52 LIG 0.06  C 
ENDBRANCH 35 38
ENDBRANCH 33 34
BRANCH 33 41
ATOM     41  CB  SER E   3      22.259  33.441  14.991  1.00 24.43 LIG 0.20  C 
BRANCH 41 42
ATOM     42 OG   SER E   3      21.395  32.934  16.003  1.00 28.93 LIG-0.40  OA
ATOM     43 HG   SER E   3      20.880  32.360  15.670  1.00 28.93 LIG 0.21  HD
ENDBRANCH 41 42
ENDBRANCH 33 41
ENDBRANCH 30 33
ENDBRANCH 1 29
TORSDOF 15
ENDMDL
MODEL 13
USER: ADFR SOLUTION from run 191
USER: SCORE 13.457279 LL:  -2.360 LR: -13.074 RR:   0.000 FEB:  -8.599
USER: RMSD 5.357986
USER: SEED 190
USER: STATUS searching
USER: GENES 17
USER: genes 0 Translation |==|  0.45245 0.47078 0.40513
USER: genes 1 Rotation |==|  0.31625 0.24156 0.17795 0.71383
USER: genes 2 Torsion [C]-CA--CB-[CG] |==|  0.21120
USER: genes 3 Torsion [CA]-CB--CG-[CD2] |==|  0.80627
USER: genes 4 Torsion [N]-CA--C-[N] |==|  0.32214
USER: genes 5 Torsion [C]-N--CA-[C] |==|  0.65198
USER: genes 6 Torsion [N]-CA--CB-[OG] |==|  0.55356
USER: genes 7 Torsion [CA]-CB--OG-[HG] |==|  0.60789
USER: genes 8 Torsion [N]-CA--C-[N] |==|  0.47266
USER: genes 9 Torsion [C]-N--CA-[CB] |==|  0.40476
USER: genes 10 Torsion [N]-CA--C-[O] |==|  0.81274
USER: genes 11 Torsion [CB]-CA--N-[C] |==|  0.37962
USER: genes 12 Torsion [N]-C--CA-[N] |==|  0.12309
USER: genes 13 Torsion [C]-CA--N-[C] |==|  0.16667
USER: genes 14 Torsion [N]-C--CA-[N] |==|  0.79159
USER: genes 15 Torsion [C]-CA--CB-[OG] |==|  0.25604
USER: genes 16 Torsion [CA]-CB--OG-[HG] |==|  0.45720
ROOT
ATOM      1  CA  TRP E   4      26.134  34.679  18.537  1.00 23.90 LIG 0.18  C 
ENDROOT
BRANCH 1 2
ATOM      2  CB  TRP E   4      27.685  34.654  18.516  1.00 23.42 LIG 0.07  C 
BRANCH 2 3
ATOM      3  CG  TRP E   4      28.358  34.505  19.873  1.00 21.81 LIG-0.03  A 
ATOM      4  CD1 TRP E   4      29.065  33.408  20.321  1.00 20.28 LIG 0.10  A 
ATOM      5  NE1 TRP E   4      29.531  33.635  21.581  1.00 14.71 LIG-0.36  N 
ATOM      6 HE1  TRP E   4      29.987  33.075  22.048  1.00 14.71 LIG 0.17  HD
ATOM      7  CE2 TRP E   4      29.168  34.882  21.993  1.00 22.42 LIG 0.04  A 
ATOM      8  CD2 TRP E   4      28.414  35.471  20.946  1.00 21.74 LIG-0.00  A 
ATOM      9  CZ2 TRP E   4      29.397  35.526  23.219  1.00 22.45 LIG 0.03  A 
ATOM     10  CE3 TRP E   4      27.892  36.773  21.133  1.00 23.04 LIG 0.01  A 
ATOM     11  CZ3 TRP E   4      28.152  37.422  22.337  1.00 25.12 LIG 0.00  A 
ATOM     12  CH2 TRP E   4      28.898  36.793  23.364  1.00 23.64 LIG 0.00  A 
ENDBRANCH 2 3
ENDBRANCH 1 2
BRANCH 1 13
ATOM     13  C   TRP E   4      25.626  36.038  19.029  1.00 25.70 LIG 0.24  C 
ATOM     14  N   SER E   5      24.882  36.069  20.142  1.00 27.23 LIG-0.34  N 
ATOM     15 H    SER E   5      24.635  35.371  20.580  1.00 27.23 LIG 0.16  HD
ATOM     16 O    TRP E   4      25.918  37.060  18.401  1.00 24.65 LIG-0.27  OA
BRANCH 14 17
ATOM     17  CA  SER E   5      24.417  37.358  20.715  1.00 29.24 LIG 0.20  C 
BRANCH 17 18
ATOM     18  CB  SER E   5      22.900  37.525  20.591  1.00 29.98 LIG 0.20  C 
BRANCH 18 19
ATOM     19 OG   SER E   5      22.537  38.891  20.723  1.00 32.06 LIG-0.40  OA
ATOM     20 HG   SER E   5      21.825  38.950  21.165  1.00 32.06 LIG 0.21  HD
ENDBRANCH 18 19
ENDBRANCH 17 18
BRANCH 17 21
ATOM     21  C   SER E   5      24.810  37.531  22.173  1.00 30.08 LIG 0.24  C 
ATOM     22  N   ALA E   6      24.606  38.739  22.686  1.00 30.82 LIG-0.35  N 
ATOM     23 H    ALA E   6      24.357  39.418  22.220  1.00 30.82 LIG 0.16  HD
ATOM     24 O    SER E   5      25.280  36.589  22.812  1.00 31.18 LIG-0.27  OA
BRANCH 22 25
ATOM     25  CA  ALA E   6      24.790  39.029  24.111  1.00 31.79 LIG 0.16  C 
ATOM     26  CB  ALA E   6      25.317  40.443  24.285  1.00 32.45 LIG 0.04  C 
BRANCH 25 27
ATOM     27  C   ALA E   6      23.467  38.865  24.859  1.00 32.63 LIG 0.22  C 
ATOM     28 O    ALA E   6      22.526  39.639  24.654  1.00 33.08 LIG-0.29  OA
ENDBRANCH 25 27
ENDBRANCH 22 25
ENDBRANCH 17 21
ENDBRANCH 14 17
ENDBRANCH 1 13
BRANCH 1 29
ATOM     29  N   TRP E   4      25.541  34.373  17.221  1.00 23.46 LIG-0.35  N 
ATOM     30  C   SER E   3      24.489  33.559  17.040  1.00 23.52 LIG 0.24  C 
ATOM     31 O    SER E   3      24.078  32.755  17.897  1.00 23.44 LIG-0.27  OA
ATOM     32 H    TRP E   4      25.938  34.770  16.569  1.00 23.46 LIG 0.16  HD
BRANCH 30 33
ATOM     33  CA  SER E   3      23.804  33.647  15.663  1.00 23.60 LIG 0.20  C 
BRANCH 33 34
ATOM     34  N   SER E   3      24.729  33.687  14.511  1.00 22.15 LIG-0.34  N 
ATOM     35  C   ALA E   2      25.590  32.682  14.278  1.00 22.11 LIG 0.26  C 
ATOM     36 O    ALA E   2      25.716  31.700  15.002  1.00 20.14 LIG-0.27  OA
ATOM     37 H    SER E   3      24.665  34.392  14.023  1.00 22.15 LIG 0.16  HD
BRANCH 35 38
ATOM     38  CA  ALA E   2      26.441  32.750  13.038  1.00 21.91 LIG 0.40  C 
ATOM     39  N   ALA E   2      25.575  32.419  11.834  1.00 22.04 LIG 0.61  N 
ATOM     40  CB  ALA E   2      27.026  34.190  12.915  1.00 22.52 LIG 0.06  C 
ENDBRANCH 35 38
ENDBRANCH 33 34
BRANCH 33 41
ATOM     41  CB  SER E   3      22.803  32.494  15.518  1.00 24.43 LIG 0.20  C 
BRANCH 41 42
ATOM     42 OG   SER E   3      21.504  32.889  15.946  1.00 28.93 LIG-0.40  OA
ATOM     43 HG   SER E   3      20.937  32.334  15.669  1.00 28.93 LIG 0.21  HD
ENDBRANCH 41 42
ENDBRANCH 33 41
ENDBRANCH 30 33
ENDBRANCH 1 29
TORSDOF 15
ENDMDL
MODEL 14
USER: ADFR SOLUTION from run 78
USER: SCORE 13.954476 LL:  -1.987 LR: -13.051 RR:   0.000 FEB:  -8.576
USER: RMSD 8.554165
USER: SEED 77
USER: STATUS no improvement in best in 8 clusters for 5 generations
USER: GENES 17
USER: genes 0 Translation |==|  0.44211 0.52136 0.48733
USER: genes 1 Rotation |==|  0.35297 0.97408 0.49712 0.56018
USER: genes 2 Torsion [C]-CA--CB-[CG] |==|  0.38435
USER: genes 3 Torsion [CA]-CB--CG-[CD2] |==|  0.26439
USER: genes 4 Torsion [N]-CA--C-[N] |==|  0.35087
USER: genes 5 Torsion [C]-N--CA-[C] |==|  0.55701
USER: genes 6 Torsion [N]-CA--CB-[OG] |==|  0.10932
USER: genes 7 Torsion [CA]-CB--OG-[HG] |==|  0.31729
USER: genes 8 Torsion [N]-CA--C-[N] |==|  0.38105
USER: genes 9 Torsion [C]-N--CA-[CB] |==|  0.83978
USER: genes 10 Torsion [N]-CA--C-[O] |==|  0.80296
USER: genes 11 Torsion [CB]-CA--N-[C] |==|  0.86667
USER: genes 12 Torsion [N]-C--CA-[N] |==|  0.77968
USER: genes 13 Torsion [C]-CA--N-[C] |==|  0.70394
USER: genes 14 Torsion [N]-C--CA-[N] |==|  0.32401
USER: genes 15 Torsion [C]-CA--CB-[OG] |==|  0.39804
USER: genes 16 Torsion [CA]-CB--OG-[HG] |==|  0.59400
ROOT
ATOM      1  CA  TRP E   4      25.941  35.475  20.263  1.00 23.90 LIG 0.18  C 
ENDROOT
BRANCH 1 2
ATOM      2  CB  TRP E   4      25.607  36.990  20.256  1.00 23.42 LIG 0.07  C 
BRANCH 2 3
ATOM      3  CG  TRP E   4      24.485  37.420  21.189  1.00 21.81 LIG-0.03  A 
ATOM      4  CD1 TRP E   4      23.132  37.371  20.921  1.00 20.28 LIG 0.10  A 
ATOM      5  NE1 TRP E   4      22.425  37.828  21.993  1.00 14.71 LIG-0.36  N 
ATOM      6 HE1  TRP E   4      21.568  37.891  22.029  1.00 14.71 LIG 0.17  HD
ATOM      7  CE2 TRP E   4      23.278  38.172  22.998  1.00 22.42 LIG 0.04  A 
ATOM      8  CD2 TRP E   4      24.597  37.938  22.533  1.00 21.74 LIG-0.00  A 
ATOM      9  CZ2 TRP E   4      23.004  38.716  24.263  1.00 22.45 LIG 0.03  A 
ATOM     10  CE3 TRP E   4      25.684  38.241  23.388  1.00 23.04 LIG 0.01  A 
ATOM     11  CZ3 TRP E   4      25.405  38.746  24.655  1.00 25.12 LIG 0.00  A 
ATOM     12  CH2 TRP E   4      24.073  38.979  25.077  1.00 23.64 LIG 0.00  A 
ENDBRANCH 2 3
ENDBRANCH 1 2
BRANCH 1 13
ATOM     13  C   TRP E   4      26.189  34.974  18.836  1.00 25.70 LIG 0.24  C 
ATOM     14  N   SER E   5      25.267  34.178  18.278  1.00 27.23 LIG-0.34  N 
ATOM     15 H    SER E   5      24.563  33.895  18.681  1.00 27.23 LIG 0.16  HD
ATOM     16 O    TRP E   4      27.213  35.318  18.240  1.00 24.65 LIG-0.27  OA
BRANCH 14 17
ATOM     17  CA  SER E   5      25.408  33.715  16.874  1.00 29.24 LIG 0.20  C 
BRANCH 17 18
ATOM     18  CB  SER E   5      26.426  32.578  16.746  1.00 29.98 LIG 0.20  C 
BRANCH 18 19
ATOM     19 OG   SER E   5      26.313  31.682  17.841  1.00 32.06 LIG-0.40  OA
ATOM     20 HG   SER E   5      26.048  30.934  17.564  1.00 32.06 LIG 0.21  HD
ENDBRANCH 18 19
ENDBRANCH 17 18
BRANCH 17 21
ATOM     21  C   SER E   5      24.091  33.263  16.266  1.00 30.08 LIG 0.24  C 
ATOM     22  N   ALA E   6      23.863  33.661  15.020  1.00 30.82 LIG-0.35  N 
ATOM     23 H    ALA E   6      24.369  34.214  14.597  1.00 30.82 LIG 0.16  HD
ATOM     24 O    SER E   5      23.309  32.566  16.913  1.00 31.18 LIG-0.27  OA
BRANCH 22 25
ATOM     25  CA  ALA E   6      22.714  33.187  14.241  1.00 31.79 LIG 0.16  C 
ATOM     26  CB  ALA E   6      22.749  31.671  14.145  1.00 32.45 LIG 0.04  C 
BRANCH 25 27
ATOM     27  C   ALA E   6      21.410  33.643  14.895  1.00 32.63 LIG 0.22  C 
ATOM     28 O    ALA E   6      21.029  33.146  15.960  1.00 33.08 LIG-0.29  OA
ENDBRANCH 25 27
ENDBRANCH 22 25
ENDBRANCH 17 21
ENDBRANCH 14 17
ENDBRANCH 1 13
BRANCH 1 29
ATOM     29  N   TRP E   4      27.102  35.150  21.113  1.00 23.46 LIG-0.35  N 
ATOM     30  C   SER E   3      28.270  35.811  21.078  1.00 23.52 LIG 0.24  C 
ATOM     31 O    SER E   3      28.612  36.566  20.149  1.00 23.44 LIG-0.27  OA
ATOM     32 H    TRP E   4      26.959  34.487  21.643  1.00 23.46 LIG 0.16  HD
BRANCH 30 33
ATOM     33  CA  SER E   3      29.216  35.562  22.268  1.00 23.60 LIG 0.20  C 
BRANCH 33 34
ATOM     34  N   SER E   3      28.880  36.313  23.496  1.00 22.15 LIG-0.34  N 
ATOM     35  C   ALA E   2      29.621  37.362  23.890  1.00 22.11 LIG 0.26  C 
ATOM     36 O    ALA E   2      30.634  37.746  23.315  1.00 20.14 LIG-0.27  OA
ATOM     37 H    SER E   3      28.190  36.023  23.917  1.00 22.15 LIG 0.16  HD
BRANCH 35 38
ATOM     38  CA  ALA E   2      29.169  38.135  25.101  1.00 21.91 LIG 0.40  C 
ATOM     39  N   ALA E   2      30.225  38.005  26.184  1.00 22.04 LIG 0.61  N 
ATOM     40  CB  ALA E   2      28.977  39.627  24.696  1.00 22.52 LIG 0.06  C 
ENDBRANCH 35 38
ENDBRANCH 33 34
BRANCH 33 41
ATOM     41  CB  SER E   3      29.290  34.057  22.553  1.00 24.43 LIG 0.20  C 
BRANCH 41 42
ATOM     42 OG   SER E   3      30.603  33.676  22.950  1.00 28.93 LIG-0.40  OA
ATOM     43 HG   SER E   3      30.767  32.902  22.667  1.00 28.93 LIG 0.21  HD
ENDBRANCH 41 42
ENDBRANCH 33 41
ENDBRANCH 30 33
ENDBRANCH 1 29
TORSDOF 15
ENDMDL
MODEL 15
USER: ADFR SOLUTION from run 154
USER: SCORE 13.951709 LL:  -2.787 LR: -12.945 RR:   0.000 FEB:  -8.470
USER: RMSD 7.505939
USER: SEED 153
USER: STATUS no improvement in best in 6 clusters for 5 generations
USER: GENES 17
USER: genes 0 Translation |==|  0.48386 0.43776 0.44712
USER: genes 1 Rotation |==|  0.74048 0.10912 0.49099 0.69825
USER: genes 2 Torsion [C]-CA--CB-[CG] |==|  0.40295
USER: genes 3 Torsion [CA]-CB--CG-[CD2] |==|  0.55530
USER: genes 4 Torsion [N]-CA--C-[N] |==|  0.65313
USER: genes 5 Torsion [C]-N--CA-[C] |==|  0.83865
USER: genes 6 Torsion [N]-CA--CB-[OG] |==|  0.47245
USER: genes 7 Torsion [CA]-CB--OG-[HG] |==|  0.46265
USER: genes 8 Torsion [N]-CA--C-[N] |==|  0.35567
USER: genes 9 Torsion [C]-N--CA-[CB] |==|  0.84907
USER: genes 10 Torsion [N]-CA--C-[O] |==|  0.60456
USER: genes 11 Torsion [CB]-CA--N-[C] |==|  0.46636
USER: genes 12 Torsion [N]-C--CA-[N] |==|  0.90118
USER: genes 13 Torsion [C]-CA--N-[C] |==|  0.85000
USER: genes 14 Torsion [N]-C--CA-[N] |==|  0.48817
USER: genes 15 Torsion [C]-CA--CB-[OG] |==|  0.38329
USER: genes 16 Torsion [CA]-CB--OG-[HG] |==|  0.14867
ROOT
ATOM      1  CA  TRP E   4      26.723  34.159  19.419  1.00 23.90 LIG 0.18  C 
ENDROOT
BRANCH 1 2
ATOM      2  CB  TRP E   4      25.778  35.368  19.645  1.00 23.42 LIG 0.07  C 
BRANCH 2 3
ATOM      3  CG  TRP E   4      25.856  36.013  21.020  1.00 21.81 LIG-0.03  A 
ATOM      4  CD1 TRP E   4      26.907  35.924  21.910  1.00 20.28 LIG 0.10  A 
ATOM      5  NE1 TRP E   4      26.629  36.637  23.037  1.00 14.71 LIG-0.36  N 
ATOM      6 HE1  TRP E   4      27.147  36.704  23.720  1.00 14.71 LIG 0.17  HD
ATOM      7  CE2 TRP E   4      25.408  37.231  22.921  1.00 22.42 LIG 0.04  A 
ATOM      8  CD2 TRP E   4      24.874  36.858  21.661  1.00 21.74 LIG-0.00  A 
ATOM      9  CZ2 TRP E   4      24.705  38.027  23.839  1.00 22.45 LIG 0.03  A 
ATOM     10  CE3 TRP E   4      23.589  37.329  21.301  1.00 23.04 LIG 0.01  A 
ATOM     11  CZ3 TRP E   4      22.910  38.147  22.200  1.00 25.12 LIG 0.00  A 
ATOM     12  CH2 TRP E   4      23.472  38.485  23.455  1.00 23.64 LIG 0.00  A 
ENDBRANCH 2 3
ENDBRANCH 1 2
BRANCH 1 13
ATOM     13  C   TRP E   4      26.055  33.117  18.515  1.00 25.70 LIG 0.24  C 
ATOM     14  N   SER E   5      24.818  33.371  18.066  1.00 27.23 LIG-0.34  N 
ATOM     15 H    SER E   5      24.356  34.063  18.283  1.00 27.23 LIG 0.16  HD
ATOM     16 O    TRP E   4      26.666  32.086  18.220  1.00 24.65 LIG-0.27  OA
BRANCH 14 17
ATOM     17  CA  SER E   5      24.140  32.440  17.129  1.00 29.24 LIG 0.20  C 
BRANCH 17 18
ATOM     18  CB  SER E   5      22.728  32.915  16.772  1.00 29.98 LIG 0.20  C 
BRANCH 18 19
ATOM     19 OG   SER E   5      22.194  32.139  15.710  1.00 32.06 LIG-0.40  OA
ATOM     20 HG   SER E   5      21.369  32.281  15.648  1.00 32.06 LIG 0.21  HD
ENDBRANCH 18 19
ENDBRANCH 17 18
BRANCH 17 21
ATOM     21  C   SER E   5      24.922  32.223  15.844  1.00 30.08 LIG 0.24  C 
ATOM     22  N   ALA E   6      25.143  30.956  15.511  1.00 30.82 LIG-0.35  N 
ATOM     23 H    ALA E   6      24.949  30.290  16.018  1.00 30.82 LIG 0.16  HD
ATOM     24 O    SER E   5      25.306  33.182  15.174  1.00 31.18 LIG-0.27  OA
BRANCH 22 25
ATOM     25  CA  ALA E   6      25.748  30.576  14.230  1.00 31.79 LIG 0.16  C 
ATOM     26  CB  ALA E   6      24.958  31.188  13.086  1.00 32.45 LIG 0.04  C 
BRANCH 25 27
ATOM     27  C   ALA E   6      27.203  31.042  14.173  1.00 32.63 LIG 0.22  C 
ATOM     28 O    ALA E   6      27.688  31.472  13.121  1.00 33.08 LIG-0.29  OA
ENDBRANCH 25 27
ENDBRANCH 22 25
ENDBRANCH 17 21
ENDBRANCH 14 17
ENDBRANCH 1 13
BRANCH 1 29
ATOM     29  N   TRP E   4      28.025  34.551  18.846  1.00 23.46 LIG-0.35  N 
ATOM     30  C   SER E   3      29.092  33.739  18.773  1.00 23.52 LIG 0.24  C 
ATOM     31 O    SER E   3      29.207  32.684  19.424  1.00 23.44 LIG-0.27  OA
ATOM     32 H    TRP E   4      28.038  35.362  18.558  1.00 23.46 LIG 0.16  HD
BRANCH 30 33
ATOM     33  CA  SER E   3      30.223  34.203  17.835  1.00 23.60 LIG 0.20  C 
BRANCH 33 34
ATOM     34  N   SER E   3      29.769  34.896  16.611  1.00 22.15 LIG-0.34  N 
ATOM     35  C   ALA E   2      28.876  34.328  15.784  1.00 22.11 LIG 0.26  C 
ATOM     36 O    ALA E   2      28.412  33.204  15.938  1.00 20.14 LIG-0.27  OA
ATOM     37 H    SER E   3      30.121  35.671  16.486  1.00 22.15 LIG 0.16  HD
BRANCH 35 38
ATOM     38  CA  ALA E   2      28.394  35.129  14.603  1.00 21.91 LIG 0.40  C 
ATOM     39  N   ALA E   2      27.482  34.255  13.761  1.00 22.04 LIG 0.61  N 
ATOM     40  CB  ALA E   2      27.625  36.378  15.131  1.00 22.52 LIG 0.06  C 
ENDBRANCH 35 38
ENDBRANCH 33 34
BRANCH 33 41
ATOM     41  CB  SER E   3      31.210  35.074  18.621  1.00 24.43 LIG 0.20  C 
BRANCH 41 42
ATOM     42 OG   SER E   3      32.556  34.757  18.279  1.00 28.93 LIG-0.40  OA
ATOM     43 HG   SER E   3      32.651  34.805  17.445  1.00 28.93 LIG 0.21  HD
ENDBRANCH 41 42
ENDBRANCH 33 41
ENDBRANCH 30 33
ENDBRANCH 1 29
TORSDOF 15
ENDMDL
MODEL 16
USER: ADFR SOLUTION from run 24
USER: SCORE 13.866396 LL:  -3.043 LR: -12.926 RR:   0.000 FEB:  -8.451
USER: RMSD 5.979137
USER: SEED 23
USER: STATUS no improvement in best in 4 clusters for 5 generations
USER: GENES 17
USER: genes 0 Translation |==|  0.39765 0.33007 0.39007
USER: genes 1 Rotation |==|  0.26213 0.25701 0.13862 0.56148
USER: genes 2 Torsion [C]-CA--CB-[CG] |==|  0.86048
USER: genes 3 Torsion [CA]-CB--CG-[CD2] |==|  0.24625
USER: genes 4 Torsion [N]-CA--C-[N] |==|  0.45462
USER: genes 5 Torsion [C]-N--CA-[C] |==|  0.57222
USER: genes 6 Torsion [N]-CA--CB-[OG] |==|  0.15249
USER: genes 7 Torsion [CA]-CB--OG-[HG] |==|  0.90956
USER: genes 8 Torsion [N]-CA--C-[N] |==|  0.31617
USER: genes 9 Torsion [C]-N--CA-[CB] |==|  0.85169
USER: genes 10 Torsion [N]-CA--C-[O] |==|  0.13457
USER: genes 11 Torsion [CB]-CA--N-[C] |==|  0.45334
USER: genes 12 Torsion [N]-C--CA-[N] |==|  0.85486
USER: genes 13 Torsion [C]-CA--N-[C] |==|  0.20997
USER: genes 14 Torsion [N]-C--CA-[N] |==|  0.10897
USER: genes 15 Torsion [C]-CA--CB-[OG] |==|  0.37952
USER: genes 16 Torsion [CA]-CB--OG-[HG] |==|  0.80389
ROOT
ATOM      1  CA  TRP E   4      25.107  32.463  18.221  1.00 23.90 LIG 0.18  C 
ENDROOT
BRANCH 1 2
ATOM      2  CB  TRP E   4      26.339  31.598  18.597  1.00 23.42 LIG 0.07  C 
BRANCH 2 3
ATOM      3  CG  TRP E   4      27.651  32.007  17.946  1.00 21.81 LIG-0.03  A 
ATOM      4  CD1 TRP E   4      28.148  31.548  16.743  1.00 20.28 LIG 0.10  A 
ATOM      5  NE1 TRP E   4      29.345  32.140  16.474  1.00 14.71 LIG-0.36  N 
ATOM      6 HE1  TRP E   4      29.827  31.986  15.779  1.00 14.71 LIG 0.17  HD
ATOM      7  CE2 TRP E   4      29.664  33.015  17.469  1.00 22.42 LIG 0.04  A 
ATOM      8  CD2 TRP E   4      28.624  32.960  18.431  1.00 21.74 LIG-0.00  A 
ATOM      9  CZ2 TRP E   4      30.806  33.816  17.629  1.00 22.45 LIG 0.03  A 
ATOM     10  CE3 TRP E   4      28.726  33.765  19.590  1.00 23.04 LIG 0.01  A 
ATOM     11  CZ3 TRP E   4      29.844  34.585  19.727  1.00 25.12 LIG 0.00  A 
ATOM     12  CH2 TRP E   4      30.868  34.600  18.750  1.00 23.64 LIG 0.00  A 
ENDBRANCH 2 3
ENDBRANCH 1 2
BRANCH 1 13
ATOM     13  C   TRP E   4      25.422  33.952  18.396  1.00 25.70 LIG 0.24  C 
ATOM     14  N   SER E   5      25.542  34.429  19.643  1.00 27.23 LIG-0.34  N 
ATOM     15 H    SER E   5      25.414  33.964  20.355  1.00 27.23 LIG 0.16  HD
ATOM     16 O    TRP E   4      25.565  34.665  17.400  1.00 24.65 LIG-0.27  OA
BRANCH 14 17
ATOM     17  CA  SER E   5      25.918  35.845  19.885  1.00 29.24 LIG 0.20  C 
BRANCH 17 18
ATOM     18  CB  SER E   5      24.708  36.781  19.799  1.00 29.98 LIG 0.20  C 
BRANCH 18 19
ATOM     19 OG   SER E   5      23.683  36.354  20.682  1.00 32.06 LIG-0.40  OA
ATOM     20 HG   SER E   5      23.697  35.516  20.744  1.00 32.06 LIG 0.21  HD
ENDBRANCH 18 19
ENDBRANCH 17 18
BRANCH 17 21
ATOM     21  C   SER E   5      26.601  36.053  21.227  1.00 30.08 LIG 0.24  C 
ATOM     22  N   ALA E   6      27.875  36.426  21.174  1.00 30.82 LIG-0.35  N 
ATOM     23 H    ALA E   6      28.330  36.463  20.445  1.00 30.82 LIG 0.16  HD
ATOM     24 O    SER E   5      25.982  35.884  22.278  1.00 31.18 LIG-0.27  OA
BRANCH 22 25
ATOM     25  CA  ALA E   6      28.630  36.811  22.370  1.00 31.79 LIG 0.16  C 
ATOM     26  CB  ALA E   6      27.880  37.896  23.124  1.00 32.45 LIG 0.04  C 
BRANCH 25 27
ATOM     27  C   ALA E   6      28.846  35.597  23.274  1.00 32.63 LIG 0.22  C 
ATOM     28 O    ALA E   6      29.265  34.531  22.810  1.00 33.08 LIG-0.29  OA
ENDBRANCH 25 27
ENDBRANCH 22 25
ENDBRANCH 17 21
ENDBRANCH 14 17
ENDBRANCH 1 13
BRANCH 1 29
ATOM     29  N   TRP E   4      24.634  32.214  16.846  1.00 23.46 LIG-0.35  N 
ATOM     30  C   SER E   3      23.424  32.574  16.388  1.00 23.52 LIG 0.24  C 
ATOM     31 O    SER E   3      22.470  32.889  17.123  1.00 23.44 LIG-0.27  OA
ATOM     32 H    TRP E   4      25.214  31.809  16.355  1.00 23.46 LIG 0.16  HD
BRANCH 30 33
ATOM     33  CA  SER E   3      23.253  32.552  14.857  1.00 23.60 LIG 0.20  C 
BRANCH 33 34
ATOM     34  N   SER E   3      24.282  33.302  14.107  1.00 22.15 LIG-0.34  N 
ATOM     35  C   ALA E   2      25.520  32.807  13.945  1.00 22.11 LIG 0.26  C 
ATOM     36 O    ALA E   2      25.910  31.751  14.430  1.00 20.14 LIG-0.27  OA
ATOM     37 H    SER E   3      24.019  34.059  13.796  1.00 22.15 LIG 0.16  HD
BRANCH 35 38
ATOM     38  CA  ALA E   2      26.490  33.586  13.096  1.00 21.91 LIG 0.40  C 
ATOM     39  N   ALA E   2      26.301  35.067  13.373  1.00 22.04 LIG 0.61  N 
ATOM     40  CB  ALA E   2      27.938  33.139  13.458  1.00 22.52 LIG 0.06  C 
ENDBRANCH 35 38
ENDBRANCH 33 34
BRANCH 33 41
ATOM     41  CB  SER E   3      23.179  31.098  14.375  1.00 24.43 LIG 0.20  C 
BRANCH 41 42
ATOM     42 OG   SER E   3      22.150  30.934  13.404  1.00 28.93 LIG-0.40  OA
ATOM     43 HG   SER E   3      21.400  31.002  13.776  1.00 28.93 LIG 0.21  HD
ENDBRANCH 41 42
ENDBRANCH 33 41
ENDBRANCH 30 33
ENDBRANCH 1 29
TORSDOF 15
ENDMDL
MODEL 17
USER: ADFR SOLUTION from run 150
USER: SCORE 13.576146 LL:  -2.010 LR: -12.872 RR:   0.000 FEB:  -8.397
USER: RMSD 7.945835
USER: SEED 149
USER: STATUS no improvement in best in 4 clusters for 5 generations
USER: GENES 17
USER: genes 0 Translation |==|  0.42044 0.49436 0.44574
USER: genes 1 Rotation |==|  0.65639 0.02649 0.50740 0.53576
USER: genes 2 Torsion [C]-CA--CB-[CG] |==|  0.37255
USER: genes 3 Torsion [CA]-CB--CG-[CD2] |==|  0.21036
USER: genes 4 Torsion [N]-CA--C-[N] |==|  0.29176
USER: genes 5 Torsion [C]-N--CA-[C] |==|  0.14118
USER: genes 6 Torsion [N]-CA--CB-[OG] |==|  0.71921
USER: genes 7 Torsion [CA]-CB--OG-[HG] |==|  0.72858
USER: genes 8 Torsion [N]-CA--C-[N] |==|  0.63580
USER: genes 9 Torsion [C]-N--CA-[CB] |==|  0.37976
USER: genes 10 Torsion [N]-CA--C-[O] |==|  0.26934
USER: genes 11 Torsion [CB]-CA--N-[C] |==|  0.56667
USER: genes 12 Torsion [N]-C--CA-[N] |==|  0.23229
USER: genes 13 Torsion [C]-CA--N-[C] |==|  0.77778
USER: genes 14 Torsion [N]-C--CA-[N] |==|  0.13691
USER: genes 15 Torsion [C]-CA--CB-[OG] |==|  0.82364
USER: genes 16 Torsion [CA]-CB--OG-[HG] |==|  0.78548
ROOT
ATOM      1  CA  TRP E   4      25.534  35.050  19.390  1.00 23.90 LIG 0.18  C 
ENDROOT
BRANCH 1 2
ATOM      2  CB  TRP E   4      25.136  36.547  19.310  1.00 23.42 LIG 0.07  C 
BRANCH 2 3
ATOM      3  CG  TRP E   4      24.302  37.067  20.471  1.00 21.81 LIG-0.03  A 
ATOM      4  CD1 TRP E   4      22.944  37.308  20.461  1.00 20.28 LIG 0.10  A 
ATOM      5  NE1 TRP E   4      22.539  37.760  21.681  1.00 14.71 LIG-0.36  N 
ATOM      6 HE1  TRP E   4      21.733  37.980  21.885  1.00 14.71 LIG 0.17  HD
ATOM      7  CE2 TRP E   4      23.602  37.814  22.532  1.00 22.42 LIG 0.04  A 
ATOM      8  CD2 TRP E   4      24.746  37.391  21.808  1.00 21.74 LIG-0.00  A 
ATOM      9  CZ2 TRP E   4      23.665  38.245  23.867  1.00 22.45 LIG 0.03  A 
ATOM     10  CE3 TRP E   4      26.000  37.378  22.463  1.00 23.04 LIG 0.01  A 
ATOM     11  CZ3 TRP E   4      26.051  37.772  23.798  1.00 25.12 LIG 0.00  A 
ATOM     12  CH2 TRP E   4      24.887  38.201  24.482  1.00 23.64 LIG 0.00  A 
ENDBRANCH 2 3
ENDBRANCH 1 2
BRANCH 1 13
ATOM     13  C   TRP E   4      25.295  34.359  18.043  1.00 25.70 LIG 0.24  C 
ATOM     14  N   SER E   5      24.608  33.209  18.037  1.00 27.23 LIG-0.34  N 
ATOM     15 H    SER E   5      24.325  32.809  18.743  1.00 27.23 LIG 0.16  HD
ATOM     16 O    TRP E   4      25.728  34.875  17.009  1.00 24.65 LIG-0.27  OA
BRANCH 14 17
ATOM     17  CA  SER E   5      24.277  32.524  16.761  1.00 29.24 LIG 0.20  C 
BRANCH 17 18
ATOM     18  CB  SER E   5      23.192  33.268  15.977  1.00 29.98 LIG 0.20  C 
BRANCH 18 19
ATOM     19 OG   SER E   5      21.932  32.637  16.149  1.00 32.06 LIG-0.40  OA
ATOM     20 HG   SER E   5      21.779  32.133  15.495  1.00 32.06 LIG 0.21  HD
ENDBRANCH 18 19
ENDBRANCH 17 18
BRANCH 17 21
ATOM     21  C   SER E   5      25.488  32.336  15.862  1.00 30.08 LIG 0.24  C 
ATOM     22  N   ALA E   6      25.330  32.710  14.597  1.00 30.82 LIG-0.35  N 
ATOM     23 H    ALA E   6      24.576  32.958  14.264  1.00 30.82 LIG 0.16  HD
ATOM     24 O    SER E   5      26.535  31.870  16.310  1.00 31.18 LIG-0.27  OA
BRANCH 22 25
ATOM     25  CA  ALA E   6      26.442  32.735  13.641  1.00 31.79 LIG 0.16  C 
ATOM     26  CB  ALA E   6      25.990  32.152  12.313  1.00 32.45 LIG 0.04  C 
BRANCH 25 27
ATOM     27  C   ALA E   6      26.938  34.168  13.445  1.00 32.63 LIG 0.22  C 
ATOM     28 O    ALA E   6      27.915  34.589  14.072  1.00 33.08 LIG-0.29  OA
ENDBRANCH 25 27
ENDBRANCH 22 25
ENDBRANCH 17 21
ENDBRANCH 14 17
ENDBRANCH 1 13
BRANCH 1 29
ATOM     29  N   TRP E   4      26.935  34.854  19.807  1.00 23.46 LIG-0.35  N 
ATOM     30  C   SER E   3      27.660  33.759  19.524  1.00 23.52 LIG 0.24  C 
ATOM     31 O    SER E   3      27.168  32.682  19.140  1.00 23.44 LIG-0.27  OA
ATOM     32 H    TRP E   4      27.251  35.516  20.257  1.00 23.46 LIG 0.16  HD
BRANCH 30 33
ATOM     33  CA  SER E   3      29.181  33.891  19.730  1.00 23.60 LIG 0.20  C 
BRANCH 33 34
ATOM     34  N   SER E   3      29.641  33.670  21.118  1.00 22.15 LIG-0.34  N 
ATOM     35  C   ALA E   2      29.542  34.639  22.043  1.00 22.11 LIG 0.26  C 
ATOM     36 O    ALA E   2      29.123  35.769  21.816  1.00 20.14 LIG-0.27  OA
ATOM     37 H    SER E   3      29.965  32.889  21.268  1.00 22.15 LIG 0.16  HD
BRANCH 35 38
ATOM     38  CA  ALA E   2      29.948  34.315  23.456  1.00 21.91 LIG 0.40  C 
ATOM     39  N   ALA E   2      31.313  33.650  23.430  1.00 22.04 LIG 0.61  N 
ATOM     40  CB  ALA E   2      29.998  35.640  24.275  1.00 22.52 LIG 0.06  C 
ENDBRANCH 35 38
ENDBRANCH 33 34
BRANCH 33 41
ATOM     41  CB  SER E   3      29.909  32.955  18.759  1.00 24.43 LIG 0.20  C 
BRANCH 41 42
ATOM     42 OG   SER E   3      29.596  31.593  19.030  1.00 28.93 LIG-0.40  OA
ATOM     43 HG   SER E   3      30.028  31.335  19.702  1.00 28.93 LIG 0.21  HD
ENDBRANCH 41 42
ENDBRANCH 33 41
ENDBRANCH 30 33
ENDBRANCH 1 29
TORSDOF 15
ENDMDL
MODEL 18
USER: ADFR SOLUTION from run 39
USER: SCORE 13.939704 LL:  -2.456 LR: -12.820 RR:   0.000 FEB:  -8.345
USER: RMSD 8.392895
USER: SEED 38
USER: STATUS no improvement in best in 9 clusters for 5 generations
USER: GENES 17
USER: genes 0 Translation |==|  0.42436 0.41780 0.38960
USER: genes 1 Rotation |==|  0.61508 0.03382 0.43035 0.62075
USER: genes 2 Torsion [C]-CA--CB-[CG] |==|  0.41302
USER: genes 3 Torsion [CA]-CB--CG-[CD2] |==|  0.65018
USER: genes 4 Torsion [N]-CA--C-[N] |==|  0.29493
USER: genes 5 Torsion [C]-N--CA-[C] |==|  0.21226
USER: genes 6 Torsion [N]-CA--CB-[OG] |==|  0.66761
USER: genes 7 Torsion [CA]-CB--OG-[HG] |==|  0.92411
USER: genes 8 Torsion [N]-CA--C-[N] |==|  0.81111
USER: genes 9 Torsion [C]-N--CA-[CB] |==|  0.47911
USER: genes 10 Torsion [N]-CA--C-[O] |==|  0.16205
USER: genes 11 Torsion [CB]-CA--N-[C] |==|  0.53797
USER: genes 12 Torsion [N]-C--CA-[N] |==|  0.43291
USER: genes 13 Torsion [C]-CA--N-[C] |==|  0.78559
USER: genes 14 Torsion [N]-C--CA-[N] |==|  0.35544
USER: genes 15 Torsion [C]-CA--CB-[OG] |==|  0.71551
USER: genes 16 Torsion [CA]-CB--OG-[HG] |==|  0.56096
ROOT
ATOM      1  CA  TRP E   4      25.608  33.844  18.211  1.00 23.90 LIG 0.18  C 
ENDROOT
BRANCH 1 2
ATOM      2  CB  TRP E   4      25.527  35.366  18.504  1.00 23.42 LIG 0.07  C 
BRANCH 2 3
ATOM      3  CG  TRP E   4      25.686  35.762  19.963  1.00 21.81 LIG-0.03  A 
ATOM      4  CD1 TRP E   4      26.741  35.437  20.791  1.00 20.28 LIG 0.10  A 
ATOM      5  NE1 TRP E   4      26.547  35.973  22.030  1.00 14.71 LIG-0.36  N 
ATOM      6 HE1  TRP E   4      27.081  35.880  22.697  1.00 14.71 LIG 0.17  HD
ATOM      7  CE2 TRP E   4      25.380  36.677  22.053  1.00 22.42 LIG 0.04  A 
ATOM      8  CD2 TRP E   4      24.793  36.567  20.767  1.00 21.74 LIG-0.00  A 
ATOM      9  CZ2 TRP E   4      24.766  37.363  23.113  1.00 22.45 LIG 0.03  A 
ATOM     10  CE3 TRP E   4      23.548  37.196  20.532  1.00 23.04 LIG 0.01  A 
ATOM     11  CZ3 TRP E   4      22.960  37.905  21.576  1.00 25.12 LIG 0.00  A 
ATOM     12  CH2 TRP E   4      23.572  37.980  22.851  1.00 23.64 LIG 0.00  A 
ENDBRANCH 2 3
ENDBRANCH 1 2
BRANCH 1 13
ATOM     13  C   TRP E   4      24.725  33.481  17.011  1.00 25.70 LIG 0.24  C 
ATOM     14  N   SER E   5      23.853  32.474  17.151  1.00 27.23 LIG-0.34  N 
ATOM     15 H    SER E   5      23.782  31.988  17.857  1.00 27.23 LIG 0.16  HD
ATOM     16 O    TRP E   4      24.831  34.122  15.962  1.00 24.65 LIG-0.27  OA
BRANCH 14 17
ATOM     17  CA  SER E   5      22.918  32.117  16.055  1.00 29.24 LIG 0.20  C 
BRANCH 17 18
ATOM     18  CB  SER E   5      22.230  33.351  15.464  1.00 29.98 LIG 0.20  C 
BRANCH 18 19
ATOM     19 OG   SER E   5      20.822  33.259  15.617  1.00 32.06 LIG-0.40  OA
ATOM     20 HG   SER E   5      20.596  32.451  15.644  1.00 32.06 LIG 0.21  HD
ENDBRANCH 18 19
ENDBRANCH 17 18
BRANCH 17 21
ATOM     21  C   SER E   5      23.592  31.349  14.930  1.00 30.08 LIG 0.24  C 
ATOM     22  N   ALA E   6      24.474  32.035  14.211  1.00 30.82 LIG-0.35  N 
ATOM     23 H    ALA E   6      24.603  32.881  14.297  1.00 30.82 LIG 0.16  HD
ATOM     24 O    SER E   5      23.322  30.165  14.729  1.00 31.18 LIG-0.27  OA
BRANCH 22 25
ATOM     25  CA  ALA E   6      25.318  31.403  13.192  1.00 31.79 LIG 0.16  C 
ATOM     26  CB  ALA E   6      26.078  32.468  12.421  1.00 32.45 LIG 0.04  C 
BRANCH 25 27
ATOM     27  C   ALA E   6      26.297  30.428  13.847  1.00 32.63 LIG 0.22  C 
ATOM     28 O    ALA E   6      25.886  29.484  14.530  1.00 33.08 LIG-0.29  OA
ENDBRANCH 25 27
ENDBRANCH 22 25
ENDBRANCH 17 21
ENDBRANCH 14 17
ENDBRANCH 1 13
BRANCH 1 29
ATOM     29  N   TRP E   4      26.988  33.382  17.971  1.00 23.46 LIG-0.35  N 
ATOM     30  C   SER E   3      27.301  32.187  17.444  1.00 23.52 LIG 0.24  C 
ATOM     31 O    SER E   3      26.506  31.233  17.367  1.00 23.44 LIG-0.27  OA
ATOM     32 H    TRP E   4      27.584  33.958  18.203  1.00 23.46 LIG 0.16  HD
BRANCH 30 33
ATOM     33  CA  SER E   3      28.752  32.035  16.946  1.00 23.60 LIG 0.20  C 
BRANCH 33 34
ATOM     34  N   SER E   3      29.249  30.644  16.900  1.00 22.15 LIG-0.34  N 
ATOM     35  C   ALA E   2      29.629  30.006  18.019  1.00 22.11 LIG 0.26  C 
ATOM     36 O    ALA E   2      29.645  30.518  19.133  1.00 20.14 LIG-0.27  OA
ATOM     37 H    SER E   3      29.270  30.296  16.114  1.00 22.15 LIG 0.16  HD
BRANCH 35 38
ATOM     38  CA  ALA E   2      30.041  28.562  17.907  1.00 21.91 LIG 0.40  C 
ATOM     39  N   ALA E   2      31.402  28.391  18.560  1.00 22.04 LIG 0.61  N 
ATOM     40  CB  ALA E   2      28.973  27.684  18.626  1.00 22.52 LIG 0.06  C 
ENDBRANCH 35 38
ENDBRANCH 33 34
BRANCH 33 41
ATOM     41  CB  SER E   3      28.894  32.711  15.578  1.00 24.43 LIG 0.20  C 
BRANCH 41 42
ATOM     42 OG   SER E   3      28.900  31.748  14.530  1.00 28.93 LIG-0.40  OA
ATOM     43 HG   SER E   3      29.267  32.076  13.849  1.00 28.93 LIG 0.21  HD
ENDBRANCH 41 42
ENDBRANCH 33 41
ENDBRANCH 30 33
ENDBRANCH 1 29
TORSDOF 15
ENDMDL
MODEL 19
USER: ADFR SOLUTION from run 58
USER: SCORE 14.748284 LL:  -3.820 LR: -12.776 RR:   0.000 FEB:  -8.302
USER: RMSD 6.951255
USER: SEED 57
USER: STATUS no improvement in best in 3 clusters for 5 generations
USER: GENES 17
USER: genes 0 Translation |==|  0.38980 0.31978 0.37869
USER: genes 1 Rotation |==|  0.25223 0.22992 0.16263 0.54299
USER: genes 2 Torsion [C]-CA--CB-[CG] |==|  0.88905
USER: genes 3 Torsion [CA]-CB--CG-[CD2] |==|  0.27953
USER: genes 4 Torsion [N]-CA--C-[N] |==|  0.46907
USER: genes 5 Torsion [C]-N--CA-[C] |==|  0.80000
USER: genes 6 Torsion [N]-CA--CB-[OG] |==|  0.91633
USER: genes 7 Torsion [CA]-CB--OG-[HG] |==|  0.95102
USER: genes 8 Torsion [N]-CA--C-[N] |==|  0.19141
USER: genes 9 Torsion [C]-N--CA-[CB] |==|  0.43832
USER: genes 10 Torsion [N]-CA--C-[O] |==|  0.56090
USER: genes 11 Torsion [CB]-CA--N-[C] |==|  0.47826
USER: genes 12 Torsion [N]-C--CA-[N] |==|  0.82007
USER: genes 13 Torsion [C]-CA--N-[C] |==|  0.18976
USER: genes 14 Torsion [N]-C--CA-[N] |==|  0.17862
USER: genes 15 Torsion [C]-CA--CB-[OG] |==|  0.39974
USER: genes 16 Torsion [CA]-CB--OG-[HG] |==|  0.83457
ROOT
ATOM      1  CA  TRP E   4      24.960  32.301  17.982  1.00 23.90 LIG 0.18  C 
ENDROOT
BRANCH 1 2
ATOM      2  CB  TRP E   4      26.195  31.496  18.465  1.00 23.42 LIG 0.07  C 
BRANCH 2 3
ATOM      3  CG  TRP E   4      27.533  31.945  17.900  1.00 21.81 LIG-0.03  A 
ATOM      4  CD1 TRP E   4      28.029  31.661  16.644  1.00 20.28 LIG 0.10  A 
ATOM      5  NE1 TRP E   4      29.254  32.236  16.483  1.00 14.71 LIG-0.36  N 
ATOM      6 HE1  TRP E   4      29.741  32.173  15.777  1.00 14.71 LIG 0.17  HD
ATOM      7  CE2 TRP E   4      29.594  32.926  17.608  1.00 22.42 LIG 0.04  A 
ATOM      8  CD2 TRP E   4      28.537  32.765  18.539  1.00 21.74 LIG-0.00  A 
ATOM      9  CZ2 TRP E   4      30.766  33.641  17.904  1.00 22.45 LIG 0.03  A 
ATOM     10  CE3 TRP E   4      28.655  33.370  19.813  1.00 23.04 LIG 0.01  A 
ATOM     11  CZ3 TRP E   4      29.803  34.108  20.089  1.00 25.12 LIG 0.00  A 
ATOM     12  CH2 TRP E   4      30.843  34.234  19.136  1.00 23.64 LIG 0.00  A 
ENDBRANCH 2 3
ENDBRANCH 1 2
BRANCH 1 13
ATOM     13  C   TRP E   4      25.290  33.795  17.902  1.00 25.70 LIG 0.24  C 
ATOM     14  N   SER E   5      25.550  34.446  19.045  1.00 27.23 LIG-0.34  N 
ATOM     15 H    SER E   5      25.504  34.090  19.826  1.00 27.23 LIG 0.16  HD
ATOM     16 O    TRP E   4      25.318  34.354  16.803  1.00 24.65 LIG-0.27  OA
BRANCH 14 17
ATOM     17  CA  SER E   5      25.948  35.876  19.035  1.00 29.24 LIG 0.20  C 
BRANCH 17 18
ATOM     18  CB  SER E   5      25.837  36.511  20.424  1.00 29.98 LIG 0.20  C 
BRANCH 18 19
ATOM     19 OG   SER E   5      24.804  35.890  21.174  1.00 32.06 LIG-0.40  OA
ATOM     20 HG   SER E   5      24.295  35.469  20.655  1.00 32.06 LIG 0.21  HD
ENDBRANCH 18 19
ENDBRANCH 17 18
BRANCH 17 21
ATOM     21  C   SER E   5      27.358  36.092  18.511  1.00 30.08 LIG 0.24  C 
ATOM     22  N   ALA E   6      27.536  35.854  17.216  1.00 30.82 LIG-0.35  N 
ATOM     23 H    ALA E   6      26.932  35.511  16.708  1.00 30.82 LIG 0.16  HD
ATOM     24 O    SER E   5      28.256  36.470  19.264  1.00 31.18 LIG-0.27  OA
BRANCH 22 25
ATOM     25  CA  ALA E   6      28.794  36.158  16.527  1.00 31.79 LIG 0.16  C 
ATOM     26  CB  ALA E   6      28.907  35.314  15.268  1.00 32.45 LIG 0.04  C 
BRANCH 25 27
ATOM     27  C   ALA E   6      28.857  37.643  16.172  1.00 32.63 LIG 0.22  C 
ATOM     28 O    ALA E   6      29.596  38.046  15.267  1.00 33.08 LIG-0.29  OA
ENDBRANCH 25 27
ENDBRANCH 22 25
ENDBRANCH 17 21
ENDBRANCH 14 17
ENDBRANCH 1 13
BRANCH 1 29
ATOM     29  N   TRP E   4      24.450  31.834  16.678  1.00 23.46 LIG-0.35  N 
ATOM     30  C   SER E   3      23.307  32.264  16.119  1.00 23.52 LIG 0.24  C 
ATOM     31 O    SER E   3      22.414  32.868  16.741  1.00 23.44 LIG-0.27  OA
ATOM     32 H    TRP E   4      24.960  31.252  16.303  1.00 23.46 LIG 0.16  HD
BRANCH 30 33
ATOM     33  CA  SER E   3      23.130  31.938  14.624  1.00 23.60 LIG 0.20  C 
BRANCH 33 34
ATOM     34  N   SER E   3      24.104  32.593  13.726  1.00 22.15 LIG-0.34  N 
ATOM     35  C   ALA E   2      25.403  32.251  13.745  1.00 22.11 LIG 0.26  C 
ATOM     36 O    ALA E   2      25.888  31.430  14.515  1.00 20.14 LIG-0.27  OA
ATOM     37 H    SER E   3      23.769  33.193  13.209  1.00 22.15 LIG 0.16  HD
BRANCH 35 38
ATOM     38  CA  ALA E   2      26.321  32.898  12.742  1.00 21.91 LIG 0.40  C 
ATOM     39  N   ALA E   2      26.379  34.389  13.023  1.00 22.04 LIG 0.61  N 
ATOM     40  CB  ALA E   2      27.736  32.257  12.879  1.00 22.52 LIG 0.06  C 
ENDBRANCH 35 38
ENDBRANCH 33 34
BRANCH 33 41
ATOM     41  CB  SER E   3      23.147  30.417  14.429  1.00 24.43 LIG 0.20  C 
BRANCH 41 42
ATOM     42 OG   SER E   3      22.241  30.023  13.404  1.00 28.93 LIG-0.40  OA
ATOM     43 HG   SER E   3      21.463  30.264  13.609  1.00 28.93 LIG 0.21  HD
ENDBRANCH 41 42
ENDBRANCH 33 41
ENDBRANCH 30 33
ENDBRANCH 1 29
TORSDOF 15
ENDMDL
MODEL 20
USER: ADFR SOLUTION from run 36
USER: SCORE 13.785962 LL:  -1.762 LR: -12.772 RR:   0.000 FEB:  -8.297
USER: RMSD 3.515094
USER: SEED 35
USER: STATUS no improvement in best in 18 clusters for 5 generations
USER: GENES 17
USER: genes 0 Translation |==|  0.48339 0.52792 0.39627
USER: genes 1 Rotation |==|  0.76206 0.52029 0.70392 0.87327
USER: genes 2 Torsion [C]-CA--CB-[CG] |==|  0.19499
USER: genes 3 Torsion [CA]-CB--CG-[CD2] |==|  0.35924
USER: genes 4 Torsion [N]-CA--C-[N] |==|  0.27224
USER: genes 5 Torsion [C]-N--CA-[C] |==|  0.67293
USER: genes 6 Torsion [N]-CA--CB-[OG] |==|  0.36394
USER: genes 7 Torsion [CA]-CB--OG-[HG] |==|  0.43865
USER: genes 8 Torsion [N]-CA--C-[N] |==|  0.35096
USER: genes 9 Torsion [C]-N--CA-[CB] |==|  0.46328
USER: genes 10 Torsion [N]-CA--C-[O] |==|  0.21910
USER: genes 11 Torsion [CB]-CA--N-[C] |==|  0.56367
USER: genes 12 Torsion [N]-C--CA-[N] |==|  0.02305
USER: genes 13 Torsion [C]-CA--N-[C] |==|  0.73947
USER: genes 14 Torsion [N]-C--CA-[N] |==|  0.29017
USER: genes 15 Torsion [C]-CA--CB-[OG] |==|  0.43245
USER: genes 16 Torsion [CA]-CB--OG-[HG] |==|  0.25575
ROOT
ATOM      1  CA  TRP E   4      26.715  35.579  18.351  1.00 23.90 LIG 0.18  C 
ENDROOT
BRANCH 1 2
ATOM      2  CB  TRP E   4      25.525  35.356  19.321  1.00 23.42 LIG 0.07  C 
BRANCH 2 3
ATOM      3  CG  TRP E   4      25.700  35.932  20.718  1.00 21.81 LIG-0.03  A 
ATOM      4  CD1 TRP E   4      26.791  35.761  21.544  1.00 20.28 LIG 0.10  A 
ATOM      5  NE1 TRP E   4      26.601  36.431  22.716  1.00 14.71 LIG-0.36  N 
ATOM      6 HE1  TRP E   4      27.156  36.445  23.373  1.00 14.71 LIG 0.17  HD
ATOM      7  CE2 TRP E   4      25.400  37.074  22.693  1.00 22.42 LIG 0.04  A 
ATOM      8  CD2 TRP E   4      24.787  36.782  21.448  1.00 21.74 LIG-0.00  A 
ATOM      9  CZ2 TRP E   4      24.778  37.851  23.683  1.00 22.45 LIG 0.03  A 
ATOM     10  CE3 TRP E   4      23.504  37.316  21.180  1.00 23.04 LIG 0.01  A 
ATOM     11  CZ3 TRP E   4      22.906  38.116  22.150  1.00 25.12 LIG 0.00  A 
ATOM     12  CH2 TRP E   4      23.546  38.373  23.388  1.00 23.64 LIG 0.00  A 
ENDBRANCH 2 3
ENDBRANCH 1 2
BRANCH 1 13
ATOM     13  C   TRP E   4      27.919  34.731  18.775  1.00 25.70 LIG 0.24  C 
ATOM     14  N   SER E   5      29.132  35.298  18.744  1.00 27.23 LIG-0.34  N 
ATOM     15 H    SER E   5      29.288  36.096  18.463  1.00 27.23 LIG 0.16  HD
ATOM     16 O    TRP E   4      27.744  33.565  19.138  1.00 24.65 LIG-0.27  OA
BRANCH 14 17
ATOM     17  CA  SER E   5      30.333  34.558  19.210  1.00 29.24 LIG 0.20  C 
BRANCH 17 18
ATOM     18  CB  SER E   5      31.367  34.384  18.094  1.00 29.98 LIG 0.20  C 
BRANCH 18 19
ATOM     19 OG   SER E   5      32.657  34.764  18.546  1.00 32.06 LIG-0.40  OA
ATOM     20 HG   SER E   5      33.241  34.397  18.067  1.00 32.06 LIG 0.21  HD
ENDBRANCH 18 19
ENDBRANCH 17 18
BRANCH 17 21
ATOM     21  C   SER E   5      31.006  35.219  20.402  1.00 30.08 LIG 0.24  C 
ATOM     22  N   ALA E   6      31.201  34.439  21.460  1.00 30.82 LIG-0.35  N 
ATOM     23 H    ALA E   6      30.892  33.639  21.525  1.00 30.82 LIG 0.16  HD
ATOM     24 O    SER E   5      31.345  36.401  20.354  1.00 31.18 LIG-0.27  OA
BRANCH 22 25
ATOM     25  CA  ALA E   6      31.969  34.879  22.629  1.00 31.79 LIG 0.16  C 
ATOM     26  CB  ALA E   6      31.743  33.918  23.783  1.00 32.45 LIG 0.04  C 
BRANCH 25 27
ATOM     27  C   ALA E   6      33.458  34.949  22.286  1.00 32.63 LIG 0.22  C 
ATOM     28 O    ALA E   6      33.917  35.907  21.656  1.00 33.08 LIG-0.29  OA
ENDBRANCH 25 27
ENDBRANCH 22 25
ENDBRANCH 17 21
ENDBRANCH 14 17
ENDBRANCH 1 13
BRANCH 1 29
ATOM     29  N   TRP E   4      26.369  35.285  16.947  1.00 23.46 LIG-0.35  N 
ATOM     30  C   SER E   3      27.267  34.968  16.001  1.00 23.52 LIG 0.24  C 
ATOM     31 O    SER E   3      28.492  35.164  16.112  1.00 23.44 LIG-0.27  OA
ATOM     32 H    TRP E   4      25.525  35.335  16.788  1.00 23.46 LIG 0.16  HD
BRANCH 30 33
ATOM     33  CA  SER E   3      26.691  34.355  14.710  1.00 23.60 LIG 0.20  C 
BRANCH 33 34
ATOM     34  N   SER E   3      25.217  34.378  14.616  1.00 22.15 LIG-0.34  N 
ATOM     35  C   ALA E   2      24.481  33.328  15.014  1.00 22.11 LIG 0.26  C 
ATOM     36 O    ALA E   2      24.951  32.274  15.428  1.00 20.14 LIG-0.27  OA
ATOM     37 H    SER E   3      24.888  35.105  14.294  1.00 22.15 LIG 0.16  HD
BRANCH 35 38
ATOM     38  CA  ALA E   2      22.980  33.456  14.972  1.00 21.91 LIG 0.40  C 
ATOM     39  N   ALA E   2      22.457  32.672  13.780  1.00 22.04 LIG 0.61  N 
ATOM     40  CB  ALA E   2      22.396  32.889  16.301  1.00 22.52 LIG 0.06  C 
ENDBRANCH 35 38
ENDBRANCH 33 34
BRANCH 33 41
ATOM     41  CB  SER E   3      27.326  35.041  13.494  1.00 24.43 LIG 0.20  C 
BRANCH 41 42
ATOM     42 OG   SER E   3      27.281  34.195  12.349  1.00 28.93 LIG-0.40  OA
ATOM     43 HG   SER E   3      26.582  34.352  11.912  1.00 28.93 LIG 0.21  HD
ENDBRANCH 41 42
ENDBRANCH 33 41
ENDBRANCH 30 33
ENDBRANCH 1 29
TORSDOF 15
ENDMDL
MODEL 21
USER: ADFR SOLUTION from run 200
USER: SCORE 13.301925 LL:  -2.244 LR: -12.751 RR:   0.000 FEB:  -8.276
USER: RMSD 4.000597
USER: SEED 199
USER: STATUS no improvement in best in 6 clusters for 5 generations
USER: GENES 17
USER: genes 0 Translation |==|  0.46464 0.55689 0.49097
USER: genes 1 Rotation |==|  0.67113 0.61552 0.61809 0.93980
USER: genes 2 Torsion [C]-CA--CB-[CG] |==|  0.47377
USER: genes 3 Torsion [CA]-CB--CG-[CD2] |==|  0.92686
USER: genes 4 Torsion [N]-CA--C-[N] |==|  0.44066
USER: genes 5 Torsion [C]-N--CA-[C] |==|  0.19788
USER: genes 6 Torsion [N]-CA--CB-[OG] |==|  0.77371
USER: genes 7 Torsion [CA]-CB--OG-[HG] |==|  0.25530
USER: genes 8 Torsion [N]-CA--C-[N] |==|  0.92949
USER: genes 9 Torsion [C]-N--CA-[CB] |==|  0.47362
USER: genes 10 Torsion [N]-CA--C-[O] |==|  0.22872
USER: genes 11 Torsion [CB]-CA--N-[C] |==|  0.48889
USER: genes 12 Torsion [N]-C--CA-[N] |==|  0.35087
USER: genes 13 Torsion [C]-CA--N-[C] |==|  0.62582
USER: genes 14 Torsion [N]-C--CA-[N] |==|  0.13521
USER: genes 15 Torsion [C]-CA--CB-[OG] |==|  0.66120
USER: genes 16 Torsion [CA]-CB--OG-[HG] |==|  0.68393
ROOT
ATOM      1  CA  TRP E   4      26.363  36.035  20.339  1.00 23.90 LIG 0.18  C 
ENDROOT
BRANCH 1 2
ATOM      2  CB  TRP E   4      25.552  36.634  21.518  1.00 23.42 LIG 0.07  C 
BRANCH 2 3
ATOM      3  CG  TRP E   4      24.434  37.589  21.127  1.00 21.81 LIG-0.03  A 
ATOM      4  CD1 TRP E   4      23.301  37.870  21.862  1.00 20.28 LIG 0.10  A 
ATOM      5  NE1 TRP E   4      22.528  38.779  21.203  1.00 14.71 LIG-0.36  N 
ATOM      6 HE1  TRP E   4      21.773  39.081  21.483  1.00 14.71 LIG 0.17  HD
ATOM      7  CE2 TRP E   4      23.130  39.139  20.035  1.00 22.42 LIG 0.04  A 
ATOM      8  CD2 TRP E   4      24.339  38.405  19.937  1.00 21.74 LIG-0.00  A 
ATOM      9  CZ2 TRP E   4      22.689  40.014  19.030  1.00 22.45 LIG 0.03  A 
ATOM     10  CE3 TRP E   4      25.150  38.579  18.791  1.00 23.04 LIG 0.01  A 
ATOM     11  CZ3 TRP E   4      24.726  39.475  17.813  1.00 25.12 LIG 0.00  A 
ATOM     12  CH2 TRP E   4      23.504  40.179  17.941  1.00 23.64 LIG 0.00  A 
ENDBRANCH 2 3
ENDBRANCH 1 2
BRANCH 1 13
ATOM     13  C   TRP E   4      27.593  35.284  20.862  1.00 25.70 LIG 0.24  C 
ATOM     14  N   SER E   5      28.646  36.005  21.271  1.00 27.23 LIG-0.34  N 
ATOM     15 H    SER E   5      28.695  36.862  21.223  1.00 27.23 LIG 0.16  HD
ATOM     16 O    TRP E   4      27.582  34.051  20.901  1.00 24.65 LIG-0.27  OA
BRANCH 14 17
ATOM     17  CA  SER E   5      29.841  35.346  21.856  1.00 29.24 LIG 0.20  C 
BRANCH 17 18
ATOM     18  CB  SER E   5      29.468  34.391  22.993  1.00 29.98 LIG 0.20  C 
BRANCH 18 19
ATOM     19 OG   SER E   5      29.275  35.107  24.204  1.00 32.06 LIG-0.40  OA
ATOM     20 HG   SER E   5      28.465  35.316  24.279  1.00 32.06 LIG 0.21  HD
ENDBRANCH 18 19
ENDBRANCH 17 18
BRANCH 17 21
ATOM     21  C   SER E   5      30.657  34.584  20.826  1.00 30.08 LIG 0.24  C 
ATOM     22  N   ALA E   6      29.991  34.165  19.756  1.00 30.82 LIG-0.35  N 
ATOM     23 H    ALA E   6      29.136  34.228  19.673  1.00 30.82 LIG 0.16  HD
ATOM     24 O    SER E   5      31.861  34.389  20.999  1.00 31.18 LIG-0.27  OA
BRANCH 22 25
ATOM     25  CA  ALA E   6      30.659  33.550  18.605  1.00 31.79 LIG 0.16  C 
ATOM     26  CB  ALA E   6      29.622  32.971  17.658  1.00 32.45 LIG 0.04  C 
BRANCH 25 27
ATOM     27  C   ALA E   6      31.516  34.585  17.876  1.00 32.63 LIG 0.22  C 
ATOM     28 O    ALA E   6      32.651  34.861  18.279  1.00 33.08 LIG-0.29  OA
ENDBRANCH 25 27
ENDBRANCH 22 25
ENDBRANCH 17 21
ENDBRANCH 14 17
ENDBRANCH 1 13
BRANCH 1 29
ATOM     29  N   TRP E   4      25.557  35.138  19.489  1.00 23.46 LIG-0.35  N 
ATOM     30  C   SER E   3      26.009  34.559  18.365  1.00 23.52 LIG 0.24  C 
ATOM     31 O    SER E   3      27.033  34.925  17.759  1.00 23.44 LIG-0.27  OA
ATOM     32 H    TRP E   4      24.758  35.019  19.784  1.00 23.46 LIG 0.16  HD
BRANCH 30 33
ATOM     33  CA  SER E   3      25.156  33.396  17.822  1.00 23.60 LIG 0.20  C 
BRANCH 33 34
ATOM     34  N   SER E   3      24.745  33.535  16.409  1.00 22.15 LIG-0.34  N 
ATOM     35  C   ALA E   2      23.483  33.281  16.027  1.00 22.11 LIG 0.26  C 
ATOM     36 O    ALA E   2      22.602  32.877  16.778  1.00 20.14 LIG-0.27  OA
ATOM     37 H    SER E   3      25.371  33.785  15.876  1.00 22.15 LIG 0.16  HD
BRANCH 35 38
ATOM     38  CA  ALA E   2      23.115  33.528  14.587  1.00 21.91 LIG 0.40  C 
ATOM     39  N   ALA E   2      24.162  32.880  13.698  1.00 22.04 LIG 0.61  N 
ATOM     40  CB  ALA E   2      21.709  32.909  14.321  1.00 22.52 LIG 0.06  C 
ENDBRANCH 35 38
ENDBRANCH 33 34
BRANCH 33 41
ATOM     41  CB  SER E   3      25.896  32.073  18.048  1.00 24.43 LIG 0.20  C 
BRANCH 41 42
ATOM     42 OG   SER E   3      26.107  31.389  16.817  1.00 28.93 LIG-0.40  OA
ATOM     43 HG   SER E   3      25.661  30.677  16.812  1.00 28.93 LIG 0.21  HD
ENDBRANCH 41 42
ENDBRANCH 33 41
ENDBRANCH 30 33
ENDBRANCH 1 29
TORSDOF 15
ENDMDL
MODEL 22
USER: ADFR SOLUTION from run 97
USER: SCORE 14.507495 LL:  -2.683 LR: -12.738 RR:   0.000 FEB:  -8.264
USER: RMSD 3.561022
USER: SEED 96
USER: STATUS no improvement in best in 8 clusters for 5 generations
USER: GENES 17
USER: genes 0 Translation |==|  0.41931 0.54880 0.45187
USER: genes 1 Rotation |==|  0.63045 0.60475 0.67233 0.93853
USER: genes 2 Torsion [C]-CA--CB-[CG] |==|  0.19268
USER: genes 3 Torsion [CA]-CB--CG-[CD2] |==|  0.60279
USER: genes 4 Torsion [N]-CA--C-[N] |==|  0.41325
USER: genes 5 Torsion [C]-N--CA-[C] |==|  0.14080
USER: genes 6 Torsion [N]-CA--CB-[OG] |==|  0.95727
USER: genes 7 Torsion [CA]-CB--OG-[HG] |==|  0.60288
USER: genes 8 Torsion [N]-CA--C-[N] |==|  0.10664
USER: genes 9 Torsion [C]-N--CA-[CB] |==|  0.32208
USER: genes 10 Torsion [N]-CA--C-[O] |==|  0.25352
USER: genes 11 Torsion [CB]-CA--N-[C] |==|  0.50729
USER: genes 12 Torsion [N]-C--CA-[N] |==|  0.27854
USER: genes 13 Torsion [C]-CA--N-[C] |==|  0.71616
USER: genes 14 Torsion [N]-C--CA-[N] |==|  0.25730
USER: genes 15 Torsion [C]-CA--CB-[OG] |==|  0.61535
USER: genes 16 Torsion [CA]-CB--OG-[HG] |==|  0.71415
ROOT
ATOM      1  CA  TRP E   4      25.513  35.908  19.518  1.00 23.90 LIG 0.18  C 
ENDROOT
BRANCH 1 2
ATOM      2  CB  TRP E   4      24.421  36.389  20.509  1.00 23.42 LIG 0.07  C 
BRANCH 2 3
ATOM      3  CG  TRP E   4      24.711  37.703  21.218  1.00 21.81 LIG-0.03  A 
ATOM      4  CD1 TRP E   4      25.319  38.814  20.671  1.00 20.28 LIG 0.10  A 
ATOM      5  NE1 TRP E   4      25.404  39.807  21.600  1.00 14.71 LIG-0.36  N 
ATOM      6 HE1  TRP E   4      25.759  40.579  21.467  1.00 14.71 LIG 0.17  HD
ATOM      7  CE2 TRP E   4      24.843  39.396  22.771  1.00 22.42 LIG 0.04  A 
ATOM      8  CD2 TRP E   4      24.395  38.064  22.582  1.00 21.74 LIG-0.00  A 
ATOM      9  CZ2 TRP E   4      24.733  40.067  23.999  1.00 22.45 LIG 0.03  A 
ATOM     10  CE3 TRP E   4      23.789  37.389  23.668  1.00 23.04 LIG 0.01  A 
ATOM     11  CZ3 TRP E   4      23.651  38.071  24.874  1.00 25.12 LIG 0.00  A 
ATOM     12  CH2 TRP E   4      24.124  39.397  25.027  1.00 23.64 LIG 0.00  A 
ENDBRANCH 2 3
ENDBRANCH 1 2
BRANCH 1 13
ATOM     13  C   TRP E   4      26.774  35.480  20.277  1.00 25.70 LIG 0.24  C 
ATOM     14  N   SER E   5      27.678  36.421  20.581  1.00 27.23 LIG-0.34  N 
ATOM     15 H    SER E   5      27.618  37.246  20.344  1.00 27.23 LIG 0.16  HD
ATOM     16 O    TRP E   4      26.922  34.296  20.592  1.00 24.65 LIG-0.27  OA
BRANCH 14 17
ATOM     17  CA  SER E   5      28.887  36.090  21.377  1.00 29.24 LIG 0.20  C 
BRANCH 17 18
ATOM     18  CB  SER E   5      28.549  35.831  22.849  1.00 29.98 LIG 0.20  C 
BRANCH 18 19
ATOM     19 OG   SER E   5      27.248  36.310  23.154  1.00 32.06 LIG-0.40  OA
ATOM     20 HG   SER E   5      27.244  36.634  23.929  1.00 32.06 LIG 0.21  HD
ENDBRANCH 18 19
ENDBRANCH 17 18
BRANCH 17 21
ATOM     21  C   SER E   5      29.642  34.890  20.831  1.00 30.08 LIG 0.24  C 
ATOM     22  N   ALA E   6      29.703  34.800  19.507  1.00 30.82 LIG-0.35  N 
ATOM     23 H    ALA E   6      29.274  35.322  18.975  1.00 30.82 LIG 0.16  HD
ATOM     24 O    SER E   5      30.159  34.074  21.594  1.00 31.18 LIG-0.27  OA
BRANCH 22 25
ATOM     25  CA  ALA E   6      30.518  33.790  18.825  1.00 31.79 LIG 0.16  C 
ATOM     26  CB  ALA E   6      29.620  32.849  18.041  1.00 32.45 LIG 0.04  C 
BRANCH 25 27
ATOM     27  C   ALA E   6      31.519  34.465  17.886  1.00 32.63 LIG 0.22  C 
ATOM     28 O    ALA E   6      32.651  34.764  18.280  1.00 33.08 LIG-0.29  OA
ENDBRANCH 25 27
ENDBRANCH 22 25
ENDBRANCH 17 21
ENDBRANCH 14 17
ENDBRANCH 1 13
BRANCH 1 29
ATOM     29  N   TRP E   4      25.054  34.804  18.655  1.00 23.46 LIG-0.35  N 
ATOM     30  C   SER E   3      25.828  34.181  17.752  1.00 23.52 LIG 0.24  C 
ATOM     31 O    SER E   3      26.910  34.635  17.334  1.00 23.44 LIG-0.27  OA
ATOM     32 H    TRP E   4      24.230  34.592  18.784  1.00 23.46 LIG 0.16  HD
BRANCH 30 33
ATOM     33  CA  SER E   3      25.285  32.843  17.213  1.00 23.60 LIG 0.20  C 
BRANCH 33 34
ATOM     34  N   SER E   3      24.643  32.924  15.885  1.00 22.15 LIG-0.34  N 
ATOM     35  C   ALA E   2      23.305  32.928  15.762  1.00 22.11 LIG 0.26  C 
ATOM     36 O    ALA E   2      22.526  32.817  16.702  1.00 20.14 LIG-0.27  OA
ATOM     37 H    SER E   3      25.190  32.967  15.223  1.00 22.15 LIG 0.16  HD
BRANCH 35 38
ATOM     38  CA  ALA E   2      22.720  33.101  14.385  1.00 21.91 LIG 0.40  C 
ATOM     39  N   ALA E   2      22.483  31.728  13.779  1.00 22.04 LIG 0.61  N 
ATOM     40  CB  ALA E   2      21.379  33.885  14.510  1.00 22.52 LIG 0.06  C 
ENDBRANCH 35 38
ENDBRANCH 33 34
BRANCH 33 41
ATOM     41  CB  SER E   3      26.410  31.801  17.213  1.00 24.43 LIG 0.20  C 
BRANCH 41 42
ATOM     42 OG   SER E   3      26.378  31.015  16.026  1.00 28.93 LIG-0.40  OA
ATOM     43 HG   SER E   3      26.044  30.264  16.196  1.00 28.93 LIG 0.21  HD
ENDBRANCH 41 42
ENDBRANCH 33 41
ENDBRANCH 30 33
ENDBRANCH 1 29
TORSDOF 15
ENDMDL
MODEL 23
USER: ADFR SOLUTION from run 92
USER: SCORE 13.729732 LL:  -2.457 LR: -12.703 RR:   0.000 FEB:  -8.228
USER: RMSD 9.754866
USER: SEED 91
USER: STATUS no improvement in best in 7 clusters for 5 generations
USER: GENES 17
USER: genes 0 Translation |==|  0.58193 0.27808 0.30473
USER: genes 1 Rotation |==|  0.05960 0.67786 0.65623 0.50230
USER: genes 2 Torsion [C]-CA--CB-[CG] |==|  0.83145
USER: genes 3 Torsion [CA]-CB--CG-[CD2] |==|  0.25824
USER: genes 4 Torsion [N]-CA--C-[N] |==|  0.93400
USER: genes 5 Torsion [C]-N--CA-[C] |==|  0.54134
USER: genes 6 Torsion [N]-CA--CB-[OG] |==|  0.61821
USER: genes 7 Torsion [CA]-CB--OG-[HG] |==|  0.72237
USER: genes 8 Torsion [N]-CA--C-[N] |==|  0.54444
USER: genes 9 Torsion [C]-N--CA-[CB] |==|  0.81343
USER: genes 10 Torsion [N]-CA--C-[O] |==|  0.23956
USER: genes 11 Torsion [CB]-CA--N-[C] |==|  0.21987
USER: genes 12 Torsion [N]-C--CA-[N] |==|  0.44435
USER: genes 13 Torsion [C]-CA--N-[C] |==|  0.82741
USER: genes 14 Torsion [N]-C--CA-[N] |==|  0.99105
USER: genes 15 Torsion [C]-CA--CB-[OG] |==|  0.63283
USER: genes 16 Torsion [CA]-CB--OG-[HG] |==|  0.41995
ROOT
ATOM      1  CA  TRP E   4      28.562  31.644  16.428  1.00 23.90 LIG 0.18  C 
ENDROOT
BRANCH 1 2
ATOM      2  CB  TRP E   4      27.326  30.935  17.041  1.00 23.42 LIG 0.07  C 
BRANCH 2 3
ATOM      3  CG  TRP E   4      26.051  31.763  17.090  1.00 21.81 LIG-0.03  A 
ATOM      4  CD1 TRP E   4      25.684  32.645  18.085  1.00 20.28 LIG 0.10  A 
ATOM      5  NE1 TRP E   4      24.482  33.213  17.788  1.00 14.71 LIG-0.36  N 
ATOM      6 HE1  TRP E   4      24.069  33.783  18.283  1.00 14.71 LIG 0.17  HD
ATOM      7  CE2 TRP E   4      24.031  32.745  16.591  1.00 22.42 LIG 0.04  A 
ATOM      8  CD2 TRP E   4      24.988  31.815  16.112  1.00 21.74 LIG-0.00  A 
ATOM      9  CZ2 TRP E   4      22.836  33.024  15.909  1.00 22.45 LIG 0.03  A 
ATOM     10  CE3 TRP E   4      24.744  31.159  14.882  1.00 23.04 LIG 0.01  A 
ATOM     11  CZ3 TRP E   4      23.574  31.466  14.192  1.00 25.12 LIG 0.00  A 
ATOM     12  CH2 TRP E   4      22.635  32.390  14.712  1.00 23.64 LIG 0.00  A 
ENDBRANCH 2 3
ENDBRANCH 1 2
BRANCH 1 13
ATOM     13  C   TRP E   4      28.286  32.044  14.975  1.00 25.70 LIG 0.24  C 
ATOM     14  N   SER E   5      27.973  33.321  14.720  1.00 27.23 LIG-0.34  N 
ATOM     15 H    SER E   5      27.877  33.927  15.323  1.00 27.23 LIG 0.16  HD
ATOM     16 O    TRP E   4      28.365  31.193  14.085  1.00 24.65 LIG-0.27  OA
BRANCH 14 17
ATOM     17  CA  SER E   5      27.765  33.793  13.328  1.00 29.24 LIG 0.20  C 
BRANCH 17 18
ATOM     18  CB  SER E   5      26.455  33.264  12.735  1.00 29.98 LIG 0.20  C 
BRANCH 18 19
ATOM     19 OG   SER E   5      26.651  32.839  11.394  1.00 32.06 LIG-0.40  OA
ATOM     20 HG   SER E   5      26.382  33.437  10.869  1.00 32.06 LIG 0.21  HD
ENDBRANCH 18 19
ENDBRANCH 17 18
BRANCH 17 21
ATOM     21  C   SER E   5      27.777  35.308  13.210  1.00 30.08 LIG 0.24  C 
ATOM     22  N   ALA E   6      27.277  35.803  12.083  1.00 30.82 LIG-0.35  N 
ATOM     23 H    ALA E   6      27.042  35.318  11.413  1.00 30.82 LIG 0.16  HD
ATOM     24 O    SER E   5      28.224  36.004  14.121  1.00 31.18 LIG-0.27  OA
BRANCH 22 25
ATOM     25  CA  ALA E   6      27.079  37.242  11.877  1.00 31.79 LIG 0.16  C 
ATOM     26  CB  ALA E   6      25.993  37.749  12.811  1.00 32.45 LIG 0.04  C 
BRANCH 25 27
ATOM     27  C   ALA E   6      28.384  37.996  12.130  1.00 32.63 LIG 0.22  C 
ATOM     28 O    ALA E   6      29.216  38.138  11.228  1.00 33.08 LIG-0.29  OA
ENDBRANCH 25 27
ENDBRANCH 22 25
ENDBRANCH 17 21
ENDBRANCH 14 17
ENDBRANCH 1 13
BRANCH 1 29
ATOM     29  N   TRP E   4      28.980  32.830  17.199  1.00 23.46 LIG-0.35  N 
ATOM     30  C   SER E   3      29.697  32.777  18.334  1.00 23.52 LIG 0.24  C 
ATOM     31 O    SER E   3      29.843  31.745  19.015  1.00 23.44 LIG-0.27  OA
ATOM     32 H    TRP E   4      28.719  33.571  16.850  1.00 23.46 LIG 0.16  HD
BRANCH 30 33
ATOM     33  CA  SER E   3      30.331  34.106  18.787  1.00 23.60 LIG 0.20  C 
BRANCH 33 34
ATOM     34  N   SER E   3      30.705  34.159  20.216  1.00 22.15 LIG-0.34  N 
ATOM     35  C   ALA E   2      29.776  34.044  21.180  1.00 22.11 LIG 0.26  C 
ATOM     36 O    ALA E   2      28.573  33.939  20.970  1.00 20.14 LIG-0.27  OA
ATOM     37 H    SER E   3      31.545  34.267  20.364  1.00 22.15 LIG 0.16  HD
BRANCH 35 38
ATOM     38  CA  ALA E   2      30.241  34.019  22.613  1.00 21.91 LIG 0.40  C 
ATOM     39  N   ALA E   2      31.759  34.057  22.634  1.00 22.04 LIG 0.61  N 
ATOM     40  CB  ALA E   2      29.649  35.259  23.348  1.00 22.52 LIG 0.06  C 
ENDBRANCH 35 38
ENDBRANCH 33 34
BRANCH 33 41
ATOM     41  CB  SER E   3      31.536  34.425  17.896  1.00 24.43 LIG 0.20  C 
BRANCH 41 42
ATOM     42 OG   SER E   3      32.668  34.791  18.678  1.00 28.93 LIG-0.40  OA
ATOM     43 HG   SER E   3      33.371  34.584  18.268  1.00 28.93 LIG 0.21  HD
ENDBRANCH 41 42
ENDBRANCH 33 41
ENDBRANCH 30 33
ENDBRANCH 1 29
TORSDOF 15
ENDMDL
MODEL 24
USER: ADFR SOLUTION from run 83
USER: SCORE 13.459415 LL:  -1.921 LR: -12.600 RR:   0.000 FEB:  -8.126
USER: RMSD 7.946077
USER: SEED 82
USER: STATUS no improvement in best in 6 clusters for 5 generations
USER: GENES 17
USER: genes 0 Translation |==|  0.49144 0.50092 0.52692
USER: genes 1 Rotation |==|  0.35930 0.97889 0.49422 0.52889
USER: genes 2 Torsion [C]-CA--CB-[CG] |==|  0.29519
USER: genes 3 Torsion [CA]-CB--CG-[CD2] |==|  0.28759
USER: genes 4 Torsion [N]-CA--C-[N] |==|  0.08896
USER: genes 5 Torsion [C]-N--CA-[C] |==|  0.80334
USER: genes 6 Torsion [N]-CA--CB-[OG] |==|  0.03560
USER: genes 7 Torsion [CA]-CB--OG-[HG] |==|  0.73504
USER: genes 8 Torsion [N]-CA--C-[N] |==|  0.42088
USER: genes 9 Torsion [C]-N--CA-[CB] |==|  0.22999
USER: genes 10 Torsion [N]-CA--C-[O] |==|  0.29874
USER: genes 11 Torsion [CB]-CA--N-[C] |==|  0.80521
USER: genes 12 Torsion [N]-C--CA-[N] |==|  0.19444
USER: genes 13 Torsion [C]-CA--N-[C] |==|  0.75649
USER: genes 14 Torsion [N]-C--CA-[N] |==|  0.17243
USER: genes 15 Torsion [C]-CA--CB-[OG] |==|  0.65889
USER: genes 16 Torsion [CA]-CB--OG-[HG] |==|  0.01517
ROOT
ATOM      1  CA  TRP E   4      26.866  35.153  21.094  1.00 23.90 LIG 0.18  C 
ENDROOT
BRANCH 1 2
ATOM      2  CB  TRP E   4      26.578  36.677  21.056  1.00 23.42 LIG 0.07  C 
BRANCH 2 3
ATOM      3  CG  TRP E   4      25.172  37.090  21.464  1.00 21.81 LIG-0.03  A 
ATOM      4  CD1 TRP E   4      24.026  36.957  20.707  1.00 20.28 LIG 0.10  A 
ATOM      5  NE1 TRP E   4      22.950  37.427  21.398  1.00 14.71 LIG-0.36  N 
ATOM      6 HE1  TRP E   4      22.142  37.446  21.103  1.00 14.71 LIG 0.17  HD
ATOM      7  CE2 TRP E   4      23.343  37.862  22.628  1.00 22.42 LIG 0.04  A 
ATOM      8  CD2 TRP E   4      24.746  37.677  22.715  1.00 21.74 LIG-0.00  A 
ATOM      9  CZ2 TRP E   4      22.590  38.449  23.657  1.00 22.45 LIG 0.03  A 
ATOM     10  CE3 TRP E   4      25.414  38.076  23.897  1.00 23.04 LIG 0.01  A 
ATOM     11  CZ3 TRP E   4      24.657  38.625  24.928  1.00 25.12 LIG 0.00  A 
ATOM     12  CH2 TRP E   4      23.258  38.807  24.798  1.00 23.64 LIG 0.00  A 
ENDBRANCH 2 3
ENDBRANCH 1 2
BRANCH 1 13
ATOM     13  C   TRP E   4      26.929  34.583  19.673  1.00 25.70 LIG 0.24  C 
ATOM     14  N   SER E   5      27.608  33.445  19.479  1.00 27.23 LIG-0.34  N 
ATOM     15 H    SER E   5      28.047  33.031  20.092  1.00 27.23 LIG 0.16  HD
ATOM     16 O    TRP E   4      26.354  35.174  18.755  1.00 24.65 LIG-0.27  OA
BRANCH 14 17
ATOM     17  CA  SER E   5      27.650  32.799  18.143  1.00 29.24 LIG 0.20  C 
BRANCH 17 18
ATOM     18  CB  SER E   5      28.736  31.722  18.061  1.00 29.98 LIG 0.20  C 
BRANCH 18 19
ATOM     19 OG   SER E   5      29.228  31.410  19.356  1.00 32.06 LIG-0.40  OA
ATOM     20 HG   SER E   5      29.921  31.860  19.508  1.00 32.06 LIG 0.21  HD
ENDBRANCH 18 19
ENDBRANCH 17 18
BRANCH 17 21
ATOM     21  C   SER E   5      26.320  32.181  17.745  1.00 30.08 LIG 0.24  C 
ATOM     22  N   ALA E   6      26.078  32.123  16.440  1.00 30.82 LIG-0.35  N 
ATOM     23 H    ALA E   6      26.583  32.487  15.846  1.00 30.82 LIG 0.16  HD
ATOM     24 O    SER E   5      25.540  31.765  18.602  1.00 31.18 LIG-0.27  OA
BRANCH 22 25
ATOM     25  CA  ALA E   6      24.914  31.423  15.887  1.00 31.79 LIG 0.16  C 
ATOM     26  CB  ALA E   6      23.695  32.329  15.946  1.00 32.45 LIG 0.04  C 
BRANCH 25 27
ATOM     27  C   ALA E   6      25.187  31.003  14.443  1.00 32.63 LIG 0.22  C 
ATOM     28 O    ALA E   6      25.382  29.817  14.157  1.00 33.08 LIG-0.29  OA
ENDBRANCH 25 27
ENDBRANCH 22 25
ENDBRANCH 17 21
ENDBRANCH 14 17
ENDBRANCH 1 13
BRANCH 1 29
ATOM     29  N   TRP E   4      28.109  34.825  21.818  1.00 23.46 LIG-0.35  N 
ATOM     30  C   SER E   3      29.341  35.105  21.363  1.00 23.52 LIG 0.24  C 
ATOM     31 O    SER E   3      29.594  35.400  20.180  1.00 23.44 LIG-0.27  OA
ATOM     32 H    TRP E   4      27.970  34.432  22.570  1.00 23.46 LIG 0.16  HD
BRANCH 30 33
ATOM     33  CA  SER E   3      30.474  35.012  22.403  1.00 23.60 LIG 0.20  C 
BRANCH 33 34
ATOM     34  N   SER E   3      30.794  33.641  22.852  1.00 22.15 LIG-0.34  N 
ATOM     35  C   ALA E   2      30.141  33.079  23.882  1.00 22.11 LIG 0.26  C 
ATOM     36 O    ALA E   2      29.286  33.651  24.551  1.00 20.14 LIG-0.27  OA
ATOM     37 H    SER E   3      31.417  33.252  22.404  1.00 22.15 LIG 0.16  HD
BRANCH 35 38
ATOM     38  CA  ALA E   2      30.457  31.648  24.228  1.00 21.91 LIG 0.40  C 
ATOM     39  N   ALA E   2      31.919  31.555  24.629  1.00 22.04 LIG 0.61  N 
ATOM     40  CB  ALA E   2      29.535  31.205  25.404  1.00 22.52 LIG 0.06  C 
ENDBRANCH 35 38
ENDBRANCH 33 34
BRANCH 33 41
ATOM     41  CB  SER E   3      31.724  35.712  21.856  1.00 24.43 LIG 0.20  C 
BRANCH 41 42
ATOM     42 OG   SER E   3      32.835  34.822  21.824  1.00 28.93 LIG-0.40  OA
ATOM     43 HG   SER E   3      32.583  34.051  22.041  1.00 28.93 LIG 0.21  HD
ENDBRANCH 41 42
ENDBRANCH 33 41
ENDBRANCH 30 33
ENDBRANCH 1 29
TORSDOF 15
ENDMDL
MODEL 25
USER: ADFR SOLUTION from run 63
USER: SCORE 13.481417 LL:  -2.338 LR: -12.578 RR:   0.000 FEB:  -8.104
USER: RMSD 7.765940
USER: SEED 62
USER: STATUS no improvement in best in 5 clusters for 5 generations
USER: GENES 17
USER: genes 0 Translation |==|  0.44005 0.55142 0.46181
USER: genes 1 Rotation |==|  0.29670 0.95630 0.49790 0.52135
USER: genes 2 Torsion [C]-CA--CB-[CG] |==|  0.39967
USER: genes 3 Torsion [CA]-CB--CG-[CD2] |==|  0.24403
USER: genes 4 Torsion [N]-CA--C-[N] |==|  0.33741
USER: genes 5 Torsion [C]-N--CA-[C] |==|  0.60984
USER: genes 6 Torsion [N]-CA--CB-[OG] |==|  0.13735
USER: genes 7 Torsion [CA]-CB--OG-[HG] |==|  0.28313
USER: genes 8 Torsion [N]-CA--C-[N] |==|  0.36917
USER: genes 9 Torsion [C]-N--CA-[CB] |==|  0.84787
USER: genes 10 Torsion [N]-CA--C-[O] |==|  0.81688
USER: genes 11 Torsion [CB]-CA--N-[C] |==|  0.24444
USER: genes 12 Torsion [N]-C--CA-[N] |==|  0.95542
USER: genes 13 Torsion [C]-CA--N-[C] |==|  0.83875
USER: genes 14 Torsion [N]-C--CA-[N] |==|  0.48018
USER: genes 15 Torsion [C]-CA--CB-[OG] |==|  0.28298
USER: genes 16 Torsion [CA]-CB--OG-[HG] |==|  0.83988
ROOT
ATOM      1  CA  TRP E   4      25.902  35.949  19.727  1.00 23.90 LIG 0.18  C 
ENDROOT
BRANCH 1 2
ATOM      2  CB  TRP E   4      25.222  37.342  19.689  1.00 23.42 LIG 0.07  C 
BRANCH 2 3
ATOM      3  CG  TRP E   4      24.258  37.634  20.829  1.00 21.81 LIG-0.03  A 
ATOM      4  CD1 TRP E   4      22.901  37.386  20.840  1.00 20.28 LIG 0.10  A 
ATOM      5  NE1 TRP E   4      22.364  37.768  22.033  1.00 14.71 LIG-0.36  N 
ATOM      6 HE1  TRP E   4      21.532  37.709  22.241  1.00 14.71 LIG 0.17  HD
ATOM      7  CE2 TRP E   4      23.341  38.258  22.846  1.00 22.42 LIG 0.04  A 
ATOM      8  CD2 TRP E   4      24.561  38.201  22.124  1.00 21.74 LIG-0.00  A 
ATOM      9  CZ2 TRP E   4      23.249  38.792  24.141  1.00 22.45 LIG 0.03  A 
ATOM     10  CE3 TRP E   4      25.740  38.678  22.743  1.00 23.04 LIG 0.01  A 
ATOM     11  CZ3 TRP E   4      25.650  39.174  24.041  1.00 25.12 LIG 0.00  A 
ATOM     12  CH2 TRP E   4      24.410  39.227  24.723  1.00 23.64 LIG 0.00  A 
ENDBRANCH 2 3
ENDBRANCH 1 2
BRANCH 1 13
ATOM     13  C   TRP E   4      26.072  35.396  18.308  1.00 25.70 LIG 0.24  C 
ATOM     14  N   SER E   5      25.372  34.306  17.967  1.00 27.23 LIG-0.34  N 
ATOM     15 H    SER E   5      24.862  33.869  18.504  1.00 27.23 LIG 0.16  HD
ATOM     16 O    TRP E   4      26.833  35.966  17.520  1.00 24.65 LIG-0.27  OA
BRANCH 14 17
ATOM     17  CA  SER E   5      25.433  33.760  16.587  1.00 29.24 LIG 0.20  C 
BRANCH 17 18
ATOM     18  CB  SER E   5      26.445  32.617  16.469  1.00 29.98 LIG 0.20  C 
BRANCH 18 19
ATOM     19 OG   SER E   5      26.243  31.662  17.499  1.00 32.06 LIG-0.40  OA
ATOM     20 HG   SER E   5      25.835  30.996  17.188  1.00 32.06 LIG 0.21  HD
ENDBRANCH 18 19
ENDBRANCH 17 18
BRANCH 17 21
ATOM     21  C   SER E   5      24.084  33.272  16.085  1.00 30.08 LIG 0.24  C 
ATOM     22  N   ALA E   6      23.745  33.669  14.864  1.00 30.82 LIG-0.35  N 
ATOM     23 H    ALA E   6      24.198  34.239  14.406  1.00 30.82 LIG 0.16  HD
ATOM     24 O    SER E   5      23.378  32.550  16.789  1.00 31.18 LIG-0.27  OA
BRANCH 22 25
ATOM     25  CA  ALA E   6      22.551  33.166  14.178  1.00 31.79 LIG 0.16  C 
ATOM     26  CB  ALA E   6      22.586  31.648  14.133  1.00 32.45 LIG 0.04  C 
BRANCH 25 27
ATOM     27  C   ALA E   6      21.288  33.641  14.897  1.00 32.63 LIG 0.22  C 
ATOM     28 O    ALA E   6      21.028  33.250  16.040  1.00 33.08 LIG-0.29  OA
ENDBRANCH 25 27
ENDBRANCH 22 25
ENDBRANCH 17 21
ENDBRANCH 14 17
ENDBRANCH 1 13
BRANCH 1 29
ATOM     29  N   TRP E   4      27.208  35.970  20.412  1.00 23.46 LIG-0.35  N 
ATOM     30  C   SER E   3      27.368  35.799  21.734  1.00 23.52 LIG 0.24  C 
ATOM     31 O    SER E   3      26.444  35.893  22.563  1.00 23.44 LIG-0.27  OA
ATOM     32 H    TRP E   4      27.869  36.104  19.878  1.00 23.46 LIG 0.16  HD
BRANCH 30 33
ATOM     33  CA  SER E   3      28.805  35.499  22.201  1.00 23.60 LIG 0.20  C 
BRANCH 33 34
ATOM     34  N   SER E   3      29.731  35.077  21.129  1.00 22.15 LIG-0.34  N 
ATOM     35  C   ALA E   2      29.470  33.996  20.375  1.00 22.11 LIG 0.26  C 
ATOM     36 O    ALA E   2      28.502  33.261  20.535  1.00 20.14 LIG-0.27  OA
ATOM     37 H    SER E   3      30.427  35.573  21.039  1.00 22.15 LIG 0.16  HD
BRANCH 35 38
ATOM     38  CA  ALA E   2      30.412  33.676  19.244  1.00 21.91 LIG 0.40  C 
ATOM     39  N   ALA E   2      30.025  32.332  18.652  1.00 22.04 LIG 0.61  N 
ATOM     40  CB  ALA E   2      30.301  34.802  18.172  1.00 22.52 LIG 0.06  C 
ENDBRANCH 35 38
ENDBRANCH 33 34
BRANCH 33 41
ATOM     41  CB  SER E   3      29.360  36.716  22.953  1.00 24.43 LIG 0.20  C 
BRANCH 41 42
ATOM     42 OG   SER E   3      29.318  36.509  24.361  1.00 28.93 LIG-0.40  OA
ATOM     43 HG   SER E   3      28.528  36.352  24.597  1.00 28.93 LIG 0.21  HD
ENDBRANCH 41 42
ENDBRANCH 33 41
ENDBRANCH 30 33
ENDBRANCH 1 29
TORSDOF 15
ENDMDL
MODEL 26
USER: ADFR SOLUTION from run 59
USER: SCORE 13.121290 LL:  -2.097 LR: -12.555 RR:   0.000 FEB:  -8.081
USER: RMSD 4.641402
USER: SEED 58
USER: STATUS no improvement in best in 5 clusters for 5 generations
USER: GENES 17
USER: genes 0 Translation |==|  0.48062 0.53360 0.41696
USER: genes 1 Rotation |==|  0.75528 0.57782 0.73053 0.85444
USER: genes 2 Torsion [C]-CA--CB-[CG] |==|  0.20164
USER: genes 3 Torsion [CA]-CB--CG-[CD2] |==|  0.32040
USER: genes 4 Torsion [N]-CA--C-[N] |==|  0.92250
USER: genes 5 Torsion [C]-N--CA-[C] |==|  0.82534
USER: genes 6 Torsion [N]-CA--CB-[OG] |==|  0.75969
USER: genes 7 Torsion [CA]-CB--OG-[HG] |==|  0.83098
USER: genes 8 Torsion [N]-CA--C-[N] |==|  0.93087
USER: genes 9 Torsion [C]-N--CA-[CB] |==|  0.51303
USER: genes 10 Torsion [N]-CA--C-[O] |==|  0.36072
USER: genes 11 Torsion [CB]-CA--N-[C] |==|  0.41604
USER: genes 12 Torsion [N]-C--CA-[N] |==|  0.17462
USER: genes 13 Torsion [C]-CA--N-[C] |==|  0.77777
USER: genes 14 Torsion [N]-C--CA-[N] |==|  0.00100
USER: genes 15 Torsion [C]-CA--CB-[OG] |==|  0.46235
USER: genes 16 Torsion [CA]-CB--OG-[HG] |==|  0.24310
ROOT
ATOM      1  CA  TRP E   4      26.663  35.668  18.785  1.00 23.90 LIG 0.18  C 
ENDROOT
BRANCH 1 2
ATOM      2  CB  TRP E   4      25.660  35.263  19.897  1.00 23.42 LIG 0.07  C 
BRANCH 2 3
ATOM      3  CG  TRP E   4      25.796  36.017  21.211  1.00 21.81 LIG-0.03  A 
ATOM      4  CD1 TRP E   4      26.885  35.998  22.058  1.00 20.28 LIG 0.10  A 
ATOM      5  NE1 TRP E   4      26.655  36.801  23.135  1.00 14.71 LIG-0.36  N 
ATOM      6 HE1  TRP E   4      27.202  36.921  23.787  1.00 14.71 LIG 0.17  HD
ATOM      7  CE2 TRP E   4      25.428  37.384  23.025  1.00 22.42 LIG 0.04  A 
ATOM      8  CD2 TRP E   4      24.841  36.912  21.824  1.00 21.74 LIG-0.00  A 
ATOM      9  CZ2 TRP E   4      24.764  38.251  23.906  1.00 22.45 LIG 0.03  A 
ATOM     10  CE3 TRP E   4      23.539  37.352  21.485  1.00 23.04 LIG 0.01  A 
ATOM     11  CZ3 TRP E   4      22.898  38.240  22.344  1.00 25.12 LIG 0.00  A 
ATOM     12  CH2 TRP E   4      23.514  38.678  23.542  1.00 23.64 LIG 0.00  A 
ENDBRANCH 2 3
ENDBRANCH 1 2
BRANCH 1 13
ATOM     13  C   TRP E   4      28.068  35.152  19.116  1.00 25.70 LIG 0.24  C 
ATOM     14  N   SER E   5      28.465  34.001  18.557  1.00 27.23 LIG-0.34  N 
ATOM     15 H    SER E   5      27.969  33.509  18.056  1.00 27.23 LIG 0.16  HD
ATOM     16 O    TRP E   4      28.793  35.805  19.871  1.00 24.65 LIG-0.27  OA
BRANCH 14 17
ATOM     17  CA  SER E   5      29.838  33.481  18.776  1.00 29.24 LIG 0.20  C 
BRANCH 17 18
ATOM     18  CB  SER E   5      30.026  32.088  18.167  1.00 29.98 LIG 0.20  C 
BRANCH 18 19
ATOM     19 OG   SER E   5      29.620  31.084  19.084  1.00 32.06 LIG-0.40  OA
ATOM     20 HG   SER E   5      30.090  31.132  19.779  1.00 32.06 LIG 0.21  HD
ENDBRANCH 18 19
ENDBRANCH 17 18
BRANCH 17 21
ATOM     21  C   SER E   5      30.913  34.403  18.226  1.00 30.08 LIG 0.24  C 
ATOM     22  N   ALA E   6      30.535  35.204  17.235  1.00 30.82 LIG-0.35  N 
ATOM     23 H    ALA E   6      29.766  35.156  16.853  1.00 30.82 LIG 0.16  HD
ATOM     24 O    SER E   5      32.051  34.389  18.695  1.00 31.18 LIG-0.27  OA
BRANCH 22 25
ATOM     25  CA  ALA E   6      31.406  36.254  16.698  1.00 31.79 LIG 0.16  C 
ATOM     26  CB  ALA E   6      30.650  37.067  15.661  1.00 32.45 LIG 0.04  C 
BRANCH 25 27
ATOM     27  C   ALA E   6      31.894  37.164  17.826  1.00 32.63 LIG 0.22  C 
ATOM     28 O    ALA E   6      33.094  37.428  17.950  1.00 33.08 LIG-0.29  OA
ENDBRANCH 25 27
ENDBRANCH 22 25
ENDBRANCH 17 21
ENDBRANCH 14 17
ENDBRANCH 1 13
BRANCH 1 29
ATOM     29  N   TRP E   4      26.259  35.189  17.450  1.00 23.46 LIG-0.35  N 
ATOM     30  C   SER E   3      26.551  35.822  16.302  1.00 23.52 LIG 0.24  C 
ATOM     31 O    SER E   3      26.932  37.005  16.239  1.00 23.44 LIG-0.27  OA
ATOM     32 H    TRP E   4      25.810  34.455  17.474  1.00 23.46 LIG 0.16  HD
BRANCH 30 33
ATOM     33  CA  SER E   3      26.359  34.996  15.015  1.00 23.60 LIG 0.20  C 
BRANCH 33 34
ATOM     34  N   SER E   3      24.969  34.568  14.754  1.00 22.15 LIG-0.34  N 
ATOM     35  C   ALA E   2      24.442  33.505  15.384  1.00 22.11 LIG 0.26  C 
ATOM     36 O    ALA E   2      25.059  32.790  16.165  1.00 20.14 LIG-0.27  OA
ATOM     37 H    SER E   3      24.546  35.049  14.181  1.00 22.15 LIG 0.16  HD
BRANCH 35 38
ATOM     38  CA  ALA E   2      22.992  33.180  15.135  1.00 21.91 LIG 0.40  C 
ATOM     39  N   ALA E   2      22.426  34.194  14.156  1.00 22.04 LIG 0.61  N 
ATOM     40  CB  ALA E   2      22.900  31.739  14.548  1.00 22.52 LIG 0.06  C 
ENDBRANCH 35 38
ENDBRANCH 33 34
BRANCH 33 41
ATOM     41  CB  SER E   3      26.923  35.776  13.822  1.00 24.43 LIG 0.20  C 
BRANCH 41 42
ATOM     42 OG   SER E   3      27.051  34.938  12.678  1.00 28.93 LIG-0.40  OA
ATOM     43 HG   SER E   3      26.329  34.937  12.249  1.00 28.93 LIG 0.21  HD
ENDBRANCH 41 42
ENDBRANCH 33 41
ENDBRANCH 30 33
ENDBRANCH 1 29
TORSDOF 15
ENDMDL
MODEL 27
USER: ADFR SOLUTION from run 123
USER: SCORE 13.348505 LL:  -1.968 LR: -12.558 RR:   0.000 FEB:  -8.084
USER: RMSD 5.409126
USER: SEED 122
USER: STATUS no improvement in best in 5 clusters for 5 generations
USER: GENES 17
USER: genes 0 Translation |==|  0.45235 0.46324 0.47623
USER: genes 1 Rotation |==|  0.27238 0.17282 0.25730 0.67955
USER: genes 2 Torsion [C]-CA--CB-[CG] |==|  0.22091
USER: genes 3 Torsion [CA]-CB--CG-[CD2] |==|  0.47842
USER: genes 4 Torsion [N]-CA--C-[N] |==|  0.32225
USER: genes 5 Torsion [C]-N--CA-[C] |==|  0.59248
USER: genes 6 Torsion [N]-CA--CB-[OG] |==|  0.07470
USER: genes 7 Torsion [CA]-CB--OG-[HG] |==|  0.37898
USER: genes 8 Torsion [N]-CA--C-[N] |==|  0.95089
USER: genes 9 Torsion [C]-N--CA-[CB] |==|  0.84766
USER: genes 10 Torsion [N]-CA--C-[O] |==|  0.80518
USER: genes 11 Torsion [CB]-CA--N-[C] |==|  0.85836
USER: genes 12 Torsion [N]-C--CA-[N] |==|  0.37135
USER: genes 13 Torsion [C]-CA--N-[C] |==|  0.71121
USER: genes 14 Torsion [N]-C--CA-[N] |==|  0.30074
USER: genes 15 Torsion [C]-CA--CB-[OG] |==|  0.55406
USER: genes 16 Torsion [CA]-CB--OG-[HG] |==|  0.74035
ROOT
ATOM      1  CA  TRP E   4      26.132  34.560  20.030  1.00 23.90 LIG 0.18  C 
ENDROOT
BRANCH 1 2
ATOM      2  CB  TRP E   4      27.681  34.601  19.940  1.00 23.42 LIG 0.07  C 
BRANCH 2 3
ATOM      3  CG  TRP E   4      28.401  35.037  21.207  1.00 21.81 LIG-0.03  A 
ATOM      4  CD1 TRP E   4      27.814  35.514  22.361  1.00 20.28 LIG 0.10  A 
ATOM      5  NE1 TRP E   4      28.769  35.797  23.290  1.00 14.71 LIG-0.36  N 
ATOM      6 HE1  TRP E   4      28.617  36.115  24.074  1.00 14.71 LIG 0.17  HD
ATOM      7  CE2 TRP E   4      30.003  35.501  22.792  1.00 22.42 LIG 0.04  A 
ATOM      8  CD2 TRP E   4      29.822  35.023  21.470  1.00 21.74 LIG-0.00  A 
ATOM      9  CZ2 TRP E   4      31.269  35.659  23.377  1.00 22.45 LIG 0.03  A 
ATOM     10  CE3 TRP E   4      30.963  34.664  20.714  1.00 23.04 LIG 0.01  A 
ATOM     11  CZ3 TRP E   4      32.215  34.789  21.311  1.00 25.12 LIG 0.00  A 
ATOM     12  CH2 TRP E   4      32.355  35.285  22.630  1.00 23.64 LIG 0.00  A 
ENDBRANCH 2 3
ENDBRANCH 1 2
BRANCH 1 13
ATOM     13  C   TRP E   4      25.549  35.969  19.880  1.00 25.70 LIG 0.24  C 
ATOM     14  N   SER E   5      24.835  36.468  20.898  1.00 27.23 LIG-0.34  N 
ATOM     15 H    SER E   5      24.646  36.035  21.617  1.00 27.23 LIG 0.16  HD
ATOM     16 O    TRP E   4      25.756  36.606  18.844  1.00 24.65 LIG-0.27  OA
BRANCH 14 17
ATOM     17  CA  SER E   5      24.302  37.854  20.850  1.00 29.24 LIG 0.20  C 
BRANCH 17 18
ATOM     18  CB  SER E   5      22.901  37.907  20.234  1.00 29.98 LIG 0.20  C 
BRANCH 18 19
ATOM     19 OG   SER E   5      22.224  36.674  20.428  1.00 32.06 LIG-0.40  OA
ATOM     20 HG   SER E   5      21.431  36.824  20.663  1.00 32.06 LIG 0.21  HD
ENDBRANCH 18 19
ENDBRANCH 17 18
BRANCH 17 21
ATOM     21  C   SER E   5      24.261  38.517  22.216  1.00 30.08 LIG 0.24  C 
ATOM     22  N   ALA E   6      24.339  37.698  23.259  1.00 30.82 LIG-0.35  N 
ATOM     23 H    ALA E   6      24.322  36.840  23.192  1.00 30.82 LIG 0.16  HD
ATOM     24 O    SER E   5      24.166  39.741  22.316  1.00 31.18 LIG-0.27  OA
BRANCH 22 25
ATOM     25  CA  ALA E   6      24.464  38.187  24.635  1.00 31.79 LIG 0.16  C 
ATOM     26  CB  ALA E   6      25.659  39.119  24.743  1.00 32.45 LIG 0.04  C 
BRANCH 25 27
ATOM     27  C   ALA E   6      23.188  38.918  25.054  1.00 32.63 LIG 0.22  C 
ATOM     28 O    ALA E   6      22.898  40.014  24.562  1.00 33.08 LIG-0.29  OA
ENDBRANCH 25 27
ENDBRANCH 22 25
ENDBRANCH 17 21
ENDBRANCH 14 17
ENDBRANCH 1 13
BRANCH 1 29
ATOM     29  N   TRP E   4      25.526  33.662  19.029  1.00 23.46 LIG-0.35  N 
ATOM     30  C   SER E   3      25.803  33.701  17.716  1.00 23.52 LIG 0.24  C 
ATOM     31 O    SER E   3      26.364  34.659  17.153  1.00 23.44 LIG-0.27  OA
ATOM     32 H    TRP E   4      24.969  33.101  19.370  1.00 23.46 LIG 0.16  HD
BRANCH 30 33
ATOM     33  CA  SER E   3      25.353  32.473  16.900  1.00 23.60 LIG 0.20  C 
BRANCH 33 34
ATOM     34  N   SER E   3      24.659  32.790  15.634  1.00 22.15 LIG-0.34  N 
ATOM     35  C   ALA E   2      23.326  32.669  15.527  1.00 22.11 LIG 0.26  C 
ATOM     36 O    ALA E   2      22.597  32.252  16.420  1.00 20.14 LIG-0.27  OA
ATOM     37 H    SER E   3      25.174  33.050  14.997  1.00 22.15 LIG 0.16  HD
BRANCH 35 38
ATOM     38  CA  ALA E   2      22.677  33.092  14.235  1.00 21.91 LIG 0.40  C 
ATOM     39  N   ALA E   2      22.218  31.851  13.490  1.00 22.04 LIG 0.61  N 
ATOM     40  CB  ALA E   2      21.465  34.014  14.567  1.00 22.52 LIG 0.06  C 
ENDBRANCH 35 38
ENDBRANCH 33 34
BRANCH 33 41
ATOM     41  CB  SER E   3      26.559  31.561  16.648  1.00 24.43 LIG 0.20  C 
BRANCH 41 42
ATOM     42 OG   SER E   3      26.313  30.679  15.558  1.00 28.93 LIG-0.40  OA
ATOM     43 HG   SER E   3      26.008  29.952  15.848  1.00 28.93 LIG 0.21  HD
ENDBRANCH 41 42
ENDBRANCH 33 41
ENDBRANCH 30 33
ENDBRANCH 1 29
TORSDOF 15
ENDMDL
MODEL 28
USER: ADFR SOLUTION from run 175
USER: SCORE 14.103584 LL:  -2.566 LR: -12.529 RR:   0.000 FEB:  -8.054
USER: RMSD 8.213733
USER: SEED 174
USER: STATUS no improvement in best in 9 clusters for 5 generations
USER: GENES 17
USER: genes 0 Translation |==|  0.42702 0.41094 0.40296
USER: genes 1 Rotation |==|  0.57643 0.01320 0.44857 0.56739
USER: genes 2 Torsion [C]-CA--CB-[CG] |==|  0.42917
USER: genes 3 Torsion [CA]-CB--CG-[CD2] |==|  0.69020
USER: genes 4 Torsion [N]-CA--C-[N] |==|  0.21631
USER: genes 5 Torsion [C]-N--CA-[C] |==|  0.21564
USER: genes 6 Torsion [N]-CA--CB-[OG] |==|  0.73791
USER: genes 7 Torsion [CA]-CB--OG-[HG] |==|  0.82618
USER: genes 8 Torsion [N]-CA--C-[N] |==|  0.81762
USER: genes 9 Torsion [C]-N--CA-[CB] |==|  0.49984
USER: genes 10 Torsion [N]-CA--C-[O] |==|  0.73206
USER: genes 11 Torsion [CB]-CA--N-[C] |==|  0.78333
USER: genes 12 Torsion [N]-C--CA-[N] |==|  0.89317
USER: genes 13 Torsion [C]-CA--N-[C] |==|  0.82608
USER: genes 14 Torsion [N]-C--CA-[N] |==|  0.92430
USER: genes 15 Torsion [C]-CA--CB-[OG] |==|  0.67459
USER: genes 16 Torsion [CA]-CB--OG-[HG] |==|  0.79541
ROOT
ATOM      1  CA  TRP E   4      25.658  33.736  18.491  1.00 23.90 LIG 0.18  C 
ENDROOT
BRANCH 1 2
ATOM      2  CB  TRP E   4      25.794  35.269  18.686  1.00 23.42 LIG 0.07  C 
BRANCH 2 3
ATOM      3  CG  TRP E   4      25.857  35.745  20.129  1.00 21.81 LIG-0.03  A 
ATOM      4  CD1 TRP E   4      26.896  35.545  21.015  1.00 20.28 LIG 0.10  A 
ATOM      5  NE1 TRP E   4      26.606  36.119  22.216  1.00 14.71 LIG-0.36  N 
ATOM      6 HE1  TRP E   4      27.115  36.101  22.908  1.00 14.71 LIG 0.17  HD
ATOM      7  CE2 TRP E   4      25.388  36.727  22.157  1.00 22.42 LIG 0.04  A 
ATOM      8  CD2 TRP E   4      24.869  36.510  20.855  1.00 21.74 LIG-0.00  A 
ATOM      9  CZ2 TRP E   4      24.675  37.410  23.155  1.00 22.45 LIG 0.03  A 
ATOM     10  CE3 TRP E   4      23.589  37.025  20.539  1.00 23.04 LIG 0.01  A 
ATOM     11  CZ3 TRP E   4      22.901  37.732  21.521  1.00 25.12 LIG 0.00  A 
ATOM     12  CH2 TRP E   4      23.448  37.915  22.815  1.00 23.64 LIG 0.00  A 
ENDBRANCH 2 3
ENDBRANCH 1 2
BRANCH 1 13
ATOM     13  C   TRP E   4      24.991  33.424  17.147  1.00 25.70 LIG 0.24  C 
ATOM     14  N   SER E   5      24.379  32.239  17.006  1.00 27.23 LIG-0.34  N 
ATOM     15 H    SER E   5      24.370  31.624  17.607  1.00 27.23 LIG 0.16  HD
ATOM     16 O    TRP E   4      25.024  34.262  16.242  1.00 24.65 LIG-0.27  OA
BRANCH 14 17
ATOM     17  CA  SER E   5      23.651  31.901  15.757  1.00 29.24 LIG 0.20  C 
BRANCH 17 18
ATOM     18  CB  SER E   5      22.759  33.053  15.285  1.00 29.98 LIG 0.20  C 
BRANCH 18 19
ATOM     19 OG   SER E   5      21.435  32.889  15.769  1.00 32.06 LIG-0.40  OA
ATOM     20 HG   SER E   5      21.107  32.183  15.454  1.00 32.06 LIG 0.21  HD
ENDBRANCH 18 19
ENDBRANCH 17 18
BRANCH 17 21
ATOM     21  C   SER E   5      24.580  31.505  14.622  1.00 30.08 LIG 0.24  C 
ATOM     22  N   ALA E   6      25.380  32.464  14.169  1.00 30.82 LIG-0.35  N 
ATOM     23 H    ALA E   6      25.329  33.285  14.422  1.00 30.82 LIG 0.16  HD
ATOM     24 O    SER E   5      24.572  30.357  14.176  1.00 31.18 LIG-0.27  OA
BRANCH 22 25
ATOM     25  CA  ALA E   6      26.435  32.207  13.184  1.00 31.79 LIG 0.16  C 
ATOM     26  CB  ALA E   6      27.171  33.499  12.871  1.00 32.45 LIG 0.04  C 
BRANCH 25 27
ATOM     27  C   ALA E   6      27.414  31.162  13.720  1.00 32.63 LIG 0.22  C 
ATOM     28 O    ALA E   6      28.467  31.505  14.267  1.00 33.08 LIG-0.29  OA
ENDBRANCH 25 27
ENDBRANCH 22 25
ENDBRANCH 17 21
ENDBRANCH 14 17
ENDBRANCH 1 13
BRANCH 1 29
ATOM     29  N   TRP E   4      26.951  33.032  18.580  1.00 23.46 LIG-0.35  N 
ATOM     30  C   SER E   3      27.859  32.997  17.592  1.00 23.52 LIG 0.24  C 
ATOM     31 O    SER E   3      27.610  33.295  16.409  1.00 23.44 LIG-0.27  OA
ATOM     32 H    TRP E   4      27.072  32.639  19.336  1.00 23.46 LIG 0.16  HD
BRANCH 30 33
ATOM     33  CA  SER E   3      29.270  32.526  17.996  1.00 23.60 LIG 0.20  C 
BRANCH 33 34
ATOM     34  N   SER E   3      29.727  33.000  19.320  1.00 22.15 LIG-0.34  N 
ATOM     35  C   ALA E   2      29.886  34.310  19.569  1.00 22.11 LIG 0.26  C 
ATOM     36 O    ALA E   2      29.720  35.196  18.737  1.00 20.14 LIG-0.27  OA
ATOM     37 H    SER E   3      29.875  32.377  19.893  1.00 22.15 LIG 0.16  HD
BRANCH 35 38
ATOM     38  CA  ALA E   2      30.269  34.725  20.965  1.00 21.91 LIG 0.40  C 
ATOM     39  N   ALA E   2      29.758  33.680  21.942  1.00 22.04 LIG 0.61  N 
ATOM     40  CB  ALA E   2      31.822  34.837  21.042  1.00 22.52 LIG 0.06  C 
ENDBRANCH 35 38
ENDBRANCH 33 34
BRANCH 33 41
ATOM     41  CB  SER E   3      29.339  30.997  17.911  1.00 24.43 LIG 0.20  C 
BRANCH 41 42
ATOM     42 OG   SER E   3      29.592  30.425  19.190  1.00 28.93 LIG-0.40  OA
ATOM     43 HG   SER E   3      30.393  30.557  19.403  1.00 28.93 LIG 0.21  HD
ENDBRANCH 41 42
ENDBRANCH 33 41
ENDBRANCH 30 33
ENDBRANCH 1 29
TORSDOF 15
ENDMDL
MODEL 29
USER: ADFR SOLUTION from run 152
USER: SCORE 14.569036 LL:  -3.065 LR: -12.528 RR:   0.000 FEB:  -8.054
USER: RMSD 9.753827
USER: SEED 151
USER: STATUS 1 or 2 clusters left
USER: GENES 17
USER: genes 0 Translation |==|  0.43661 0.44706 0.33467
USER: genes 1 Rotation |==|  0.73100 0.82811 0.20326 0.53046
USER: genes 2 Torsion [C]-CA--CB-[CG] |==|  0.64618
USER: genes 3 Torsion [CA]-CB--CG-[CD2] |==|  0.71330
USER: genes 4 Torsion [N]-CA--C-[N] |==|  0.40021
USER: genes 5 Torsion [C]-N--CA-[C] |==|  0.73375
USER: genes 6 Torsion [N]-CA--CB-[OG] |==|  0.08118
USER: genes 7 Torsion [CA]-CB--OG-[HG] |==|  0.09361
USER: genes 8 Torsion [N]-CA--C-[N] |==|  0.98468
USER: genes 9 Torsion [C]-N--CA-[CB] |==|  0.39698
USER: genes 10 Torsion [N]-CA--C-[O] |==|  0.11593
USER: genes 11 Torsion [CB]-CA--N-[C] |==|  0.21820
USER: genes 12 Torsion [N]-C--CA-[N] |==|  0.36111
USER: genes 13 Torsion [C]-CA--N-[C] |==|  0.83781
USER: genes 14 Torsion [N]-C--CA-[N] |==|  0.46264
USER: genes 15 Torsion [C]-CA--CB-[OG] |==|  0.27085
USER: genes 16 Torsion [CA]-CB--OG-[HG] |==|  0.87622
ROOT
ATOM      1  CA  TRP E   4      25.837  34.305  17.057  1.00 23.90 LIG 0.18  C 
ENDROOT
BRANCH 1 2
ATOM      2  CB  TRP E   4      27.132  33.790  16.375  1.00 23.42 LIG 0.07  C 
BRANCH 2 3
ATOM      3  CG  TRP E   4      28.324  33.588  17.298  1.00 21.81 LIG-0.03  A 
ATOM      4  CD1 TRP E   4      28.526  32.526  18.155  1.00 20.28 LIG 0.10  A 
ATOM      5  NE1 TRP E   4      29.708  32.676  18.817  1.00 14.71 LIG-0.36  N 
ATOM      6 HE1  TRP E   4      30.018  32.130  19.406  1.00 14.71 LIG 0.17  HD
ATOM      7  CE2 TRP E   4      30.326  33.819  18.409  1.00 22.42 LIG 0.04  A 
ATOM      8  CD2 TRP E   4      29.484  34.437  17.451  1.00 21.74 LIG-0.00  A 
ATOM      9  CZ2 TRP E   4      31.536  34.389  18.837  1.00 22.45 LIG 0.03  A 
ATOM     10  CE3 TRP E   4      29.889  35.668  16.881  1.00 23.04 LIG 0.01  A 
ATOM     11  CZ3 TRP E   4      31.106  36.211  17.283  1.00 25.12 LIG 0.00  A 
ATOM     12  CH2 TRP E   4      31.913  35.569  18.254  1.00 23.64 LIG 0.00  A 
ENDBRANCH 2 3
ENDBRANCH 1 2
BRANCH 1 13
ATOM     13  C   TRP E   4      24.652  33.398  16.712  1.00 25.70 LIG 0.24  C 
ATOM     14  N   SER E   5      23.917  33.702  15.633  1.00 27.23 LIG-0.34  N 
ATOM     15 H    SER E   5      24.041  34.397  15.143  1.00 27.23 LIG 0.16  HD
ATOM     16 O    TRP E   4      24.410  32.417  17.420  1.00 24.65 LIG-0.27  OA
BRANCH 14 17
ATOM     17  CA  SER E   5      22.799  32.825  15.200  1.00 29.24 LIG 0.20  C 
BRANCH 17 18
ATOM     18  CB  SER E   5      21.598  33.635  14.703  1.00 29.98 LIG 0.20  C 
BRANCH 18 19
ATOM     19 OG   SER E   5      22.023  34.872  14.153  1.00 32.06 LIG-0.40  OA
ATOM     20 HG   SER E   5      22.770  34.772  13.781  1.00 32.06 LIG 0.21  HD
ENDBRANCH 18 19
ENDBRANCH 17 18
BRANCH 17 21
ATOM     21  C   SER E   5      23.208  31.842  14.115  1.00 30.08 LIG 0.24  C 
ATOM     22  N   ALA E   6      24.441  31.983  13.643  1.00 30.82 LIG-0.35  N 
ATOM     23 H    ALA E   6      24.960  32.637  13.854  1.00 30.82 LIG 0.16  HD
ATOM     24 O    SER E   5      22.423  30.977  13.726  1.00 31.18 LIG-0.27  OA
BRANCH 22 25
ATOM     25  CA  ALA E   6      25.038  31.026  12.706  1.00 31.79 LIG 0.16  C 
ATOM     26  CB  ALA E   6      25.900  31.764  11.697  1.00 32.45 LIG 0.04  C 
BRANCH 25 27
ATOM     27  C   ALA E   6      25.879  29.999  13.465  1.00 32.63 LIG 0.22  C 
ATOM     28 O    ALA E   6      25.476  29.514  14.528  1.00 33.08 LIG-0.29  OA
ENDBRANCH 25 27
ENDBRANCH 22 25
ENDBRANCH 17 21
ENDBRANCH 14 17
ENDBRANCH 1 13
BRANCH 1 29
ATOM     29  N   TRP E   4      25.969  34.416  18.522  1.00 23.46 LIG-0.35  N 
ATOM     30  C   SER E   3      26.595  35.425  19.149  1.00 23.52 LIG 0.24  C 
ATOM     31 O    SER E   3      27.373  36.216  18.584  1.00 23.44 LIG-0.27  OA
ATOM     32 H    TRP E   4      25.602  33.763  18.946  1.00 23.46 LIG 0.16  HD
BRANCH 30 33
ATOM     33  CA  SER E   3      26.320  35.548  20.660  1.00 23.60 LIG 0.20  C 
BRANCH 33 34
ATOM     34  N   SER E   3      27.528  35.668  21.503  1.00 22.15 LIG-0.34  N 
ATOM     35  C   ALA E   2      28.477  34.718  21.491  1.00 22.11 LIG 0.26  C 
ATOM     36 O    ALA E   2      28.407  33.680  20.842  1.00 20.14 LIG-0.27  OA
ATOM     37 H    SER E   3      27.561  36.380  21.983  1.00 22.15 LIG 0.16  HD
BRANCH 35 38
ATOM     38  CA  ALA E   2      29.721  34.948  22.308  1.00 21.91 LIG 0.40  C 
ATOM     39  N   ALA E   2      30.484  33.639  22.416  1.00 22.04 LIG 0.61  N 
ATOM     40  CB  ALA E   2      30.588  36.032  21.598  1.00 22.52 LIG 0.06  C 
ENDBRANCH 35 38
ENDBRANCH 33 34
BRANCH 33 41
ATOM     41  CB  SER E   3      25.362  36.719  20.909  1.00 24.43 LIG 0.20  C 
BRANCH 41 42
ATOM     42 OG   SER E   3      24.020  36.263  21.042  1.00 28.93 LIG-0.40  OA
ATOM     43 HG   SER E   3      23.855  35.699  20.442  1.00 28.93 LIG 0.21  HD
ENDBRANCH 41 42
ENDBRANCH 33 41
ENDBRANCH 30 33
ENDBRANCH 1 29
TORSDOF 15
ENDMDL
MODEL 30
USER: ADFR SOLUTION from run 147
USER: SCORE 14.061910 LL:  -2.159 LR: -12.510 RR:   0.000 FEB:  -8.035
USER: RMSD 8.340991
USER: SEED 146
USER: STATUS no improvement in best in 7 clusters for 5 generations
USER: GENES 17
USER: genes 0 Translation |==|  0.43717 0.52233 0.50391
USER: genes 1 Rotation |==|  0.33250 0.95528 0.41663 0.58782
USER: genes 2 Torsion [C]-CA--CB-[CG] |==|  0.43242
USER: genes 3 Torsion [CA]-CB--CG-[CD2] |==|  0.15224
USER: genes 4 Torsion [N]-CA--C-[N] |==|  0.37222
USER: genes 5 Torsion [C]-N--CA-[C] |==|  0.60767
USER: genes 6 Torsion [N]-CA--CB-[OG] |==|  0.51778
USER: genes 7 Torsion [CA]-CB--OG-[HG] |==|  0.70157
USER: genes 8 Torsion [N]-CA--C-[N] |==|  0.44336
USER: genes 9 Torsion [C]-N--CA-[CB] |==|  0.44035
USER: genes 10 Torsion [N]-CA--C-[O] |==|  0.83793
USER: genes 11 Torsion [CB]-CA--N-[C] |==|  0.88077
USER: genes 12 Torsion [N]-C--CA-[N] |==|  0.31844
USER: genes 13 Torsion [C]-CA--N-[C] |==|  0.69590
USER: genes 14 Torsion [N]-C--CA-[N] |==|  0.60201
USER: genes 15 Torsion [C]-CA--CB-[OG] |==|  0.48204
USER: genes 16 Torsion [CA]-CB--OG-[HG] |==|  0.84560
ROOT
ATOM      1  CA  TRP E   4      25.848  35.491  20.611  1.00 23.90 LIG 0.18  C 
ENDROOT
BRANCH 1 2
ATOM      2  CB  TRP E   4      25.476  36.910  20.108  1.00 23.42 LIG 0.07  C 
BRANCH 2 3
ATOM      3  CG  TRP E   4      24.420  37.640  20.922  1.00 21.81 LIG-0.03  A 
ATOM      4  CD1 TRP E   4      23.233  38.161  20.448  1.00 20.28 LIG 0.10  A 
ATOM      5  NE1 TRP E   4      22.534  38.736  21.466  1.00 14.71 LIG-0.36  N 
ATOM      6 HE1  TRP E   4      21.773  39.129  21.383  1.00 14.71 LIG 0.17  HD
ATOM      7  CE2 TRP E   4      23.219  38.599  22.636  1.00 22.42 LIG 0.04  A 
ATOM      8  CD2 TRP E   4      24.426  37.916  22.341  1.00 21.74 LIG-0.00  A 
ATOM      9  CZ2 TRP E   4      22.901  39.059  23.923  1.00 22.45 LIG 0.03  A 
ATOM     10  CE3 TRP E   4      25.340  37.665  23.393  1.00 23.04 LIG 0.01  A 
ATOM     11  CZ3 TRP E   4      25.004  38.093  24.674  1.00 25.12 LIG 0.00  A 
ATOM     12  CH2 TRP E   4      23.793  38.784  24.925  1.00 23.64 LIG 0.00  A 
ENDBRANCH 2 3
ENDBRANCH 1 2
BRANCH 1 13
ATOM     13  C   TRP E   4      26.410  34.645  19.464  1.00 25.70 LIG 0.24  C 
ATOM     14  N   SER E   5      25.599  33.752  18.881  1.00 27.23 LIG-0.34  N 
ATOM     15 H    SER E   5      24.793  33.591  19.134  1.00 27.23 LIG 0.16  HD
ATOM     16 O    TRP E   4      27.579  34.809  19.103  1.00 24.65 LIG-0.27  OA
BRANCH 14 17
ATOM     17  CA  SER E   5      26.056  32.951  17.717  1.00 29.24 LIG 0.20  C 
BRANCH 17 18
ATOM     18  CB  SER E   5      26.580  31.575  18.140  1.00 29.98 LIG 0.20  C 
BRANCH 18 19
ATOM     19 OG   SER E   5      27.143  30.893  17.030  1.00 32.06 LIG-0.40  OA
ATOM     20 HG   SER E   5      26.632  30.269  16.795  1.00 32.06 LIG 0.21  HD
ENDBRANCH 18 19
ENDBRANCH 17 18
BRANCH 17 21
ATOM     21  C   SER E   5      24.971  32.759  16.671  1.00 30.08 LIG 0.24  C 
ATOM     22  N   ALA E   6      25.394  32.438  15.453  1.00 30.82 LIG-0.35  N 
ATOM     23 H    ALA E   6      26.224  32.425  15.226  1.00 30.82 LIG 0.16  HD
ATOM     24 O    SER E   5      23.784  32.893  16.967  1.00 31.18 LIG-0.27  OA
BRANCH 22 25
ATOM     25  CA  ALA E   6      24.473  32.073  14.372  1.00 31.79 LIG 0.16  C 
ATOM     26  CB  ALA E   6      25.151  32.277  13.028  1.00 32.45 LIG 0.04  C 
BRANCH 25 27
ATOM     27  C   ALA E   6      24.033  30.617  14.523  1.00 32.63 LIG 0.22  C 
ATOM     28 O    ALA E   6      24.865  29.704  14.536  1.00 33.08 LIG-0.29  OA
ENDBRANCH 25 27
ENDBRANCH 22 25
ENDBRANCH 17 21
ENDBRANCH 14 17
ENDBRANCH 1 13
BRANCH 1 29
ATOM     29  N   TRP E   4      26.810  35.515  21.729  1.00 23.46 LIG-0.35  N 
ATOM     30  C   SER E   3      27.886  36.316  21.779  1.00 23.52 LIG 0.24  C 
ATOM     31 O    SER E   3      28.357  36.909  20.791  1.00 23.44 LIG-0.27  OA
ATOM     32 H    TRP E   4      26.615  34.960  22.357  1.00 23.46 LIG 0.16  HD
BRANCH 30 33
ATOM     33  CA  SER E   3      28.556  36.452  23.160  1.00 23.60 LIG 0.20  C 
BRANCH 33 34
ATOM     34  N   SER E   3      29.925  35.903  23.243  1.00 22.15 LIG-0.34  N 
ATOM     35  C   ALA E   2      30.182  34.784  23.941  1.00 22.11 LIG 0.26  C 
ATOM     36 O    ALA E   2      29.344  34.169  24.591  1.00 20.14 LIG-0.27  OA
ATOM     37 H    SER E   3      30.520  36.353  22.815  1.00 22.15 LIG 0.16  HD
BRANCH 35 38
ATOM     38  CA  ALA E   2      31.584  34.234  23.909  1.00 21.91 LIG 0.40  C 
ATOM     39  N   ALA E   2      31.512  32.717  23.904  1.00 22.04 LIG 0.61  N 
ATOM     40  CB  ALA E   2      32.292  34.755  22.622  1.00 22.52 LIG 0.06  C 
ENDBRANCH 35 38
ENDBRANCH 33 34
BRANCH 33 41
ATOM     41  CB  SER E   3      28.531  37.922  23.595  1.00 24.43 LIG 0.20  C 
BRANCH 41 42
ATOM     42 OG   SER E   3      29.006  38.068  24.930  1.00 28.93 LIG-0.40  OA
ATOM     43 HG   SER E   3      28.556  37.578  25.443  1.00 28.93 LIG 0.21  HD
ENDBRANCH 41 42
ENDBRANCH 33 41
ENDBRANCH 30 33
ENDBRANCH 1 29
TORSDOF 15
ENDMDL
MODEL 31
USER: ADFR SOLUTION from run 123
USER: SCORE 14.159328 LL:  -2.693 LR: -12.494 RR:   0.000 FEB:  -8.019
USER: RMSD 6.113978
USER: SEED 122
USER: STATUS no improvement in best in 5 clusters for 5 generations
USER: GENES 17
USER: genes 0 Translation |==|  0.49115 0.48581 0.49933
USER: genes 1 Rotation |==|  0.22571 0.19763 0.29338 0.70161
USER: genes 2 Torsion [C]-CA--CB-[CG] |==|  0.64182
USER: genes 3 Torsion [CA]-CB--CG-[CD2] |==|  0.23756
USER: genes 4 Torsion [N]-CA--C-[N] |==|  0.17778
USER: genes 5 Torsion [C]-N--CA-[C] |==|  0.67660
USER: genes 6 Torsion [N]-CA--CB-[OG] |==|  0.09413
USER: genes 7 Torsion [CA]-CB--OG-[HG] |==|  0.35592
USER: genes 8 Torsion [N]-CA--C-[N] |==|  0.94447
USER: genes 9 Torsion [C]-N--CA-[CB] |==|  0.84802
USER: genes 10 Torsion [N]-CA--C-[O] |==|  0.79588
USER: genes 11 Torsion [CB]-CA--N-[C] |==|  0.78276
USER: genes 12 Torsion [N]-C--CA-[N] |==|  0.52088
USER: genes 13 Torsion [C]-CA--N-[C] |==|  0.67279
USER: genes 14 Torsion [N]-C--CA-[N] |==|  0.12508
USER: genes 15 Torsion [C]-CA--CB-[OG] |==|  0.65215
USER: genes 16 Torsion [CA]-CB--OG-[HG] |==|  0.66778
ROOT
ATOM      1  CA  TRP E   4      26.860  34.916  20.515  1.00 23.90 LIG 0.18  C 
ENDROOT
BRANCH 1 2
ATOM      2  CB  TRP E   4      28.336  34.825  20.046  1.00 23.42 LIG 0.07  C 
BRANCH 2 3
ATOM      3  CG  TRP E   4      28.633  33.743  19.019  1.00 21.81 LIG-0.03  A 
ATOM      4  CD1 TRP E   4      29.071  32.461  19.282  1.00 20.28 LIG 0.10  A 
ATOM      5  NE1 TRP E   4      29.222  31.769  18.118  1.00 14.71 LIG-0.36  N 
ATOM      6 HE1  TRP E   4      29.497  30.956  18.058  1.00 14.71 LIG 0.17  HD
ATOM      7  CE2 TRP E   4      28.874  32.557  17.062  1.00 22.42 LIG 0.04  A 
ATOM      8  CD2 TRP E   4      28.500  33.821  17.582  1.00 21.74 LIG-0.00  A 
ATOM      9  CZ2 TRP E   4      28.901  32.279  15.686  1.00 22.45 LIG 0.03  A 
ATOM     10  CE3 TRP E   4      28.113  34.841  16.680  1.00 23.04 LIG 0.01  A 
ATOM     11  CZ3 TRP E   4      28.108  34.550  15.318  1.00 25.12 LIG 0.00  A 
ATOM     12  CH2 TRP E   4      28.502  33.277  14.837  1.00 23.64 LIG 0.00  A 
ENDBRANCH 2 3
ENDBRANCH 1 2
BRANCH 1 13
ATOM     13  C   TRP E   4      26.348  36.355  20.398  1.00 25.70 LIG 0.24  C 
ATOM     14  N   SER E   5      25.153  36.645  20.931  1.00 27.23 LIG-0.34  N 
ATOM     15 H    SER E   5      24.634  36.068  21.301  1.00 27.23 LIG 0.16  HD
ATOM     16 O    TRP E   4      27.042  37.204  19.831  1.00 24.65 LIG-0.27  OA
BRANCH 14 17
ATOM     17  CA  SER E   5      24.629  38.035  20.918  1.00 29.24 LIG 0.20  C 
BRANCH 17 18
ATOM     18  CB  SER E   5      23.296  38.136  20.171  1.00 29.98 LIG 0.20  C 
BRANCH 18 19
ATOM     19 OG   SER E   5      22.531  36.954  20.353  1.00 32.06 LIG-0.40  OA
ATOM     20 HG   SER E   5      21.759  37.158  20.616  1.00 32.06 LIG 0.21  HD
ENDBRANCH 18 19
ENDBRANCH 17 18
BRANCH 17 21
ATOM     21  C   SER E   5      24.452  38.611  22.313  1.00 30.08 LIG 0.24  C 
ATOM     22  N   ALA E   6      24.377  37.724  23.299  1.00 30.82 LIG-0.35  N 
ATOM     23 H    ALA E   6      24.337  36.874  23.172  1.00 30.82 LIG 0.16  HD
ATOM     24 O    SER E   5      24.391  39.829  22.485  1.00 31.18 LIG-0.27  OA
BRANCH 22 25
ATOM     25  CA  ALA E   6      24.358  38.119  24.711  1.00 31.79 LIG 0.16  C 
ATOM     26  CB  ALA E   6      25.564  38.991  25.017  1.00 32.45 LIG 0.04  C 
BRANCH 25 27
ATOM     27  C   ALA E   6      23.068  38.875  25.031  1.00 32.63 LIG 0.22  C 
ATOM     28 O    ALA E   6      22.901  40.034  24.637  1.00 33.08 LIG-0.29  OA
ENDBRANCH 25 27
ENDBRANCH 22 25
ENDBRANCH 17 21
ENDBRANCH 14 17
ENDBRANCH 1 13
BRANCH 1 29
ATOM     29  N   TRP E   4      25.967  34.008  19.769  1.00 23.46 LIG-0.35  N 
ATOM     30  C   SER E   3      25.504  34.255  18.534  1.00 23.52 LIG 0.24  C 
ATOM     31 O    SER E   3      25.528  35.376  17.994  1.00 23.44 LIG-0.27  OA
ATOM     32 H    TRP E   4      25.767  33.294  20.206  1.00 23.46 LIG 0.16  HD
BRANCH 30 33
ATOM     33  CA  SER E   3      24.891  33.049  17.796  1.00 23.60 LIG 0.20  C 
BRANCH 33 34
ATOM     34  N   SER E   3      24.546  33.296  16.380  1.00 22.15 LIG-0.34  N 
ATOM     35  C   ALA E   2      23.277  33.210  15.951  1.00 22.11 LIG 0.26  C 
ATOM     36 O    ALA E   2      22.330  32.881  16.658  1.00 20.14 LIG-0.27  OA
ATOM     37 H    SER E   3      25.215  33.494  15.877  1.00 22.15 LIG 0.16  HD
BRANCH 35 38
ATOM     38  CA  ALA E   2      22.988  33.562  14.515  1.00 21.91 LIG 0.40  C 
ATOM     39  N   ALA E   2      24.036  32.908  13.632  1.00 22.04 LIG 0.61  N 
ATOM     40  CB  ALA E   2      21.563  33.043  14.154  1.00 22.52 LIG 0.06  C 
ENDBRANCH 35 38
ENDBRANCH 33 34
BRANCH 33 41
ATOM     41  CB  SER E   3      25.828  31.843  17.926  1.00 24.43 LIG 0.20  C 
BRANCH 41 42
ATOM     42 OG   SER E   3      26.162  31.315  16.647  1.00 28.93 LIG-0.40  OA
ATOM     43 HG   SER E   3      25.905  30.517  16.597  1.00 28.93 LIG 0.21  HD
ENDBRANCH 41 42
ENDBRANCH 33 41
ENDBRANCH 30 33
ENDBRANCH 1 29
TORSDOF 15
ENDMDL
MODEL 32
USER: ADFR SOLUTION from run 70
USER: SCORE 14.265965 LL:  -2.223 LR: -12.485 RR:   0.000 FEB:  -8.010
USER: RMSD 8.284788
USER: SEED 69
USER: STATUS no improvement in best in 8 clusters for 5 generations
USER: GENES 17
USER: genes 0 Translation |==|  0.46393 0.49138 0.42983
USER: genes 1 Rotation |==|  0.65182 0.03228 0.42338 0.54817
USER: genes 2 Torsion [C]-CA--CB-[CG] |==|  0.43860
USER: genes 3 Torsion [CA]-CB--CG-[CD2] |==|  0.65933
USER: genes 4 Torsion [N]-CA--C-[N] |==|  0.86764
USER: genes 5 Torsion [C]-N--CA-[C] |==|  0.84751
USER: genes 6 Torsion [N]-CA--CB-[OG] |==|  0.60975
USER: genes 7 Torsion [CA]-CB--OG-[HG] |==|  0.93062
USER: genes 8 Torsion [N]-CA--C-[N] |==|  0.41084
USER: genes 9 Torsion [C]-N--CA-[CB] |==|  0.84369
USER: genes 10 Torsion [N]-CA--C-[O] |==|  0.56852
USER: genes 11 Torsion [CB]-CA--N-[C] |==|  0.87195
USER: genes 12 Torsion [N]-C--CA-[N] |==|  0.94444
USER: genes 13 Torsion [C]-CA--N-[C] |==|  0.75628
USER: genes 14 Torsion [N]-C--CA-[N] |==|  0.24491
USER: genes 15 Torsion [C]-CA--CB-[OG] |==|  0.41659
USER: genes 16 Torsion [CA]-CB--OG-[HG] |==|  0.59455
ROOT
ATOM      1  CA  TRP E   4      26.350  35.003  19.055  1.00 23.90 LIG 0.18  C 
ENDROOT
BRANCH 1 2
ATOM      2  CB  TRP E   4      26.031  36.460  19.483  1.00 23.42 LIG 0.07  C 
BRANCH 2 3
ATOM      3  CG  TRP E   4      25.952  36.702  20.982  1.00 21.81 LIG-0.03  A 
ATOM      4  CD1 TRP E   4      26.952  36.470  21.904  1.00 20.28 LIG 0.10  A 
ATOM      5  NE1 TRP E   4      26.528  36.812  23.153  1.00 14.71 LIG-0.36  N 
ATOM      6 HE1  TRP E   4      26.994  36.736  23.872  1.00 14.71 LIG 0.17  HD
ATOM      7  CE2 TRP E   4      25.254  37.293  23.094  1.00 22.42 LIG 0.04  A 
ATOM      8  CD2 TRP E   4      24.842  37.236  21.739  1.00 21.74 LIG-0.00  A 
ATOM      9  CZ2 TRP E   4      24.410  37.731  24.127  1.00 22.45 LIG 0.03  A 
ATOM     10  CE3 TRP E   4      23.533  37.661  21.407  1.00 23.04 LIG 0.01  A 
ATOM     11  CZ3 TRP E   4      22.712  38.127  22.430  1.00 25.12 LIG 0.00  A 
ATOM     12  CH2 TRP E   4      23.157  38.156  23.774  1.00 23.64 LIG 0.00  A 
ENDBRANCH 2 3
ENDBRANCH 1 2
BRANCH 1 13
ATOM     13  C   TRP E   4      25.877  34.750  17.620  1.00 25.70 LIG 0.24  C 
ATOM     14  N   SER E   5      26.622  35.232  16.616  1.00 27.23 LIG-0.34  N 
ATOM     15 H    SER E   5      27.328  35.710  16.722  1.00 27.23 LIG 0.16  HD
ATOM     16 O    TRP E   4      24.841  34.109  17.425  1.00 24.65 LIG-0.27  OA
BRANCH 14 17
ATOM     17  CA  SER E   5      26.262  34.961  15.201  1.00 29.24 LIG 0.20  C 
BRANCH 17 18
ATOM     18  CB  SER E   5      27.278  35.565  14.226  1.00 29.98 LIG 0.20  C 
BRANCH 18 19
ATOM     19 OG   SER E   5      26.619  36.114  13.095  1.00 32.06 LIG-0.40  OA
ATOM     20 HG   SER E   5      25.880  35.730  12.988  1.00 32.06 LIG 0.21  HD
ENDBRANCH 18 19
ENDBRANCH 17 18
BRANCH 17 21
ATOM     21  C   SER E   5      26.121  33.478  14.901  1.00 30.08 LIG 0.24  C 
ATOM     22  N   ALA E   6      25.223  33.159  13.975  1.00 30.82 LIG-0.35  N 
ATOM     23 H    ALA E   6      24.682  33.727  13.621  1.00 30.82 LIG 0.16  HD
ATOM     24 O    SER E   5      26.814  32.650  15.493  1.00 31.18 LIG-0.27  OA
BRANCH 22 25
ATOM     25  CA  ALA E   6      25.073  31.792  13.465  1.00 31.79 LIG 0.16  C 
ATOM     26  CB  ALA E   6      26.400  31.300  12.915  1.00 32.45 LIG 0.04  C 
BRANCH 25 27
ATOM     27  C   ALA E   6      24.588  30.864  14.578  1.00 32.63 LIG 0.22  C 
ATOM     28 O    ALA E   6      24.815  29.650  14.531  1.00 33.08 LIG-0.29  OA
ENDBRANCH 25 27
ENDBRANCH 22 25
ENDBRANCH 17 21
ENDBRANCH 14 17
ENDBRANCH 1 13
BRANCH 1 29
ATOM     29  N   TRP E   4      27.783  34.675  19.172  1.00 23.46 LIG-0.35  N 
ATOM     30  C   SER E   3      28.775  35.467  18.736  1.00 23.52 LIG 0.24  C 
ATOM     31 O    SER E   3      28.612  36.409  17.939  1.00 23.44 LIG-0.27  OA
ATOM     32 H    TRP E   4      27.927  33.916  19.553  1.00 23.46 LIG 0.16  HD
BRANCH 30 33
ATOM     33  CA  SER E   3      30.183  35.126  19.261  1.00 23.60 LIG 0.20  C 
BRANCH 33 34
ATOM     34  N   SER E   3      30.206  34.309  20.492  1.00 22.15 LIG-0.34  N 
ATOM     35  C   ALA E   2      30.165  34.884  21.706  1.00 22.11 LIG 0.26  C 
ATOM     36 O    ALA E   2      30.158  36.096  21.895  1.00 20.14 LIG-0.27  OA
ATOM     37 H    SER E   3      30.245  33.461  20.360  1.00 22.15 LIG 0.16  HD
BRANCH 35 38
ATOM     38  CA  ALA E   2      30.102  33.988  22.914  1.00 21.91 LIG 0.40  C 
ATOM     39  N   ALA E   2      31.519  33.638  23.336  1.00 22.04 LIG 0.61  N 
ATOM     40  CB  ALA E   2      29.359  34.745  24.056  1.00 22.52 LIG 0.06  C 
ENDBRANCH 35 38
ENDBRANCH 33 34
BRANCH 33 41
ATOM     41  CB  SER E   3      30.993  34.454  18.146  1.00 24.43 LIG 0.20  C 
BRANCH 41 42
ATOM     42 OG   SER E   3      32.383  34.733  18.284  1.00 28.93 LIG-0.40  OA
ATOM     43 HG   SER E   3      32.734  34.792  17.524  1.00 28.93 LIG 0.21  HD
ENDBRANCH 41 42
ENDBRANCH 33 41
ENDBRANCH 30 33
ENDBRANCH 1 29
TORSDOF 15
ENDMDL
MODEL 33
USER: ADFR SOLUTION from run 36
USER: SCORE 14.242112 LL:  -2.207 LR: -12.474 RR:   0.000 FEB:  -8.000
USER: RMSD 6.775091
USER: SEED 35
USER: STATUS no improvement in best in 18 clusters for 5 generations
USER: GENES 17
USER: genes 0 Translation |==|  0.46246 0.42108 0.35798
USER: genes 1 Rotation |==|  0.79788 0.49335 0.81935 0.74339
USER: genes 2 Torsion [C]-CA--CB-[CG] |==|  0.61229
USER: genes 3 Torsion [CA]-CB--CG-[CD2] |==|  0.21814
USER: genes 4 Torsion [N]-CA--C-[N] |==|  0.19699
USER: genes 5 Torsion [C]-N--CA-[C] |==|  0.66108
USER: genes 6 Torsion [N]-CA--CB-[OG] |==|  0.44061
USER: genes 7 Torsion [CA]-CB--OG-[HG] |==|  0.54544
USER: genes 8 Torsion [N]-CA--C-[N] |==|  0.35122
USER: genes 9 Torsion [C]-N--CA-[CB] |==|  0.38805
USER: genes 10 Torsion [N]-CA--C-[O] |==|  0.21387
USER: genes 11 Torsion [CB]-CA--N-[C] |==|  0.76304
USER: genes 12 Torsion [N]-C--CA-[N] |==|  0.10455
USER: genes 13 Torsion [C]-CA--N-[C] |==|  0.15836
USER: genes 14 Torsion [N]-C--CA-[N] |==|  0.88628
USER: genes 15 Torsion [C]-CA--CB-[OG] |==|  0.55496
USER: genes 16 Torsion [CA]-CB--OG-[HG] |==|  0.93102
ROOT
ATOM      1  CA  TRP E   4      26.322  33.896  17.546  1.00 23.90 LIG 0.18  C 
ENDROOT
BRANCH 1 2
ATOM      2  CB  TRP E   4      25.313  32.777  17.914  1.00 23.42 LIG 0.07  C 
BRANCH 2 3
ATOM      3  CG  TRP E   4      24.273  32.455  16.852  1.00 21.81 LIG-0.03  A 
ATOM      4  CD1 TRP E   4      22.963  32.888  16.829  1.00 20.28 LIG 0.10  A 
ATOM      5  NE1 TRP E   4      22.331  32.409  15.721  1.00 14.71 LIG-0.36  N 
ATOM      6 HE1  TRP E   4      21.507  32.553  15.522  1.00 14.71 LIG 0.17  HD
ATOM      7  CE2 TRP E   4      23.198  31.669  14.975  1.00 22.42 LIG 0.04  A 
ATOM      8  CD2 TRP E   4      24.442  31.661  15.656  1.00 21.74 LIG-0.00  A 
ATOM      9  CZ2 TRP E   4      22.981  30.963  13.781  1.00 22.45 LIG 0.03  A 
ATOM     10  CE3 TRP E   4      25.519  30.933  15.096  1.00 23.04 LIG 0.01  A 
ATOM     11  CZ3 TRP E   4      25.309  30.264  13.894  1.00 25.12 LIG 0.00  A 
ATOM     12  CH2 TRP E   4      24.047  30.285  13.252  1.00 23.64 LIG 0.00  A 
ENDBRANCH 2 3
ENDBRANCH 1 2
BRANCH 1 13
ATOM     13  C   TRP E   4      27.731  33.526  18.022  1.00 25.70 LIG 0.24  C 
ATOM     14  N   SER E   5      28.653  34.497  18.081  1.00 27.23 LIG-0.34  N 
ATOM     15 H    SER E   5      28.519  35.308  17.831  1.00 27.23 LIG 0.16  HD
ATOM     16 O    TRP E   4      27.978  32.360  18.344  1.00 24.65 LIG-0.27  OA
BRANCH 14 17
ATOM     17  CA  SER E   5      30.017  34.224  18.602  1.00 29.24 LIG 0.20  C 
BRANCH 17 18
ATOM     18  CB  SER E   5      31.086  34.389  17.518  1.00 29.98 LIG 0.20  C 
BRANCH 18 19
ATOM     19 OG   SER E   5      32.360  34.611  18.104  1.00 32.06 LIG-0.40  OA
ATOM     20 HG   SER E   5      32.885  34.918  17.524  1.00 32.06 LIG 0.21  HD
ENDBRANCH 18 19
ENDBRANCH 17 18
BRANCH 17 21
ATOM     21  C   SER E   5      30.382  35.102  19.787  1.00 30.08 LIG 0.24  C 
ATOM     22  N   ALA E   6      30.796  34.460  20.874  1.00 30.82 LIG-0.35  N 
ATOM     23 H    ALA E   6      30.778  33.604  20.957  1.00 30.82 LIG 0.16  HD
ATOM     24 O    SER E   5      30.296  36.327  19.709  1.00 31.18 LIG-0.27  OA
BRANCH 22 25
ATOM     25  CA  ALA E   6      31.327  35.163  22.046  1.00 31.79 LIG 0.16  C 
ATOM     26  CB  ALA E   6      30.813  34.507  23.316  1.00 32.45 LIG 0.04  C 
BRANCH 25 27
ATOM     27  C   ALA E   6      32.856  35.143  22.026  1.00 32.63 LIG 0.22  C 
ATOM     28 O    ALA E   6      33.488  35.898  21.280  1.00 33.08 LIG-0.29  OA
ENDBRANCH 25 27
ENDBRANCH 22 25
ENDBRANCH 17 21
ENDBRANCH 14 17
ENDBRANCH 1 13
BRANCH 1 29
ATOM     29  N   TRP E   4      26.347  34.190  16.101  1.00 23.46 LIG-0.35  N 
ATOM     30  C   SER E   3      27.088  33.516  15.208  1.00 23.52 LIG 0.24  C 
ATOM     31 O    SER E   3      28.041  32.775  15.514  1.00 23.44 LIG-0.27  OA
ATOM     32 H    TRP E   4      25.833  34.844  15.879  1.00 23.46 LIG 0.16  HD
BRANCH 30 33
ATOM     33  CA  SER E   3      26.713  33.730  13.729  1.00 23.60 LIG 0.20  C 
BRANCH 33 34
ATOM     34  N   SER E   3      26.308  35.109  13.385  1.00 22.15 LIG-0.34  N 
ATOM     35  C   ALA E   2      27.125  36.150  13.618  1.00 22.11 LIG 0.26  C 
ATOM     36 O    ALA E   2      28.220  36.058  14.163  1.00 20.14 LIG-0.27  OA
ATOM     37 H    SER E   3      25.526  35.178  13.034  1.00 22.15 LIG 0.16  HD
BRANCH 35 38
ATOM     38  CA  ALA E   2      26.683  37.515  13.161  1.00 21.91 LIG 0.40  C 
ATOM     39  N   ALA E   2      26.039  37.387  11.792  1.00 22.04 LIG 0.61  N 
ATOM     40  CB  ALA E   2      25.665  38.080  14.197  1.00 22.52 LIG 0.06  C 
ENDBRANCH 35 38
ENDBRANCH 33 34
BRANCH 33 41
ATOM     41  CB  SER E   3      27.869  33.263  12.837  1.00 24.43 LIG 0.20  C 
BRANCH 41 42
ATOM     42 OG   SER E   3      27.778  33.839  11.538  1.00 28.93 LIG-0.40  OA
ATOM     43 HG   SER E   3      26.979  34.040  11.376  1.00 28.93 LIG 0.21  HD
ENDBRANCH 41 42
ENDBRANCH 33 41
ENDBRANCH 30 33
ENDBRANCH 1 29
TORSDOF 15
ENDMDL
MODEL 34
USER: ADFR SOLUTION from run 43
USER: SCORE 13.906244 LL:  -2.840 LR: -12.450 RR:   0.000 FEB:  -7.976
USER: RMSD 6.214315
USER: SEED 42
USER: STATUS searching
USER: GENES 17
USER: genes 0 Translation |==|  0.45994 0.36455 0.43066
USER: genes 1 Rotation |==|  0.27050 0.39018 0.10459 0.67007
USER: genes 2 Torsion [C]-CA--CB-[CG] |==|  0.80967
USER: genes 3 Torsion [CA]-CB--CG-[CD2] |==|  0.26316
USER: genes 4 Torsion [N]-CA--C-[N] |==|  0.10989
USER: genes 5 Torsion [C]-N--CA-[C] |==|  0.55603
USER: genes 6 Torsion [N]-CA--CB-[OG] |==|  0.77487
USER: genes 7 Torsion [CA]-CB--OG-[HG] |==|  0.09461
USER: genes 8 Torsion [N]-CA--C-[N] |==|  0.45556
USER: genes 9 Torsion [C]-N--CA-[CB] |==|  0.43468
USER: genes 10 Torsion [N]-CA--C-[O] |==|  0.82946
USER: genes 11 Torsion [CB]-CA--N-[C] |==|  0.15354
USER: genes 12 Torsion [N]-C--CA-[N] |==|  0.25638
USER: genes 13 Torsion [C]-CA--N-[C] |==|  0.87615
USER: genes 14 Torsion [N]-C--CA-[N] |==|  0.23746
USER: genes 15 Torsion [C]-CA--CB-[OG] |==|  0.31093
USER: genes 16 Torsion [CA]-CB--OG-[HG] |==|  0.46269
ROOT
ATOM      1  CA  TRP E   4      26.275  33.006  19.073  1.00 23.90 LIG 0.18  C 
ENDROOT
BRANCH 1 2
ATOM      2  CB  TRP E   4      27.552  32.246  18.626  1.00 23.42 LIG 0.07  C 
BRANCH 2 3
ATOM      3  CG  TRP E   4      28.535  33.050  17.789  1.00 21.81 LIG-0.03  A 
ATOM      4  CD1 TRP E   4      28.480  33.247  16.424  1.00 20.28 LIG 0.10  A 
ATOM      5  NE1 TRP E   4      29.522  34.027  16.021  1.00 14.71 LIG-0.36  N 
ATOM      6 HE1  TRP E   4      29.679  34.261  15.208  1.00 14.71 LIG 0.17  HD
ATOM      7  CE2 TRP E   4      30.278  34.383  17.097  1.00 22.42 LIG 0.04  A 
ATOM      8  CD2 TRP E   4      29.697  33.781  18.241  1.00 21.74 LIG-0.00  A 
ATOM      9  CZ2 TRP E   4      31.455  35.146  17.156  1.00 22.45 LIG 0.03  A 
ATOM     10  CE3 TRP E   4      30.312  33.977  19.501  1.00 23.04 LIG 0.01  A 
ATOM     11  CZ3 TRP E   4      31.459  34.764  19.558  1.00 25.12 LIG 0.00  A 
ATOM     12  CH2 TRP E   4      32.018  35.337  18.390  1.00 23.64 LIG 0.00  A 
ENDBRANCH 2 3
ENDBRANCH 1 2
BRANCH 1 13
ATOM     13  C   TRP E   4      26.627  34.095  20.092  1.00 25.70 LIG 0.24  C 
ATOM     14  N   SER E   5      25.714  35.043  20.343  1.00 27.23 LIG-0.34  N 
ATOM     15 H    SER E   5      24.957  35.106  19.941  1.00 27.23 LIG 0.16  HD
ATOM     16 O    TRP E   4      27.725  34.069  20.655  1.00 24.65 LIG-0.27  OA
BRANCH 14 17
ATOM     17  CA  SER E   5      25.961  36.086  21.371  1.00 29.24 LIG 0.20  C 
BRANCH 17 18
ATOM     18  CB  SER E   5      26.916  37.172  20.867  1.00 29.98 LIG 0.20  C 
BRANCH 18 19
ATOM     19 OG   SER E   5      28.264  36.739  20.975  1.00 32.06 LIG-0.40  OA
ATOM     20 HG   SER E   5      28.304  35.911  20.836  1.00 32.06 LIG 0.21  HD
ENDBRANCH 18 19
ENDBRANCH 17 18
BRANCH 17 21
ATOM     21  C   SER E   5      24.682  36.749  21.857  1.00 30.08 LIG 0.24  C 
ATOM     22  N   ALA E   6      24.784  37.439  22.988  1.00 30.82 LIG-0.35  N 
ATOM     23 H    ALA E   6      25.491  37.447  23.478  1.00 30.82 LIG 0.16  HD
ATOM     24 O    SER E   5      23.637  36.639  21.216  1.00 31.18 LIG-0.27  OA
BRANCH 22 25
ATOM     25  CA  ALA E   6      23.685  38.258  23.509  1.00 31.79 LIG 0.16  C 
ATOM     26  CB  ALA E   6      23.846  38.437  25.009  1.00 32.45 LIG 0.04  C 
BRANCH 25 27
ATOM     27  C   ALA E   6      23.667  39.620  22.816  1.00 32.63 LIG 0.22  C 
ATOM     28 O    ALA E   6      24.630  40.389  22.909  1.00 33.08 LIG-0.29  OA
ENDBRANCH 25 27
ENDBRANCH 22 25
ENDBRANCH 17 21
ENDBRANCH 14 17
ENDBRANCH 1 13
BRANCH 1 29
ATOM     29  N   TRP E   4      25.540  33.602  17.941  1.00 23.46 LIG-0.35  N 
ATOM     30  C   SER E   3      25.110  32.910  16.874  1.00 23.52 LIG 0.24  C 
ATOM     31 O    SER E   3      25.520  31.774  16.572  1.00 23.44 LIG-0.27  OA
ATOM     32 H    TRP E   4      25.410  34.448  18.029  1.00 23.46 LIG 0.16  HD
BRANCH 30 33
ATOM     33  CA  SER E   3      24.071  33.624  15.988  1.00 23.60 LIG 0.20  C 
BRANCH 33 34
ATOM     34  N   SER E   3      24.638  34.393  14.861  1.00 22.15 LIG-0.34  N 
ATOM     35  C   ALA E   2      25.708  35.187  15.034  1.00 22.11 LIG 0.26  C 
ATOM     36 O    ALA E   2      26.258  35.378  16.113  1.00 20.14 LIG-0.27  OA
ATOM     37 H    SER E   3      24.231  34.286  14.112  1.00 22.15 LIG 0.16  HD
BRANCH 35 38
ATOM     38  CA  ALA E   2      26.286  35.872  13.823  1.00 21.91 LIG 0.40  C 
ATOM     39  N   ALA E   2      25.526  37.166  13.586  1.00 22.04 LIG 0.61  N 
ATOM     40  CB  ALA E   2      27.794  36.161  14.089  1.00 22.52 LIG 0.06  C 
ENDBRANCH 35 38
ENDBRANCH 33 34
BRANCH 33 41
ATOM     41  CB  SER E   3      23.042  32.603  15.488  1.00 24.43 LIG 0.20  C 
BRANCH 41 42
ATOM     42 OG   SER E   3      21.764  32.838  16.069  1.00 28.93 LIG-0.40  OA
ATOM     43 HG   SER E   3      21.182  32.398  15.654  1.00 28.93 LIG 0.21  HD
ENDBRANCH 41 42
ENDBRANCH 33 41
ENDBRANCH 30 33
ENDBRANCH 1 29
TORSDOF 15
ENDMDL
MODEL 35
USER: ADFR SOLUTION from run 1
USER: SCORE 13.141337 LL:  -1.594 LR: -12.346 RR:   0.000 FEB:  -7.872
USER: RMSD 3.858337
USER: SEED 406828
USER: STATUS no improvement in best in 8 clusters for 5 generations
USER: GENES 17
USER: genes 0 Translation |==|  0.46716 0.56308 0.43510
USER: genes 1 Rotation |==|  0.69661 0.76633 0.62783 0.85224
USER: genes 2 Torsion [C]-CA--CB-[CG] |==|  0.48492
USER: genes 3 Torsion [CA]-CB--CG-[CD2] |==|  0.52081
USER: genes 4 Torsion [N]-CA--C-[N] |==|  0.26715
USER: genes 5 Torsion [C]-N--CA-[C] |==|  0.79052
USER: genes 6 Torsion [N]-CA--CB-[OG] |==|  0.37926
USER: genes 7 Torsion [CA]-CB--OG-[HG] |==|  0.19797
USER: genes 8 Torsion [N]-CA--C-[N] |==|  0.44855
USER: genes 9 Torsion [C]-N--CA-[CB] |==|  0.85042
USER: genes 10 Torsion [N]-CA--C-[O] |==|  0.31706
USER: genes 11 Torsion [CB]-CA--N-[C] |==|  0.53889
USER: genes 12 Torsion [N]-C--CA-[N] |==|  0.41877
USER: genes 13 Torsion [C]-CA--N-[C] |==|  0.69688
USER: genes 14 Torsion [N]-C--CA-[N] |==|  0.73579
USER: genes 15 Torsion [C]-CA--CB-[OG] |==|  0.25228
USER: genes 16 Torsion [CA]-CB--OG-[HG] |==|  0.03874
ROOT
ATOM      1  CA  TRP E   4      26.410  36.133  19.166  1.00 23.90 LIG 0.18  C 
ENDROOT
BRANCH 1 2
ATOM      2  CB  TRP E   4      26.339  36.482  20.676  1.00 23.42 LIG 0.07  C 
BRANCH 2 3
ATOM      3  CG  TRP E   4      24.983  36.952  21.178  1.00 21.81 LIG-0.03  A 
ATOM      4  CD1 TRP E   4      23.797  36.937  20.473  1.00 20.28 LIG 0.10  A 
ATOM      5  NE1 TRP E   4      22.786  37.425  21.245  1.00 14.71 LIG-0.36  N 
ATOM      6 HE1  TRP E   4      21.968  37.512  20.992  1.00 14.71 LIG 0.17  HD
ATOM      7  CE2 TRP E   4      23.262  37.757  22.477  1.00 22.42 LIG 0.04  A 
ATOM      8  CD2 TRP E   4      24.653  37.482  22.482  1.00 21.74 LIG-0.00  A 
ATOM      9  CZ2 TRP E   4      22.596  38.321  23.576  1.00 22.45 LIG 0.03  A 
ATOM     10  CE3 TRP E   4      25.399  37.764  23.651  1.00 23.04 LIG 0.01  A 
ATOM     11  CZ3 TRP E   4      24.727  38.291  24.751  1.00 25.12 LIG 0.00  A 
ATOM     12  CH2 TRP E   4      23.338  38.564  24.702  1.00 23.64 LIG 0.00  A 
ENDBRANCH 2 3
ENDBRANCH 1 2
BRANCH 1 13
ATOM     13  C   TRP E   4      27.851  35.804  18.759  1.00 25.70 LIG 0.24  C 
ATOM     14  N   SER E   5      28.298  36.275  17.587  1.00 27.23 LIG-0.34  N 
ATOM     15 H    SER E   5      27.818  36.717  17.026  1.00 27.23 LIG 0.16  HD
ATOM     16 O    TRP E   4      28.558  35.131  19.513  1.00 24.65 LIG-0.27  OA
BRANCH 14 17
ATOM     17  CA  SER E   5      29.705  36.057  17.163  1.00 29.24 LIG 0.20  C 
BRANCH 17 18
ATOM     18  CB  SER E   5      29.886  36.259  15.656  1.00 29.98 LIG 0.20  C 
BRANCH 18 19
ATOM     19 OG   SER E   5      31.064  37.006  15.391  1.00 32.06 LIG-0.40  OA
ATOM     20 HG   SER E   5      31.739  36.531  15.551  1.00 32.06 LIG 0.21  HD
ENDBRANCH 18 19
ENDBRANCH 17 18
BRANCH 17 21
ATOM     21  C   SER E   5      30.688  36.953  17.898  1.00 30.08 LIG 0.24  C 
ATOM     22  N   ALA E   6      31.958  36.566  17.865  1.00 30.82 LIG-0.35  N 
ATOM     23 H    ALA E   6      32.218  35.814  17.535  1.00 30.82 LIG 0.16  HD
ATOM     24 O    SER E   5      30.300  37.970  18.472  1.00 31.18 LIG-0.27  OA
BRANCH 22 25
ATOM     25  CA  ALA E   6      33.046  37.394  18.393  1.00 31.79 LIG 0.16  C 
ATOM     26  CB  ALA E   6      32.994  38.775  17.761  1.00 32.45 LIG 0.04  C 
BRANCH 25 27
ATOM     27  C   ALA E   6      32.934  37.507  19.913  1.00 32.63 LIG 0.22  C 
ATOM     28 O    ALA E   6      33.795  37.014  20.649  1.00 33.08 LIG-0.29  OA
ENDBRANCH 25 27
ENDBRANCH 22 25
ENDBRANCH 17 21
ENDBRANCH 14 17
ENDBRANCH 1 13
BRANCH 1 29
ATOM     29  N   TRP E   4      25.522  35.014  18.796  1.00 23.46 LIG-0.35  N 
ATOM     30  C   SER E   3      25.593  34.349  17.632  1.00 23.52 LIG 0.24  C 
ATOM     31 O    SER E   3      26.202  34.767  16.630  1.00 23.44 LIG-0.27  OA
ATOM     32 H    TRP E   4      24.944  34.825  19.405  1.00 23.46 LIG 0.16  HD
BRANCH 30 33
ATOM     33  CA  SER E   3      24.835  33.009  17.580  1.00 23.60 LIG 0.20  C 
BRANCH 33 34
ATOM     34  N   SER E   3      24.340  32.627  16.241  1.00 22.15 LIG-0.34  N 
ATOM     35  C   ALA E   2      23.028  32.653  15.954  1.00 22.11 LIG 0.26  C 
ATOM     36 O    ALA E   2      22.151  32.936  16.763  1.00 20.14 LIG-0.27  OA
ATOM     37 H    SER E   3      24.952  32.396  15.684  1.00 22.15 LIG 0.16  HD
BRANCH 35 38
ATOM     38  CA  ALA E   2      22.603  32.337  14.544  1.00 21.91 LIG 0.40  C 
ATOM     39  N   ALA E   2      22.445  33.639  13.779  1.00 22.04 LIG 0.61  N 
ATOM     40  CB  ALA E   2      23.696  31.441  13.886  1.00 22.52 LIG 0.06  C 
ENDBRANCH 35 38
ENDBRANCH 33 34
BRANCH 33 41
ATOM     41  CB  SER E   3      25.717  31.902  18.171  1.00 24.43 LIG 0.20  C 
BRANCH 41 42
ATOM     42 OG   SER E   3      25.490  31.761  19.570  1.00 28.93 LIG-0.40  OA
ATOM     43 HG   SER E   3      24.788  32.169  19.783  1.00 28.93 LIG 0.21  HD
ENDBRANCH 41 42
ENDBRANCH 33 41
ENDBRANCH 30 33
ENDBRANCH 1 29
TORSDOF 15
ENDMDL
MODEL 36
USER: ADFR SOLUTION from run 180
USER: SCORE 13.257148 LL:  -2.111 LR: -12.349 RR:   0.000 FEB:  -7.875
USER: RMSD 6.037818
USER: SEED 179
USER: STATUS no improvement in best in 10 clusters for 5 generations
USER: GENES 17
USER: genes 0 Translation |==|  0.43424 0.41848 0.42423
USER: genes 1 Rotation |==|  0.32660 0.28026 0.09358 0.58048
USER: genes 2 Torsion [C]-CA--CB-[CG] |==|  0.75717
USER: genes 3 Torsion [CA]-CB--CG-[CD2] |==|  0.26920
USER: genes 4 Torsion [N]-CA--C-[N] |==|  0.24551
USER: genes 5 Torsion [C]-N--CA-[C] |==|  0.78290
USER: genes 6 Torsion [N]-CA--CB-[OG] |==|  0.26734
USER: genes 7 Torsion [CA]-CB--OG-[HG] |==|  0.48610
USER: genes 8 Torsion [N]-CA--C-[N] |==|  0.54435
USER: genes 9 Torsion [C]-N--CA-[CB] |==|  0.33086
USER: genes 10 Torsion [N]-CA--C-[O] |==|  0.81365
USER: genes 11 Torsion [CB]-CA--N-[C] |==|  0.77038
USER: genes 12 Torsion [N]-C--CA-[N] |==|  0.14635
USER: genes 13 Torsion [C]-CA--N-[C] |==|  0.77671
USER: genes 14 Torsion [N]-C--CA-[N] |==|  0.41397
USER: genes 15 Torsion [C]-CA--CB-[OG] |==|  0.70840
USER: genes 16 Torsion [CA]-CB--OG-[HG] |==|  0.88743
ROOT
ATOM      1  CA  TRP E   4      25.793  33.855  18.938  1.00 23.90 LIG 0.18  C 
ENDROOT
BRANCH 1 2
ATOM      2  CB  TRP E   4      27.026  33.038  19.404  1.00 23.42 LIG 0.07  C 
BRANCH 2 3
ATOM      3  CG  TRP E   4      28.256  33.139  18.515  1.00 21.81 LIG-0.03  A 
ATOM      4  CD1 TRP E   4      28.491  32.427  17.357  1.00 20.28 LIG 0.10  A 
ATOM      5  NE1 TRP E   4      29.692  32.786  16.822  1.00 14.71 LIG-0.36  N 
ATOM      6 HE1  TRP E   4      30.033  32.454  16.106  1.00 14.71 LIG 0.17  HD
ATOM      7  CE2 TRP E   4      30.273  33.750  17.590  1.00 22.42 LIG 0.04  A 
ATOM      8  CD2 TRP E   4      29.403  34.003  18.681  1.00 21.74 LIG-0.00  A 
ATOM      9  CZ2 TRP E   4      31.514  34.389  17.444  1.00 22.45 LIG 0.03  A 
ATOM     10  CE3 TRP E   4      29.789  34.958  19.652  1.00 23.04 LIG 0.01  A 
ATOM     11  CZ3 TRP E   4      31.005  35.615  19.484  1.00 25.12 LIG 0.00  A 
ATOM     12  CH2 TRP E   4      31.853  35.323  18.387  1.00 23.64 LIG 0.00  A 
ENDBRANCH 2 3
ENDBRANCH 1 2
BRANCH 1 13
ATOM     13  C   TRP E   4      25.857  35.285  19.487  1.00 25.70 LIG 0.24  C 
ATOM     14  N   SER E   5      24.705  35.896  19.793  1.00 27.23 LIG-0.34  N 
ATOM     15 H    SER E   5      23.926  35.555  19.664  1.00 27.23 LIG 0.16  HD
ATOM     16 O    TRP E   4      26.954  35.828  19.640  1.00 24.65 LIG-0.27  OA
BRANCH 14 17
ATOM     17  CA  SER E   5      24.698  37.253  20.396  1.00 29.24 LIG 0.20  C 
BRANCH 17 18
ATOM     18  CB  SER E   5      23.357  37.964  20.189  1.00 29.98 LIG 0.20  C 
BRANCH 18 19
ATOM     19 OG   SER E   5      22.526  37.803  21.329  1.00 32.06 LIG-0.40  OA
ATOM     20 HG   SER E   5      21.824  38.254  21.229  1.00 32.06 LIG 0.21  HD
ENDBRANCH 18 19
ENDBRANCH 17 18
BRANCH 17 21
ATOM     21  C   SER E   5      25.019  37.239  21.881  1.00 30.08 LIG 0.24  C 
ATOM     22  N   ALA E   6      24.713  38.347  22.548  1.00 30.82 LIG-0.35  N 
ATOM     23 H    ALA E   6      24.436  39.069  22.170  1.00 30.82 LIG 0.16  HD
ATOM     24 O    SER E   5      25.526  36.247  22.404  1.00 31.18 LIG-0.27  OA
BRANCH 22 25
ATOM     25  CA  ALA E   6      24.819  38.440  24.008  1.00 31.79 LIG 0.16  C 
ATOM     26  CB  ALA E   6      25.814  39.525  24.382  1.00 32.45 LIG 0.04  C 
BRANCH 25 27
ATOM     27  C   ALA E   6      23.452  38.747  24.619  1.00 32.63 LIG 0.22  C 
ATOM     28 O    ALA E   6      22.901  39.835  24.419  1.00 33.08 LIG-0.29  OA
ENDBRANCH 25 27
ENDBRANCH 22 25
ENDBRANCH 17 21
ENDBRANCH 14 17
ENDBRANCH 1 13
BRANCH 1 29
ATOM     29  N   TRP E   4      25.655  33.892  17.470  1.00 23.46 LIG-0.35  N 
ATOM     30  C   SER E   3      26.319  34.743  16.671  1.00 23.52 LIG 0.24  C 
ATOM     31 O    SER E   3      26.892  35.771  17.077  1.00 23.44 LIG-0.27  OA
ATOM     32 H    TRP E   4      25.100  33.308  17.166  1.00 23.46 LIG 0.16  HD
BRANCH 30 33
ATOM     33  CA  SER E   3      26.314  34.395  15.171  1.00 23.60 LIG 0.20  C 
BRANCH 33 34
ATOM     34  N   SER E   3      24.974  34.165  14.591  1.00 22.15 LIG-0.34  N 
ATOM     35  C   ALA E   2      24.344  32.989  14.746  1.00 22.11 LIG 0.26  C 
ATOM     36 O    ALA E   2      24.827  32.019  15.319  1.00 20.14 LIG-0.27  OA
ATOM     37 H    SER E   3      24.650  34.835  14.160  1.00 22.15 LIG 0.16  HD
BRANCH 35 38
ATOM     38  CA  ALA E   2      22.945  32.857  14.203  1.00 21.91 LIG 0.40  C 
ATOM     39  N   ALA E   2      22.721  31.416  13.779  1.00 22.04 LIG 0.61  N 
ATOM     40  CB  ALA E   2      21.939  33.264  15.322  1.00 22.52 LIG 0.06  C 
ENDBRANCH 35 38
ENDBRANCH 33 34
BRANCH 33 41
ATOM     41  CB  SER E   3      27.066  35.482  14.394  1.00 24.43 LIG 0.20  C 
BRANCH 41 42
ATOM     42 OG   SER E   3      26.161  36.328  13.693  1.00 28.93 LIG-0.40  OA
ATOM     43 HG   SER E   3      25.545  35.864  13.359  1.00 28.93 LIG 0.21  HD
ENDBRANCH 41 42
ENDBRANCH 33 41
ENDBRANCH 30 33
ENDBRANCH 1 29
TORSDOF 15
ENDMDL
MODEL 37
USER: ADFR SOLUTION from run 13
USER: SCORE 13.861152 LL:  -2.582 LR: -12.336 RR:   0.000 FEB:  -7.861
USER: RMSD 7.031682
USER: SEED 160321
USER: STATUS no improvement in best in 11 clusters for 5 generations
USER: GENES 17
USER: genes 0 Translation |==|  0.43303 0.34259 0.40576
USER: genes 1 Rotation |==|  0.27480 0.38647 0.07606 0.58169
USER: genes 2 Torsion [C]-CA--CB-[CG] |==|  0.70666
USER: genes 3 Torsion [CA]-CB--CG-[CD2] |==|  0.81881
USER: genes 4 Torsion [N]-CA--C-[N] |==|  0.16140
USER: genes 5 Torsion [C]-N--CA-[C] |==|  0.56699
USER: genes 6 Torsion [N]-CA--CB-[OG] |==|  0.13387
USER: genes 7 Torsion [CA]-CB--OG-[HG] |==|  0.77045
USER: genes 8 Torsion [N]-CA--C-[N] |==|  0.48965
USER: genes 9 Torsion [C]-N--CA-[CB] |==|  0.21843
USER: genes 10 Torsion [N]-CA--C-[O] |==|  0.27195
USER: genes 11 Torsion [CB]-CA--N-[C] |==|  0.77132
USER: genes 12 Torsion [N]-C--CA-[N] |==|  0.15688
USER: genes 13 Torsion [C]-CA--N-[C] |==|  0.79444
USER: genes 14 Torsion [N]-C--CA-[N] |==|  0.22313
USER: genes 15 Torsion [C]-CA--CB-[OG] |==|  0.53184
USER: genes 16 Torsion [CA]-CB--OG-[HG] |==|  0.99608
ROOT
ATOM      1  CA  TRP E   4      25.770  32.660  18.550  1.00 23.90 LIG 0.18  C 
ENDROOT
BRANCH 1 2
ATOM      2  CB  TRP E   4      26.790  31.499  18.417  1.00 23.42 LIG 0.07  C 
BRANCH 2 3
ATOM      3  CG  TRP E   4      27.544  31.435  17.097  1.00 21.81 LIG-0.03  A 
ATOM      4  CD1 TRP E   4      28.903  31.592  16.921  1.00 20.28 LIG 0.10  A 
ATOM      5  NE1 TRP E   4      29.223  31.461  15.603  1.00 14.71 LIG-0.36  N 
ATOM      6 HE1  TRP E   4      30.016  31.535  15.277  1.00 14.71 LIG 0.17  HD
ATOM      7  CE2 TRP E   4      28.101  31.198  14.877  1.00 22.42 LIG 0.04  A 
ATOM      8  CD2 TRP E   4      27.008  31.178  15.780  1.00 21.74 LIG-0.00  A 
ATOM      9  CZ2 TRP E   4      27.947  31.021  13.493  1.00 22.45 LIG 0.03  A 
ATOM     10  CE3 TRP E   4      25.708  30.946  15.270  1.00 23.04 LIG 0.01  A 
ATOM     11  CZ3 TRP E   4      25.565  30.737  13.901  1.00 25.12 LIG 0.00  A 
ATOM     12  CH2 TRP E   4      26.681  30.778  13.030  1.00 23.64 LIG 0.00  A 
ENDBRANCH 2 3
ENDBRANCH 1 2
BRANCH 1 13
ATOM     13  C   TRP E   4      26.317  33.750  19.478  1.00 25.70 LIG 0.24  C 
ATOM     14  N   SER E   5      25.530  34.800  19.750  1.00 27.23 LIG-0.34  N 
ATOM     15 H    SER E   5      24.751  34.925  19.407  1.00 27.23 LIG 0.16  HD
ATOM     16 O    TRP E   4      27.449  33.633  19.953  1.00 24.65 LIG-0.27  OA
BRANCH 14 17
ATOM     17  CA  SER E   5      25.967  35.856  20.698  1.00 29.24 LIG 0.20  C 
BRANCH 17 18
ATOM     18  CB  SER E   5      26.908  36.867  20.034  1.00 29.98 LIG 0.20  C 
BRANCH 18 19
ATOM     19 OG   SER E   5      26.373  37.307  18.795  1.00 32.06 LIG-0.40  OA
ATOM     20 HG   SER E   5      26.557  36.747  18.196  1.00 32.06 LIG 0.21  HD
ENDBRANCH 18 19
ENDBRANCH 17 18
BRANCH 17 21
ATOM     21  C   SER E   5      24.803  36.608  21.321  1.00 30.08 LIG 0.24  C 
ATOM     22  N   ALA E   6      25.126  37.515  22.237  1.00 30.82 LIG-0.35  N 
ATOM     23 H    ALA E   6      25.924  37.622  22.540  1.00 30.82 LIG 0.16  HD
ATOM     24 O    SER E   5      23.646  36.373  20.972  1.00 31.18 LIG-0.27  OA
BRANCH 22 25
ATOM     25  CA  ALA E   6      24.138  38.428  22.821  1.00 31.79 LIG 0.16  C 
ATOM     26  CB  ALA E   6      23.330  37.699  23.881  1.00 32.45 LIG 0.04  C 
BRANCH 25 27
ATOM     27  C   ALA E   6      24.837  39.641  23.434  1.00 32.63 LIG 0.22  C 
ATOM     28 O    ALA E   6      24.922  40.703  22.810  1.00 33.08 LIG-0.29  OA
ENDBRANCH 25 27
ENDBRANCH 22 25
ENDBRANCH 17 21
ENDBRANCH 14 17
ENDBRANCH 1 13
BRANCH 1 29
ATOM     29  N   TRP E   4      25.405  33.251  17.249  1.00 23.46 LIG-0.35  N 
ATOM     30  C   SER E   3      26.139  34.176  16.609  1.00 23.52 LIG 0.24  C 
ATOM     31 O    SER E   3      27.038  34.845  17.151  1.00 23.44 LIG-0.27  OA
ATOM     32 H    TRP E   4      24.667  32.944  16.932  1.00 23.46 LIG 0.16  HD
BRANCH 30 33
ATOM     33  CA  SER E   3      25.788  34.401  15.126  1.00 23.60 LIG 0.20  C 
BRANCH 33 34
ATOM     34  N   SER E   3      24.378  34.765  14.871  1.00 22.15 LIG-0.34  N 
ATOM     35  C   ALA E   2      23.399  33.851  14.961  1.00 22.11 LIG 0.26  C 
ATOM     36 O    ALA E   2      23.584  32.663  15.205  1.00 20.14 LIG-0.27  OA
ATOM     37 H    SER E   3      24.252  35.591  14.666  1.00 22.15 LIG 0.16  HD
BRANCH 35 38
ATOM     38  CA  ALA E   2      21.977  34.312  14.775  1.00 21.91 LIG 0.40  C 
ATOM     39  N   ALA E   2      21.697  34.440  13.287  1.00 22.04 LIG 0.61  N 
ATOM     40  CB  ALA E   2      21.025  33.263  15.425  1.00 22.52 LIG 0.06  C 
ENDBRANCH 35 38
ENDBRANCH 33 34
BRANCH 33 41
ATOM     41  CB  SER E   3      26.738  35.446  14.531  1.00 24.43 LIG 0.20  C 
BRANCH 41 42
ATOM     42 OG   SER E   3      26.287  35.876  13.250  1.00 28.93 LIG-0.40  OA
ATOM     43 HG   SER E   3      25.587  35.460  13.045  1.00 28.93 LIG 0.21  HD
ENDBRANCH 41 42
ENDBRANCH 33 41
ENDBRANCH 30 33
ENDBRANCH 1 29
TORSDOF 15
ENDMDL
MODEL 38
USER: ADFR SOLUTION from run 182
USER: SCORE 13.539708 LL:  -2.230 LR: -12.336 RR:   0.000 FEB:  -7.861
USER: RMSD 5.021748
USER: SEED 181
USER: STATUS no improvement in best in 13 clusters for 5 generations
USER: GENES 17
USER: genes 0 Translation |==|  0.46455 0.52754 0.41779
USER: genes 1 Rotation |==|  0.77128 0.60301 0.71620 0.84504
USER: genes 2 Torsion [C]-CA--CB-[CG] |==|  0.21585
USER: genes 3 Torsion [CA]-CB--CG-[CD2] |==|  0.30030
USER: genes 4 Torsion [N]-CA--C-[N] |==|  0.90159
USER: genes 5 Torsion [C]-N--CA-[C] |==|  0.83166
USER: genes 6 Torsion [N]-CA--CB-[OG] |==|  0.72501
USER: genes 7 Torsion [CA]-CB--OG-[HG] |==|  0.91990
USER: genes 8 Torsion [N]-CA--C-[N] |==|  0.95142
USER: genes 9 Torsion [C]-N--CA-[CB] |==|  0.51758
USER: genes 10 Torsion [N]-CA--C-[O] |==|  0.36997
USER: genes 11 Torsion [CB]-CA--N-[C] |==|  0.89444
USER: genes 12 Torsion [N]-C--CA-[N] |==|  0.16885
USER: genes 13 Torsion [C]-CA--N-[C] |==|  0.12531
USER: genes 14 Torsion [N]-C--CA-[N] |==|  0.83767
USER: genes 15 Torsion [C]-CA--CB-[OG] |==|  0.30901
USER: genes 16 Torsion [CA]-CB--OG-[HG] |==|  0.34812
ROOT
ATOM      1  CA  TRP E   4      26.361  35.573  18.803  1.00 23.90 LIG 0.18  C 
ENDROOT
BRANCH 1 2
ATOM      2  CB  TRP E   4      25.526  35.140  20.036  1.00 23.42 LIG 0.07  C 
BRANCH 2 3
ATOM      3  CG  TRP E   4      25.739  35.966  21.295  1.00 21.81 LIG-0.03  A 
ATOM      4  CD1 TRP E   4      26.866  35.972  22.091  1.00 20.28 LIG 0.10  A 
ATOM      5  NE1 TRP E   4      26.702  36.840  23.129  1.00 14.71 LIG-0.36  N 
ATOM      6 HE1  TRP E   4      27.282  36.986  23.747  1.00 14.71 LIG 0.17  HD
ATOM      7  CE2 TRP E   4      25.483  37.443  23.041  1.00 22.42 LIG 0.04  A 
ATOM      8  CD2 TRP E   4      24.831  36.915  21.898  1.00 21.74 LIG-0.00  A 
ATOM      9  CZ2 TRP E   4      24.878  38.375  23.899  1.00 22.45 LIG 0.03  A 
ATOM     10  CE3 TRP E   4      23.524  37.364  21.593  1.00 23.04 LIG 0.01  A 
ATOM     11  CZ3 TRP E   4      22.942  38.315  22.427  1.00 25.12 LIG 0.00  A 
ATOM     12  CH2 TRP E   4      23.622  38.808  23.568  1.00 23.64 LIG 0.00  A 
ENDBRANCH 2 3
ENDBRANCH 1 2
BRANCH 1 13
ATOM     13  C   TRP E   4      27.807  35.081  18.934  1.00 25.70 LIG 0.24  C 
ATOM     14  N   SER E   5      28.108  33.869  18.447  1.00 27.23 LIG-0.34  N 
ATOM     15 H    SER E   5      27.536  33.330  18.101  1.00 27.23 LIG 0.16  HD
ATOM     16 O    TRP E   4      28.649  35.805  19.470  1.00 24.65 LIG-0.27  OA
BRANCH 14 17
ATOM     17  CA  SER E   5      29.503  33.361  18.476  1.00 29.24 LIG 0.20  C 
BRANCH 17 18
ATOM     18  CB  SER E   5      29.599  31.925  17.951  1.00 29.98 LIG 0.20  C 
BRANCH 18 19
ATOM     19 OG   SER E   5      29.644  31.002  19.029  1.00 32.06 LIG-0.40  OA
ATOM     20 HG   SER E   5      29.996  31.370  19.698  1.00 32.06 LIG 0.21  HD
ENDBRANCH 18 19
ENDBRANCH 17 18
BRANCH 17 21
ATOM     21  C   SER E   5      30.465  34.234  17.688  1.00 30.08 LIG 0.24  C 
ATOM     22  N   ALA E   6      29.907  35.071  16.820  1.00 30.82 LIG-0.35  N 
ATOM     23 H    ALA E   6      29.067  35.072  16.633  1.00 30.82 LIG 0.16  HD
ATOM     24 O    SER E   5      31.680  34.151  17.870  1.00 31.18 LIG-0.27  OA
BRANCH 22 25
ATOM     25  CA  ALA E   6      30.682  36.082  16.094  1.00 31.79 LIG 0.16  C 
ATOM     26  CB  ALA E   6      29.744  36.978  15.304  1.00 32.45 LIG 0.04  C 
BRANCH 25 27
ATOM     27  C   ALA E   6      31.507  36.918  17.073  1.00 32.63 LIG 0.22  C 
ATOM     28 O    ALA E   6      32.700  37.152  16.854  1.00 33.08 LIG-0.29  OA
ENDBRANCH 25 27
ENDBRANCH 22 25
ENDBRANCH 17 21
ENDBRANCH 14 17
ENDBRANCH 1 13
BRANCH 1 29
ATOM     29  N   TRP E   4      25.788  35.097  17.529  1.00 23.46 LIG-0.35  N 
ATOM     30  C   SER E   3      25.210  33.896  17.366  1.00 23.52 LIG 0.24  C 
ATOM     31 O    SER E   3      25.343  32.948  18.161  1.00 23.44 LIG-0.27  OA
ATOM     32 H    TRP E   4      25.859  35.669  16.890  1.00 23.46 LIG 0.16  HD
BRANCH 30 33
ATOM     33  CA  SER E   3      24.367  33.728  16.087  1.00 23.60 LIG 0.20  C 
BRANCH 33 34
ATOM     34  N   SER E   3      25.115  33.898  14.823  1.00 22.15 LIG-0.34  N 
ATOM     35  C   ALA E   2      26.315  33.321  14.646  1.00 22.11 LIG 0.26  C 
ATOM     36 O    ALA E   2      26.900  32.667  15.503  1.00 20.14 LIG-0.27  OA
ATOM     37 H    SER E   3      24.721  34.385  14.235  1.00 22.15 LIG 0.16  HD
BRANCH 35 38
ATOM     38  CA  ALA E   2      26.980  33.465  13.302  1.00 21.91 LIG 0.40  C 
ATOM     39  N   ALA E   2      26.060  32.890  12.239  1.00 22.04 LIG 0.61  N 
ATOM     40  CB  ALA E   2      27.246  34.978  13.039  1.00 22.52 LIG 0.06  C 
ENDBRANCH 35 38
ENDBRANCH 33 34
BRANCH 33 41
ATOM     41  CB  SER E   3      23.656  32.370  16.121  1.00 24.43 LIG 0.20  C 
BRANCH 41 42
ATOM     42 OG   SER E   3      22.250  32.533  16.274  1.00 28.93 LIG-0.40  OA
ATOM     43 HG   SER E   3      21.852  32.130  15.654  1.00 28.93 LIG 0.21  HD
ENDBRANCH 41 42
ENDBRANCH 33 41
ENDBRANCH 30 33
ENDBRANCH 1 29
TORSDOF 15
ENDMDL
