MODEL 1
USER: ADFR SOLUTION from run 116
USER: SCORE 20.985076 LL:  -4.983 LR: -17.113 RR:   0.000 FEB:  -9.954
USER: RMSD 9.024336
USER: SEED 115
USER: STATUS searching
USER: GENES 26
USER: genes 0 Translation |==|  0.41038 0.42649 0.44395
USER: genes 1 Rotation |==|  0.33630 0.35859 0.04938 0.51235
USER: genes 2 Torsion [C]-CA--CB-[CG] |==|  0.47197
USER: genes 3 Torsion [CA]-CB--CG-[CD] |==|  0.85173
USER: genes 4 Torsion [CB]-CG--CD-[NE] |==|  0.68576
USER: genes 5 Torsion [CG]-CD--NE-[CZ] |==|  0.70742
USER: genes 6 Torsion [N]-CA--C-[N] |==|  0.20235
USER: genes 7 Torsion [C]-N--CA-[C] |==|  0.86667
USER: genes 8 Torsion [N]-CA--C-[N] |==|  0.36366
USER: genes 9 Torsion [C]-N--CA-[CB] |==|  0.27130
USER: genes 10 Torsion [N]-CA--C-[OXT] |==|  0.94012
USER: genes 11 Torsion [N]-CA--CB-[CG] |==|  0.78306
USER: genes 12 Torsion [CA]-CB--CG-[OD2] |==|  0.81185
USER: genes 13 Torsion [N]-CA--CB-[CG] |==|  0.15455
USER: genes 14 Torsion [CA]-CB--CG-[ND1] |==|  0.73032
USER: genes 15 Torsion [CB]-CA--N-[C] |==|  0.77583
USER: genes 16 Torsion [N]-C--CA-[N] |==|  0.77278
USER: genes 17 Torsion [C]-CA--CB-[CG] |==|  0.15509
USER: genes 18 Torsion [CA]-CB--CG-[CD2] |==|  0.23138
USER: genes 19 Torsion [C]-CA--N-[C] |==|  0.76447
USER: genes 20 Torsion [N]-C--CA-[N] |==|  0.01504
USER: genes 21 Torsion [C]-CA--CB-[CG] |==|  0.50189
USER: genes 22 Torsion [CA]-CB--CG-[CD] |==|  0.19755
USER: genes 23 Torsion [CB]-CG--CD-[OE1] |==|  0.17644
USER: genes 24 Torsion [C]-CA--N-[C] |==|  0.73725
USER: genes 25 Torsion [N]-C--CA-[N] |==|  0.13196
ROOT
ATOM      1  CA  ARG P   5     -24.715  24.816  11.989  1.00 25.78 LIG 0.18  C 
ENDROOT
BRANCH 1 2
ATOM      2  CB  ARG P   5     -25.118  25.083  10.528  1.00 22.44 LIG 0.04  C 
BRANCH 2 3
ATOM      3  CG  ARG P   5     -26.515  24.577  10.170  1.00 26.51 LIG 0.02  C 
BRANCH 3 4
ATOM      4  CD  ARG P   5     -26.701  23.096  10.521  1.00 28.41 LIG 0.14  C 
BRANCH 4 5
ATOM      5  NE  ARG P   5     -26.859  22.267   9.329  1.00 33.08 LIG-0.23  N 
ATOM      6  CZ  ARG P   5     -28.016  21.746   8.924  1.00 31.92 LIG 0.67  C 
ATOM      7  NH2 ARG P   5     -28.055  21.019   7.820  1.00 32.43 LIG-0.23  N 
ATOM      8  NH1 ARG P   5     -29.136  21.971   9.607  1.00 23.99 LIG-0.23  N 
ATOM      9 2HH2 ARG P   5     -28.800  20.680   7.554  1.00 32.43 LIG 0.17  HD
ATOM     10 1HH2 ARG P   5     -27.336  20.885   7.368  1.00 32.43 LIG 0.17  HD
ATOM     11 2HH1 ARG P   5     -29.879  21.631   9.340  1.00 23.99 LIG 0.17  HD
ATOM     12 1HH1 ARG P   5     -29.116  22.457  10.316  1.00 23.99 LIG 0.17  HD
ATOM     13 HE   ARG P   5     -26.159  22.104   8.857  1.00 33.08 LIG 0.18  HD
ENDBRANCH 4 5
ENDBRANCH 3 4
ENDBRANCH 2 3
ENDBRANCH 1 2
BRANCH 1 14
ATOM     14  C   ARG P   5     -23.232  25.121  12.197  1.00 22.77 LIG 0.24  C 
ATOM     15 O    ARG P   5     -22.597  25.764  11.355  1.00 23.41 LIG-0.27  OA
ATOM     16  N   HIS P   6     -22.678  24.642  13.308  1.00 20.21 LIG-0.35  N 
ATOM     17 H    HIS P   6     -23.102  24.176  13.892  1.00 20.21 LIG 0.16  HD
BRANCH 16 18
ATOM     18  CA  HIS P   6     -21.269  24.877  13.629  1.00 24.32 LIG 0.18  C 
BRANCH 18 19
ATOM     19  C   HIS P   6     -20.309  24.595  12.466  1.00 31.11 LIG 0.24  C 
ATOM     20  N   ASP P   7     -19.413  25.537  12.190  1.00 28.94 LIG-0.34  N 
ATOM     21 H    ASP P   7     -19.439  26.338  12.503  1.00 28.94 LIG 0.16  HD
ATOM     22 O    HIS P   6     -20.381  23.538  11.828  1.00 27.73 LIG-0.27  OA
BRANCH 20 23
ATOM     23  CA  ASP P   7     -18.282  25.262  11.305  1.00 30.45 LIG 0.20  C 
BRANCH 23 24
ATOM     24  C   ASP P   7     -16.978  25.877  11.849  1.00 38.41 LIG 0.20  C 
ATOM     25 OXT  ASP P   7     -16.990  26.809  12.652  1.00 43.84 LIG-0.65  OA
ATOM     26 O    ASP P   7     -15.861  25.477  11.498  1.00 36.31 LIG-0.65  OA
ENDBRANCH 23 24
BRANCH 23 27
ATOM     27  CB  ASP P   7     -18.584  25.752   9.888  1.00 42.34 LIG 0.15  C 
BRANCH 27 28
ATOM     28  CG  ASP P   7     -19.504  24.804   9.120  1.00 55.06 LIG 0.17  C 
ATOM     29 OD2  ASP P   7     -19.059  23.680   8.808  1.00 62.01 LIG-0.65  OA
ATOM     30 OD1  ASP P   7     -20.665  25.177   8.827  1.00 52.19 LIG-0.65  OA
ENDBRANCH 27 28
ENDBRANCH 23 27
ENDBRANCH 20 23
ENDBRANCH 18 19
BRANCH 18 31
ATOM     31  CB  HIS P   6     -20.861  24.054  14.838  1.00 25.23 LIG 0.10  C 
BRANCH 31 32
ATOM     32  CG  HIS P   6     -21.117  22.590  14.684  1.00 20.03 LIG 0.06  A 
ATOM     33 ND1  HIS P   6     -22.244  21.979  15.187  1.00 23.24 LIG-0.24  NA
ATOM     34  CE1 HIS P   6     -22.199  20.686  14.917  1.00 27.69 LIG 0.23  A 
ATOM     35 NE2  HIS P   6     -21.077  20.436  14.264  1.00 30.02 LIG-0.25  NA
ATOM     36  CD2 HIS P   6     -20.383  21.612  14.103  1.00 26.95 LIG 0.14  A 
ENDBRANCH 31 32
ENDBRANCH 18 31
ENDBRANCH 16 18
ENDBRANCH 1 14
BRANCH 1 37
ATOM     37  N   ARG P   5     -25.529  25.611  12.897  1.00 23.27 LIG-0.35  N 
ATOM     38 H    ARG P   5     -26.184  25.186  13.258  1.00 23.27 LIG 0.16  HD
ATOM     39  C   PHE P   4     -25.251  26.889  13.126  1.00 23.02 LIG 0.24  C 
ATOM     40 O    PHE P   4     -24.296  27.475  12.609  1.00 27.32 LIG-0.27  OA
BRANCH 39 41
ATOM     41  CA  PHE P   4     -26.165  27.611  14.084  1.00 26.78 LIG 0.18  C 
BRANCH 41 42
ATOM     42  CB  PHE P   4     -26.564  26.689  15.240  1.00 27.56 LIG 0.07  C 
BRANCH 42 43
ATOM     43  CG  PHE P   4     -25.395  26.095  16.005  1.00 23.05 LIG-0.06  A 
ATOM     44  CD2 PHE P   4     -24.772  26.821  17.019  1.00 26.81 LIG 0.01  A 
ATOM     45  CE2 PHE P   4     -23.670  26.301  17.720  1.00 20.39 LIG 0.00  A 
ATOM     46  CZ  PHE P   4     -23.180  25.034  17.391  1.00 15.29 LIG 0.00  A 
ATOM     47  CE1 PHE P   4     -23.799  24.301  16.370  1.00 22.67 LIG 0.00  A 
ATOM     48  CD1 PHE P   4     -24.892  24.836  15.679  1.00 22.68 LIG 0.01  A 
ENDBRANCH 42 43
ENDBRANCH 41 42
BRANCH 41 49
ATOM     49  N   PHE P   4     -27.342  28.013  13.327  1.00 24.27 LIG-0.35  N 
ATOM     50 H    PHE P   4     -28.002  27.464  13.380  1.00 24.27 LIG 0.16  HD
ATOM     51  C   GLU P   3     -27.369  29.139  12.619  1.00 33.66 LIG 0.24  C 
ATOM     52 O    GLU P   3     -26.461  29.970  12.626  1.00 34.99 LIG-0.27  OA
BRANCH 51 53
ATOM     53  CA  GLU P   3     -28.620  29.368  11.791  1.00 34.60 LIG 0.18  C 
BRANCH 53 54
ATOM     54  CB  GLU P   3     -29.180  30.757  12.091  1.00 27.84 LIG 0.04  C 
BRANCH 54 55
ATOM     55  CG  GLU P   3     -30.451  31.090  11.323  1.00 43.05 LIG 0.12  C 
BRANCH 55 56
ATOM     56  CD  GLU P   3     -31.644  30.302  11.820  1.00 49.21 LIG 0.17  C 
ATOM     57 OE1  GLU P   3     -32.028  30.490  12.994  1.00 52.28 LIG-0.65  OA
ATOM     58 OE2  GLU P   3     -32.197  29.499  11.038  1.00 52.44 LIG-0.65  OA
ENDBRANCH 55 56
ENDBRANCH 54 55
ENDBRANCH 53 54
BRANCH 53 59
ATOM     59  N   GLU P   3     -29.623  28.339  12.038  1.00 36.80 LIG-0.35  N 
ATOM     60 H    GLU P   3     -30.130  28.494  12.714  1.00 36.80 LIG 0.16  HD
ATOM     61  C   ALA P   2     -29.722  27.262  11.266  1.00 41.96 LIG 0.26  C 
ATOM     62 O    ALA P   2     -28.950  27.041  10.334  1.00 34.80 LIG-0.27  OA
BRANCH 61 63
ATOM     63  CA  ALA P   2     -30.862  26.288  11.599  1.00 47.40 LIG 0.40  C 
ATOM     64  CB  ALA P   2     -30.986  25.221  10.524  1.00 40.76 LIG 0.06  C 
ATOM     65  N   ALA P   2     -32.148  26.960  11.797  1.00 49.60 LIG 0.61  N 
ENDBRANCH 61 63
ENDBRANCH 53 59
ENDBRANCH 51 53
ENDBRANCH 41 49
ENDBRANCH 39 41
ENDBRANCH 1 37
TORSDOF 24
ENDMDL
MODEL 2
USER: ADFR SOLUTION from run 118
USER: SCORE 18.148545 LL:  -3.821 LR: -17.057 RR:   0.000 FEB:  -9.897
USER: RMSD 9.147330
USER: SEED 117
USER: STATUS no improvement in best in 1 clusters for 5 generations
USER: GENES 26
USER: genes 0 Translation |==|  0.51175 0.39706 0.39707
USER: genes 1 Rotation |==|  0.18105 0.38720 0.14029 0.57849
USER: genes 2 Torsion [C]-CA--CB-[CG] |==|  0.41168
USER: genes 3 Torsion [CA]-CB--CG-[CD] |==|  0.52717
USER: genes 4 Torsion [CB]-CG--CD-[NE] |==|  0.36523
USER: genes 5 Torsion [CG]-CD--NE-[CZ] |==|  0.34231
USER: genes 6 Torsion [N]-CA--C-[N] |==|  0.22135
USER: genes 7 Torsion [C]-N--CA-[C] |==|  0.68646
USER: genes 8 Torsion [N]-CA--C-[N] |==|  0.76994
USER: genes 9 Torsion [C]-N--CA-[CB] |==|  0.26864
USER: genes 10 Torsion [N]-CA--C-[OXT] |==|  0.51018
USER: genes 11 Torsion [N]-CA--CB-[CG] |==|  0.53174
USER: genes 12 Torsion [CA]-CB--CG-[OD2] |==|  0.70940
USER: genes 13 Torsion [N]-CA--CB-[CG] |==|  0.79856
USER: genes 14 Torsion [CA]-CB--CG-[ND1] |==|  0.48957
USER: genes 15 Torsion [CB]-CA--N-[C] |==|  0.50000
USER: genes 16 Torsion [N]-C--CA-[N] |==|  0.96911
USER: genes 17 Torsion [C]-CA--CB-[CG] |==|  0.01502
USER: genes 18 Torsion [CA]-CB--CG-[CD2] |==|  0.71399
USER: genes 19 Torsion [C]-CA--N-[C] |==|  0.21401
USER: genes 20 Torsion [N]-C--CA-[N] |==|  0.26595
USER: genes 21 Torsion [C]-CA--CB-[CG] |==|  0.50469
USER: genes 22 Torsion [CA]-CB--CG-[CD] |==|  0.26891
USER: genes 23 Torsion [CB]-CG--CD-[OE1] |==|  0.88788
USER: genes 24 Torsion [C]-CA--N-[C] |==|  0.59441
USER: genes 25 Torsion [N]-C--CA-[N] |==|  0.20800
ROOT
ATOM      1  CA  ARG P   5     -22.130  24.220  11.145  1.00 25.78 LIG 0.18  C 
ENDROOT
BRANCH 1 2
ATOM      2  CB  ARG P   5     -23.443  24.540  10.408  1.00 22.44 LIG 0.04  C 
BRANCH 2 3
ATOM      3  CG  ARG P   5     -24.589  23.587  10.745  1.00 26.51 LIG 0.02  C 
BRANCH 3 4
ATOM      4  CD  ARG P   5     -25.796  23.787   9.821  1.00 28.41 LIG 0.14  C 
BRANCH 4 5
ATOM      5  NE  ARG P   5     -26.286  22.522   9.280  1.00 33.08 LIG-0.23  N 
ATOM      6  CZ  ARG P   5     -27.533  22.077   9.419  1.00 31.92 LIG 0.67  C 
ATOM      7  NH2 ARG P   5     -27.881  20.922   8.877  1.00 32.43 LIG-0.23  N 
ATOM      8  NH1 ARG P   5     -28.439  22.798  10.077  1.00 23.99 LIG-0.23  N 
ATOM      9 2HH2 ARG P   5     -28.685  20.631   8.965  1.00 32.43 LIG 0.17  HD
ATOM     10 1HH2 ARG P   5     -27.302  20.462   8.438  1.00 32.43 LIG 0.17  HD
ATOM     11 2HH1 ARG P   5     -29.243  22.504  10.163  1.00 23.99 LIG 0.17  HD
ATOM     12 1HH1 ARG P   5     -28.220  23.557  10.417  1.00 23.99 LIG 0.17  HD
ATOM     13 HE   ARG P   5     -25.732  22.031   8.842  1.00 33.08 LIG 0.18  HD
ENDBRANCH 4 5
ENDBRANCH 3 4
ENDBRANCH 2 3
ENDBRANCH 1 2
BRANCH 1 14
ATOM     14  C   ARG P   5     -20.928  24.600  10.282  1.00 22.77 LIG 0.24  C 
ATOM     15 O    ARG P   5     -21.044  25.422   9.367  1.00 23.41 LIG-0.27  OA
ATOM     16  N   HIS P   6     -19.780  23.988  10.560  1.00 20.21 LIG-0.35  N 
ATOM     17 H    HIS P   6     -19.689  23.399  11.180  1.00 20.21 LIG 0.16  HD
BRANCH 16 18
ATOM     18  CA  HIS P   6     -18.553  24.274   9.814  1.00 24.32 LIG 0.18  C 
BRANCH 18 19
ATOM     19  C   HIS P   6     -18.054  23.101   8.960  1.00 31.11 LIG 0.24  C 
ATOM     20  N   ASP P   7     -17.333  22.175   9.582  1.00 28.94 LIG-0.34  N 
ATOM     21 H    ASP P   7     -16.998  22.268  10.369  1.00 28.94 LIG 0.16  HD
ATOM     22 O    HIS P   6     -18.321  23.040   7.754  1.00 27.73 LIG-0.27  OA
BRANCH 20 23
ATOM     23  CA  ASP P   7     -17.050  20.890   8.944  1.00 30.45 LIG 0.20  C 
BRANCH 23 24
ATOM     24  C   ASP P   7     -17.170  19.725   9.946  1.00 38.41 LIG 0.20  C 
ATOM     25 OXT  ASP P   7     -16.906  18.567   9.623  1.00 43.84 LIG-0.65  OA
ATOM     26 O    ASP P   7     -17.547  19.891  11.112  1.00 36.31 LIG-0.65  OA
ENDBRANCH 23 24
BRANCH 23 27
ATOM     27  CB  ASP P   7     -15.673  20.918   8.279  1.00 42.34 LIG 0.15  C 
BRANCH 27 28
ATOM     28  CG  ASP P   7     -15.436  19.715   7.366  1.00 55.06 LIG 0.17  C 
ATOM     29 OD2  ASP P   7     -14.683  18.808   7.776  1.00 62.01 LIG-0.65  OA
ATOM     30 OD1  ASP P   7     -15.995  19.676   6.244  1.00 52.19 LIG-0.65  OA
ENDBRANCH 27 28
ENDBRANCH 23 27
ENDBRANCH 20 23
ENDBRANCH 18 19
BRANCH 18 31
ATOM     31  CB  HIS P   6     -17.453  24.718  10.763  1.00 25.23 LIG 0.10  C 
BRANCH 31 32
ATOM     32  CG  HIS P   6     -17.650  26.092  11.313  1.00 20.03 LIG 0.06  A 
ATOM     33 ND1  HIS P   6     -16.802  26.644  12.248  1.00 23.24 LIG-0.24  NA
ATOM     34  CE1 HIS P   6     -17.225  27.856  12.562  1.00 27.69 LIG 0.23  A 
ATOM     35 NE2  HIS P   6     -18.325  28.105  11.871  1.00 30.02 LIG-0.25  NA
ATOM     36  CD2 HIS P   6     -18.610  27.018  11.080  1.00 26.95 LIG 0.14  A 
ENDBRANCH 31 32
ENDBRANCH 18 31
ENDBRANCH 16 18
ENDBRANCH 1 14
BRANCH 1 37
ATOM     37  N   ARG P   5     -22.078  24.916  12.423  1.00 23.27 LIG-0.35  N 
ATOM     38 H    ARG P   5     -22.767  25.401  12.596  1.00 23.27 LIG 0.16  HD
ATOM     39  C   PHE P   4     -21.032  24.786  13.231  1.00 23.02 LIG 0.24  C 
ATOM     40 O    PHE P   4     -20.062  24.071  12.969  1.00 27.32 LIG-0.27  OA
BRANCH 39 41
ATOM     41  CA  PHE P   4     -21.089  25.556  14.527  1.00 26.78 LIG 0.18  C 
BRANCH 41 42
ATOM     42  CB  PHE P   4     -21.287  24.601  15.707  1.00 27.56 LIG 0.07  C 
BRANCH 42 43
ATOM     43  CG  PHE P   4     -21.249  23.129  15.341  1.00 23.05 LIG-0.06  A 
ATOM     44  CD2 PHE P   4     -22.430  22.393  15.247  1.00 26.81 LIG 0.01  A 
ATOM     45  CE2 PHE P   4     -22.416  21.022  14.938  1.00 20.39 LIG 0.00  A 
ATOM     46  CZ  PHE P   4     -21.194  20.377  14.727  1.00 15.29 LIG 0.00  A 
ATOM     47  CE1 PHE P   4     -20.004  21.109  14.823  1.00 22.67 LIG 0.00  A 
ATOM     48  CD1 PHE P   4     -20.036  22.472  15.137  1.00 22.68 LIG 0.01  A 
ENDBRANCH 42 43
ENDBRANCH 41 42
BRANCH 41 49
ATOM     49  N   PHE P   4     -22.213  26.475  14.425  1.00 24.27 LIG-0.35  N 
ATOM     50 H    PHE P   4     -21.991  27.291  14.266  1.00 24.27 LIG 0.16  HD
ATOM     51  C   GLU P   3     -23.470  26.065  14.569  1.00 33.66 LIG 0.24  C 
ATOM     52 O    GLU P   3     -23.790  24.883  14.695  1.00 34.99 LIG-0.27  OA
BRANCH 51 53
ATOM     53  CA  GLU P   3     -24.527  27.153  14.551  1.00 34.60 LIG 0.18  C 
BRANCH 53 54
ATOM     54  CB  GLU P   3     -25.606  26.829  15.583  1.00 27.84 LIG 0.04  C 
BRANCH 54 55
ATOM     55  CG  GLU P   3     -26.745  27.838  15.624  1.00 43.05 LIG 0.12  C 
BRANCH 55 56
ATOM     56  CD  GLU P   3     -27.937  27.392  14.805  1.00 49.21 LIG 0.17  C 
ATOM     57 OE1  GLU P   3     -27.724  26.843  13.703  1.00 52.28 LIG-0.65  OA
ATOM     58 OE2  GLU P   3     -29.083  27.588  15.264  1.00 52.44 LIG-0.65  OA
ENDBRANCH 55 56
ENDBRANCH 54 55
ENDBRANCH 53 54
BRANCH 53 59
ATOM     59  N   GLU P   3     -25.108  27.315  13.225  1.00 36.80 LIG-0.35  N 
ATOM     60 H    GLU P   3     -25.172  26.586  12.774  1.00 36.80 LIG 0.16  HD
ATOM     61  C   ALA P   2     -25.498  28.503  12.773  1.00 41.96 LIG 0.26  C 
ATOM     62 O    ALA P   2     -25.347  29.539  13.420  1.00 34.80 LIG-0.27  OA
BRANCH 61 63
ATOM     63  CA  ALA P   2     -26.151  28.523  11.383  1.00 47.40 LIG 0.40  C 
ATOM     64  CB  ALA P   2     -26.120  29.925  10.797  1.00 40.76 LIG 0.06  C 
ATOM     65  N   ALA P   2     -27.520  28.006  11.388  1.00 49.60 LIG 0.61  N 
ENDBRANCH 61 63
ENDBRANCH 53 59
ENDBRANCH 51 53
ENDBRANCH 41 49
ENDBRANCH 39 41
ENDBRANCH 1 37
TORSDOF 24
ENDMDL
MODEL 3
USER: ADFR SOLUTION from run 146
USER: SCORE 18.247143 LL:  -3.659 LR: -16.577 RR:   0.000 FEB:  -9.418
USER: RMSD 10.599674
USER: SEED 145
USER: STATUS no improvement in best in 2 clusters for 5 generations
USER: GENES 26
USER: genes 0 Translation |==|  0.55603 0.43754 0.41080
USER: genes 1 Rotation |==|  0.36641 0.02014 0.47747 0.53710
USER: genes 2 Torsion [C]-CA--CB-[CG] |==|  0.34282
USER: genes 3 Torsion [CA]-CB--CG-[CD] |==|  0.37998
USER: genes 4 Torsion [CB]-CG--CD-[NE] |==|  0.65382
USER: genes 5 Torsion [CG]-CD--NE-[CZ] |==|  0.34949
USER: genes 6 Torsion [N]-CA--C-[N] |==|  0.53089
USER: genes 7 Torsion [C]-N--CA-[C] |==|  0.62348
USER: genes 8 Torsion [N]-CA--C-[N] |==|  0.42996
USER: genes 9 Torsion [C]-N--CA-[CB] |==|  0.21481
USER: genes 10 Torsion [N]-CA--C-[OXT] |==|  0.05973
USER: genes 11 Torsion [N]-CA--CB-[CG] |==|  0.59899
USER: genes 12 Torsion [CA]-CB--CG-[OD2] |==|  0.29473
USER: genes 13 Torsion [N]-CA--CB-[CG] |==|  0.06216
USER: genes 14 Torsion [CA]-CB--CG-[ND1] |==|  0.78169
USER: genes 15 Torsion [CB]-CA--N-[C] |==|  0.15032
USER: genes 16 Torsion [N]-C--CA-[N] |==|  0.07123
USER: genes 17 Torsion [C]-CA--CB-[CG] |==|  0.29567
USER: genes 18 Torsion [CA]-CB--CG-[CD2] |==|  0.22957
USER: genes 19 Torsion [C]-CA--N-[C] |==|  0.20333
USER: genes 20 Torsion [N]-C--CA-[N] |==|  0.62873
USER: genes 21 Torsion [C]-CA--CB-[CG] |==|  0.46688
USER: genes 22 Torsion [CA]-CB--CG-[CD] |==|  0.83082
USER: genes 23 Torsion [CB]-CG--CD-[OE1] |==|  0.70296
USER: genes 24 Torsion [C]-CA--N-[C] |==|  0.16073
USER: genes 25 Torsion [N]-C--CA-[N] |==|  0.93637
ROOT
ATOM      1  CA  ARG P   5     -21.001  25.040  11.392  1.00 25.78 LIG 0.18  C 
ENDROOT
BRANCH 1 2
ATOM      2  CB  ARG P   5     -20.973  23.761  12.247  1.00 22.44 LIG 0.04  C 
BRANCH 2 3
ATOM      3  CG  ARG P   5     -20.439  23.974  13.663  1.00 26.51 LIG 0.02  C 
BRANCH 3 4
ATOM      4  CD  ARG P   5     -21.279  23.237  14.713  1.00 28.41 LIG 0.14  C 
BRANCH 4 5
ATOM      5  NE  ARG P   5     -21.768  24.140  15.753  1.00 33.08 LIG-0.23  N 
ATOM      6  CZ  ARG P   5     -23.048  24.265  16.099  1.00 31.92 LIG 0.67  C 
ATOM      7  NH2 ARG P   5     -23.386  25.101  17.066  1.00 32.43 LIG-0.23  N 
ATOM      8  NH1 ARG P   5     -23.986  23.536  15.497  1.00 23.99 LIG-0.23  N 
ATOM      9 2HH2 ARG P   5     -24.211  25.185  17.293  1.00 32.43 LIG 0.17  HD
ATOM     10 1HH2 ARG P   5     -22.780  25.561  17.467  1.00 32.43 LIG 0.17  HD
ATOM     11 2HH1 ARG P   5     -24.810  23.622  15.726  1.00 23.99 LIG 0.17  HD
ATOM     12 1HH1 ARG P   5     -23.767  22.979  14.880  1.00 23.99 LIG 0.17  HD
ATOM     13 HE   ARG P   5     -21.191  24.622  16.170  1.00 33.08 LIG 0.18  HD
ENDBRANCH 4 5
ENDBRANCH 3 4
ENDBRANCH 2 3
ENDBRANCH 1 2
BRANCH 1 14
ATOM     14  C   ARG P   5     -20.197  24.841  10.108  1.00 22.77 LIG 0.24  C 
ATOM     15 O    ARG P   5     -20.663  25.179   9.015  1.00 23.41 LIG-0.27  OA
ATOM     16  N   HIS P   6     -19.000  24.276  10.239  1.00 20.21 LIG-0.35  N 
ATOM     17 H    HIS P   6     -18.671  24.018  10.990  1.00 20.21 LIG 0.16  HD
BRANCH 16 18
ATOM     18  CA  HIS P   6     -18.127  24.044   9.086  1.00 24.32 LIG 0.18  C 
BRANCH 18 19
ATOM     19  C   HIS P   6     -17.470  22.658   9.071  1.00 31.11 LIG 0.24  C 
ATOM     20  N   ASP P   7     -17.111  22.181   7.883  1.00 28.94 LIG-0.34  N 
ATOM     21 H    ASP P   7     -17.362  22.514   7.131  1.00 28.94 LIG 0.16  HD
ATOM     22 O    HIS P   6     -17.292  22.031  10.121  1.00 27.73 LIG-0.27  OA
BRANCH 20 23
ATOM     23  CA  ASP P   7     -16.233  21.017   7.776  1.00 30.45 LIG 0.20  C 
BRANCH 23 24
ATOM     24  C   ASP P   7     -15.530  20.966   6.405  1.00 38.41 LIG 0.20  C 
ATOM     25 OXT  ASP P   7     -15.398  21.973   5.710  1.00 43.84 LIG-0.65  OA
ATOM     26 O    ASP P   7     -15.078  19.917   5.932  1.00 36.31 LIG-0.65  OA
ENDBRANCH 23 24
BRANCH 23 27
ATOM     27  CB  ASP P   7     -17.017  19.732   8.051  1.00 42.34 LIG 0.15  C 
BRANCH 27 28
ATOM     28  CG  ASP P   7     -16.188  18.683   8.790  1.00 55.06 LIG 0.17  C 
ATOM     29 OD2  ASP P   7     -16.433  18.486   9.998  1.00 62.01 LIG-0.65  OA
ATOM     30 OD1  ASP P   7     -15.294  18.057   8.170  1.00 52.19 LIG-0.65  OA
ENDBRANCH 27 28
ENDBRANCH 23 27
ENDBRANCH 20 23
ENDBRANCH 18 19
BRANCH 18 31
ATOM     31  CB  HIS P   6     -17.055  25.117   9.014  1.00 25.23 LIG 0.10  C 
BRANCH 31 32
ATOM     32  CG  HIS P   6     -16.791  25.793  10.319  1.00 20.03 LIG 0.06  A 
ATOM     33 ND1  HIS P   6     -17.615  26.775  10.824  1.00 23.24 LIG-0.24  NA
ATOM     34  CE1 HIS P   6     -17.132  27.200  11.978  1.00 27.69 LIG 0.23  A 
ATOM     35 NE2  HIS P   6     -16.018  26.535  12.235  1.00 30.02 LIG-0.25  NA
ATOM     36  CD2 HIS P   6     -15.784  25.647  11.212  1.00 26.95 LIG 0.14  A 
ENDBRANCH 31 32
ENDBRANCH 18 31
ENDBRANCH 16 18
ENDBRANCH 1 14
BRANCH 1 37
ATOM     37  N   ARG P   5     -22.372  25.417  11.081  1.00 23.27 LIG-0.35  N 
ATOM     38 H    ARG P   5     -22.534  25.522  10.243  1.00 23.27 LIG 0.16  HD
ATOM     39  C   PHE P   4     -23.273  25.578  12.043  1.00 23.02 LIG 0.24  C 
ATOM     40 O    PHE P   4     -23.022  25.407  13.238  1.00 27.32 LIG-0.27  OA
BRANCH 39 41
ATOM     41  CA  PHE P   4     -24.661  25.971  11.600  1.00 26.78 LIG 0.18  C 
BRANCH 41 42
ATOM     42  CB  PHE P   4     -25.713  25.339  12.514  1.00 27.56 LIG 0.07  C 
BRANCH 42 43
ATOM     43  CG  PHE P   4     -26.382  26.309  13.471  1.00 23.05 LIG-0.06  A 
ATOM     44  CD2 PHE P   4     -27.449  27.099  13.047  1.00 26.81 LIG 0.01  A 
ATOM     45  CE2 PHE P   4     -28.063  28.024  13.908  1.00 20.39 LIG 0.00  A 
ATOM     46  CZ  PHE P   4     -27.592  28.165  15.216  1.00 15.29 LIG 0.00  A 
ATOM     47  CE1 PHE P   4     -26.517  27.377  15.649  1.00 22.67 LIG 0.00  A 
ATOM     48  CD1 PHE P   4     -25.915  26.464  14.776  1.00 22.68 LIG 0.01  A 
ENDBRANCH 42 43
ENDBRANCH 41 42
BRANCH 41 49
ATOM     49  N   PHE P   4     -24.822  25.492  10.234  1.00 24.27 LIG-0.35  N 
ATOM     50 H    PHE P   4     -24.804  26.110   9.637  1.00 24.27 LIG 0.16  HD
ATOM     51  C   GLU P   3     -24.982  24.201   9.959  1.00 33.66 LIG 0.24  C 
ATOM     52 O    GLU P   3     -24.906  23.309  10.805  1.00 34.99 LIG-0.27  OA
BRANCH 51 53
ATOM     53  CA  GLU P   3     -25.252  23.864   8.505  1.00 34.60 LIG 0.18  C 
BRANCH 53 54
ATOM     54  CB  GLU P   3     -25.535  25.150   7.730  1.00 27.84 LIG 0.04  C 
BRANCH 54 55
ATOM     55  CG  GLU P   3     -25.538  24.972   6.218  1.00 43.05 LIG 0.12  C 
BRANCH 55 56
ATOM     56  CD  GLU P   3     -24.203  24.489   5.696  1.00 49.21 LIG 0.17  C 
ATOM     57 OE1  GLU P   3     -23.483  25.300   5.075  1.00 52.28 LIG-0.65  OA
ATOM     58 OE2  GLU P   3     -23.874  23.301   5.907  1.00 52.44 LIG-0.65  OA
ENDBRANCH 55 56
ENDBRANCH 54 55
ENDBRANCH 53 54
BRANCH 53 59
ATOM     59  N   GLU P   3     -26.356  22.921   8.369  1.00 36.80 LIG-0.35  N 
ATOM     60 H    GLU P   3     -26.152  22.194   7.959  1.00 36.80 LIG 0.16  HD
ATOM     61  C   ALA P   2     -27.566  23.190   8.847  1.00 41.96 LIG 0.26  C 
ATOM     62 O    ALA P   2     -27.843  24.262   9.384  1.00 34.80 LIG-0.27  OA
BRANCH 61 63
ATOM     63  CA  ALA P   2     -28.622  22.085   8.691  1.00 47.40 LIG 0.40  C 
ATOM     64  CB  ALA P   2     -28.805  21.333   9.999  1.00 40.76 LIG 0.06  C 
ATOM     65  N   ALA P   2     -28.314  21.151   7.607  1.00 49.60 LIG 0.61  N 
ENDBRANCH 61 63
ENDBRANCH 53 59
ENDBRANCH 51 53
ENDBRANCH 41 49
ENDBRANCH 39 41
ENDBRANCH 1 37
TORSDOF 24
ENDMDL
MODEL 4
USER: ADFR SOLUTION from run 156
USER: SCORE 19.548419 LL:  -4.466 LR: -16.576 RR:   0.000 FEB:  -9.417
USER: RMSD 9.914070
USER: SEED 155
USER: STATUS no improvement in best in 8 clusters for 5 generations
USER: GENES 26
USER: genes 0 Translation |==|  0.60061 0.43951 0.48707
USER: genes 1 Rotation |==|  0.94592 0.68144 0.63455 0.51146
USER: genes 2 Torsion [C]-CA--CB-[CG] |==|  0.58725
USER: genes 3 Torsion [CA]-CB--CG-[CD] |==|  0.54588
USER: genes 4 Torsion [CB]-CG--CD-[NE] |==|  0.30481
USER: genes 5 Torsion [CG]-CD--NE-[CZ] |==|  0.51028
USER: genes 6 Torsion [N]-CA--C-[N] |==|  0.13333
USER: genes 7 Torsion [C]-N--CA-[C] |==|  0.62853
USER: genes 8 Torsion [N]-CA--C-[N] |==|  0.36996
USER: genes 9 Torsion [C]-N--CA-[CB] |==|  0.24441
USER: genes 10 Torsion [N]-CA--C-[OXT] |==|  0.91601
USER: genes 11 Torsion [N]-CA--CB-[CG] |==|  0.38473
USER: genes 12 Torsion [CA]-CB--CG-[OD2] |==|  0.70871
USER: genes 13 Torsion [N]-CA--CB-[CG] |==|  0.80681
USER: genes 14 Torsion [CA]-CB--CG-[ND1] |==|  0.90103
USER: genes 15 Torsion [CB]-CA--N-[C] |==|  0.78981
USER: genes 16 Torsion [N]-C--CA-[N] |==|  0.24445
USER: genes 17 Torsion [C]-CA--CB-[CG] |==|  0.44955
USER: genes 18 Torsion [CA]-CB--CG-[CD2] |==|  0.35460
USER: genes 19 Torsion [C]-CA--N-[C] |==|  0.81572
USER: genes 20 Torsion [N]-C--CA-[N] |==|  0.42529
USER: genes 21 Torsion [C]-CA--CB-[CG] |==|  0.58116
USER: genes 22 Torsion [CA]-CB--CG-[CD] |==|  0.86993
USER: genes 23 Torsion [CB]-CG--CD-[OE1] |==|  0.83855
USER: genes 24 Torsion [C]-CA--N-[C] |==|  0.76684
USER: genes 25 Torsion [N]-C--CA-[N] |==|  0.19278
ROOT
ATOM      1  CA  ARG P   5     -19.865  25.080  12.765  1.00 25.78 LIG 0.18  C 
ENDROOT
BRANCH 1 2
ATOM      2  CB  ARG P   5     -21.336  25.339  13.135  1.00 22.44 LIG 0.04  C 
BRANCH 2 3
ATOM      3  CG  ARG P   5     -21.541  26.548  14.046  1.00 26.51 LIG 0.02  C 
BRANCH 3 4
ATOM      4  CD  ARG P   5     -22.922  26.541  14.712  1.00 28.41 LIG 0.14  C 
BRANCH 4 5
ATOM      5  NE  ARG P   5     -22.836  26.271  16.146  1.00 33.08 LIG-0.23  N 
ATOM      6  CZ  ARG P   5     -23.889  26.138  16.950  1.00 31.92 LIG 0.67  C 
ATOM      7  NH2 ARG P   5     -23.704  25.880  18.233  1.00 32.43 LIG-0.23  N 
ATOM      8  NH1 ARG P   5     -25.126  26.238  16.467  1.00 23.99 LIG-0.23  N 
ATOM      9 2HH2 ARG P   5     -24.381  25.794  18.757  1.00 32.43 LIG 0.17  HD
ATOM     10 1HH2 ARG P   5     -22.906  25.799  18.544  1.00 32.43 LIG 0.17  HD
ATOM     11 2HH1 ARG P   5     -25.801  26.151  16.993  1.00 23.99 LIG 0.17  HD
ATOM     12 1HH1 ARG P   5     -25.250  26.390  15.630  1.00 23.99 LIG 0.17  HD
ATOM     13 HE   ARG P   5     -22.054  26.193  16.493  1.00 33.08 LIG 0.18  HD
ENDBRANCH 4 5
ENDBRANCH 3 4
ENDBRANCH 2 3
ENDBRANCH 1 2
BRANCH 1 14
ATOM     14  C   ARG P   5     -19.765  24.462  11.371  1.00 22.77 LIG 0.24  C 
ATOM     15 O    ARG P   5     -20.777  24.064  10.786  1.00 23.41 LIG-0.27  OA
ATOM     16  N   HIS P   6     -18.545  24.366  10.850  1.00 20.21 LIG-0.35  N 
ATOM     17 H    HIS P   6     -17.830  24.621  11.253  1.00 20.21 LIG 0.16  HD
BRANCH 16 18
ATOM     18  CA  HIS P   6     -18.319  23.806   9.516  1.00 24.32 LIG 0.18  C 
BRANCH 18 19
ATOM     19  C   HIS P   6     -17.170  22.791   9.453  1.00 31.11 LIG 0.24  C 
ATOM     20  N   ASP P   7     -17.412  21.655   8.808  1.00 28.94 LIG-0.34  N 
ATOM     21 H    ASP P   7     -18.195  21.388   8.572  1.00 28.94 LIG 0.16  HD
ATOM     22 O    HIS P   6     -16.080  23.036   9.983  1.00 27.73 LIG-0.27  OA
BRANCH 20 23
ATOM     23  CA  ASP P   7     -16.322  20.751   8.444  1.00 30.45 LIG 0.20  C 
BRANCH 23 24
ATOM     24  C   ASP P   7     -16.621  20.009   7.126  1.00 38.41 LIG 0.20  C 
ATOM     25 OXT  ASP P   7     -17.773  19.740   6.785  1.00 43.84 LIG-0.65  OA
ATOM     26 O    ASP P   7     -15.726  19.636   6.359  1.00 36.31 LIG-0.65  OA
ENDBRANCH 23 24
BRANCH 23 27
ATOM     27  CB  ASP P   7     -16.039  19.773   9.585  1.00 42.34 LIG 0.15  C 
BRANCH 27 28
ATOM     28  CG  ASP P   7     -15.781  18.350   9.092  1.00 55.06 LIG 0.17  C 
ATOM     29 OD2  ASP P   7     -16.686  17.503   9.244  1.00 62.01 LIG-0.65  OA
ATOM     30 OD1  ASP P   7     -14.681  18.075   8.556  1.00 52.19 LIG-0.65  OA
ENDBRANCH 27 28
ENDBRANCH 23 27
ENDBRANCH 20 23
ENDBRANCH 18 19
BRANCH 18 31
ATOM     31  CB  HIS P   6     -18.071  24.919   8.513  1.00 25.23 LIG 0.10  C 
BRANCH 31 32
ATOM     32  CG  HIS P   6     -19.280  25.748   8.223  1.00 20.03 LIG 0.06  A 
ATOM     33 ND1  HIS P   6     -20.549  25.214   8.174  1.00 23.24 LIG-0.24  NA
ATOM     34  CE1 HIS P   6     -21.414  26.170   7.886  1.00 27.69 LIG 0.23  A 
ATOM     35 NE2  HIS P   6     -20.750  27.303   7.735  1.00 30.02 LIG-0.25  NA
ATOM     36  CD2 HIS P   6     -19.412  27.066   7.943  1.00 26.95 LIG 0.14  A 
ENDBRANCH 31 32
ENDBRANCH 18 31
ENDBRANCH 16 18
ENDBRANCH 1 14
BRANCH 1 37
ATOM     37  N   ARG P   5     -19.096  26.315  12.830  1.00 23.27 LIG-0.35  N 
ATOM     38 H    ARG P   5     -18.589  26.386  13.520  1.00 23.27 LIG 0.16  HD
ATOM     39  C   PHE P   4     -19.198  27.235  11.877  1.00 23.02 LIG 0.24  C 
ATOM     40 O    PHE P   4     -19.921  27.103  10.887  1.00 27.32 LIG-0.27  OA
BRANCH 39 41
ATOM     41  CA  PHE P   4     -18.355  28.474  12.052  1.00 26.78 LIG 0.18  C 
BRANCH 41 42
ATOM     42  CB  PHE P   4     -19.018  29.673  11.369  1.00 27.56 LIG 0.07  C 
BRANCH 42 43
ATOM     43  CG  PHE P   4     -18.507  31.025  11.832  1.00 23.05 LIG-0.06  A 
ATOM     44  CD2 PHE P   4     -18.066  31.970  10.907  1.00 26.81 LIG 0.01  A 
ATOM     45  CE2 PHE P   4     -17.562  33.216  11.316  1.00 20.39 LIG 0.00  A 
ATOM     46  CZ  PHE P   4     -17.492  33.516  12.680  1.00 15.29 LIG 0.00  A 
ATOM     47  CE1 PHE P   4     -17.930  32.570  13.616  1.00 22.67 LIG 0.00  A 
ATOM     48  CD1 PHE P   4     -18.424  31.332  13.191  1.00 22.68 LIG 0.01  A 
ENDBRANCH 42 43
ENDBRANCH 41 42
BRANCH 41 49
ATOM     49  N   PHE P   4     -17.061  28.196  11.445  1.00 24.27 LIG-0.35  N 
ATOM     50 H    PHE P   4     -16.888  28.668  10.747  1.00 24.27 LIG 0.16  HD
ATOM     51  C   GLU P   3     -16.234  27.282  11.944  1.00 33.66 LIG 0.24  C 
ATOM     52 O    GLU P   3     -16.440  26.680  12.998  1.00 34.99 LIG-0.27  OA
BRANCH 51 53
ATOM     53  CA  GLU P   3     -14.974  27.021  11.139  1.00 34.60 LIG 0.18  C 
BRANCH 53 54
ATOM     54  CB  GLU P   3     -15.281  26.017  10.029  1.00 27.84 LIG 0.04  C 
BRANCH 54 55
ATOM     55  CG  GLU P   3     -14.090  25.160   9.626  1.00 43.05 LIG 0.12  C 
BRANCH 55 56
ATOM     56  CD  GLU P   3     -12.835  25.981   9.422  1.00 49.21 LIG 0.17  C 
ATOM     57 OE1  GLU P   3     -12.861  26.900   8.576  1.00 52.28 LIG-0.65  OA
ATOM     58 OE2  GLU P   3     -11.826  25.709  10.108  1.00 52.44 LIG-0.65  OA
ENDBRANCH 55 56
ENDBRANCH 54 55
ENDBRANCH 53 54
BRANCH 53 59
ATOM     59  N   GLU P   3     -13.887  26.544  11.985  1.00 36.80 LIG-0.35  N 
ATOM     60 H    GLU P   3     -13.802  25.689  12.005  1.00 36.80 LIG 0.16  HD
ATOM     61  C   ALA P   2     -13.107  27.384  12.658  1.00 41.96 LIG 0.26  C 
ATOM     62 O    ALA P   2     -13.283  28.601  12.652  1.00 34.80 LIG-0.27  OA
BRANCH 61 63
ATOM     63  CA  ALA P   2     -11.960  26.752  13.462  1.00 47.40 LIG 0.40  C 
ATOM     64  CB  ALA P   2     -11.366  27.761  14.430  1.00 40.76 LIG 0.06  C 
ATOM     65  N   ALA P   2     -10.911  26.188  12.611  1.00 49.60 LIG 0.61  N 
ENDBRANCH 61 63
ENDBRANCH 53 59
ENDBRANCH 51 53
ENDBRANCH 41 49
ENDBRANCH 39 41
ENDBRANCH 1 37
TORSDOF 24
ENDMDL
MODEL 5
USER: ADFR SOLUTION from run 15
USER: SCORE 20.436054 LL:  -4.355 LR: -16.221 RR:   0.000 FEB:  -9.062
USER: RMSD 9.378682
USER: SEED 721965
USER: STATUS no improvement in best in 14 clusters for 5 generations
USER: GENES 26
USER: genes 0 Translation |==|  0.41312 0.44335 0.44400
USER: genes 1 Rotation |==|  0.62233 0.80102 0.86748 0.59688
USER: genes 2 Torsion [C]-CA--CB-[CG] |==|  0.54645
USER: genes 3 Torsion [CA]-CB--CG-[CD] |==|  0.68644
USER: genes 4 Torsion [CB]-CG--CD-[NE] |==|  0.70977
USER: genes 5 Torsion [CG]-CD--NE-[CZ] |==|  0.64805
USER: genes 6 Torsion [N]-CA--C-[N] |==|  0.35789
USER: genes 7 Torsion [C]-N--CA-[C] |==|  0.84166
USER: genes 8 Torsion [N]-CA--C-[N] |==|  0.35896
USER: genes 9 Torsion [C]-N--CA-[CB] |==|  0.27162
USER: genes 10 Torsion [N]-CA--C-[OXT] |==|  0.94682
USER: genes 11 Torsion [N]-CA--CB-[CG] |==|  0.79391
USER: genes 12 Torsion [CA]-CB--CG-[OD2] |==|  0.79340
USER: genes 13 Torsion [N]-CA--CB-[CG] |==|  0.13818
USER: genes 14 Torsion [CA]-CB--CG-[ND1] |==|  0.70751
USER: genes 15 Torsion [CB]-CA--N-[C] |==|  0.85090
USER: genes 16 Torsion [N]-C--CA-[N] |==|  0.92256
USER: genes 17 Torsion [C]-CA--CB-[CG] |==|  0.33059
USER: genes 18 Torsion [CA]-CB--CG-[CD2] |==|  0.76830
USER: genes 19 Torsion [C]-CA--N-[C] |==|  0.82232
USER: genes 20 Torsion [N]-C--CA-[N] |==|  0.95556
USER: genes 21 Torsion [C]-CA--CB-[CG] |==|  0.86764
USER: genes 22 Torsion [CA]-CB--CG-[CD] |==|  0.79674
USER: genes 23 Torsion [CB]-CG--CD-[OE1] |==|  0.27944
USER: genes 24 Torsion [C]-CA--N-[C] |==|  0.82827
USER: genes 25 Torsion [N]-C--CA-[N] |==|  0.57364
ROOT
ATOM      1  CA  ARG P   5     -24.645  25.158  11.990  1.00 25.78 LIG 0.18  C 
ENDROOT
BRANCH 1 2
ATOM      2  CB  ARG P   5     -24.826  24.264  10.751  1.00 22.44 LIG 0.04  C 
BRANCH 2 3
ATOM      3  CG  ARG P   5     -26.252  24.250  10.201  1.00 26.51 LIG 0.02  C 
BRANCH 3 4
ATOM      4  CD  ARG P   5     -26.922  22.881  10.369  1.00 28.41 LIG 0.14  C 
BRANCH 4 5
ATOM      5  NE  ARG P   5     -26.985  22.144   9.108  1.00 33.08 LIG-0.23  N 
ATOM      6  CZ  ARG P   5     -28.100  21.629   8.594  1.00 31.92 LIG 0.67  C 
ATOM      7  NH2 ARG P   5     -28.053  20.991   7.437  1.00 32.43 LIG-0.23  N 
ATOM      8  NH1 ARG P   5     -29.265  21.774   9.223  1.00 23.99 LIG-0.23  N 
ATOM      9 2HH2 ARG P   5     -28.771  20.657   7.101  1.00 32.43 LIG 0.17  HD
ATOM     10 1HH2 ARG P   5     -27.305  20.910   7.021  1.00 32.43 LIG 0.17  HD
ATOM     11 2HH1 ARG P   5     -29.981  21.439   8.885  1.00 23.99 LIG 0.17  HD
ATOM     12 1HH1 ARG P   5     -29.302  22.202   9.967  1.00 23.99 LIG 0.17  HD
ATOM     13 HE   ARG P   5     -26.254  22.036   8.670  1.00 33.08 LIG 0.18  HD
ENDBRANCH 4 5
ENDBRANCH 3 4
ENDBRANCH 2 3
ENDBRANCH 1 2
BRANCH 1 14
ATOM     14  C   ARG P   5     -23.164  25.448  12.226  1.00 22.77 LIG 0.24  C 
ATOM     15 O    ARG P   5     -22.537  26.188  11.461  1.00 23.41 LIG-0.27  OA
ATOM     16  N   HIS P   6     -22.602  24.851  13.273  1.00 20.21 LIG-0.35  N 
ATOM     17 H    HIS P   6     -23.019  24.318  13.803  1.00 20.21 LIG 0.16  HD
BRANCH 16 18
ATOM     18  CA  HIS P   6     -21.193  25.059  13.615  1.00 24.32 LIG 0.18  C 
BRANCH 18 19
ATOM     19  C   HIS P   6     -20.218  24.707  12.482  1.00 31.11 LIG 0.24  C 
ATOM     20  N   ASP P   7     -19.313  25.627  12.168  1.00 28.94 LIG-0.34  N 
ATOM     21 H    ASP P   7     -19.339  26.445  12.435  1.00 28.94 LIG 0.16  HD
ATOM     22 O    HIS P   6     -20.289  23.617  11.904  1.00 27.73 LIG-0.27  OA
BRANCH 20 23
ATOM     23  CA  ASP P   7     -18.172  25.298  11.315  1.00 30.45 LIG 0.20  C 
BRANCH 23 24
ATOM     24  C   ASP P   7     -16.871  25.932  11.843  1.00 38.41 LIG 0.20  C 
ATOM     25 OXT  ASP P   7     -16.888  26.879  12.630  1.00 43.84 LIG-0.65  OA
ATOM     26 O    ASP P   7     -15.752  25.535  11.497  1.00 36.31 LIG-0.65  OA
ENDBRANCH 23 24
BRANCH 23 27
ATOM     27  CB  ASP P   7     -18.451  25.712   9.869  1.00 42.34 LIG 0.15  C 
BRANCH 27 28
ATOM     28  CG  ASP P   7     -19.441  24.782   9.170  1.00 55.06 LIG 0.17  C 
ATOM     29 OD2  ASP P   7     -19.038  23.654   8.819  1.00 62.01 LIG-0.65  OA
ATOM     30 OD1  ASP P   7     -20.616  25.174   8.969  1.00 52.19 LIG-0.65  OA
ENDBRANCH 27 28
ENDBRANCH 23 27
ENDBRANCH 20 23
ENDBRANCH 18 19
BRANCH 18 31
ATOM     31  CB  HIS P   6     -20.832  24.270  14.861  1.00 25.23 LIG 0.10  C 
BRANCH 31 32
ATOM     32  CG  HIS P   6     -21.252  22.837  14.810  1.00 20.03 LIG 0.06  A 
ATOM     33 ND1  HIS P   6     -22.329  22.356  15.523  1.00 23.24 LIG-0.24  NA
ATOM     34  CE1 HIS P   6     -22.457  21.061  15.299  1.00 27.69 LIG 0.23  A 
ATOM     35 NE2  HIS P   6     -21.496  20.682  14.474  1.00 30.02 LIG-0.25  NA
ATOM     36  CD2 HIS P   6     -20.730  21.777  14.151  1.00 26.95 LIG 0.14  A 
ENDBRANCH 31 32
ENDBRANCH 18 31
ENDBRANCH 16 18
ENDBRANCH 1 14
BRANCH 1 37
ATOM     37  N   ARG P   5     -25.389  26.400  11.838  1.00 23.27 LIG-0.35  N 
ATOM     38 H    ARG P   5     -25.928  26.577  12.483  1.00 23.27 LIG 0.16  HD
ATOM     39  C   PHE P   4     -25.219  27.173  10.770  1.00 23.02 LIG 0.24  C 
ATOM     40 O    PHE P   4     -24.427  26.906   9.864  1.00 27.32 LIG-0.27  OA
BRANCH 39 41
ATOM     41  CA  PHE P   4     -26.045  28.434  10.721  1.00 26.78 LIG 0.18  C 
BRANCH 41 42
ATOM     42  CB  PHE P   4     -25.271  29.604  11.334  1.00 27.56 LIG 0.07  C 
BRANCH 42 43
ATOM     43  CG  PHE P   4     -25.006  30.754  10.379  1.00 23.05 LIG-0.06  A 
ATOM     44  CD2 PHE P   4     -23.919  30.713   9.506  1.00 26.81 LIG 0.01  A 
ATOM     45  CE2 PHE P   4     -23.639  31.779   8.635  1.00 20.39 LIG 0.00  A 
ATOM     46  CZ  PHE P   4     -24.459  32.911   8.646  1.00 15.29 LIG 0.00  A 
ATOM     47  CE1 PHE P   4     -25.551  32.961   9.523  1.00 22.67 LIG 0.00  A 
ATOM     48  CD1 PHE P   4     -25.812  31.892  10.387  1.00 22.68 LIG 0.01  A 
ENDBRANCH 42 43
ENDBRANCH 41 42
BRANCH 41 49
ATOM     49  N   PHE P   4     -27.260  28.176  11.482  1.00 24.27 LIG-0.35  N 
ATOM     50 H    PHE P   4     -27.347  28.663  12.185  1.00 24.27 LIG 0.16  HD
ATOM     51  C   GLU P   3     -28.144  27.259  11.100  1.00 33.66 LIG 0.24  C 
ATOM     52 O    GLU P   3     -28.065  26.636  10.042  1.00 34.99 LIG-0.27  OA
BRANCH 51 53
ATOM     53  CA  GLU P   3     -29.301  27.021  12.052  1.00 34.60 LIG 0.18  C 
BRANCH 53 54
ATOM     54  CB  GLU P   3     -30.575  27.623  11.462  1.00 27.84 LIG 0.04  C 
BRANCH 54 55
ATOM     55  CG  GLU P   3     -30.404  29.044  10.942  1.00 43.05 LIG 0.12  C 
BRANCH 55 56
ATOM     56  CD  GLU P   3     -30.280  30.054  12.063  1.00 49.21 LIG 0.17  C 
ATOM     57 OE1  GLU P   3     -29.140  30.466  12.363  1.00 52.28 LIG-0.65  OA
ATOM     58 OE2  GLU P   3     -31.321  30.435  12.640  1.00 52.44 LIG-0.65  OA
ENDBRANCH 55 56
ENDBRANCH 54 55
ENDBRANCH 53 54
BRANCH 53 59
ATOM     59  N   GLU P   3     -29.030  27.573  13.374  1.00 36.80 LIG-0.35  N 
ATOM     60 H    GLU P   3     -29.576  28.190  13.620  1.00 36.80 LIG 0.16  HD
ATOM     61  C   ALA P   2     -28.016  27.140  14.117  1.00 41.96 LIG 0.26  C 
ATOM     62 O    ALA P   2     -27.219  26.292  13.719  1.00 34.80 LIG-0.27  OA
BRANCH 61 63
ATOM     63  CA  ALA P   2     -27.882  27.763  15.515  1.00 47.40 LIG 0.40  C 
ATOM     64  CB  ALA P   2     -28.429  29.180  15.524  1.00 40.76 LIG 0.06  C 
ATOM     65  N   ALA P   2     -26.507  27.747  16.016  1.00 49.60 LIG 0.61  N 
ENDBRANCH 61 63
ENDBRANCH 53 59
ENDBRANCH 51 53
ENDBRANCH 41 49
ENDBRANCH 39 41
ENDBRANCH 1 37
TORSDOF 24
ENDMDL
MODEL 6
USER: ADFR SOLUTION from run 70
USER: SCORE 17.614283 LL:  -3.527 LR: -16.132 RR:   0.000 FEB:  -8.972
USER: RMSD 9.630636
USER: SEED 69
USER: STATUS no improvement in best in 6 clusters for 5 generations
USER: GENES 26
USER: genes 0 Translation |==|  0.54194 0.47839 0.50730
USER: genes 1 Rotation |==|  0.55139 0.99230 0.57014 0.50895
USER: genes 2 Torsion [C]-CA--CB-[CG] |==|  0.38425
USER: genes 3 Torsion [CA]-CB--CG-[CD] |==|  0.19688
USER: genes 4 Torsion [CB]-CG--CD-[NE] |==|  0.57695
USER: genes 5 Torsion [CG]-CD--NE-[CZ] |==|  0.46132
USER: genes 6 Torsion [N]-CA--C-[N] |==|  0.36907
USER: genes 7 Torsion [C]-N--CA-[C] |==|  0.83391
USER: genes 8 Torsion [N]-CA--C-[N] |==|  0.34034
USER: genes 9 Torsion [C]-N--CA-[CB] |==|  0.34091
USER: genes 10 Torsion [N]-CA--C-[OXT] |==|  0.10007
USER: genes 11 Torsion [N]-CA--CB-[CG] |==|  0.92194
USER: genes 12 Torsion [CA]-CB--CG-[OD2] |==|  0.34127
USER: genes 13 Torsion [N]-CA--CB-[CG] |==|  0.81957
USER: genes 14 Torsion [CA]-CB--CG-[ND1] |==|  0.40560
USER: genes 15 Torsion [CB]-CA--N-[C] |==|  0.27778
USER: genes 16 Torsion [N]-C--CA-[N] |==|  0.03830
USER: genes 17 Torsion [C]-CA--CB-[CG] |==|  0.27412
USER: genes 18 Torsion [CA]-CB--CG-[CD2] |==|  0.61237
USER: genes 19 Torsion [C]-CA--N-[C] |==|  0.56252
USER: genes 20 Torsion [N]-C--CA-[N] |==|  0.37511
USER: genes 21 Torsion [C]-CA--CB-[CG] |==|  0.03599
USER: genes 22 Torsion [CA]-CB--CG-[CD] |==|  0.24736
USER: genes 23 Torsion [CB]-CG--CD-[OE1] |==|  0.56482
USER: genes 24 Torsion [C]-CA--N-[C] |==|  0.74771
USER: genes 25 Torsion [N]-C--CA-[N] |==|  0.45008
ROOT
ATOM      1  CA  ARG P   5     -21.360  25.867  13.129  1.00 25.78 LIG 0.18  C 
ENDROOT
BRANCH 1 2
ATOM      2  CB  ARG P   5     -21.112  24.509  13.808  1.00 22.44 LIG 0.04  C 
BRANCH 2 3
ATOM      3  CG  ARG P   5     -21.350  24.520  15.318  1.00 26.51 LIG 0.02  C 
BRANCH 3 4
ATOM      4  CD  ARG P   5     -22.838  24.639  15.667  1.00 28.41 LIG 0.14  C 
BRANCH 4 5
ATOM      5  NE  ARG P   5     -23.046  25.280  16.963  1.00 33.08 LIG-0.23  N 
ATOM      6  CZ  ARG P   5     -24.217  25.748  17.391  1.00 31.92 LIG 0.67  C 
ATOM      7  NH2 ARG P   5     -24.303  26.300  18.590  1.00 32.43 LIG-0.23  N 
ATOM      8  NH1 ARG P   5     -25.307  25.640  16.633  1.00 23.99 LIG-0.23  N 
ATOM      9 2HH2 ARG P   5     -25.057  26.602  18.871  1.00 32.43 LIG 0.17  HD
ATOM     10 1HH2 ARG P   5     -23.604  26.355  19.088  1.00 32.43 LIG 0.17  HD
ATOM     11 2HH1 ARG P   5     -26.060  25.944  16.917  1.00 23.99 LIG 0.17  HD
ATOM     12 1HH1 ARG P   5     -25.258  25.267  15.861  1.00 23.99 LIG 0.17  HD
ATOM     13 HE   ARG P   5     -22.367  25.362  17.484  1.00 33.08 LIG 0.18  HD
ENDBRANCH 4 5
ENDBRANCH 3 4
ENDBRANCH 2 3
ENDBRANCH 1 2
BRANCH 1 14
ATOM     14  C   ARG P   5     -20.277  26.150  12.089  1.00 22.77 LIG 0.24  C 
ATOM     15 O    ARG P   5     -20.274  25.556  11.006  1.00 23.41 LIG-0.27  OA
ATOM     16  N   HIS P   6     -19.348  27.040  12.427  1.00 20.21 LIG-0.35  N 
ATOM     17 H    HIS P   6     -19.325  27.445  13.184  1.00 20.21 LIG 0.16  HD
BRANCH 16 18
ATOM     18  CA  HIS P   6     -18.265  27.407  11.513  1.00 24.32 LIG 0.18  C 
BRANCH 18 19
ATOM     19  C   HIS P   6     -17.374  26.229  11.096  1.00 31.11 LIG 0.24  C 
ATOM     20  N   ASP P   7     -17.276  25.988   9.793  1.00 28.94 LIG-0.34  N 
ATOM     21 H    ASP P   7     -17.789  26.333   9.195  1.00 28.94 LIG 0.16  HD
ATOM     22 O    HIS P   6     -16.786  25.550  11.945  1.00 27.73 LIG-0.27  OA
BRANCH 20 23
ATOM     23  CA  ASP P   7     -16.248  25.087   9.271  1.00 30.45 LIG 0.20  C 
BRANCH 23 24
ATOM     24  C   ASP P   7     -15.207  25.848   8.427  1.00 38.41 LIG 0.20  C 
ATOM     25 OXT  ASP P   7     -14.846  26.987   8.721  1.00 43.84 LIG-0.65  OA
ATOM     26 O    ASP P   7     -14.696  25.362   7.411  1.00 36.31 LIG-0.65  OA
ENDBRANCH 23 24
BRANCH 23 27
ATOM     27  CB  ASP P   7     -16.892  23.950   8.476  1.00 42.34 LIG 0.15  C 
BRANCH 27 28
ATOM     28  CG  ASP P   7     -18.305  23.621   8.957  1.00 55.06 LIG 0.17  C 
ATOM     29 OD2  ASP P   7     -19.235  23.682   8.127  1.00 62.01 LIG-0.65  OA
ATOM     30 OD1  ASP P   7     -18.488  23.305  10.157  1.00 52.19 LIG-0.65  OA
ENDBRANCH 27 28
ENDBRANCH 23 27
ENDBRANCH 20 23
ENDBRANCH 18 19
BRANCH 18 31
ATOM     31  CB  HIS P   6     -17.408  28.502  12.125  1.00 25.23 LIG 0.10  C 
BRANCH 31 32
ATOM     32  CG  HIS P   6     -18.132  29.794  12.322  1.00 20.03 LIG 0.06  A 
ATOM     33 ND1  HIS P   6     -17.871  30.634  13.383  1.00 23.24 LIG-0.24  NA
ATOM     34  CE1 HIS P   6     -18.665  31.687  13.311  1.00 27.69 LIG 0.23  A 
ATOM     35 NE2  HIS P   6     -19.439  31.555  12.247  1.00 30.02 LIG-0.25  NA
ATOM     36  CD2 HIS P   6     -19.123  30.379  11.610  1.00 26.95 LIG 0.14  A 
ENDBRANCH 31 32
ENDBRANCH 18 31
ENDBRANCH 16 18
ENDBRANCH 1 14
BRANCH 1 37
ATOM     37  N   ARG P   5     -22.678  25.897  12.511  1.00 23.27 LIG-0.35  N 
ATOM     38 H    ARG P   5     -22.726  25.506  11.747  1.00 23.27 LIG 0.16  HD
ATOM     39  C   PHE P   4     -23.702  26.492  13.112  1.00 23.02 LIG 0.24  C 
ATOM     40 O    PHE P   4     -23.615  27.034  14.217  1.00 27.32 LIG-0.27  OA
BRANCH 39 41
ATOM     41  CA  PHE P   4     -25.019  26.461  12.376  1.00 26.78 LIG 0.18  C 
BRANCH 41 42
ATOM     42  CB  PHE P   4     -26.154  26.068  13.326  1.00 27.56 LIG 0.07  C 
BRANCH 42 43
ATOM     43  CG  PHE P   4     -26.959  27.237  13.863  1.00 23.05 LIG-0.06  A 
ATOM     44  CD2 PHE P   4     -27.370  27.260  15.195  1.00 26.81 LIG 0.01  A 
ATOM     45  CE2 PHE P   4     -28.141  28.318  15.706  1.00 20.39 LIG 0.00  A 
ATOM     46  CZ  PHE P   4     -28.512  29.369  14.862  1.00 15.29 LIG 0.00  A 
ATOM     47  CE1 PHE P   4     -28.106  29.351  13.522  1.00 22.67 LIG 0.00  A 
ATOM     48  CD1 PHE P   4     -27.343  28.287  13.029  1.00 22.68 LIG 0.01  A 
ENDBRANCH 42 43
ENDBRANCH 41 42
BRANCH 41 49
ATOM     49  N   PHE P   4     -24.886  25.477  11.311  1.00 24.27 LIG-0.35  N 
ATOM     50 H    PHE P   4     -24.271  24.890  11.445  1.00 24.27 LIG 0.16  HD
ATOM     51  C   GLU P   3     -25.661  25.504  10.230  1.00 33.66 LIG 0.24  C 
ATOM     52 O    GLU P   3     -26.604  26.283  10.088  1.00 34.99 LIG-0.27  OA
BRANCH 51 53
ATOM     53  CA  GLU P   3     -25.330  24.487   9.154  1.00 34.60 LIG 0.18  C 
BRANCH 53 54
ATOM     54  CB  GLU P   3     -24.567  25.174   8.024  1.00 27.84 LIG 0.04  C 
BRANCH 54 55
ATOM     55  CG  GLU P   3     -24.064  26.567   8.376  1.00 43.05 LIG 0.12  C 
BRANCH 55 56
ATOM     56  CD  GLU P   3     -22.686  26.538   9.002  1.00 49.21 LIG 0.17  C 
ATOM     57 OE1  GLU P   3     -22.345  27.500   9.724  1.00 52.28 LIG-0.65  OA
ATOM     58 OE2  GLU P   3     -21.948  25.555   8.775  1.00 52.44 LIG-0.65  OA
ENDBRANCH 55 56
ENDBRANCH 54 55
ENDBRANCH 53 54
BRANCH 53 59
ATOM     59  N   GLU P   3     -26.530  23.832   8.649  1.00 36.80 LIG-0.35  N 
ATOM     60 H    GLU P   3     -26.901  24.234   7.986  1.00 36.80 LIG 0.16  HD
ATOM     61  C   ALA P   2     -26.991  22.708   9.187  1.00 41.96 LIG 0.26  C 
ATOM     62 O    ALA P   2     -26.470  22.181  10.168  1.00 34.80 LIG-0.27  OA
BRANCH 61 63
ATOM     63  CA  ALA P   2     -28.228  22.090   8.518  1.00 47.40 LIG 0.40  C 
ATOM     64  CB  ALA P   2     -29.474  22.897   8.846  1.00 40.76 LIG 0.06  C 
ATOM     65  N   ALA P   2     -28.427  20.684   8.873  1.00 49.60 LIG 0.61  N 
ENDBRANCH 61 63
ENDBRANCH 53 59
ENDBRANCH 51 53
ENDBRANCH 41 49
ENDBRANCH 39 41
ENDBRANCH 1 37
TORSDOF 24
ENDMDL
MODEL 7
USER: ADFR SOLUTION from run 56
USER: SCORE 18.072395 LL:  -4.199 LR: -16.096 RR:   0.000 FEB:  -8.937
USER: RMSD 10.759124
USER: SEED 55
USER: STATUS searching
USER: GENES 26
USER: genes 0 Translation |==|  0.54936 0.40600 0.44663
USER: genes 1 Rotation |==|  0.47867 0.00355 0.53569 0.54253
USER: genes 2 Torsion [C]-CA--CB-[CG] |==|  0.48840
USER: genes 3 Torsion [CA]-CB--CG-[CD] |==|  0.95936
USER: genes 4 Torsion [CB]-CG--CD-[NE] |==|  0.56059
USER: genes 5 Torsion [CG]-CD--NE-[CZ] |==|  0.64252
USER: genes 6 Torsion [N]-CA--C-[N] |==|  0.60738
USER: genes 7 Torsion [C]-N--CA-[C] |==|  0.64092
USER: genes 8 Torsion [N]-CA--C-[N] |==|  0.43994
USER: genes 9 Torsion [C]-N--CA-[CB] |==|  0.19252
USER: genes 10 Torsion [N]-CA--C-[OXT] |==|  0.11332
USER: genes 11 Torsion [N]-CA--CB-[CG] |==|  0.56856
USER: genes 12 Torsion [CA]-CB--CG-[OD2] |==|  0.92287
USER: genes 13 Torsion [N]-CA--CB-[CG] |==|  0.95931
USER: genes 14 Torsion [CA]-CB--CG-[ND1] |==|  0.29286
USER: genes 15 Torsion [CB]-CA--N-[C] |==|  0.43073
USER: genes 16 Torsion [N]-C--CA-[N] |==|  0.42338
USER: genes 17 Torsion [C]-CA--CB-[CG] |==|  0.47768
USER: genes 18 Torsion [CA]-CB--CG-[CD2] |==|  0.45602
USER: genes 19 Torsion [C]-CA--N-[C] |==|  0.79302
USER: genes 20 Torsion [N]-C--CA-[N] |==|  0.25575
USER: genes 21 Torsion [C]-CA--CB-[CG] |==|  0.78580
USER: genes 22 Torsion [CA]-CB--CG-[CD] |==|  0.76458
USER: genes 23 Torsion [CB]-CG--CD-[OE1] |==|  0.87121
USER: genes 24 Torsion [C]-CA--N-[C] |==|  0.79347
USER: genes 25 Torsion [N]-C--CA-[N] |==|  0.25383
ROOT
ATOM      1  CA  ARG P   5     -21.171  24.402  12.037  1.00 25.78 LIG 0.18  C 
ENDROOT
BRANCH 1 2
ATOM      2  CB  ARG P   5     -20.551  23.463  13.087  1.00 22.44 LIG 0.04  C 
BRANCH 2 3
ATOM      3  CG  ARG P   5     -21.220  23.541  14.459  1.00 26.51 LIG 0.02  C 
BRANCH 3 4
ATOM      4  CD  ARG P   5     -22.116  24.778  14.594  1.00 28.41 LIG 0.14  C 
BRANCH 4 5
ATOM      5  NE  ARG P   5     -22.341  25.140  15.992  1.00 33.08 LIG-0.23  N 
ATOM      6  CZ  ARG P   5     -23.540  25.351  16.530  1.00 31.92 LIG 0.67  C 
ATOM      7  NH2 ARG P   5     -23.636  25.662  17.812  1.00 32.43 LIG-0.23  N 
ATOM      8  NH1 ARG P   5     -24.643  25.226  15.796  1.00 23.99 LIG-0.23  N 
ATOM      9 2HH2 ARG P   5     -24.409  25.798  18.165  1.00 32.43 LIG 0.17  HD
ATOM     10 1HH2 ARG P   5     -22.926  25.727  18.293  1.00 32.43 LIG 0.17  HD
ATOM     11 2HH1 ARG P   5     -25.414  25.364  16.150  1.00 23.99 LIG 0.17  HD
ATOM     12 1HH1 ARG P   5     -24.585  25.009  14.966  1.00 23.99 LIG 0.17  HD
ATOM     13 HE   ARG P   5     -21.652  25.224  16.500  1.00 33.08 LIG 0.18  HD
ENDBRANCH 4 5
ENDBRANCH 3 4
ENDBRANCH 2 3
ENDBRANCH 1 2
BRANCH 1 14
ATOM     14  C   ARG P   5     -20.381  24.337  10.731  1.00 22.77 LIG 0.24  C 
ATOM     15 O    ARG P   5     -20.889  24.711   9.668  1.00 23.41 LIG-0.27  OA
ATOM     16  N   HIS P   6     -19.148  23.844  10.807  1.00 20.21 LIG-0.35  N 
ATOM     17 H    HIS P   6     -18.789  23.561  11.535  1.00 20.21 LIG 0.16  HD
BRANCH 16 18
ATOM     18  CA  HIS P   6     -18.285  23.742   9.629  1.00 24.32 LIG 0.18  C 
BRANCH 18 19
ATOM     19  C   HIS P   6     -17.659  22.355   9.432  1.00 31.11 LIG 0.24  C 
ATOM     20  N   ASP P   7     -17.248  22.055   8.205  1.00 28.94 LIG-0.34  N 
ATOM     21 H    ASP P   7     -17.450  22.506   7.501  1.00 28.94 LIG 0.16  HD
ATOM     22 O    HIS P   6     -17.551  21.570  10.381  1.00 27.73 LIG-0.27  OA
BRANCH 20 23
ATOM     23  CA  ASP P   7     -16.391  20.894   7.962  1.00 30.45 LIG 0.20  C 
BRANCH 23 24
ATOM     24  C   ASP P   7     -15.771  20.936   6.552  1.00 38.41 LIG 0.20  C 
ATOM     25 OXT  ASP P   7     -15.347  21.984   6.065  1.00 43.84 LIG-0.65  OA
ATOM     26 O    ASP P   7     -15.680  19.930   5.839  1.00 36.31 LIG-0.65  OA
ENDBRANCH 23 24
BRANCH 23 27
ATOM     27  CB  ASP P   7     -17.173  19.600   8.192  1.00 42.34 LIG 0.15  C 
BRANCH 27 28
ATOM     28  CG  ASP P   7     -16.268  18.421   8.549  1.00 55.06 LIG 0.17  C 
ATOM     29 OD2  ASP P   7     -15.094  18.433   8.123  1.00 62.01 LIG-0.65  OA
ATOM     30 OD1  ASP P   7     -16.725  17.485   9.248  1.00 52.19 LIG-0.65  OA
ENDBRANCH 27 28
ENDBRANCH 23 27
ENDBRANCH 20 23
ENDBRANCH 18 19
BRANCH 18 31
ATOM     31  CB  HIS P   6     -17.189  24.792   9.687  1.00 25.23 LIG 0.10  C 
BRANCH 31 32
ATOM     32  CG  HIS P   6     -17.437  25.866  10.695  1.00 20.03 LIG 0.06  A 
ATOM     33 ND1  HIS P   6     -16.757  25.930  11.892  1.00 23.24 LIG-0.24  NA
ATOM     34  CE1 HIS P   6     -17.188  26.968  12.586  1.00 27.69 LIG 0.23  A 
ATOM     35 NE2  HIS P   6     -18.133  27.574  11.885  1.00 30.02 LIG-0.25  NA
ATOM     36  CD2 HIS P   6     -18.305  26.905  10.697  1.00 26.95 LIG 0.14  A 
ENDBRANCH 31 32
ENDBRANCH 18 31
ENDBRANCH 16 18
ENDBRANCH 1 14
BRANCH 1 37
ATOM     37  N   ARG P   5     -22.567  24.058  11.805  1.00 23.27 LIG-0.35  N 
ATOM     38 H    ARG P   5     -22.770  23.242  11.982  1.00 23.27 LIG 0.16  HD
ATOM     39  C   PHE P   4     -23.428  24.963  11.354  1.00 23.02 LIG 0.24  C 
ATOM     40 O    PHE P   4     -23.117  26.134  11.122  1.00 27.32 LIG-0.27  OA
BRANCH 39 41
ATOM     41  CA  PHE P   4     -24.847  24.492  11.150  1.00 26.78 LIG 0.18  C 
BRANCH 41 42
ATOM     42  CB  PHE P   4     -25.016  23.897   9.749  1.00 27.56 LIG 0.07  C 
BRANCH 42 43
ATOM     43  CG  PHE P   4     -26.353  23.220   9.509  1.00 23.05 LIG-0.06  A 
ATOM     44  CD2 PHE P   4     -26.777  22.930   8.213  1.00 26.81 LIG 0.01  A 
ATOM     45  CE2 PHE P   4     -28.023  22.331   7.966  1.00 20.39 LIG 0.00  A 
ATOM     46  CZ  PHE P   4     -28.864  22.024   9.040  1.00 15.29 LIG 0.00  A 
ATOM     47  CE1 PHE P   4     -28.447  22.316  10.346  1.00 22.67 LIG 0.00  A 
ATOM     48  CD1 PHE P   4     -27.204  22.918  10.572  1.00 22.68 LIG 0.01  A 
ENDBRANCH 42 43
ENDBRANCH 41 42
BRANCH 41 49
ATOM     49  N   PHE P   4     -25.707  25.655  11.314  1.00 24.27 LIG-0.35  N 
ATOM     50 H    PHE P   4     -26.027  25.966  10.578  1.00 24.27 LIG 0.16  HD
ATOM     51  C   GLU P   3     -25.963  26.175  12.511  1.00 33.66 LIG 0.24  C 
ATOM     52 O    GLU P   3     -25.586  25.668  13.568  1.00 34.99 LIG-0.27  OA
BRANCH 51 53
ATOM     53  CA  GLU P   3     -26.782  27.452  12.515  1.00 34.60 LIG 0.18  C 
BRANCH 53 54
ATOM     54  CB  GLU P   3     -26.302  28.358  13.648  1.00 27.84 LIG 0.04  C 
BRANCH 54 55
ATOM     55  CG  GLU P   3     -26.791  27.935  15.026  1.00 43.05 LIG 0.12  C 
BRANCH 55 56
ATOM     56  CD  GLU P   3     -28.171  28.473  15.335  1.00 49.21 LIG 0.17  C 
ATOM     57 OE1  GLU P   3     -28.403  29.677  15.093  1.00 52.28 LIG-0.65  OA
ATOM     58 OE2  GLU P   3     -29.022  27.695  15.817  1.00 52.44 LIG-0.65  OA
ENDBRANCH 55 56
ENDBRANCH 54 55
ENDBRANCH 53 54
BRANCH 53 59
ATOM     59  N   GLU P   3     -28.207  27.174  12.640  1.00 36.80 LIG-0.35  N 
ATOM     60 H    GLU P   3     -28.536  27.349  13.415  1.00 36.80 LIG 0.16  HD
ATOM     61  C   ALA P   2     -28.916  26.691  11.625  1.00 41.96 LIG 0.26  C 
ATOM     62 O    ALA P   2     -28.409  26.402  10.542  1.00 34.80 LIG-0.27  OA
BRANCH 61 63
ATOM     63  CA  ALA P   2     -30.420  26.503  11.873  1.00 47.40 LIG 0.40  C 
ATOM     64  CB  ALA P   2     -30.932  25.270  11.147  1.00 40.76 LIG 0.06  C 
ATOM     65  N   ALA P   2     -31.212  27.676  11.498  1.00 49.60 LIG 0.61  N 
ENDBRANCH 61 63
ENDBRANCH 53 59
ENDBRANCH 51 53
ENDBRANCH 41 49
ENDBRANCH 39 41
ENDBRANCH 1 37
TORSDOF 24
ENDMDL
MODEL 8
USER: ADFR SOLUTION from run 105
USER: SCORE 18.449602 LL:  -4.451 LR: -16.041 RR:   0.000 FEB:  -8.882
USER: RMSD 8.726338
USER: SEED 104
USER: STATUS no improvement in best in 4 clusters for 5 generations
USER: GENES 26
USER: genes 0 Translation |==|  0.40188 0.42760 0.43980
USER: genes 1 Rotation |==|  0.64589 0.76980 0.87995 0.60752
USER: genes 2 Torsion [C]-CA--CB-[CG] |==|  0.51165
USER: genes 3 Torsion [CA]-CB--CG-[CD] |==|  0.70795
USER: genes 4 Torsion [CB]-CG--CD-[NE] |==|  0.74242
USER: genes 5 Torsion [CG]-CD--NE-[CZ] |==|  0.68344
USER: genes 6 Torsion [N]-CA--C-[N] |==|  0.11583
USER: genes 7 Torsion [C]-N--CA-[C] |==|  0.19814
USER: genes 8 Torsion [N]-CA--C-[N] |==|  0.41026
USER: genes 9 Torsion [C]-N--CA-[CB] |==|  0.40407
USER: genes 10 Torsion [N]-CA--C-[OXT] |==|  0.84127
USER: genes 11 Torsion [N]-CA--CB-[CG] |==|  0.77595
USER: genes 12 Torsion [CA]-CB--CG-[OD2] |==|  0.42182
USER: genes 13 Torsion [N]-CA--CB-[CG] |==|  0.85725
USER: genes 14 Torsion [CA]-CB--CG-[ND1] |==|  0.43166
USER: genes 15 Torsion [CB]-CA--N-[C] |==|  0.81110
USER: genes 16 Torsion [N]-C--CA-[N] |==|  0.07394
USER: genes 17 Torsion [C]-CA--CB-[CG] |==|  0.44212
USER: genes 18 Torsion [CA]-CB--CG-[CD2] |==|  0.52827
USER: genes 19 Torsion [C]-CA--N-[C] |==|  0.71778
USER: genes 20 Torsion [N]-C--CA-[N] |==|  0.95729
USER: genes 21 Torsion [C]-CA--CB-[CG] |==|  0.99581
USER: genes 22 Torsion [CA]-CB--CG-[CD] |==|  0.39853
USER: genes 23 Torsion [CB]-CG--CD-[OE1] |==|  0.29409
USER: genes 24 Torsion [C]-CA--N-[C] |==|  0.80172
USER: genes 25 Torsion [N]-C--CA-[N] |==|  0.38510
ROOT
ATOM      1  CA  ARG P   5     -24.932  24.839  11.914  1.00 25.78 LIG 0.18  C 
ENDROOT
BRANCH 1 2
ATOM      2  CB  ARG P   5     -25.209  24.138  10.573  1.00 22.44 LIG 0.04  C 
BRANCH 2 3
ATOM      3  CG  ARG P   5     -26.689  24.090  10.195  1.00 26.51 LIG 0.02  C 
BRANCH 3 4
ATOM      4  CD  ARG P   5     -27.290  22.693  10.392  1.00 28.41 LIG 0.14  C 
BRANCH 4 5
ATOM      5  NE  ARG P   5     -27.226  21.893   9.171  1.00 33.08 LIG-0.23  N 
ATOM      6  CZ  ARG P   5     -28.290  21.490   8.480  1.00 31.92 LIG 0.67  C 
ATOM      7  NH2 ARG P   5     -28.124  20.779   7.377  1.00 32.43 LIG-0.23  N 
ATOM      8  NH1 ARG P   5     -29.518  21.818   8.876  1.00 23.99 LIG-0.23  N 
ATOM      9 2HH2 ARG P   5     -28.808  20.517   6.927  1.00 32.43 LIG 0.17  HD
ATOM     10 1HH2 ARG P   5     -27.331  20.580   7.110  1.00 32.43 LIG 0.17  HD
ATOM     11 2HH1 ARG P   5     -30.201  21.554   8.424  1.00 23.99 LIG 0.17  HD
ATOM     12 1HH1 ARG P   5     -29.629  22.294   9.583  1.00 23.99 LIG 0.17  HD
ATOM     13 HE   ARG P   5     -26.449  21.667   8.880  1.00 33.08 LIG 0.18  HD
ENDBRANCH 4 5
ENDBRANCH 3 4
ENDBRANCH 2 3
ENDBRANCH 1 2
BRANCH 1 14
ATOM     14  C   ARG P   5     -23.427  24.935  12.165  1.00 22.77 LIG 0.24  C 
ATOM     15 O    ARG P   5     -22.637  24.233  11.525  1.00 23.41 LIG-0.27  OA
ATOM     16  N   HIS P   6     -23.036  25.787  13.108  1.00 20.21 LIG-0.35  N 
ATOM     17 H    HIS P   6     -23.576  26.266  13.575  1.00 20.21 LIG 0.16  HD
BRANCH 16 18
ATOM     18  CA  HIS P   6     -21.622  25.980  13.433  1.00 24.32 LIG 0.18  C 
BRANCH 18 19
ATOM     19  C   HIS P   6     -20.830  26.729  12.352  1.00 31.11 LIG 0.24  C 
ATOM     20  N   ASP P   7     -19.832  27.500  12.771  1.00 28.94 LIG-0.34  N 
ATOM     21 H    ASP P   7     -19.706  27.728  13.590  1.00 28.94 LIG 0.16  HD
ATOM     22 O    HIS P   6     -21.123  26.609  11.157  1.00 27.73 LIG-0.27  OA
BRANCH 20 23
ATOM     23  CA  ASP P   7     -18.845  28.028  11.829  1.00 30.45 LIG 0.20  C 
BRANCH 23 24
ATOM     24  C   ASP P   7     -17.650  27.068  11.668  1.00 38.41 LIG 0.20  C 
ATOM     25 OXT  ASP P   7     -16.973  26.713  12.633  1.00 43.84 LIG-0.65  OA
ATOM     26 O    ASP P   7     -17.304  26.622  10.568  1.00 36.31 LIG-0.65  OA
ENDBRANCH 23 24
BRANCH 23 27
ATOM     27  CB  ASP P   7     -18.390  29.422  12.262  1.00 42.34 LIG 0.15  C 
BRANCH 27 28
ATOM     28  CG  ASP P   7     -19.377  30.516  11.857  1.00 55.06 LIG 0.17  C 
ATOM     29 OD2  ASP P   7     -19.430  31.547  12.559  1.00 62.01 LIG-0.65  OA
ATOM     30 OD1  ASP P   7     -20.098  30.349  10.844  1.00 52.19 LIG-0.65  OA
ENDBRANCH 27 28
ENDBRANCH 23 27
ENDBRANCH 20 23
ENDBRANCH 18 19
BRANCH 18 31
ATOM     31  CB  HIS P   6     -20.959  24.643  13.715  1.00 25.23 LIG 0.10  C 
BRANCH 31 32
ATOM     32  CG  HIS P   6     -21.688  23.809  14.717  1.00 20.03 LIG 0.06  A 
ATOM     33 ND1  HIS P   6     -21.576  22.437  14.760  1.00 23.24 LIG-0.24  NA
ATOM     34  CE1 HIS P   6     -22.337  21.966  15.731  1.00 27.69 LIG 0.23  A 
ATOM     35 NE2  HIS P   6     -22.947  22.984  16.314  1.00 30.02 LIG-0.25  NA
ATOM     36  CD2 HIS P   6     -22.555  24.149  15.699  1.00 26.95 LIG 0.14  A 
ENDBRANCH 31 32
ENDBRANCH 18 31
ENDBRANCH 16 18
ENDBRANCH 1 14
BRANCH 1 37
ATOM     37  N   ARG P   5     -25.536  26.163  11.934  1.00 23.27 LIG-0.35  N 
ATOM     38 H    ARG P   5     -26.192  26.251  12.483  1.00 23.27 LIG 0.16  HD
ATOM     39  C   PHE P   4     -25.081  27.135  11.150  1.00 23.02 LIG 0.24  C 
ATOM     40 O    PHE P   4     -24.127  26.990  10.382  1.00 27.32 LIG-0.27  OA
BRANCH 39 41
ATOM     41  CA  PHE P   4     -25.786  28.464  11.256  1.00 26.78 LIG 0.18  C 
BRANCH 41 42
ATOM     42  CB  PHE P   4     -24.799  29.612  11.027  1.00 27.56 LIG 0.07  C 
BRANCH 42 43
ATOM     43  CG  PHE P   4     -25.443  30.925  10.620  1.00 23.05 LIG-0.06  A 
ATOM     44  CD2 PHE P   4     -24.659  31.990  10.177  1.00 26.81 LIG 0.01  A 
ATOM     45  CE2 PHE P   4     -25.232  33.223   9.823  1.00 20.39 LIG 0.00  A 
ATOM     46  CZ  PHE P   4     -26.615  33.394   9.924  1.00 15.29 LIG 0.00  A 
ATOM     47  CE1 PHE P   4     -27.409  32.329  10.372  1.00 22.67 LIG 0.00  A 
ATOM     48  CD1 PHE P   4     -26.821  31.110  10.725  1.00 22.68 LIG 0.01  A 
ENDBRANCH 42 43
ENDBRANCH 41 42
BRANCH 41 49
ATOM     49  N   PHE P   4     -26.350  28.540  12.596  1.00 24.27 LIG-0.35  N 
ATOM     50 H    PHE P   4     -25.781  28.739  13.210  1.00 24.27 LIG 0.16  HD
ATOM     51  C   GLU P   3     -27.640  28.315  12.827  1.00 33.66 LIG 0.24  C 
ATOM     52 O    GLU P   3     -28.470  28.130  11.936  1.00 34.99 LIG-0.27  OA
BRANCH 51 53
ATOM     53  CA  GLU P   3     -28.060  28.316  14.285  1.00 34.60 LIG 0.18  C 
BRANCH 53 54
ATOM     54  CB  GLU P   3     -28.861  29.583  14.581  1.00 27.84 LIG 0.04  C 
BRANCH 54 55
ATOM     55  CG  GLU P   3     -29.003  30.517  13.388  1.00 43.05 LIG 0.12  C 
BRANCH 55 56
ATOM     56  CD  GLU P   3     -30.356  31.192  13.344  1.00 49.21 LIG 0.17  C 
ATOM     57 OE1  GLU P   3     -30.424  32.400  13.657  1.00 52.28 LIG-0.65  OA
ATOM     58 OE2  GLU P   3     -31.349  30.517  12.997  1.00 52.44 LIG-0.65  OA
ENDBRANCH 55 56
ENDBRANCH 54 55
ENDBRANCH 53 54
BRANCH 53 59
ATOM     59  N   GLU P   3     -26.911  28.209  15.174  1.00 36.80 LIG-0.35  N 
ATOM     60 H    GLU P   3     -26.726  28.930  15.604  1.00 36.80 LIG 0.16  HD
ATOM     61  C   ALA P   2     -26.222  27.078  15.291  1.00 41.96 LIG 0.26  C 
ATOM     62 O    ALA P   2     -26.476  26.076  14.625  1.00 34.80 LIG-0.27  OA
BRANCH 61 63
ATOM     63  CA  ALA P   2     -25.072  27.083  16.310  1.00 47.40 LIG 0.40  C 
ATOM     64  CB  ALA P   2     -23.746  27.352  15.618  1.00 40.76 LIG 0.06  C 
ATOM     65  N   ALA P   2     -24.995  25.847  17.090  1.00 49.60 LIG 0.61  N 
ENDBRANCH 61 63
ENDBRANCH 53 59
ENDBRANCH 51 53
ENDBRANCH 41 49
ENDBRANCH 39 41
ENDBRANCH 1 37
TORSDOF 24
ENDMDL
MODEL 9
USER: ADFR SOLUTION from run 156
USER: SCORE 19.291350 LL:  -4.743 LR: -16.033 RR:   0.000 FEB:  -8.874
USER: RMSD 9.736405
USER: SEED 155
USER: STATUS no improvement in best in 8 clusters for 5 generations
USER: GENES 26
USER: genes 0 Translation |==|  0.60408 0.43566 0.49516
USER: genes 1 Rotation |==|  0.05541 0.31250 0.36891 0.50132
USER: genes 2 Torsion [C]-CA--CB-[CG] |==|  0.60363
USER: genes 3 Torsion [CA]-CB--CG-[CD] |==|  0.52245
USER: genes 4 Torsion [CB]-CG--CD-[NE] |==|  0.30448
USER: genes 5 Torsion [CG]-CD--NE-[CZ] |==|  0.51121
USER: genes 6 Torsion [N]-CA--C-[N] |==|  0.14085
USER: genes 7 Torsion [C]-N--CA-[C] |==|  0.62421
USER: genes 8 Torsion [N]-CA--C-[N] |==|  0.36953
USER: genes 9 Torsion [C]-N--CA-[CB] |==|  0.23436
USER: genes 10 Torsion [N]-CA--C-[OXT] |==|  0.91374
USER: genes 11 Torsion [N]-CA--CB-[CG] |==|  0.38486
USER: genes 12 Torsion [CA]-CB--CG-[OD2] |==|  0.71035
USER: genes 13 Torsion [N]-CA--CB-[CG] |==|  0.80062
USER: genes 14 Torsion [CA]-CB--CG-[ND1] |==|  0.89730
USER: genes 15 Torsion [CB]-CA--N-[C] |==|  0.78285
USER: genes 16 Torsion [N]-C--CA-[N] |==|  0.27320
USER: genes 17 Torsion [C]-CA--CB-[CG] |==|  0.49648
USER: genes 18 Torsion [CA]-CB--CG-[CD2] |==|  0.26796
USER: genes 19 Torsion [C]-CA--N-[C] |==|  0.84049
USER: genes 20 Torsion [N]-C--CA-[N] |==|  0.01057
USER: genes 21 Torsion [C]-CA--CB-[CG] |==|  0.89197
USER: genes 22 Torsion [CA]-CB--CG-[CD] |==|  0.76257
USER: genes 23 Torsion [CB]-CG--CD-[OE1] |==|  0.63983
USER: genes 24 Torsion [C]-CA--N-[C] |==|  0.75808
USER: genes 25 Torsion [N]-C--CA-[N] |==|  0.93900
ROOT
ATOM      1  CA  ARG P   5     -19.776  25.002  12.911  1.00 25.78 LIG 0.18  C 
ENDROOT
BRANCH 1 2
ATOM      2  CB  ARG P   5     -21.243  25.193  13.332  1.00 22.44 LIG 0.04  C 
BRANCH 2 3
ATOM      3  CG  ARG P   5     -21.488  26.445  14.174  1.00 26.51 LIG 0.02  C 
BRANCH 3 4
ATOM      4  CD  ARG P   5     -22.913  26.493  14.736  1.00 28.41 LIG 0.14  C 
BRANCH 4 5
ATOM      5  NE  ARG P   5     -22.939  26.281  16.181  1.00 33.08 LIG-0.23  N 
ATOM      6  CZ  ARG P   5     -24.051  26.197  16.909  1.00 31.92 LIG 0.67  C 
ATOM      7  NH2 ARG P   5     -23.965  25.990  18.213  1.00 32.43 LIG-0.23  N 
ATOM      8  NH1 ARG P   5     -25.246  26.295  16.332  1.00 23.99 LIG-0.23  N 
ATOM      9 2HH2 ARG P   5     -24.681  25.934  18.687  1.00 32.43 LIG 0.17  HD
ATOM     10 1HH2 ARG P   5     -23.195  25.910  18.585  1.00 32.43 LIG 0.17  HD
ATOM     11 2HH1 ARG P   5     -25.960  26.240  16.809  1.00 23.99 LIG 0.17  HD
ATOM     12 1HH1 ARG P   5     -25.305  26.413  15.483  1.00 23.99 LIG 0.17  HD
ATOM     13 HE   ARG P   5     -22.186  26.206  16.589  1.00 33.08 LIG 0.18  HD
ENDBRANCH 4 5
ENDBRANCH 3 4
ENDBRANCH 2 3
ENDBRANCH 1 2
BRANCH 1 14
ATOM     14  C   ARG P   5     -19.697  24.435  11.493  1.00 22.77 LIG 0.24  C 
ATOM     15 O    ARG P   5     -20.718  24.065  10.906  1.00 23.41 LIG-0.27  OA
ATOM     16  N   HIS P   6     -18.484  24.351  10.955  1.00 20.21 LIG-0.35  N 
ATOM     17 H    HIS P   6     -17.762  24.586  11.359  1.00 20.21 LIG 0.16  HD
BRANCH 16 18
ATOM     18  CA  HIS P   6     -18.277  23.838   9.599  1.00 24.32 LIG 0.18  C 
BRANCH 18 19
ATOM     19  C   HIS P   6     -17.111  22.848   9.478  1.00 31.11 LIG 0.24  C 
ATOM     20  N   ASP P   7     -17.348  21.728   8.804  1.00 28.94 LIG-0.34  N 
ATOM     21 H    ASP P   7     -18.131  21.454   8.578  1.00 28.94 LIG 0.16  HD
ATOM     22 O    HIS P   6     -16.013  23.098   9.990  1.00 27.73 LIG-0.27  OA
BRANCH 20 23
ATOM     23  CA  ASP P   7     -16.250  20.856   8.387  1.00 30.45 LIG 0.20  C 
BRANCH 23 24
ATOM     24  C   ASP P   7     -16.603  20.081   7.102  1.00 38.41 LIG 0.20  C 
ATOM     25 OXT  ASP P   7     -17.761  19.753   6.844  1.00 43.84 LIG-0.65  OA
ATOM     26 O    ASP P   7     -15.746  19.739   6.279  1.00 36.31 LIG-0.65  OA
ENDBRANCH 23 24
BRANCH 23 27
ATOM     27  CB  ASP P   7     -15.862  19.909   9.524  1.00 42.34 LIG 0.15  C 
BRANCH 27 28
ATOM     28  CG  ASP P   7     -15.583  18.487   9.037  1.00 55.06 LIG 0.17  C 
ATOM     29 OD2  ASP P   7     -16.450  17.615   9.248  1.00 62.01 LIG-0.65  OA
ATOM     30 OD1  ASP P   7     -14.503  18.240   8.449  1.00 52.19 LIG-0.65  OA
ENDBRANCH 27 28
ENDBRANCH 23 27
ENDBRANCH 20 23
ENDBRANCH 18 19
BRANCH 18 31
ATOM     31  CB  HIS P   6     -18.071  24.988   8.628  1.00 25.23 LIG 0.10  C 
BRANCH 31 32
ATOM     32  CG  HIS P   6     -19.313  25.771   8.351  1.00 20.03 LIG 0.06  A 
ATOM     33 ND1  HIS P   6     -20.554  25.180   8.251  1.00 23.24 LIG-0.24  NA
ATOM     34  CE1 HIS P   6     -21.459  26.105   7.988  1.00 27.69 LIG 0.23  A 
ATOM     35 NE2  HIS P   6     -20.847  27.275   7.903  1.00 30.02 LIG-0.25  NA
ATOM     36  CD2 HIS P   6     -19.504  27.092   8.129  1.00 26.95 LIG 0.14  A 
ENDBRANCH 31 32
ENDBRANCH 18 31
ENDBRANCH 16 18
ENDBRANCH 1 14
BRANCH 1 37
ATOM     37  N   ARG P   5     -19.051  26.262  12.995  1.00 23.27 LIG-0.35  N 
ATOM     38 H    ARG P   5     -18.552  26.343  13.690  1.00 23.27 LIG 0.16  HD
ATOM     39  C   PHE P   4     -19.178  27.189  12.053  1.00 23.02 LIG 0.24  C 
ATOM     40 O    PHE P   4     -19.889  27.044  11.055  1.00 27.32 LIG-0.27  OA
BRANCH 39 41
ATOM     41  CA  PHE P   4     -18.380  28.454  12.248  1.00 26.78 LIG 0.18  C 
BRANCH 41 42
ATOM     42  CB  PHE P   4     -19.193  29.673  11.803  1.00 27.56 LIG 0.07  C 
BRANCH 42 43
ATOM     43  CG  PHE P   4     -18.487  31.004  11.989  1.00 23.05 LIG-0.06  A 
ATOM     44  CD2 PHE P   4     -17.804  31.596  10.928  1.00 26.81 LIG 0.01  A 
ATOM     45  CE2 PHE P   4     -17.118  32.813  11.086  1.00 20.39 LIG 0.00  A 
ATOM     46  CZ  PHE P   4     -17.112  33.442  12.333  1.00 15.29 LIG 0.00  A 
ATOM     47  CE1 PHE P   4     -17.794  32.851  13.406  1.00 22.67 LIG 0.00  A 
ATOM     48  CD1 PHE P   4     -18.466  31.637  13.232  1.00 22.68 LIG 0.01  A 
ENDBRANCH 42 43
ENDBRANCH 41 42
BRANCH 41 49
ATOM     49  N   PHE P   4     -17.176  28.325  11.439  1.00 24.27 LIG-0.35  N 
ATOM     50 H    PHE P   4     -17.069  28.952  10.860  1.00 24.27 LIG 0.16  HD
ATOM     51  C   GLU P   3     -16.328  27.314  11.602  1.00 33.66 LIG 0.24  C 
ATOM     52 O    GLU P   3     -16.430  26.476  12.498  1.00 34.99 LIG-0.27  OA
BRANCH 51 53
ATOM     53  CA  GLU P   3     -15.180  27.249  10.612  1.00 34.60 LIG 0.18  C 
BRANCH 53 54
ATOM     54  CB  GLU P   3     -13.858  27.167  11.372  1.00 27.84 LIG 0.04  C 
BRANCH 54 55
ATOM     55  CG  GLU P   3     -13.810  28.034  12.623  1.00 43.05 LIG 0.12  C 
BRANCH 55 56
ATOM     56  CD  GLU P   3     -13.394  29.457  12.318  1.00 49.21 LIG 0.17  C 
ATOM     57 OE1  GLU P   3     -12.475  29.962  12.998  1.00 52.28 LIG-0.65  OA
ATOM     58 OE2  GLU P   3     -13.984  30.068  11.401  1.00 52.44 LIG-0.65  OA
ENDBRANCH 55 56
ENDBRANCH 54 55
ENDBRANCH 53 54
BRANCH 53 59
ATOM     59  N   GLU P   3     -15.188  28.392   9.706  1.00 36.80 LIG-0.35  N 
ATOM     60 H    GLU P   3     -14.705  29.054   9.966  1.00 36.80 LIG 0.16  HD
ATOM     61  C   ALA P   2     -15.892  28.384   8.579  1.00 41.96 LIG 0.26  C 
ATOM     62 O    ALA P   2     -16.615  27.442   8.256  1.00 34.80 LIG-0.27  OA
BRANCH 61 63
ATOM     63  CA  ALA P   2     -15.762  29.627   7.686  1.00 47.40 LIG 0.40  C 
ATOM     64  CB  ALA P   2     -14.836  29.349   6.513  1.00 40.76 LIG 0.06  C 
ATOM     65  N   ALA P   2     -15.311  30.811   8.418  1.00 49.60 LIG 0.61  N 
ENDBRANCH 61 63
ENDBRANCH 53 59
ENDBRANCH 51 53
ENDBRANCH 41 49
ENDBRANCH 39 41
ENDBRANCH 1 37
TORSDOF 24
ENDMDL
MODEL 10
USER: ADFR SOLUTION from run 102
USER: SCORE 19.958584 LL:  -4.897 LR: -15.956 RR:   0.000 FEB:  -8.797
USER: RMSD 9.114832
USER: SEED 101
USER: STATUS no improvement in best in 9 clusters for 5 generations
USER: GENES 26
USER: genes 0 Translation |==|  0.41736 0.43953 0.45217
USER: genes 1 Rotation |==|  0.72299 0.70922 0.88213 0.60237
USER: genes 2 Torsion [C]-CA--CB-[CG] |==|  0.21667
USER: genes 3 Torsion [CA]-CB--CG-[CD] |==|  0.34951
USER: genes 4 Torsion [CB]-CG--CD-[NE] |==|  0.38167
USER: genes 5 Torsion [CG]-CD--NE-[CZ] |==|  0.46927
USER: genes 6 Torsion [N]-CA--C-[N] |==|  0.11399
USER: genes 7 Torsion [C]-N--CA-[C] |==|  0.18141
USER: genes 8 Torsion [N]-CA--C-[N] |==|  0.64757
USER: genes 9 Torsion [C]-N--CA-[CB] |==|  0.24985
USER: genes 10 Torsion [N]-CA--C-[OXT] |==|  0.47529
USER: genes 11 Torsion [N]-CA--CB-[CG] |==|  0.06574
USER: genes 12 Torsion [CA]-CB--CG-[OD2] |==|  0.78919
USER: genes 13 Torsion [N]-CA--CB-[CG] |==|  0.84203
USER: genes 14 Torsion [CA]-CB--CG-[ND1] |==|  0.03607
USER: genes 15 Torsion [CB]-CA--N-[C] |==|  0.17577
USER: genes 16 Torsion [N]-C--CA-[N] |==|  0.41111
USER: genes 17 Torsion [C]-CA--CB-[CG] |==|  0.11649
USER: genes 18 Torsion [CA]-CB--CG-[CD2] |==|  0.19019
USER: genes 19 Torsion [C]-CA--N-[C] |==|  0.64259
USER: genes 20 Torsion [N]-C--CA-[N] |==|  0.99913
USER: genes 21 Torsion [C]-CA--CB-[CG] |==|  0.80639
USER: genes 22 Torsion [CA]-CB--CG-[CD] |==|  0.73467
USER: genes 23 Torsion [CB]-CG--CD-[OE1] |==|  0.07994
USER: genes 24 Torsion [C]-CA--N-[C] |==|  0.77012
USER: genes 25 Torsion [N]-C--CA-[N] |==|  0.15204
ROOT
ATOM      1  CA  ARG P   5     -24.537  25.080  12.137  1.00 25.78 LIG 0.18  C 
ENDROOT
BRANCH 1 2
ATOM      2  CB  ARG P   5     -25.184  24.845  10.761  1.00 22.44 LIG 0.04  C 
BRANCH 2 3
ATOM      3  CG  ARG P   5     -25.402  23.370  10.424  1.00 26.51 LIG 0.02  C 
BRANCH 3 4
ATOM      4  CD  ARG P   5     -26.858  23.073  10.048  1.00 28.41 LIG 0.14  C 
BRANCH 4 5
ATOM      5  NE  ARG P   5     -26.954  22.179   8.896  1.00 33.08 LIG-0.23  N 
ATOM      6  CZ  ARG P   5     -28.079  21.594   8.491  1.00 31.92 LIG 0.67  C 
ATOM      7  NH2 ARG P   5     -28.063  20.811   7.425  1.00 32.43 LIG-0.23  N 
ATOM      8  NH1 ARG P   5     -29.225  21.810   9.134  1.00 23.99 LIG-0.23  N 
ATOM      9 2HH2 ARG P   5     -28.787  20.431   7.159  1.00 32.43 LIG 0.17  HD
ATOM     10 1HH2 ARG P   5     -27.327  20.682   6.998  1.00 32.43 LIG 0.17  HD
ATOM     11 2HH1 ARG P   5     -29.947  21.429   8.867  1.00 23.99 LIG 0.17  HD
ATOM     12 1HH1 ARG P   5     -29.242  22.331   9.818  1.00 23.99 LIG 0.17  HD
ATOM     13 HE   ARG P   5     -26.236  22.020   8.451  1.00 33.08 LIG 0.18  HD
ENDBRANCH 4 5
ENDBRANCH 3 4
ENDBRANCH 2 3
ENDBRANCH 1 2
BRANCH 1 14
ATOM     14  C   ARG P   5     -23.034  24.815  12.072  1.00 22.77 LIG 0.24  C 
ATOM     15 O    ARG P   5     -22.548  24.170  11.137  1.00 23.41 LIG-0.27  OA
ATOM     16  N   HIS P   6     -22.303  25.293  13.075  1.00 20.21 LIG-0.35  N 
ATOM     17 H    HIS P   6     -22.629  25.725  13.743  1.00 20.21 LIG 0.16  HD
BRANCH 16 18
ATOM     18  CA  HIS P   6     -20.850  25.117  13.123  1.00 24.32 LIG 0.18  C 
BRANCH 18 19
ATOM     19  C   HIS P   6     -20.097  25.845  12.001  1.00 31.11 LIG 0.24  C 
ATOM     20  N   ASP P   7     -19.262  25.114  11.271  1.00 28.94 LIG-0.34  N 
ATOM     21 H    ASP P   7     -18.999  24.322  11.482  1.00 28.94 LIG 0.16  HD
ATOM     22 O    HIS P   6     -20.272  27.053  11.802  1.00 27.73 LIG-0.27  OA
BRANCH 20 23
ATOM     23  CA  ASP P   7     -18.714  25.627  10.016  1.00 30.45 LIG 0.20  C 
BRANCH 23 24
ATOM     24  C   ASP P   7     -18.529  24.501   8.979  1.00 38.41 LIG 0.20  C 
ATOM     25 OXT  ASP P   7     -18.235  24.744   7.809  1.00 43.84 LIG-0.65  OA
ATOM     26 O    ASP P   7     -18.680  23.308   9.265  1.00 36.31 LIG-0.65  OA
ENDBRANCH 23 24
BRANCH 23 27
ATOM     27  CB  ASP P   7     -17.404  26.373  10.272  1.00 42.34 LIG 0.15  C 
BRANCH 27 28
ATOM     28  CG  ASP P   7     -16.716  25.929  11.563  1.00 55.06 LIG 0.17  C 
ATOM     29 OD2  ASP P   7     -17.185  26.335  12.646  1.00 62.01 LIG-0.65  OA
ATOM     30 OD1  ASP P   7     -15.712  25.181  11.498  1.00 52.19 LIG-0.65  OA
ENDBRANCH 27 28
ENDBRANCH 23 27
ENDBRANCH 20 23
ENDBRANCH 18 19
BRANCH 18 31
ATOM     31  CB  HIS P   6     -20.498  23.640  13.097  1.00 25.23 LIG 0.10  C 
BRANCH 31 32
ATOM     32  CG  HIS P   6     -21.125  22.852  14.200  1.00 20.03 LIG 0.06  A 
ATOM     33 ND1  HIS P   6     -22.140  23.356  14.985  1.00 23.24 LIG-0.24  NA
ATOM     34  CE1 HIS P   6     -22.489  22.451  15.882  1.00 27.69 LIG 0.23  A 
ATOM     35 NE2  HIS P   6     -21.728  21.382  15.715  1.00 30.02 LIG-0.25  NA
ATOM     36  CD2 HIS P   6     -20.869  21.608  14.666  1.00 26.95 LIG 0.14  A 
ENDBRANCH 31 32
ENDBRANCH 18 31
ENDBRANCH 16 18
ENDBRANCH 1 14
BRANCH 1 37
ATOM     37  N   ARG P   5     -24.794  26.437  12.597  1.00 23.27 LIG-0.35  N 
ATOM     38 H    ARG P   5     -24.091  26.923  12.692  1.00 23.27 LIG 0.16  HD
ATOM     39  C   PHE P   4     -26.031  26.855  12.840  1.00 23.02 LIG 0.24  C 
ATOM     40 O    PHE P   4     -27.027  26.145  12.681  1.00 27.32 LIG-0.27  OA
BRANCH 39 41
ATOM     41  CA  PHE P   4     -26.175  28.280  13.314  1.00 26.78 LIG 0.18  C 
BRANCH 41 42
ATOM     42  CB  PHE P   4     -26.154  28.339  14.844  1.00 27.56 LIG 0.07  C 
BRANCH 42 43
ATOM     43  CG  PHE P   4     -25.119  27.441  15.496  1.00 23.05 LIG-0.06  A 
ATOM     44  CD2 PHE P   4     -23.758  27.714  15.360  1.00 26.81 LIG 0.01  A 
ATOM     45  CE2 PHE P   4     -22.783  26.878  15.930  1.00 20.39 LIG 0.00  A 
ATOM     46  CZ  PHE P   4     -23.180  25.744  16.643  1.00 15.29 LIG 0.00  A 
ATOM     47  CE1 PHE P   4     -24.545  25.461  16.781  1.00 22.67 LIG 0.00  A 
ATOM     48  CD1 PHE P   4     -25.503  26.301  16.202  1.00 22.68 LIG 0.01  A 
ENDBRANCH 42 43
ENDBRANCH 41 42
BRANCH 41 49
ATOM     49  N   PHE P   4     -27.447  28.770  12.805  1.00 24.27 LIG-0.35  N 
ATOM     50 H    PHE P   4     -28.118  28.260  12.976  1.00 24.27 LIG 0.16  HD
ATOM     51  C   GLU P   3     -27.540  29.915  12.135  1.00 33.66 LIG 0.24  C 
ATOM     52 O    GLU P   3     -26.597  30.692  11.980  1.00 34.99 LIG-0.27  OA
BRANCH 51 53
ATOM     53  CA  GLU P   3     -28.909  30.240  11.567  1.00 34.60 LIG 0.18  C 
BRANCH 53 54
ATOM     54  CB  GLU P   3     -29.376  31.590  12.108  1.00 27.84 LIG 0.04  C 
BRANCH 54 55
ATOM     55  CG  GLU P   3     -29.716  31.577  13.592  1.00 43.05 LIG 0.12  C 
BRANCH 55 56
ATOM     56  CD  GLU P   3     -31.195  31.370  13.839  1.00 49.21 LIG 0.17  C 
ATOM     57 OE1  GLU P   3     -31.849  30.719  12.996  1.00 52.28 LIG-0.65  OA
ATOM     58 OE2  GLU P   3     -31.700  31.854  14.875  1.00 52.44 LIG-0.65  OA
ENDBRANCH 55 56
ENDBRANCH 54 55
ENDBRANCH 53 54
BRANCH 53 59
ATOM     59  N   GLU P   3     -29.878  29.195  11.874  1.00 36.80 LIG-0.35  N 
ATOM     60 H    GLU P   3     -30.370  29.357  12.560  1.00 36.80 LIG 0.16  HD
ATOM     61  C   ALA P   2     -29.972  28.092  11.138  1.00 41.96 LIG 0.26  C 
ATOM     62 O    ALA P   2     -29.221  27.862  10.192  1.00 34.80 LIG-0.27  OA
BRANCH 61 63
ATOM     63  CA  ALA P   2     -31.077  27.101  11.534  1.00 47.40 LIG 0.40  C 
ATOM     64  CB  ALA P   2     -31.086  25.907  10.594  1.00 40.76 LIG 0.06  C 
ATOM     65  N   ALA P   2     -32.404  27.716  11.584  1.00 49.60 LIG 0.61  N 
ENDBRANCH 61 63
ENDBRANCH 53 59
ENDBRANCH 51 53
ENDBRANCH 41 49
ENDBRANCH 39 41
ENDBRANCH 1 37
TORSDOF 24
ENDMDL
MODEL 11
USER: ADFR SOLUTION from run 108
USER: SCORE 18.384301 LL:  -4.514 LR: -15.925 RR:   0.000 FEB:  -8.766
USER: RMSD 9.871908
USER: SEED 107
USER: STATUS no improvement in best in 5 clusters for 5 generations
USER: GENES 26
USER: genes 0 Translation |==|  0.50305 0.45354 0.57460
USER: genes 1 Rotation |==|  0.49864 0.99889 0.46909 0.51235
USER: genes 2 Torsion [C]-CA--CB-[CG] |==|  0.58408
USER: genes 3 Torsion [CA]-CB--CG-[CD] |==|  0.72809
USER: genes 4 Torsion [CB]-CG--CD-[NE] |==|  0.26209
USER: genes 5 Torsion [CG]-CD--NE-[CZ] |==|  0.75783
USER: genes 6 Torsion [N]-CA--C-[N] |==|  0.27189
USER: genes 7 Torsion [C]-N--CA-[C] |==|  0.57258
USER: genes 8 Torsion [N]-CA--C-[N] |==|  0.14652
USER: genes 9 Torsion [C]-N--CA-[CB] |==|  0.85107
USER: genes 10 Torsion [N]-CA--C-[OXT] |==|  0.40850
USER: genes 11 Torsion [N]-CA--CB-[CG] |==|  0.88052
USER: genes 12 Torsion [CA]-CB--CG-[OD2] |==|  0.30309
USER: genes 13 Torsion [N]-CA--CB-[CG] |==|  0.65771
USER: genes 14 Torsion [CA]-CB--CG-[ND1] |==|  0.54365
USER: genes 15 Torsion [CB]-CA--N-[C] |==|  0.47789
USER: genes 16 Torsion [N]-C--CA-[N] |==|  0.36772
USER: genes 17 Torsion [C]-CA--CB-[CG] |==|  0.50767
USER: genes 18 Torsion [CA]-CB--CG-[CD2] |==|  0.72305
USER: genes 19 Torsion [C]-CA--N-[C] |==|  0.83888
USER: genes 20 Torsion [N]-C--CA-[N] |==|  0.17764
USER: genes 21 Torsion [C]-CA--CB-[CG] |==|  0.47773
USER: genes 22 Torsion [CA]-CB--CG-[CD] |==|  0.95807
USER: genes 23 Torsion [CB]-CG--CD-[OE1] |==|  0.30569
USER: genes 24 Torsion [C]-CA--N-[C] |==|  0.75962
USER: genes 25 Torsion [N]-C--CA-[N] |==|  0.40764
ROOT
ATOM      1  CA  ARG P   5     -22.352  25.364  14.341  1.00 25.78 LIG 0.18  C 
ENDROOT
BRANCH 1 2
ATOM      2  CB  ARG P   5     -21.871  24.463  15.492  1.00 22.44 LIG 0.04  C 
BRANCH 2 3
ATOM      3  CG  ARG P   5     -23.003  23.762  16.243  1.00 26.51 LIG 0.02  C 
BRANCH 3 4
ATOM      4  CD  ARG P   5     -23.385  24.501  17.531  1.00 28.41 LIG 0.14  C 
BRANCH 4 5
ATOM      5  NE  ARG P   5     -24.501  25.421  17.323  1.00 33.08 LIG-0.23  N 
ATOM      6  CZ  ARG P   5     -24.369  26.682  16.914  1.00 31.92 LIG 0.67  C 
ATOM      7  NH2 ARG P   5     -25.446  27.430  16.743  1.00 32.43 LIG-0.23  N 
ATOM      8  NH1 ARG P   5     -23.165  27.186  16.653  1.00 23.99 LIG-0.23  N 
ATOM      9 2HH2 ARG P   5     -25.366  28.245  16.479  1.00 32.43 LIG 0.17  HD
ATOM     10 1HH2 ARG P   5     -26.226  27.102  16.895  1.00 32.43 LIG 0.17  HD
ATOM     11 2HH1 ARG P   5     -23.088  28.001  16.390  1.00 23.99 LIG 0.17  HD
ATOM     12 1HH1 ARG P   5     -22.464  26.697  16.748  1.00 23.99 LIG 0.17  HD
ATOM     13 HE   ARG P   5     -25.295  25.130  17.474  1.00 33.08 LIG 0.18  HD
ENDBRANCH 4 5
ENDBRANCH 3 4
ENDBRANCH 2 3
ENDBRANCH 1 2
BRANCH 1 14
ATOM     14  C   ARG P   5     -21.302  25.418  13.231  1.00 22.77 LIG 0.24  C 
ATOM     15 O    ARG P   5     -20.674  24.404  12.909  1.00 23.41 LIG-0.27  OA
ATOM     16  N   HIS P   6     -21.099  26.604  12.664  1.00 20.21 LIG-0.35  N 
ATOM     17 H    HIS P   6     -21.514  27.321  12.891  1.00 20.21 LIG 0.16  HD
BRANCH 16 18
ATOM     18  CA  HIS P   6     -20.131  26.783  11.580  1.00 24.32 LIG 0.18  C 
BRANCH 18 19
ATOM     19  C   HIS P   6     -19.567  28.207  11.478  1.00 31.11 LIG 0.24  C 
ATOM     20  N   ASP P   7     -19.050  28.725  12.587  1.00 28.94 LIG-0.34  N 
ATOM     21 H    ASP P   7     -19.153  28.390  13.373  1.00 28.94 LIG 0.16  HD
ATOM     22 O    HIS P   6     -19.602  28.825  10.408  1.00 27.73 LIG-0.27  OA
BRANCH 20 23
ATOM     23  CA  ASP P   7     -18.240  29.942  12.541  1.00 30.45 LIG 0.20  C 
BRANCH 23 24
ATOM     24  C   ASP P   7     -19.101  31.181  12.228  1.00 38.41 LIG 0.20  C 
ATOM     25 OXT  ASP P   7     -18.833  32.287  12.695  1.00 43.84 LIG-0.65  OA
ATOM     26 O    ASP P   7     -20.105  31.124  11.508  1.00 36.31 LIG-0.65  OA
ENDBRANCH 23 24
BRANCH 23 27
ATOM     27  CB  ASP P   7     -17.099  29.783  11.536  1.00 42.34 LIG 0.15  C 
BRANCH 27 28
ATOM     28  CG  ASP P   7     -16.418  28.418  11.627  1.00 55.06 LIG 0.17  C 
ATOM     29 OD2  ASP P   7     -16.602  27.608  10.695  1.00 62.01 LIG-0.65  OA
ATOM     30 OD1  ASP P   7     -15.704  28.153  12.623  1.00 52.19 LIG-0.65  OA
ENDBRANCH 27 28
ENDBRANCH 23 27
ENDBRANCH 20 23
ENDBRANCH 18 19
BRANCH 18 31
ATOM     31  CB  HIS P   6     -20.747  26.383  10.252  1.00 25.23 LIG 0.10  C 
BRANCH 31 32
ATOM     32  CG  HIS P   6     -19.982  25.323   9.528  1.00 20.03 LIG 0.06  A 
ATOM     33 ND1  HIS P   6     -20.182  25.047   8.193  1.00 23.24 LIG-0.24  NA
ATOM     34  CE1 HIS P   6     -19.384  24.061   7.826  1.00 27.69 LIG 0.23  A 
ATOM     35 NE2  HIS P   6     -18.680  23.680   8.879  1.00 30.02 LIG-0.25  NA
ATOM     36  CD2 HIS P   6     -19.034  24.457   9.956  1.00 26.95 LIG 0.14  A 
ENDBRANCH 31 32
ENDBRANCH 18 31
ENDBRANCH 16 18
ENDBRANCH 1 14
BRANCH 1 37
ATOM     37  N   ARG P   5     -23.623  24.887  13.815  1.00 23.27 LIG-0.35  N 
ATOM     38 H    ARG P   5     -23.880  24.129  14.127  1.00 23.27 LIG 0.16  HD
ATOM     39  C   PHE P   4     -24.304  25.598  12.923  1.00 23.02 LIG 0.24  C 
ATOM     40 O    PHE P   4     -23.925  26.693  12.500  1.00 27.32 LIG-0.27  OA
BRANCH 39 41
ATOM     41  CA  PHE P   4     -25.607  25.003  12.449  1.00 26.78 LIG 0.18  C 
BRANCH 41 42
ATOM     42  CB  PHE P   4     -25.470  24.494  11.011  1.00 27.56 LIG 0.07  C 
BRANCH 42 43
ATOM     43  CG  PHE P   4     -26.750  23.934  10.416  1.00 23.05 LIG-0.06  A 
ATOM     44  CD2 PHE P   4     -26.967  22.558  10.373  1.00 26.81 LIG 0.01  A 
ATOM     45  CE2 PHE P   4     -28.131  22.018   9.800  1.00 20.39 LIG 0.00  A 
ATOM     46  CZ  PHE P   4     -29.090  22.874   9.253  1.00 15.29 LIG 0.00  A 
ATOM     47  CE1 PHE P   4     -28.877  24.259   9.289  1.00 22.67 LIG 0.00  A 
ATOM     48  CD1 PHE P   4     -27.710  24.779   9.859  1.00 22.68 LIG 0.01  A 
ENDBRANCH 42 43
ENDBRANCH 41 42
BRANCH 41 49
ATOM     49  N   PHE P   4     -26.607  26.059  12.520  1.00 24.27 LIG-0.35  N 
ATOM     50 H    PHE P   4     -26.993  26.233  11.771  1.00 24.27 LIG 0.16  HD
ATOM     51  C   GLU P   3     -26.881  26.688  13.659  1.00 33.66 LIG 0.24  C 
ATOM     52 O    GLU P   3     -26.400  26.369  14.746  1.00 34.99 LIG-0.27  OA
BRANCH 51 53
ATOM     53  CA  GLU P   3     -27.861  27.842  13.556  1.00 34.60 LIG 0.18  C 
BRANCH 53 54
ATOM     54  CB  GLU P   3     -27.937  28.564  14.901  1.00 27.84 LIG 0.04  C 
BRANCH 54 55
ATOM     55  CG  GLU P   3     -28.742  29.856  14.863  1.00 43.05 LIG 0.12  C 
BRANCH 55 56
ATOM     56  CD  GLU P   3     -28.987  30.338  13.450  1.00 49.21 LIG 0.17  C 
ATOM     57 OE1  GLU P   3     -30.150  30.275  12.998  1.00 52.28 LIG-0.65  OA
ATOM     58 OE2  GLU P   3     -28.019  30.781  12.794  1.00 52.44 LIG-0.65  OA
ENDBRANCH 55 56
ENDBRANCH 54 55
ENDBRANCH 53 54
BRANCH 53 59
ATOM     59  N   GLU P   3     -29.181  27.390  13.135  1.00 36.80 LIG-0.35  N 
ATOM     60 H    GLU P   3     -29.720  27.218  13.782  1.00 36.80 LIG 0.16  HD
ATOM     61  C   ALA P   2     -29.497  27.261  11.850  1.00 41.96 LIG 0.26  C 
ATOM     62 O    ALA P   2     -28.689  27.464  10.946  1.00 34.80 LIG-0.27  OA
BRANCH 61 63
ATOM     63  CA  ALA P   2     -30.941  26.835  11.544  1.00 47.40 LIG 0.40  C 
ATOM     64  CB  ALA P   2     -31.054  25.320  11.498  1.00 40.76 LIG 0.06  C 
ATOM     65  N   ALA P   2     -31.458  27.419  10.305  1.00 49.60 LIG 0.61  N 
ENDBRANCH 61 63
ENDBRANCH 53 59
ENDBRANCH 51 53
ENDBRANCH 41 49
ENDBRANCH 39 41
ENDBRANCH 1 37
TORSDOF 24
ENDMDL
MODEL 12
USER: ADFR SOLUTION from run 152
USER: SCORE 19.759086 LL:  -4.917 LR: -15.892 RR:   0.000 FEB:  -8.733
USER: RMSD 9.711711
USER: SEED 151
USER: STATUS searching
USER: GENES 26
USER: genes 0 Translation |==|  0.37865 0.43192 0.47730
USER: genes 1 Rotation |==|  0.61726 0.72231 0.93136 0.52755
USER: genes 2 Torsion [C]-CA--CB-[CG] |==|  0.50702
USER: genes 3 Torsion [CA]-CB--CG-[CD] |==|  0.75578
USER: genes 4 Torsion [CB]-CG--CD-[NE] |==|  0.71367
USER: genes 5 Torsion [CG]-CD--NE-[CZ] |==|  0.69791
USER: genes 6 Torsion [N]-CA--C-[N] |==|  0.36204
USER: genes 7 Torsion [C]-N--CA-[C] |==|  0.77161
USER: genes 8 Torsion [N]-CA--C-[N] |==|  0.23477
USER: genes 9 Torsion [C]-N--CA-[CB] |==|  0.86709
USER: genes 10 Torsion [N]-CA--C-[OXT] |==|  0.67760
USER: genes 11 Torsion [N]-CA--CB-[CG] |==|  0.69221
USER: genes 12 Torsion [CA]-CB--CG-[OD2] |==|  0.06657
USER: genes 13 Torsion [N]-CA--CB-[CG] |==|  0.01698
USER: genes 14 Torsion [CA]-CB--CG-[ND1] |==|  0.81662
USER: genes 15 Torsion [CB]-CA--N-[C] |==|  0.83715
USER: genes 16 Torsion [N]-C--CA-[N] |==|  0.84906
USER: genes 17 Torsion [C]-CA--CB-[CG] |==|  0.00644
USER: genes 18 Torsion [CA]-CB--CG-[CD2] |==|  0.72340
USER: genes 19 Torsion [C]-CA--N-[C] |==|  0.85350
USER: genes 20 Torsion [N]-C--CA-[N] |==|  0.18333
USER: genes 21 Torsion [C]-CA--CB-[CG] |==|  0.55722
USER: genes 22 Torsion [CA]-CB--CG-[CD] |==|  0.27392
USER: genes 23 Torsion [CB]-CG--CD-[OE1] |==|  0.68198
USER: genes 24 Torsion [C]-CA--N-[C] |==|  0.14971
USER: genes 25 Torsion [N]-C--CA-[N] |==|  0.59289
ROOT
ATOM      1  CA  ARG P   5     -25.524  24.926  12.589  1.00 25.78 LIG 0.18  C 
ENDROOT
BRANCH 1 2
ATOM      2  CB  ARG P   5     -25.631  24.641  11.081  1.00 22.44 LIG 0.04  C 
BRANCH 2 3
ATOM      3  CG  ARG P   5     -27.037  24.258  10.622  1.00 26.51 LIG 0.02  C 
BRANCH 3 4
ATOM      4  CD  ARG P   5     -27.291  22.750  10.735  1.00 28.41 LIG 0.14  C 
BRANCH 4 5
ATOM      5  NE  ARG P   5     -27.218  22.084   9.437  1.00 33.08 LIG-0.23  N 
ATOM      6  CZ  ARG P   5     -28.270  21.593   8.784  1.00 31.92 LIG 0.67  C 
ATOM      7  NH2 ARG P   5     -28.098  21.019   7.605  1.00 32.43 LIG-0.23  N 
ATOM      8  NH1 ARG P   5     -29.494  21.697   9.297  1.00 23.99 LIG-0.23  N 
ATOM      9 2HH2 ARG P   5     -28.774  20.701   7.179  1.00 32.43 LIG 0.17  HD
ATOM     10 1HH2 ARG P   5     -27.311  20.965   7.264  1.00 32.43 LIG 0.17  HD
ATOM     11 2HH1 ARG P   5     -30.168  21.377   8.870  1.00 23.99 LIG 0.17  HD
ATOM     12 1HH1 ARG P   5     -29.610  22.084  10.056  1.00 23.99 LIG 0.17  HD
ATOM     13 HE   ARG P   5     -26.445  22.004   9.070  1.00 33.08 LIG 0.18  HD
ENDBRANCH 4 5
ENDBRANCH 3 4
ENDBRANCH 2 3
ENDBRANCH 1 2
BRANCH 1 14
ATOM     14  C   ARG P   5     -24.104  25.361  12.951  1.00 22.77 LIG 0.24  C 
ATOM     15 O    ARG P   5     -23.683  26.474  12.620  1.00 23.41 LIG-0.27  OA
ATOM     16  N   HIS P   6     -23.363  24.475  13.611  1.00 20.21 LIG-0.35  N 
ATOM     17 H    HIS P   6     -23.636  23.690  13.830  1.00 20.21 LIG 0.16  HD
BRANCH 16 18
ATOM     18  CA  HIS P   6     -21.992  24.776  14.027  1.00 24.32 LIG 0.18  C 
BRANCH 18 19
ATOM     19  C   HIS P   6     -20.947  24.575  12.921  1.00 31.11 LIG 0.24  C 
ATOM     20  N   ASP P   7     -20.766  25.588  12.081  1.00 28.94 LIG-0.34  N 
ATOM     21 H    ASP P   7     -21.294  26.265  12.016  1.00 28.94 LIG 0.16  HD
ATOM     22 O    HIS P   6     -20.315  23.516  12.833  1.00 27.73 LIG-0.27  OA
BRANCH 20 23
ATOM     23  CA  ASP P   7     -19.616  25.620  11.178  1.00 30.45 LIG 0.20  C 
BRANCH 23 24
ATOM     24  C   ASP P   7     -19.811  24.668   9.982  1.00 38.41 LIG 0.20  C 
ATOM     25 OXT  ASP P   7     -19.078  23.695   9.805  1.00 43.84 LIG-0.65  OA
ATOM     26 O    ASP P   7     -20.698  24.840   9.138  1.00 36.31 LIG-0.65  OA
ENDBRANCH 23 24
BRANCH 23 27
ATOM     27  CB  ASP P   7     -18.331  25.301  11.944  1.00 42.34 LIG 0.15  C 
BRANCH 27 28
ATOM     28  CG  ASP P   7     -17.406  26.510  12.072  1.00 55.06 LIG 0.17  C 
ATOM     29 OD2  ASP P   7     -17.914  27.648  11.994  1.00 62.01 LIG-0.65  OA
ATOM     30 OD1  ASP P   7     -16.177  26.328  12.248  1.00 52.19 LIG-0.65  OA
ENDBRANCH 27 28
ENDBRANCH 23 27
ENDBRANCH 20 23
ENDBRANCH 18 19
BRANCH 18 31
ATOM     31  CB  HIS P   6     -21.616  23.943  15.240  1.00 25.23 LIG 0.10  C 
BRANCH 31 32
ATOM     32  CG  HIS P   6     -22.650  22.936  15.623  1.00 20.03 LIG 0.06  A 
ATOM     33 ND1  HIS P   6     -23.896  23.294  16.088  1.00 23.24 LIG-0.24  NA
ATOM     34  CE1 HIS P   6     -24.592  22.205  16.361  1.00 27.69 LIG 0.23  A 
ATOM     35 NE2  HIS P   6     -23.836  21.151  16.098  1.00 30.02 LIG-0.25  NA
ATOM     36  CD2 HIS P   6     -22.617  21.583  15.633  1.00 26.95 LIG 0.14  A 
ENDBRANCH 31 32
ENDBRANCH 18 31
ENDBRANCH 16 18
ENDBRANCH 1 14
BRANCH 1 37
ATOM     37  N   ARG P   5     -26.484  25.947  12.986  1.00 23.27 LIG-0.35  N 
ATOM     38 H    ARG P   5     -27.043  25.698  13.590  1.00 23.27 LIG 0.16  HD
ATOM     39  C   PHE P   4     -26.465  27.155  12.435  1.00 23.02 LIG 0.24  C 
ATOM     40 O    PHE P   4     -25.643  27.495  11.581  1.00 27.32 LIG-0.27  OA
BRANCH 39 41
ATOM     41  CA  PHE P   4     -27.509  28.129  12.924  1.00 26.78 LIG 0.18  C 
BRANCH 41 42
ATOM     42  CB  PHE P   4     -27.268  28.476  14.396  1.00 27.56 LIG 0.07  C 
BRANCH 42 43
ATOM     43  CG  PHE P   4     -26.037  27.828  15.003  1.00 23.05 LIG-0.06  A 
ATOM     44  CD2 PHE P   4     -26.155  26.682  15.788  1.00 26.81 LIG 0.01  A 
ATOM     45  CE2 PHE P   4     -25.032  26.084  16.384  1.00 20.39 LIG 0.00  A 
ATOM     46  CZ  PHE P   4     -23.769  26.651  16.196  1.00 15.29 LIG 0.00  A 
ATOM     47  CE1 PHE P   4     -23.643  27.805  15.411  1.00 22.67 LIG 0.00  A 
ATOM     48  CD1 PHE P   4     -24.773  28.390  14.830  1.00 22.68 LIG 0.01  A 
ENDBRANCH 42 43
ENDBRANCH 41 42
BRANCH 41 49
ATOM     49  N   PHE P   4     -28.803  27.481  12.761  1.00 24.27 LIG-0.35  N 
ATOM     50 H    PHE P   4     -29.285  27.469  13.473  1.00 24.27 LIG 0.16  HD
ATOM     51  C   GLU P   3     -29.183  26.958  11.599  1.00 33.66 LIG 0.24  C 
ATOM     52 O    GLU P   3     -28.534  27.065  10.559  1.00 34.99 LIG-0.27  OA
BRANCH 51 53
ATOM     53  CA  GLU P   3     -30.507  26.216  11.610  1.00 34.60 LIG 0.18  C 
BRANCH 53 54
ATOM     54  CB  GLU P   3     -30.693  25.491  10.279  1.00 27.84 LIG 0.04  C 
BRANCH 54 55
ATOM     55  CG  GLU P   3     -32.139  25.134   9.967  1.00 43.05 LIG 0.12  C 
BRANCH 55 56
ATOM     56  CD  GLU P   3     -32.786  26.130   9.028  1.00 49.21 LIG 0.17  C 
ATOM     57 OE1  GLU P   3     -33.730  26.824   9.462  1.00 52.28 LIG-0.65  OA
ATOM     58 OE2  GLU P   3     -32.349  26.220   7.861  1.00 52.44 LIG-0.65  OA
ENDBRANCH 55 56
ENDBRANCH 54 55
ENDBRANCH 53 54
BRANCH 53 59
ATOM     59  N   GLU P   3     -31.623  27.114  11.873  1.00 36.80 LIG-0.35  N 
ATOM     60 H    GLU P   3     -32.125  26.875  12.529  1.00 36.80 LIG 0.16  HD
ATOM     61  C   ALA P   2     -31.827  28.207  11.144  1.00 41.96 LIG 0.26  C 
ATOM     62 O    ALA P   2     -31.123  28.499  10.178  1.00 34.80 LIG-0.27  OA
BRANCH 61 63
ATOM     63  CA  ALA P   2     -33.003  29.099  11.567  1.00 47.40 LIG 0.40  C 
ATOM     64  CB  ALA P   2     -34.018  28.302  12.371  1.00 40.76 LIG 0.06  C 
ATOM     65  N   ALA P   2     -33.658  29.756  10.435  1.00 49.60 LIG 0.61  N 
ENDBRANCH 61 63
ENDBRANCH 53 59
ENDBRANCH 51 53
ENDBRANCH 41 49
ENDBRANCH 39 41
ENDBRANCH 1 37
TORSDOF 24
ENDMDL
MODEL 13
USER: ADFR SOLUTION from run 93
USER: SCORE 18.876351 LL:  -3.368 LR: -15.757 RR:   0.000 FEB:  -8.598
USER: RMSD 9.732816
USER: SEED 92
USER: STATUS no improvement in best in 7 clusters for 5 generations
USER: GENES 26
USER: genes 0 Translation |==|  0.52151 0.48828 0.52462
USER: genes 1 Rotation |==|  0.57912 0.98880 0.56931 0.50277
USER: genes 2 Torsion [C]-CA--CB-[CG] |==|  0.28764
USER: genes 3 Torsion [CA]-CB--CG-[CD] |==|  0.37027
USER: genes 4 Torsion [CB]-CG--CD-[NE] |==|  0.75082
USER: genes 5 Torsion [CG]-CD--NE-[CZ] |==|  0.25580
USER: genes 6 Torsion [N]-CA--C-[N] |==|  0.36692
USER: genes 7 Torsion [C]-N--CA-[C] |==|  0.83164
USER: genes 8 Torsion [N]-CA--C-[N] |==|  0.39072
USER: genes 9 Torsion [C]-N--CA-[CB] |==|  0.85864
USER: genes 10 Torsion [N]-CA--C-[OXT] |==|  0.07230
USER: genes 11 Torsion [N]-CA--CB-[CG] |==|  0.90625
USER: genes 12 Torsion [CA]-CB--CG-[OD2] |==|  0.30714
USER: genes 13 Torsion [N]-CA--CB-[CG] |==|  0.81511
USER: genes 14 Torsion [CA]-CB--CG-[ND1] |==|  0.40229
USER: genes 15 Torsion [CB]-CA--N-[C] |==|  0.85556
USER: genes 16 Torsion [N]-C--CA-[N] |==|  0.44188
USER: genes 17 Torsion [C]-CA--CB-[CG] |==|  0.25473
USER: genes 18 Torsion [CA]-CB--CG-[CD2] |==|  0.28174
USER: genes 19 Torsion [C]-CA--N-[C] |==|  0.67028
USER: genes 20 Torsion [N]-C--CA-[N] |==|  0.13810
USER: genes 21 Torsion [C]-CA--CB-[CG] |==|  0.37006
USER: genes 22 Torsion [CA]-CB--CG-[CD] |==|  0.98503
USER: genes 23 Torsion [CB]-CG--CD-[OE1] |==|  0.20033
USER: genes 24 Torsion [C]-CA--N-[C] |==|  0.14685
USER: genes 25 Torsion [N]-C--CA-[N] |==|  0.91910
ROOT
ATOM      1  CA  ARG P   5     -21.882  26.068  13.441  1.00 25.78 LIG 0.18  C 
ENDROOT
BRANCH 1 2
ATOM      2  CB  ARG P   5     -21.753  24.687  14.108  1.00 22.44 LIG 0.04  C 
BRANCH 2 3
ATOM      3  CG  ARG P   5     -21.104  24.726  15.491  1.00 26.51 LIG 0.02  C 
BRANCH 3 4
ATOM      4  CD  ARG P   5     -21.884  23.897  16.518  1.00 28.41 LIG 0.14  C 
BRANCH 4 5
ATOM      5  NE  ARG P   5     -22.908  24.688  17.196  1.00 33.08 LIG-0.23  N 
ATOM      6  CZ  ARG P   5     -24.172  24.787  16.791  1.00 31.92 LIG 0.67  C 
ATOM      7  NH2 ARG P   5     -25.026  25.520  17.486  1.00 32.43 LIG-0.23  N 
ATOM      8  NH1 ARG P   5     -24.589  24.134  15.709  1.00 23.99 LIG-0.23  N 
ATOM      9 2HH2 ARG P   5     -25.844  25.587  17.228  1.00 32.43 LIG 0.17  HD
ATOM     10 1HH2 ARG P   5     -24.764  25.930  18.195  1.00 32.43 LIG 0.17  HD
ATOM     11 2HH1 ARG P   5     -25.408  24.203  15.453  1.00 23.99 LIG 0.17  HD
ATOM     12 1HH1 ARG P   5     -24.041  23.644  15.265  1.00 23.99 LIG 0.17  HD
ATOM     13 HE   ARG P   5     -22.678  25.120  17.904  1.00 33.08 LIG 0.18  HD
ENDBRANCH 4 5
ENDBRANCH 3 4
ENDBRANCH 2 3
ENDBRANCH 1 2
BRANCH 1 14
ATOM     14  C   ARG P   5     -20.816  26.238  12.359  1.00 22.77 LIG 0.24  C 
ATOM     15 O    ARG P   5     -20.913  25.642  11.281  1.00 23.41 LIG-0.27  OA
ATOM     16  N   HIS P   6     -19.792  27.034  12.654  1.00 20.21 LIG-0.35  N 
ATOM     17 H    HIS P   6     -19.701  27.439  13.407  1.00 20.21 LIG 0.16  HD
BRANCH 16 18
ATOM     18  CA  HIS P   6     -18.714  27.290  11.697  1.00 24.32 LIG 0.18  C 
BRANCH 18 19
ATOM     19  C   HIS P   6     -17.946  26.031  11.271  1.00 31.11 LIG 0.24  C 
ATOM     20  N   ASP P   7     -17.594  25.952   9.993  1.00 28.94 LIG-0.34  N 
ATOM     21 H    ASP P   7     -17.899  26.463   9.372  1.00 28.94 LIG 0.16  HD
ATOM     22 O    HIS P   6     -17.679  25.146  12.092  1.00 27.73 LIG-0.27  OA
BRANCH 20 23
ATOM     23  CA  ASP P   7     -16.628  24.951   9.541  1.00 30.45 LIG 0.20  C 
BRANCH 23 24
ATOM     24  C   ASP P   7     -17.247  23.539   9.519  1.00 38.41 LIG 0.20  C 
ATOM     25 OXT  ASP P   7     -18.458  23.368   9.383  1.00 43.84 LIG-0.65  OA
ATOM     26 O    ASP P   7     -16.566  22.516   9.651  1.00 36.31 LIG-0.65  OA
ENDBRANCH 23 24
BRANCH 23 27
ATOM     27  CB  ASP P   7     -15.369  24.997  10.408  1.00 42.34 LIG 0.15  C 
BRANCH 27 28
ATOM     28  CG  ASP P   7     -15.036  26.410  10.887  1.00 55.06 LIG 0.17  C 
ATOM     29 OD2  ASP P   7     -15.172  26.664  12.101  1.00 62.01 LIG-0.65  OA
ATOM     30 OD1  ASP P   7     -14.640  27.263  10.057  1.00 52.19 LIG-0.65  OA
ENDBRANCH 27 28
ENDBRANCH 23 27
ENDBRANCH 20 23
ENDBRANCH 18 19
BRANCH 18 31
ATOM     31  CB  HIS P   6     -17.743  28.313  12.259  1.00 25.23 LIG 0.10  C 
BRANCH 31 32
ATOM     32  CG  HIS P   6     -18.332  29.677  12.422  1.00 20.03 LIG 0.06  A 
ATOM     33 ND1  HIS P   6     -17.989  30.512  13.462  1.00 23.24 LIG-0.24  NA
ATOM     34  CE1 HIS P   6     -18.671  31.639  13.362  1.00 27.69 LIG 0.23  A 
ATOM     35 NE2  HIS P   6     -19.452  31.560  12.298  1.00 30.02 LIG-0.25  NA
ATOM     36  CD2 HIS P   6     -19.256  30.342  11.691  1.00 26.95 LIG 0.14  A 
ENDBRANCH 31 32
ENDBRANCH 18 31
ENDBRANCH 16 18
ENDBRANCH 1 14
BRANCH 1 37
ATOM     37  N   ARG P   5     -23.212  26.242  12.876  1.00 23.27 LIG-0.35  N 
ATOM     38 H    ARG P   5     -23.613  26.963  13.117  1.00 23.27 LIG 0.16  HD
ATOM     39  C   PHE P   4     -23.732  25.334  12.057  1.00 23.02 LIG 0.24  C 
ATOM     40 O    PHE P   4     -23.131  24.314  11.712  1.00 27.32 LIG-0.27  OA
BRANCH 39 41
ATOM     41  CA  PHE P   4     -25.118  25.621  11.536  1.00 26.78 LIG 0.18  C 
BRANCH 41 42
ATOM     42  CB  PHE P   4     -26.171  25.238  12.578  1.00 27.56 LIG 0.07  C 
BRANCH 42 43
ATOM     43  CG  PHE P   4     -26.572  26.363  13.514  1.00 23.05 LIG-0.06  A 
ATOM     44  CD2 PHE P   4     -27.764  27.059  13.315  1.00 26.81 LIG 0.01  A 
ATOM     45  CE2 PHE P   4     -28.139  28.123  14.152  1.00 20.39 LIG 0.00  A 
ATOM     46  CZ  PHE P   4     -27.299  28.502  15.202  1.00 15.29 LIG 0.00  A 
ATOM     47  CE1 PHE P   4     -26.098  27.811  15.406  1.00 22.67 LIG 0.00  A 
ATOM     48  CD1 PHE P   4     -25.737  26.757  14.560  1.00 22.68 LIG 0.01  A 
ENDBRANCH 42 43
ENDBRANCH 41 42
BRANCH 41 49
ATOM     49  N   PHE P   4     -25.289  24.828  10.327  1.00 24.27 LIG-0.35  N 
ATOM     50 H    PHE P   4     -25.231  23.979  10.449  1.00 24.27 LIG 0.16  HD
ATOM     51  C   GLU P   3     -25.514  25.393   9.144  1.00 33.66 LIG 0.24  C 
ATOM     52 O    GLU P   3     -25.696  26.601   8.989  1.00 34.99 LIG-0.27  OA
BRANCH 51 53
ATOM     53  CA  GLU P   3     -25.556  24.447   7.958  1.00 34.60 LIG 0.18  C 
BRANCH 53 54
ATOM     54  CB  GLU P   3     -25.999  25.215   6.713  1.00 27.84 LIG 0.04  C 
BRANCH 54 55
ATOM     55  CG  GLU P   3     -25.140  24.946   5.485  1.00 43.05 LIG 0.12  C 
BRANCH 55 56
ATOM     56  CD  GLU P   3     -23.948  24.069   5.799  1.00 49.21 LIG 0.17  C 
ATOM     57 OE1  GLU P   3     -24.150  22.858   6.033  1.00 52.28 LIG-0.65  OA
ATOM     58 OE2  GLU P   3     -22.811  24.589   5.810  1.00 52.44 LIG-0.65  OA
ENDBRANCH 55 56
ENDBRANCH 54 55
ENDBRANCH 53 54
BRANCH 53 59
ATOM     59  N   GLU P   3     -26.435  23.312   8.208  1.00 36.80 LIG-0.35  N 
ATOM     60 H    GLU P   3     -26.070  22.545   8.077  1.00 36.80 LIG 0.16  HD
ATOM     61  C   ALA P   2     -27.693  23.477   8.605  1.00 41.96 LIG 0.26  C 
ATOM     62 O    ALA P   2     -28.206  24.588   8.735  1.00 34.80 LIG-0.27  OA
BRANCH 61 63
ATOM     63  CA  ALA P   2     -28.490  22.196   8.892  1.00 47.40 LIG 0.40  C 
ATOM     64  CB  ALA P   2     -28.437  21.854  10.372  1.00 40.76 LIG 0.06  C 
ATOM     65  N   ALA P   2     -28.045  21.055   8.092  1.00 49.60 LIG 0.61  N 
ENDBRANCH 61 63
ENDBRANCH 53 59
ENDBRANCH 51 53
ENDBRANCH 41 49
ENDBRANCH 39 41
ENDBRANCH 1 37
TORSDOF 24
ENDMDL
MODEL 14
USER: ADFR SOLUTION from run 102
USER: SCORE 18.746408 LL:  -4.615 LR: -15.745 RR:   0.000 FEB:  -8.586
USER: RMSD 9.171385
USER: SEED 101
USER: STATUS no improvement in best in 9 clusters for 5 generations
USER: GENES 26
USER: genes 0 Translation |==|  0.44278 0.42571 0.45242
USER: genes 1 Rotation |==|  0.21811 0.38815 0.10326 0.52493
USER: genes 2 Torsion [C]-CA--CB-[CG] |==|  0.21796
USER: genes 3 Torsion [CA]-CB--CG-[CD] |==|  0.27191
USER: genes 4 Torsion [CB]-CG--CD-[NE] |==|  0.49792
USER: genes 5 Torsion [CG]-CD--NE-[CZ] |==|  0.57914
USER: genes 6 Torsion [N]-CA--C-[N] |==|  0.86280
USER: genes 7 Torsion [C]-N--CA-[C] |==|  0.66418
USER: genes 8 Torsion [N]-CA--C-[N] |==|  0.67182
USER: genes 9 Torsion [C]-N--CA-[CB] |==|  0.27940
USER: genes 10 Torsion [N]-CA--C-[OXT] |==|  0.45909
USER: genes 11 Torsion [N]-CA--CB-[CG] |==|  0.92138
USER: genes 12 Torsion [CA]-CB--CG-[OD2] |==|  0.74670
USER: genes 13 Torsion [N]-CA--CB-[CG] |==|  0.66774
USER: genes 14 Torsion [CA]-CB--CG-[ND1] |==|  0.15973
USER: genes 15 Torsion [CB]-CA--N-[C] |==|  0.22270
USER: genes 16 Torsion [N]-C--CA-[N] |==|  0.35017
USER: genes 17 Torsion [C]-CA--CB-[CG] |==|  0.06326
USER: genes 18 Torsion [CA]-CB--CG-[CD2] |==|  0.70165
USER: genes 19 Torsion [C]-CA--N-[C] |==|  0.77809
USER: genes 20 Torsion [N]-C--CA-[N] |==|  0.44443
USER: genes 21 Torsion [C]-CA--CB-[CG] |==|  0.83020
USER: genes 22 Torsion [CA]-CB--CG-[CD] |==|  0.74120
USER: genes 23 Torsion [CB]-CG--CD-[OE1] |==|  0.17636
USER: genes 24 Torsion [C]-CA--N-[C] |==|  0.70699
USER: genes 25 Torsion [N]-C--CA-[N] |==|  0.08487
ROOT
ATOM      1  CA  ARG P   5     -23.889  24.801  12.142  1.00 25.78 LIG 0.18  C 
ENDROOT
BRANCH 1 2
ATOM      2  CB  ARG P   5     -24.920  25.223  11.081  1.00 22.44 LIG 0.04  C 
BRANCH 2 3
ATOM      3  CG  ARG P   5     -25.187  24.158  10.018  1.00 26.51 LIG 0.02  C 
BRANCH 3 4
ATOM      4  CD  ARG P   5     -26.450  23.343  10.323  1.00 28.41 LIG 0.14  C 
BRANCH 4 5
ATOM      5  NE  ARG P   5     -26.712  22.336   9.297  1.00 33.08 LIG-0.23  N 
ATOM      6  CZ  ARG P   5     -27.923  21.881   8.984  1.00 31.92 LIG 0.67  C 
ATOM      7  NH2 ARG P   5     -28.055  20.977   8.027  1.00 32.43 LIG-0.23  N 
ATOM      8  NH1 ARG P   5     -29.004  22.345   9.607  1.00 23.99 LIG-0.23  N 
ATOM      9 2HH2 ARG P   5     -28.835  20.680   7.821  1.00 32.43 LIG 0.17  HD
ATOM     10 1HH2 ARG P   5     -27.360  20.687   7.611  1.00 32.43 LIG 0.17  HD
ATOM     11 2HH1 ARG P   5     -29.782  22.047   9.399  1.00 23.99 LIG 0.17  HD
ATOM     12 1HH1 ARG P   5     -28.923  22.945  10.218  1.00 23.99 LIG 0.17  HD
ATOM     13 HE   ARG P   5     -26.039  22.017   8.867  1.00 33.08 LIG 0.18  HD
ENDBRANCH 4 5
ENDBRANCH 3 4
ENDBRANCH 2 3
ENDBRANCH 1 2
BRANCH 1 14
ATOM     14  C   ARG P   5     -22.470  24.931  11.588  1.00 22.77 LIG 0.24  C 
ATOM     15 O    ARG P   5     -21.810  23.926  11.305  1.00 23.41 LIG-0.27  OA
ATOM     16  N   HIS P   6     -21.997  26.167  11.454  1.00 20.21 LIG-0.35  N 
ATOM     17 H    HIS P   6     -22.437  26.874  11.665  1.00 20.21 LIG 0.16  HD
BRANCH 16 18
ATOM     18  CA  HIS P   6     -20.658  26.425  10.921  1.00 24.32 LIG 0.18  C 
BRANCH 18 19
ATOM     19  C   HIS P   6     -19.741  27.191  11.885  1.00 31.11 LIG 0.24  C 
ATOM     20  N   ASP P   7     -19.308  28.379  11.478  1.00 28.94 LIG-0.34  N 
ATOM     21 H    ASP P   7     -19.371  28.668  10.670  1.00 28.94 LIG 0.16  HD
ATOM     22 O    HIS P   6     -19.432  26.710  12.981  1.00 27.73 LIG-0.27  OA
BRANCH 20 23
ATOM     23  CA  ASP P   7     -18.673  29.308  12.412  1.00 30.45 LIG 0.20  C 
BRANCH 23 24
ATOM     24  C   ASP P   7     -19.212  30.741  12.237  1.00 38.41 LIG 0.20  C 
ATOM     25 OXT  ASP P   7     -19.016  31.612  13.085  1.00 43.84 LIG-0.65  OA
ATOM     26 O    ASP P   7     -19.876  31.083  11.252  1.00 36.31 LIG-0.65  OA
ENDBRANCH 23 24
BRANCH 23 27
ATOM     27  CB  ASP P   7     -17.152  29.259  12.259  1.00 42.34 LIG 0.15  C 
BRANCH 27 28
ATOM     28  CG  ASP P   7     -16.652  27.901  11.768  1.00 55.06 LIG 0.17  C 
ATOM     29 OD2  ASP P   7     -16.345  27.045  12.623  1.00 62.01 LIG-0.65  OA
ATOM     30 OD1  ASP P   7     -16.564  27.688  10.535  1.00 52.19 LIG-0.65  OA
ENDBRANCH 27 28
ENDBRANCH 23 27
ENDBRANCH 20 23
ENDBRANCH 18 19
BRANCH 18 31
ATOM     31  CB  HIS P   6     -20.751  27.174   9.603  1.00 25.23 LIG 0.10  C 
BRANCH 31 32
ATOM     32  CG  HIS P   6     -20.147  26.441   8.450  1.00 20.03 LIG 0.06  A 
ATOM     33 ND1  HIS P   6     -20.558  25.180   8.078  1.00 23.24 LIG-0.24  NA
ATOM     34  CE1 HIS P   6     -19.844  24.775   7.042  1.00 27.69 LIG 0.23  A 
ATOM     35 NE2  HIS P   6     -18.977  25.726   6.737  1.00 30.02 LIG-0.25  NA
ATOM     36  CD2 HIS P   6     -19.148  26.780   7.602  1.00 26.95 LIG 0.14  A 
ENDBRANCH 31 32
ENDBRANCH 18 31
ENDBRANCH 16 18
ENDBRANCH 1 14
BRANCH 1 37
ATOM     37  N   ARG P   5     -24.039  25.601  13.348  1.00 23.27 LIG-0.35  N 
ATOM     38 H    ARG P   5     -23.477  26.247  13.423  1.00 23.27 LIG 0.16  HD
ATOM     39  C   PHE P   4     -24.983  25.323  14.241  1.00 23.02 LIG 0.24  C 
ATOM     40 O    PHE P   4     -25.790  24.400  14.104  1.00 27.32 LIG-0.27  OA
BRANCH 39 41
ATOM     41  CA  PHE P   4     -25.041  26.220  15.452  1.00 26.78 LIG 0.18  C 
BRANCH 41 42
ATOM     42  CB  PHE P   4     -24.680  25.434  16.716  1.00 27.56 LIG 0.07  C 
BRANCH 42 43
ATOM     43  CG  PHE P   4     -23.852  24.187  16.469  1.00 23.05 LIG-0.06  A 
ATOM     44  CD2 PHE P   4     -24.423  22.921  16.598  1.00 26.81 LIG 0.01  A 
ATOM     45  CE2 PHE P   4     -23.667  21.753  16.402  1.00 20.39 LIG 0.00  A 
ATOM     46  CZ  PHE P   4     -22.311  21.857  16.078  1.00 15.29 LIG 0.00  A 
ATOM     47  CE1 PHE P   4     -21.729  23.125  15.950  1.00 22.67 LIG 0.00  A 
ATOM     48  CD1 PHE P   4     -22.496  24.278  16.154  1.00 22.68 LIG 0.01  A 
ENDBRANCH 42 43
ENDBRANCH 41 42
BRANCH 41 49
ATOM     49  N   PHE P   4     -26.404  26.724  15.541  1.00 24.27 LIG-0.35  N 
ATOM     50 H    PHE P   4     -26.898  26.313  16.114  1.00 24.27 LIG 0.16  HD
ATOM     51  C   GLU P   3     -26.827  27.736  14.790  1.00 33.66 LIG 0.24  C 
ATOM     52 O    GLU P   3     -26.092  28.386  14.046  1.00 34.99 LIG-0.27  OA
BRANCH 51 53
ATOM     53  CA  GLU P   3     -28.301  28.076  14.909  1.00 34.60 LIG 0.18  C 
BRANCH 53 54
ATOM     54  CB  GLU P   3     -29.122  27.055  14.123  1.00 27.84 LIG 0.04  C 
BRANCH 54 55
ATOM     55  CG  GLU P   3     -28.808  27.024  12.634  1.00 43.05 LIG 0.12  C 
BRANCH 55 56
ATOM     56  CD  GLU P   3     -29.727  27.923  11.835  1.00 49.21 LIG 0.17  C 
ATOM     57 OE1  GLU P   3     -29.687  29.153  12.055  1.00 52.28 LIG-0.65  OA
ATOM     58 OE2  GLU P   3     -30.485  27.402  10.989  1.00 52.44 LIG-0.65  OA
ENDBRANCH 55 56
ENDBRANCH 54 55
ENDBRANCH 53 54
BRANCH 53 59
ATOM     59  N   GLU P   3     -28.578  29.431  14.447  1.00 36.80 LIG-0.35  N 
ATOM     60 H    GLU P   3     -28.559  29.525  13.593  1.00 36.80 LIG 0.16  HD
ATOM     61  C   ALA P   2     -28.835  30.419  15.297  1.00 41.96 LIG 0.26  C 
ATOM     62 O    ALA P   2     -28.805  30.267  16.518  1.00 34.80 LIG-0.27  OA
BRANCH 61 63
ATOM     63  CA  ALA P   2     -29.171  31.783  14.675  1.00 47.40 LIG 0.40  C 
ATOM     64  CB  ALA P   2     -30.016  32.612  15.629  1.00 40.76 LIG 0.06  C 
ATOM     65  N   ALA P   2     -29.836  31.670  13.377  1.00 49.60 LIG 0.61  N 
ENDBRANCH 61 63
ENDBRANCH 53 59
ENDBRANCH 51 53
ENDBRANCH 41 49
ENDBRANCH 39 41
ENDBRANCH 1 37
TORSDOF 24
ENDMDL
MODEL 15
USER: ADFR SOLUTION from run 116
USER: SCORE 20.334414 LL:  -5.443 LR: -15.744 RR:   0.000 FEB:  -8.585
USER: RMSD 9.896596
USER: SEED 115
USER: STATUS searching
USER: GENES 26
USER: genes 0 Translation |==|  0.39305 0.42634 0.46011
USER: genes 1 Rotation |==|  0.37705 0.32551 0.04863 0.52644
USER: genes 2 Torsion [C]-CA--CB-[CG] |==|  0.50617
USER: genes 3 Torsion [CA]-CB--CG-[CD] |==|  0.81082
USER: genes 4 Torsion [CB]-CG--CD-[NE] |==|  0.69459
USER: genes 5 Torsion [CG]-CD--NE-[CZ] |==|  0.70070
USER: genes 6 Torsion [N]-CA--C-[N] |==|  0.37123
USER: genes 7 Torsion [C]-N--CA-[C] |==|  0.69595
USER: genes 8 Torsion [N]-CA--C-[N] |==|  0.37080
USER: genes 9 Torsion [C]-N--CA-[CB] |==|  0.28255
USER: genes 10 Torsion [N]-CA--C-[OXT] |==|  0.95822
USER: genes 11 Torsion [N]-CA--CB-[CG] |==|  0.80697
USER: genes 12 Torsion [CA]-CB--CG-[OD2] |==|  0.77104
USER: genes 13 Torsion [N]-CA--CB-[CG] |==|  0.11336
USER: genes 14 Torsion [CA]-CB--CG-[ND1] |==|  0.67743
USER: genes 15 Torsion [CB]-CA--N-[C] |==|  0.84297
USER: genes 16 Torsion [N]-C--CA-[N] |==|  0.81173
USER: genes 17 Torsion [C]-CA--CB-[CG] |==|  0.07881
USER: genes 18 Torsion [CA]-CB--CG-[CD2] |==|  0.16562
USER: genes 19 Torsion [C]-CA--N-[C] |==|  0.73924
USER: genes 20 Torsion [N]-C--CA-[N] |==|  0.47606
USER: genes 21 Torsion [C]-CA--CB-[CG] |==|  0.60051
USER: genes 22 Torsion [CA]-CB--CG-[CD] |==|  0.24721
USER: genes 23 Torsion [CB]-CG--CD-[OE1] |==|  0.18944
USER: genes 24 Torsion [C]-CA--N-[C] |==|  0.62212
USER: genes 25 Torsion [N]-C--CA-[N] |==|  0.18892
ROOT
ATOM      1  CA  ARG P   5     -25.157  24.813  12.280  1.00 25.78 LIG 0.18  C 
ENDROOT
BRANCH 1 2
ATOM      2  CB  ARG P   5     -25.382  24.892  10.760  1.00 22.44 LIG 0.04  C 
BRANCH 2 3
ATOM      3  CG  ARG P   5     -26.767  24.426  10.314  1.00 26.51 LIG 0.02  C 
BRANCH 3 4
ATOM      4  CD  ARG P   5     -26.963  22.919  10.520  1.00 28.41 LIG 0.14  C 
BRANCH 4 5
ATOM      5  NE  ARG P   5     -27.011  22.196   9.251  1.00 33.08 LIG-0.23  N 
ATOM      6  CZ  ARG P   5     -28.116  21.666   8.729  1.00 31.92 LIG 0.67  C 
ATOM      7  NH2 ARG P   5     -28.055  21.041   7.565  1.00 32.43 LIG-0.23  N 
ATOM      8  NH1 ARG P   5     -29.283  21.781   9.358  1.00 23.99 LIG-0.23  N 
ATOM      9 2HH2 ARG P   5     -28.766  20.698   7.224  1.00 32.43 LIG 0.17  HD
ATOM     10 1HH2 ARG P   5     -27.305  20.980   7.149  1.00 32.43 LIG 0.17  HD
ATOM     11 2HH1 ARG P   5     -29.993  21.436   9.015  1.00 23.99 LIG 0.17  HD
ATOM     12 1HH1 ARG P   5     -29.329  22.200  10.106  1.00 23.99 LIG 0.17  HD
ATOM     13 HE   ARG P   5     -26.277  22.106   8.812  1.00 33.08 LIG 0.18  HD
ENDBRANCH 4 5
ENDBRANCH 3 4
ENDBRANCH 2 3
ENDBRANCH 1 2
BRANCH 1 14
ATOM     14  C   ARG P   5     -23.772  25.348  12.643  1.00 22.77 LIG 0.24  C 
ATOM     15 O    ARG P   5     -23.544  26.562  12.638  1.00 23.41 LIG-0.27  OA
ATOM     16  N   HIS P   6     -22.845  24.441  12.937  1.00 20.21 LIG-0.35  N 
ATOM     17 H    HIS P   6     -22.983  23.592  12.925  1.00 20.21 LIG 0.16  HD
BRANCH 16 18
ATOM     18  CA  HIS P   6     -21.483  24.825  13.314  1.00 24.32 LIG 0.18  C 
BRANCH 18 19
ATOM     19  C   HIS P   6     -20.426  24.498  12.251  1.00 31.11 LIG 0.24  C 
ATOM     20  N   ASP P   7     -19.553  25.458  11.962  1.00 28.94 LIG-0.34  N 
ATOM     21 H    ASP P   7     -19.638  26.279  12.203  1.00 28.94 LIG 0.16  HD
ATOM     22 O    HIS P   6     -20.404  23.390  11.701  1.00 27.73 LIG-0.27  OA
BRANCH 20 23
ATOM     23  CA  ASP P   7     -18.348  25.168  11.187  1.00 30.45 LIG 0.20  C 
BRANCH 23 24
ATOM     24  C   ASP P   7     -17.099  25.807  11.826  1.00 38.41 LIG 0.20  C 
ATOM     25 OXT  ASP P   7     -17.192  26.680  12.689  1.00 43.84 LIG-0.65  OA
ATOM     26 O    ASP P   7     -15.951  25.487  11.498  1.00 36.31 LIG-0.65  OA
ENDBRANCH 23 24
BRANCH 23 27
ATOM     27  CB  ASP P   7     -18.527  25.619   9.736  1.00 42.34 LIG 0.15  C 
BRANCH 27 28
ATOM     28  CG  ASP P   7     -19.536  24.762   8.973  1.00 55.06 LIG 0.17  C 
ATOM     29 OD2  ASP P   7     -19.141  23.680   8.491  1.00 62.01 LIG-0.65  OA
ATOM     30 OD1  ASP P   7     -20.718  25.165   8.853  1.00 52.19 LIG-0.65  OA
ENDBRANCH 27 28
ENDBRANCH 23 27
ENDBRANCH 20 23
ENDBRANCH 18 19
BRANCH 18 31
ATOM     31  CB  HIS P   6     -21.098  24.176  14.632  1.00 25.23 LIG 0.10  C 
BRANCH 31 32
ATOM     32  CG  HIS P   6     -21.553  22.758  14.759  1.00 20.03 LIG 0.06  A 
ATOM     33 ND1  HIS P   6     -22.465  22.357  15.711  1.00 23.24 LIG-0.24  NA
ATOM     34  CE1 HIS P   6     -22.668  21.056  15.601  1.00 27.69 LIG 0.23  A 
ATOM     35 NE2  HIS P   6     -21.912  20.598  14.617  1.00 30.02 LIG-0.25  NA
ATOM     36  CD2 HIS P   6     -21.207  21.645  14.073  1.00 26.95 LIG 0.14  A 
ENDBRANCH 31 32
ENDBRANCH 18 31
ENDBRANCH 16 18
ENDBRANCH 1 14
BRANCH 1 37
ATOM     37  N   ARG P   5     -26.190  25.556  12.989  1.00 23.27 LIG-0.35  N 
ATOM     38 H    ARG P   5     -26.630  25.096  13.566  1.00 23.27 LIG 0.16  HD
ATOM     39  C   PHE P   4     -26.404  26.842  12.735  1.00 23.02 LIG 0.24  C 
ATOM     40 O    PHE P   4     -25.748  27.486  11.913  1.00 27.32 LIG-0.27  OA
BRANCH 39 41
ATOM     41  CA  PHE P   4     -27.501  27.506  13.530  1.00 26.78 LIG 0.18  C 
BRANCH 41 42
ATOM     42  CB  PHE P   4     -27.294  27.268  15.028  1.00 27.56 LIG 0.07  C 
BRANCH 42 43
ATOM     43  CG  PHE P   4     -25.847  27.078  15.443  1.00 23.05 LIG-0.06  A 
ATOM     44  CD2 PHE P   4     -24.906  28.080  15.207  1.00 26.81 LIG 0.01  A 
ATOM     45  CE2 PHE P   4     -23.555  27.912  15.556  1.00 20.39 LIG 0.00  A 
ATOM     46  CZ  PHE P   4     -23.139  26.714  16.145  1.00 15.29 LIG 0.00  A 
ATOM     47  CE1 PHE P   4     -24.079  25.702  16.381  1.00 22.67 LIG 0.00  A 
ATOM     48  CD1 PHE P   4     -25.419  25.884  16.023  1.00 22.68 LIG 0.01  A 
ENDBRANCH 42 43
ENDBRANCH 41 42
BRANCH 41 49
ATOM     49  N   PHE P   4     -28.758  26.916  13.092  1.00 24.27 LIG-0.35  N 
ATOM     50 H    PHE P   4     -28.972  26.191  13.502  1.00 24.27 LIG 0.16  HD
ATOM     51  C   GLU P   3     -29.497  27.471  12.135  1.00 33.66 LIG 0.24  C 
ATOM     52 O    GLU P   3     -29.240  28.559  11.621  1.00 34.99 LIG-0.27  OA
BRANCH 51 53
ATOM     53  CA  GLU P   3     -30.721  26.683  11.705  1.00 34.60 LIG 0.18  C 
BRANCH 53 54
ATOM     54  CB  GLU P   3     -30.278  25.378  11.046  1.00 27.84 LIG 0.04  C 
BRANCH 54 55
ATOM     55  CG  GLU P   3     -31.158  24.945   9.882  1.00 43.05 LIG 0.12  C 
BRANCH 55 56
ATOM     56  CD  GLU P   3     -30.691  25.523   8.564  1.00 49.21 LIG 0.17  C 
ATOM     57 OE1  GLU P   3     -29.605  25.121   8.095  1.00 52.28 LIG-0.65  OA
ATOM     58 OE2  GLU P   3     -31.409  26.375   7.998  1.00 52.44 LIG-0.65  OA
ENDBRANCH 55 56
ENDBRANCH 54 55
ENDBRANCH 53 54
BRANCH 53 59
ATOM     59  N   GLU P   3     -31.568  27.458  10.807  1.00 36.80 LIG-0.35  N 
ATOM     60 H    GLU P   3     -31.140  27.885  10.196  1.00 36.80 LIG 0.16  HD
ATOM     61  C   ALA P   2     -32.890  27.484  10.944  1.00 41.96 LIG 0.26  C 
ATOM     62 O    ALA P   2     -33.472  26.903  11.859  1.00 34.80 LIG-0.27  OA
BRANCH 61 63
ATOM     63  CA  ALA P   2     -33.668  28.289   9.892  1.00 47.40 LIG 0.40  C 
ATOM     64  CB  ALA P   2     -35.111  28.483  10.327  1.00 40.76 LIG 0.06  C 
ATOM     65  N   ALA P   2     -33.617  27.686   8.559  1.00 49.60 LIG 0.61  N 
ENDBRANCH 61 63
ENDBRANCH 53 59
ENDBRANCH 51 53
ENDBRANCH 41 49
ENDBRANCH 39 41
ENDBRANCH 1 37
TORSDOF 24
ENDMDL
MODEL 16
USER: ADFR SOLUTION from run 116
USER: SCORE 19.578227 LL:  -5.085 LR: -15.670 RR:   0.000 FEB:  -8.511
USER: RMSD 9.276254
USER: SEED 115
USER: STATUS searching
USER: GENES 26
USER: genes 0 Translation |==|  0.40385 0.42370 0.43886
USER: genes 1 Rotation |==|  0.34203 0.35262 0.04947 0.51853
USER: genes 2 Torsion [C]-CA--CB-[CG] |==|  0.48189
USER: genes 3 Torsion [CA]-CB--CG-[CD] |==|  0.84191
USER: genes 4 Torsion [CB]-CG--CD-[NE] |==|  0.69789
USER: genes 5 Torsion [CG]-CD--NE-[CZ] |==|  0.71126
USER: genes 6 Torsion [N]-CA--C-[N] |==|  0.22369
USER: genes 7 Torsion [C]-N--CA-[C] |==|  0.84289
USER: genes 8 Torsion [N]-CA--C-[N] |==|  0.36778
USER: genes 9 Torsion [C]-N--CA-[CB] |==|  0.27887
USER: genes 10 Torsion [N]-CA--C-[OXT] |==|  0.93817
USER: genes 11 Torsion [N]-CA--CB-[CG] |==|  0.77686
USER: genes 12 Torsion [CA]-CB--CG-[OD2] |==|  0.81132
USER: genes 13 Torsion [N]-CA--CB-[CG] |==|  0.14777
USER: genes 14 Torsion [CA]-CB--CG-[ND1] |==|  0.72669
USER: genes 15 Torsion [CB]-CA--N-[C] |==|  0.78889
USER: genes 16 Torsion [N]-C--CA-[N] |==|  0.77418
USER: genes 17 Torsion [C]-CA--CB-[CG] |==|  0.15150
USER: genes 18 Torsion [CA]-CB--CG-[CD2] |==|  0.22629
USER: genes 19 Torsion [C]-CA--N-[C] |==|  0.72718
USER: genes 20 Torsion [N]-C--CA-[N] |==|  0.47063
USER: genes 21 Torsion [C]-CA--CB-[CG] |==|  0.48698
USER: genes 22 Torsion [CA]-CB--CG-[CD] |==|  0.20717
USER: genes 23 Torsion [CB]-CG--CD-[OE1] |==|  0.16357
USER: genes 24 Torsion [C]-CA--N-[C] |==|  0.67687
USER: genes 25 Torsion [N]-C--CA-[N] |==|  0.18932
ROOT
ATOM      1  CA  ARG P   5     -24.882  24.760  11.898  1.00 25.78 LIG 0.18  C 
ENDROOT
BRANCH 1 2
ATOM      2  CB  ARG P   5     -25.273  24.993  10.428  1.00 22.44 LIG 0.04  C 
BRANCH 2 3
ATOM      3  CG  ARG P   5     -26.680  24.509  10.078  1.00 26.51 LIG 0.02  C 
BRANCH 3 4
ATOM      4  CD  ARG P   5     -26.873  23.020  10.392  1.00 28.41 LIG 0.14  C 
BRANCH 4 5
ATOM      5  NE  ARG P   5     -26.955  22.212   9.177  1.00 33.08 LIG-0.23  N 
ATOM      6  CZ  ARG P   5     -28.085  21.711   8.683  1.00 31.92 LIG 0.67  C 
ATOM      7  NH2 ARG P   5     -28.054  21.002   7.567  1.00 32.43 LIG-0.23  N 
ATOM      8  NH1 ARG P   5     -29.249  21.940   9.288  1.00 23.99 LIG-0.23  N 
ATOM      9 2HH2 ARG P   5     -28.782  20.677   7.243  1.00 32.43 LIG 0.17  HD
ATOM     10 1HH2 ARG P   5     -27.306  20.867   7.165  1.00 32.43 LIG 0.17  HD
ATOM     11 2HH1 ARG P   5     -29.975  21.614   8.963  1.00 23.99 LIG 0.17  HD
ATOM     12 1HH1 ARG P   5     -29.274  22.414  10.005  1.00 23.99 LIG 0.17  HD
ATOM     13 HE   ARG P   5     -26.225  22.048   8.754  1.00 33.08 LIG 0.18  HD
ENDBRANCH 4 5
ENDBRANCH 3 4
ENDBRANCH 2 3
ENDBRANCH 1 2
BRANCH 1 14
ATOM     14  C   ARG P   5     -23.414  25.121  12.122  1.00 22.77 LIG 0.24  C 
ATOM     15 O    ARG P   5     -22.831  25.892  11.353  1.00 23.41 LIG-0.27  OA
ATOM     16  N   HIS P   6     -22.815  24.549  13.163  1.00 20.21 LIG-0.35  N 
ATOM     17 H    HIS P   6     -23.202  23.995  13.694  1.00 20.21 LIG 0.16  HD
BRANCH 16 18
ATOM     18  CA  HIS P   6     -21.415  24.824  13.493  1.00 24.32 LIG 0.18  C 
BRANCH 18 19
ATOM     19  C   HIS P   6     -20.435  24.533  12.348  1.00 31.11 LIG 0.24  C 
ATOM     20  N   ASP P   7     -19.538  25.474  12.077  1.00 28.94 LIG-0.34  N 
ATOM     21 H    ASP P   7     -19.571  26.279  12.380  1.00 28.94 LIG 0.16  HD
ATOM     22 O    HIS P   6     -20.495  23.469  11.720  1.00 27.73 LIG-0.27  OA
BRANCH 20 23
ATOM     23  CA  ASP P   7     -18.392  25.194  11.212  1.00 30.45 LIG 0.20  C 
BRANCH 23 24
ATOM     24  C   ASP P   7     -17.087  25.760  11.804  1.00 38.41 LIG 0.20  C 
ATOM     25 OXT  ASP P   7     -17.095  26.679  12.622  1.00 43.84 LIG-0.65  OA
ATOM     26 O    ASP P   7     -15.973  25.332  11.479  1.00 36.31 LIG-0.65  OA
ENDBRANCH 23 24
BRANCH 23 27
ATOM     27  CB  ASP P   7     -18.646  25.728   9.802  1.00 42.34 LIG 0.15  C 
BRANCH 27 28
ATOM     28  CG  ASP P   7     -19.526  24.797   8.968  1.00 55.06 LIG 0.17  C 
ATOM     29 OD2  ASP P   7     -19.055  23.691   8.633  1.00 62.01 LIG-0.65  OA
ATOM     30 OD1  ASP P   7     -20.680  25.168   8.646  1.00 52.19 LIG-0.65  OA
ENDBRANCH 27 28
ENDBRANCH 23 27
ENDBRANCH 20 23
ENDBRANCH 18 19
BRANCH 18 31
ATOM     31  CB  HIS P   6     -21.002  24.042  14.727  1.00 25.23 LIG 0.10  C 
BRANCH 31 32
ATOM     32  CG  HIS P   6     -21.277  22.577  14.632  1.00 20.03 LIG 0.06  A 
ATOM     33 ND1  HIS P   6     -22.392  21.995  15.195  1.00 23.24 LIG-0.24  NA
ATOM     34  CE1 HIS P   6     -22.368  20.694  14.967  1.00 27.69 LIG 0.23  A 
ATOM     35 NE2  HIS P   6     -21.271  20.410  14.286  1.00 30.02 LIG-0.25  NA
ATOM     36  CD2 HIS P   6     -20.573  21.572  14.061  1.00 26.95 LIG 0.14  A 
ENDBRANCH 31 32
ENDBRANCH 18 31
ENDBRANCH 16 18
ENDBRANCH 1 14
BRANCH 1 37
ATOM     37  N   ARG P   5     -25.737  25.535  12.784  1.00 23.27 LIG-0.35  N 
ATOM     38 H    ARG P   5     -26.342  25.078  13.190  1.00 23.27 LIG 0.16  HD
ATOM     39  C   PHE P   4     -25.566  26.845  12.928  1.00 23.02 LIG 0.24  C 
ATOM     40 O    PHE P   4     -24.681  27.477  12.347  1.00 27.32 LIG-0.27  OA
BRANCH 39 41
ATOM     41  CA  PHE P   4     -26.513  27.543  13.872  1.00 26.78 LIG 0.18  C 
BRANCH 41 42
ATOM     42  CB  PHE P   4     -26.788  26.668  15.098  1.00 27.56 LIG 0.07  C 
BRANCH 42 43
ATOM     43  CG  PHE P   4     -25.544  26.210  15.837  1.00 23.05 LIG-0.06  A 
ATOM     44  CD2 PHE P   4     -24.910  27.055  16.747  1.00 26.81 LIG 0.01  A 
ATOM     45  CE2 PHE P   4     -23.741  26.662  17.420  1.00 20.39 LIG 0.00  A 
ATOM     46  CZ  PHE P   4     -23.193  25.401  17.169  1.00 15.29 LIG 0.00  A 
ATOM     47  CE1 PHE P   4     -23.822  24.547  16.253  1.00 22.67 LIG 0.00  A 
ATOM     48  CD1 PHE P   4     -24.983  24.957  15.588  1.00 22.68 LIG 0.01  A 
ENDBRANCH 42 43
ENDBRANCH 41 42
BRANCH 41 49
ATOM     49  N   PHE P   4     -27.746  27.784  13.135  1.00 24.27 LIG-0.35  N 
ATOM     50 H    PHE P   4     -28.275  27.107  13.098  1.00 24.27 LIG 0.16  HD
ATOM     51  C   GLU P   3     -28.008  28.960  12.574  1.00 33.66 LIG 0.24  C 
ATOM     52 O    GLU P   3     -27.297  29.955  12.713  1.00 34.99 LIG-0.27  OA
BRANCH 51 53
ATOM     53  CA  GLU P   3     -29.276  29.028  11.742  1.00 34.60 LIG 0.18  C 
BRANCH 53 54
ATOM     54  CB  GLU P   3     -29.111  28.159  10.496  1.00 27.84 LIG 0.04  C 
BRANCH 54 55
ATOM     55  CG  GLU P   3     -30.367  28.062   9.641  1.00 43.05 LIG 0.12  C 
BRANCH 55 56
ATOM     56  CD  GLU P   3     -30.627  29.330   8.856  1.00 49.21 LIG 0.17  C 
ATOM     57 OE1  GLU P   3     -29.747  29.720   8.059  1.00 52.28 LIG-0.65  OA
ATOM     58 OE2  GLU P   3     -31.707  29.932   9.034  1.00 52.44 LIG-0.65  OA
ENDBRANCH 55 56
ENDBRANCH 54 55
ENDBRANCH 53 54
BRANCH 53 59
ATOM     59  N   GLU P   3     -29.607  30.400  11.379  1.00 36.80 LIG-0.35  N 
ATOM     60 H    GLU P   3     -29.025  30.784  10.876  1.00 36.80 LIG 0.16  HD
ATOM     61  C   ALA P   2     -30.721  30.986  11.805  1.00 41.96 LIG 0.26  C 
ATOM     62 O    ALA P   2     -31.511  30.430  12.567  1.00 34.80 LIG-0.27  OA
BRANCH 61 63
ATOM     63  CA  ALA P   2     -30.978  32.413  11.298  1.00 47.40 LIG 0.40  C 
ATOM     64  CB  ALA P   2     -32.103  33.065  12.084  1.00 40.76 LIG 0.06  C 
ATOM     65  N   ALA P   2     -31.265  32.465   9.864  1.00 49.60 LIG 0.61  N 
ENDBRANCH 61 63
ENDBRANCH 53 59
ENDBRANCH 51 53
ENDBRANCH 41 49
ENDBRANCH 39 41
ENDBRANCH 1 37
TORSDOF 24
ENDMDL
MODEL 17
USER: ADFR SOLUTION from run 102
USER: SCORE 19.110063 LL:  -4.852 LR: -15.663 RR:   0.000 FEB:  -8.504
USER: RMSD 9.053358
USER: SEED 101
USER: STATUS no improvement in best in 9 clusters for 5 generations
USER: GENES 26
USER: genes 0 Translation |==|  0.43994 0.46111 0.45157
USER: genes 1 Rotation |==|  0.69661 0.70646 0.90318 0.57853
USER: genes 2 Torsion [C]-CA--CB-[CG] |==|  0.26916
USER: genes 3 Torsion [CA]-CB--CG-[CD] |==|  0.32669
USER: genes 4 Torsion [CB]-CG--CD-[NE] |==|  0.43145
USER: genes 5 Torsion [CG]-CD--NE-[CZ] |==|  0.45467
USER: genes 6 Torsion [N]-CA--C-[N] |==|  0.06139
USER: genes 7 Torsion [C]-N--CA-[C] |==|  0.21934
USER: genes 8 Torsion [N]-CA--C-[N] |==|  0.36663
USER: genes 9 Torsion [C]-N--CA-[CB] |==|  0.39986
USER: genes 10 Torsion [N]-CA--C-[OXT] |==|  0.46792
USER: genes 11 Torsion [N]-CA--CB-[CG] |==|  0.94127
USER: genes 12 Torsion [CA]-CB--CG-[OD2] |==|  0.69916
USER: genes 13 Torsion [N]-CA--CB-[CG] |==|  0.84672
USER: genes 14 Torsion [CA]-CB--CG-[ND1] |==|  0.36030
USER: genes 15 Torsion [CB]-CA--N-[C] |==|  0.18333
USER: genes 16 Torsion [N]-C--CA-[N] |==|  0.40856
USER: genes 17 Torsion [C]-CA--CB-[CG] |==|  0.09907
USER: genes 18 Torsion [CA]-CB--CG-[CD2] |==|  0.20224
USER: genes 19 Torsion [C]-CA--N-[C] |==|  0.65799
USER: genes 20 Torsion [N]-C--CA-[N] |==|  0.01451
USER: genes 21 Torsion [C]-CA--CB-[CG] |==|  0.81587
USER: genes 22 Torsion [CA]-CB--CG-[CD] |==|  0.72936
USER: genes 23 Torsion [CB]-CG--CD-[OE1] |==|  0.07697
USER: genes 24 Torsion [C]-CA--N-[C] |==|  0.76928
USER: genes 25 Torsion [N]-C--CA-[N] |==|  0.15010
ROOT
ATOM      1  CA  ARG P   5     -23.962  25.518  12.126  1.00 25.78 LIG 0.18  C 
ENDROOT
BRANCH 1 2
ATOM      2  CB  ARG P   5     -24.465  25.298  10.689  1.00 22.44 LIG 0.04  C 
BRANCH 2 3
ATOM      3  CG  ARG P   5     -24.894  23.861  10.396  1.00 26.51 LIG 0.02  C 
BRANCH 3 4
ATOM      4  CD  ARG P   5     -26.382  23.765  10.037  1.00 28.41 LIG 0.14  C 
BRANCH 4 5
ATOM      5  NE  ARG P   5     -26.673  22.586   9.226  1.00 33.08 LIG-0.23  N 
ATOM      6  CZ  ARG P   5     -27.893  22.087   9.035  1.00 31.92 LIG 0.67  C 
ATOM      7  NH2 ARG P   5     -28.052  21.021   8.269  1.00 32.43 LIG-0.23  N 
ATOM      8  NH1 ARG P   5     -28.956  22.669   9.588  1.00 23.99 LIG-0.23  N 
ATOM      9 2HH2 ARG P   5     -28.839  20.696   8.143  1.00 32.43 LIG 0.17  HD
ATOM     10 1HH2 ARG P   5     -27.370  20.654   7.897  1.00 32.43 LIG 0.17  HD
ATOM     11 2HH1 ARG P   5     -29.740  22.341   9.460  1.00 23.99 LIG 0.17  HD
ATOM     12 1HH1 ARG P   5     -28.857  23.371  10.073  1.00 23.99 LIG 0.17  HD
ATOM     13 HE   ARG P   5     -26.013  22.186   8.846  1.00 33.08 LIG 0.18  HD
ENDBRANCH 4 5
ENDBRANCH 3 4
ENDBRANCH 2 3
ENDBRANCH 1 2
BRANCH 1 14
ATOM     14  C   ARG P   5     -22.435  25.449  12.173  1.00 22.77 LIG 0.24  C 
ATOM     15 O    ARG P   5     -21.818  24.657  11.453  1.00 23.41 LIG-0.27  OA
ATOM     16  N   HIS P   6     -21.831  26.263  13.034  1.00 20.21 LIG-0.35  N 
ATOM     17 H    HIS P   6     -22.248  26.805  13.555  1.00 20.21 LIG 0.16  HD
BRANCH 16 18
ATOM     18  CA  HIS P   6     -20.373  26.303  13.164  1.00 24.32 LIG 0.18  C 
BRANCH 18 19
ATOM     19  C   HIS P   6     -19.671  27.108  12.062  1.00 31.11 LIG 0.24  C 
ATOM     20  N   ASP P   7     -18.757  27.988  12.458  1.00 28.94 LIG-0.34  N 
ATOM     21 H    ASP P   7     -18.652  28.246  13.272  1.00 28.94 LIG 0.16  HD
ATOM     22 O    HIS P   6     -19.954  26.932  10.872  1.00 27.73 LIG-0.27  OA
BRANCH 20 23
ATOM     23  CA  ASP P   7     -17.836  28.597  11.499  1.00 30.45 LIG 0.20  C 
BRANCH 23 24
ATOM     24  C   ASP P   7     -16.531  27.787  11.378  1.00 38.41 LIG 0.20  C 
ATOM     25 OXT  ASP P   7     -15.717  28.006  10.481  1.00 43.84 LIG-0.65  OA
ATOM     26 O    ASP P   7     -16.244  26.874  12.160  1.00 36.31 LIG-0.65  OA
ENDBRANCH 23 24
BRANCH 23 27
ATOM     27  CB  ASP P   7     -17.559  30.052  11.879  1.00 42.34 LIG 0.15  C 
BRANCH 27 28
ATOM     28  CG  ASP P   7     -18.641  30.643  12.782  1.00 55.06 LIG 0.17  C 
ATOM     29 OD2  ASP P   7     -19.415  31.491  12.293  1.00 62.01 LIG-0.65  OA
ATOM     30 OD1  ASP P   7     -18.720  30.264  13.976  1.00 52.19 LIG-0.65  OA
ENDBRANCH 27 28
ENDBRANCH 23 27
ENDBRANCH 20 23
ENDBRANCH 18 19
BRANCH 18 31
ATOM     31  CB  HIS P   6     -19.810  24.893  13.202  1.00 25.23 LIG 0.10  C 
BRANCH 31 32
ATOM     32  CG  HIS P   6     -20.408  24.034  14.268  1.00 20.03 LIG 0.06  A 
ATOM     33 ND1  HIS P   6     -20.906  22.775  14.012  1.00 23.24 LIG-0.24  NA
ATOM     34  CE1 HIS P   6     -21.382  22.257  15.130  1.00 27.69 LIG 0.23  A 
ATOM     35 NE2  HIS P   6     -21.219  23.140  16.101  1.00 30.02 LIG-0.25  NA
ATOM     36  CD2 HIS P   6     -20.609  24.260  15.587  1.00 26.95 LIG 0.14  A 
ENDBRANCH 31 32
ENDBRANCH 18 31
ENDBRANCH 16 18
ENDBRANCH 1 14
BRANCH 1 37
ATOM     37  N   ARG P   5     -24.429  26.796  12.643  1.00 23.27 LIG-0.35  N 
ATOM     38 H    ARG P   5     -23.808  27.372  12.791  1.00 23.27 LIG 0.16  HD
ATOM     39  C   PHE P   4     -25.721  27.017  12.855  1.00 23.02 LIG 0.24  C 
ATOM     40 O    PHE P   4     -26.597  26.181  12.619  1.00 27.32 LIG-0.27  OA
BRANCH 39 41
ATOM     41  CA  PHE P   4     -26.087  28.378  13.393  1.00 26.78 LIG 0.18  C 
BRANCH 41 42
ATOM     42  CB  PHE P   4     -26.148  28.349  14.923  1.00 27.56 LIG 0.07  C 
BRANCH 42 43
ATOM     43  CG  PHE P   4     -25.120  27.445  15.578  1.00 23.05 LIG-0.06  A 
ATOM     44  CD2 PHE P   4     -23.775  27.810  15.610  1.00 26.81 LIG 0.01  A 
ATOM     45  CE2 PHE P   4     -22.803  26.974  16.186  1.00 20.39 LIG 0.00  A 
ATOM     46  CZ  PHE P   4     -23.187  25.746  16.732  1.00 15.29 LIG 0.00  A 
ATOM     47  CE1 PHE P   4     -24.537  25.371  16.701  1.00 22.67 LIG 0.00  A 
ATOM     48  CD1 PHE P   4     -25.490  26.214  16.119  1.00 22.68 LIG 0.01  A 
ENDBRANCH 42 43
ENDBRANCH 41 42
BRANCH 41 49
ATOM     49  N   PHE P   4     -27.390  28.717  12.840  1.00 24.27 LIG-0.35  N 
ATOM     50 H    PHE P   4     -28.008  28.144  13.011  1.00 24.27 LIG 0.16  HD
ATOM     51  C   GLU P   3     -27.584  29.826  12.132  1.00 33.66 LIG 0.24  C 
ATOM     52 O    GLU P   3     -26.724  30.693  11.974  1.00 34.99 LIG-0.27  OA
BRANCH 51 53
ATOM     53  CA  GLU P   3     -28.964  29.988  11.523  1.00 34.60 LIG 0.18  C 
BRANCH 53 54
ATOM     54  CB  GLU P   3     -29.526  31.359  11.898  1.00 27.84 LIG 0.04  C 
BRANCH 54 55
ATOM     55  CG  GLU P   3     -29.807  31.524  13.385  1.00 43.05 LIG 0.12  C 
BRANCH 55 56
ATOM     56  CD  GLU P   3     -31.262  31.278  13.725  1.00 49.21 LIG 0.17  C 
ATOM     57 OE1  GLU P   3     -31.917  30.507  12.992  1.00 52.28 LIG-0.65  OA
ATOM     58 OE2  GLU P   3     -31.747  31.854  14.723  1.00 52.44 LIG-0.65  OA
ENDBRANCH 55 56
ENDBRANCH 54 55
ENDBRANCH 53 54
BRANCH 53 59
ATOM     59  N   GLU P   3     -29.865  28.924  11.946  1.00 36.80 LIG-0.35  N 
ATOM     60 H    GLU P   3     -30.373  29.131  12.608  1.00 36.80 LIG 0.16  HD
ATOM     61  C   ALA P   2     -29.880  27.740  11.341  1.00 41.96 LIG 0.26  C 
ATOM     62 O    ALA P   2     -29.107  27.453  10.428  1.00 34.80 LIG-0.27  OA
BRANCH 61 63
ATOM     63  CA  ALA P   2     -30.921  26.730  11.846  1.00 47.40 LIG 0.40  C 
ATOM     64  CB  ALA P   2     -30.855  25.445  11.038  1.00 40.76 LIG 0.06  C 
ATOM     65  N   ALA P   2     -32.284  27.263  11.838  1.00 49.60 LIG 0.61  N 
ENDBRANCH 61 63
ENDBRANCH 53 59
ENDBRANCH 51 53
ENDBRANCH 41 49
ENDBRANCH 39 41
ENDBRANCH 1 37
TORSDOF 24
ENDMDL
MODEL 18
USER: ADFR SOLUTION from run 84
USER: SCORE 18.452008 LL:  -4.125 LR: -15.633 RR:   0.000 FEB:  -8.474
USER: RMSD 9.328676
USER: SEED 83
USER: STATUS no improvement in best in 17 clusters for 5 generations
USER: GENES 26
USER: genes 0 Translation |==|  0.61728 0.37747 0.43692
USER: genes 1 Rotation |==|  0.20642 0.13050 0.36105 0.58931
USER: genes 2 Torsion [C]-CA--CB-[CG] |==|  0.47173
USER: genes 3 Torsion [CA]-CB--CG-[CD] |==|  0.66658
USER: genes 4 Torsion [CB]-CG--CD-[NE] |==|  0.52114
USER: genes 5 Torsion [CG]-CD--NE-[CZ] |==|  0.17732
USER: genes 6 Torsion [N]-CA--C-[N] |==|  0.37191
USER: genes 7 Torsion [C]-N--CA-[C] |==|  0.68511
USER: genes 8 Torsion [N]-CA--C-[N] |==|  0.06779
USER: genes 9 Torsion [C]-N--CA-[CB] |==|  0.86297
USER: genes 10 Torsion [N]-CA--C-[OXT] |==|  0.23753
USER: genes 11 Torsion [N]-CA--CB-[CG] |==|  0.48823
USER: genes 12 Torsion [CA]-CB--CG-[OD2] |==|  0.59977
USER: genes 13 Torsion [N]-CA--CB-[CG] |==|  0.97140
USER: genes 14 Torsion [CA]-CB--CG-[ND1] |==|  0.83555
USER: genes 15 Torsion [CB]-CA--N-[C] |==|  0.23463
USER: genes 16 Torsion [N]-C--CA-[N] |==|  0.89547
USER: genes 17 Torsion [C]-CA--CB-[CG] |==|  0.21857
USER: genes 18 Torsion [CA]-CB--CG-[CD2] |==|  0.76752
USER: genes 19 Torsion [C]-CA--N-[C] |==|  0.85543
USER: genes 20 Torsion [N]-C--CA-[N] |==|  0.03803
USER: genes 21 Torsion [C]-CA--CB-[CG] |==|  0.88621
USER: genes 22 Torsion [CA]-CB--CG-[CD] |==|  0.75096
USER: genes 23 Torsion [CB]-CG--CD-[OE1] |==|  0.16732
USER: genes 24 Torsion [C]-CA--N-[C] |==|  0.73191
USER: genes 25 Torsion [N]-C--CA-[N] |==|  0.78092
ROOT
ATOM      1  CA  ARG P   5     -19.439  23.824  11.862  1.00 25.78 LIG 0.18  C 
ENDROOT
BRANCH 1 2
ATOM      2  CB  ARG P   5     -20.375  22.631  12.128  1.00 22.44 LIG 0.04  C 
BRANCH 2 3
ATOM      3  CG  ARG P   5     -20.724  22.436  13.603  1.00 26.51 LIG 0.02  C 
BRANCH 3 4
ATOM      4  CD  ARG P   5     -20.280  21.064  14.125  1.00 28.41 LIG 0.14  C 
BRANCH 4 5
ATOM      5  NE  ARG P   5     -20.771  20.809  15.477  1.00 33.08 LIG-0.23  N 
ATOM      6  CZ  ARG P   5     -22.057  20.704  15.803  1.00 31.92 LIG 0.67  C 
ATOM      7  NH2 ARG P   5     -22.397  20.457  17.057  1.00 32.43 LIG-0.23  N 
ATOM      8  NH1 ARG P   5     -23.003  20.821  14.873  1.00 23.99 LIG-0.23  N 
ATOM      9 2HH2 ARG P   5     -23.227  20.388  17.272  1.00 32.43 LIG 0.17  HD
ATOM     10 1HH2 ARG P   5     -21.788  20.365  17.657  1.00 32.43 LIG 0.17  HD
ATOM     11 2HH1 ARG P   5     -23.832  20.752  15.091  1.00 23.99 LIG 0.17  HD
ATOM     12 1HH1 ARG P   5     -22.785  20.965  14.054  1.00 23.99 LIG 0.17  HD
ATOM     13 HE   ARG P   5     -20.189  20.720  16.105  1.00 33.08 LIG 0.18  HD
ENDBRANCH 4 5
ENDBRANCH 3 4
ENDBRANCH 2 3
ENDBRANCH 1 2
BRANCH 1 14
ATOM     14  C   ARG P   5     -18.941  23.799  10.418  1.00 22.77 LIG 0.24  C 
ATOM     15 O    ARG P   5     -19.683  24.136   9.490  1.00 23.41 LIG-0.27  OA
ATOM     16  N   HIS P   6     -17.692  23.381  10.228  1.00 20.21 LIG-0.35  N 
ATOM     17 H    HIS P   6     -17.171  23.124  10.862  1.00 20.21 LIG 0.16  HD
BRANCH 16 18
ATOM     18  CA  HIS P   6     -17.093  23.324   8.893  1.00 24.32 LIG 0.18  C 
BRANCH 18 19
ATOM     19  C   HIS P   6     -16.790  21.901   8.406  1.00 31.11 LIG 0.24  C 
ATOM     20  N   ASP P   7     -17.510  20.921   8.943  1.00 28.94 LIG-0.34  N 
ATOM     21 H    ASP P   7     -18.004  21.009   9.641  1.00 28.94 LIG 0.16  HD
ATOM     22 O    HIS P   6     -15.917  21.697   7.555  1.00 27.73 LIG-0.27  OA
BRANCH 20 23
ATOM     23  CA  ASP P   7     -17.508  19.581   8.358  1.00 30.45 LIG 0.20  C 
BRANCH 23 24
ATOM     24  C   ASP P   7     -16.199  18.830   8.674  1.00 38.41 LIG 0.20  C 
ATOM     25 OXT  ASP P   7     -16.055  18.199   9.722  1.00 43.84 LIG-0.65  OA
ATOM     26 O    ASP P   7     -15.231  18.834   7.905  1.00 36.31 LIG-0.65  OA
ENDBRANCH 23 24
BRANCH 23 27
ATOM     27  CB  ASP P   7     -17.759  19.657   6.851  1.00 42.34 LIG 0.15  C 
BRANCH 27 28
ATOM     28  CG  ASP P   7     -17.666  18.293   6.168  1.00 55.06 LIG 0.17  C 
ATOM     29 OD2  ASP P   7     -17.180  18.245   5.019  1.00 62.01 LIG-0.65  OA
ATOM     30 OD1  ASP P   7     -18.076  17.274   6.773  1.00 52.19 LIG-0.65  OA
ENDBRANCH 27 28
ENDBRANCH 23 27
ENDBRANCH 20 23
ENDBRANCH 18 19
BRANCH 18 31
ATOM     31  CB  HIS P   6     -15.825  24.158   8.851  1.00 25.23 LIG 0.10  C 
BRANCH 31 32
ATOM     32  CG  HIS P   6     -15.624  25.012  10.060  1.00 20.03 LIG 0.06  A 
ATOM     33 ND1  HIS P   6     -16.535  25.970  10.449  1.00 23.24 LIG-0.24  NA
ATOM     34  CE1 HIS P   6     -16.094  26.576  11.536  1.00 27.69 LIG 0.23  A 
ATOM     35 NE2  HIS P   6     -14.924  26.053  11.861  1.00 30.02 LIG-0.25  NA
ATOM     36  CD2 HIS P   6     -14.609  25.070  10.953  1.00 26.95 LIG 0.14  A 
ENDBRANCH 31 32
ENDBRANCH 18 31
ENDBRANCH 16 18
ENDBRANCH 1 14
BRANCH 1 37
ATOM     37  N   ARG P   5     -20.119  25.080  12.144  1.00 23.27 LIG-0.35  N 
ATOM     38 H    ARG P   5     -20.473  25.458  11.458  1.00 23.27 LIG 0.16  HD
ATOM     39  C   PHE P   4     -20.168  25.570  13.377  1.00 23.02 LIG 0.24  C 
ATOM     40 O    PHE P   4     -19.667  25.001  14.350  1.00 27.32 LIG-0.27  OA
BRANCH 39 41
ATOM     41  CA  PHE P   4     -20.898  26.879  13.547  1.00 26.78 LIG 0.18  C 
BRANCH 41 42
ATOM     42  CB  PHE P   4     -22.407  26.640  13.657  1.00 27.56 LIG 0.07  C 
BRANCH 42 43
ATOM     43  CG  PHE P   4     -22.872  26.164  15.021  1.00 23.05 LIG-0.06  A 
ATOM     44  CD2 PHE P   4     -22.809  24.813  15.359  1.00 26.81 LIG 0.01  A 
ATOM     45  CE2 PHE P   4     -23.262  24.347  16.605  1.00 20.39 LIG 0.00  A 
ATOM     46  CZ  PHE P   4     -23.795  25.254  17.526  1.00 15.29 LIG 0.00  A 
ATOM     47  CE1 PHE P   4     -23.864  26.613  17.193  1.00 22.67 LIG 0.00  A 
ATOM     48  CD1 PHE P   4     -23.414  27.058  15.945  1.00 22.68 LIG 0.01  A 
ENDBRANCH 42 43
ENDBRANCH 41 42
BRANCH 41 49
ATOM     49  N   PHE P   4     -20.598  27.688  12.374  1.00 24.27 LIG-0.35  N 
ATOM     50 H    PHE P   4     -21.291  28.004  11.974  1.00 24.27 LIG 0.16  HD
ATOM     51  C   GLU P   3     -19.348  27.906  11.975  1.00 33.66 LIG 0.24  C 
ATOM     52 O    GLU P   3     -18.357  27.538  12.606  1.00 34.99 LIG-0.27  OA
BRANCH 51 53
ATOM     53  CA  GLU P   3     -19.195  28.670  10.673  1.00 34.60 LIG 0.18  C 
BRANCH 53 54
ATOM     54  CB  GLU P   3     -18.088  29.712  10.824  1.00 27.84 LIG 0.04  C 
BRANCH 54 55
ATOM     55  CG  GLU P   3     -18.099  30.435  12.164  1.00 43.05 LIG 0.12  C 
BRANCH 55 56
ATOM     56  CD  GLU P   3     -18.957  31.681  12.136  1.00 49.21 LIG 0.17  C 
ATOM     57 OE1  GLU P   3     -20.173  31.555  11.873  1.00 52.28 LIG-0.65  OA
ATOM     58 OE2  GLU P   3     -18.419  32.783  12.378  1.00 52.44 LIG-0.65  OA
ENDBRANCH 55 56
ENDBRANCH 54 55
ENDBRANCH 53 54
BRANCH 53 59
ATOM     59  N   GLU P   3     -20.447  29.298  10.269  1.00 36.80 LIG-0.35  N 
ATOM     60 H    GLU P   3     -20.599  30.057  10.641  1.00 36.80 LIG 0.16  HD
ATOM     61  C   ALA P   2     -21.266  28.722   9.396  1.00 41.96 LIG 0.26  C 
ATOM     62 O    ALA P   2     -21.048  27.610   8.917  1.00 34.80 LIG-0.27  OA
BRANCH 61 63
ATOM     63  CA  ALA P   2     -22.521  29.519   9.010  1.00 47.40 LIG 0.40  C 
ATOM     64  CB  ALA P   2     -22.167  30.969   8.725  1.00 40.76 LIG 0.06  C 
ATOM     65  N   ALA P   2     -23.578  29.445  10.020  1.00 49.60 LIG 0.61  N 
ENDBRANCH 61 63
ENDBRANCH 53 59
ENDBRANCH 51 53
ENDBRANCH 41 49
ENDBRANCH 39 41
ENDBRANCH 1 37
TORSDOF 24
ENDMDL
MODEL 19
USER: ADFR SOLUTION from run 179
USER: SCORE 18.074767 LL:  -4.090 LR: -15.631 RR:   0.000 FEB:  -8.472
USER: RMSD 10.611775
USER: SEED 178
USER: STATUS no improvement in best in 4 clusters for 5 generations
USER: GENES 26
USER: genes 0 Translation |==|  0.56571 0.37356 0.46312
USER: genes 1 Rotation |==|  0.46888 0.00528 0.45849 0.55056
USER: genes 2 Torsion [C]-CA--CB-[CG] |==|  0.48979
USER: genes 3 Torsion [CA]-CB--CG-[CD] |==|  0.36577
USER: genes 4 Torsion [CB]-CG--CD-[NE] |==|  0.44884
USER: genes 5 Torsion [CG]-CD--NE-[CZ] |==|  0.22434
USER: genes 6 Torsion [N]-CA--C-[N] |==|  0.50703
USER: genes 7 Torsion [C]-N--CA-[C] |==|  0.77360
USER: genes 8 Torsion [N]-CA--C-[N] |==|  0.81162
USER: genes 9 Torsion [C]-N--CA-[CB] |==|  0.31200
USER: genes 10 Torsion [N]-CA--C-[OXT] |==|  0.54400
USER: genes 11 Torsion [N]-CA--CB-[CG] |==|  0.53944
USER: genes 12 Torsion [CA]-CB--CG-[OD2] |==|  0.60831
USER: genes 13 Torsion [N]-CA--CB-[CG] |==|  0.81769
USER: genes 14 Torsion [CA]-CB--CG-[ND1] |==|  0.27503
USER: genes 15 Torsion [CB]-CA--N-[C] |==|  0.49445
USER: genes 16 Torsion [N]-C--CA-[N] |==|  0.36038
USER: genes 17 Torsion [C]-CA--CB-[CG] |==|  0.48153
USER: genes 18 Torsion [CA]-CB--CG-[CD2] |==|  0.29809
USER: genes 19 Torsion [C]-CA--N-[C] |==|  0.74824
USER: genes 20 Torsion [N]-C--CA-[N] |==|  0.20251
USER: genes 21 Torsion [C]-CA--CB-[CG] |==|  0.46935
USER: genes 22 Torsion [CA]-CB--CG-[CD] |==|  0.17810
USER: genes 23 Torsion [CB]-CG--CD-[OE1] |==|  0.68852
USER: genes 24 Torsion [C]-CA--N-[C] |==|  0.77740
USER: genes 25 Torsion [N]-C--CA-[N] |==|  0.14602
ROOT
ATOM      1  CA  ARG P   5     -20.754  23.745  12.334  1.00 25.78 LIG 0.18  C 
ENDROOT
BRANCH 1 2
ATOM      2  CB  ARG P   5     -20.194  22.496  13.037  1.00 22.44 LIG 0.04  C 
BRANCH 2 3
ATOM      3  CG  ARG P   5     -20.857  22.193  14.381  1.00 26.51 LIG 0.02  C 
BRANCH 3 4
ATOM      4  CD  ARG P   5     -21.273  20.723  14.501  1.00 28.41 LIG 0.14  C 
BRANCH 4 5
ATOM      5  NE  ARG P   5     -21.498  20.330  15.890  1.00 33.08 LIG-0.23  N 
ATOM      6  CZ  ARG P   5     -22.615  20.579  16.570  1.00 31.92 LIG 0.67  C 
ATOM      7  NH2 ARG P   5     -22.725  20.167  17.822  1.00 32.43 LIG-0.23  N 
ATOM      8  NH1 ARG P   5     -23.632  21.216  15.992  1.00 23.99 LIG-0.23  N 
ATOM      9 2HH2 ARG P   5     -23.445  20.326  18.265  1.00 32.43 LIG 0.17  HD
ATOM     10 1HH2 ARG P   5     -22.076  19.742  18.193  1.00 32.43 LIG 0.17  HD
ATOM     11 2HH1 ARG P   5     -24.350  21.373  16.437  1.00 23.99 LIG 0.17  HD
ATOM     12 1HH1 ARG P   5     -23.570  21.470  15.173  1.00 23.99 LIG 0.17  HD
ATOM     13 HE   ARG P   5     -20.867  19.910  16.296  1.00 33.08 LIG 0.18  HD
ENDBRANCH 4 5
ENDBRANCH 3 4
ENDBRANCH 2 3
ENDBRANCH 1 2
BRANCH 1 14
ATOM     14  C   ARG P   5     -19.978  24.025  11.048  1.00 22.77 LIG 0.24  C 
ATOM     15 O    ARG P   5     -20.566  24.112   9.964  1.00 23.41 LIG-0.27  OA
ATOM     16  N   HIS P   6     -18.659  24.147  11.165  1.00 20.21 LIG-0.35  N 
ATOM     17 H    HIS P   6     -18.235  24.068  11.908  1.00 20.21 LIG 0.16  HD
BRANCH 16 18
ATOM     18  CA  HIS P   6     -17.805  24.429  10.009  1.00 24.32 LIG 0.18  C 
BRANCH 18 19
ATOM     19  C   HIS P   6     -17.464  23.192   9.169  1.00 31.11 LIG 0.24  C 
ATOM     20  N   ASP P   7     -16.679  22.283   9.738  1.00 28.94 LIG-0.34  N 
ATOM     21 H    ASP P   7     -16.231  22.412  10.460  1.00 28.94 LIG 0.16  HD
ATOM     22 O    HIS P   6     -17.906  23.065   8.021  1.00 27.73 LIG-0.27  OA
BRANCH 20 23
ATOM     23  CA  ASP P   7     -16.522  20.953   9.150  1.00 30.45 LIG 0.20  C 
BRANCH 23 24
ATOM     24  C   ASP P   7     -16.900  19.845  10.153  1.00 38.41 LIG 0.20  C 
ATOM     25 OXT  ASP P   7     -16.574  18.672   9.971  1.00 43.84 LIG-0.65  OA
ATOM     26 O    ASP P   7     -17.557  20.073  11.175  1.00 36.31 LIG-0.65  OA
ENDBRANCH 23 24
BRANCH 23 27
ATOM     27  CB  ASP P   7     -15.098  20.769   8.623  1.00 42.34 LIG 0.15  C 
BRANCH 27 28
ATOM     28  CG  ASP P   7     -14.963  19.558   7.701  1.00 55.06 LIG 0.17  C 
ATOM     29 OD2  ASP P   7     -13.927  18.867   7.790  1.00 62.01 LIG-0.65  OA
ATOM     30 OD1  ASP P   7     -15.883  19.297   6.890  1.00 52.19 LIG-0.65  OA
ENDBRANCH 27 28
ENDBRANCH 23 27
ENDBRANCH 20 23
ENDBRANCH 18 19
BRANCH 18 31
ATOM     31  CB  HIS P   6     -16.524  25.111  10.456  1.00 25.23 LIG 0.10  C 
BRANCH 31 32
ATOM     32  CG  HIS P   6     -16.737  26.471  11.038  1.00 20.03 LIG 0.06  A 
ATOM     33 ND1  HIS P   6     -16.779  26.696  12.397  1.00 23.24 LIG-0.24  NA
ATOM     34  CE1 HIS P   6     -16.993  27.980  12.621  1.00 27.69 LIG 0.23  A 
ATOM     35 NE2  HIS P   6     -17.101  28.595  11.455  1.00 30.02 LIG-0.25  NA
ATOM     36  CD2 HIS P   6     -16.941  27.672  10.448  1.00 26.95 LIG 0.14  A 
ENDBRANCH 31 32
ENDBRANCH 18 31
ENDBRANCH 16 18
ENDBRANCH 1 14
BRANCH 1 37
ATOM     37  N   ARG P   5     -22.171  23.578  12.047  1.00 23.27 LIG-0.35  N 
ATOM     38 H    ARG P   5     -22.497  22.816  12.275  1.00 23.27 LIG 0.16  HD
ATOM     39  C   PHE P   4     -22.873  24.551  11.476  1.00 23.02 LIG 0.24  C 
ATOM     40 O    PHE P   4     -22.388  25.643  11.172  1.00 27.32 LIG-0.27  OA
BRANCH 39 41
ATOM     41  CA  PHE P   4     -24.333  24.263  11.225  1.00 26.78 LIG 0.18  C 
BRANCH 41 42
ATOM     42  CB  PHE P   4     -24.599  24.119   9.724  1.00 27.56 LIG 0.07  C 
BRANCH 42 43
ATOM     43  CG  PHE P   4     -26.006  23.672   9.374  1.00 23.05 LIG-0.06  A 
ATOM     44  CD2 PHE P   4     -26.916  24.570   8.817  1.00 26.81 LIG 0.01  A 
ATOM     45  CE2 PHE P   4     -28.233  24.184   8.513  1.00 20.39 LIG 0.00  A 
ATOM     46  CZ  PHE P   4     -28.646  22.876   8.779  1.00 15.29 LIG 0.00  A 
ATOM     47  CE1 PHE P   4     -27.739  21.969   9.342  1.00 22.67 LIG 0.00  A 
ATOM     48  CD1 PHE P   4     -26.433  22.372   9.644  1.00 22.68 LIG 0.01  A 
ENDBRANCH 42 43
ENDBRANCH 41 42
BRANCH 41 49
ATOM     49  N   PHE P   4     -25.085  25.385  11.768  1.00 24.27 LIG-0.35  N 
ATOM     50 H    PHE P   4     -25.214  26.028  11.211  1.00 24.27 LIG 0.16  HD
ATOM     51  C   GLU P   3     -25.526  25.393  13.023  1.00 33.66 LIG 0.24  C 
ATOM     52 O    GLU P   3     -25.427  24.431  13.785  1.00 34.99 LIG-0.27  OA
BRANCH 51 53
ATOM     53  CA  GLU P   3     -26.193  26.676  13.481  1.00 34.60 LIG 0.18  C 
BRANCH 53 54
ATOM     54  CB  GLU P   3     -26.280  26.685  15.006  1.00 27.84 LIG 0.04  C 
BRANCH 54 55
ATOM     55  CG  GLU P   3     -26.687  28.030  15.593  1.00 43.05 LIG 0.12  C 
BRANCH 55 56
ATOM     56  CD  GLU P   3     -28.087  28.434  15.184  1.00 49.21 LIG 0.17  C 
ATOM     57 OE1  GLU P   3     -28.219  29.415  14.421  1.00 52.28 LIG-0.65  OA
ATOM     58 OE2  GLU P   3     -29.052  27.771  15.622  1.00 52.44 LIG-0.65  OA
ENDBRANCH 55 56
ENDBRANCH 54 55
ENDBRANCH 53 54
BRANCH 53 59
ATOM     59  N   GLU P   3     -27.513  26.836  12.884  1.00 36.80 LIG-0.35  N 
ATOM     60 H    GLU P   3     -28.165  26.615  13.399  1.00 36.80 LIG 0.16  HD
ATOM     61  C   ALA P   2     -27.668  27.289  11.645  1.00 41.96 LIG 0.26  C 
ATOM     62 O    ALA P   2     -26.716  27.551  10.911  1.00 34.80 LIG-0.27  OA
BRANCH 61 63
ATOM     63  CA  ALA P   2     -29.115  27.470  11.161  1.00 47.40 LIG 0.40  C 
ATOM     64  CB  ALA P   2     -29.142  28.067   9.764  1.00 40.76 LIG 0.06  C 
ATOM     65  N   ALA P   2     -29.925  28.278  12.073  1.00 49.60 LIG 0.61  N 
ENDBRANCH 61 63
ENDBRANCH 53 59
ENDBRANCH 51 53
ENDBRANCH 41 49
ENDBRANCH 39 41
ENDBRANCH 1 37
TORSDOF 24
ENDMDL
MODEL 20
USER: ADFR SOLUTION from run 84
USER: SCORE 18.628241 LL:  -4.250 LR: -15.627 RR:   0.000 FEB:  -8.468
USER: RMSD 9.362965
USER: SEED 83
USER: STATUS no improvement in best in 17 clusters for 5 generations
USER: GENES 26
USER: genes 0 Translation |==|  0.61765 0.37986 0.43883
USER: genes 1 Rotation |==|  0.21817 0.12149 0.36262 0.59182
USER: genes 2 Torsion [C]-CA--CB-[CG] |==|  0.46974
USER: genes 3 Torsion [CA]-CB--CG-[CD] |==|  0.65940
USER: genes 4 Torsion [CB]-CG--CD-[NE] |==|  0.52713
USER: genes 5 Torsion [CG]-CD--NE-[CZ] |==|  0.15281
USER: genes 6 Torsion [N]-CA--C-[N] |==|  0.38726
USER: genes 7 Torsion [C]-N--CA-[C] |==|  0.68333
USER: genes 8 Torsion [N]-CA--C-[N] |==|  0.05522
USER: genes 9 Torsion [C]-N--CA-[CB] |==|  0.86801
USER: genes 10 Torsion [N]-CA--C-[OXT] |==|  0.25401
USER: genes 11 Torsion [N]-CA--CB-[CG] |==|  0.48535
USER: genes 12 Torsion [CA]-CB--CG-[OD2] |==|  0.61471
USER: genes 13 Torsion [N]-CA--CB-[CG] |==|  0.95697
USER: genes 14 Torsion [CA]-CB--CG-[ND1] |==|  0.84290
USER: genes 15 Torsion [CB]-CA--N-[C] |==|  0.25369
USER: genes 16 Torsion [N]-C--CA-[N] |==|  0.88384
USER: genes 17 Torsion [C]-CA--CB-[CG] |==|  0.20353
USER: genes 18 Torsion [CA]-CB--CG-[CD2] |==|  0.78597
USER: genes 19 Torsion [C]-CA--N-[C] |==|  0.84012
USER: genes 20 Torsion [N]-C--CA-[N] |==|  0.39854
USER: genes 21 Torsion [C]-CA--CB-[CG] |==|  0.31281
USER: genes 22 Torsion [CA]-CB--CG-[CD] |==|  0.76833
USER: genes 23 Torsion [CB]-CG--CD-[OE1] |==|  0.18272
USER: genes 24 Torsion [C]-CA--N-[C] |==|  0.78116
USER: genes 25 Torsion [N]-C--CA-[N] |==|  0.27891
ROOT
ATOM      1  CA  ARG P   5     -19.430  23.872  11.897  1.00 25.78 LIG 0.18  C 
ENDROOT
BRANCH 1 2
ATOM      2  CB  ARG P   5     -20.294  22.626  12.155  1.00 22.44 LIG 0.04  C 
BRANCH 2 3
ATOM      3  CG  ARG P   5     -20.630  22.401  13.629  1.00 26.51 LIG 0.02  C 
BRANCH 3 4
ATOM      4  CD  ARG P   5     -20.163  21.027  14.124  1.00 28.41 LIG 0.14  C 
BRANCH 4 5
ATOM      5  NE  ARG P   5     -20.680  20.720  15.456  1.00 33.08 LIG-0.23  N 
ATOM      6  CZ  ARG P   5     -21.971  20.737  15.783  1.00 31.92 LIG 0.67  C 
ATOM      7  NH2 ARG P   5     -22.337  20.429  17.015  1.00 32.43 LIG-0.23  N 
ATOM      8  NH1 ARG P   5     -22.895  21.036  14.873  1.00 23.99 LIG-0.23  N 
ATOM      9 2HH2 ARG P   5     -23.170  20.438  17.231  1.00 32.43 LIG 0.17  HD
ATOM     10 1HH2 ARG P   5     -21.743  20.219  17.601  1.00 32.43 LIG 0.17  HD
ATOM     11 2HH1 ARG P   5     -23.727  21.045  15.092  1.00 23.99 LIG 0.17  HD
ATOM     12 1HH1 ARG P   5     -22.661  21.221  14.067  1.00 23.99 LIG 0.17  HD
ATOM     13 HE   ARG P   5     -20.113  20.515  16.069  1.00 33.08 LIG 0.18  HD
ENDBRANCH 4 5
ENDBRANCH 3 4
ENDBRANCH 2 3
ENDBRANCH 1 2
BRANCH 1 14
ATOM     14  C   ARG P   5     -18.919  23.877  10.456  1.00 22.77 LIG 0.24  C 
ATOM     15 O    ARG P   5     -19.641  24.266   9.533  1.00 23.41 LIG-0.27  OA
ATOM     16  N   HIS P   6     -17.682  23.426  10.264  1.00 20.21 LIG-0.35  N 
ATOM     17 H    HIS P   6     -17.175  23.133  10.894  1.00 20.21 LIG 0.16  HD
BRANCH 16 18
ATOM     18  CA  HIS P   6     -17.072  23.393   8.934  1.00 24.32 LIG 0.18  C 
BRANCH 18 19
ATOM     19  C   HIS P   6     -16.795  21.977   8.410  1.00 31.11 LIG 0.24  C 
ATOM     20  N   ASP P   7     -17.474  20.987   8.980  1.00 28.94 LIG-0.34  N 
ATOM     21 H    ASP P   7     -17.923  21.064   9.710  1.00 28.94 LIG 0.16  HD
ATOM     22 O    HIS P   6     -15.977  21.787   7.503  1.00 27.73 LIG-0.27  OA
BRANCH 20 23
ATOM     23  CA  ASP P   7     -17.503  19.654   8.381  1.00 30.45 LIG 0.20  C 
BRANCH 23 24
ATOM     24  C   ASP P   7     -16.191  18.889   8.642  1.00 38.41 LIG 0.20  C 
ATOM     25 OXT  ASP P   7     -16.054  18.159   9.623  1.00 43.84 LIG-0.65  OA
ATOM     26 O    ASP P   7     -15.212  18.980   7.892  1.00 36.31 LIG-0.65  OA
ENDBRANCH 23 24
BRANCH 23 27
ATOM     27  CB  ASP P   7     -17.807  19.750   6.885  1.00 42.34 LIG 0.15  C 
BRANCH 27 28
ATOM     28  CG  ASP P   7     -17.724  18.397   6.178  1.00 55.06 LIG 0.17  C 
ATOM     29 OD2  ASP P   7     -17.184  18.356   5.054  1.00 62.01 LIG-0.65  OA
ATOM     30 OD1  ASP P   7     -18.196  17.380   6.741  1.00 52.19 LIG-0.65  OA
ENDBRANCH 27 28
ENDBRANCH 23 27
ENDBRANCH 20 23
ENDBRANCH 18 19
BRANCH 18 31
ATOM     31  CB  HIS P   6     -15.786  24.200   8.924  1.00 25.23 LIG 0.10  C 
BRANCH 31 32
ATOM     32  CG  HIS P   6     -15.637  25.110  10.100  1.00 20.03 LIG 0.06  A 
ATOM     33 ND1  HIS P   6     -16.576  26.067  10.419  1.00 23.24 LIG-0.24  NA
ATOM     34  CE1 HIS P   6     -16.179  26.728  11.491  1.00 27.69 LIG 0.23  A 
ATOM     35 NE2  HIS P   6     -15.010  26.241  11.873  1.00 30.02 LIG-0.25  NA
ATOM     36  CD2 HIS P   6     -14.651  25.225  11.020  1.00 26.95 LIG 0.14  A 
ENDBRANCH 31 32
ENDBRANCH 18 31
ENDBRANCH 16 18
ENDBRANCH 1 14
BRANCH 1 37
ATOM     37  N   ARG P   5     -20.186  25.085  12.172  1.00 23.27 LIG-0.35  N 
ATOM     38 H    ARG P   5     -20.632  25.390  11.503  1.00 23.27 LIG 0.16  HD
ATOM     39  C   PHE P   4     -20.164  25.647  13.375  1.00 23.02 LIG 0.24  C 
ATOM     40 O    PHE P   4     -19.531  25.183  14.326  1.00 27.32 LIG-0.27  OA
BRANCH 39 41
ATOM     41  CA  PHE P   4     -20.985  26.902  13.541  1.00 26.78 LIG 0.18  C 
BRANCH 41 42
ATOM     42  CB  PHE P   4     -22.467  26.554  13.704  1.00 27.56 LIG 0.07  C 
BRANCH 42 43
ATOM     43  CG  PHE P   4     -22.830  25.955  15.051  1.00 23.05 LIG-0.06  A 
ATOM     44  CD2 PHE P   4     -22.537  24.622  15.335  1.00 26.81 LIG 0.01  A 
ATOM     45  CE2 PHE P   4     -22.890  24.040  16.564  1.00 20.39 LIG 0.00  A 
ATOM     46  CZ  PHE P   4     -23.558  24.808  17.522  1.00 15.29 LIG 0.00  A 
ATOM     47  CE1 PHE P   4     -23.860  26.147  17.243  1.00 22.67 LIG 0.00  A 
ATOM     48  CD1 PHE P   4     -23.505  26.709  16.012  1.00 22.68 LIG 0.01  A 
ENDBRANCH 42 43
ENDBRANCH 41 42
BRANCH 41 49
ATOM     49  N   PHE P   4     -20.782  27.704  12.343  1.00 24.27 LIG-0.35  N 
ATOM     50 H    PHE P   4     -21.504  27.895  11.917  1.00 24.27 LIG 0.16  HD
ATOM     51  C   GLU P   3     -19.570  28.095  11.959  1.00 33.66 LIG 0.24  C 
ATOM     52 O    GLU P   3     -18.551  27.906  12.623  1.00 34.99 LIG-0.27  OA
BRANCH 51 53
ATOM     53  CA  GLU P   3     -19.502  28.826  10.631  1.00 34.60 LIG 0.18  C 
BRANCH 53 54
ATOM     54  CB  GLU P   3     -19.203  27.825   9.516  1.00 27.84 LIG 0.04  C 
BRANCH 54 55
ATOM     55  CG  GLU P   3     -20.353  27.628   8.538  1.00 43.05 LIG 0.12  C 
BRANCH 55 56
ATOM     56  CD  GLU P   3     -21.372  26.630   9.045  1.00 49.21 LIG 0.17  C 
ATOM     57 OE1  GLU P   3     -22.032  26.926  10.064  1.00 52.28 LIG-0.65  OA
ATOM     58 OE2  GLU P   3     -21.514  25.555   8.423  1.00 52.44 LIG-0.65  OA
ENDBRANCH 55 56
ENDBRANCH 54 55
ENDBRANCH 53 54
BRANCH 53 59
ATOM     59  N   GLU P   3     -18.506  29.889  10.654  1.00 36.80 LIG-0.35  N 
ATOM     60 H    GLU P   3     -17.763  29.688  10.271  1.00 36.80 LIG 0.16  HD
ATOM     61  C   ALA P   2     -18.751  31.063  11.228  1.00 41.96 LIG 0.26  C 
ATOM     62 O    ALA P   2     -19.805  31.306  11.814  1.00 34.80 LIG-0.27  OA
BRANCH 61 63
ATOM     63  CA  ALA P   2     -17.638  32.117  11.127  1.00 47.40 LIG 0.40  C 
ATOM     64  CB  ALA P   2     -17.429  32.804  12.466  1.00 40.76 LIG 0.06  C 
ATOM     65  N   ALA P   2     -17.885  33.110  10.080  1.00 49.60 LIG 0.61  N 
ENDBRANCH 61 63
ENDBRANCH 53 59
ENDBRANCH 51 53
ENDBRANCH 41 49
ENDBRANCH 39 41
ENDBRANCH 1 37
TORSDOF 24
ENDMDL
MODEL 21
USER: ADFR SOLUTION from run 102
USER: SCORE 18.907990 LL:  -4.719 LR: -15.594 RR:   0.000 FEB:  -8.435
USER: RMSD 9.228012
USER: SEED 101
USER: STATUS no improvement in best in 9 clusters for 5 generations
USER: GENES 26
USER: genes 0 Translation |==|  0.44092 0.47630 0.43249
USER: genes 1 Rotation |==|  0.72327 0.73777 0.87715 0.53712
USER: genes 2 Torsion [C]-CA--CB-[CG] |==|  0.30379
USER: genes 3 Torsion [CA]-CB--CG-[CD] |==|  0.40851
USER: genes 4 Torsion [CB]-CG--CD-[NE] |==|  0.42134
USER: genes 5 Torsion [CG]-CD--NE-[CZ] |==|  0.39535
USER: genes 6 Torsion [N]-CA--C-[N] |==|  0.01308
USER: genes 7 Torsion [C]-N--CA-[C] |==|  0.17055
USER: genes 8 Torsion [N]-CA--C-[N] |==|  0.72222
USER: genes 9 Torsion [C]-N--CA-[CB] |==|  0.42310
USER: genes 10 Torsion [N]-CA--C-[OXT] |==|  0.55966
USER: genes 11 Torsion [N]-CA--CB-[CG] |==|  0.09740
USER: genes 12 Torsion [CA]-CB--CG-[OD2] |==|  0.58360
USER: genes 13 Torsion [N]-CA--CB-[CG] |==|  0.50297
USER: genes 14 Torsion [CA]-CB--CG-[ND1] |==|  0.14439
USER: genes 15 Torsion [CB]-CA--N-[C] |==|  0.18552
USER: genes 16 Torsion [N]-C--CA-[N] |==|  0.36938
USER: genes 17 Torsion [C]-CA--CB-[CG] |==|  0.09207
USER: genes 18 Torsion [CA]-CB--CG-[CD2] |==|  0.18499
USER: genes 19 Torsion [C]-CA--N-[C] |==|  0.66065
USER: genes 20 Torsion [N]-C--CA-[N] |==|  0.01388
USER: genes 21 Torsion [C]-CA--CB-[CG] |==|  0.80347
USER: genes 22 Torsion [CA]-CB--CG-[CD] |==|  0.72936
USER: genes 23 Torsion [CB]-CG--CD-[OE1] |==|  0.07697
USER: genes 24 Torsion [C]-CA--N-[C] |==|  0.76928
USER: genes 25 Torsion [N]-C--CA-[N] |==|  0.15010
ROOT
ATOM      1  CA  ARG P   5     -23.937  25.825  11.783  1.00 25.78 LIG 0.18  C 
ENDROOT
BRANCH 1 2
ATOM      2  CB  ARG P   5     -24.697  25.443  10.501  1.00 22.44 LIG 0.04  C 
BRANCH 2 3
ATOM      3  CG  ARG P   5     -25.253  24.019  10.513  1.00 26.51 LIG 0.02  C 
BRANCH 3 4
ATOM      4  CD  ARG P   5     -26.573  23.908   9.741  1.00 28.41 LIG 0.14  C 
BRANCH 4 5
ATOM      5  NE  ARG P   5     -26.769  22.573   9.181  1.00 33.08 LIG-0.23  N 
ATOM      6  CZ  ARG P   5     -27.943  21.949   9.118  1.00 31.92 LIG 0.67  C 
ATOM      7  NH2 ARG P   5     -28.016  20.744   8.578  1.00 32.43 LIG-0.23  N 
ATOM      8  NH1 ARG P   5     -29.048  22.540   9.570  1.00 23.99 LIG-0.23  N 
ATOM      9 2HH2 ARG P   5     -28.773  20.338   8.535  1.00 32.43 LIG 0.17  HD
ATOM     10 1HH2 ARG P   5     -27.307  20.367   8.271  1.00 32.43 LIG 0.17  HD
ATOM     11 2HH1 ARG P   5     -29.803  22.131   9.525  1.00 23.99 LIG 0.17  HD
ATOM     12 1HH1 ARG P   5     -29.006  23.329   9.906  1.00 23.99 LIG 0.17  HD
ATOM     13 HE   ARG P   5     -26.079  22.162   8.873  1.00 33.08 LIG 0.18  HD
ENDBRANCH 4 5
ENDBRANCH 3 4
ENDBRANCH 2 3
ENDBRANCH 1 2
BRANCH 1 14
ATOM     14  C   ARG P   5     -22.438  25.936  11.501  1.00 22.77 LIG 0.24  C 
ATOM     15 O    ARG P   5     -21.827  25.002  10.971  1.00 23.41 LIG-0.27  OA
ATOM     16  N   HIS P   6     -21.847  27.068  11.872  1.00 20.21 LIG-0.35  N 
ATOM     17 H    HIS P   6     -22.255  27.717  12.260  1.00 20.21 LIG 0.16  HD
BRANCH 16 18
ATOM     18  CA  HIS P   6     -20.419  27.301  11.645  1.00 24.32 LIG 0.18  C 
BRANCH 18 19
ATOM     19  C   HIS P   6     -20.014  27.290  10.165  1.00 31.11 LIG 0.24  C 
ATOM     20  N   ASP P   7     -19.462  26.172   9.707  1.00 28.94 LIG-0.34  N 
ATOM     21 H    ASP P   7     -19.176  25.532  10.205  1.00 28.94 LIG 0.16  HD
ATOM     22 O    HIS P   6     -20.199  28.282   9.451  1.00 27.73 LIG-0.27  OA
BRANCH 20 23
ATOM     23  CA  ASP P   7     -19.300  25.948   8.271  1.00 30.45 LIG 0.20  C 
BRANCH 23 24
ATOM     24  C   ASP P   7     -20.593  25.398   7.636  1.00 38.41 LIG 0.20  C 
ATOM     25 OXT  ASP P   7     -20.577  24.786   6.568  1.00 43.84 LIG-0.65  OA
ATOM     26 O    ASP P   7     -21.703  25.554   8.156  1.00 36.31 LIG-0.65  OA
ENDBRANCH 23 24
BRANCH 23 27
ATOM     27  CB  ASP P   7     -18.110  25.024   8.007  1.00 42.34 LIG 0.15  C 
BRANCH 27 28
ATOM     28  CG  ASP P   7     -17.944  23.954   9.086  1.00 55.06 LIG 0.17  C 
ATOM     29 OD2  ASP P   7     -16.792  23.539   9.327  1.00 62.01 LIG-0.65  OA
ATOM     30 OD1  ASP P   7     -18.958  23.528   9.689  1.00 52.19 LIG-0.65  OA
ENDBRANCH 27 28
ENDBRANCH 23 27
ENDBRANCH 20 23
ENDBRANCH 18 19
BRANCH 18 31
ATOM     31  CB  HIS P   6     -19.591  26.282  12.408  1.00 25.23 LIG 0.10  C 
BRANCH 31 32
ATOM     32  CG  HIS P   6     -18.117  26.465  12.251  1.00 20.03 LIG 0.06  A 
ATOM     33 ND1  HIS P   6     -17.493  27.673  12.476  1.00 23.24 LIG-0.24  NA
ATOM     34  CE1 HIS P   6     -16.198  27.545  12.248  1.00 27.69 LIG 0.23  A 
ATOM     35 NE2  HIS P   6     -15.961  26.299  11.873  1.00 30.02 LIG-0.25  NA
ATOM     36  CD2 HIS P   6     -17.146  25.603  11.869  1.00 26.95 LIG 0.14  A 
ENDBRANCH 31 32
ENDBRANCH 18 31
ENDBRANCH 16 18
ENDBRANCH 1 14
BRANCH 1 37
ATOM     37  N   ARG P   5     -24.445  27.076  12.326  1.00 23.27 LIG-0.35  N 
ATOM     38 H    ARG P   5     -23.890  27.732  12.298  1.00 23.27 LIG 0.16  HD
ATOM     39  C   PHE P   4     -25.677  27.159  12.817  1.00 23.02 LIG 0.24  C 
ATOM     40 O    PHE P   4     -26.462  26.209  12.831  1.00 27.32 LIG-0.27  OA
BRANCH 39 41
ATOM     41  CA  PHE P   4     -26.093  28.506  13.353  1.00 26.78 LIG 0.18  C 
BRANCH 41 42
ATOM     42  CB  PHE P   4     -26.144  28.480  14.883  1.00 27.56 LIG 0.07  C 
BRANCH 42 43
ATOM     43  CG  PHE P   4     -25.114  27.573  15.533  1.00 23.05 LIG-0.06  A 
ATOM     44  CD2 PHE P   4     -23.755  27.867  15.443  1.00 26.81 LIG 0.01  A 
ATOM     45  CE2 PHE P   4     -22.784  27.025  16.012  1.00 20.39 LIG 0.00  A 
ATOM     46  CZ  PHE P   4     -23.185  25.863  16.676  1.00 15.29 LIG 0.00  A 
ATOM     47  CE1 PHE P   4     -24.549  25.558  16.767  1.00 22.67 LIG 0.00  A 
ATOM     48  CD1 PHE P   4     -25.502  26.405  16.190  1.00 22.68 LIG 0.01  A 
ENDBRANCH 42 43
ENDBRANCH 41 42
BRANCH 41 49
ATOM     49  N   PHE P   4     -27.412  28.791  12.807  1.00 24.27 LIG-0.35  N 
ATOM     50 H    PHE P   4     -28.009  28.200  12.995  1.00 24.27 LIG 0.16  HD
ATOM     51  C   GLU P   3     -27.650  29.879  12.082  1.00 33.66 LIG 0.24  C 
ATOM     52 O    GLU P   3     -26.822  30.771  11.899  1.00 34.99 LIG-0.27  OA
BRANCH 51 53
ATOM     53  CA  GLU P   3     -29.041  29.984  11.484  1.00 34.60 LIG 0.18  C 
BRANCH 53 54
ATOM     54  CB  GLU P   3     -29.648  31.338  11.845  1.00 27.84 LIG 0.04  C 
BRANCH 54 55
ATOM     55  CG  GLU P   3     -30.021  31.476  13.315  1.00 43.05 LIG 0.12  C 
BRANCH 55 56
ATOM     56  CD  GLU P   3     -31.488  31.201  13.563  1.00 49.21 LIG 0.17  C 
ATOM     57 OE1  GLU P   3     -32.085  30.431  12.781  1.00 52.28 LIG-0.65  OA
ATOM     58 OE2  GLU P   3     -32.042  31.753  14.538  1.00 52.44 LIG-0.65  OA
ENDBRANCH 55 56
ENDBRANCH 54 55
ENDBRANCH 53 54
BRANCH 53 59
ATOM     59  N   GLU P   3     -29.900  28.894  11.931  1.00 36.80 LIG-0.35  N 
ATOM     60 H    GLU P   3     -30.408  29.092  12.595  1.00 36.80 LIG 0.16  HD
ATOM     61  C   ALA P   2     -29.879  27.702  11.343  1.00 41.96 LIG 0.26  C 
ATOM     62 O    ALA P   2     -29.104  27.429  10.427  1.00 34.80 LIG-0.27  OA
BRANCH 61 63
ATOM     63  CA  ALA P   2     -30.879  26.663  11.873  1.00 47.40 LIG 0.40  C 
ATOM     64  CB  ALA P   2     -30.774  25.369  11.083  1.00 40.76 LIG 0.06  C 
ATOM     65  N   ALA P   2     -32.260  27.148  11.871  1.00 49.60 LIG 0.61  N 
ENDBRANCH 61 63
ENDBRANCH 53 59
ENDBRANCH 51 53
ENDBRANCH 41 49
ENDBRANCH 39 41
ENDBRANCH 1 37
TORSDOF 24
ENDMDL
MODEL 22
USER: ADFR SOLUTION from run 120
USER: SCORE 19.412713 LL:  -4.952 LR: -15.569 RR:   0.000 FEB:  -8.410
USER: RMSD 9.627780
USER: SEED 119
USER: STATUS 1 or 2 clusters left
USER: GENES 26
USER: genes 0 Translation |==|  0.61320 0.44746 0.48776
USER: genes 1 Rotation |==|  0.09268 0.21519 0.44624 0.50943
USER: genes 2 Torsion [C]-CA--CB-[CG] |==|  0.60537
USER: genes 3 Torsion [CA]-CB--CG-[CD] |==|  0.46549
USER: genes 4 Torsion [CB]-CG--CD-[NE] |==|  0.30301
USER: genes 5 Torsion [CG]-CD--NE-[CZ] |==|  0.45440
USER: genes 6 Torsion [N]-CA--C-[N] |==|  0.15940
USER: genes 7 Torsion [C]-N--CA-[C] |==|  0.67514
USER: genes 8 Torsion [N]-CA--C-[N] |==|  0.40723
USER: genes 9 Torsion [C]-N--CA-[CB] |==|  0.22686
USER: genes 10 Torsion [N]-CA--C-[OXT] |==|  0.42563
USER: genes 11 Torsion [N]-CA--CB-[CG] |==|  0.36562
USER: genes 12 Torsion [CA]-CB--CG-[OD2] |==|  0.21715
USER: genes 13 Torsion [N]-CA--CB-[CG] |==|  0.80252
USER: genes 14 Torsion [CA]-CB--CG-[ND1] |==|  0.96266
USER: genes 15 Torsion [CB]-CA--N-[C] |==|  0.79140
USER: genes 16 Torsion [N]-C--CA-[N] |==|  0.12778
USER: genes 17 Torsion [C]-CA--CB-[CG] |==|  0.63126
USER: genes 18 Torsion [CA]-CB--CG-[CD2] |==|  0.72647
USER: genes 19 Torsion [C]-CA--N-[C] |==|  0.72555
USER: genes 20 Torsion [N]-C--CA-[N] |==|  0.92855
USER: genes 21 Torsion [C]-CA--CB-[CG] |==|  0.92261
USER: genes 22 Torsion [CA]-CB--CG-[CD] |==|  0.24812
USER: genes 23 Torsion [CB]-CG--CD-[OE1] |==|  0.17270
USER: genes 24 Torsion [C]-CA--N-[C] |==|  0.82353
USER: genes 25 Torsion [N]-C--CA-[N] |==|  0.96025
ROOT
ATOM      1  CA  ARG P   5     -19.543  25.241  12.778  1.00 25.78 LIG 0.18  C 
ENDROOT
BRANCH 1 2
ATOM      2  CB  ARG P   5     -20.838  24.961  13.561  1.00 22.44 LIG 0.04  C 
BRANCH 2 3
ATOM      3  CG  ARG P   5     -21.421  26.193  14.252  1.00 26.51 LIG 0.02  C 
BRANCH 3 4
ATOM      4  CD  ARG P   5     -22.848  25.950  14.758  1.00 28.41 LIG 0.14  C 
BRANCH 4 5
ATOM      5  NE  ARG P   5     -22.906  25.869  16.216  1.00 33.08 LIG-0.23  N 
ATOM      6  CZ  ARG P   5     -24.023  25.977  16.931  1.00 31.92 LIG 0.67  C 
ATOM      7  NH2 ARG P   5     -23.970  25.874  18.248  1.00 32.43 LIG-0.23  N 
ATOM      8  NH1 ARG P   5     -25.196  26.162  16.329  1.00 23.99 LIG-0.23  N 
ATOM      9 2HH2 ARG P   5     -24.689  25.943  18.714  1.00 32.43 LIG 0.17  HD
ATOM     10 1HH2 ARG P   5     -23.216  25.739  18.638  1.00 32.43 LIG 0.17  HD
ATOM     11 2HH1 ARG P   5     -25.914  26.231  16.798  1.00 23.99 LIG 0.17  HD
ATOM     12 1HH1 ARG P   5     -25.237  26.213  15.472  1.00 23.99 LIG 0.17  HD
ATOM     13 HE   ARG P   5     -22.168  25.743  16.640  1.00 33.08 LIG 0.18  HD
ENDBRANCH 4 5
ENDBRANCH 3 4
ENDBRANCH 2 3
ENDBRANCH 1 2
BRANCH 1 14
ATOM     14  C   ARG P   5     -19.518  24.431  11.482  1.00 22.77 LIG 0.24  C 
ATOM     15 O    ARG P   5     -20.448  23.669  11.198  1.00 23.41 LIG-0.27  OA
ATOM     16  N   HIS P   6     -18.447  24.583  10.708  1.00 20.21 LIG-0.35  N 
ATOM     17 H    HIS P   6     -17.784  25.094  10.902  1.00 20.21 LIG 0.16  HD
BRANCH 16 18
ATOM     18  CA  HIS P   6     -18.310  23.873   9.434  1.00 24.32 LIG 0.18  C 
BRANCH 18 19
ATOM     19  C   HIS P   6     -17.127  22.897   9.389  1.00 31.11 LIG 0.24  C 
ATOM     20  N   ASP P   7     -17.291  21.795   8.665  1.00 28.94 LIG-0.34  N 
ATOM     21 H    ASP P   7     -18.049  21.521   8.363  1.00 28.94 LIG 0.16  HD
ATOM     22 O    HIS P   6     -16.082  23.142  10.002  1.00 27.73 LIG-0.27  OA
BRANCH 20 23
ATOM     23  CA  ASP P   7     -16.152  20.945   8.322  1.00 30.45 LIG 0.20  C 
BRANCH 23 24
ATOM     24  C   ASP P   7     -16.408  20.154   7.024  1.00 38.41 LIG 0.20  C 
ATOM     25 OXT  ASP P   7     -15.484  19.780   6.303  1.00 43.84 LIG-0.65  OA
ATOM     26 O    ASP P   7     -17.548  19.869   6.637  1.00 36.31 LIG-0.65  OA
ENDBRANCH 23 24
BRANCH 23 27
ATOM     27  CB  ASP P   7     -15.812  20.015   9.487  1.00 42.34 LIG 0.15  C 
BRANCH 27 28
ATOM     28  CG  ASP P   7     -15.638  18.561   9.049  1.00 55.06 LIG 0.17  C 
ATOM     29 OD2  ASP P   7     -14.563  18.238   8.501  1.00 62.01 LIG-0.65  OA
ATOM     30 OD1  ASP P   7     -16.568  17.744   9.248  1.00 52.19 LIG-0.65  OA
ENDBRANCH 27 28
ENDBRANCH 23 27
ENDBRANCH 20 23
ENDBRANCH 18 19
BRANCH 18 31
ATOM     31  CB  HIS P   6     -18.197  24.865   8.290  1.00 25.23 LIG 0.10  C 
BRANCH 31 32
ATOM     32  CG  HIS P   6     -19.470  25.586   7.989  1.00 20.03 LIG 0.06  A 
ATOM     33 ND1  HIS P   6     -20.686  25.182   8.496  1.00 23.24 LIG-0.24  NA
ATOM     34  CE1 HIS P   6     -21.634  25.991   8.056  1.00 27.69 LIG 0.23  A 
ATOM     35 NE2  HIS P   6     -21.076  26.899   7.273  1.00 30.02 LIG-0.25  NA
ATOM     36  CD2 HIS P   6     -19.722  26.668   7.217  1.00 26.95 LIG 0.14  A 
ENDBRANCH 31 32
ENDBRANCH 18 31
ENDBRANCH 16 18
ENDBRANCH 1 14
BRANCH 1 37
ATOM     37  N   ARG P   5     -19.415  26.662  12.491  1.00 23.27 LIG-0.35  N 
ATOM     38 H    ARG P   5     -18.838  27.076  12.976  1.00 23.27 LIG 0.16  HD
ATOM     39  C   PHE P   4     -20.151  27.239  11.547  1.00 23.02 LIG 0.24  C 
ATOM     40 O    PHE P   4     -20.962  26.623  10.853  1.00 27.32 LIG-0.27  OA
BRANCH 39 41
ATOM     41  CA  PHE P   4     -19.933  28.718  11.341  1.00 26.78 LIG 0.18  C 
BRANCH 41 42
ATOM     42  CB  PHE P   4     -20.570  29.174  10.026  1.00 27.56 LIG 0.07  C 
BRANCH 42 43
ATOM     43  CG  PHE P   4     -19.676  30.042   9.159  1.00 23.05 LIG-0.06  A 
ATOM     44  CD2 PHE P   4     -19.807  31.430   9.174  1.00 26.81 LIG 0.01  A 
ATOM     45  CE2 PHE P   4     -19.010  32.250   8.358  1.00 20.39 LIG 0.00  A 
ATOM     46  CZ  PHE P   4     -18.069  31.666   7.506  1.00 15.29 LIG 0.00  A 
ATOM     47  CE1 PHE P   4     -17.934  30.272   7.482  1.00 22.67 LIG 0.00  A 
ATOM     48  CD1 PHE P   4     -18.740  29.470   8.298  1.00 22.68 LIG 0.01  A 
ENDBRANCH 42 43
ENDBRANCH 41 42
BRANCH 41 49
ATOM     49  N   PHE P   4     -18.493  28.934  11.308  1.00 24.27 LIG-0.35  N 
ATOM     50 H    PHE P   4     -18.126  28.762  10.550  1.00 24.27 LIG 0.16  HD
ATOM     51  C   GLU P   3     -17.824  29.361  12.375  1.00 33.66 LIG 0.24  C 
ATOM     52 O    GLU P   3     -18.365  29.702  13.427  1.00 34.99 LIG-0.27  OA
BRANCH 51 53
ATOM     53  CA  GLU P   3     -16.316  29.430  12.226  1.00 34.60 LIG 0.18  C 
BRANCH 53 54
ATOM     54  CB  GLU P   3     -15.905  30.859  11.877  1.00 27.84 LIG 0.04  C 
BRANCH 54 55
ATOM     55  CG  GLU P   3     -16.976  31.645  11.133  1.00 43.05 LIG 0.12  C 
BRANCH 55 56
ATOM     56  CD  GLU P   3     -17.909  32.375  12.075  1.00 49.21 LIG 0.17  C 
ATOM     57 OE1  GLU P   3     -17.426  33.252  12.823  1.00 52.28 LIG-0.65  OA
ATOM     58 OE2  GLU P   3     -19.122  32.074  12.065  1.00 52.44 LIG-0.65  OA
ENDBRANCH 55 56
ENDBRANCH 54 55
ENDBRANCH 53 54
BRANCH 53 59
ATOM     59  N   GLU P   3     -15.834  28.491  11.220  1.00 36.80 LIG-0.35  N 
ATOM     60 H    GLU P   3     -15.461  28.861  10.540  1.00 36.80 LIG 0.16  HD
ATOM     61  C   ALA P   2     -15.973  27.177  11.368  1.00 41.96 LIG 0.26  C 
ATOM     62 O    ALA P   2     -16.557  26.677  12.328  1.00 34.80 LIG-0.27  OA
BRANCH 61 63
ATOM     63  CA  ALA P   2     -15.365  26.299  10.264  1.00 47.40 LIG 0.40  C 
ATOM     64  CB  ALA P   2     -14.148  25.552  10.784  1.00 40.76 LIG 0.06  C 
ATOM     65  N   ALA P   2     -15.018  27.055   9.059  1.00 49.60 LIG 0.61  N 
ENDBRANCH 61 63
ENDBRANCH 53 59
ENDBRANCH 51 53
ENDBRANCH 41 49
ENDBRANCH 39 41
ENDBRANCH 1 37
TORSDOF 24
ENDMDL
MODEL 23
USER: ADFR SOLUTION from run 124
USER: SCORE 17.314103 LL:  -4.643 LR: -15.542 RR:   0.000 FEB:  -8.383
USER: RMSD 9.065971
USER: SEED 123
USER: STATUS no improvement in best in 2 clusters for 5 generations
USER: GENES 26
USER: genes 0 Translation |==|  0.56285 0.42563 0.62094
USER: genes 1 Rotation |==|  0.59145 0.96341 0.65799 0.54397
USER: genes 2 Torsion [C]-CA--CB-[CG] |==|  0.56983
USER: genes 3 Torsion [CA]-CB--CG-[CD] |==|  0.78624
USER: genes 4 Torsion [CB]-CG--CD-[NE] |==|  0.14521
USER: genes 5 Torsion [CG]-CD--NE-[CZ] |==|  0.32782
USER: genes 6 Torsion [N]-CA--C-[N] |==|  0.01990
USER: genes 7 Torsion [C]-N--CA-[C] |==|  0.58827
USER: genes 8 Torsion [N]-CA--C-[N] |==|  0.28673
USER: genes 9 Torsion [C]-N--CA-[CB] |==|  0.89264
USER: genes 10 Torsion [N]-CA--C-[OXT] |==|  0.23203
USER: genes 11 Torsion [N]-CA--CB-[CG] |==|  0.73827
USER: genes 12 Torsion [CA]-CB--CG-[OD2] |==|  0.27746
USER: genes 13 Torsion [N]-CA--CB-[CG] |==|  0.57287
USER: genes 14 Torsion [CA]-CB--CG-[ND1] |==|  0.04385
USER: genes 15 Torsion [CB]-CA--N-[C] |==|  0.39091
USER: genes 16 Torsion [N]-C--CA-[N] |==|  0.94044
USER: genes 17 Torsion [C]-CA--CB-[CG] |==|  0.41513
USER: genes 18 Torsion [CA]-CB--CG-[CD2] |==|  0.03731
USER: genes 19 Torsion [C]-CA--N-[C] |==|  0.68223
USER: genes 20 Torsion [N]-C--CA-[N] |==|  0.21126
USER: genes 21 Torsion [C]-CA--CB-[CG] |==|  0.26094
USER: genes 22 Torsion [CA]-CB--CG-[CD] |==|  0.13981
USER: genes 23 Torsion [CB]-CG--CD-[OE1] |==|  0.80351
USER: genes 24 Torsion [C]-CA--N-[C] |==|  0.71111
USER: genes 25 Torsion [N]-C--CA-[N] |==|  0.46349
ROOT
ATOM      1  CA  ARG P   5     -20.827  24.799  15.175  1.00 25.78 LIG 0.18  C 
ENDROOT
BRANCH 1 2
ATOM      2  CB  ARG P   5     -20.916  23.273  15.349  1.00 22.44 LIG 0.04  C 
BRANCH 2 3
ATOM      3  CG  ARG P   5     -22.344  22.749  15.496  1.00 26.51 LIG 0.02  C 
BRANCH 3 4
ATOM      4  CD  ARG P   5     -22.910  23.002  16.898  1.00 28.41 LIG 0.14  C 
BRANCH 4 5
ATOM      5  NE  ARG P   5     -22.781  24.402  17.296  1.00 33.08 LIG-0.23  N 
ATOM      6  CZ  ARG P   5     -23.809  25.204  17.567  1.00 31.92 LIG 0.67  C 
ATOM      7  NH2 ARG P   5     -23.584  26.455  17.933  1.00 32.43 LIG-0.23  N 
ATOM      8  NH1 ARG P   5     -25.058  24.750  17.498  1.00 23.99 LIG-0.23  N 
ATOM      9 2HH2 ARG P   5     -24.244  26.977  18.110  1.00 32.43 LIG 0.17  HD
ATOM     10 1HH2 ARG P   5     -22.777  26.746  17.994  1.00 32.43 LIG 0.17  HD
ATOM     11 2HH1 ARG P   5     -25.717  25.274  17.675  1.00 23.99 LIG 0.17  HD
ATOM     12 1HH1 ARG P   5     -25.207  23.933  17.277  1.00 23.99 LIG 0.17  HD
ATOM     13 HE   ARG P   5     -21.989  24.730  17.358  1.00 33.08 LIG 0.18  HD
ENDBRANCH 4 5
ENDBRANCH 3 4
ENDBRANCH 2 3
ENDBRANCH 1 2
BRANCH 1 14
ATOM     14  C   ARG P   5     -19.542  25.178  14.440  1.00 22.77 LIG 0.24  C 
ATOM     15 O    ARG P   5     -18.448  24.750  14.822  1.00 23.41 LIG-0.27  OA
ATOM     16  N   HIS P   6     -19.673  25.995  13.398  1.00 20.21 LIG-0.35  N 
ATOM     17 H    HIS P   6     -20.425  26.317  13.133  1.00 20.21 LIG 0.16  HD
BRANCH 16 18
ATOM     18  CA  HIS P   6     -18.520  26.421  12.603  1.00 24.32 LIG 0.18  C 
BRANCH 18 19
ATOM     19  C   HIS P   6     -18.656  27.831  12.013  1.00 31.11 LIG 0.24  C 
ATOM     20  N   ASP P   7     -17.974  28.799  12.617  1.00 28.94 LIG-0.34  N 
ATOM     21 H    ASP P   7     -17.603  28.722  13.390  1.00 28.94 LIG 0.16  HD
ATOM     22 O    HIS P   6     -19.369  28.037  11.025  1.00 27.73 LIG-0.27  OA
BRANCH 20 23
ATOM     23  CA  ASP P   7     -17.804  30.106  11.984  1.00 30.45 LIG 0.20  C 
BRANCH 23 24
ATOM     24  C   ASP P   7     -18.997  31.036  12.279  1.00 38.41 LIG 0.20  C 
ATOM     25 OXT  ASP P   7     -19.062  31.690  13.320  1.00 43.84 LIG-0.65  OA
ATOM     26 O    ASP P   7     -19.948  31.161  11.499  1.00 36.31 LIG-0.65  OA
ENDBRANCH 23 24
BRANCH 23 27
ATOM     27  CB  ASP P   7     -17.580  29.943  10.480  1.00 42.34 LIG 0.15  C 
BRANCH 27 28
ATOM     28  CG  ASP P   7     -16.099  29.906  10.105  1.00 55.06 LIG 0.17  C 
ATOM     29 OD2  ASP P   7     -15.574  28.792   9.896  1.00 62.01 LIG-0.65  OA
ATOM     30 OD1  ASP P   7     -15.460  30.982  10.020  1.00 52.19 LIG-0.65  OA
ENDBRANCH 27 28
ENDBRANCH 23 27
ENDBRANCH 20 23
ENDBRANCH 18 19
BRANCH 18 31
ATOM     31  CB  HIS P   6     -18.253  25.426  11.488  1.00 25.23 LIG 0.10  C 
BRANCH 31 32
ATOM     32  CG  HIS P   6     -16.830  25.397  11.034  1.00 20.03 LIG 0.06  A 
ATOM     33 ND1  HIS P   6     -15.807  25.951  11.771  1.00 23.24 LIG-0.24  NA
ATOM     34  CE1 HIS P   6     -14.666  25.791  11.125  1.00 27.69 LIG 0.23  A 
ATOM     35 NE2  HIS P   6     -14.915  25.162   9.988  1.00 30.02 LIG-0.25  NA
ATOM     36  CD2 HIS P   6     -16.262  24.902   9.909  1.00 26.95 LIG 0.14  A 
ENDBRANCH 31 32
ENDBRANCH 18 31
ENDBRANCH 16 18
ENDBRANCH 1 14
BRANCH 1 37
ATOM     37  N   ARG P   5     -21.990  25.301  14.457  1.00 23.27 LIG-0.35  N 
ATOM     38 H    ARG P   5     -22.258  24.799  13.812  1.00 23.27 LIG 0.16  HD
ATOM     39  C   PHE P   4     -22.565  26.448  14.802  1.00 23.02 LIG 0.24  C 
ATOM     40 O    PHE P   4     -22.173  27.143  15.742  1.00 27.32 LIG-0.27  OA
BRANCH 39 41
ATOM     41  CA  PHE P   4     -23.762  26.867  13.985  1.00 26.78 LIG 0.18  C 
BRANCH 41 42
ATOM     42  CB  PHE P   4     -25.059  26.499  14.710  1.00 27.56 LIG 0.07  C 
BRANCH 42 43
ATOM     43  CG  PHE P   4     -26.224  27.431  14.431  1.00 23.05 LIG-0.06  A 
ATOM     44  CD2 PHE P   4     -26.163  28.344  13.379  1.00 26.81 LIG 0.01  A 
ATOM     45  CE2 PHE P   4     -27.218  29.236  13.122  1.00 20.39 LIG 0.00  A 
ATOM     46  CZ  PHE P   4     -28.350  29.218  13.941  1.00 15.29 LIG 0.00  A 
ATOM     47  CE1 PHE P   4     -28.417  28.306  15.003  1.00 22.67 LIG 0.00  A 
ATOM     48  CD1 PHE P   4     -27.355  27.428  15.247  1.00 22.68 LIG 0.01  A 
ENDBRANCH 42 43
ENDBRANCH 41 42
BRANCH 41 49
ATOM     49  N   PHE P   4     -23.674  26.165  12.713  1.00 24.27 LIG-0.35  N 
ATOM     50 H    PHE P   4     -23.755  25.310  12.773  1.00 24.27 LIG 0.16  HD
ATOM     51  C   GLU P   3     -23.485  26.811  11.567  1.00 33.66 LIG 0.24  C 
ATOM     52 O    GLU P   3     -23.471  28.039  11.471  1.00 34.99 LIG-0.27  OA
BRANCH 51 53
ATOM     53  CA  GLU P   3     -23.300  25.939  10.339  1.00 34.60 LIG 0.18  C 
BRANCH 53 54
ATOM     54  CB  GLU P   3     -22.638  26.757   9.231  1.00 27.84 LIG 0.04  C 
BRANCH 54 55
ATOM     55  CG  GLU P   3     -21.122  26.625   9.189  1.00 43.05 LIG 0.12  C 
BRANCH 55 56
ATOM     56  CD  GLU P   3     -20.671  25.180   9.198  1.00 49.21 LIG 0.17  C 
ATOM     57 OE1  GLU P   3     -20.812  24.525  10.253  1.00 52.28 LIG-0.65  OA
ATOM     58 OE2  GLU P   3     -20.180  24.702   8.153  1.00 52.44 LIG-0.65  OA
ENDBRANCH 55 56
ENDBRANCH 54 55
ENDBRANCH 53 54
BRANCH 53 59
ATOM     59  N   GLU P   3     -24.566  25.378   9.884  1.00 36.80 LIG-0.35  N 
ATOM     60 H    GLU P   3     -25.072  25.935   9.469  1.00 36.80 LIG 0.16  HD
ATOM     61  C   ALA P   2     -24.886  24.107  10.106  1.00 41.96 LIG 0.26  C 
ATOM     62 O    ALA P   2     -24.165  23.345  10.748  1.00 34.80 LIG-0.27  OA
BRANCH 61 63
ATOM     63  CA  ALA P   2     -26.222  23.629   9.519  1.00 47.40 LIG 0.40  C 
ATOM     64  CB  ALA P   2     -27.389  24.279  10.244  1.00 40.76 LIG 0.06  C 
ATOM     65  N   ALA P   2     -26.364  22.172   9.535  1.00 49.60 LIG 0.61  N 
ENDBRANCH 61 63
ENDBRANCH 53 59
ENDBRANCH 51 53
ENDBRANCH 41 49
ENDBRANCH 39 41
ENDBRANCH 1 37
TORSDOF 24
ENDMDL
MODEL 24
USER: ADFR SOLUTION from run 140
USER: SCORE 18.257871 LL:  -3.866 LR: -15.529 RR:   0.000 FEB:  -8.370
USER: RMSD 5.682637
USER: SEED 139
USER: STATUS no improvement in best in 12 clusters for 5 generations
USER: GENES 26
USER: genes 0 Translation |==|  0.43461 0.47832 0.49604
USER: genes 1 Rotation |==|  0.95812 0.37075 0.57239 0.63484
USER: genes 2 Torsion [C]-CA--CB-[CG] |==|  0.21385
USER: genes 3 Torsion [CA]-CB--CG-[CD] |==|  0.18507
USER: genes 4 Torsion [CB]-CG--CD-[NE] |==|  0.07228
USER: genes 5 Torsion [CG]-CD--NE-[CZ] |==|  0.57718
USER: genes 6 Torsion [N]-CA--C-[N] |==|  0.10023
USER: genes 7 Torsion [C]-N--CA-[C] |==|  0.20918
USER: genes 8 Torsion [N]-CA--C-[N] |==|  0.95950
USER: genes 9 Torsion [C]-N--CA-[CB] |==|  0.32286
USER: genes 10 Torsion [N]-CA--C-[OXT] |==|  0.10192
USER: genes 11 Torsion [N]-CA--CB-[CG] |==|  0.77916
USER: genes 12 Torsion [CA]-CB--CG-[OD2] |==|  0.80304
USER: genes 13 Torsion [N]-CA--CB-[CG] |==|  0.62521
USER: genes 14 Torsion [CA]-CB--CG-[ND1] |==|  0.81230
USER: genes 15 Torsion [CB]-CA--N-[C] |==|  0.17624
USER: genes 16 Torsion [N]-C--CA-[N] |==|  0.28155
USER: genes 17 Torsion [C]-CA--CB-[CG] |==|  0.16154
USER: genes 18 Torsion [CA]-CB--CG-[CD2] |==|  0.22074
USER: genes 19 Torsion [C]-CA--N-[C] |==|  0.67809
USER: genes 20 Torsion [N]-C--CA-[N] |==|  0.47364
USER: genes 21 Torsion [C]-CA--CB-[CG] |==|  0.37850
USER: genes 22 Torsion [CA]-CB--CG-[CD] |==|  0.42084
USER: genes 23 Torsion [CB]-CG--CD-[OE1] |==|  0.55472
USER: genes 24 Torsion [C]-CA--N-[C] |==|  0.76924
USER: genes 25 Torsion [N]-C--CA-[N] |==|  0.15881
ROOT
ATOM      1  CA  ARG P   5     -24.097  25.866  12.927  1.00 25.78 LIG 0.18  C 
ENDROOT
BRANCH 1 2
ATOM      2  CB  ARG P   5     -24.088  27.395  13.095  1.00 22.44 LIG 0.04  C 
BRANCH 2 3
ATOM      3  CG  ARG P   5     -25.399  27.966  13.635  1.00 26.51 LIG 0.02  C 
BRANCH 3 4
ATOM      4  CD  ARG P   5     -25.670  27.525  15.078  1.00 28.41 LIG 0.14  C 
BRANCH 4 5
ATOM      5  NE  ARG P   5     -24.435  27.213  15.795  1.00 33.08 LIG-0.23  N 
ATOM      6  CZ  ARG P   5     -24.350  26.347  16.803  1.00 31.92 LIG 0.67  C 
ATOM      7  NH2 ARG P   5     -23.180  26.125  17.378  1.00 32.43 LIG-0.23  N 
ATOM      8  NH1 ARG P   5     -25.428  25.686  17.221  1.00 23.99 LIG-0.23  N 
ATOM      9 2HH2 ARG P   5     -23.120  25.566  18.029  1.00 32.43 LIG 0.17  HD
ATOM     10 1HH2 ARG P   5     -22.479  26.538  17.099  1.00 32.43 LIG 0.17  HD
ATOM     11 2HH1 ARG P   5     -25.365  25.129  17.872  1.00 23.99 LIG 0.17  HD
ATOM     12 1HH1 ARG P   5     -26.187  25.817  16.839  1.00 23.99 LIG 0.17  HD
ATOM     13 HE   ARG P   5     -23.716  27.615  15.550  1.00 33.08 LIG 0.18  HD
ENDBRANCH 4 5
ENDBRANCH 3 4
ENDBRANCH 2 3
ENDBRANCH 1 2
BRANCH 1 14
ATOM     14  C   ARG P   5     -24.877  25.473  11.672  1.00 22.77 LIG 0.24  C 
ATOM     15 O    ARG P   5     -25.717  26.238  11.188  1.00 23.41 LIG-0.27  OA
ATOM     16  N   HIS P   6     -24.613  24.273  11.162  1.00 20.21 LIG-0.35  N 
ATOM     17 H    HIS P   6     -24.046  23.722  11.499  1.00 20.21 LIG 0.16  HD
BRANCH 16 18
ATOM     18  CA  HIS P   6     -25.283  23.786   9.954  1.00 24.32 LIG 0.18  C 
BRANCH 18 19
ATOM     19  C   HIS P   6     -24.770  24.423   8.656  1.00 31.11 LIG 0.24  C 
ATOM     20  N   ASP P   7     -24.029  25.519   8.782  1.00 28.94 LIG-0.34  N 
ATOM     21 H    ASP P   7     -23.956  25.974   9.508  1.00 28.94 LIG 0.16  HD
ATOM     22 O    HIS P   6     -25.045  23.928   7.557  1.00 27.73 LIG-0.27  OA
BRANCH 20 23
ATOM     23  CA  ASP P   7     -23.262  26.041   7.652  1.00 30.45 LIG 0.20  C 
BRANCH 23 24
ATOM     24  C   ASP P   7     -21.752  26.066   7.959  1.00 38.41 LIG 0.20  C 
ATOM     25 OXT  ASP P   7     -21.214  25.180   8.622  1.00 43.84 LIG-0.65  OA
ATOM     26 O    ASP P   7     -21.013  26.978   7.570  1.00 36.31 LIG-0.65  OA
ENDBRANCH 23 24
BRANCH 23 27
ATOM     27  CB  ASP P   7     -23.776  27.425   7.254  1.00 42.34 LIG 0.15  C 
BRANCH 27 28
ATOM     28  CG  ASP P   7     -25.048  27.361   6.408  1.00 55.06 LIG 0.17  C 
ATOM     29 OD2  ASP P   7     -24.951  26.942   5.236  1.00 62.01 LIG-0.65  OA
ATOM     30 OD1  ASP P   7     -26.138  27.728   6.908  1.00 52.19 LIG-0.65  OA
ENDBRANCH 27 28
ENDBRANCH 23 27
ENDBRANCH 20 23
ENDBRANCH 18 19
BRANCH 18 31
ATOM     31  CB  HIS P   6     -26.784  23.992  10.065  1.00 25.23 LIG 0.10  C 
BRANCH 31 32
ATOM     32  CG  HIS P   6     -27.588  22.808   9.639  1.00 20.03 LIG 0.06  A 
ATOM     33 ND1  HIS P   6     -27.635  22.378   8.331  1.00 23.24 LIG-0.24  NA
ATOM     34  CE1 HIS P   6     -28.430  21.326   8.244  1.00 27.69 LIG 0.23  A 
ATOM     35 NE2  HIS P   6     -28.908  21.065   9.449  1.00 30.02 LIG-0.25  NA
ATOM     36  CD2 HIS P   6     -28.394  21.977  10.340  1.00 26.95 LIG 0.14  A 
ENDBRANCH 31 32
ENDBRANCH 18 31
ENDBRANCH 16 18
ENDBRANCH 1 14
BRANCH 1 37
ATOM     37  N   ARG P   5     -22.738  25.350  12.863  1.00 23.27 LIG-0.35  N 
ATOM     38 H    ARG P   5     -22.531  24.975  12.117  1.00 23.27 LIG 0.16  HD
ATOM     39  C   PHE P   4     -21.911  25.468  13.896  1.00 23.02 LIG 0.24  C 
ATOM     40 O    PHE P   4     -22.225  26.025  14.951  1.00 27.32 LIG-0.27  OA
BRANCH 39 41
ATOM     41  CA  PHE P   4     -20.528  24.894  13.714  1.00 26.78 LIG 0.18  C 
BRANCH 41 42
ATOM     42  CB  PHE P   4     -20.081  24.164  14.983  1.00 27.56 LIG 0.07  C 
BRANCH 42 43
ATOM     43  CG  PHE P   4     -20.997  23.034  15.417  1.00 23.05 LIG-0.06  A 
ATOM     44  CD2 PHE P   4     -20.931  21.790  14.792  1.00 26.81 LIG 0.01  A 
ATOM     45  CE2 PHE P   4     -21.790  20.740  15.157  1.00 20.39 LIG 0.00  A 
ATOM     46  CZ  PHE P   4     -22.738  20.945  16.163  1.00 15.29 LIG 0.00  A 
ATOM     47  CE1 PHE P   4     -22.813  22.194  16.794  1.00 22.67 LIG 0.00  A 
ATOM     48  CD1 PHE P   4     -21.954  23.230  16.413  1.00 22.68 LIG 0.01  A 
ENDBRANCH 42 43
ENDBRANCH 41 42
BRANCH 41 49
ATOM     49  N   PHE P   4     -19.639  26.012  13.432  1.00 24.27 LIG-0.35  N 
ATOM     50 H    PHE P   4     -19.564  26.577  14.076  1.00 24.27 LIG 0.16  HD
ATOM     51  C   GLU P   3     -19.006  26.128  12.268  1.00 33.66 LIG 0.24  C 
ATOM     52 O    GLU P   3     -19.036  25.268  11.388  1.00 34.99 LIG-0.27  OA
BRANCH 51 53
ATOM     53  CA  GLU P   3     -18.205  27.403  12.076  1.00 34.60 LIG 0.18  C 
BRANCH 53 54
ATOM     54  CB  GLU P   3     -19.157  28.596  12.018  1.00 27.84 LIG 0.04  C 
BRANCH 54 55
ATOM     55  CG  GLU P   3     -18.690  29.798  12.828  1.00 43.05 LIG 0.12  C 
BRANCH 55 56
ATOM     56  CD  GLU P   3     -19.195  31.105  12.257  1.00 49.21 LIG 0.17  C 
ATOM     57 OE1  GLU P   3     -18.603  32.158  12.578  1.00 52.28 LIG-0.65  OA
ATOM     58 OE2  GLU P   3     -20.180  31.080  11.488  1.00 52.44 LIG-0.65  OA
ENDBRANCH 55 56
ENDBRANCH 54 55
ENDBRANCH 53 54
BRANCH 53 59
ATOM     59  N   GLU P   3     -17.377  27.340  10.878  1.00 36.80 LIG-0.35  N 
ATOM     60 H    GLU P   3     -17.725  27.714  10.187  1.00 36.80 LIG 0.16  HD
ATOM     61  C   ALA P   2     -16.188  26.748  10.882  1.00 41.96 LIG 0.26  C 
ATOM     62 O    ALA P   2     -15.736  26.175  11.873  1.00 34.80 LIG-0.27  OA
BRANCH 61 63
ATOM     63  CA  ALA P   2     -15.392  26.808   9.569  1.00 47.40 LIG 0.40  C 
ATOM     64  CB  ALA P   2     -14.073  26.066   9.709  1.00 40.76 LIG 0.06  C 
ATOM     65  N   ALA P   2     -15.158  28.176   9.106  1.00 49.60 LIG 0.61  N 
ENDBRANCH 61 63
ENDBRANCH 53 59
ENDBRANCH 51 53
ENDBRANCH 41 49
ENDBRANCH 39 41
ENDBRANCH 1 37
TORSDOF 24
ENDMDL
MODEL 25
USER: ADFR SOLUTION from run 102
USER: SCORE 18.841381 LL:  -5.090 LR: -15.514 RR:   0.000 FEB:  -8.355
USER: RMSD 8.860307
USER: SEED 101
USER: STATUS no improvement in best in 9 clusters for 5 generations
USER: GENES 26
USER: genes 0 Translation |==|  0.45547 0.42943 0.45960
USER: genes 1 Rotation |==|  0.22378 0.37678 0.10357 0.53693
USER: genes 2 Torsion [C]-CA--CB-[CG] |==|  0.23621
USER: genes 3 Torsion [CA]-CB--CG-[CD] |==|  0.27988
USER: genes 4 Torsion [CB]-CG--CD-[NE] |==|  0.48664
USER: genes 5 Torsion [CG]-CD--NE-[CZ] |==|  0.59367
USER: genes 6 Torsion [N]-CA--C-[N] |==|  0.95137
USER: genes 7 Torsion [C]-N--CA-[C] |==|  0.17445
USER: genes 8 Torsion [N]-CA--C-[N] |==|  0.73333
USER: genes 9 Torsion [C]-N--CA-[CB] |==|  0.46938
USER: genes 10 Torsion [N]-CA--C-[OXT] |==|  0.45172
USER: genes 11 Torsion [N]-CA--CB-[CG] |==|  0.96819
USER: genes 12 Torsion [CA]-CB--CG-[OD2] |==|  0.67323
USER: genes 13 Torsion [N]-CA--CB-[CG] |==|  0.53328
USER: genes 14 Torsion [CA]-CB--CG-[ND1] |==|  0.16912
USER: genes 15 Torsion [CB]-CA--N-[C] |==|  0.21015
USER: genes 16 Torsion [N]-C--CA-[N] |==|  0.35603
USER: genes 17 Torsion [C]-CA--CB-[CG] |==|  0.04478
USER: genes 18 Torsion [CA]-CB--CG-[CD2] |==|  0.71300
USER: genes 19 Torsion [C]-CA--N-[C] |==|  0.77917
USER: genes 20 Torsion [N]-C--CA-[N] |==|  0.43604
USER: genes 21 Torsion [C]-CA--CB-[CG] |==|  0.81505
USER: genes 22 Torsion [CA]-CB--CG-[CD] |==|  0.73790
USER: genes 23 Torsion [CB]-CG--CD-[OE1] |==|  0.18669
USER: genes 24 Torsion [C]-CA--N-[C] |==|  0.70884
USER: genes 25 Torsion [N]-C--CA-[N] |==|  0.08610
ROOT
ATOM      1  CA  ARG P   5     -23.565  24.876  12.271  1.00 25.78 LIG 0.18  C 
ENDROOT
BRANCH 1 2
ATOM      2  CB  ARG P   5     -24.614  25.218  11.198  1.00 22.44 LIG 0.04  C 
BRANCH 2 3
ATOM      3  CG  ARG P   5     -24.912  24.069  10.236  1.00 26.51 LIG 0.02  C 
BRANCH 3 4
ATOM      4  CD  ARG P   5     -26.214  23.342  10.593  1.00 28.41 LIG 0.14  C 
BRANCH 4 5
ATOM      5  NE  ARG P   5     -26.556  22.317   9.608  1.00 33.08 LIG-0.23  N 
ATOM      6  CZ  ARG P   5     -27.800  21.994   9.262  1.00 31.92 LIG 0.67  C 
ATOM      7  NH2 ARG P   5     -28.002  21.060   8.347  1.00 32.43 LIG-0.23  N 
ATOM      8  NH1 ARG P   5     -28.840  22.620   9.808  1.00 23.99 LIG-0.23  N 
ATOM      9 2HH2 ARG P   5     -28.804  20.847   8.120  1.00 32.43 LIG 0.17  HD
ATOM     10 1HH2 ARG P   5     -27.332  20.665   7.981  1.00 32.43 LIG 0.17  HD
ATOM     11 2HH1 ARG P   5     -29.640  22.406   9.579  1.00 23.99 LIG 0.17  HD
ATOM     12 1HH1 ARG P   5     -28.711  23.239  10.391  1.00 23.99 LIG 0.17  HD
ATOM     13 HE   ARG P   5     -25.911  21.895   9.228  1.00 33.08 LIG 0.18  HD
ENDBRANCH 4 5
ENDBRANCH 3 4
ENDBRANCH 2 3
ENDBRANCH 1 2
BRANCH 1 14
ATOM     14  C   ARG P   5     -22.154  25.099  11.728  1.00 22.77 LIG 0.24  C 
ATOM     15 O    ARG P   5     -21.647  24.293  10.942  1.00 23.41 LIG-0.27  OA
ATOM     16  N   HIS P   6     -21.516  26.182  12.164  1.00 20.21 LIG-0.35  N 
ATOM     17 H    HIS P   6     -21.848  26.741  12.726  1.00 20.21 LIG 0.16  HD
BRANCH 16 18
ATOM     18  CA  HIS P   6     -20.164  26.515  11.708  1.00 24.32 LIG 0.18  C 
BRANCH 18 19
ATOM     19  C   HIS P   6     -20.065  26.795  10.202  1.00 31.11 LIG 0.24  C 
ATOM     20  N   ASP P   7     -19.690  25.781   9.430  1.00 28.94 LIG-0.34  N 
ATOM     21 H    ASP P   7     -19.352  25.046   9.724  1.00 28.94 LIG 0.16  HD
ATOM     22 O    HIS P   6     -20.325  27.916   9.750  1.00 27.73 LIG-0.27  OA
BRANCH 20 23
ATOM     23  CA  ASP P   7     -19.835  25.850   7.977  1.00 30.45 LIG 0.20  C 
BRANCH 23 24
ATOM     24  C   ASP P   7     -21.318  25.882   7.558  1.00 38.41 LIG 0.20  C 
ATOM     25 OXT  ASP P   7     -21.663  26.251   6.436  1.00 43.84 LIG-0.65  OA
ATOM     26 O    ASP P   7     -22.229  25.555   8.326  1.00 36.31 LIG-0.65  OA
ENDBRANCH 23 24
BRANCH 23 27
ATOM     27  CB  ASP P   7     -19.090  24.691   7.313  1.00 42.34 LIG 0.15  C 
BRANCH 27 28
ATOM     28  CG  ASP P   7     -18.177  23.943   8.284  1.00 55.06 LIG 0.17  C 
ATOM     29 OD2  ASP P   7     -16.950  23.943   8.053  1.00 62.01 LIG-0.65  OA
ATOM     30 OD1  ASP P   7     -18.680  23.357   9.272  1.00 52.19 LIG-0.65  OA
ENDBRANCH 27 28
ENDBRANCH 23 27
ENDBRANCH 20 23
ENDBRANCH 18 19
BRANCH 18 31
ATOM     31  CB  HIS P   6     -19.195  25.408  12.085  1.00 25.23 LIG 0.10  C 
BRANCH 31 32
ATOM     32  CG  HIS P   6     -17.758  25.783  11.915  1.00 20.03 LIG 0.06  A 
ATOM     33 ND1  HIS P   6     -17.179  26.826  12.604  1.00 23.24 LIG-0.24  NA
ATOM     34  CE1 HIS P   6     -15.912  26.935  12.248  1.00 27.69 LIG 0.23  A 
ATOM     35 NE2  HIS P   6     -15.651  26.006  11.344  1.00 30.02 LIG-0.25  NA
ATOM     36  CD2 HIS P   6     -16.790  25.270  11.121  1.00 26.95 LIG 0.14  A 
ENDBRANCH 31 32
ENDBRANCH 18 31
ENDBRANCH 16 18
ENDBRANCH 1 14
BRANCH 1 37
ATOM     37  N   ARG P   5     -23.781  25.673  13.469  1.00 23.27 LIG-0.35  N 
ATOM     38 H    ARG P   5     -23.226  26.321  13.575  1.00 23.27 LIG 0.16  HD
ATOM     39  C   PHE P   4     -24.769  25.391  14.311  1.00 23.02 LIG 0.24  C 
ATOM     40 O    PHE P   4     -25.564  24.465  14.131  1.00 27.32 LIG-0.27  OA
BRANCH 39 41
ATOM     41  CA  PHE P   4     -24.894  26.285  15.519  1.00 26.78 LIG 0.18  C 
BRANCH 41 42
ATOM     42  CB  PHE P   4     -24.545  25.512  16.795  1.00 27.56 LIG 0.07  C 
BRANCH 42 43
ATOM     43  CG  PHE P   4     -23.804  24.209  16.559  1.00 23.05 LIG-0.06  A 
ATOM     44  CD2 PHE P   4     -24.471  22.988  16.658  1.00 26.81 LIG 0.01  A 
ATOM     45  CE2 PHE P   4     -23.798  21.769  16.473  1.00 20.39 LIG 0.00  A 
ATOM     46  CZ  PHE P   4     -22.429  21.774  16.192  1.00 15.29 LIG 0.00  A 
ATOM     47  CE1 PHE P   4     -21.751  22.996  16.095  1.00 22.67 LIG 0.00  A 
ATOM     48  CD1 PHE P   4     -22.436  24.201  16.288  1.00 22.68 LIG 0.01  A 
ENDBRANCH 42 43
ENDBRANCH 41 42
BRANCH 41 49
ATOM     49  N   PHE P   4     -26.275  26.744  15.567  1.00 24.27 LIG-0.35  N 
ATOM     50 H    PHE P   4     -26.770  26.320  16.128  1.00 24.27 LIG 0.16  HD
ATOM     51  C   GLU P   3     -26.710  27.736  14.796  1.00 33.66 LIG 0.24  C 
ATOM     52 O    GLU P   3     -25.977  28.406  14.068  1.00 34.99 LIG-0.27  OA
BRANCH 51 53
ATOM     53  CA  GLU P   3     -28.198  28.027  14.871  1.00 34.60 LIG 0.18  C 
BRANCH 53 54
ATOM     54  CB  GLU P   3     -28.956  27.019  14.010  1.00 27.84 LIG 0.04  C 
BRANCH 54 55
ATOM     55  CG  GLU P   3     -28.682  27.152  12.518  1.00 43.05 LIG 0.12  C 
BRANCH 55 56
ATOM     56  CD  GLU P   3     -29.709  28.019  11.822  1.00 49.21 LIG 0.17  C 
ATOM     57 OE1  GLU P   3     -29.739  29.237  12.100  1.00 52.28 LIG-0.65  OA
ATOM     58 OE2  GLU P   3     -30.481  27.484  10.998  1.00 52.44 LIG-0.65  OA
ENDBRANCH 55 56
ENDBRANCH 54 55
ENDBRANCH 53 54
BRANCH 53 59
ATOM     59  N   GLU P   3     -28.498  29.393  14.459  1.00 36.80 LIG-0.35  N 
ATOM     60 H    GLU P   3     -28.458  29.524  13.610  1.00 36.80 LIG 0.16  HD
ATOM     61  C   ALA P   2     -28.805  30.337  15.342  1.00 41.96 LIG 0.26  C 
ATOM     62 O    ALA P   2     -28.805  30.134  16.556  1.00 34.80 LIG-0.27  OA
BRANCH 61 63
ATOM     63  CA  ALA P   2     -29.162  31.717  14.769  1.00 47.40 LIG 0.40  C 
ATOM     64  CB  ALA P   2     -30.046  32.486  15.736  1.00 40.76 LIG 0.06  C 
ATOM     65  N   ALA P   2     -29.797  31.641  13.452  1.00 49.60 LIG 0.61  N 
ENDBRANCH 61 63
ENDBRANCH 53 59
ENDBRANCH 51 53
ENDBRANCH 41 49
ENDBRANCH 39 41
ENDBRANCH 1 37
TORSDOF 24
ENDMDL
MODEL 26
USER: ADFR SOLUTION from run 87
USER: SCORE 18.095235 LL:  -5.117 LR: -15.446 RR:   0.000 FEB:  -8.287
USER: RMSD 10.665883
USER: SEED 86
USER: STATUS no improvement in best in 1 clusters for 5 generations
USER: GENES 26
USER: genes 0 Translation |==|  0.58475 0.38572 0.45055
USER: genes 1 Rotation |==|  0.33354 0.04477 0.40257 0.57456
USER: genes 2 Torsion [C]-CA--CB-[CG] |==|  0.41517
USER: genes 3 Torsion [CA]-CB--CG-[CD] |==|  0.52572
USER: genes 4 Torsion [CB]-CG--CD-[NE] |==|  0.57738
USER: genes 5 Torsion [CG]-CD--NE-[CZ] |==|  0.18828
USER: genes 6 Torsion [N]-CA--C-[N] |==|  0.46031
USER: genes 7 Torsion [C]-N--CA-[C] |==|  0.57424
USER: genes 8 Torsion [N]-CA--C-[N] |==|  0.26320
USER: genes 9 Torsion [C]-N--CA-[CB] |==|  0.29045
USER: genes 10 Torsion [N]-CA--C-[OXT] |==|  0.51621
USER: genes 11 Torsion [N]-CA--CB-[CG] |==|  0.22787
USER: genes 12 Torsion [CA]-CB--CG-[OD2] |==|  0.25885
USER: genes 13 Torsion [N]-CA--CB-[CG] |==|  0.09828
USER: genes 14 Torsion [CA]-CB--CG-[ND1] |==|  0.73829
USER: genes 15 Torsion [CB]-CA--N-[C] |==|  0.23329
USER: genes 16 Torsion [N]-C--CA-[N] |==|  0.45366
USER: genes 17 Torsion [C]-CA--CB-[CG] |==|  0.14242
USER: genes 18 Torsion [CA]-CB--CG-[CD2] |==|  0.19344
USER: genes 19 Torsion [C]-CA--N-[C] |==|  0.19172
USER: genes 20 Torsion [N]-C--CA-[N] |==|  0.88636
USER: genes 21 Torsion [C]-CA--CB-[CG] |==|  0.96457
USER: genes 22 Torsion [CA]-CB--CG-[CD] |==|  0.73056
USER: genes 23 Torsion [CB]-CG--CD-[OE1] |==|  0.71510
USER: genes 24 Torsion [C]-CA--N-[C] |==|  0.84602
USER: genes 25 Torsion [N]-C--CA-[N] |==|  0.29269
ROOT
ATOM      1  CA  ARG P   5     -20.269  23.991  12.108  1.00 25.78 LIG 0.18  C 
ENDROOT
BRANCH 1 2
ATOM      2  CB  ARG P   5     -20.427  22.516  12.515  1.00 22.44 LIG 0.04  C 
BRANCH 2 3
ATOM      3  CG  ARG P   5     -20.395  22.284  14.026  1.00 26.51 LIG 0.02  C 
BRANCH 3 4
ATOM      4  CD  ARG P   5     -20.327  20.794  14.380  1.00 28.41 LIG 0.14  C 
BRANCH 4 5
ATOM      5  NE  ARG P   5     -20.929  20.513  15.681  1.00 33.08 LIG-0.23  N 
ATOM      6  CZ  ARG P   5     -22.229  20.624  15.947  1.00 31.92 LIG 0.67  C 
ATOM      7  NH2 ARG P   5     -22.677  20.331  17.156  1.00 32.43 LIG-0.23  N 
ATOM      8  NH1 ARG P   5     -23.084  21.001  14.999  1.00 23.99 LIG-0.23  N 
ATOM      9 2HH2 ARG P   5     -23.516  20.401  17.333  1.00 32.43 LIG 0.17  HD
ATOM     10 1HH2 ARG P   5     -22.129  20.072  17.766  1.00 32.43 LIG 0.17  HD
ATOM     11 2HH1 ARG P   5     -23.922  21.070  15.178  1.00 23.99 LIG 0.17  HD
ATOM     12 1HH1 ARG P   5     -22.798  21.176  14.207  1.00 23.99 LIG 0.17  HD
ATOM     13 HE   ARG P   5     -20.410  20.260  16.318  1.00 33.08 LIG 0.18  HD
ENDBRANCH 4 5
ENDBRANCH 3 4
ENDBRANCH 2 3
ENDBRANCH 1 2
BRANCH 1 14
ATOM     14  C   ARG P   5     -19.576  24.097  10.749  1.00 22.77 LIG 0.24  C 
ATOM     15 O    ARG P   5     -20.212  24.426   9.743  1.00 23.41 LIG-0.27  OA
ATOM     16  N   HIS P   6     -18.280  23.800  10.720  1.00 20.21 LIG-0.35  N 
ATOM     17 H    HIS P   6     -17.829  23.551  11.408  1.00 20.21 LIG 0.16  HD
BRANCH 16 18
ATOM     18  CA  HIS P   6     -17.500  23.877   9.483  1.00 24.32 LIG 0.18  C 
BRANCH 18 19
ATOM     19  C   HIS P   6     -16.286  22.939   9.451  1.00 31.11 LIG 0.24  C 
ATOM     20  N   ASP P   7     -16.463  21.755   8.873  1.00 28.94 LIG-0.34  N 
ATOM     21 H    ASP P   7     -17.230  21.425   8.668  1.00 28.94 LIG 0.16  HD
ATOM     22 O    HIS P   6     -15.207  23.285   9.945  1.00 27.73 LIG-0.27  OA
BRANCH 20 23
ATOM     23  CA  ASP P   7     -15.321  20.906   8.536  1.00 30.45 LIG 0.20  C 
BRANCH 23 24
ATOM     24  C   ASP P   7     -15.406  20.397   7.084  1.00 38.41 LIG 0.20  C 
ATOM     25 OXT  ASP P   7     -14.597  19.583   6.639  1.00 43.84 LIG-0.65  OA
ATOM     26 O    ASP P   7     -16.275  20.786   6.296  1.00 36.31 LIG-0.65  OA
ENDBRANCH 23 24
BRANCH 23 27
ATOM     27  CB  ASP P   7     -15.206  19.750   9.531  1.00 42.34 LIG 0.15  C 
BRANCH 27 28
ATOM     28  CG  ASP P   7     -16.141  18.589   9.194  1.00 55.06 LIG 0.17  C 
ATOM     29 OD2  ASP P   7     -15.691  17.658   8.494  1.00 62.01 LIG-0.65  OA
ATOM     30 OD1  ASP P   7     -17.320  18.604   9.623  1.00 52.19 LIG-0.65  OA
ENDBRANCH 27 28
ENDBRANCH 23 27
ENDBRANCH 20 23
ENDBRANCH 18 19
BRANCH 18 31
ATOM     31  CB  HIS P   6     -17.046  25.305   9.235  1.00 25.23 LIG 0.10  C 
BRANCH 31 32
ATOM     32  CG  HIS P   6     -16.713  26.056  10.483  1.00 20.03 LIG 0.06  A 
ATOM     33 ND1  HIS P   6     -17.627  26.859  11.129  1.00 23.24 LIG-0.24  NA
ATOM     34  CE1 HIS P   6     -17.057  27.406  12.188  1.00 27.69 LIG 0.23  A 
ATOM     35 NE2  HIS P   6     -15.801  26.993  12.245  1.00 30.02 LIG-0.25  NA
ATOM     36  CD2 HIS P   6     -15.563  26.145  11.190  1.00 26.95 LIG 0.14  A 
ENDBRANCH 31 32
ENDBRANCH 18 31
ENDBRANCH 16 18
ENDBRANCH 1 14
BRANCH 1 37
ATOM     37  N   ARG P   5     -21.564  24.653  12.071  1.00 23.27 LIG-0.35  N 
ATOM     38 H    ARG P   5     -21.928  24.689  11.292  1.00 23.27 LIG 0.16  HD
ATOM     39  C   PHE P   4     -22.110  25.151  13.175  1.00 23.02 LIG 0.24  C 
ATOM     40 O    PHE P   4     -21.578  25.074  14.285  1.00 27.32 LIG-0.27  OA
BRANCH 39 41
ATOM     41  CA  PHE P   4     -23.455  25.816  13.014  1.00 26.78 LIG 0.18  C 
BRANCH 41 42
ATOM     42  CB  PHE P   4     -23.293  27.206  12.392  1.00 27.56 LIG 0.07  C 
BRANCH 42 43
ATOM     43  CG  PHE P   4     -22.465  27.236  11.120  1.00 23.05 LIG-0.06  A 
ATOM     44  CD2 PHE P   4     -22.955  26.672   9.943  1.00 26.81 LIG 0.01  A 
ATOM     45  CE2 PHE P   4     -22.194  26.662   8.763  1.00 20.39 LIG 0.00  A 
ATOM     46  CZ  PHE P   4     -20.913  27.221   8.766  1.00 15.29 LIG 0.00  A 
ATOM     47  CE1 PHE P   4     -20.411  27.787   9.945  1.00 22.67 LIG 0.00  A 
ATOM     48  CD1 PHE P   4     -21.182  27.783  11.113  1.00 22.68 LIG 0.01  A 
ENDBRANCH 42 43
ENDBRANCH 41 42
BRANCH 41 49
ATOM     49  N   PHE P   4     -24.038  25.921  14.344  1.00 24.27 LIG-0.35  N 
ATOM     50 H    PHE P   4     -24.721  25.414  14.472  1.00 24.27 LIG 0.16  HD
ATOM     51  C   GLU P   3     -23.539  26.738  15.266  1.00 33.66 LIG 0.24  C 
ATOM     52 O    GLU P   3     -22.503  27.386  15.113  1.00 34.99 LIG-0.27  OA
BRANCH 51 53
ATOM     53  CA  GLU P   3     -24.319  26.826  16.564  1.00 34.60 LIG 0.18  C 
BRANCH 53 54
ATOM     54  CB  GLU P   3     -23.940  25.650  17.464  1.00 27.84 LIG 0.04  C 
BRANCH 54 55
ATOM     55  CG  GLU P   3     -23.154  24.558  16.753  1.00 43.05 LIG 0.12  C 
BRANCH 55 56
ATOM     56  CD  GLU P   3     -24.039  23.418  16.297  1.00 49.21 LIG 0.17  C 
ATOM     57 OE1  GLU P   3     -24.036  22.364  16.968  1.00 52.28 LIG-0.65  OA
ATOM     58 OE2  GLU P   3     -24.737  23.578  15.272  1.00 52.44 LIG-0.65  OA
ENDBRANCH 55 56
ENDBRANCH 54 55
ENDBRANCH 53 54
BRANCH 53 59
ATOM     59  N   GLU P   3     -25.757  26.854  16.325  1.00 36.80 LIG-0.35  N 
ATOM     60 H    GLU P   3     -26.197  26.241  16.736  1.00 36.80 LIG 0.16  HD
ATOM     61  C   ALA P   2     -26.314  27.762  15.531  1.00 41.96 LIG 0.26  C 
ATOM     62 O    ALA P   2     -25.654  28.597  14.914  1.00 34.80 LIG-0.27  OA
BRANCH 61 63
ATOM     63  CA  ALA P   2     -27.846  27.718  15.415  1.00 47.40 LIG 0.40  C 
ATOM     64  CB  ALA P   2     -28.272  27.741  13.956  1.00 40.76 LIG 0.06  C 
ATOM     65  N   ALA P   2     -28.505  28.796  16.153  1.00 49.60 LIG 0.61  N 
ENDBRANCH 61 63
ENDBRANCH 53 59
ENDBRANCH 51 53
ENDBRANCH 41 49
ENDBRANCH 39 41
ENDBRANCH 1 37
TORSDOF 24
ENDMDL
MODEL 27
USER: ADFR SOLUTION from run 105
USER: SCORE 19.144638 LL:  -4.459 LR: -15.399 RR:   0.000 FEB:  -8.240
USER: RMSD 9.071214
USER: SEED 104
USER: STATUS no improvement in best in 4 clusters for 5 generations
USER: GENES 26
USER: genes 0 Translation |==|  0.40294 0.43822 0.45214
USER: genes 1 Rotation |==|  0.63072 0.76340 0.88740 0.61599
USER: genes 2 Torsion [C]-CA--CB-[CG] |==|  0.50957
USER: genes 3 Torsion [CA]-CB--CG-[CD] |==|  0.71051
USER: genes 4 Torsion [CB]-CG--CD-[NE] |==|  0.72213
USER: genes 5 Torsion [CG]-CD--NE-[CZ] |==|  0.64904
USER: genes 6 Torsion [N]-CA--C-[N] |==|  0.86134
USER: genes 7 Torsion [C]-N--CA-[C] |==|  0.54874
USER: genes 8 Torsion [N]-CA--C-[N] |==|  0.41267
USER: genes 9 Torsion [C]-N--CA-[CB] |==|  0.46644
USER: genes 10 Torsion [N]-CA--C-[OXT] |==|  0.62231
USER: genes 11 Torsion [N]-CA--CB-[CG] |==|  0.73286
USER: genes 12 Torsion [CA]-CB--CG-[OD2] |==|  0.86615
USER: genes 13 Torsion [N]-CA--CB-[CG] |==|  0.47260
USER: genes 14 Torsion [CA]-CB--CG-[ND1] |==|  0.64088
USER: genes 15 Torsion [CB]-CA--N-[C] |==|  0.86817
USER: genes 16 Torsion [N]-C--CA-[N] |==|  0.03688
USER: genes 17 Torsion [C]-CA--CB-[CG] |==|  0.45127
USER: genes 18 Torsion [CA]-CB--CG-[CD2] |==|  0.51366
USER: genes 19 Torsion [C]-CA--N-[C] |==|  0.74757
USER: genes 20 Torsion [N]-C--CA-[N] |==|  0.92046
USER: genes 21 Torsion [C]-CA--CB-[CG] |==|  0.99408
USER: genes 22 Torsion [CA]-CB--CG-[CD] |==|  0.40401
USER: genes 23 Torsion [CB]-CG--CD-[OE1] |==|  0.27911
USER: genes 24 Torsion [C]-CA--N-[C] |==|  0.80417
USER: genes 25 Torsion [N]-C--CA-[N] |==|  0.38266
ROOT
ATOM      1  CA  ARG P   5     -24.905  25.054  12.137  1.00 25.78 LIG 0.18  C 
ENDROOT
BRANCH 1 2
ATOM      2  CB  ARG P   5     -25.072  24.369  10.769  1.00 22.44 LIG 0.04  C 
BRANCH 2 3
ATOM      3  CG  ARG P   5     -26.519  24.301  10.283  1.00 26.51 LIG 0.02  C 
BRANCH 3 4
ATOM      4  CD  ARG P   5     -27.115  22.897  10.438  1.00 28.41 LIG 0.14  C 
BRANCH 4 5
ATOM      5  NE  ARG P   5     -27.106  22.157   9.178  1.00 33.08 LIG-0.23  N 
ATOM      6  CZ  ARG P   5     -28.178  21.586   8.634  1.00 31.92 LIG 0.67  C 
ATOM      7  NH2 ARG P   5     -28.066  20.949   7.480  1.00 32.43 LIG-0.23  N 
ATOM      8  NH1 ARG P   5     -29.366  21.671   9.229  1.00 23.99 LIG-0.23  N 
ATOM      9 2HH2 ARG P   5     -28.756  20.579   7.125  1.00 32.43 LIG 0.17  HD
ATOM     10 1HH2 ARG P   5     -27.304  20.906   7.085  1.00 32.43 LIG 0.17  HD
ATOM     11 2HH1 ARG P   5     -30.054  21.300   8.872  1.00 23.99 LIG 0.17  HD
ATOM     12 1HH1 ARG P   5     -29.445  22.098   9.971  1.00 23.99 LIG 0.17  HD
ATOM     13 HE   ARG P   5     -26.358  22.086   8.760  1.00 33.08 LIG 0.18  HD
ENDBRANCH 4 5
ENDBRANCH 3 4
ENDBRANCH 2 3
ENDBRANCH 1 2
BRANCH 1 14
ATOM     14  C   ARG P   5     -23.425  25.155  12.506  1.00 22.77 LIG 0.24  C 
ATOM     15 O    ARG P   5     -22.950  24.448  13.401  1.00 23.41 LIG-0.27  OA
ATOM     16  N   HIS P   6     -22.705  26.046  11.831  1.00 20.21 LIG-0.35  N 
ATOM     17 H    HIS P   6     -23.026  26.559  11.220  1.00 20.21 LIG 0.16  HD
BRANCH 16 18
ATOM     18  CA  HIS P   6     -21.274  26.228  12.081  1.00 24.32 LIG 0.18  C 
BRANCH 18 19
ATOM     19  C   HIS P   6     -20.709  27.549  11.541  1.00 31.11 LIG 0.24  C 
ATOM     20  N   ASP P   7     -19.702  28.088  12.218  1.00 28.94 LIG-0.34  N 
ATOM     21 H    ASP P   7     -19.459  27.842  13.006  1.00 28.94 LIG 0.16  HD
ATOM     22 O    HIS P   6     -21.183  28.070  10.524  1.00 27.73 LIG-0.27  OA
BRANCH 20 23
ATOM     23  CA  ASP P   7     -18.910  29.177  11.647  1.00 30.45 LIG 0.20  C 
BRANCH 23 24
ATOM     24  C   ASP P   7     -18.078  28.697  10.441  1.00 38.41 LIG 0.20  C 
ATOM     25 OXT  ASP P   7     -16.901  29.025  10.299  1.00 43.84 LIG-0.65  OA
ATOM     26 O    ASP P   7     -18.552  27.976   9.556  1.00 36.31 LIG-0.65  OA
ENDBRANCH 23 24
BRANCH 23 27
ATOM     27  CB  ASP P   7     -18.025  29.812  12.721  1.00 42.34 LIG 0.15  C 
BRANCH 27 28
ATOM     28  CG  ASP P   7     -18.653  31.060  13.340  1.00 55.06 LIG 0.17  C 
ATOM     29 OD2  ASP P   7     -19.121  31.924  12.570  1.00 62.01 LIG-0.65  OA
ATOM     30 OD1  ASP P   7     -18.680  31.180  14.588  1.00 52.19 LIG-0.65  OA
ENDBRANCH 27 28
ENDBRANCH 23 27
ENDBRANCH 20 23
ENDBRANCH 18 19
BRANCH 18 31
ATOM     31  CB  HIS P   6     -20.486  25.064  11.505  1.00 25.23 LIG 0.10  C 
BRANCH 31 32
ATOM     32  CG  HIS P   6     -19.008  25.277  11.508  1.00 20.03 LIG 0.06  A 
ATOM     33 ND1  HIS P   6     -18.231  25.090  10.385  1.00 23.24 LIG-0.24  NA
ATOM     34  CE1 HIS P   6     -16.967  25.336  10.682  1.00 27.69 LIG 0.23  A 
ATOM     35 NE2  HIS P   6     -16.896  25.665  11.961  1.00 30.02 LIG-0.25  NA
ATOM     36  CD2 HIS P   6     -18.160  25.639  12.499  1.00 26.95 LIG 0.14  A 
ENDBRANCH 31 32
ENDBRANCH 18 31
ENDBRANCH 16 18
ENDBRANCH 1 14
BRANCH 1 37
ATOM     37  N   ARG P   5     -25.517  26.375  12.125  1.00 23.27 LIG-0.35  N 
ATOM     38 H    ARG P   5     -26.021  26.543  12.801  1.00 23.27 LIG 0.16  HD
ATOM     39  C   PHE P   4     -25.289  27.226  11.131  1.00 23.02 LIG 0.24  C 
ATOM     40 O    PHE P   4     -24.548  26.969  10.179  1.00 27.32 LIG-0.27  OA
BRANCH 39 41
ATOM     41  CA  PHE P   4     -25.979  28.564  11.226  1.00 26.78 LIG 0.18  C 
BRANCH 41 42
ATOM     42  CB  PHE P   4     -24.993  29.696  10.923  1.00 27.56 LIG 0.07  C 
BRANCH 42 43
ATOM     43  CG  PHE P   4     -25.644  31.024  10.580  1.00 23.05 LIG-0.06  A 
ATOM     44  CD2 PHE P   4     -24.866  32.111  10.184  1.00 26.81 LIG 0.01  A 
ATOM     45  CE2 PHE P   4     -25.446  33.358   9.891  1.00 20.39 LIG 0.00  A 
ATOM     46  CZ  PHE P   4     -26.829  33.517  10.005  1.00 15.29 LIG 0.00  A 
ATOM     47  CE1 PHE P   4     -27.617  32.430  10.406  1.00 22.67 LIG 0.00  A 
ATOM     48  CD1 PHE P   4     -27.022  31.198  10.699  1.00 22.68 LIG 0.01  A 
ENDBRANCH 42 43
ENDBRANCH 41 42
BRANCH 41 49
ATOM     49  N   PHE P   4     -26.486  28.684  12.585  1.00 24.27 LIG-0.35  N 
ATOM     50 H    PHE P   4     -25.931  29.034  13.142  1.00 24.27 LIG 0.16  HD
ATOM     51  C   GLU P   3     -27.709  28.279  12.915  1.00 33.66 LIG 0.24  C 
ATOM     52 O    GLU P   3     -28.536  27.873  12.098  1.00 34.99 LIG-0.27  OA
BRANCH 51 53
ATOM     53  CA  GLU P   3     -28.057  28.361  14.390  1.00 34.60 LIG 0.18  C 
BRANCH 53 54
ATOM     54  CB  GLU P   3     -28.768  29.684  14.670  1.00 27.84 LIG 0.04  C 
BRANCH 54 55
ATOM     55  CG  GLU P   3     -28.900  30.585  13.450  1.00 43.05 LIG 0.12  C 
BRANCH 55 56
ATOM     56  CD  GLU P   3     -30.190  31.376  13.458  1.00 49.21 LIG 0.17  C 
ATOM     57 OE1  GLU P   3     -30.148  32.570  13.825  1.00 52.28 LIG-0.65  OA
ATOM     58 OE2  GLU P   3     -31.242  30.806  13.096  1.00 52.44 LIG-0.65  OA
ENDBRANCH 55 56
ENDBRANCH 54 55
ENDBRANCH 53 54
BRANCH 53 59
ATOM     59  N   GLU P   3     -26.874  28.219  15.228  1.00 36.80 LIG-0.35  N 
ATOM     60 H    GLU P   3     -26.634  28.941  15.629  1.00 36.80 LIG 0.16  HD
ATOM     61  C   ALA P   2     -26.236  27.059  15.346  1.00 41.96 LIG 0.26  C 
ATOM     62 O    ALA P   2     -26.571  26.053  14.721  1.00 34.80 LIG-0.27  OA
BRANCH 61 63
ATOM     63  CA  ALA P   2     -25.041  27.033  16.311  1.00 47.40 LIG 0.40  C 
ATOM     64  CB  ALA P   2     -23.736  27.195  15.549  1.00 40.76 LIG 0.06  C 
ATOM     65  N   ALA P   2     -25.000  25.825  17.136  1.00 49.60 LIG 0.61  N 
ENDBRANCH 61 63
ENDBRANCH 53 59
ENDBRANCH 51 53
ENDBRANCH 41 49
ENDBRANCH 39 41
ENDBRANCH 1 37
TORSDOF 24
ENDMDL
MODEL 28
USER: ADFR SOLUTION from run 156
USER: SCORE 19.382994 LL:  -5.072 LR: -15.386 RR:   0.000 FEB:  -8.227
USER: RMSD 10.101291
USER: SEED 155
USER: STATUS no improvement in best in 8 clusters for 5 generations
USER: GENES 26
USER: genes 0 Translation |==|  0.60312 0.43754 0.47376
USER: genes 1 Rotation |==|  0.93639 0.68276 0.66162 0.50594
USER: genes 2 Torsion [C]-CA--CB-[CG] |==|  0.55727
USER: genes 3 Torsion [CA]-CB--CG-[CD] |==|  0.58222
USER: genes 4 Torsion [CB]-CG--CD-[NE] |==|  0.36795
USER: genes 5 Torsion [CG]-CD--NE-[CZ] |==|  0.44993
USER: genes 6 Torsion [N]-CA--C-[N] |==|  0.18372
USER: genes 7 Torsion [C]-N--CA-[C] |==|  0.67677
USER: genes 8 Torsion [N]-CA--C-[N] |==|  0.47978
USER: genes 9 Torsion [C]-N--CA-[CB] |==|  0.26606
USER: genes 10 Torsion [N]-CA--C-[OXT] |==|  0.92283
USER: genes 11 Torsion [N]-CA--CB-[CG] |==|  0.54844
USER: genes 12 Torsion [CA]-CB--CG-[OD2] |==|  0.62319
USER: genes 13 Torsion [N]-CA--CB-[CG] |==|  0.25524
USER: genes 14 Torsion [CA]-CB--CG-[ND1] |==|  0.77829
USER: genes 15 Torsion [CB]-CA--N-[C] |==|  0.78236
USER: genes 16 Torsion [N]-C--CA-[N] |==|  0.29444
USER: genes 17 Torsion [C]-CA--CB-[CG] |==|  0.49648
USER: genes 18 Torsion [CA]-CB--CG-[CD2] |==|  0.26518
USER: genes 19 Torsion [C]-CA--N-[C] |==|  0.83777
USER: genes 20 Torsion [N]-C--CA-[N] |==|  0.00492
USER: genes 21 Torsion [C]-CA--CB-[CG] |==|  0.88883
USER: genes 22 Torsion [CA]-CB--CG-[CD] |==|  0.76225
USER: genes 23 Torsion [CB]-CG--CD-[OE1] |==|  0.64170
USER: genes 24 Torsion [C]-CA--N-[C] |==|  0.75943
USER: genes 25 Torsion [N]-C--CA-[N] |==|  0.93900
ROOT
ATOM      1  CA  ARG P   5     -19.800  25.040  12.526  1.00 25.78 LIG 0.18  C 
ENDROOT
BRANCH 1 2
ATOM      2  CB  ARG P   5     -21.308  25.241  12.761  1.00 22.44 LIG 0.04  C 
BRANCH 2 3
ATOM      3  CG  ARG P   5     -21.632  26.207  13.900  1.00 26.51 LIG 0.02  C 
BRANCH 3 4
ATOM      4  CD  ARG P   5     -22.963  25.867  14.583  1.00 28.41 LIG 0.14  C 
BRANCH 4 5
ATOM      5  NE  ARG P   5     -22.843  25.856  16.039  1.00 33.08 LIG-0.23  N 
ATOM      6  CZ  ARG P   5     -23.874  25.934  16.878  1.00 31.92 LIG 0.67  C 
ATOM      7  NH2 ARG P   5     -23.660  25.902  18.183  1.00 32.43 LIG-0.23  N 
ATOM      8  NH1 ARG P   5     -25.119  26.019  16.415  1.00 23.99 LIG-0.23  N 
ATOM      9 2HH2 ARG P   5     -24.322  25.952  18.729  1.00 32.43 LIG 0.17  HD
ATOM     10 1HH2 ARG P   5     -22.858  25.831  18.484  1.00 32.43 LIG 0.17  HD
ATOM     11 2HH1 ARG P   5     -25.780  26.069  16.963  1.00 23.99 LIG 0.17  HD
ATOM     12 1HH1 ARG P   5     -25.263  26.024  15.567  1.00 23.99 LIG 0.17  HD
ATOM     13 HE   ARG P   5     -22.055  25.795  16.376  1.00 33.08 LIG 0.18  HD
ENDBRANCH 4 5
ENDBRANCH 3 4
ENDBRANCH 2 3
ENDBRANCH 1 2
BRANCH 1 14
ATOM     14  C   ARG P   5     -19.547  24.507  11.116  1.00 22.77 LIG 0.24  C 
ATOM     15 O    ARG P   5     -20.468  24.432  10.296  1.00 23.41 LIG-0.27  OA
ATOM     16  N   HIS P   6     -18.304  24.119  10.843  1.00 20.21 LIG-0.35  N 
ATOM     17 H    HIS P   6     -17.658  24.146  11.409  1.00 20.21 LIG 0.16  HD
BRANCH 16 18
ATOM     18  CA  HIS P   6     -17.931  23.603   9.524  1.00 24.32 LIG 0.18  C 
BRANCH 18 19
ATOM     19  C   HIS P   6     -17.467  22.140   9.536  1.00 31.11 LIG 0.24  C 
ATOM     20  N   ASP P   7     -17.258  21.571   8.354  1.00 28.94 LIG-0.34  N 
ATOM     21 H    ASP P   7     -17.513  21.904   7.603  1.00 28.94 LIG 0.16  HD
ATOM     22 O    HIS P   6     -17.302  21.537  10.603  1.00 27.73 LIG-0.27  OA
BRANCH 20 23
ATOM     23  CA  ASP P   7     -16.553  20.294   8.248  1.00 30.45 LIG 0.20  C 
BRANCH 23 24
ATOM     24  C   ASP P   7     -15.590  20.279   7.045  1.00 38.41 LIG 0.20  C 
ATOM     25 OXT  ASP P   7     -15.798  20.965   6.044  1.00 43.84 LIG-0.65  OA
ATOM     26 O    ASP P   7     -14.576  19.572   7.017  1.00 36.31 LIG-0.65  OA
ENDBRANCH 23 24
BRANCH 23 27
ATOM     27  CB  ASP P   7     -17.553  19.139   8.181  1.00 42.34 LIG 0.15  C 
BRANCH 27 28
ATOM     28  CG  ASP P   7     -16.913  17.787   8.495  1.00 55.06 LIG 0.17  C 
ATOM     29 OD2  ASP P   7     -17.202  16.818   7.763  1.00 62.01 LIG-0.65  OA
ATOM     30 OD1  ASP P   7     -16.127  17.690   9.468  1.00 52.19 LIG-0.65  OA
ENDBRANCH 27 28
ENDBRANCH 23 27
ENDBRANCH 20 23
ENDBRANCH 18 19
BRANCH 18 31
ATOM     31  CB  HIS P   6     -16.852  24.474   8.905  1.00 25.23 LIG 0.10  C 
BRANCH 31 32
ATOM     32  CG  HIS P   6     -15.462  24.013   9.201  1.00 20.03 LIG 0.06  A 
ATOM     33 ND1  HIS P   6     -14.834  24.279  10.398  1.00 23.24 LIG-0.24  NA
ATOM     34  CE1 HIS P   6     -13.616  23.767  10.375  1.00 27.69 LIG 0.23  A 
ATOM     35 NE2  HIS P   6     -13.429  23.187   9.201  1.00 30.02 LIG-0.25  NA
ATOM     36  CD2 HIS P   6     -14.571  23.326   8.449  1.00 26.95 LIG 0.14  A 
ENDBRANCH 31 32
ENDBRANCH 18 31
ENDBRANCH 16 18
ENDBRANCH 1 14
BRANCH 1 37
ATOM     37  N   ARG P   5     -19.079  26.287  12.734  1.00 23.27 LIG-0.35  N 
ATOM     38 H    ARG P   5     -18.673  26.345  13.490  1.00 23.27 LIG 0.16  HD
ATOM     39  C   PHE P   4     -19.071  27.237  11.806  1.00 23.02 LIG 0.24  C 
ATOM     40 O    PHE P   4     -19.647  27.125  10.721  1.00 27.32 LIG-0.27  OA
BRANCH 39 41
ATOM     41  CA  PHE P   4     -18.291  28.486  12.134  1.00 26.78 LIG 0.18  C 
BRANCH 41 42
ATOM     42  CB  PHE P   4     -19.109  29.733  11.789  1.00 27.56 LIG 0.07  C 
BRANCH 42 43
ATOM     43  CG  PHE P   4     -18.422  31.047  12.112  1.00 23.05 LIG-0.06  A 
ATOM     44  CD2 PHE P   4     -17.708  31.732  11.129  1.00 26.81 LIG 0.01  A 
ATOM     45  CE2 PHE P   4     -17.039  32.935  11.414  1.00 20.39 LIG 0.00  A 
ATOM     46  CZ  PHE P   4     -17.082  33.456  12.711  1.00 15.29 LIG 0.00  A 
ATOM     47  CE1 PHE P   4     -17.794  32.771  13.704  1.00 22.67 LIG 0.00  A 
ATOM     48  CD1 PHE P   4     -18.449  31.572  13.404  1.00 22.68 LIG 0.01  A 
ENDBRANCH 42 43
ENDBRANCH 41 42
BRANCH 41 49
ATOM     49  N   PHE P   4     -17.071  28.444  11.341  1.00 24.27 LIG-0.35  N 
ATOM     50 H    PHE P   4     -16.967  29.117  10.815  1.00 24.27 LIG 0.16  HD
ATOM     51  C   GLU P   3     -16.205  27.440  11.440  1.00 33.66 LIG 0.24  C 
ATOM     52 O    GLU P   3     -16.306  26.532  12.264  1.00 34.99 LIG-0.27  OA
BRANCH 51 53
ATOM     53  CA  GLU P   3     -15.039  27.476  10.470  1.00 34.60 LIG 0.18  C 
BRANCH 53 54
ATOM     54  CB  GLU P   3     -13.727  27.410  11.251  1.00 27.84 LIG 0.04  C 
BRANCH 54 55
ATOM     55  CG  GLU P   3     -13.729  28.234  12.531  1.00 43.05 LIG 0.12  C 
BRANCH 55 56
ATOM     56  CD  GLU P   3     -13.353  29.678  12.284  1.00 49.21 LIG 0.17  C 
ATOM     57 OE1  GLU P   3     -12.453  30.183  12.989  1.00 52.28 LIG-0.65  OA
ATOM     58 OE2  GLU P   3     -13.954  30.307  11.386  1.00 52.44 LIG-0.65  OA
ENDBRANCH 55 56
ENDBRANCH 54 55
ENDBRANCH 53 54
BRANCH 53 59
ATOM     59  N   GLU P   3     -15.081  28.663   9.624  1.00 36.80 LIG-0.35  N 
ATOM     60 H    GLU P   3     -14.626  29.328   9.924  1.00 36.80 LIG 0.16  HD
ATOM     61  C   ALA P   2     -15.772  28.687   8.490  1.00 41.96 LIG 0.26  C 
ATOM     62 O    ALA P   2     -16.455  27.738   8.110  1.00 34.80 LIG-0.27  OA
BRANCH 61 63
ATOM     63  CA  ALA P   2     -15.680  29.980   7.664  1.00 47.40 LIG 0.40  C 
ATOM     64  CB  ALA P   2     -14.733  29.798   6.490  1.00 40.76 LIG 0.06  C 
ATOM     65  N   ALA P   2     -15.282  31.140   8.462  1.00 49.60 LIG 0.61  N 
ENDBRANCH 61 63
ENDBRANCH 53 59
ENDBRANCH 51 53
ENDBRANCH 41 49
ENDBRANCH 39 41
ENDBRANCH 1 37
TORSDOF 24
ENDMDL
MODEL 29
USER: ADFR SOLUTION from run 120
USER: SCORE 18.568892 LL:  -4.218 LR: -15.355 RR:   0.000 FEB:  -8.196
USER: RMSD 9.744013
USER: SEED 119
USER: STATUS 1 or 2 clusters left
USER: GENES 26
USER: genes 0 Translation |==|  0.61297 0.44861 0.49154
USER: genes 1 Rotation |==|  0.09584 0.20826 0.46104 0.49533
USER: genes 2 Torsion [C]-CA--CB-[CG] |==|  0.59787
USER: genes 3 Torsion [CA]-CB--CG-[CD] |==|  0.45670
USER: genes 4 Torsion [CB]-CG--CD-[NE] |==|  0.29935
USER: genes 5 Torsion [CG]-CD--NE-[CZ] |==|  0.46510
USER: genes 6 Torsion [N]-CA--C-[N] |==|  0.16834
USER: genes 7 Torsion [C]-N--CA-[C] |==|  0.63262
USER: genes 8 Torsion [N]-CA--C-[N] |==|  0.40974
USER: genes 9 Torsion [C]-N--CA-[CB] |==|  0.28122
USER: genes 10 Torsion [N]-CA--C-[OXT] |==|  0.50994
USER: genes 11 Torsion [N]-CA--CB-[CG] |==|  0.23819
USER: genes 12 Torsion [CA]-CB--CG-[OD2] |==|  0.77012
USER: genes 13 Torsion [N]-CA--CB-[CG] |==|  0.35322
USER: genes 14 Torsion [CA]-CB--CG-[ND1] |==|  0.77644
USER: genes 15 Torsion [CB]-CA--N-[C] |==|  0.78889
USER: genes 16 Torsion [N]-C--CA-[N] |==|  0.11489
USER: genes 17 Torsion [C]-CA--CB-[CG] |==|  0.27318
USER: genes 18 Torsion [CA]-CB--CG-[CD2] |==|  0.81567
USER: genes 19 Torsion [C]-CA--N-[C] |==|  0.74351
USER: genes 20 Torsion [N]-C--CA-[N] |==|  0.92442
USER: genes 21 Torsion [C]-CA--CB-[CG] |==|  0.93468
USER: genes 22 Torsion [CA]-CB--CG-[CD] |==|  0.22705
USER: genes 23 Torsion [CB]-CG--CD-[OE1] |==|  0.14413
USER: genes 24 Torsion [C]-CA--N-[C] |==|  0.81811
USER: genes 25 Torsion [N]-C--CA-[N] |==|  0.97262
ROOT
ATOM      1  CA  ARG P   5     -19.549  25.264  12.846  1.00 25.78 LIG 0.18  C 
ENDROOT
BRANCH 1 2
ATOM      2  CB  ARG P   5     -20.826  25.019  13.669  1.00 22.44 LIG 0.04  C 
BRANCH 2 3
ATOM      3  CG  ARG P   5     -21.394  26.280  14.320  1.00 26.51 LIG 0.02  C 
BRANCH 3 4
ATOM      4  CD  ARG P   5     -22.838  26.082  14.797  1.00 28.41 LIG 0.14  C 
BRANCH 4 5
ATOM      5  NE  ARG P   5     -22.926  26.004  16.253  1.00 33.08 LIG-0.23  N 
ATOM      6  CZ  ARG P   5     -24.064  26.075  16.942  1.00 31.92 LIG 0.67  C 
ATOM      7  NH2 ARG P   5     -24.037  25.979  18.261  1.00 32.43 LIG-0.23  N 
ATOM      8  NH1 ARG P   5     -25.228  26.215  16.313  1.00 23.99 LIG-0.23  N 
ATOM      9 2HH2 ARG P   5     -24.769  26.024  18.710  1.00 32.43 LIG 0.17  HD
ATOM     10 1HH2 ARG P   5     -23.288  25.872  18.669  1.00 32.43 LIG 0.17  HD
ATOM     11 2HH1 ARG P   5     -25.959  26.260  16.764  1.00 23.99 LIG 0.17  HD
ATOM     12 1HH1 ARG P   5     -25.250  26.262  15.455  1.00 23.99 LIG 0.17  HD
ATOM     13 HE   ARG P   5     -22.195  25.906  16.695  1.00 33.08 LIG 0.18  HD
ENDBRANCH 4 5
ENDBRANCH 3 4
ENDBRANCH 2 3
ENDBRANCH 1 2
BRANCH 1 14
ATOM     14  C   ARG P   5     -19.521  24.351  11.620  1.00 22.77 LIG 0.24  C 
ATOM     15 O    ARG P   5     -20.462  23.587  11.383  1.00 23.41 LIG-0.27  OA
ATOM     16  N   HIS P   6     -18.434  24.417  10.857  1.00 20.21 LIG-0.35  N 
ATOM     17 H    HIS P   6     -17.763  24.928  11.021  1.00 20.21 LIG 0.16  HD
BRANCH 16 18
ATOM     18  CA  HIS P   6     -18.292  23.603   9.648  1.00 24.32 LIG 0.18  C 
BRANCH 18 19
ATOM     19  C   HIS P   6     -16.942  22.880   9.538  1.00 31.11 LIG 0.24  C 
ATOM     20  N   ASP P   7     -16.947  21.698   8.931  1.00 28.94 LIG-0.34  N 
ATOM     21 H    ASP P   7     -17.658  21.250   8.747  1.00 28.94 LIG 0.16  HD
ATOM     22 O    HIS P   6     -15.914  23.388   9.998  1.00 27.73 LIG-0.27  OA
BRANCH 20 23
ATOM     23  CA  ASP P   7     -15.697  21.058   8.522  1.00 30.45 LIG 0.20  C 
BRANCH 23 24
ATOM     24  C   ASP P   7     -15.791  20.503   7.087  1.00 38.41 LIG 0.20  C 
ATOM     25 OXT  ASP P   7     -14.865  19.871   6.579  1.00 43.84 LIG-0.65  OA
ATOM     26 O    ASP P   7     -16.786  20.676   6.375  1.00 36.31 LIG-0.65  OA
ENDBRANCH 23 24
BRANCH 23 27
ATOM     27  CB  ASP P   7     -15.307  19.968   9.521  1.00 42.34 LIG 0.15  C 
BRANCH 27 28
ATOM     28  CG  ASP P   7     -15.969  18.624   9.215  1.00 55.06 LIG 0.17  C 
ATOM     29 OD2  ASP P   7     -17.135  18.440   9.620  1.00 62.01 LIG-0.65  OA
ATOM     30 OD1  ASP P   7     -15.329  17.755   8.575  1.00 52.19 LIG-0.65  OA
ENDBRANCH 27 28
ENDBRANCH 23 27
ENDBRANCH 20 23
ENDBRANCH 18 19
BRANCH 18 31
ATOM     31  CB  HIS P   6     -18.514  24.456   8.411  1.00 25.23 LIG 0.10  C 
BRANCH 31 32
ATOM     32  CG  HIS P   6     -17.409  24.366   7.410  1.00 20.03 LIG 0.06  A 
ATOM     33 ND1  HIS P   6     -16.235  25.077   7.539  1.00 23.24 LIG-0.24  NA
ATOM     34  CE1 HIS P   6     -15.451  24.815   6.509  1.00 27.69 LIG 0.23  A 
ATOM     35 NE2  HIS P   6     -16.078  23.967   5.711  1.00 30.02 LIG-0.25  NA
ATOM     36  CD2 HIS P   6     -17.305  23.669   6.255  1.00 26.95 LIG 0.14  A 
ENDBRANCH 31 32
ENDBRANCH 18 31
ENDBRANCH 16 18
ENDBRANCH 1 14
BRANCH 1 37
ATOM     37  N   ARG P   5     -19.461  26.660  12.442  1.00 23.27 LIG-0.35  N 
ATOM     38 H    ARG P   5     -18.897  27.129  12.890  1.00 23.27 LIG 0.16  HD
ATOM     39  C   PHE P   4     -20.210  27.135  11.453  1.00 23.02 LIG 0.24  C 
ATOM     40 O    PHE P   4     -21.002  26.439  10.812  1.00 27.32 LIG-0.27  OA
BRANCH 39 41
ATOM     41  CA  PHE P   4     -20.034  28.596  11.124  1.00 26.78 LIG 0.18  C 
BRANCH 41 42
ATOM     42  CB  PHE P   4     -20.579  28.899   9.725  1.00 27.56 LIG 0.07  C 
BRANCH 42 43
ATOM     43  CG  PHE P   4     -21.979  29.485   9.707  1.00 23.05 LIG-0.06  A 
ATOM     44  CD2 PHE P   4     -23.070  28.724  10.125  1.00 26.81 LIG 0.01  A 
ATOM     45  CE2 PHE P   4     -24.378  29.236  10.089  1.00 20.39 LIG 0.00  A 
ATOM     46  CZ  PHE P   4     -24.596  30.534   9.616  1.00 15.29 LIG 0.00  A 
ATOM     47  CE1 PHE P   4     -23.505  31.303   9.191  1.00 22.67 LIG 0.00  A 
ATOM     48  CD1 PHE P   4     -22.210  30.775   9.229  1.00 22.68 LIG 0.01  A 
ENDBRANCH 42 43
ENDBRANCH 41 42
BRANCH 41 49
ATOM     49  N   PHE P   4     -18.607  28.875  11.183  1.00 24.27 LIG-0.35  N 
ATOM     50 H    PHE P   4     -18.187  28.734  10.446  1.00 24.27 LIG 0.16  HD
ATOM     51  C   GLU P   3     -18.023  29.312  12.295  1.00 33.66 LIG 0.24  C 
ATOM     52 O    GLU P   3     -18.642  29.609  13.317  1.00 34.99 LIG-0.27  OA
BRANCH 51 53
ATOM     53  CA  GLU P   3     -16.513  29.448  12.239  1.00 34.60 LIG 0.18  C 
BRANCH 53 54
ATOM     54  CB  GLU P   3     -16.146  30.893  11.903  1.00 27.84 LIG 0.04  C 
BRANCH 54 55
ATOM     55  CG  GLU P   3     -17.246  31.655  11.176  1.00 43.05 LIG 0.12  C 
BRANCH 55 56
ATOM     56  CD  GLU P   3     -18.294  32.194  12.126  1.00 49.21 LIG 0.17  C 
ATOM     57 OE1  GLU P   3     -17.912  32.869  13.106  1.00 52.28 LIG-0.65  OA
ATOM     58 OE2  GLU P   3     -19.496  31.944  11.892  1.00 52.44 LIG-0.65  OA
ENDBRANCH 55 56
ENDBRANCH 54 55
ENDBRANCH 53 54
BRANCH 53 59
ATOM     59  N   GLU P   3     -15.926  28.525  11.276  1.00 36.80 LIG-0.35  N 
ATOM     60 H    GLU P   3     -15.551  28.906  10.602  1.00 36.80 LIG 0.16  HD
ATOM     61  C   ALA P   2     -15.981  27.209  11.447  1.00 41.96 LIG 0.26  C 
ATOM     62 O    ALA P   2     -16.569  26.688  12.394  1.00 34.80 LIG-0.27  OA
BRANCH 61 63
ATOM     63  CA  ALA P   2     -15.269  26.353  10.389  1.00 47.40 LIG 0.40  C 
ATOM     64  CB  ALA P   2     -14.090  25.615  11.002  1.00 40.76 LIG 0.06  C 
ATOM     65  N   ALA P   2     -14.833  27.129   9.227  1.00 49.60 LIG 0.61  N 
ENDBRANCH 61 63
ENDBRANCH 53 59
ENDBRANCH 51 53
ENDBRANCH 41 49
ENDBRANCH 39 41
ENDBRANCH 1 37
TORSDOF 24
ENDMDL
MODEL 30
USER: ADFR SOLUTION from run 102
USER: SCORE 18.340837 LL:  -4.731 LR: -15.316 RR:   0.000 FEB:  -8.157
USER: RMSD 9.450724
USER: SEED 101
USER: STATUS no improvement in best in 9 clusters for 5 generations
USER: GENES 26
USER: genes 0 Translation |==|  0.41228 0.45369 0.44046
USER: genes 1 Rotation |==|  0.74179 0.72051 0.86888 0.58273
USER: genes 2 Torsion [C]-CA--CB-[CG] |==|  0.18894
USER: genes 3 Torsion [CA]-CB--CG-[CD] |==|  0.34936
USER: genes 4 Torsion [CB]-CG--CD-[NE] |==|  0.39295
USER: genes 5 Torsion [CG]-CD--NE-[CZ] |==|  0.50487
USER: genes 6 Torsion [N]-CA--C-[N] |==|  0.94633
USER: genes 7 Torsion [C]-N--CA-[C] |==|  0.62816
USER: genes 8 Torsion [N]-CA--C-[N] |==|  0.66774
USER: genes 9 Torsion [C]-N--CA-[CB] |==|  0.33278
USER: genes 10 Torsion [N]-CA--C-[OXT] |==|  0.46417
USER: genes 11 Torsion [N]-CA--CB-[CG] |==|  0.94154
USER: genes 12 Torsion [CA]-CB--CG-[OD2] |==|  0.74178
USER: genes 13 Torsion [N]-CA--CB-[CG] |==|  0.65928
USER: genes 14 Torsion [CA]-CB--CG-[ND1] |==|  0.39836
USER: genes 15 Torsion [CB]-CA--N-[C] |==|  0.19001
USER: genes 16 Torsion [N]-C--CA-[N] |==|  0.38924
USER: genes 17 Torsion [C]-CA--CB-[CG] |==|  0.10254
USER: genes 18 Torsion [CA]-CB--CG-[CD2] |==|  0.19219
USER: genes 19 Torsion [C]-CA--N-[C] |==|  0.65687
USER: genes 20 Torsion [N]-C--CA-[N] |==|  0.97163
USER: genes 21 Torsion [C]-CA--CB-[CG] |==|  0.74388
USER: genes 22 Torsion [CA]-CB--CG-[CD] |==|  0.72875
USER: genes 23 Torsion [CB]-CG--CD-[OE1] |==|  0.18384
USER: genes 24 Torsion [C]-CA--N-[C] |==|  0.80346
USER: genes 25 Torsion [N]-C--CA-[N] |==|  0.17175
ROOT
ATOM      1  CA  ARG P   5     -24.667  25.367  11.926  1.00 25.78 LIG 0.18  C 
ENDROOT
BRANCH 1 2
ATOM      2  CB  ARG P   5     -25.468  25.096  10.641  1.00 22.44 LIG 0.04  C 
BRANCH 2 3
ATOM      3  CG  ARG P   5     -25.465  23.630  10.209  1.00 26.51 LIG 0.02  C 
BRANCH 3 4
ATOM      4  CD  ARG P   5     -26.884  23.081  10.021  1.00 28.41 LIG 0.14  C 
BRANCH 4 5
ATOM      5  NE  ARG P   5     -26.975  22.181   8.873  1.00 33.08 LIG-0.23  N 
ATOM      6  CZ  ARG P   5     -28.098  21.593   8.466  1.00 31.92 LIG 0.67  C 
ATOM      7  NH2 ARG P   5     -28.077  20.805   7.404  1.00 32.43 LIG-0.23  N 
ATOM      8  NH1 ARG P   5     -29.246  21.813   9.104  1.00 23.99 LIG-0.23  N 
ATOM      9 2HH2 ARG P   5     -28.800  20.423   7.138  1.00 32.43 LIG 0.17  HD
ATOM     10 1HH2 ARG P   5     -27.340  20.674   6.981  1.00 32.43 LIG 0.17  HD
ATOM     11 2HH1 ARG P   5     -29.968  21.430   8.835  1.00 23.99 LIG 0.17  HD
ATOM     12 1HH1 ARG P   5     -29.267  22.337   9.784  1.00 23.99 LIG 0.17  HD
ATOM     13 HE   ARG P   5     -26.255  22.020   8.432  1.00 33.08 LIG 0.18  HD
ENDBRANCH 4 5
ENDBRANCH 3 4
ENDBRANCH 2 3
ENDBRANCH 1 2
BRANCH 1 14
ATOM     14  C   ARG P   5     -23.173  25.157  11.678  1.00 22.77 LIG 0.24  C 
ATOM     15 O    ARG P   5     -22.697  24.018  11.630  1.00 23.41 LIG-0.27  OA
ATOM     16  N   HIS P   6     -22.435  26.255  11.541  1.00 20.21 LIG-0.35  N 
ATOM     17 H    HIS P   6     -22.749  27.054  11.591  1.00 20.21 LIG 0.16  HD
BRANCH 16 18
ATOM     18  CA  HIS P   6     -20.994  26.187  11.285  1.00 24.32 LIG 0.18  C 
BRANCH 18 19
ATOM     19  C   HIS P   6     -20.161  27.135  12.159  1.00 31.11 LIG 0.24  C 
ATOM     20  N   ASP P   7     -19.440  28.052  11.523  1.00 28.94 LIG-0.34  N 
ATOM     21 H    ASP P   7     -19.284  28.046  10.677  1.00 28.94 LIG 0.16  HD
ATOM     22 O    HIS P   6     -20.174  27.034  13.391  1.00 27.73 LIG-0.27  OA
BRANCH 20 23
ATOM     23  CA  ASP P   7     -18.841  29.171  12.248  1.00 30.45 LIG 0.20  C 
BRANCH 23 24
ATOM     24  C   ASP P   7     -19.435  30.519  11.795  1.00 38.41 LIG 0.20  C 
ATOM     25 OXT  ASP P   7     -19.244  31.555  12.432  1.00 43.84 LIG-0.65  OA
ATOM     26 O    ASP P   7     -20.138  30.626  10.784  1.00 36.31 LIG-0.65  OA
ENDBRANCH 23 24
BRANCH 23 27
ATOM     27  CB  ASP P   7     -17.319  29.150  12.096  1.00 42.34 LIG 0.15  C 
BRANCH 27 28
ATOM     28  CG  ASP P   7     -16.784  27.772  11.708  1.00 55.06 LIG 0.17  C 
ATOM     29 OD2  ASP P   7     -16.424  27.004  12.623  1.00 62.01 LIG-0.65  OA
ATOM     30 OD1  ASP P   7     -16.722  27.457  10.495  1.00 52.19 LIG-0.65  OA
ENDBRANCH 27 28
ENDBRANCH 23 27
ENDBRANCH 20 23
ENDBRANCH 18 19
BRANCH 18 31
ATOM     31  CB  HIS P   6     -20.707  26.460   9.819  1.00 25.23 LIG 0.10  C 
BRANCH 31 32
ATOM     32  CG  HIS P   6     -19.964  25.359   9.136  1.00 20.03 LIG 0.06  A 
ATOM     33 ND1  HIS P   6     -20.208  25.002   7.828  1.00 23.24 LIG-0.24  NA
ATOM     34  CE1 HIS P   6     -19.420  23.995   7.495  1.00 27.69 LIG 0.23  A 
ATOM     35 NE2  HIS P   6     -18.680  23.680   8.545  1.00 30.02 LIG-0.25  NA
ATOM     36  CD2 HIS P   6     -19.000  24.521   9.584  1.00 26.95 LIG 0.14  A 
ENDBRANCH 31 32
ENDBRANCH 18 31
ENDBRANCH 16 18
ENDBRANCH 1 14
BRANCH 1 37
ATOM     37  N   ARG P   5     -24.917  26.717  12.409  1.00 23.27 LIG-0.35  N 
ATOM     38 H    ARG P   5     -24.244  27.250  12.351  1.00 23.27 LIG 0.16  HD
ATOM     39  C   PHE P   4     -26.104  27.062  12.895  1.00 23.02 LIG 0.24  C 
ATOM     40 O    PHE P   4     -27.060  26.285  12.954  1.00 27.32 LIG-0.27  OA
BRANCH 39 41
ATOM     41  CA  PHE P   4     -26.245  28.488  13.367  1.00 26.78 LIG 0.18  C 
BRANCH 41 42
ATOM     42  CB  PHE P   4     -26.108  28.562  14.891  1.00 27.56 LIG 0.07  C 
BRANCH 42 43
ATOM     43  CG  PHE P   4     -25.087  27.607  15.480  1.00 23.05 LIG-0.06  A 
ATOM     44  CD2 PHE P   4     -23.725  27.799  15.254  1.00 26.81 LIG 0.01  A 
ATOM     45  CE2 PHE P   4     -22.765  26.910  15.765  1.00 20.39 LIG 0.00  A 
ATOM     46  CZ  PHE P   4     -23.180  25.803  16.511  1.00 15.29 LIG 0.00  A 
ATOM     47  CE1 PHE P   4     -24.548  25.601  16.739  1.00 22.67 LIG 0.00  A 
ATOM     48  CD1 PHE P   4     -25.490  26.493  16.218  1.00 22.68 LIG 0.01  A 
ENDBRANCH 42 43
ENDBRANCH 41 42
BRANCH 41 49
ATOM     49  N   PHE P   4     -27.564  28.943  12.953  1.00 24.27 LIG-0.35  N 
ATOM     50 H    PHE P   4     -28.213  28.456  13.239  1.00 24.27 LIG 0.16  HD
ATOM     51  C   GLU P   3     -27.727  30.025  12.198  1.00 33.66 LIG 0.24  C 
ATOM     52 O    GLU P   3     -26.806  30.776  11.876  1.00 34.99 LIG-0.27  OA
BRANCH 51 53
ATOM     53  CA  GLU P   3     -29.149  30.311  11.751  1.00 34.60 LIG 0.18  C 
BRANCH 53 54
ATOM     54  CB  GLU P   3     -29.642  31.593  12.419  1.00 27.84 LIG 0.04  C 
BRANCH 54 55
ATOM     55  CG  GLU P   3     -30.374  31.363  13.733  1.00 43.05 LIG 0.12  C 
BRANCH 55 56
ATOM     56  CD  GLU P   3     -31.877  31.355  13.559  1.00 49.21 LIG 0.17  C 
ATOM     57 OE1  GLU P   3     -32.390  30.430  12.894  1.00 52.28 LIG-0.65  OA
ATOM     58 OE2  GLU P   3     -32.544  32.271  14.088  1.00 52.44 LIG-0.65  OA
ENDBRANCH 55 56
ENDBRANCH 54 55
ENDBRANCH 53 54
BRANCH 53 59
ATOM     59  N   GLU P   3     -30.039  29.195  12.048  1.00 36.80 LIG-0.35  N 
ATOM     60 H    GLU P   3     -30.602  29.349  12.679  1.00 36.80 LIG 0.16  HD
ATOM     61  C   ALA P   2     -29.965  28.047  11.383  1.00 41.96 LIG 0.26  C 
ATOM     62 O    ALA P   2     -29.116  27.836  10.518  1.00 34.80 LIG-0.27  OA
BRANCH 61 63
ATOM     63  CA  ALA P   2     -31.003  26.977  11.754  1.00 47.40 LIG 0.40  C 
ATOM     64  CB  ALA P   2     -30.711  25.674  11.026  1.00 40.76 LIG 0.06  C 
ATOM     65  N   ALA P   2     -32.379  27.403  11.497  1.00 49.60 LIG 0.61  N 
ENDBRANCH 61 63
ENDBRANCH 53 59
ENDBRANCH 51 53
ENDBRANCH 41 49
ENDBRANCH 39 41
ENDBRANCH 1 37
TORSDOF 24
ENDMDL
MODEL 31
USER: ADFR SOLUTION from run 182
USER: SCORE 18.768755 LL:  -4.346 LR: -15.262 RR:   0.000 FEB:  -8.103
USER: RMSD 10.234405
USER: SEED 181
USER: STATUS searching
USER: GENES 26
USER: genes 0 Translation |==|  0.58951 0.38639 0.45301
USER: genes 1 Rotation |==|  0.29176 0.06558 0.39182 0.57885
USER: genes 2 Torsion [C]-CA--CB-[CG] |==|  0.40225
USER: genes 3 Torsion [CA]-CB--CG-[CD] |==|  0.14136
USER: genes 4 Torsion [CB]-CG--CD-[NE] |==|  0.26201
USER: genes 5 Torsion [CG]-CD--NE-[CZ] |==|  0.43483
USER: genes 6 Torsion [N]-CA--C-[N] |==|  0.38889
USER: genes 7 Torsion [C]-N--CA-[C] |==|  0.63346
USER: genes 8 Torsion [N]-CA--C-[N] |==|  0.30101
USER: genes 9 Torsion [C]-N--CA-[CB] |==|  0.21789
USER: genes 10 Torsion [N]-CA--C-[OXT] |==|  0.96474
USER: genes 11 Torsion [N]-CA--CB-[CG] |==|  0.23982
USER: genes 12 Torsion [CA]-CB--CG-[OD2] |==|  0.25681
USER: genes 13 Torsion [N]-CA--CB-[CG] |==|  0.11404
USER: genes 14 Torsion [CA]-CB--CG-[ND1] |==|  0.28580
USER: genes 15 Torsion [CB]-CA--N-[C] |==|  0.87750
USER: genes 16 Torsion [N]-C--CA-[N] |==|  0.39222
USER: genes 17 Torsion [C]-CA--CB-[CG] |==|  0.25480
USER: genes 18 Torsion [CA]-CB--CG-[CD2] |==|  0.44670
USER: genes 19 Torsion [C]-CA--N-[C] |==|  0.81683
USER: genes 20 Torsion [N]-C--CA-[N] |==|  0.96959
USER: genes 21 Torsion [C]-CA--CB-[CG] |==|  0.86912
USER: genes 22 Torsion [CA]-CB--CG-[CD] |==|  0.81077
USER: genes 23 Torsion [CB]-CG--CD-[OE1] |==|  0.25393
USER: genes 24 Torsion [C]-CA--N-[C] |==|  0.69107
USER: genes 25 Torsion [N]-C--CA-[N] |==|  0.42376
ROOT
ATOM      1  CA  ARG P   5     -20.147  24.004  12.152  1.00 25.78 LIG 0.18  C 
ENDROOT
BRANCH 1 2
ATOM      2  CB  ARG P   5     -20.555  22.567  12.520  1.00 22.44 LIG 0.04  C 
BRANCH 2 3
ATOM      3  CG  ARG P   5     -20.394  22.239  14.004  1.00 26.51 LIG 0.02  C 
BRANCH 3 4
ATOM      4  CD  ARG P   5     -21.064  23.286  14.902  1.00 28.41 LIG 0.14  C 
BRANCH 4 5
ATOM      5  NE  ARG P   5     -22.423  22.899  15.274  1.00 33.08 LIG-0.23  N 
ATOM      6  CZ  ARG P   5     -23.063  23.346  16.352  1.00 31.92 LIG 0.67  C 
ATOM      7  NH2 ARG P   5     -24.300  22.944  16.592  1.00 32.43 LIG-0.23  N 
ATOM      8  NH1 ARG P   5     -22.478  24.212  17.177  1.00 23.99 LIG-0.23  N 
ATOM      9 2HH2 ARG P   5     -24.718  23.230  17.287  1.00 32.43 LIG 0.17  HD
ATOM     10 1HH2 ARG P   5     -24.686  22.398  16.052  1.00 32.43 LIG 0.17  HD
ATOM     11 2HH1 ARG P   5     -22.897  24.496  17.871  1.00 23.99 LIG 0.17  HD
ATOM     12 1HH1 ARG P   5     -21.680  24.487  17.015  1.00 23.99 LIG 0.17  HD
ATOM     13 HE   ARG P   5     -22.837  22.346  14.762  1.00 33.08 LIG 0.18  HD
ENDBRANCH 4 5
ENDBRANCH 3 4
ENDBRANCH 2 3
ENDBRANCH 1 2
BRANCH 1 14
ATOM     14  C   ARG P   5     -19.506  24.038  10.765  1.00 22.77 LIG 0.24  C 
ATOM     15 O    ARG P   5     -20.206  24.057   9.748  1.00 23.41 LIG-0.27  OA
ATOM     16  N   HIS P   6     -18.176  24.026  10.727  1.00 20.21 LIG-0.35  N 
ATOM     17 H    HIS P   6     -17.676  23.993  11.425  1.00 20.21 LIG 0.16  HD
BRANCH 16 18
ATOM     18  CA  HIS P   6     -17.442  24.070   9.460  1.00 24.32 LIG 0.18  C 
BRANCH 18 19
ATOM     19  C   HIS P   6     -16.329  23.019   9.349  1.00 31.11 LIG 0.24  C 
ATOM     20  N   ASP P   7     -16.545  22.009   8.513  1.00 28.94 LIG-0.34  N 
ATOM     21 H    ASP P   7     -17.309  21.822   8.165  1.00 28.94 LIG 0.16  HD
ATOM     22 O    HIS P   6     -15.291  23.125  10.011  1.00 27.73 LIG-0.27  OA
BRANCH 20 23
ATOM     23  CA  ASP P   7     -15.456  21.116   8.117  1.00 30.45 LIG 0.20  C 
BRANCH 23 24
ATOM     24  C   ASP P   7     -15.760  20.416   6.778  1.00 38.41 LIG 0.20  C 
ATOM     25 OXT  ASP P   7     -16.885  20.438   6.279  1.00 43.84 LIG-0.65  OA
ATOM     26 O    ASP P   7     -14.899  19.791   6.148  1.00 36.31 LIG-0.65  OA
ENDBRANCH 23 24
BRANCH 23 27
ATOM     27  CB  ASP P   7     -15.169  20.103   9.226  1.00 42.34 LIG 0.15  C 
BRANCH 27 28
ATOM     28  CG  ASP P   7     -16.057  18.863   9.136  1.00 55.06 LIG 0.17  C 
ATOM     29 OD2  ASP P   7     -15.627  17.879   8.498  1.00 62.01 LIG-0.65  OA
ATOM     30 OD1  ASP P   7     -17.179  18.868   9.697  1.00 52.19 LIG-0.65  OA
ENDBRANCH 27 28
ENDBRANCH 23 27
ENDBRANCH 20 23
ENDBRANCH 18 19
BRANCH 18 31
ATOM     31  CB  HIS P   6     -16.860  25.455   9.237  1.00 25.23 LIG 0.10  C 
BRANCH 31 32
ATOM     32  CG  HIS P   6     -16.283  26.071  10.470  1.00 20.03 LIG 0.06  A 
ATOM     33 ND1  HIS P   6     -14.927  26.126  10.705  1.00 23.24 LIG-0.24  NA
ATOM     34  CE1 HIS P   6     -14.708  26.709  11.870  1.00 27.69 LIG 0.23  A 
ATOM     35 NE2  HIS P   6     -15.876  27.025  12.404  1.00 30.02 LIG-0.25  NA
ATOM     36  CD2 HIS P   6     -16.878  26.639  11.545  1.00 26.95 LIG 0.14  A 
ENDBRANCH 31 32
ENDBRANCH 18 31
ENDBRANCH 16 18
ENDBRANCH 1 14
BRANCH 1 37
ATOM     37  N   ARG P   5     -21.300  24.891  12.200  1.00 23.27 LIG-0.35  N 
ATOM     38 H    ARG P   5     -21.157  25.647  12.585  1.00 23.27 LIG 0.16  HD
ATOM     39  C   PHE P   4     -22.467  24.527  11.679  1.00 23.02 LIG 0.24  C 
ATOM     40 O    PHE P   4     -22.645  23.444  11.116  1.00 27.32 LIG-0.27  OA
BRANCH 39 41
ATOM     41  CA  PHE P   4     -23.590  25.528  11.790  1.00 26.78 LIG 0.18  C 
BRANCH 41 42
ATOM     42  CB  PHE P   4     -24.500  25.182  12.971  1.00 27.56 LIG 0.07  C 
BRANCH 42 43
ATOM     43  CG  PHE P   4     -24.121  25.854  14.278  1.00 23.05 LIG-0.06  A 
ATOM     44  CD2 PHE P   4     -25.048  25.961  15.313  1.00 26.81 LIG 0.01  A 
ATOM     45  CE2 PHE P   4     -24.727  26.606  16.520  1.00 20.39 LIG 0.00  A 
ATOM     46  CZ  PHE P   4     -23.455  27.159  16.687  1.00 15.29 LIG 0.00  A 
ATOM     47  CE1 PHE P   4     -22.518  27.058  15.650  1.00 22.67 LIG 0.00  A 
ATOM     48  CD1 PHE P   4     -22.857  26.418  14.453  1.00 22.68 LIG 0.01  A 
ENDBRANCH 42 43
ENDBRANCH 41 42
BRANCH 41 49
ATOM     49  N   PHE P   4     -24.335  25.469  10.540  1.00 24.27 LIG-0.35  N 
ATOM     50 H    PHE P   4     -25.139  25.174  10.621  1.00 24.27 LIG 0.16  HD
ATOM     51  C   GLU P   3     -23.796  25.844   9.384  1.00 33.66 LIG 0.24  C 
ATOM     52 O    GLU P   3     -22.682  26.359   9.287  1.00 34.99 LIG-0.27  OA
BRANCH 51 53
ATOM     53  CA  GLU P   3     -24.653  25.618   8.152  1.00 34.60 LIG 0.18  C 
BRANCH 53 54
ATOM     54  CB  GLU P   3     -25.079  26.968   7.576  1.00 27.84 LIG 0.04  C 
BRANCH 54 55
ATOM     55  CG  GLU P   3     -25.613  27.942   8.617  1.00 43.05 LIG 0.12  C 
BRANCH 55 56
ATOM     56  CD  GLU P   3     -26.938  27.493   9.195  1.00 49.21 LIG 0.17  C 
ATOM     57 OE1  GLU P   3     -26.924  26.788  10.226  1.00 52.28 LIG-0.65  OA
ATOM     58 OE2  GLU P   3     -27.991  27.847   8.620  1.00 52.44 LIG-0.65  OA
ENDBRANCH 55 56
ENDBRANCH 54 55
ENDBRANCH 53 54
BRANCH 53 59
ATOM     59  N   GLU P   3     -25.815  24.791   8.451  1.00 36.80 LIG-0.35  N 
ATOM     60 H    GLU P   3     -26.401  25.170   8.953  1.00 36.80 LIG 0.16  HD
ATOM     61  C   ALA P   2     -25.933  23.556   7.975  1.00 41.96 LIG 0.26  C 
ATOM     62 O    ALA P   2     -25.055  23.019   7.301  1.00 34.80 LIG-0.27  OA
BRANCH 61 63
ATOM     63  CA  ALA P   2     -27.236  22.816   8.315  1.00 47.40 LIG 0.40  C 
ATOM     64  CB  ALA P   2     -27.147  22.181   9.692  1.00 40.76 LIG 0.06  C 
ATOM     65  N   ALA P   2     -27.599  21.811   7.315  1.00 49.60 LIG 0.61  N 
ENDBRANCH 61 63
ENDBRANCH 53 59
ENDBRANCH 51 53
ENDBRANCH 41 49
ENDBRANCH 39 41
ENDBRANCH 1 37
TORSDOF 24
ENDMDL
MODEL 32
USER: ADFR SOLUTION from run 97
USER: SCORE 18.517140 LL:  -4.791 LR: -15.259 RR:   0.000 FEB:  -8.100
USER: RMSD 9.779048
USER: SEED 96
USER: STATUS no improvement in best in 6 clusters for 5 generations
USER: GENES 26
USER: genes 0 Translation |==|  0.43655 0.53613 0.65695
USER: genes 1 Rotation |==|  0.49001 0.95266 0.38756 0.67988
USER: genes 2 Torsion [C]-CA--CB-[CG] |==|  0.89432
USER: genes 3 Torsion [CA]-CB--CG-[CD] |==|  0.84353
USER: genes 4 Torsion [CB]-CG--CD-[NE] |==|  0.74996
USER: genes 5 Torsion [CG]-CD--NE-[CZ] |==|  0.50608
USER: genes 6 Torsion [N]-CA--C-[N] |==|  0.95283
USER: genes 7 Torsion [C]-N--CA-[C] |==|  0.64067
USER: genes 8 Torsion [N]-CA--C-[N] |==|  0.43166
USER: genes 9 Torsion [C]-N--CA-[CB] |==|  0.18064
USER: genes 10 Torsion [N]-CA--C-[OXT] |==|  0.42131
USER: genes 11 Torsion [N]-CA--CB-[CG] |==|  0.66925
USER: genes 12 Torsion [CA]-CB--CG-[OD2] |==|  0.90893
USER: genes 13 Torsion [N]-CA--CB-[CG] |==|  0.20512
USER: genes 14 Torsion [CA]-CB--CG-[ND1] |==|  0.40926
USER: genes 15 Torsion [CB]-CA--N-[C] |==|  0.39504
USER: genes 16 Torsion [N]-C--CA-[N] |==|  0.40144
USER: genes 17 Torsion [C]-CA--CB-[CG] |==|  0.52436
USER: genes 18 Torsion [CA]-CB--CG-[CD2] |==|  0.90650
USER: genes 19 Torsion [C]-CA--N-[C] |==|  0.82642
USER: genes 20 Torsion [N]-C--CA-[N] |==|  0.32703
USER: genes 21 Torsion [C]-CA--CB-[CG] |==|  0.48045
USER: genes 22 Torsion [CA]-CB--CG-[CD] |==|  0.20361
USER: genes 23 Torsion [CB]-CG--CD-[OE1] |==|  0.71529
USER: genes 24 Torsion [C]-CA--N-[C] |==|  0.75130
USER: genes 25 Torsion [N]-C--CA-[N] |==|  0.10936
ROOT
ATOM      1  CA  ARG P   5     -24.048  27.037  15.823  1.00 25.78 LIG 0.18  C 
ENDROOT
BRANCH 1 2
ATOM      2  CB  ARG P   5     -24.451  26.605  17.244  1.00 22.44 LIG 0.04  C 
BRANCH 2 3
ATOM      3  CG  ARG P   5     -23.631  25.438  17.792  1.00 26.51 LIG 0.02  C 
BRANCH 3 4
ATOM      4  CD  ARG P   5     -23.691  24.210  16.875  1.00 28.41 LIG 0.14  C 
BRANCH 4 5
ATOM      5  NE  ARG P   5     -24.800  23.323  17.220  1.00 33.08 LIG-0.23  N 
ATOM      6  CZ  ARG P   5     -25.055  22.167  16.611  1.00 31.92 LIG 0.67  C 
ATOM      7  NH2 ARG P   5     -26.078  21.430  17.010  1.00 32.43 LIG-0.23  N 
ATOM      8  NH1 ARG P   5     -24.274  21.736  15.623  1.00 23.99 LIG-0.23  N 
ATOM      9 2HH2 ARG P   5     -26.247  20.682  16.620  1.00 32.43 LIG 0.17  HD
ATOM     10 1HH2 ARG P   5     -26.574  21.698  17.659  1.00 32.43 LIG 0.17  HD
ATOM     11 2HH1 ARG P   5     -24.445  20.988  15.235  1.00 23.99 LIG 0.17  HD
ATOM     12 1HH1 ARG P   5     -23.599  22.205  15.373  1.00 23.99 LIG 0.17  HD
ATOM     13 HE   ARG P   5     -25.323  23.565  17.859  1.00 33.08 LIG 0.18  HD
ENDBRANCH 4 5
ENDBRANCH 3 4
ENDBRANCH 2 3
ENDBRANCH 1 2
BRANCH 1 14
ATOM     14  C   ARG P   5     -22.531  26.953  15.650  1.00 22.77 LIG 0.24  C 
ATOM     15 O    ARG P   5     -21.793  27.805  16.154  1.00 23.41 LIG-0.27  OA
ATOM     16  N   HIS P   6     -22.073  25.938  14.923  1.00 20.21 LIG-0.35  N 
ATOM     17 H    HIS P   6     -22.576  25.349  14.550  1.00 20.21 LIG 0.16  HD
BRANCH 16 18
ATOM     18  CA  HIS P   6     -20.640  25.739  14.695  1.00 24.32 LIG 0.18  C 
BRANCH 18 19
ATOM     19  C   HIS P   6     -20.264  25.546  13.220  1.00 31.11 LIG 0.24  C 
ATOM     20  N   ASP P   7     -19.019  25.859  12.876  1.00 28.94 LIG-0.34  N 
ATOM     21 H    ASP P   7     -18.476  26.303  13.373  1.00 28.94 LIG 0.16  HD
ATOM     22 O    HIS P   6     -21.092  25.119  12.407  1.00 27.73 LIG-0.27  OA
BRANCH 20 23
ATOM     23  CA  ASP P   7     -18.474  25.454  11.581  1.00 30.45 LIG 0.20  C 
BRANCH 23 24
ATOM     24  C   ASP P   7     -16.957  25.719  11.500  1.00 38.41 LIG 0.20  C 
ATOM     25 OXT  ASP P   7     -16.221  25.038  10.788  1.00 43.84 LIG-0.65  OA
ATOM     26 O    ASP P   7     -16.407  26.614  12.152  1.00 36.31 LIG-0.65  OA
ENDBRANCH 23 24
BRANCH 23 27
ATOM     27  CB  ASP P   7     -19.226  26.149  10.445  1.00 42.34 LIG 0.15  C 
BRANCH 27 28
ATOM     28  CG  ASP P   7     -19.917  25.162   9.506  1.00 55.06 LIG 0.17  C 
ATOM     29 OD2  ASP P   7     -19.373  24.055   9.314  1.00 62.01 LIG-0.65  OA
ATOM     30 OD1  ASP P   7     -20.998  25.489   8.959  1.00 52.19 LIG-0.65  OA
ENDBRANCH 27 28
ENDBRANCH 23 27
ENDBRANCH 20 23
ENDBRANCH 18 19
BRANCH 18 31
ATOM     31  CB  HIS P   6     -20.137  24.560  15.508  1.00 25.23 LIG 0.10  C 
BRANCH 31 32
ATOM     32  CG  HIS P   6     -20.558  23.232  14.968  1.00 20.03 LIG 0.06  A 
ATOM     33 ND1  HIS P   6     -19.773  22.106  15.076  1.00 23.24 LIG-0.24  NA
ATOM     34  CE1 HIS P   6     -20.387  21.087  14.501  1.00 27.69 LIG 0.23  A 
ATOM     35 NE2  HIS P   6     -21.539  21.516  14.013  1.00 30.02 LIG-0.25  NA
ATOM     36  CD2 HIS P   6     -21.671  22.855  14.295  1.00 26.95 LIG 0.14  A 
ENDBRANCH 31 32
ENDBRANCH 18 31
ENDBRANCH 16 18
ENDBRANCH 1 14
BRANCH 1 37
ATOM     37  N   ARG P   5     -24.719  26.213  14.828  1.00 23.27 LIG-0.35  N 
ATOM     38 H    ARG P   5     -24.799  25.384  15.043  1.00 23.27 LIG 0.16  HD
ATOM     39  C   PHE P   4     -25.159  26.736  13.690  1.00 23.02 LIG 0.24  C 
ATOM     40 O    PHE P   4     -25.048  27.932  13.410  1.00 27.32 LIG-0.27  OA
BRANCH 39 41
ATOM     41  CA  PHE P   4     -25.838  25.786  12.735  1.00 26.78 LIG 0.18  C 
BRANCH 41 42
ATOM     42  CB  PHE P   4     -24.839  25.270  11.695  1.00 27.56 LIG 0.07  C 
BRANCH 42 43
ATOM     43  CG  PHE P   4     -25.462  24.472  10.564  1.00 23.05 LIG-0.06  A 
ATOM     44  CD2 PHE P   4     -26.580  23.670  10.796  1.00 26.81 LIG 0.01  A 
ATOM     45  CE2 PHE P   4     -27.154  22.901   9.770  1.00 20.39 LIG 0.00  A 
ATOM     46  CZ  PHE P   4     -26.592  22.930   8.490  1.00 15.29 LIG 0.00  A 
ATOM     47  CE1 PHE P   4     -25.467  23.730   8.251  1.00 22.67 LIG 0.00  A 
ATOM     48  CD1 PHE P   4     -24.905  24.486   9.286  1.00 22.68 LIG 0.01  A 
ENDBRANCH 42 43
ENDBRANCH 41 42
BRANCH 41 49
ATOM     49  N   PHE P   4     -26.908  26.528  12.086  1.00 24.27 LIG-0.35  N 
ATOM     50 H    PHE P   4     -26.819  26.607  11.234  1.00 24.27 LIG 0.16  HD
ATOM     51  C   GLU P   3     -27.928  27.034  12.773  1.00 33.66 LIG 0.24  C 
ATOM     52 O    GLU P   3     -28.105  26.834  13.975  1.00 34.99 LIG-0.27  OA
BRANCH 51 53
ATOM     53  CA  GLU P   3     -28.905  27.880  11.979  1.00 34.60 LIG 0.18  C 
BRANCH 53 54
ATOM     54  CB  GLU P   3     -28.931  29.297  12.551  1.00 27.84 LIG 0.04  C 
BRANCH 54 55
ATOM     55  CG  GLU P   3     -29.751  30.280  11.728  1.00 43.05 LIG 0.12  C 
BRANCH 55 56
ATOM     56  CD  GLU P   3     -31.239  30.049  11.873  1.00 49.21 LIG 0.17  C 
ATOM     57 OE1  GLU P   3     -31.838  29.462  10.947  1.00 52.28 LIG-0.65  OA
ATOM     58 OE2  GLU P   3     -31.807  30.451  12.911  1.00 52.44 LIG-0.65  OA
ENDBRANCH 55 56
ENDBRANCH 54 55
ENDBRANCH 53 54
BRANCH 53 59
ATOM     59  N   GLU P   3     -30.241  27.297  11.976  1.00 36.80 LIG-0.35  N 
ATOM     60 H    GLU P   3     -30.745  27.562  12.620  1.00 36.80 LIG 0.16  HD
ATOM     61  C   ALA P   2     -30.621  26.429  11.045  1.00 41.96 LIG 0.26  C 
ATOM     62 O    ALA P   2     -29.862  26.027  10.164  1.00 34.80 LIG-0.27  OA
BRANCH 61 63
ATOM     63  CA  ALA P   2     -32.075  25.939  11.123  1.00 47.40 LIG 0.40  C 
ATOM     64  CB  ALA P   2     -32.494  25.295   9.812  1.00 40.76 LIG 0.06  C 
ATOM     65  N   ALA P   2     -33.016  26.999  11.490  1.00 49.60 LIG 0.61  N 
ENDBRANCH 61 63
ENDBRANCH 53 59
ENDBRANCH 51 53
ENDBRANCH 41 49
ENDBRANCH 39 41
ENDBRANCH 1 37
TORSDOF 24
ENDMDL
MODEL 33
USER: ADFR SOLUTION from run 61
USER: SCORE 19.101981 LL:  -4.881 LR: -15.264 RR:   0.000 FEB:  -8.105
USER: RMSD 9.902168
USER: SEED 60
USER: STATUS 1 or 2 clusters left
USER: GENES 26
USER: genes 0 Translation |==|  0.52709 0.45408 0.52039
USER: genes 1 Rotation |==|  0.55683 0.01882 0.38865 0.55330
USER: genes 2 Torsion [C]-CA--CB-[CG] |==|  0.58116
USER: genes 3 Torsion [CA]-CB--CG-[CD] |==|  0.72089
USER: genes 4 Torsion [CB]-CG--CD-[NE] |==|  0.13925
USER: genes 5 Torsion [CG]-CD--NE-[CZ] |==|  0.18539
USER: genes 6 Torsion [N]-CA--C-[N] |==|  0.45575
USER: genes 7 Torsion [C]-N--CA-[C] |==|  0.83025
USER: genes 8 Torsion [N]-CA--C-[N] |==|  0.88547
USER: genes 9 Torsion [C]-N--CA-[CB] |==|  0.37479
USER: genes 10 Torsion [N]-CA--C-[OXT] |==|  0.72609
USER: genes 11 Torsion [N]-CA--CB-[CG] |==|  0.91741
USER: genes 12 Torsion [CA]-CB--CG-[OD2] |==|  0.67518
USER: genes 13 Torsion [N]-CA--CB-[CG] |==|  0.64138
USER: genes 14 Torsion [CA]-CB--CG-[ND1] |==|  0.85897
USER: genes 15 Torsion [CB]-CA--N-[C] |==|  0.48333
USER: genes 16 Torsion [N]-C--CA-[N] |==|  0.46101
USER: genes 17 Torsion [C]-CA--CB-[CG] |==|  0.48518
USER: genes 18 Torsion [CA]-CB--CG-[CD2] |==|  0.69241
USER: genes 19 Torsion [C]-CA--N-[C] |==|  0.80674
USER: genes 20 Torsion [N]-C--CA-[N] |==|  0.21961
USER: genes 21 Torsion [C]-CA--CB-[CG] |==|  0.46440
USER: genes 22 Torsion [CA]-CB--CG-[CD] |==|  0.96517
USER: genes 23 Torsion [CB]-CG--CD-[OE1] |==|  0.79760
USER: genes 24 Torsion [C]-CA--N-[C] |==|  0.76720
USER: genes 25 Torsion [N]-C--CA-[N] |==|  0.26785
ROOT
ATOM      1  CA  ARG P   5     -21.739  25.375  13.365  1.00 25.78 LIG 0.18  C 
ENDROOT
BRANCH 1 2
ATOM      2  CB  ARG P   5     -20.801  24.202  13.697  1.00 22.44 LIG 0.04  C 
BRANCH 2 3
ATOM      3  CG  ARG P   5     -21.528  22.941  14.162  1.00 26.51 LIG 0.02  C 
BRANCH 3 4
ATOM      4  CD  ARG P   5     -21.494  22.784  15.687  1.00 28.41 LIG 0.14  C 
BRANCH 4 5
ATOM      5  NE  ARG P   5     -21.913  24.004  16.372  1.00 33.08 LIG-0.23  N 
ATOM      6  CZ  ARG P   5     -23.147  24.504  16.330  1.00 31.92 LIG 0.67  C 
ATOM      7  NH2 ARG P   5     -23.428  25.610  16.998  1.00 32.43 LIG-0.23  N 
ATOM      8  NH1 ARG P   5     -24.104  23.885  15.641  1.00 23.99 LIG-0.23  N 
ATOM      9 2HH2 ARG P   5     -24.224  25.936  16.974  1.00 32.43 LIG 0.17  HD
ATOM     10 1HH2 ARG P   5     -22.816  26.002  17.457  1.00 32.43 LIG 0.17  HD
ATOM     11 2HH1 ARG P   5     -24.898  24.214  15.619  1.00 23.99 LIG 0.17  HD
ATOM     12 1HH1 ARG P   5     -23.928  23.158  15.219  1.00 23.99 LIG 0.17  HD
ATOM     13 HE   ARG P   5     -21.324  24.429  16.833  1.00 33.08 LIG 0.18  HD
ENDBRANCH 4 5
ENDBRANCH 3 4
ENDBRANCH 2 3
ENDBRANCH 1 2
BRANCH 1 14
ATOM     14  C   ARG P   5     -21.118  26.268  12.291  1.00 22.77 LIG 0.24  C 
ATOM     15 O    ARG P   5     -21.540  26.243  11.131  1.00 23.41 LIG-0.27  OA
ATOM     16  N   HIS P   6     -20.104  27.038  12.674  1.00 20.21 LIG-0.35  N 
ATOM     17 H    HIS P   6     -19.786  27.051  13.473  1.00 20.21 LIG 0.16  HD
BRANCH 16 18
ATOM     18  CA  HIS P   6     -19.433  27.948  11.743  1.00 24.32 LIG 0.18  C 
BRANCH 18 19
ATOM     19  C   HIS P   6     -18.772  27.243  10.550  1.00 31.11 LIG 0.24  C 
ATOM     20  N   ASP P   7     -18.129  26.109  10.809  1.00 28.94 LIG-0.34  N 
ATOM     21 H    ASP P   7     -17.924  25.837  11.599  1.00 28.94 LIG 0.16  HD
ATOM     22 O    HIS P   6     -18.846  27.722   9.413  1.00 27.73 LIG-0.27  OA
BRANCH 20 23
ATOM     23  CA  ASP P   7     -17.713  25.218   9.727  1.00 30.45 LIG 0.20  C 
BRANCH 23 24
ATOM     24  C   ASP P   7     -18.680  24.029   9.572  1.00 38.41 LIG 0.20  C 
ATOM     25 OXT  ASP P   7     -18.430  22.927  10.059  1.00 43.84 LIG-0.65  OA
ATOM     26 O    ASP P   7     -19.741  24.116   8.943  1.00 36.31 LIG-0.65  OA
ENDBRANCH 23 24
BRANCH 23 27
ATOM     27  CB  ASP P   7     -16.275  24.746   9.950  1.00 42.34 LIG 0.15  C 
BRANCH 27 28
ATOM     28  CG  ASP P   7     -15.430  25.770  10.708  1.00 55.06 LIG 0.17  C 
ATOM     29 OD2  ASP P   7     -14.445  26.265  10.121  1.00 62.01 LIG-0.65  OA
ATOM     30 OD1  ASP P   7     -15.743  26.077  11.882  1.00 52.19 LIG-0.65  OA
ENDBRANCH 27 28
ENDBRANCH 23 27
ENDBRANCH 20 23
ENDBRANCH 18 19
BRANCH 18 31
ATOM     31  CB  HIS P   6     -18.399  28.783  12.477  1.00 25.23 LIG 0.10  C 
BRANCH 31 32
ATOM     32  CG  HIS P   6     -18.520  30.251  12.223  1.00 20.03 LIG 0.06  A 
ATOM     33 ND1  HIS P   6     -18.593  30.778  10.952  1.00 23.24 LIG-0.24  NA
ATOM     34  CE1 HIS P   6     -18.680  32.094  11.029  1.00 27.69 LIG 0.23  A 
ATOM     35 NE2  HIS P   6     -18.654  32.440  12.305  1.00 30.02 LIG-0.25  NA
ATOM     36  CD2 HIS P   6     -18.557  31.303  13.073  1.00 26.95 LIG 0.14  A 
ENDBRANCH 31 32
ENDBRANCH 18 31
ENDBRANCH 16 18
ENDBRANCH 1 14
BRANCH 1 37
ATOM     37  N   ARG P   5     -23.038  24.884  12.928  1.00 23.27 LIG-0.35  N 
ATOM     38 H    ARG P   5     -23.087  24.031  12.835  1.00 23.27 LIG 0.16  HD
ATOM     39  C   PHE P   4     -24.045  25.720  12.702  1.00 23.02 LIG 0.24  C 
ATOM     40 O    PHE P   4     -23.957  26.940  12.859  1.00 27.32 LIG-0.27  OA
BRANCH 39 41
ATOM     41  CA  PHE P   4     -25.343  25.096  12.252  1.00 26.78 LIG 0.18  C 
BRANCH 41 42
ATOM     42  CB  PHE P   4     -25.239  24.638  10.795  1.00 27.56 LIG 0.07  C 
BRANCH 42 43
ATOM     43  CG  PHE P   4     -26.451  23.881  10.284  1.00 23.05 LIG-0.06  A 
ATOM     44  CD2 PHE P   4     -26.368  22.518  10.003  1.00 26.81 LIG 0.01  A 
ATOM     45  CE2 PHE P   4     -27.469  21.805   9.501  1.00 20.39 LIG 0.00  A 
ATOM     46  CZ  PHE P   4     -28.674  22.474   9.269  1.00 15.29 LIG 0.00  A 
ATOM     47  CE1 PHE P   4     -28.765  23.844   9.545  1.00 22.67 LIG 0.00  A 
ATOM     48  CD1 PHE P   4     -27.656  24.540  10.039  1.00 22.68 LIG 0.01  A 
ENDBRANCH 42 43
ENDBRANCH 41 42
BRANCH 41 49
ATOM     49  N   PHE P   4     -26.374  26.115  12.390  1.00 24.27 LIG-0.35  N 
ATOM     50 H    PHE P   4     -26.681  26.412  11.644  1.00 24.27 LIG 0.16  HD
ATOM     51  C   GLU P   3     -26.788  26.536  13.582  1.00 33.66 LIG 0.24  C 
ATOM     52 O    GLU P   3     -26.419  26.039  14.646  1.00 34.99 LIG-0.27  OA
BRANCH 51 53
ATOM     53  CA  GLU P   3     -27.783  27.682  13.569  1.00 34.60 LIG 0.18  C 
BRANCH 53 54
ATOM     54  CB  GLU P   3     -27.744  28.402  14.916  1.00 27.84 LIG 0.04  C 
BRANCH 54 55
ATOM     55  CG  GLU P   3     -28.464  29.743  14.919  1.00 43.05 LIG 0.12  C 
BRANCH 55 56
ATOM     56  CD  GLU P   3     -28.802  30.217  13.522  1.00 49.21 LIG 0.17  C 
ATOM     57 OE1  GLU P   3     -27.872  30.631  12.798  1.00 52.28 LIG-0.65  OA
ATOM     58 OE2  GLU P   3     -29.994  30.172  13.149  1.00 52.44 LIG-0.65  OA
ENDBRANCH 55 56
ENDBRANCH 54 55
ENDBRANCH 53 54
BRANCH 53 59
ATOM     59  N   GLU P   3     -29.131  27.218  13.266  1.00 36.80 LIG-0.35  N 
ATOM     60 H    GLU P   3     -29.621  27.077  13.958  1.00 36.80 LIG 0.16  HD
ATOM     61  C   ALA P   2     -29.542  27.037  12.015  1.00 41.96 LIG 0.26  C 
ATOM     62 O    ALA P   2     -28.803  27.198  11.045  1.00 34.80 LIG-0.27  OA
BRANCH 61 63
ATOM     63  CA  ALA P   2     -31.005  26.606  11.835  1.00 47.40 LIG 0.40  C 
ATOM     64  CB  ALA P   2     -31.123  25.553  10.745  1.00 40.76 LIG 0.06  C 
ATOM     65  N   ALA P   2     -31.901  27.729  11.554  1.00 49.60 LIG 0.61  N 
ENDBRANCH 61 63
ENDBRANCH 53 59
ENDBRANCH 51 53
ENDBRANCH 41 49
ENDBRANCH 39 41
ENDBRANCH 1 37
TORSDOF 24
ENDMDL
MODEL 34
USER: ADFR SOLUTION from run 115
USER: SCORE 19.162258 LL:  -4.293 LR: -15.237 RR:   0.000 FEB:  -8.078
USER: RMSD 4.676900
USER: SEED 114
USER: STATUS no improvement in best in 25 clusters for 5 generations
USER: GENES 26
USER: genes 0 Translation |==|  0.43674 0.43342 0.50388
USER: genes 1 Rotation |==|  0.06390 0.66860 0.39168 0.64022
USER: genes 2 Torsion [C]-CA--CB-[CG] |==|  0.97997
USER: genes 3 Torsion [CA]-CB--CG-[CD] |==|  0.47469
USER: genes 4 Torsion [CB]-CG--CD-[NE] |==|  0.06457
USER: genes 5 Torsion [CG]-CD--NE-[CZ] |==|  0.16565
USER: genes 6 Torsion [N]-CA--C-[N] |==|  0.39721
USER: genes 7 Torsion [C]-N--CA-[C] |==|  0.68201
USER: genes 8 Torsion [N]-CA--C-[N] |==|  0.99066
USER: genes 9 Torsion [C]-N--CA-[CB] |==|  0.45176
USER: genes 10 Torsion [N]-CA--C-[OXT] |==|  0.50602
USER: genes 11 Torsion [N]-CA--CB-[CG] |==|  0.12926
USER: genes 12 Torsion [CA]-CB--CG-[OD2] |==|  0.38246
USER: genes 13 Torsion [N]-CA--CB-[CG] |==|  0.06978
USER: genes 14 Torsion [CA]-CB--CG-[ND1] |==|  0.77606
USER: genes 15 Torsion [CB]-CA--N-[C] |==|  0.85536
USER: genes 16 Torsion [N]-C--CA-[N] |==|  0.40751
USER: genes 17 Torsion [C]-CA--CB-[CG] |==|  0.16009
USER: genes 18 Torsion [CA]-CB--CG-[CD2] |==|  0.72587
USER: genes 19 Torsion [C]-CA--N-[C] |==|  0.81396
USER: genes 20 Torsion [N]-C--CA-[N] |==|  0.36762
USER: genes 21 Torsion [C]-CA--CB-[CG] |==|  0.43791
USER: genes 22 Torsion [CA]-CB--CG-[CD] |==|  0.50506
USER: genes 23 Torsion [CB]-CG--CD-[OE1] |==|  0.92888
USER: genes 24 Torsion [C]-CA--N-[C] |==|  0.75997
USER: genes 25 Torsion [N]-C--CA-[N] |==|  0.16428
ROOT
ATOM      1  CA  ARG P   5     -24.043  24.957  13.068  1.00 25.78 LIG 0.18  C 
ENDROOT
BRANCH 1 2
ATOM      2  CB  ARG P   5     -24.489  25.625  14.380  1.00 22.44 LIG 0.04  C 
BRANCH 2 3
ATOM      3  CG  ARG P   5     -24.763  27.123  14.249  1.00 26.51 LIG 0.02  C 
BRANCH 3 4
ATOM      4  CD  ARG P   5     -25.414  27.703  15.511  1.00 28.41 LIG 0.14  C 
BRANCH 4 5
ATOM      5  NE  ARG P   5     -25.136  26.890  16.693  1.00 33.08 LIG-0.23  N 
ATOM      6  CZ  ARG P   5     -23.915  26.632  17.157  1.00 31.92 LIG 0.67  C 
ATOM      7  NH2 ARG P   5     -23.771  25.894  18.245  1.00 32.43 LIG-0.23  N 
ATOM      8  NH1 ARG P   5     -22.840  27.130  16.550  1.00 23.99 LIG-0.23  N 
ATOM      9 2HH2 ARG P   5     -22.984  25.725  18.549  1.00 32.43 LIG 0.17  HD
ATOM     10 1HH2 ARG P   5     -24.464  25.584  18.649  1.00 32.43 LIG 0.17  HD
ATOM     11 2HH1 ARG P   5     -22.055  26.960  16.856  1.00 23.99 LIG 0.17  HD
ATOM     12 1HH1 ARG P   5     -22.931  27.623  15.852  1.00 23.99 LIG 0.17  HD
ATOM     13 HE   ARG P   5     -25.805  26.555  17.116  1.00 33.08 LIG 0.18  HD
ENDBRANCH 4 5
ENDBRANCH 3 4
ENDBRANCH 2 3
ENDBRANCH 1 2
BRANCH 1 14
ATOM     14  C   ARG P   5     -24.157  25.940  11.903  1.00 22.77 LIG 0.24  C 
ATOM     15 O    ARG P   5     -23.244  26.735  11.659  1.00 23.41 LIG-0.27  OA
ATOM     16  N   HIS P   6     -25.285  25.898  11.199  1.00 20.21 LIG-0.35  N 
ATOM     17 H    HIS P   6     -25.936  25.364  11.369  1.00 20.21 LIG 0.16  HD
BRANCH 16 18
ATOM     18  CA  HIS P   6     -25.510  26.778  10.051  1.00 24.32 LIG 0.18  C 
BRANCH 18 19
ATOM     19  C   HIS P   6     -26.645  27.791  10.255  1.00 31.11 LIG 0.24  C 
ATOM     20  N   ASP P   7     -27.321  27.706  11.395  1.00 28.94 LIG-0.34  N 
ATOM     21 H    ASP P   7     -27.276  27.040  11.938  1.00 28.94 LIG 0.16  HD
ATOM     22 O    HIS P   6     -26.901  28.635   9.390  1.00 27.73 LIG-0.27  OA
BRANCH 20 23
ATOM     23  CA  ASP P   7     -28.221  28.779  11.816  1.00 30.45 LIG 0.20  C 
BRANCH 23 24
ATOM     24  C   ASP P   7     -27.437  30.019  12.290  1.00 38.41 LIG 0.20  C 
ATOM     25 OXT  ASP P   7     -28.010  31.018  12.723  1.00 43.84 LIG-0.65  OA
ATOM     26 O    ASP P   7     -26.203  30.077  12.248  1.00 36.31 LIG-0.65  OA
ENDBRANCH 23 24
BRANCH 23 27
ATOM     27  CB  ASP P   7     -29.180  28.276  12.896  1.00 42.34 LIG 0.15  C 
BRANCH 27 28
ATOM     28  CG  ASP P   7     -28.470  27.482  13.992  1.00 55.06 LIG 0.17  C 
ATOM     29 OD2  ASP P   7     -28.804  27.689  15.176  1.00 62.01 LIG-0.65  OA
ATOM     30 OD1  ASP P   7     -27.581  26.655  13.674  1.00 52.19 LIG-0.65  OA
ENDBRANCH 27 28
ENDBRANCH 23 27
ENDBRANCH 20 23
ENDBRANCH 18 19
BRANCH 18 31
ATOM     31  CB  HIS P   6     -25.778  25.957   8.802  1.00 25.23 LIG 0.10  C 
BRANCH 31 32
ATOM     32  CG  HIS P   6     -26.331  24.597   9.083  1.00 20.03 LIG 0.06  A 
ATOM     33 ND1  HIS P   6     -25.535  23.537   9.458  1.00 23.24 LIG-0.24  NA
ATOM     34  CE1 HIS P   6     -26.286  22.464   9.625  1.00 27.69 LIG 0.23  A 
ATOM     35 NE2  HIS P   6     -27.541  22.788   9.362  1.00 30.02 LIG-0.25  NA
ATOM     36  CD2 HIS P   6     -27.596  24.119   9.023  1.00 26.95 LIG 0.14  A 
ENDBRANCH 31 32
ENDBRANCH 18 31
ENDBRANCH 16 18
ENDBRANCH 1 14
BRANCH 1 37
ATOM     37  N   ARG P   5     -22.679  24.461  13.183  1.00 23.27 LIG-0.35  N 
ATOM     38 H    ARG P   5     -22.577  23.637  12.963  1.00 23.27 LIG 0.16  HD
ATOM     39  C   PHE P   4     -21.697  25.252  13.600  1.00 23.02 LIG 0.24  C 
ATOM     40 O    PHE P   4     -21.864  26.438  13.895  1.00 27.32 LIG-0.27  OA
BRANCH 39 41
ATOM     41  CA  PHE P   4     -20.326  24.628  13.681  1.00 26.78 LIG 0.18  C 
BRANCH 41 42
ATOM     42  CB  PHE P   4     -20.068  24.084  15.089  1.00 27.56 LIG 0.07  C 
BRANCH 42 43
ATOM     43  CG  PHE P   4     -21.082  23.060  15.564  1.00 23.05 LIG-0.06  A 
ATOM     44  CD2 PHE P   4     -22.131  23.438  16.401  1.00 26.81 LIG 0.01  A 
ATOM     45  CE2 PHE P   4     -23.063  22.500  16.876  1.00 20.39 LIG 0.00  A 
ATOM     46  CZ  PHE P   4     -22.936  21.157  16.511  1.00 15.29 LIG 0.00  A 
ATOM     47  CE1 PHE P   4     -21.882  20.769  15.673  1.00 22.67 LIG 0.00  A 
ATOM     48  CD1 PHE P   4     -20.960  21.715  15.214  1.00 22.68 LIG 0.01  A 
ENDBRANCH 42 43
ENDBRANCH 41 42
BRANCH 41 49
ATOM     49  N   PHE P   4     -19.365  25.673  13.358  1.00 24.27 LIG-0.35  N 
ATOM     50 H    PHE P   4     -18.861  25.907  14.015  1.00 24.27 LIG 0.16  HD
ATOM     51  C   GLU P   3     -19.291  26.206  12.142  1.00 33.66 LIG 0.24  C 
ATOM     52 O    GLU P   3     -19.943  25.800  11.179  1.00 34.99 LIG-0.27  OA
BRANCH 51 53
ATOM     53  CA  GLU P   3     -18.322  27.363  11.985  1.00 34.60 LIG 0.18  C 
BRANCH 53 54
ATOM     54  CB  GLU P   3     -19.104  28.673  11.913  1.00 27.84 LIG 0.04  C 
BRANCH 54 55
ATOM     55  CG  GLU P   3     -18.287  29.901  12.290  1.00 43.05 LIG 0.12  C 
BRANCH 55 56
ATOM     56  CD  GLU P   3     -19.108  31.172  12.249  1.00 49.21 LIG 0.17  C 
ATOM     57 OE1  GLU P   3     -20.107  31.205  11.498  1.00 52.28 LIG-0.65  OA
ATOM     58 OE2  GLU P   3     -18.757  32.133  12.966  1.00 52.44 LIG-0.65  OA
ENDBRANCH 55 56
ENDBRANCH 54 55
ENDBRANCH 53 54
BRANCH 53 59
ATOM     59  N   GLU P   3     -17.475  27.198  10.810  1.00 36.80 LIG-0.35  N 
ATOM     60 H    GLU P   3     -17.773  27.582  10.101  1.00 36.80 LIG 0.16  HD
ATOM     61  C   ALA P   2     -16.342  26.505  10.858  1.00 41.96 LIG 0.26  C 
ATOM     62 O    ALA P   2     -15.964  25.922  11.873  1.00 34.80 LIG-0.27  OA
BRANCH 61 63
ATOM     63  CA  ALA P   2     -15.514  26.462   9.564  1.00 47.40 LIG 0.40  C 
ATOM     64  CB  ALA P   2     -14.293  25.575   9.740  1.00 40.76 LIG 0.06  C 
ATOM     65  N   ALA P   2     -15.113  27.790   9.099  1.00 49.60 LIG 0.61  N 
ENDBRANCH 61 63
ENDBRANCH 53 59
ENDBRANCH 51 53
ENDBRANCH 41 49
ENDBRANCH 39 41
ENDBRANCH 1 37
TORSDOF 24
ENDMDL
MODEL 35
USER: ADFR SOLUTION from run 197
USER: SCORE 18.437068 LL:  -4.244 LR: -15.243 RR:   0.000 FEB:  -8.084
USER: RMSD 9.836377
USER: SEED 196
USER: STATUS no improvement in best in 8 clusters for 5 generations
USER: GENES 26
USER: genes 0 Translation |==|  0.55237 0.47367 0.52188
USER: genes 1 Rotation |==|  0.46267 0.00503 0.44030 0.50696
USER: genes 2 Torsion [C]-CA--CB-[CG] |==|  0.40037
USER: genes 3 Torsion [CA]-CB--CG-[CD] |==|  0.19848
USER: genes 4 Torsion [CB]-CG--CD-[NE] |==|  0.65649
USER: genes 5 Torsion [CG]-CD--NE-[CZ] |==|  0.55500
USER: genes 6 Torsion [N]-CA--C-[N] |==|  0.37134
USER: genes 7 Torsion [C]-N--CA-[C] |==|  0.84048
USER: genes 8 Torsion [N]-CA--C-[N] |==|  0.33333
USER: genes 9 Torsion [C]-N--CA-[CB] |==|  0.33349
USER: genes 10 Torsion [N]-CA--C-[OXT] |==|  0.42371
USER: genes 11 Torsion [N]-CA--CB-[CG] |==|  0.91595
USER: genes 12 Torsion [CA]-CB--CG-[OD2] |==|  0.23944
USER: genes 13 Torsion [N]-CA--CB-[CG] |==|  0.80959
USER: genes 14 Torsion [CA]-CB--CG-[ND1] |==|  0.44750
USER: genes 15 Torsion [CB]-CA--N-[C] |==|  0.86538
USER: genes 16 Torsion [N]-C--CA-[N] |==|  0.02380
USER: genes 17 Torsion [C]-CA--CB-[CG] |==|  0.42310
USER: genes 18 Torsion [CA]-CB--CG-[CD2] |==|  0.97523
USER: genes 19 Torsion [C]-CA--N-[C] |==|  0.76596
USER: genes 20 Torsion [N]-C--CA-[N] |==|  0.22345
USER: genes 21 Torsion [C]-CA--CB-[CG] |==|  0.81717
USER: genes 22 Torsion [CA]-CB--CG-[CD] |==|  0.80589
USER: genes 23 Torsion [CB]-CG--CD-[OE1] |==|  0.80290
USER: genes 24 Torsion [C]-CA--N-[C] |==|  0.55296
USER: genes 25 Torsion [N]-C--CA-[N] |==|  0.07486
ROOT
ATOM      1  CA  ARG P   5     -21.095  25.772  13.392  1.00 25.78 LIG 0.18  C 
ENDROOT
BRANCH 1 2
ATOM      2  CB  ARG P   5     -20.719  24.460  14.102  1.00 22.44 LIG 0.04  C 
BRANCH 2 3
ATOM      3  CG  ARG P   5     -21.001  24.466  15.604  1.00 26.51 LIG 0.02  C 
BRANCH 3 4
ATOM      4  CD  ARG P   5     -22.503  24.412  15.909  1.00 28.41 LIG 0.14  C 
BRANCH 4 5
ATOM      5  NE  ARG P   5     -22.933  25.533  16.741  1.00 33.08 LIG-0.23  N 
ATOM      6  CZ  ARG P   5     -24.054  25.550  17.459  1.00 31.92 LIG 0.67  C 
ATOM      7  NH2 ARG P   5     -24.346  26.611  18.192  1.00 32.43 LIG-0.23  N 
ATOM      8  NH1 ARG P   5     -24.869  24.498  17.465  1.00 23.99 LIG-0.23  N 
ATOM      9 2HH2 ARG P   5     -25.069  26.627  18.658  1.00 32.43 LIG 0.17  HD
ATOM     10 1HH2 ARG P   5     -23.813  27.286  18.202  1.00 32.43 LIG 0.17  HD
ATOM     11 2HH1 ARG P   5     -25.591  24.515  17.932  1.00 23.99 LIG 0.17  HD
ATOM     12 1HH1 ARG P   5     -24.674  23.800  17.003  1.00 23.99 LIG 0.17  HD
ATOM     13 HE   ARG P   5     -22.428  26.229  16.768  1.00 33.08 LIG 0.18  HD
ENDBRANCH 4 5
ENDBRANCH 3 4
ENDBRANCH 2 3
ENDBRANCH 1 2
BRANCH 1 14
ATOM     14  C   ARG P   5     -20.094  26.082  12.279  1.00 22.77 LIG 0.24  C 
ATOM     15 O    ARG P   5     -20.125  25.458  11.213  1.00 23.41 LIG-0.27  OA
ATOM     16  N   HIS P   6     -19.197  27.030  12.535  1.00 20.21 LIG-0.35  N 
ATOM     17 H    HIS P   6     -19.150  27.458  13.279  1.00 20.21 LIG 0.16  HD
BRANCH 16 18
ATOM     18  CA  HIS P   6     -18.194  27.428  11.545  1.00 24.32 LIG 0.18  C 
BRANCH 18 19
ATOM     19  C   HIS P   6     -17.303  26.276  11.061  1.00 31.11 LIG 0.24  C 
ATOM     20  N   ASP P   7     -17.333  26.006   9.761  1.00 28.94 LIG-0.34  N 
ATOM     21 H    ASP P   7     -17.921  26.314   9.214  1.00 28.94 LIG 0.16  HD
ATOM     22 O    HIS P   6     -16.601  25.643  11.857  1.00 27.73 LIG-0.27  OA
BRANCH 20 23
ATOM     23  CA  ASP P   7     -16.330  25.133   9.152  1.00 30.45 LIG 0.20  C 
BRANCH 23 24
ATOM     24  C   ASP P   7     -15.459  25.897   8.136  1.00 38.41 LIG 0.20  C 
ATOM     25 OXT  ASP P   7     -14.304  25.552   7.888  1.00 43.84 LIG-0.65  OA
ATOM     26 O    ASP P   7     -15.868  26.897   7.533  1.00 36.31 LIG-0.65  OA
ENDBRANCH 23 24
BRANCH 23 27
ATOM     27  CB  ASP P   7     -17.001  23.917   8.511  1.00 42.34 LIG 0.15  C 
BRANCH 27 28
ATOM     28  CG  ASP P   7     -18.288  23.508   9.228  1.00 55.06 LIG 0.17  C 
ATOM     29 OD2  ASP P   7     -19.350  24.072   8.892  1.00 62.01 LIG-0.65  OA
ATOM     30 OD1  ASP P   7     -18.240  22.631  10.123  1.00 52.19 LIG-0.65  OA
ENDBRANCH 27 28
ENDBRANCH 23 27
ENDBRANCH 20 23
ENDBRANCH 18 19
BRANCH 18 31
ATOM     31  CB  HIS P   6     -17.326  28.546  12.097  1.00 25.23 LIG 0.10  C 
BRANCH 31 32
ATOM     32  CG  HIS P   6     -18.049  29.841  12.270  1.00 20.03 LIG 0.06  A 
ATOM     33 ND1  HIS P   6     -17.581  30.847  13.087  1.00 23.24 LIG-0.24  NA
ATOM     34  CE1 HIS P   6     -18.426  31.862  13.058  1.00 27.69 LIG 0.23  A 
ATOM     35 NE2  HIS P   6     -19.431  31.546  12.260  1.00 30.02 LIG-0.25  NA
ATOM     36  CD2 HIS P   6     -19.217  30.287  11.752  1.00 26.95 LIG 0.14  A 
ENDBRANCH 31 32
ENDBRANCH 18 31
ENDBRANCH 16 18
ENDBRANCH 1 14
BRANCH 1 37
ATOM     37  N   ARG P   5     -22.445  25.694  12.854  1.00 23.27 LIG-0.35  N 
ATOM     38 H    ARG P   5     -22.945  26.368  13.040  1.00 23.27 LIG 0.16  HD
ATOM     39  C   PHE P   4     -22.836  24.647  12.136  1.00 23.02 LIG 0.24  C 
ATOM     40 O    PHE P   4     -22.096  23.698  11.868  1.00 27.32 LIG-0.27  OA
BRANCH 39 41
ATOM     41  CA  PHE P   4     -24.258  24.676  11.633  1.00 26.78 LIG 0.18  C 
BRANCH 41 42
ATOM     42  CB  PHE P   4     -24.298  24.402  10.127  1.00 27.56 LIG 0.07  C 
BRANCH 42 43
ATOM     43  CG  PHE P   4     -25.585  23.768   9.634  1.00 23.05 LIG-0.06  A 
ATOM     44  CD2 PHE P   4     -26.540  23.309  10.541  1.00 26.81 LIG 0.01  A 
ATOM     45  CE2 PHE P   4     -27.725  22.692  10.108  1.00 20.39 LIG 0.00  A 
ATOM     46  CZ  PHE P   4     -27.953  22.525   8.739  1.00 15.29 LIG 0.00  A 
ATOM     47  CE1 PHE P   4     -26.997  22.980   7.821  1.00 22.67 LIG 0.00  A 
ATOM     48  CD1 PHE P   4     -25.820  23.587   8.271  1.00 22.68 LIG 0.01  A 
ENDBRANCH 42 43
ENDBRANCH 41 42
BRANCH 41 49
ATOM     49  N   PHE P   4     -24.783  26.003  11.921  1.00 24.27 LIG-0.35  N 
ATOM     50 H    PHE P   4     -24.728  26.556  11.264  1.00 24.27 LIG 0.16  HD
ATOM     51  C   GLU P   3     -25.299  26.310  13.107  1.00 33.66 LIG 0.24  C 
ATOM     52 O    GLU P   3     -25.467  25.490  14.010  1.00 34.99 LIG-0.27  OA
BRANCH 51 53
ATOM     53  CA  GLU P   3     -25.700  27.762  13.298  1.00 34.60 LIG 0.18  C 
BRANCH 53 54
ATOM     54  CB  GLU P   3     -25.708  28.094  14.789  1.00 27.84 LIG 0.04  C 
BRANCH 54 55
ATOM     55  CG  GLU P   3     -26.772  27.348  15.582  1.00 43.05 LIG 0.12  C 
BRANCH 55 56
ATOM     56  CD  GLU P   3     -28.171  27.825  15.255  1.00 49.21 LIG 0.17  C 
ATOM     57 OE1  GLU P   3     -28.515  28.959  15.650  1.00 52.28 LIG-0.65  OA
ATOM     58 OE2  GLU P   3     -28.922  27.068  14.602  1.00 52.44 LIG-0.65  OA
ENDBRANCH 55 56
ENDBRANCH 54 55
ENDBRANCH 53 54
BRANCH 53 59
ATOM     59  N   GLU P   3     -26.997  28.043  12.695  1.00 36.80 LIG-0.35  N 
ATOM     60 H    GLU P   3     -27.478  27.346  12.548  1.00 36.80 LIG 0.16  HD
ATOM     61  C   ALA P   2     -27.379  29.283  12.408  1.00 41.96 LIG 0.26  C 
ATOM     62 O    ALA P   2     -26.649  30.258  12.583  1.00 34.80 LIG-0.27  OA
BRANCH 61 63
ATOM     63  CA  ALA P   2     -28.795  29.444  11.834  1.00 47.40 LIG 0.40  C 
ATOM     64  CB  ALA P   2     -29.370  30.802  12.201  1.00 40.76 LIG 0.06  C 
ATOM     65  N   ALA P   2     -29.706  28.378  12.254  1.00 49.60 LIG 0.61  N 
ENDBRANCH 61 63
ENDBRANCH 53 59
ENDBRANCH 51 53
ENDBRANCH 41 49
ENDBRANCH 39 41
ENDBRANCH 1 37
TORSDOF 24
ENDMDL
MODEL 36
USER: ADFR SOLUTION from run 138
USER: SCORE 19.024586 LL:  -4.319 LR: -15.242 RR:   0.000 FEB:  -8.083
USER: RMSD 9.440414
USER: SEED 137
USER: STATUS no improvement in best in 6 clusters for 5 generations
USER: GENES 26
USER: genes 0 Translation |==|  0.50101 0.51846 0.53461
USER: genes 1 Rotation |==|  0.46522 0.00124 0.49517 0.50258
USER: genes 2 Torsion [C]-CA--CB-[CG] |==|  0.58180
USER: genes 3 Torsion [CA]-CB--CG-[CD] |==|  0.73992
USER: genes 4 Torsion [CB]-CG--CD-[NE] |==|  0.33290
USER: genes 5 Torsion [CG]-CD--NE-[CZ] |==|  0.77824
USER: genes 6 Torsion [N]-CA--C-[N] |==|  0.44730
USER: genes 7 Torsion [C]-N--CA-[C] |==|  0.82424
USER: genes 8 Torsion [N]-CA--C-[N] |==|  0.43193
USER: genes 9 Torsion [C]-N--CA-[CB] |==|  0.84656
USER: genes 10 Torsion [N]-CA--C-[OXT] |==|  0.07721
USER: genes 11 Torsion [N]-CA--CB-[CG] |==|  0.88068
USER: genes 12 Torsion [CA]-CB--CG-[OD2] |==|  0.28613
USER: genes 13 Torsion [N]-CA--CB-[CG] |==|  0.81603
USER: genes 14 Torsion [CA]-CB--CG-[ND1] |==|  0.33543
USER: genes 15 Torsion [CB]-CA--N-[C] |==|  0.83889
USER: genes 16 Torsion [N]-C--CA-[N] |==|  0.02853
USER: genes 17 Torsion [C]-CA--CB-[CG] |==|  0.40505
USER: genes 18 Torsion [CA]-CB--CG-[CD2] |==|  0.19972
USER: genes 19 Torsion [C]-CA--N-[C] |==|  0.76210
USER: genes 20 Torsion [N]-C--CA-[N] |==|  0.05120
USER: genes 21 Torsion [C]-CA--CB-[CG] |==|  0.45036
USER: genes 22 Torsion [CA]-CB--CG-[CD] |==|  0.20210
USER: genes 23 Torsion [CB]-CG--CD-[OE1] |==|  0.23751
USER: genes 24 Torsion [C]-CA--N-[C] |==|  0.68960
USER: genes 25 Torsion [N]-C--CA-[N] |==|  0.20270
ROOT
ATOM      1  CA  ARG P   5     -22.404  26.679  13.621  1.00 25.78 LIG 0.18  C 
ENDROOT
BRANCH 1 2
ATOM      2  CB  ARG P   5     -22.015  25.559  14.601  1.00 22.44 LIG 0.04  C 
BRANCH 2 3
ATOM      3  CG  ARG P   5     -23.205  24.932  15.328  1.00 26.51 LIG 0.02  C 
BRANCH 3 4
ATOM      4  CD  ARG P   5     -23.467  25.595  16.685  1.00 28.41 LIG 0.14  C 
BRANCH 4 5
ATOM      5  NE  ARG P   5     -24.801  26.186  16.757  1.00 33.08 LIG-0.23  N 
ATOM      6  CZ  ARG P   5     -25.130  27.365  16.232  1.00 31.92 LIG 0.67  C 
ATOM      7  NH2 ARG P   5     -26.373  27.805  16.340  1.00 32.43 LIG-0.23  N 
ATOM      8  NH1 ARG P   5     -24.226  28.091  15.578  1.00 23.99 LIG-0.23  N 
ATOM      9 2HH2 ARG P   5     -26.590  28.566  16.003  1.00 32.43 LIG 0.17  HD
ATOM     10 1HH2 ARG P   5     -26.963  27.331  16.748  1.00 32.43 LIG 0.17  HD
ATOM     11 2HH1 ARG P   5     -24.446  28.851  15.242  1.00 23.99 LIG 0.17  HD
ATOM     12 1HH1 ARG P   5     -23.422  27.800  15.493  1.00 23.99 LIG 0.17  HD
ATOM     13 HE   ARG P   5     -25.414  25.744  17.166  1.00 33.08 LIG 0.18  HD
ENDBRANCH 4 5
ENDBRANCH 3 4
ENDBRANCH 2 3
ENDBRANCH 1 2
BRANCH 1 14
ATOM     14  C   ARG P   5     -21.403  26.750  12.468  1.00 22.77 LIG 0.24  C 
ATOM     15 O    ARG P   5     -21.685  26.284  11.360  1.00 23.41 LIG-0.27  OA
ATOM     16  N   HIS P   6     -20.229  27.315  12.736  1.00 20.21 LIG-0.35  N 
ATOM     17 H    HIS P   6     -20.011  27.625  13.508  1.00 20.21 LIG 0.16  HD
BRANCH 16 18
ATOM     18  CA  HIS P   6     -19.191  27.456  11.713  1.00 24.32 LIG 0.18  C 
BRANCH 18 19
ATOM     19  C   HIS P   6     -18.661  26.120  11.174  1.00 31.11 LIG 0.24  C 
ATOM     20  N   ASP P   7     -18.129  26.137   9.957  1.00 28.94 LIG-0.34  N 
ATOM     21 H    ASP P   7     -18.206  26.791   9.403  1.00 28.94 LIG 0.16  HD
ATOM     22 O    HIS P   6     -18.736  25.090  11.854  1.00 27.73 LIG-0.27  OA
BRANCH 20 23
ATOM     23  CA  ASP P   7     -17.347  25.004   9.463  1.00 30.45 LIG 0.20  C 
BRANCH 23 24
ATOM     24  C   ASP P   7     -18.237  23.770   9.217  1.00 38.41 LIG 0.20  C 
ATOM     25 OXT  ASP P   7     -19.429  23.881   8.933  1.00 43.84 LIG-0.65  OA
ATOM     26 O    ASP P   7     -17.805  22.615   9.305  1.00 36.31 LIG-0.65  OA
ENDBRANCH 23 24
BRANCH 23 27
ATOM     27  CB  ASP P   7     -16.203  24.687  10.427  1.00 42.34 LIG 0.15  C 
BRANCH 27 28
ATOM     28  CG  ASP P   7     -15.491  25.942  10.931  1.00 55.06 LIG 0.17  C 
ATOM     29 OD2  ASP P   7     -15.748  26.336  12.087  1.00 62.01 LIG-0.65  OA
ATOM     30 OD1  ASP P   7     -14.682  26.533  10.178  1.00 52.19 LIG-0.65  OA
ENDBRANCH 27 28
ENDBRANCH 23 27
ENDBRANCH 20 23
ENDBRANCH 18 19
BRANCH 18 31
ATOM     31  CB  HIS P   6     -18.035  28.283  12.248  1.00 25.23 LIG 0.10  C 
BRANCH 31 32
ATOM     32  CG  HIS P   6     -18.392  29.708  12.523  1.00 20.03 LIG 0.06  A 
ATOM     33 ND1  HIS P   6     -18.268  30.273  13.774  1.00 23.24 LIG-0.24  NA
ATOM     34  CE1 HIS P   6     -18.666  31.532  13.726  1.00 27.69 LIG 0.23  A 
ATOM     35 NE2  HIS P   6     -19.053  31.800  12.491  1.00 30.02 LIG-0.25  NA
ATOM     36  CD2 HIS P   6     -18.889  30.675  11.718  1.00 26.95 LIG 0.14  A 
ENDBRANCH 31 32
ENDBRANCH 18 31
ENDBRANCH 16 18
ENDBRANCH 1 14
BRANCH 1 37
ATOM     37  N   ARG P   5     -23.752  26.468  13.112  1.00 23.27 LIG-0.35  N 
ATOM     38 H    ARG P   5     -24.297  27.116  13.261  1.00 23.27 LIG 0.16  HD
ATOM     39  C   PHE P   4     -24.074  25.350  12.471  1.00 23.02 LIG 0.24  C 
ATOM     40 O    PHE P   4     -23.270  24.441  12.253  1.00 27.32 LIG-0.27  OA
BRANCH 39 41
ATOM     41  CA  PHE P   4     -25.500  25.244  11.990  1.00 26.78 LIG 0.18  C 
BRANCH 41 42
ATOM     42  CB  PHE P   4     -25.538  24.827  10.517  1.00 27.56 LIG 0.07  C 
BRANCH 42 43
ATOM     43  CG  PHE P   4     -26.710  23.939  10.143  1.00 23.05 LIG-0.06  A 
ATOM     44  CD2 PHE P   4     -28.001  24.462  10.076  1.00 26.81 LIG 0.01  A 
ATOM     45  CE2 PHE P   4     -29.104  23.651   9.760  1.00 20.39 LIG 0.00  A 
ATOM     46  CZ  PHE P   4     -28.910  22.288   9.516  1.00 15.29 LIG 0.00  A 
ATOM     47  CE1 PHE P   4     -27.616  21.755   9.585  1.00 22.67 LIG 0.00  A 
ATOM     48  CD1 PHE P   4     -26.530  22.576   9.906  1.00 22.68 LIG 0.01  A 
ENDBRANCH 42 43
ENDBRANCH 41 42
BRANCH 41 49
ATOM     49  N   PHE P   4     -26.105  26.557  12.161  1.00 24.27 LIG-0.35  N 
ATOM     50 H    PHE P   4     -26.075  27.055  11.461  1.00 24.27 LIG 0.16  HD
ATOM     51  C   GLU P   3     -26.651  26.932  13.314  1.00 33.66 LIG 0.24  C 
ATOM     52 O    GLU P   3     -26.781  26.183  14.282  1.00 34.99 LIG-0.27  OA
BRANCH 51 53
ATOM     53  CA  GLU P   3     -27.138  28.368  13.378  1.00 34.60 LIG 0.18  C 
BRANCH 53 54
ATOM     54  CB  GLU P   3     -28.446  28.425  14.166  1.00 27.84 LIG 0.04  C 
BRANCH 54 55
ATOM     55  CG  GLU P   3     -28.806  29.818  14.664  1.00 43.05 LIG 0.12  C 
BRANCH 55 56
ATOM     56  CD  GLU P   3     -29.268  30.726  13.545  1.00 49.21 LIG 0.17  C 
ATOM     57 OE1  GLU P   3     -30.473  30.689  13.215  1.00 52.28 LIG-0.65  OA
ATOM     58 OE2  GLU P   3     -28.430  31.474  12.998  1.00 52.44 LIG-0.65  OA
ENDBRANCH 55 56
ENDBRANCH 54 55
ENDBRANCH 53 54
BRANCH 53 59
ATOM     59  N   GLU P   3     -27.308  28.936  12.047  1.00 36.80 LIG-0.35  N 
ATOM     60 H    GLU P   3     -27.951  28.591  11.593  1.00 36.80 LIG 0.16  HD
ATOM     61  C   ALA P   2     -26.520  29.907  11.596  1.00 41.96 LIG 0.26  C 
ATOM     62 O    ALA P   2     -25.574  30.348  12.247  1.00 34.80 LIG-0.27  OA
BRANCH 61 63
ATOM     63  CA  ALA P   2     -26.848  30.458  10.200  1.00 47.40 LIG 0.40  C 
ATOM     64  CB  ALA P   2     -25.666  31.231   9.639  1.00 40.76 LIG 0.06  C 
ATOM     65  N   ALA P   2     -28.052  31.290  10.183  1.00 49.60 LIG 0.61  N 
ENDBRANCH 61 63
ENDBRANCH 53 59
ENDBRANCH 51 53
ENDBRANCH 41 49
ENDBRANCH 39 41
ENDBRANCH 1 37
TORSDOF 24
ENDMDL
MODEL 37
USER: ADFR SOLUTION from run 3
USER: SCORE 17.999327 LL:  -4.108 LR: -15.206 RR:   0.000 FEB:  -8.047
USER: RMSD 5.228148
USER: SEED 800111
USER: STATUS no improvement in best in 19 clusters for 5 generations
USER: GENES 26
USER: genes 0 Translation |==|  0.43839 0.44482 0.54910
USER: genes 1 Rotation |==|  0.08660 0.70265 0.46303 0.69149
USER: genes 2 Torsion [C]-CA--CB-[CG] |==|  0.03349
USER: genes 3 Torsion [CA]-CB--CG-[CD] |==|  0.21780
USER: genes 4 Torsion [CB]-CG--CD-[NE] |==|  0.53928
USER: genes 5 Torsion [CG]-CD--NE-[CZ] |==|  0.43493
USER: genes 6 Torsion [N]-CA--C-[N] |==|  0.30556
USER: genes 7 Torsion [C]-N--CA-[C] |==|  0.19984
USER: genes 8 Torsion [N]-CA--C-[N] |==|  0.86354
USER: genes 9 Torsion [C]-N--CA-[CB] |==|  0.86822
USER: genes 10 Torsion [N]-CA--C-[OXT] |==|  0.48231
USER: genes 11 Torsion [N]-CA--CB-[CG] |==|  0.78188
USER: genes 12 Torsion [CA]-CB--CG-[OD2] |==|  0.12446
USER: genes 13 Torsion [N]-CA--CB-[CG] |==|  0.64457
USER: genes 14 Torsion [CA]-CB--CG-[ND1] |==|  0.50567
USER: genes 15 Torsion [CB]-CA--N-[C] |==|  0.84346
USER: genes 16 Torsion [N]-C--CA-[N] |==|  0.40266
USER: genes 17 Torsion [C]-CA--CB-[CG] |==|  0.16254
USER: genes 18 Torsion [CA]-CB--CG-[CD2] |==|  0.24890
USER: genes 19 Torsion [C]-CA--N-[C] |==|  0.67534
USER: genes 20 Torsion [N]-C--CA-[N] |==|  0.43724
USER: genes 21 Torsion [C]-CA--CB-[CG] |==|  0.48406
USER: genes 22 Torsion [CA]-CB--CG-[CD] |==|  0.65425
USER: genes 23 Torsion [CB]-CG--CD-[OE1] |==|  0.22814
USER: genes 24 Torsion [C]-CA--N-[C] |==|  0.77607
USER: genes 25 Torsion [N]-C--CA-[N] |==|  0.31377
ROOT
ATOM      1  CA  ARG P   5     -24.001  25.188  13.882  1.00 25.78 LIG 0.18  C 
ENDROOT
BRANCH 1 2
ATOM      2  CB  ARG P   5     -24.150  25.387  15.400  1.00 22.44 LIG 0.04  C 
BRANCH 2 3
ATOM      3  CG  ARG P   5     -24.806  26.712  15.788  1.00 26.51 LIG 0.02  C 
BRANCH 3 4
ATOM      4  CD  ARG P   5     -26.329  26.674  15.617  1.00 28.41 LIG 0.14  C 
BRANCH 4 5
ATOM      5  NE  ARG P   5     -26.918  28.010  15.664  1.00 33.08 LIG-0.23  N 
ATOM      6  CZ  ARG P   5     -28.089  28.334  15.121  1.00 31.92 LIG 0.67  C 
ATOM      7  NH2 ARG P   5     -28.542  29.572  15.232  1.00 32.43 LIG-0.23  N 
ATOM      8  NH1 ARG P   5     -28.820  27.418  14.489  1.00 23.99 LIG-0.23  N 
ATOM      9 2HH2 ARG P   5     -29.298  29.786  14.883  1.00 32.43 LIG 0.17  HD
ATOM     10 1HH2 ARG P   5     -28.080  30.162  15.653  1.00 32.43 LIG 0.17  HD
ATOM     11 2HH1 ARG P   5     -29.575  27.635  14.141  1.00 23.99 LIG 0.17  HD
ATOM     12 1HH1 ARG P   5     -28.536  26.609  14.430  1.00 23.99 LIG 0.17  HD
ATOM     13 HE   ARG P   5     -26.479  28.628  16.070  1.00 33.08 LIG 0.18  HD
ENDBRANCH 4 5
ENDBRANCH 3 4
ENDBRANCH 2 3
ENDBRANCH 1 2
BRANCH 1 14
ATOM     14  C   ARG P   5     -24.278  26.496  13.142  1.00 22.77 LIG 0.24  C 
ATOM     15 O    ARG P   5     -23.698  27.537  13.466  1.00 23.41 LIG-0.27  OA
ATOM     16  N   HIS P   6     -25.179  26.446  12.164  1.00 20.21 LIG-0.35  N 
ATOM     17 H    HIS P   6     -25.605  25.733  11.942  1.00 20.21 LIG 0.16  HD
BRANCH 16 18
ATOM     18  CA  HIS P   6     -25.522  27.628  11.372  1.00 24.32 LIG 0.18  C 
BRANCH 18 19
ATOM     19  C   HIS P   6     -24.423  28.064  10.393  1.00 31.11 LIG 0.24  C 
ATOM     20  N   ASP P   7     -23.194  28.172  10.887  1.00 28.94 LIG-0.34  N 
ATOM     21 H    ASP P   7     -23.007  28.174  11.727  1.00 28.94 LIG 0.16  HD
ATOM     22 O    HIS P   6     -24.688  28.298   9.209  1.00 27.73 LIG-0.27  OA
BRANCH 20 23
ATOM     23  CA  ASP P   7     -22.038  28.301  10.002  1.00 30.45 LIG 0.20  C 
BRANCH 23 24
ATOM     24  C   ASP P   7     -21.920  29.727   9.430  1.00 38.41 LIG 0.20  C 
ATOM     25 OXT  ASP P   7     -20.951  30.074   8.756  1.00 43.84 LIG-0.65  OA
ATOM     26 O    ASP P   7     -22.780  30.593   9.630  1.00 36.31 LIG-0.65  OA
ENDBRANCH 23 24
BRANCH 23 27
ATOM     27  CB  ASP P   7     -22.102  27.254   8.888  1.00 42.34 LIG 0.15  C 
BRANCH 27 28
ATOM     28  CG  ASP P   7     -21.664  25.867   9.356  1.00 55.06 LIG 0.17  C 
ATOM     29 OD2  ASP P   7     -22.099  25.453  10.450  1.00 62.01 LIG-0.65  OA
ATOM     30 OD1  ASP P   7     -20.887  25.193   8.637  1.00 52.19 LIG-0.65  OA
ENDBRANCH 27 28
ENDBRANCH 23 27
ENDBRANCH 20 23
ENDBRANCH 18 19
BRANCH 18 31
ATOM     31  CB  HIS P   6     -25.881  28.787  12.285  1.00 25.23 LIG 0.10  C 
BRANCH 31 32
ATOM     32  CG  HIS P   6     -27.192  29.425  11.962  1.00 20.03 LIG 0.06  A 
ATOM     33 ND1  HIS P   6     -27.673  30.518  12.650  1.00 23.24 LIG-0.24  NA
ATOM     34  CE1 HIS P   6     -28.853  30.857  12.162  1.00 27.69 LIG 0.23  A 
ATOM     35 NE2  HIS P   6     -29.159  30.016  11.188  1.00 30.02 LIG-0.25  NA
ATOM     36  CD2 HIS P   6     -28.134  29.112  11.042  1.00 26.95 LIG 0.14  A 
ENDBRANCH 31 32
ENDBRANCH 18 31
ENDBRANCH 16 18
ENDBRANCH 1 14
BRANCH 1 37
ATOM     37  N   ARG P   5     -22.671  24.693  13.558  1.00 23.27 LIG-0.35  N 
ATOM     38 H    ARG P   5     -22.659  23.955  13.118  1.00 23.27 LIG 0.16  HD
ATOM     39  C   PHE P   4     -21.584  25.359  13.932  1.00 23.02 LIG 0.24  C 
ATOM     40 O    PHE P   4     -21.625  26.425  14.549  1.00 27.32 LIG-0.27  OA
BRANCH 39 41
ATOM     41  CA  PHE P   4     -20.260  24.749  13.542  1.00 26.78 LIG 0.18  C 
BRANCH 41 42
ATOM     42  CB  PHE P   4     -19.706  23.896  14.686  1.00 27.56 LIG 0.07  C 
BRANCH 42 43
ATOM     43  CG  PHE P   4     -20.617  22.764  15.127  1.00 23.05 LIG-0.06  A 
ATOM     44  CD2 PHE P   4     -20.525  21.508  14.529  1.00 26.81 LIG 0.01  A 
ATOM     45  CE2 PHE P   4     -21.378  20.455  14.901  1.00 20.39 LIG 0.00  A 
ATOM     46  CZ  PHE P   4     -22.347  20.670  15.886  1.00 15.29 LIG 0.00  A 
ATOM     47  CE1 PHE P   4     -22.448  21.930  16.488  1.00 22.67 LIG 0.00  A 
ATOM     48  CD1 PHE P   4     -21.594  22.969  16.102  1.00 22.68 LIG 0.01  A 
ENDBRANCH 42 43
ENDBRANCH 41 42
BRANCH 41 49
ATOM     49  N   PHE P   4     -19.356  25.851  13.248  1.00 24.27 LIG-0.35  N 
ATOM     50 H    PHE P   4     -19.191  26.363  13.919  1.00 24.27 LIG 0.16  HD
ATOM     51  C   GLU P   3     -18.840  26.031  12.035  1.00 33.66 LIG 0.24  C 
ATOM     52 O    GLU P   3     -18.998  25.241  11.104  1.00 34.99 LIG-0.27  OA
BRANCH 51 53
ATOM     53  CA  GLU P   3     -18.007  27.286  11.850  1.00 34.60 LIG 0.18  C 
BRANCH 53 54
ATOM     54  CB  GLU P   3     -18.933  28.484  11.651  1.00 27.84 LIG 0.04  C 
BRANCH 54 55
ATOM     55  CG  GLU P   3     -18.208  29.822  11.593  1.00 43.05 LIG 0.12  C 
BRANCH 55 56
ATOM     56  CD  GLU P   3     -18.735  30.805  12.615  1.00 49.21 LIG 0.17  C 
ATOM     57 OE1  GLU P   3     -18.311  30.721  13.788  1.00 52.28 LIG-0.65  OA
ATOM     58 OE2  GLU P   3     -19.570  31.659  12.247  1.00 52.44 LIG-0.65  OA
ENDBRANCH 55 56
ENDBRANCH 54 55
ENDBRANCH 53 54
BRANCH 53 59
ATOM     59  N   GLU P   3     -17.080  27.154  10.733  1.00 36.80 LIG-0.35  N 
ATOM     60 H    GLU P   3     -17.347  27.525  10.005  1.00 36.80 LIG 0.16  HD
ATOM     61  C   ALA P   2     -15.925  26.509  10.858  1.00 41.96 LIG 0.26  C 
ATOM     62 O    ALA P   2     -15.591  25.943  11.898  1.00 34.80 LIG-0.27  OA
BRANCH 61 63
ATOM     63  CA  ALA P   2     -15.014  26.498   9.621  1.00 47.40 LIG 0.40  C 
ATOM     64  CB  ALA P   2     -14.696  25.072   9.203  1.00 40.76 LIG 0.06  C 
ATOM     65  N   ALA P   2     -13.778  27.257   9.816  1.00 49.60 LIG 0.61  N 
ENDBRANCH 61 63
ENDBRANCH 53 59
ENDBRANCH 51 53
ENDBRANCH 41 49
ENDBRANCH 39 41
ENDBRANCH 1 37
TORSDOF 24
ENDMDL
MODEL 38
USER: ADFR SOLUTION from run 156
USER: SCORE 18.335304 LL:  -5.347 LR: -15.203 RR:   0.000 FEB:  -8.043
USER: RMSD 9.855118
USER: SEED 155
USER: STATUS no improvement in best in 8 clusters for 5 generations
USER: GENES 26
USER: genes 0 Translation |==|  0.59924 0.43975 0.49395
USER: genes 1 Rotation |==|  0.95856 0.61678 0.65255 0.55305
USER: genes 2 Torsion [C]-CA--CB-[CG] |==|  0.52311
USER: genes 3 Torsion [CA]-CB--CG-[CD] |==|  0.57874
USER: genes 4 Torsion [CB]-CG--CD-[NE] |==|  0.34553
USER: genes 5 Torsion [CG]-CD--NE-[CZ] |==|  0.51897
USER: genes 6 Torsion [N]-CA--C-[N] |==|  0.02165
USER: genes 7 Torsion [C]-N--CA-[C] |==|  0.67344
USER: genes 8 Torsion [N]-CA--C-[N] |==|  0.41377
USER: genes 9 Torsion [C]-N--CA-[CB] |==|  0.44615
USER: genes 10 Torsion [N]-CA--C-[OXT] |==|  0.29868
USER: genes 11 Torsion [N]-CA--CB-[CG] |==|  0.66575
USER: genes 12 Torsion [CA]-CB--CG-[OD2] |==|  0.77579
USER: genes 13 Torsion [N]-CA--CB-[CG] |==|  0.84538
USER: genes 14 Torsion [CA]-CB--CG-[ND1] |==|  0.88137
USER: genes 15 Torsion [CB]-CA--N-[C] |==|  0.82651
USER: genes 16 Torsion [N]-C--CA-[N] |==|  0.15448
USER: genes 17 Torsion [C]-CA--CB-[CG] |==|  0.33437
USER: genes 18 Torsion [CA]-CB--CG-[CD2] |==|  0.42643
USER: genes 19 Torsion [C]-CA--N-[C] |==|  0.49514
USER: genes 20 Torsion [N]-C--CA-[N] |==|  0.15799
USER: genes 21 Torsion [C]-CA--CB-[CG] |==|  0.46356
USER: genes 22 Torsion [CA]-CB--CG-[CD] |==|  0.74101
USER: genes 23 Torsion [CB]-CG--CD-[OE1] |==|  0.20340
USER: genes 24 Torsion [C]-CA--N-[C] |==|  0.14886
USER: genes 25 Torsion [N]-C--CA-[N] |==|  0.98573
ROOT
ATOM      1  CA  ARG P   5     -19.899  25.085  12.889  1.00 25.78 LIG 0.18  C 
ENDROOT
BRANCH 1 2
ATOM      2  CB  ARG P   5     -21.262  25.777  13.066  1.00 22.44 LIG 0.04  C 
BRANCH 2 3
ATOM      3  CG  ARG P   5     -21.342  26.680  14.296  1.00 26.51 LIG 0.02  C 
BRANCH 3 4
ATOM      4  CD  ARG P   5     -22.772  26.788  14.841  1.00 28.41 LIG 0.14  C 
BRANCH 4 5
ATOM      5  NE  ARG P   5     -22.850  26.409  16.250  1.00 33.08 LIG-0.23  N 
ATOM      6  CZ  ARG P   5     -23.986  26.287  16.933  1.00 31.92 LIG 0.67  C 
ATOM      7  NH2 ARG P   5     -23.949  25.925  18.205  1.00 32.43 LIG-0.23  N 
ATOM      8  NH1 ARG P   5     -25.158  26.502  16.341  1.00 23.99 LIG-0.23  N 
ATOM      9 2HH2 ARG P   5     -24.680  25.845  18.650  1.00 32.43 LIG 0.17  HD
ATOM     10 1HH2 ARG P   5     -23.194  25.770  18.586  1.00 32.43 LIG 0.17  HD
ATOM     11 2HH1 ARG P   5     -25.888  26.421  16.789  1.00 23.99 LIG 0.17  HD
ATOM     12 1HH1 ARG P   5     -25.187  26.721  15.510  1.00 23.99 LIG 0.17  HD
ATOM     13 HE   ARG P   5     -22.113  26.256  16.666  1.00 33.08 LIG 0.18  HD
ENDBRANCH 4 5
ENDBRANCH 3 4
ENDBRANCH 2 3
ENDBRANCH 1 2
BRANCH 1 14
ATOM     14  C   ARG P   5     -19.835  24.371  11.539  1.00 22.77 LIG 0.24  C 
ATOM     15 O    ARG P   5     -20.737  23.603  11.189  1.00 23.41 LIG-0.27  OA
ATOM     16  N   HIS P   6     -18.760  24.610  10.793  1.00 20.21 LIG-0.35  N 
ATOM     17 H    HIS P   6     -18.115  25.126  11.032  1.00 20.21 LIG 0.16  HD
BRANCH 16 18
ATOM     18  CA  HIS P   6     -18.587  23.998   9.474  1.00 24.32 LIG 0.18  C 
BRANCH 18 19
ATOM     19  C   HIS P   6     -17.365  23.076   9.370  1.00 31.11 LIG 0.24  C 
ATOM     20  N   ASP P   7     -17.462  22.049   8.532  1.00 28.94 LIG-0.34  N 
ATOM     21 H    ASP P   7     -18.199  21.780   8.178  1.00 28.94 LIG 0.16  HD
ATOM     22 O    HIS P   6     -16.349  23.294  10.041  1.00 27.73 LIG-0.27  OA
BRANCH 20 23
ATOM     23  CA  ASP P   7     -16.280  21.281   8.144  1.00 30.45 LIG 0.20  C 
BRANCH 23 24
ATOM     24  C   ASP P   7     -15.408  22.058   7.138  1.00 38.41 LIG 0.20  C 
ATOM     25 OXT  ASP P   7     -14.328  22.548   7.465  1.00 43.84 LIG-0.65  OA
ATOM     26 O    ASP P   7     -15.754  22.239   5.965  1.00 36.31 LIG-0.65  OA
ENDBRANCH 23 24
BRANCH 23 27
ATOM     27  CB  ASP P   7     -16.690  19.915   7.592  1.00 42.34 LIG 0.15  C 
BRANCH 27 28
ATOM     28  CG  ASP P   7     -16.102  18.755   8.394  1.00 55.06 LIG 0.17  C 
ATOM     29 OD2  ASP P   7     -14.920  18.423   8.164  1.00 62.01 LIG-0.65  OA
ATOM     30 OD1  ASP P   7     -16.814  18.174   9.248  1.00 52.19 LIG-0.65  OA
ENDBRANCH 27 28
ENDBRANCH 23 27
ENDBRANCH 20 23
ENDBRANCH 18 19
BRANCH 18 31
ATOM     31  CB  HIS P   6     -18.507  25.072   8.402  1.00 25.23 LIG 0.10  C 
BRANCH 31 32
ATOM     32  CG  HIS P   6     -19.678  25.999   8.390  1.00 20.03 LIG 0.06  A 
ATOM     33 ND1  HIS P   6     -20.974  25.555   8.534  1.00 23.24 LIG-0.24  NA
ATOM     34  CE1 HIS P   6     -21.799  26.585   8.470  1.00 27.69 LIG 0.23  A 
ATOM     35 NE2  HIS P   6     -21.083  27.681   8.280  1.00 30.02 LIG-0.25  NA
ATOM     36  CD2 HIS P   6     -19.753  27.341   8.229  1.00 26.95 LIG 0.14  A 
ENDBRANCH 31 32
ENDBRANCH 18 31
ENDBRANCH 16 18
ENDBRANCH 1 14
BRANCH 1 37
ATOM     37  N   ARG P   5     -18.816  26.050  13.006  1.00 23.27 LIG-0.35  N 
ATOM     38 H    ARG P   5     -18.278  25.909  13.662  1.00 23.27 LIG 0.16  HD
ATOM     39  C   PHE P   4     -18.701  27.057  12.147  1.00 23.02 LIG 0.24  C 
ATOM     40 O    PHE P   4     -19.476  27.231  11.203  1.00 27.32 LIG-0.27  OA
BRANCH 39 41
ATOM     41  CA  PHE P   4     -17.540  27.995  12.369  1.00 26.78 LIG 0.18  C 
BRANCH 41 42
ATOM     42  CB  PHE P   4     -17.473  29.037  11.249  1.00 27.56 LIG 0.07  C 
BRANCH 42 43
ATOM     43  CG  PHE P   4     -17.589  30.475  11.718  1.00 23.05 LIG-0.06  A 
ATOM     44  CD2 PHE P   4     -17.021  31.510  10.975  1.00 26.81 LIG 0.01  A 
ATOM     45  CE2 PHE P   4     -17.091  32.845  11.407  1.00 20.39 LIG 0.00  A 
ATOM     46  CZ  PHE P   4     -17.735  33.147  12.610  1.00 15.29 LIG 0.00  A 
ATOM     47  CE1 PHE P   4     -18.305  32.112  13.364  1.00 22.67 LIG 0.00  A 
ATOM     48  CD1 PHE P   4     -18.221  30.788  12.921  1.00 22.68 LIG 0.01  A 
ENDBRANCH 42 43
ENDBRANCH 41 42
BRANCH 41 49
ATOM     49  N   PHE P   4     -16.333  27.181  12.377  1.00 24.27 LIG-0.35  N 
ATOM     50 H    PHE P   4     -16.474  26.337  12.284  1.00 24.27 LIG 0.16  HD
ATOM     51  C   GLU P   3     -15.126  27.719  12.518  1.00 33.66 LIG 0.24  C 
ATOM     52 O    GLU P   3     -14.920  28.933  12.550  1.00 34.99 LIG-0.27  OA
BRANCH 51 53
ATOM     53  CA  GLU P   3     -13.973  26.738  12.623  1.00 34.60 LIG 0.18  C 
BRANCH 53 54
ATOM     54  CB  GLU P   3     -12.663  27.509  12.778  1.00 27.84 LIG 0.04  C 
BRANCH 54 55
ATOM     55  CG  GLU P   3     -11.485  26.645  13.206  1.00 43.05 LIG 0.12  C 
BRANCH 55 56
ATOM     56  CD  GLU P   3     -11.299  26.631  14.708  1.00 49.21 LIG 0.17  C 
ATOM     57 OE1  GLU P   3     -12.116  25.983  15.398  1.00 52.28 LIG-0.65  OA
ATOM     58 OE2  GLU P   3     -10.338  27.264  15.196  1.00 52.44 LIG-0.65  OA
ENDBRANCH 55 56
ENDBRANCH 54 55
ENDBRANCH 53 54
BRANCH 53 59
ATOM     59  N   GLU P   3     -13.918  25.849  11.469  1.00 36.80 LIG-0.35  N 
ATOM     60 H    GLU P   3     -13.907  25.012  11.666  1.00 36.80 LIG 0.16  HD
ATOM     61  C   ALA P   2     -13.889  26.319  10.226  1.00 41.96 LIG 0.26  C 
ATOM     62 O    ALA P   2     -13.853  27.523   9.975  1.00 34.80 LIG-0.27  OA
BRANCH 61 63
ATOM     63  CA  ALA P   2     -13.896  25.273   9.102  1.00 47.40 LIG 0.40  C 
ATOM     64  CB  ALA P   2     -15.123  25.442   8.222  1.00 40.76 LIG 0.06  C 
ATOM     65  N   ALA P   2     -13.814  23.899   9.600  1.00 49.60 LIG 0.61  N 
ENDBRANCH 61 63
ENDBRANCH 53 59
ENDBRANCH 51 53
ENDBRANCH 41 49
ENDBRANCH 39 41
ENDBRANCH 1 37
TORSDOF 24
ENDMDL
MODEL 39
USER: ADFR SOLUTION from run 58
USER: SCORE 19.330489 LL:  -6.153 LR: -15.187 RR:   0.000 FEB:  -8.028
USER: RMSD 6.752930
USER: SEED 57
USER: STATUS no improvement in best in 9 clusters for 5 generations
USER: GENES 26
USER: genes 0 Translation |==|  0.45925 0.52361 0.44726
USER: genes 1 Rotation |==|  0.07833 0.61948 0.27835 0.59378
USER: genes 2 Torsion [C]-CA--CB-[CG] |==|  0.42161
USER: genes 3 Torsion [CA]-CB--CG-[CD] |==|  0.38126
USER: genes 4 Torsion [CB]-CG--CD-[NE] |==|  0.61982
USER: genes 5 Torsion [CG]-CD--NE-[CZ] |==|  0.23953
USER: genes 6 Torsion [N]-CA--C-[N] |==|  0.86790
USER: genes 7 Torsion [C]-N--CA-[C] |==|  0.67682
USER: genes 8 Torsion [N]-CA--C-[N] |==|  0.20310
USER: genes 9 Torsion [C]-N--CA-[CB] |==|  0.50535
USER: genes 10 Torsion [N]-CA--C-[OXT] |==|  0.87413
USER: genes 11 Torsion [N]-CA--CB-[CG] |==|  0.90868
USER: genes 12 Torsion [CA]-CB--CG-[OD2] |==|  0.66638
USER: genes 13 Torsion [N]-CA--CB-[CG] |==|  0.82595
USER: genes 14 Torsion [CA]-CB--CG-[ND1] |==|  0.43229
USER: genes 15 Torsion [CB]-CA--N-[C] |==|  0.40552
USER: genes 16 Torsion [N]-C--CA-[N] |==|  0.87832
USER: genes 17 Torsion [C]-CA--CB-[CG] |==|  0.20599
USER: genes 18 Torsion [CA]-CB--CG-[CD2] |==|  0.14593
USER: genes 19 Torsion [C]-CA--N-[C] |==|  0.80923
USER: genes 20 Torsion [N]-C--CA-[N] |==|  0.46667
USER: genes 21 Torsion [C]-CA--CB-[CG] |==|  0.39547
USER: genes 22 Torsion [CA]-CB--CG-[CD] |==|  0.40191
USER: genes 23 Torsion [CB]-CG--CD-[OE1] |==|  0.07181
USER: genes 24 Torsion [C]-CA--N-[C] |==|  0.80824
USER: genes 25 Torsion [N]-C--CA-[N] |==|  0.05594
ROOT
ATOM      1  CA  ARG P   5     -23.469  26.783  12.049  1.00 25.78 LIG 0.18  C 
ENDROOT
BRANCH 1 2
ATOM      2  CB  ARG P   5     -24.327  27.825  12.788  1.00 22.44 LIG 0.04  C 
BRANCH 2 3
ATOM      3  CG  ARG P   5     -25.326  27.217  13.772  1.00 26.51 LIG 0.02  C 
BRANCH 3 4
ATOM      4  CD  ARG P   5     -25.376  27.991  15.095  1.00 28.41 LIG 0.14  C 
BRANCH 4 5
ATOM      5  NE  ARG P   5     -25.411  27.097  16.250  1.00 33.08 LIG-0.23  N 
ATOM      6  CZ  ARG P   5     -24.331  26.586  16.838  1.00 31.92 LIG 0.67  C 
ATOM      7  NH2 ARG P   5     -24.470  25.796  17.890  1.00 32.43 LIG-0.23  N 
ATOM      8  NH1 ARG P   5     -23.113  26.885  16.392  1.00 23.99 LIG-0.23  N 
ATOM      9 2HH2 ARG P   5     -23.775  25.464  18.273  1.00 32.43 LIG 0.17  HD
ATOM     10 1HH2 ARG P   5     -25.255  25.615  18.190  1.00 32.43 LIG 0.17  HD
ATOM     11 2HH1 ARG P   5     -22.420  26.551  16.777  1.00 23.99 LIG 0.17  HD
ATOM     12 1HH1 ARG P   5     -23.018  27.411  15.719  1.00 23.99 LIG 0.17  HD
ATOM     13 HE   ARG P   5     -26.180  26.886  16.572  1.00 33.08 LIG 0.18  HD
ENDBRANCH 4 5
ENDBRANCH 3 4
ENDBRANCH 2 3
ENDBRANCH 1 2
BRANCH 1 14
ATOM     14  C   ARG P   5     -23.045  27.316  10.680  1.00 22.77 LIG 0.24  C 
ATOM     15 O    ARG P   5     -23.571  26.888   9.648  1.00 23.41 LIG-0.27  OA
ATOM     16  N   HIS P   6     -22.082  28.233  10.673  1.00 20.21 LIG-0.35  N 
ATOM     17 H    HIS P   6     -21.693  28.525  11.382  1.00 20.21 LIG 0.16  HD
BRANCH 16 18
ATOM     18  CA  HIS P   6     -21.597  28.832   9.428  1.00 24.32 LIG 0.18  C 
BRANCH 18 19
ATOM     19  C   HIS P   6     -20.125  28.526   9.121  1.00 31.11 LIG 0.24  C 
ATOM     20  N   ASP P   7     -19.843  27.290   8.723  1.00 28.94 LIG-0.34  N 
ATOM     21 H    ASP P   7     -20.386  26.626   8.780  1.00 28.94 LIG 0.16  HD
ATOM     22 O    HIS P   6     -19.259  29.400   9.245  1.00 27.73 LIG-0.27  OA
BRANCH 20 23
ATOM     23  CA  ASP P   7     -18.542  26.968   8.138  1.00 30.45 LIG 0.20  C 
BRANCH 23 24
ATOM     24  C   ASP P   7     -18.208  27.899   6.956  1.00 38.41 LIG 0.20  C 
ATOM     25 OXT  ASP P   7     -19.040  28.160   6.087  1.00 43.84 LIG-0.65  OA
ATOM     26 O    ASP P   7     -17.094  28.415   6.814  1.00 36.31 LIG-0.65  OA
ENDBRANCH 23 24
BRANCH 23 27
ATOM     27  CB  ASP P   7     -18.495  25.497   7.724  1.00 42.34 LIG 0.15  C 
BRANCH 27 28
ATOM     28  CG  ASP P   7     -19.322  24.599   8.643  1.00 55.06 LIG 0.17  C 
ATOM     29 OD2  ASP P   7     -18.733  23.681   9.251  1.00 62.01 LIG-0.65  OA
ATOM     30 OD1  ASP P   7     -20.554  24.805   8.758  1.00 52.19 LIG-0.65  OA
ENDBRANCH 27 28
ENDBRANCH 23 27
ENDBRANCH 20 23
ENDBRANCH 18 19
BRANCH 18 31
ATOM     31  CB  HIS P   6     -21.812  30.335   9.448  1.00 25.23 LIG 0.10  C 
BRANCH 31 32
ATOM     32  CG  HIS P   6     -23.249  30.737   9.530  1.00 20.03 LIG 0.06  A 
ATOM     33 ND1  HIS P   6     -23.649  31.953  10.039  1.00 23.24 LIG-0.24  NA
ATOM     34  CE1 HIS P   6     -24.967  32.030  10.001  1.00 27.69 LIG 0.23  A 
ATOM     35 NE2  HIS P   6     -25.437  30.902   9.494  1.00 30.02 LIG-0.25  NA
ATOM     36  CD2 HIS P   6     -24.380  30.078   9.189  1.00 26.95 LIG 0.14  A 
ENDBRANCH 31 32
ENDBRANCH 18 31
ENDBRANCH 16 18
ENDBRANCH 1 14
BRANCH 1 37
ATOM     37  N   ARG P   5     -22.300  26.428  12.840  1.00 23.27 LIG-0.35  N 
ATOM     38 H    ARG P   5     -21.975  27.070  13.310  1.00 23.27 LIG 0.16  HD
ATOM     39  C   PHE P   4     -21.803  25.196  12.812  1.00 23.02 LIG 0.24  C 
ATOM     40 O    PHE P   4     -22.296  24.285  12.143  1.00 27.32 LIG-0.27  OA
BRANCH 39 41
ATOM     41  CA  PHE P   4     -20.589  24.946  13.672  1.00 26.78 LIG 0.18  C 
BRANCH 41 42
ATOM     42  CB  PHE P   4     -20.993  24.823  15.144  1.00 27.56 LIG 0.07  C 
BRANCH 42 43
ATOM     43  CG  PHE P   4     -21.681  23.518  15.502  1.00 23.05 LIG-0.06  A 
ATOM     44  CD2 PHE P   4     -21.095  22.296  15.175  1.00 26.81 LIG 0.01  A 
ATOM     45  CE2 PHE P   4     -21.729  21.077  15.471  1.00 20.39 LIG 0.00  A 
ATOM     46  CZ  PHE P   4     -22.977  21.086  16.100  1.00 15.29 LIG 0.00  A 
ATOM     47  CE1 PHE P   4     -23.574  22.310  16.429  1.00 22.67 LIG 0.00  A 
ATOM     48  CD1 PHE P   4     -22.930  23.514  16.122  1.00 22.68 LIG 0.01  A 
ENDBRANCH 42 43
ENDBRANCH 41 42
BRANCH 41 49
ATOM     49  N   PHE P   4     -19.696  26.080  13.484  1.00 24.27 LIG-0.35  N 
ATOM     50 H    PHE P   4     -19.614  26.585  14.176  1.00 24.27 LIG 0.16  HD
ATOM     51  C   GLU P   3     -19.070  26.295  12.331  1.00 33.66 LIG 0.24  C 
ATOM     52 O    GLU P   3     -19.109  25.517  11.378  1.00 34.99 LIG-0.27  OA
BRANCH 51 53
ATOM     53  CA  GLU P   3     -18.263  27.578  12.247  1.00 34.60 LIG 0.18  C 
BRANCH 53 54
ATOM     54  CB  GLU P   3     -19.212  28.775  12.238  1.00 27.84 LIG 0.04  C 
BRANCH 54 55
ATOM     55  CG  GLU P   3     -18.699  29.976  13.021  1.00 43.05 LIG 0.12  C 
BRANCH 55 56
ATOM     56  CD  GLU P   3     -19.093  31.289  12.380  1.00 49.21 LIG 0.17  C 
ATOM     57 OE1  GLU P   3     -20.118  31.313  11.666  1.00 52.28 LIG-0.65  OA
ATOM     58 OE2  GLU P   3     -18.381  32.294  12.591  1.00 52.44 LIG-0.65  OA
ENDBRANCH 55 56
ENDBRANCH 54 55
ENDBRANCH 53 54
BRANCH 53 59
ATOM     59  N   GLU P   3     -17.399  27.592  11.074  1.00 36.80 LIG-0.35  N 
ATOM     60 H    GLU P   3     -17.629  28.159  10.470  1.00 36.80 LIG 0.16  HD
ATOM     61  C   ALA P   2     -16.349  26.783  10.970  1.00 41.96 LIG 0.26  C 
ATOM     62 O    ALA P   2     -16.072  25.944  11.826  1.00 34.80 LIG-0.27  OA
BRANCH 61 63
ATOM     63  CA  ALA P   2     -15.486  26.945   9.709  1.00 47.40 LIG 0.40  C 
ATOM     64  CB  ALA P   2     -14.019  26.717  10.032  1.00 40.76 LIG 0.06  C 
ATOM     65  N   ALA P   2     -15.667  28.242   9.056  1.00 49.60 LIG 0.61  N 
ENDBRANCH 61 63
ENDBRANCH 53 59
ENDBRANCH 51 53
ENDBRANCH 41 49
ENDBRANCH 39 41
ENDBRANCH 1 37
TORSDOF 24
ENDMDL
MODEL 40
USER: ADFR SOLUTION from run 157
USER: SCORE 17.451767 LL:  -4.744 LR: -15.194 RR:   0.000 FEB:  -8.035
USER: RMSD 9.124702
USER: SEED 156
USER: STATUS no improvement in best in 10 clusters for 5 generations
USER: GENES 26
USER: genes 0 Translation |==|  0.55442 0.49738 0.54216
USER: genes 1 Rotation |==|  0.50638 0.02100 0.37809 0.57519
USER: genes 2 Torsion [C]-CA--CB-[CG] |==|  0.68593
USER: genes 3 Torsion [CA]-CB--CG-[CD] |==|  0.45985
USER: genes 4 Torsion [CB]-CG--CD-[NE] |==|  0.28377
USER: genes 5 Torsion [CG]-CD--NE-[CZ] |==|  0.21107
USER: genes 6 Torsion [N]-CA--C-[N] |==|  0.52832
USER: genes 7 Torsion [C]-N--CA-[C] |==|  0.71461
USER: genes 8 Torsion [N]-CA--C-[N] |==|  0.95654
USER: genes 9 Torsion [C]-N--CA-[CB] |==|  0.30211
USER: genes 10 Torsion [N]-CA--C-[OXT] |==|  0.44472
USER: genes 11 Torsion [N]-CA--CB-[CG] |==|  0.92207
USER: genes 12 Torsion [CA]-CB--CG-[OD2] |==|  0.68179
USER: genes 13 Torsion [N]-CA--CB-[CG] |==|  0.74504
USER: genes 14 Torsion [CA]-CB--CG-[ND1] |==|  0.32514
USER: genes 15 Torsion [CB]-CA--N-[C] |==|  0.36957
USER: genes 16 Torsion [N]-C--CA-[N] |==|  0.97647
USER: genes 17 Torsion [C]-CA--CB-[CG] |==|  0.92059
USER: genes 18 Torsion [CA]-CB--CG-[CD2] |==|  0.26342
USER: genes 19 Torsion [C]-CA--N-[C] |==|  0.63335
USER: genes 20 Torsion [N]-C--CA-[N] |==|  0.36077
USER: genes 21 Torsion [C]-CA--CB-[CG] |==|  0.14679
USER: genes 22 Torsion [CA]-CB--CG-[CD] |==|  0.20494
USER: genes 23 Torsion [CB]-CG--CD-[OE1] |==|  0.82256
USER: genes 24 Torsion [C]-CA--N-[C] |==|  0.60671
USER: genes 25 Torsion [N]-C--CA-[N] |==|  0.39621
ROOT
ATOM      1  CA  ARG P   5     -21.042  26.252  13.757  1.00 25.78 LIG 0.18  C 
ENDROOT
BRANCH 1 2
ATOM      2  CB  ARG P   5     -20.292  24.924  13.960  1.00 22.44 LIG 0.04  C 
BRANCH 2 3
ATOM      3  CG  ARG P   5     -21.123  23.686  13.625  1.00 26.51 LIG 0.02  C 
BRANCH 3 4
ATOM      4  CD  ARG P   5     -20.258  22.427  13.496  1.00 28.41 LIG 0.14  C 
BRANCH 4 5
ATOM      5  NE  ARG P   5     -20.341  21.582  14.684  1.00 33.08 LIG-0.23  N 
ATOM      6  CZ  ARG P   5     -21.377  20.797  14.977  1.00 31.92 LIG 0.67  C 
ATOM      7  NH2 ARG P   5     -21.348  20.058  16.073  1.00 32.43 LIG-0.23  N 
ATOM      8  NH1 ARG P   5     -22.428  20.732  14.163  1.00 23.99 LIG-0.23  N 
ATOM      9 2HH2 ARG P   5     -22.014  19.550  16.266  1.00 32.43 LIG 0.17  HD
ATOM     10 1HH2 ARG P   5     -20.663  20.086  16.592  1.00 32.43 LIG 0.17  HD
ATOM     11 2HH1 ARG P   5     -23.093  20.223  14.359  1.00 23.99 LIG 0.17  HD
ATOM     12 1HH1 ARG P   5     -22.442  21.199  13.441  1.00 23.99 LIG 0.17  HD
ATOM     13 HE   ARG P   5     -19.678  21.591  15.231  1.00 33.08 LIG 0.18  HD
ENDBRANCH 4 5
ENDBRANCH 3 4
ENDBRANCH 2 3
ENDBRANCH 1 2
BRANCH 1 14
ATOM     14  C   ARG P   5     -20.421  27.045  12.608  1.00 22.77 LIG 0.24  C 
ATOM     15 O    ARG P   5     -21.131  27.533  11.723  1.00 23.41 LIG-0.27  OA
ATOM     16  N   HIS P   6     -19.095  27.156  12.613  1.00 20.21 LIG-0.35  N 
ATOM     17 H    HIS P   6     -18.587  26.806  13.211  1.00 20.21 LIG 0.16  HD
BRANCH 16 18
ATOM     18  CA  HIS P   6     -18.381  27.903  11.575  1.00 24.32 LIG 0.18  C 
BRANCH 18 19
ATOM     19  C   HIS P   6     -17.709  27.015  10.519  1.00 31.11 LIG 0.24  C 
ATOM     20  N   ASP P   7     -17.570  25.729  10.822  1.00 28.94 LIG-0.34  N 
ATOM     21 H    ASP P   7     -17.678  25.402  11.610  1.00 28.94 LIG 0.16  HD
ATOM     22 O    HIS P   6     -17.324  27.491   9.445  1.00 27.73 LIG-0.27  OA
BRANCH 20 23
ATOM     23  CA  ASP P   7     -17.211  24.750   9.797  1.00 30.45 LIG 0.20  C 
BRANCH 23 24
ATOM     24  C   ASP P   7     -18.206  23.574   9.766  1.00 38.41 LIG 0.20  C 
ATOM     25 OXT  ASP P   7     -18.312  22.844   8.781  1.00 43.84 LIG-0.65  OA
ATOM     26 O    ASP P   7     -18.953  23.314  10.716  1.00 36.31 LIG-0.65  OA
ENDBRANCH 23 24
BRANCH 23 27
ATOM     27  CB  ASP P   7     -15.776  24.264  10.006  1.00 42.34 LIG 0.15  C 
BRANCH 27 28
ATOM     28  CG  ASP P   7     -14.894  25.307  10.691  1.00 55.06 LIG 0.17  C 
ATOM     29 OD2  ASP P   7     -13.944  25.790  10.040  1.00 62.01 LIG-0.65  OA
ATOM     30 OD1  ASP P   7     -15.145  25.643  11.873  1.00 52.19 LIG-0.65  OA
ENDBRANCH 27 28
ENDBRANCH 23 27
ENDBRANCH 20 23
ENDBRANCH 18 19
BRANCH 18 31
ATOM     31  CB  HIS P   6     -17.345  28.818  12.204  1.00 25.23 LIG 0.10  C 
BRANCH 31 32
ATOM     32  CG  HIS P   6     -17.852  30.193  12.493  1.00 20.03 LIG 0.06  A 
ATOM     33 ND1  HIS P   6     -17.930  30.699  13.772  1.00 23.24 LIG-0.24  NA
ATOM     34  CE1 HIS P   6     -18.425  31.923  13.729  1.00 27.69 LIG 0.23  A 
ATOM     35 NE2  HIS P   6     -18.681  32.225  12.467  1.00 30.02 LIG-0.25  NA
ATOM     36  CD2 HIS P   6     -18.329  31.159  11.674  1.00 26.95 LIG 0.14  A 
ENDBRANCH 31 32
ENDBRANCH 18 31
ENDBRANCH 16 18
ENDBRANCH 1 14
BRANCH 1 37
ATOM     37  N   ARG P   5     -22.454  26.008  13.500  1.00 23.27 LIG-0.35  N 
ATOM     38 H    ARG P   5     -22.613  25.397  12.917  1.00 23.27 LIG 0.16  HD
ATOM     39  C   PHE P   4     -23.395  26.696  14.138  1.00 23.02 LIG 0.24  C 
ATOM     40 O    PHE P   4     -23.144  27.557  14.984  1.00 27.32 LIG-0.27  OA
BRANCH 39 41
ATOM     41  CA  PHE P   4     -24.823  26.357  13.789  1.00 26.78 LIG 0.18  C 
BRANCH 41 42
ATOM     42  CB  PHE P   4     -25.517  25.682  14.974  1.00 27.56 LIG 0.07  C 
BRANCH 42 43
ATOM     43  CG  PHE P   4     -24.589  24.904  15.890  1.00 23.05 LIG-0.06  A 
ATOM     44  CD2 PHE P   4     -24.063  25.499  17.035  1.00 26.81 LIG 0.01  A 
ATOM     45  CE2 PHE P   4     -23.179  24.807  17.880  1.00 20.39 LIG 0.00  A 
ATOM     46  CZ  PHE P   4     -22.810  23.497  17.565  1.00 15.29 LIG 0.00  A 
ATOM     47  CE1 PHE P   4     -23.332  22.893  16.413  1.00 22.67 LIG 0.00  A 
ATOM     48  CD1 PHE P   4     -24.207  23.599  15.581  1.00 22.68 LIG 0.01  A 
ENDBRANCH 42 43
ENDBRANCH 41 42
BRANCH 41 49
ATOM     49  N   PHE P   4     -24.778  25.455  12.647  1.00 24.27 LIG-0.35  N 
ATOM     50 H    PHE P   4     -24.223  24.803  12.732  1.00 24.27 LIG 0.16  HD
ATOM     51  C   GLU P   3     -25.540  25.644  11.574  1.00 33.66 LIG 0.24  C 
ATOM     52 O    GLU P   3     -26.403  26.518  11.497  1.00 34.99 LIG-0.27  OA
BRANCH 51 53
ATOM     53  CA  GLU P   3     -25.301  24.690  10.417  1.00 34.60 LIG 0.18  C 
BRANCH 53 54
ATOM     54  CB  GLU P   3     -24.581  25.429   9.291  1.00 27.84 LIG 0.04  C 
BRANCH 54 55
ATOM     55  CG  GLU P   3     -23.313  26.145   9.734  1.00 43.05 LIG 0.12  C 
BRANCH 55 56
ATOM     56  CD  GLU P   3     -22.175  25.184  10.000  1.00 49.21 LIG 0.17  C 
ATOM     57 OE1  GLU P   3     -22.304  24.358  10.930  1.00 52.28 LIG-0.65  OA
ATOM     58 OE2  GLU P   3     -21.155  25.252   9.281  1.00 52.44 LIG-0.65  OA
ENDBRANCH 55 56
ENDBRANCH 54 55
ENDBRANCH 53 54
BRANCH 53 59
ATOM     59  N   GLU P   3     -26.547  24.103   9.940  1.00 36.80 LIG-0.35  N 
ATOM     60 H    GLU P   3     -27.214  24.645   9.934  1.00 36.80 LIG 0.16  HD
ATOM     61  C   ALA P   2     -26.618  22.833   9.554  1.00 41.96 LIG 0.26  C 
ATOM     62 O    ALA P   2     -25.658  22.066   9.623  1.00 34.80 LIG-0.27  OA
BRANCH 61 63
ATOM     63  CA  ALA P   2     -27.976  22.360   9.015  1.00 47.40 LIG 0.40  C 
ATOM     64  CB  ALA P   2     -28.808  21.744  10.127  1.00 40.76 LIG 0.06  C 
ATOM     65  N   ALA P   2     -27.851  21.423   7.898  1.00 49.60 LIG 0.61  N 
ENDBRANCH 61 63
ENDBRANCH 53 59
ENDBRANCH 51 53
ENDBRANCH 41 49
ENDBRANCH 39 41
ENDBRANCH 1 37
TORSDOF 24
ENDMDL
MODEL 41
USER: ADFR SOLUTION from run 75
USER: SCORE 19.538907 LL:  -5.497 LR: -15.177 RR:   0.000 FEB:  -8.018
USER: RMSD 8.565884
USER: SEED 74
USER: STATUS no improvement in best in 5 clusters for 5 generations
USER: GENES 26
USER: genes 0 Translation |==|  0.55863 0.49937 0.59170
USER: genes 1 Rotation |==|  0.34482 0.08891 0.43853 0.73054
USER: genes 2 Torsion [C]-CA--CB-[CG] |==|  0.11976
USER: genes 3 Torsion [CA]-CB--CG-[CD] |==|  0.73260
USER: genes 4 Torsion [CB]-CG--CD-[NE] |==|  0.85115
USER: genes 5 Torsion [CG]-CD--NE-[CZ] |==|  0.82326
USER: genes 6 Torsion [N]-CA--C-[N] |==|  0.32560
USER: genes 7 Torsion [C]-N--CA-[C] |==|  0.73889
USER: genes 8 Torsion [N]-CA--C-[N] |==|  0.92842
USER: genes 9 Torsion [C]-N--CA-[CB] |==|  0.46267
USER: genes 10 Torsion [N]-CA--C-[OXT] |==|  0.61592
USER: genes 11 Torsion [N]-CA--CB-[CG] |==|  0.96789
USER: genes 12 Torsion [CA]-CB--CG-[OD2] |==|  0.16402
USER: genes 13 Torsion [N]-CA--CB-[CG] |==|  0.07303
USER: genes 14 Torsion [CA]-CB--CG-[ND1] |==|  0.61970
USER: genes 15 Torsion [CB]-CA--N-[C] |==|  0.83567
USER: genes 16 Torsion [N]-C--CA-[N] |==|  0.37676
USER: genes 17 Torsion [C]-CA--CB-[CG] |==|  0.97610
USER: genes 18 Torsion [CA]-CB--CG-[CD2] |==|  0.75769
USER: genes 19 Torsion [C]-CA--N-[C] |==|  0.78088
USER: genes 20 Torsion [N]-C--CA-[N] |==|  0.81830
USER: genes 21 Torsion [C]-CA--CB-[CG] |==|  0.20731
USER: genes 22 Torsion [CA]-CB--CG-[CD] |==|  0.18694
USER: genes 23 Torsion [CB]-CG--CD-[OE1] |==|  0.91227
USER: genes 24 Torsion [C]-CA--N-[C] |==|  0.84252
USER: genes 25 Torsion [N]-C--CA-[N] |==|  0.35925
ROOT
ATOM      1  CA  ARG P   5     -20.935  26.292  14.649  1.00 25.78 LIG 0.18  C 
ENDROOT
BRANCH 1 2
ATOM      2  CB  ARG P   5     -20.694  24.785  14.842  1.00 22.44 LIG 0.04  C 
BRANCH 2 3
ATOM      3  CG  ARG P   5     -19.805  24.158  13.769  1.00 26.51 LIG 0.02  C 
BRANCH 3 4
ATOM      4  CD  ARG P   5     -20.625  23.500  12.652  1.00 28.41 LIG 0.14  C 
BRANCH 4 5
ATOM      5  NE  ARG P   5     -21.594  22.541  13.178  1.00 33.08 LIG-0.23  N 
ATOM      6  CZ  ARG P   5     -21.270  21.428  13.832  1.00 31.92 LIG 0.67  C 
ATOM      7  NH2 ARG P   5     -22.226  20.631  14.281  1.00 32.43 LIG-0.23  N 
ATOM      8  NH1 ARG P   5     -19.994  21.123  14.060  1.00 23.99 LIG-0.23  N 
ATOM      9 2HH2 ARG P   5     -22.022  19.911  14.704  1.00 32.43 LIG 0.17  HD
ATOM     10 1HH2 ARG P   5     -23.051  20.834  14.150  1.00 32.43 LIG 0.17  HD
ATOM     11 2HH1 ARG P   5     -19.793  20.402  14.483  1.00 23.99 LIG 0.17  HD
ATOM     12 1HH1 ARG P   5     -19.372  21.647  13.784  1.00 23.99 LIG 0.17  HD
ATOM     13 HE   ARG P   5     -22.429  22.707  13.057  1.00 33.08 LIG 0.18  HD
ENDBRANCH 4 5
ENDBRANCH 3 4
ENDBRANCH 2 3
ENDBRANCH 1 2
BRANCH 1 14
ATOM     14  C   ARG P   5     -21.218  26.603  13.179  1.00 22.77 LIG 0.24  C 
ATOM     15 O    ARG P   5     -22.170  26.074  12.596  1.00 23.41 LIG-0.27  OA
ATOM     16  N   HIS P   6     -20.381  27.443  12.578  1.00 20.21 LIG-0.35  N 
ATOM     17 H    HIS P   6     -19.703  27.803  12.965  1.00 20.21 LIG 0.16  HD
BRANCH 16 18
ATOM     18  CA  HIS P   6     -20.552  27.831  11.177  1.00 24.32 LIG 0.18  C 
BRANCH 18 19
ATOM     19  C   HIS P   6     -19.747  26.975  10.190  1.00 31.11 LIG 0.24  C 
ATOM     20  N   ASP P   7     -18.651  26.393  10.662  1.00 28.94 LIG-0.34  N 
ATOM     21 H    ASP P   7     -18.283  26.588  11.415  1.00 28.94 LIG 0.16  HD
ATOM     22 O    HIS P   6     -20.118  26.845   9.017  1.00 27.73 LIG-0.27  OA
BRANCH 20 23
ATOM     23  CA  ASP P   7     -17.972  25.342   9.905  1.00 30.45 LIG 0.20  C 
BRANCH 23 24
ATOM     24  C   ASP P   7     -18.816  24.053   9.849  1.00 38.41 LIG 0.20  C 
ATOM     25 OXT  ASP P   7     -18.305  22.941   9.987  1.00 43.84 LIG-0.65  OA
ATOM     26 O    ASP P   7     -20.036  24.069   9.650  1.00 36.31 LIG-0.65  OA
ENDBRANCH 23 24
BRANCH 23 27
ATOM     27  CB  ASP P   7     -16.584  25.077  10.488  1.00 42.34 LIG 0.15  C 
BRANCH 27 28
ATOM     28  CG  ASP P   7     -16.157  26.141  11.499  1.00 55.06 LIG 0.17  C 
ATOM     29 OD2  ASP P   7     -16.874  26.314  12.506  1.00 62.01 LIG-0.65  OA
ATOM     30 OD1  ASP P   7     -15.112  26.803  11.290  1.00 52.19 LIG-0.65  OA
ENDBRANCH 27 28
ENDBRANCH 23 27
ENDBRANCH 20 23
ENDBRANCH 18 19
BRANCH 18 31
ATOM     31  CB  HIS P   6     -20.195  29.295  10.989  1.00 25.23 LIG 0.10  C 
BRANCH 31 32
ATOM     32  CG  HIS P   6     -19.220  29.812  11.996  1.00 20.03 LIG 0.06  A 
ATOM     33 ND1  HIS P   6     -19.364  31.040  12.604  1.00 23.24 LIG-0.24  NA
ATOM     34  CE1 HIS P   6     -18.355  31.239  13.432  1.00 27.69 LIG 0.23  A 
ATOM     35 NE2  HIS P   6     -17.555  30.187  13.375  1.00 30.02 LIG-0.25  NA
ATOM     36  CD2 HIS P   6     -18.077  29.279  12.485  1.00 26.95 LIG 0.14  A 
ENDBRANCH 31 32
ENDBRANCH 18 31
ENDBRANCH 16 18
ENDBRANCH 1 14
BRANCH 1 37
ATOM     37  N   ARG P   5     -22.037  26.746  15.485  1.00 23.27 LIG-0.35  N 
ATOM     38 H    ARG P   5     -21.831  27.363  16.047  1.00 23.27 LIG 0.16  HD
ATOM     39  C   PHE P   4     -23.251  26.223  15.360  1.00 23.02 LIG 0.24  C 
ATOM     40 O    PHE P   4     -23.528  25.350  14.534  1.00 27.32 LIG-0.27  OA
BRANCH 39 41
ATOM     41  CA  PHE P   4     -24.313  26.771  16.281  1.00 26.78 LIG 0.18  C 
BRANCH 41 42
ATOM     42  CB  PHE P   4     -24.606  25.777  17.409  1.00 27.56 LIG 0.07  C 
BRANCH 42 43
ATOM     43  CG  PHE P   4     -23.946  24.420  17.241  1.00 23.05 LIG-0.06  A 
ATOM     44  CD2 PHE P   4     -24.577  23.411  16.515  1.00 26.81 LIG 0.01  A 
ATOM     45  CE2 PHE P   4     -23.997  22.139  16.373  1.00 20.39 LIG 0.00  A 
ATOM     46  CZ  PHE P   4     -22.766  21.873  16.977  1.00 15.29 LIG 0.00  A 
ATOM     47  CE1 PHE P   4     -22.127  22.881  17.712  1.00 22.67 LIG 0.00  A 
ATOM     48  CD1 PHE P   4     -22.722  24.140  17.848  1.00 22.68 LIG 0.01  A 
ENDBRANCH 42 43
ENDBRANCH 41 42
BRANCH 41 49
ATOM     49  N   PHE P   4     -25.505  26.988  15.474  1.00 24.27 LIG-0.35  N 
ATOM     50 H    PHE P   4     -26.103  26.376  15.554  1.00 24.27 LIG 0.16  HD
ATOM     51  C   GLU P   3     -25.633  28.052  14.687  1.00 33.66 LIG 0.24  C 
ATOM     52 O    GLU P   3     -24.820  28.976  14.651  1.00 34.99 LIG-0.27  OA
BRANCH 51 53
ATOM     53  CA  GLU P   3     -26.878  28.085  13.819  1.00 34.60 LIG 0.18  C 
BRANCH 53 54
ATOM     54  CB  GLU P   3     -28.118  28.001  14.708  1.00 27.84 LIG 0.04  C 
BRANCH 54 55
ATOM     55  CG  GLU P   3     -28.430  29.290  15.455  1.00 43.05 LIG 0.12  C 
BRANCH 55 56
ATOM     56  CD  GLU P   3     -28.851  30.406  14.524  1.00 49.21 LIG 0.17  C 
ATOM     57 OE1  GLU P   3     -28.364  30.430  13.373  1.00 52.28 LIG-0.65  OA
ATOM     58 OE2  GLU P   3     -29.669  31.254  14.940  1.00 52.44 LIG-0.65  OA
ENDBRANCH 55 56
ENDBRANCH 54 55
ENDBRANCH 53 54
BRANCH 53 59
ATOM     59  N   GLU P   3     -26.872  27.013  12.832  1.00 36.80 LIG-0.35  N 
ATOM     60 H    GLU P   3     -27.557  26.494  12.868  1.00 36.80 LIG 0.16  HD
ATOM     61  C   ALA P   2     -25.878  26.870  11.961  1.00 41.96 LIG 0.26  C 
ATOM     62 O    ALA P   2     -24.885  27.596  11.966  1.00 34.80 LIG-0.27  OA
BRANCH 61 63
ATOM     63  CA  ALA P   2     -26.028  25.737  10.936  1.00 47.40 LIG 0.40  C 
ATOM     64  CB  ALA P   2     -25.096  24.585  11.272  1.00 40.76 LIG 0.06  C 
ATOM     65  N   ALA P   2     -25.809  26.180   9.559  1.00 49.60 LIG 0.61  N 
ENDBRANCH 61 63
ENDBRANCH 53 59
ENDBRANCH 51 53
ENDBRANCH 41 49
ENDBRANCH 39 41
ENDBRANCH 1 37
TORSDOF 24
ENDMDL
MODEL 42
USER: ADFR SOLUTION from run 37
USER: SCORE 17.900620 LL:  -4.556 LR: -15.175 RR:   0.000 FEB:  -8.016
USER: RMSD 9.141192
USER: SEED 36
USER: STATUS no improvement in best in 3 clusters for 5 generations
USER: GENES 26
USER: genes 0 Translation |==|  0.50790 0.45589 0.63955
USER: genes 1 Rotation |==|  0.62140 0.95415 0.64931 0.58193
USER: genes 2 Torsion [C]-CA--CB-[CG] |==|  0.48443
USER: genes 3 Torsion [CA]-CB--CG-[CD] |==|  0.46389
USER: genes 4 Torsion [CB]-CG--CD-[NE] |==|  0.16274
USER: genes 5 Torsion [CG]-CD--NE-[CZ] |==|  0.73787
USER: genes 6 Torsion [N]-CA--C-[N] |==|  0.98678
USER: genes 7 Torsion [C]-N--CA-[C] |==|  0.60699
USER: genes 8 Torsion [N]-CA--C-[N] |==|  0.34138
USER: genes 9 Torsion [C]-N--CA-[CB] |==|  0.38625
USER: genes 10 Torsion [N]-CA--C-[OXT] |==|  0.28591
USER: genes 11 Torsion [N]-CA--CB-[CG] |==|  0.69641
USER: genes 12 Torsion [CA]-CB--CG-[OD2] |==|  0.57275
USER: genes 13 Torsion [N]-CA--CB-[CG] |==|  0.50208
USER: genes 14 Torsion [CA]-CB--CG-[ND1] |==|  0.09771
USER: genes 15 Torsion [CB]-CA--N-[C] |==|  0.24990
USER: genes 16 Torsion [N]-C--CA-[N] |==|  0.05137
USER: genes 17 Torsion [C]-CA--CB-[CG] |==|  0.48580
USER: genes 18 Torsion [CA]-CB--CG-[CD2] |==|  0.27950
USER: genes 19 Torsion [C]-CA--N-[C] |==|  0.17656
USER: genes 20 Torsion [N]-C--CA-[N] |==|  0.68119
USER: genes 21 Torsion [C]-CA--CB-[CG] |==|  0.21861
USER: genes 22 Torsion [CA]-CB--CG-[CD] |==|  0.16460
USER: genes 23 Torsion [CB]-CG--CD-[OE1] |==|  0.29883
USER: genes 24 Torsion [C]-CA--N-[C] |==|  0.65000
USER: genes 25 Torsion [N]-C--CA-[N] |==|  0.46716
ROOT
ATOM      1  CA  ARG P   5     -22.229  25.412  15.510  1.00 25.78 LIG 0.18  C 
ENDROOT
BRANCH 1 2
ATOM      2  CB  ARG P   5     -22.592  23.931  15.718  1.00 22.44 LIG 0.04  C 
BRANCH 2 3
ATOM      3  CG  ARG P   5     -23.916  23.716  16.450  1.00 26.51 LIG 0.02  C 
BRANCH 3 4
ATOM      4  CD  ARG P   5     -24.397  22.263  16.358  1.00 28.41 LIG 0.14  C 
BRANCH 4 5
ATOM      5  NE  ARG P   5     -23.421  21.328  16.913  1.00 33.08 LIG-0.23  N 
ATOM      6  CZ  ARG P   5     -22.499  20.690  16.195  1.00 31.92 LIG 0.67  C 
ATOM      7  NH2 ARG P   5     -21.651  19.873  16.797  1.00 32.43 LIG-0.23  N 
ATOM      8  NH1 ARG P   5     -22.407  20.887  14.882  1.00 23.99 LIG-0.23  N 
ATOM      9 2HH2 ARG P   5     -21.053  19.458  16.337  1.00 32.43 LIG 0.17  HD
ATOM     10 1HH2 ARG P   5     -21.697  19.756  17.648  1.00 32.43 LIG 0.17  HD
ATOM     11 2HH1 ARG P   5     -21.809  20.471  14.425  1.00 23.99 LIG 0.17  HD
ATOM     12 1HH1 ARG P   5     -22.947  21.430  14.490  1.00 23.99 LIG 0.17  HD
ATOM     13 HE   ARG P   5     -23.444  21.180  17.759  1.00 33.08 LIG 0.18  HD
ENDBRANCH 4 5
ENDBRANCH 3 4
ENDBRANCH 2 3
ENDBRANCH 1 2
BRANCH 1 14
ATOM     14  C   ARG P   5     -20.833  25.538  14.899  1.00 22.77 LIG 0.24  C 
ATOM     15 O    ARG P   5     -19.839  25.141  15.515  1.00 23.41 LIG-0.27  OA
ATOM     16  N   HIS P   6     -20.760  26.108  13.700  1.00 20.21 LIG-0.35  N 
ATOM     17 H    HIS P   6     -21.440  26.407  13.269  1.00 20.21 LIG 0.16  HD
BRANCH 16 18
ATOM     18  CA  HIS P   6     -19.483  26.274  13.003  1.00 24.32 LIG 0.18  C 
BRANCH 18 19
ATOM     19  C   HIS P   6     -19.355  27.601  12.243  1.00 31.11 LIG 0.24  C 
ATOM     20  N   ASP P   7     -18.326  28.377  12.567  1.00 28.94 LIG-0.34  N 
ATOM     21 H    ASP P   7     -17.835  28.266  13.264  1.00 28.94 LIG 0.16  HD
ATOM     22 O    HIS P   6     -20.179  27.915  11.377  1.00 27.73 LIG-0.27  OA
BRANCH 20 23
ATOM     23  CA  ASP P   7     -17.948  29.512  11.726  1.00 30.45 LIG 0.20  C 
BRANCH 23 24
ATOM     24  C   ASP P   7     -16.809  29.141  10.756  1.00 38.41 LIG 0.20  C 
ATOM     25 OXT  ASP P   7     -17.024  28.916   9.565  1.00 43.84 LIG-0.65  OA
ATOM     26 O    ASP P   7     -15.633  29.038  11.125  1.00 36.31 LIG-0.65  OA
ENDBRANCH 23 24
BRANCH 23 27
ATOM     27  CB  ASP P   7     -17.575  30.716  12.593  1.00 42.34 LIG 0.15  C 
BRANCH 27 28
ATOM     28  CG  ASP P   7     -18.612  31.836  12.523  1.00 55.06 LIG 0.17  C 
ATOM     29 OD2  ASP P   7     -18.230  33.003  12.747  1.00 62.01 LIG-0.65  OA
ATOM     30 OD1  ASP P   7     -19.803  31.555  12.248  1.00 52.19 LIG-0.65  OA
ENDBRANCH 27 28
ENDBRANCH 23 27
ENDBRANCH 20 23
ENDBRANCH 18 19
BRANCH 18 31
ATOM     31  CB  HIS P   6     -19.250  25.116  12.048  1.00 25.23 LIG 0.10  C 
BRANCH 31 32
ATOM     32  CG  HIS P   6     -17.955  25.198  11.306  1.00 20.03 LIG 0.06  A 
ATOM     33 ND1  HIS P   6     -16.809  25.711  11.873  1.00 23.24 LIG-0.24  NA
ATOM     34  CE1 HIS P   6     -15.829  25.673  10.988  1.00 27.69 LIG 0.23  A 
ATOM     35 NE2  HIS P   6     -16.302  25.163   9.863  1.00 30.02 LIG-0.25  NA
ATOM     36  CD2 HIS P   6     -17.631  24.855  10.038  1.00 26.95 LIG 0.14  A 
ENDBRANCH 31 32
ENDBRANCH 18 31
ENDBRANCH 16 18
ENDBRANCH 1 14
BRANCH 1 37
ATOM     37  N   ARG P   5     -23.215  26.066  14.663  1.00 23.27 LIG-0.35  N 
ATOM     38 H    ARG P   5     -23.042  26.037  13.821  1.00 23.27 LIG 0.16  HD
ATOM     39  C   PHE P   4     -24.286  26.652  15.186  1.00 23.02 LIG 0.24  C 
ATOM     40 O    PHE P   4     -24.523  26.667  16.396  1.00 27.32 LIG-0.27  OA
BRANCH 39 41
ATOM     41  CA  PHE P   4     -25.238  27.299  14.210  1.00 26.78 LIG 0.18  C 
BRANCH 41 42
ATOM     42  CB  PHE P   4     -26.688  27.014  14.610  1.00 27.56 LIG 0.07  C 
BRANCH 42 43
ATOM     43  CG  PHE P   4     -27.727  27.724  13.760  1.00 23.05 LIG-0.06  A 
ATOM     44  CD2 PHE P   4     -28.396  27.042  12.745  1.00 26.81 LIG 0.01  A 
ATOM     45  CE2 PHE P   4     -29.339  27.688  11.927  1.00 20.39 LIG 0.00  A 
ATOM     46  CZ  PHE P   4     -29.610  29.044  12.128  1.00 15.29 LIG 0.00  A 
ATOM     47  CE1 PHE P   4     -28.939  29.737  13.144  1.00 22.67 LIG 0.00  A 
ATOM     48  CD1 PHE P   4     -27.999  29.079  13.945  1.00 22.68 LIG 0.01  A 
ENDBRANCH 42 43
ENDBRANCH 41 42
BRANCH 41 49
ATOM     49  N   PHE P   4     -24.952  26.731  12.900  1.00 24.27 LIG-0.35  N 
ATOM     50 H    PHE P   4     -24.666  27.300  12.322  1.00 24.27 LIG 0.16  HD
ATOM     51  C   GLU P   3     -25.128  25.439  12.643  1.00 33.66 LIG 0.24  C 
ATOM     52 O    GLU P   3     -25.441  24.610  13.498  1.00 34.99 LIG-0.27  OA
BRANCH 51 53
ATOM     53  CA  GLU P   3     -24.899  25.014  11.204  1.00 34.60 LIG 0.18  C 
BRANCH 53 54
ATOM     54  CB  GLU P   3     -24.309  26.184  10.418  1.00 27.84 LIG 0.04  C 
BRANCH 54 55
ATOM     55  CG  GLU P   3     -22.819  26.394  10.648  1.00 43.05 LIG 0.12  C 
BRANCH 55 56
ATOM     56  CD  GLU P   3     -22.004  25.177  10.269  1.00 49.21 LIG 0.17  C 
ATOM     57 OE1  GLU P   3     -21.308  25.232   9.232  1.00 52.28 LIG-0.65  OA
ATOM     58 OE2  GLU P   3     -22.056  24.169  11.006  1.00 52.44 LIG-0.65  OA
ENDBRANCH 55 56
ENDBRANCH 54 55
ENDBRANCH 53 54
BRANCH 53 59
ATOM     59  N   GLU P   3     -26.129  24.539  10.583  1.00 36.80 LIG-0.35  N 
ATOM     60 H    GLU P   3     -26.787  25.091  10.630  1.00 36.80 LIG 0.16  HD
ATOM     61  C   ALA P   2     -26.202  23.347  10.000  1.00 41.96 LIG 0.26  C 
ATOM     62 O    ALA P   2     -25.260  22.555   9.993  1.00 34.80 LIG-0.27  OA
BRANCH 61 63
ATOM     63  CA  ALA P   2     -27.539  22.996   9.330  1.00 47.40 LIG 0.40  C 
ATOM     64  CB  ALA P   2     -28.632  22.827  10.373  1.00 40.76 LIG 0.06  C 
ATOM     65  N   ALA P   2     -27.458  21.805   8.484  1.00 49.60 LIG 0.61  N 
ENDBRANCH 61 63
ENDBRANCH 53 59
ENDBRANCH 51 53
ENDBRANCH 41 49
ENDBRANCH 39 41
ENDBRANCH 1 37
TORSDOF 24
ENDMDL
MODEL 43
USER: ADFR SOLUTION from run 94
USER: SCORE 18.962515 LL:  -4.315 LR: -15.154 RR:   0.000 FEB:  -7.995
USER: RMSD 9.863216
USER: SEED 93
USER: STATUS no improvement in best in 18 clusters for 5 generations
USER: GENES 26
USER: genes 0 Translation |==|  0.54790 0.47108 0.52195
USER: genes 1 Rotation |==|  0.43234 0.01490 0.40223 0.52324
USER: genes 2 Torsion [C]-CA--CB-[CG] |==|  0.40968
USER: genes 3 Torsion [CA]-CB--CG-[CD] |==|  0.18101
USER: genes 4 Torsion [CB]-CG--CD-[NE] |==|  0.65891
USER: genes 5 Torsion [CG]-CD--NE-[CZ] |==|  0.55828
USER: genes 6 Torsion [N]-CA--C-[N] |==|  0.36453
USER: genes 7 Torsion [C]-N--CA-[C] |==|  0.82041
USER: genes 8 Torsion [N]-CA--C-[N] |==|  0.33394
USER: genes 9 Torsion [C]-N--CA-[CB] |==|  0.29525
USER: genes 10 Torsion [N]-CA--C-[OXT] |==|  0.36509
USER: genes 11 Torsion [N]-CA--CB-[CG] |==|  0.98599
USER: genes 12 Torsion [CA]-CB--CG-[OD2] |==|  0.75229
USER: genes 13 Torsion [N]-CA--CB-[CG] |==|  0.80520
USER: genes 14 Torsion [CA]-CB--CG-[ND1] |==|  0.38100
USER: genes 15 Torsion [CB]-CA--N-[C] |==|  0.87222
USER: genes 16 Torsion [N]-C--CA-[N] |==|  0.45116
USER: genes 17 Torsion [C]-CA--CB-[CG] |==|  0.29294
USER: genes 18 Torsion [CA]-CB--CG-[CD2] |==|  0.22840
USER: genes 19 Torsion [C]-CA--N-[C] |==|  0.71539
USER: genes 20 Torsion [N]-C--CA-[N] |==|  0.13610
USER: genes 21 Torsion [C]-CA--CB-[CG] |==|  0.56043
USER: genes 22 Torsion [CA]-CB--CG-[CD] |==|  0.26754
USER: genes 23 Torsion [CB]-CG--CD-[OE1] |==|  0.66677
USER: genes 24 Torsion [C]-CA--N-[C] |==|  0.13424
USER: genes 25 Torsion [N]-C--CA-[N] |==|  0.68474
ROOT
ATOM      1  CA  ARG P   5     -21.209  25.719  13.393  1.00 25.78 LIG 0.18  C 
ENDROOT
BRANCH 1 2
ATOM      2  CB  ARG P   5     -20.955  24.276  13.862  1.00 22.44 LIG 0.04  C 
BRANCH 2 3
ATOM      3  CG  ARG P   5     -21.224  24.052  15.349  1.00 26.51 LIG 0.02  C 
BRANCH 3 4
ATOM      4  CD  ARG P   5     -22.705  24.239  15.702  1.00 28.41 LIG 0.14  C 
BRANCH 4 5
ATOM      5  NE  ARG P   5     -22.897  25.259  16.731  1.00 33.08 LIG-0.23  N 
ATOM      6  CZ  ARG P   5     -23.978  25.354  17.502  1.00 31.92 LIG 0.67  C 
ATOM      7  NH2 ARG P   5     -24.048  26.308  18.416  1.00 32.43 LIG-0.23  N 
ATOM      8  NH1 ARG P   5     -24.976  24.482  17.379  1.00 23.99 LIG-0.23  N 
ATOM      9 2HH2 ARG P   5     -24.745  26.373  18.916  1.00 32.43 LIG 0.17  HD
ATOM     10 1HH2 ARG P   5     -23.398  26.863  18.509  1.00 32.43 LIG 0.17  HD
ATOM     11 2HH1 ARG P   5     -25.671  24.550  17.880  1.00 23.99 LIG 0.17  HD
ATOM     12 1HH1 ARG P   5     -24.926  23.851  16.797  1.00 23.99 LIG 0.17  HD
ATOM     13 HE   ARG P   5     -22.270  25.837  16.845  1.00 33.08 LIG 0.18  HD
ENDBRANCH 4 5
ENDBRANCH 3 4
ENDBRANCH 2 3
ENDBRANCH 1 2
BRANCH 1 14
ATOM     14  C   ARG P   5     -20.244  26.092  12.267  1.00 22.77 LIG 0.24  C 
ATOM     15 O    ARG P   5     -20.387  25.620  11.134  1.00 23.41 LIG-0.27  OA
ATOM     16  N   HIS P   6     -19.254  26.920  12.585  1.00 20.21 LIG-0.35  N 
ATOM     17 H    HIS P   6     -19.130  27.240  13.373  1.00 20.21 LIG 0.16  HD
BRANCH 16 18
ATOM     18  CA  HIS P   6     -18.272  27.364  11.592  1.00 24.32 LIG 0.18  C 
BRANCH 18 19
ATOM     19  C   HIS P   6     -17.394  26.235  11.036  1.00 31.11 LIG 0.24  C 
ATOM     20  N   ASP P   7     -17.451  26.027   9.725  1.00 28.94 LIG-0.34  N 
ATOM     21 H    ASP P   7     -18.048  26.363   9.205  1.00 28.94 LIG 0.16  HD
ATOM     22 O    HIS P   6     -16.678  25.562  11.786  1.00 27.73 LIG-0.27  OA
BRANCH 20 23
ATOM     23  CA  ASP P   7     -16.462  25.183   9.055  1.00 30.45 LIG 0.20  C 
BRANCH 23 24
ATOM     24  C   ASP P   7     -15.848  25.895   7.833  1.00 38.41 LIG 0.20  C 
ATOM     25 OXT  ASP P   7     -14.631  25.935   7.655  1.00 43.84 LIG-0.65  OA
ATOM     26 O    ASP P   7     -16.540  26.469   6.985  1.00 36.31 LIG-0.65  OA
ENDBRANCH 23 24
BRANCH 23 27
ATOM     27  CB  ASP P   7     -17.084  23.841   8.667  1.00 42.34 LIG 0.15  C 
BRANCH 27 28
ATOM     28  CG  ASP P   7     -18.514  23.684   9.181  1.00 55.06 LIG 0.17  C 
ATOM     29 OD2  ASP P   7     -18.678  23.191  10.316  1.00 62.01 LIG-0.65  OA
ATOM     30 OD1  ASP P   7     -19.471  24.048   8.457  1.00 52.19 LIG-0.65  OA
ENDBRANCH 27 28
ENDBRANCH 23 27
ENDBRANCH 20 23
ENDBRANCH 18 19
BRANCH 18 31
ATOM     31  CB  HIS P   6     -17.390  28.454  12.175  1.00 25.23 LIG 0.10  C 
BRANCH 31 32
ATOM     32  CG  HIS P   6     -18.099  29.752  12.390  1.00 20.03 LIG 0.06  A 
ATOM     33 ND1  HIS P   6     -17.931  30.508  13.529  1.00 23.24 LIG-0.24  NA
ATOM     34  CE1 HIS P   6     -18.686  31.589  13.452  1.00 27.69 LIG 0.23  A 
ATOM     35 NE2  HIS P   6     -19.348  31.555  12.307  1.00 30.02 LIG-0.25  NA
ATOM     36  CD2 HIS P   6     -18.995  30.416  11.623  1.00 26.95 LIG 0.14  A 
ENDBRANCH 31 32
ENDBRANCH 18 31
ENDBRANCH 16 18
ENDBRANCH 1 14
BRANCH 1 37
ATOM     37  N   ARG P   5     -22.587  25.880  12.955  1.00 23.27 LIG-0.35  N 
ATOM     38 H    ARG P   5     -22.980  26.585  13.254  1.00 23.27 LIG 0.16  HD
ATOM     39  C   PHE P   4     -23.160  24.987  12.156  1.00 23.02 LIG 0.24  C 
ATOM     40 O    PHE P   4     -22.573  23.992  11.726  1.00 27.32 LIG-0.27  OA
BRANCH 39 41
ATOM     41  CA  PHE P   4     -24.593  25.259  11.770  1.00 26.78 LIG 0.18  C 
BRANCH 41 42
ATOM     42  CB  PHE P   4     -25.535  24.896  12.921  1.00 27.56 LIG 0.07  C 
BRANCH 42 43
ATOM     43  CG  PHE P   4     -26.106  26.087  13.668  1.00 23.05 LIG-0.06  A 
ATOM     44  CD2 PHE P   4     -27.215  26.769  13.170  1.00 26.81 LIG 0.01  A 
ATOM     45  CE2 PHE P   4     -27.741  27.893  13.831  1.00 20.39 LIG 0.00  A 
ATOM     46  CZ  PHE P   4     -27.138  28.344  15.008  1.00 15.29 LIG 0.00  A 
ATOM     47  CE1 PHE P   4     -26.021  27.665  15.513  1.00 22.67 LIG 0.00  A 
ATOM     48  CD1 PHE P   4     -25.507  26.552  14.839  1.00 22.68 LIG 0.01  A 
ENDBRANCH 42 43
ENDBRANCH 41 42
BRANCH 41 49
ATOM     49  N   PHE P   4     -24.880  24.438  10.602  1.00 24.27 LIG-0.35  N 
ATOM     50 H    PHE P   4     -25.023  23.608  10.778  1.00 24.27 LIG 0.16  HD
ATOM     51  C   GLU P   3     -24.913  24.951   9.376  1.00 33.66 LIG 0.24  C 
ATOM     52 O    GLU P   3     -24.808  26.154   9.138  1.00 34.99 LIG-0.27  OA
BRANCH 51 53
ATOM     53  CA  GLU P   3     -25.111  23.955   8.248  1.00 34.60 LIG 0.18  C 
BRANCH 53 54
ATOM     54  CB  GLU P   3     -25.323  24.710   6.936  1.00 27.84 LIG 0.04  C 
BRANCH 54 55
ATOM     55  CG  GLU P   3     -26.033  23.895   5.864  1.00 43.05 LIG 0.12  C 
BRANCH 55 56
ATOM     56  CD  GLU P   3     -27.521  24.168   5.827  1.00 49.21 LIG 0.17  C 
ATOM     57 OE1  GLU P   3     -28.301  23.213   6.029  1.00 52.28 LIG-0.65  OA
ATOM     58 OE2  GLU P   3     -27.909  25.334   5.600  1.00 52.44 LIG-0.65  OA
ENDBRANCH 55 56
ENDBRANCH 54 55
ENDBRANCH 53 54
BRANCH 53 59
ATOM     59  N   GLU P   3     -26.225  23.055   8.516  1.00 36.80 LIG-0.35  N 
ATOM     60 H    GLU P   3     -26.048  22.224   8.392  1.00 36.80 LIG 0.16  HD
ATOM     61  C   ALA P   2     -27.408  23.510   8.917  1.00 41.96 LIG 0.26  C 
ATOM     62 O    ALA P   2     -27.651  24.710   9.037  1.00 34.80 LIG-0.27  OA
BRANCH 61 63
ATOM     63  CA  ALA P   2     -28.477  22.450   9.225  1.00 47.40 LIG 0.40  C 
ATOM     64  CB  ALA P   2     -27.861  21.060   9.249  1.00 40.76 LIG 0.06  C 
ATOM     65  N   ALA P   2     -29.604  22.488   8.292  1.00 49.60 LIG 0.61  N 
ENDBRANCH 61 63
ENDBRANCH 53 59
ENDBRANCH 51 53
ENDBRANCH 41 49
ENDBRANCH 39 41
ENDBRANCH 1 37
TORSDOF 24
ENDMDL
MODEL 44
USER: ADFR SOLUTION from run 147
USER: SCORE 18.522686 LL:  -5.115 LR: -15.143 RR:   0.000 FEB:  -7.983
USER: RMSD 9.956946
USER: SEED 146
USER: STATUS no improvement in best in 8 clusters for 5 generations
USER: GENES 26
USER: genes 0 Translation |==|  0.52339 0.49159 0.52401
USER: genes 1 Rotation |==|  0.41354 0.01381 0.42163 0.50233
USER: genes 2 Torsion [C]-CA--CB-[CG] |==|  0.32331
USER: genes 3 Torsion [CA]-CB--CG-[CD] |==|  0.33368
USER: genes 4 Torsion [CB]-CG--CD-[NE] |==|  0.84360
USER: genes 5 Torsion [CG]-CD--NE-[CZ] |==|  0.72524
USER: genes 6 Torsion [N]-CA--C-[N] |==|  0.37899
USER: genes 7 Torsion [C]-N--CA-[C] |==|  0.80666
USER: genes 8 Torsion [N]-CA--C-[N] |==|  0.38058
USER: genes 9 Torsion [C]-N--CA-[CB] |==|  0.88105
USER: genes 10 Torsion [N]-CA--C-[OXT] |==|  0.03720
USER: genes 11 Torsion [N]-CA--CB-[CG] |==|  0.87889
USER: genes 12 Torsion [CA]-CB--CG-[OD2] |==|  0.31363
USER: genes 13 Torsion [N]-CA--CB-[CG] |==|  0.80518
USER: genes 14 Torsion [CA]-CB--CG-[ND1] |==|  0.81823
USER: genes 15 Torsion [CB]-CA--N-[C] |==|  0.26485
USER: genes 16 Torsion [N]-C--CA-[N] |==|  0.07318
USER: genes 17 Torsion [C]-CA--CB-[CG] |==|  0.34888
USER: genes 18 Torsion [CA]-CB--CG-[CD2] |==|  0.10504
USER: genes 19 Torsion [C]-CA--N-[C] |==|  0.17745
USER: genes 20 Torsion [N]-C--CA-[N] |==|  0.86833
USER: genes 21 Torsion [C]-CA--CB-[CG] |==|  0.79693
USER: genes 22 Torsion [CA]-CB--CG-[CD] |==|  0.76623
USER: genes 23 Torsion [CB]-CG--CD-[OE1] |==|  0.79626
USER: genes 24 Torsion [C]-CA--N-[C] |==|  0.62884
USER: genes 25 Torsion [N]-C--CA-[N] |==|  0.11817
ROOT
ATOM      1  CA  ARG P   5     -21.834  26.135  13.430  1.00 25.78 LIG 0.18  C 
ENDROOT
BRANCH 1 2
ATOM      2  CB  ARG P   5     -21.732  24.725  14.039  1.00 22.44 LIG 0.04  C 
BRANCH 2 3
ATOM      3  CG  ARG P   5     -21.350  24.716  15.519  1.00 26.51 LIG 0.02  C 
BRANCH 3 4
ATOM      4  CD  ARG P   5     -22.421  24.048  16.387  1.00 28.41 LIG 0.14  C 
BRANCH 4 5
ATOM      5  NE  ARG P   5     -23.730  24.677  16.222  1.00 33.08 LIG-0.23  N 
ATOM      6  CZ  ARG P   5     -24.242  25.577  17.059  1.00 31.92 LIG 0.67  C 
ATOM      7  NH2 ARG P   5     -25.432  26.098  16.812  1.00 32.43 LIG-0.23  N 
ATOM      8  NH1 ARG P   5     -23.555  25.976  18.128  1.00 23.99 LIG-0.23  N 
ATOM      9 2HH2 ARG P   5     -25.767  26.680  17.349  1.00 32.43 LIG 0.17  HD
ATOM     10 1HH2 ARG P   5     -25.871  25.854  16.113  1.00 32.43 LIG 0.17  HD
ATOM     11 2HH1 ARG P   5     -23.892  26.558  18.663  1.00 23.99 LIG 0.17  HD
ATOM     12 1HH1 ARG P   5     -22.774  25.651  18.282  1.00 23.99 LIG 0.17  HD
ATOM     13 HE   ARG P   5     -24.201  24.450  15.540  1.00 33.08 LIG 0.18  HD
ENDBRANCH 4 5
ENDBRANCH 3 4
ENDBRANCH 2 3
ENDBRANCH 1 2
BRANCH 1 14
ATOM     14  C   ARG P   5     -20.783  26.320  12.336  1.00 22.77 LIG 0.24  C 
ATOM     15 O    ARG P   5     -20.954  25.837  11.211  1.00 23.41 LIG-0.27  OA
ATOM     16  N   HIS P   6     -19.691  27.001  12.671  1.00 20.21 LIG-0.35  N 
ATOM     17 H    HIS P   6     -19.549  27.325  13.454  1.00 20.21 LIG 0.16  HD
BRANCH 16 18
ATOM     18  CA  HIS P   6     -18.618  27.258  11.708  1.00 24.32 LIG 0.18  C 
BRANCH 18 19
ATOM     19  C   HIS P   6     -17.823  26.007  11.312  1.00 31.11 LIG 0.24  C 
ATOM     20  N   ASP P   7     -17.532  25.869  10.022  1.00 28.94 LIG-0.34  N 
ATOM     21 H    ASP P   7     -17.889  26.334   9.392  1.00 28.94 LIG 0.16  HD
ATOM     22 O    HIS P   6     -17.479  25.180  12.164  1.00 27.73 LIG-0.27  OA
BRANCH 20 23
ATOM     23  CA  ASP P   7     -16.551  24.881   9.575  1.00 30.45 LIG 0.20  C 
BRANCH 23 24
ATOM     24  C   ASP P   7     -17.174  23.475   9.472  1.00 38.41 LIG 0.20  C 
ATOM     25 OXT  ASP P   7     -18.392  23.305   9.506  1.00 43.84 LIG-0.65  OA
ATOM     26 O    ASP P   7     -16.486  22.453   9.364  1.00 36.31 LIG-0.65  OA
ENDBRANCH 23 24
BRANCH 23 27
ATOM     27  CB  ASP P   7     -15.332  24.887  10.498  1.00 42.34 LIG 0.15  C 
BRANCH 27 28
ATOM     28  CG  ASP P   7     -14.869  26.300  10.853  1.00 55.06 LIG 0.17  C 
ATOM     29 OD2  ASP P   7     -14.987  26.674  12.038  1.00 62.01 LIG-0.65  OA
ATOM     30 OD1  ASP P   7     -14.391  27.034   9.956  1.00 52.19 LIG-0.65  OA
ENDBRANCH 27 28
ENDBRANCH 23 27
ENDBRANCH 20 23
ENDBRANCH 18 19
BRANCH 18 31
ATOM     31  CB  HIS P   6     -17.669  28.314  12.248  1.00 25.23 LIG 0.10  C 
BRANCH 31 32
ATOM     32  CG  HIS P   6     -18.261  29.685  12.300  1.00 20.03 LIG 0.06  A 
ATOM     33 ND1  HIS P   6     -18.620  30.380  11.166  1.00 23.24 LIG-0.24  NA
ATOM     34  CE1 HIS P   6     -19.100  31.562  11.510  1.00 27.69 LIG 0.23  A 
ATOM     35 NE2  HIS P   6     -19.055  31.662  12.828  1.00 30.02 LIG-0.25  NA
ATOM     36  CD2 HIS P   6     -18.537  30.499  13.346  1.00 26.95 LIG 0.14  A 
ENDBRANCH 31 32
ENDBRANCH 18 31
ENDBRANCH 16 18
ENDBRANCH 1 14
BRANCH 1 37
ATOM     37  N   ARG P   5     -23.168  26.367  12.898  1.00 23.27 LIG-0.35  N 
ATOM     38 H    ARG P   5     -23.292  26.076  12.098  1.00 23.27 LIG 0.16  HD
ATOM     39  C   PHE P   4     -24.096  26.984  13.622  1.00 23.02 LIG 0.24  C 
ATOM     40 O    PHE P   4     -23.901  27.378  14.774  1.00 27.32 LIG-0.27  OA
BRANCH 39 41
ATOM     41  CA  PHE P   4     -25.441  27.170  12.965  1.00 26.78 LIG 0.18  C 
BRANCH 41 42
ATOM     42  CB  PHE P   4     -26.561  27.084  14.006  1.00 27.56 LIG 0.07  C 
BRANCH 42 43
ATOM     43  CG  PHE P   4     -27.497  28.279  14.026  1.00 23.05 LIG-0.06  A 
ATOM     44  CD2 PHE P   4     -27.871  28.904  12.838  1.00 26.81 LIG 0.01  A 
ATOM     45  CE2 PHE P   4     -28.713  30.030  12.836  1.00 20.39 LIG 0.00  A 
ATOM     46  CZ  PHE P   4     -29.180  30.542  14.049  1.00 15.29 LIG 0.00  A 
ATOM     47  CE1 PHE P   4     -28.805  29.921  15.248  1.00 22.67 LIG 0.00  A 
ATOM     48  CD1 PHE P   4     -27.962  28.804  15.231  1.00 22.68 LIG 0.01  A 
ENDBRANCH 42 43
ENDBRANCH 41 42
BRANCH 41 49
ATOM     49  N   PHE P   4     -25.583  26.107  11.980  1.00 24.27 LIG-0.35  N 
ATOM     50 H    PHE P   4     -25.634  26.383  11.166  1.00 24.27 LIG 0.16  HD
ATOM     51  C   GLU P   3     -25.627  24.826  12.332  1.00 33.66 LIG 0.24  C 
ATOM     52 O    GLU P   3     -25.453  24.430  13.485  1.00 34.99 LIG-0.27  OA
BRANCH 51 53
ATOM     53  CA  GLU P   3     -25.893  23.841  11.209  1.00 34.60 LIG 0.18  C 
BRANCH 53 54
ATOM     54  CB  GLU P   3     -24.625  23.671  10.373  1.00 27.84 LIG 0.04  C 
BRANCH 54 55
ATOM     55  CG  GLU P   3     -24.306  24.867   9.487  1.00 43.05 LIG 0.12  C 
BRANCH 55 56
ATOM     56  CD  GLU P   3     -25.055  24.824   8.173  1.00 49.21 LIG 0.17  C 
ATOM     57 OE1  GLU P   3     -24.686  23.999   7.310  1.00 52.28 LIG-0.65  OA
ATOM     58 OE2  GLU P   3     -26.011  25.611   8.005  1.00 52.44 LIG-0.65  OA
ENDBRANCH 55 56
ENDBRANCH 54 55
ENDBRANCH 53 54
BRANCH 53 59
ATOM     59  N   GLU P   3     -27.011  24.265  10.376  1.00 36.80 LIG-0.35  N 
ATOM     60 H    GLU P   3     -26.988  25.094  10.147  1.00 36.80 LIG 0.16  HD
ATOM     61  C   ALA P   2     -27.973  23.422  10.016  1.00 41.96 LIG 0.26  C 
ATOM     62 O    ALA P   2     -28.008  22.254  10.401  1.00 34.80 LIG-0.27  OA
BRANCH 61 63
ATOM     63  CA  ALA P   2     -29.059  23.984   9.087  1.00 47.40 LIG 0.40  C 
ATOM     64  CB  ALA P   2     -29.894  22.859   8.498  1.00 40.76 LIG 0.06  C 
ATOM     65  N   ALA P   2     -28.517  24.825   8.018  1.00 49.60 LIG 0.61  N 
ENDBRANCH 61 63
ENDBRANCH 53 59
ENDBRANCH 51 53
ENDBRANCH 41 49
ENDBRANCH 39 41
ENDBRANCH 1 37
TORSDOF 24
ENDMDL
MODEL 45
USER: ADFR SOLUTION from run 9
USER: SCORE 16.649502 LL:  -4.249 LR: -15.141 RR:   0.000 FEB:  -7.982
USER: RMSD 7.550021
USER: SEED 39176
USER: STATUS no improvement in best in 12 clusters for 5 generations
USER: GENES 26
USER: genes 0 Translation |==|  0.30857 0.54520 0.50885
USER: genes 1 Rotation |==|  0.14011 0.71268 0.48439 0.77387
USER: genes 2 Torsion [C]-CA--CB-[CG] |==|  0.89809
USER: genes 3 Torsion [CA]-CB--CG-[CD] |==|  0.78956
USER: genes 4 Torsion [CB]-CG--CD-[NE] |==|  0.74136
USER: genes 5 Torsion [CG]-CD--NE-[CZ] |==|  0.47676
USER: genes 6 Torsion [N]-CA--C-[N] |==|  0.47624
USER: genes 7 Torsion [C]-N--CA-[C] |==|  0.59184
USER: genes 8 Torsion [N]-CA--C-[N] |==|  0.29444
USER: genes 9 Torsion [C]-N--CA-[CB] |==|  0.25861
USER: genes 10 Torsion [N]-CA--C-[OXT] |==|  0.09505
USER: genes 11 Torsion [N]-CA--CB-[CG] |==|  0.16617
USER: genes 12 Torsion [CA]-CB--CG-[OD2] |==|  0.32745
USER: genes 13 Torsion [N]-CA--CB-[CG] |==|  0.91911
USER: genes 14 Torsion [CA]-CB--CG-[ND1] |==|  0.74730
USER: genes 15 Torsion [CB]-CA--N-[C] |==|  0.12452
USER: genes 16 Torsion [N]-C--CA-[N] |==|  0.84120
USER: genes 17 Torsion [C]-CA--CB-[CG] |==|  0.36142
USER: genes 18 Torsion [CA]-CB--CG-[CD2] |==|  0.35782
USER: genes 19 Torsion [C]-CA--N-[C] |==|  0.78124
USER: genes 20 Torsion [N]-C--CA-[N] |==|  0.59331
USER: genes 21 Torsion [C]-CA--CB-[CG] |==|  0.29322
USER: genes 22 Torsion [CA]-CB--CG-[CD] |==|  0.85897
USER: genes 23 Torsion [CB]-CG--CD-[OE1] |==|  0.28606
USER: genes 24 Torsion [C]-CA--N-[C] |==|  0.68089
USER: genes 25 Torsion [N]-C--CA-[N] |==|  0.74676
ROOT
ATOM      1  CA  ARG P   5     -27.311  27.220  13.157  1.00 25.78 LIG 0.18  C 
ENDROOT
BRANCH 1 2
ATOM      2  CB  ARG P   5     -27.562  26.835  14.626  1.00 22.44 LIG 0.04  C 
BRANCH 2 3
ATOM      3  CG  ARG P   5     -27.043  27.862  15.632  1.00 26.51 LIG 0.02  C 
BRANCH 3 4
ATOM      4  CD  ARG P   5     -25.518  27.798  15.786  1.00 28.41 LIG 0.14  C 
BRANCH 4 5
ATOM      5  NE  ARG P   5     -25.116  26.924  16.885  1.00 33.08 LIG-0.23  N 
ATOM      6  CZ  ARG P   5     -23.859  26.564  17.137  1.00 31.92 LIG 0.67  C 
ATOM      7  NH2 ARG P   5     -23.597  25.778  18.168  1.00 32.43 LIG-0.23  N 
ATOM      8  NH1 ARG P   5     -22.862  27.009  16.376  1.00 23.99 LIG-0.23  N 
ATOM      9 2HH2 ARG P   5     -22.787  25.543  18.336  1.00 32.43 LIG 0.17  HD
ATOM     10 1HH2 ARG P   5     -24.238  25.503  18.672  1.00 32.43 LIG 0.17  HD
ATOM     11 2HH1 ARG P   5     -22.052  26.772  16.545  1.00 23.99 LIG 0.17  HD
ATOM     12 1HH1 ARG P   5     -23.026  27.533  15.715  1.00 23.99 LIG 0.17  HD
ATOM     13 HE   ARG P   5     -25.731  26.622  17.403  1.00 33.08 LIG 0.18  HD
ENDBRANCH 4 5
ENDBRANCH 3 4
ENDBRANCH 2 3
ENDBRANCH 1 2
BRANCH 1 14
ATOM     14  C   ARG P   5     -27.468  28.729  12.967  1.00 22.77 LIG 0.24  C 
ATOM     15 O    ARG P   5     -26.494  29.431  12.679  1.00 23.41 LIG-0.27  OA
ATOM     16  N   HIS P   6     -28.688  29.226  13.149  1.00 20.21 LIG-0.35  N 
ATOM     17 H    HIS P   6     -29.371  28.752  13.370  1.00 20.21 LIG 0.16  HD
BRANCH 16 18
ATOM     18  CA  HIS P   6     -28.971  30.653  12.983  1.00 24.32 LIG 0.18  C 
BRANCH 18 19
ATOM     19  C   HIS P   6     -30.062  31.186  13.922  1.00 31.11 LIG 0.24  C 
ATOM     20  N   ASP P   7     -29.656  31.940  14.938  1.00 28.94 LIG-0.34  N 
ATOM     21 H    ASP P   7     -28.838  32.013  15.192  1.00 28.94 LIG 0.16  HD
ATOM     22 O    HIS P   6     -31.252  30.916  13.727  1.00 27.73 LIG-0.27  OA
BRANCH 20 23
ATOM     23  CA  ASP P   7     -30.612  32.724  15.719  1.00 30.45 LIG 0.20  C 
BRANCH 23 24
ATOM     24  C   ASP P   7     -30.022  34.089  16.126  1.00 38.41 LIG 0.20  C 
ATOM     25 OXT  ASP P   7     -29.246  34.701  15.392  1.00 43.84 LIG-0.65  OA
ATOM     26 O    ASP P   7     -30.285  34.628  17.207  1.00 36.31 LIG-0.65  OA
ENDBRANCH 23 24
BRANCH 23 27
ATOM     27  CB  ASP P   7     -31.080  31.930  16.940  1.00 42.34 LIG 0.15  C 
BRANCH 27 28
ATOM     28  CG  ASP P   7     -29.930  31.548  17.871  1.00 55.06 LIG 0.17  C 
ATOM     29 OD2  ASP P   7     -29.945  31.996  19.036  1.00 62.01 LIG-0.65  OA
ATOM     30 OD1  ASP P   7     -29.014  30.805  17.443  1.00 52.19 LIG-0.65  OA
ENDBRANCH 27 28
ENDBRANCH 23 27
ENDBRANCH 20 23
ENDBRANCH 18 19
BRANCH 18 31
ATOM     31  CB  HIS P   6     -29.351  30.950  11.542  1.00 25.23 LIG 0.10  C 
BRANCH 31 32
ATOM     32  CG  HIS P   6     -28.725  30.023  10.552  1.00 20.03 LIG 0.06  A 
ATOM     33 ND1  HIS P   6     -27.513  30.287   9.953  1.00 23.24 LIG-0.24  NA
ATOM     34  CE1 HIS P   6     -27.215  29.309   9.118  1.00 27.69 LIG 0.23  A 
ATOM     35 NE2  HIS P   6     -28.196  28.423   9.145  1.00 30.02 LIG-0.25  NA
ATOM     36  CD2 HIS P   6     -29.153  28.846  10.037  1.00 26.95 LIG 0.14  A 
ENDBRANCH 31 32
ENDBRANCH 18 31
ENDBRANCH 16 18
ENDBRANCH 1 14
BRANCH 1 37
ATOM     37  N   ARG P   5     -25.987  26.790  12.735  1.00 23.27 LIG-0.35  N 
ATOM     38 H    ARG P   5     -25.544  27.376  12.289  1.00 23.27 LIG 0.16  HD
ATOM     39  C   PHE P   4     -25.533  25.578  13.035  1.00 23.02 LIG 0.24  C 
ATOM     40 O    PHE P   4     -26.180  24.758  13.691  1.00 27.32 LIG-0.27  OA
BRANCH 39 41
ATOM     41  CA  PHE P   4     -24.147  25.243  12.542  1.00 26.78 LIG 0.18  C 
BRANCH 41 42
ATOM     42  CB  PHE P   4     -23.112  26.171  13.185  1.00 27.56 LIG 0.07  C 
BRANCH 42 43
ATOM     43  CG  PHE P   4     -21.920  25.459  13.797  1.00 23.05 LIG-0.06  A 
ATOM     44  CD2 PHE P   4     -20.621  25.848  13.475  1.00 26.81 LIG 0.01  A 
ATOM     45  CE2 PHE P   4     -19.503  25.183  14.008  1.00 20.39 LIG 0.00  A 
ATOM     46  CZ  PHE P   4     -19.694  24.102  14.873  1.00 15.29 LIG 0.00  A 
ATOM     47  CE1 PHE P   4     -20.996  23.702  15.199  1.00 22.67 LIG 0.00  A 
ATOM     48  CD1 PHE P   4     -22.097  24.373  14.655  1.00 22.68 LIG 0.01  A 
ENDBRANCH 42 43
ENDBRANCH 41 42
BRANCH 41 49
ATOM     49  N   PHE P   4     -24.156  25.418  11.097  1.00 24.27 LIG-0.35  N 
ATOM     50 H    PHE P   4     -23.803  26.154  10.826  1.00 24.27 LIG 0.16  HD
ATOM     51  C   GLU P   3     -24.674  24.502  10.283  1.00 33.66 LIG 0.24  C 
ATOM     52 O    GLU P   3     -25.087  23.407  10.665  1.00 34.99 LIG-0.27  OA
BRANCH 51 53
ATOM     53  CA  GLU P   3     -24.717  24.874   8.813  1.00 34.60 LIG 0.18  C 
BRANCH 53 54
ATOM     54  CB  GLU P   3     -24.695  26.395   8.673  1.00 27.84 LIG 0.04  C 
BRANCH 54 55
ATOM     55  CG  GLU P   3     -23.360  26.953   8.200  1.00 43.05 LIG 0.12  C 
BRANCH 55 56
ATOM     56  CD  GLU P   3     -22.199  26.432   9.019  1.00 49.21 LIG 0.17  C 
ATOM     57 OE1  GLU P   3     -21.483  25.535   8.525  1.00 52.28 LIG-0.65  OA
ATOM     58 OE2  GLU P   3     -22.002  26.920  10.153  1.00 52.44 LIG-0.65  OA
ENDBRANCH 55 56
ENDBRANCH 54 55
ENDBRANCH 53 54
BRANCH 53 59
ATOM     59  N   GLU P   3     -25.885  24.308   8.150  1.00 36.80 LIG-0.35  N 
ATOM     60 H    GLU P   3     -26.637  24.616   8.432  1.00 36.80 LIG 0.16  HD
ATOM     61  C   ALA P   2     -25.770  23.392   7.194  1.00 41.96 LIG 0.26  C 
ATOM     62 O    ALA P   2     -24.684  22.930   6.846  1.00 34.80 LIG-0.27  OA
BRANCH 61 63
ATOM     63  CA  ALA P   2     -27.078  22.925   6.537  1.00 47.40 LIG 0.40  C 
ATOM     64  CB  ALA P   2     -28.085  24.062   6.484  1.00 40.76 LIG 0.06  C 
ATOM     65  N   ALA P   2     -27.665  21.759   7.198  1.00 49.60 LIG 0.61  N 
ENDBRANCH 61 63
ENDBRANCH 53 59
ENDBRANCH 51 53
ENDBRANCH 41 49
ENDBRANCH 39 41
ENDBRANCH 1 37
TORSDOF 24
ENDMDL
MODEL 46
USER: ADFR SOLUTION from run 73
USER: SCORE 19.113693 LL:  -4.633 LR: -15.129 RR:   0.000 FEB:  -7.970
USER: RMSD 8.505569
USER: SEED 72
USER: STATUS no improvement in best in 7 clusters for 5 generations
USER: GENES 26
USER: genes 0 Translation |==|  0.40842 0.43548 0.44845
USER: genes 1 Rotation |==|  0.71999 0.67984 0.88208 0.65258
USER: genes 2 Torsion [C]-CA--CB-[CG] |==|  0.17764
USER: genes 3 Torsion [CA]-CB--CG-[CD] |==|  0.32670
USER: genes 4 Torsion [CB]-CG--CD-[NE] |==|  0.40066
USER: genes 5 Torsion [CG]-CD--NE-[CZ] |==|  0.47588
USER: genes 6 Torsion [N]-CA--C-[N] |==|  0.11386
USER: genes 7 Torsion [C]-N--CA-[C] |==|  0.11115
USER: genes 8 Torsion [N]-CA--C-[N] |==|  0.15301
USER: genes 9 Torsion [C]-N--CA-[CB] |==|  0.85420
USER: genes 10 Torsion [N]-CA--C-[OXT] |==|  0.70143
USER: genes 11 Torsion [N]-CA--CB-[CG] |==|  0.75660
USER: genes 12 Torsion [CA]-CB--CG-[OD2] |==|  0.99142
USER: genes 13 Torsion [N]-CA--CB-[CG] |==|  0.83209
USER: genes 14 Torsion [CA]-CB--CG-[ND1] |==|  0.78163
USER: genes 15 Torsion [CB]-CA--N-[C] |==|  0.16630
USER: genes 16 Torsion [N]-C--CA-[N] |==|  0.42417
USER: genes 17 Torsion [C]-CA--CB-[CG] |==|  0.13970
USER: genes 18 Torsion [CA]-CB--CG-[CD2] |==|  0.68160
USER: genes 19 Torsion [C]-CA--N-[C] |==|  0.62492
USER: genes 20 Torsion [N]-C--CA-[N] |==|  0.33333
USER: genes 21 Torsion [C]-CA--CB-[CG] |==|  0.84808
USER: genes 22 Torsion [CA]-CB--CG-[CD] |==|  0.80084
USER: genes 23 Torsion [CB]-CG--CD-[OE1] |==|  0.42598
USER: genes 24 Torsion [C]-CA--N-[C] |==|  0.82764
USER: genes 25 Torsion [N]-C--CA-[N] |==|  0.95343
ROOT
ATOM      1  CA  ARG P   5     -24.765  24.998  12.070  1.00 25.78 LIG 0.18  C 
ENDROOT
BRANCH 1 2
ATOM      2  CB  ARG P   5     -25.281  24.877  10.626  1.00 22.44 LIG 0.04  C 
BRANCH 2 3
ATOM      3  CG  ARG P   5     -25.428  23.435  10.140  1.00 26.51 LIG 0.02  C 
BRANCH 3 4
ATOM      4  CD  ARG P   5     -26.881  23.086   9.799  1.00 28.41 LIG 0.14  C 
BRANCH 4 5
ATOM      5  NE  ARG P   5     -26.972  22.183   8.654  1.00 33.08 LIG-0.23  N 
ATOM      6  CZ  ARG P   5     -28.095  21.592   8.250  1.00 31.92 LIG 0.67  C 
ATOM      7  NH2 ARG P   5     -28.074  20.801   7.191  1.00 32.43 LIG-0.23  N 
ATOM      8  NH1 ARG P   5     -29.243  21.811   8.889  1.00 23.99 LIG-0.23  N 
ATOM      9 2HH2 ARG P   5     -28.796  20.417   6.926  1.00 32.43 LIG 0.17  HD
ATOM     10 1HH2 ARG P   5     -27.337  20.670   6.767  1.00 32.43 LIG 0.17  HD
ATOM     11 2HH1 ARG P   5     -29.964  21.426   8.622  1.00 23.99 LIG 0.17  HD
ATOM     12 1HH1 ARG P   5     -29.263  22.338   9.568  1.00 23.99 LIG 0.17  HD
ATOM     13 HE   ARG P   5     -26.253  22.022   8.212  1.00 33.08 LIG 0.18  HD
ENDBRANCH 4 5
ENDBRANCH 3 4
ENDBRANCH 2 3
ENDBRANCH 1 2
BRANCH 1 14
ATOM     14  C   ARG P   5     -23.348  24.437  12.179  1.00 22.77 LIG 0.24  C 
ATOM     15 O    ARG P   5     -22.896  23.695  11.301  1.00 23.41 LIG-0.27  OA
ATOM     16  N   HIS P   6     -22.657  24.775  13.264  1.00 20.21 LIG-0.35  N 
ATOM     17 H    HIS P   6     -22.966  25.274  13.893  1.00 20.21 LIG 0.16  HD
BRANCH 16 18
ATOM     18  CA  HIS P   6     -21.284  24.314  13.479  1.00 24.32 LIG 0.18  C 
BRANCH 18 19
ATOM     19  C   HIS P   6     -20.420  24.317  12.211  1.00 31.11 LIG 0.24  C 
ATOM     20  N   ASP P   7     -20.335  25.468  11.551  1.00 28.94 LIG-0.34  N 
ATOM     21 H    ASP P   7     -20.845  26.146  11.690  1.00 28.94 LIG 0.16  HD
ATOM     22 O    HIS P   6     -19.841  23.291  11.838  1.00 27.73 LIG-0.27  OA
BRANCH 20 23
ATOM     23  CA  ASP P   7     -19.329  25.662  10.507  1.00 30.45 LIG 0.20  C 
BRANCH 23 24
ATOM     24  C   ASP P   7     -19.669  24.854   9.239  1.00 38.41 LIG 0.20  C 
ATOM     25 OXT  ASP P   7     -19.032  23.849   8.925  1.00 43.84 LIG-0.65  OA
ATOM     26 O    ASP P   7     -20.582  25.180   8.472  1.00 36.31 LIG-0.65  OA
ENDBRANCH 23 24
BRANCH 23 27
ATOM     27  CB  ASP P   7     -17.938  25.312  11.038  1.00 42.34 LIG 0.15  C 
BRANCH 27 28
ATOM     28  CG  ASP P   7     -17.249  26.499  11.712  1.00 55.06 LIG 0.17  C 
ATOM     29 OD2  ASP P   7     -17.838  27.599  11.707  1.00 62.01 LIG-0.65  OA
ATOM     30 OD1  ASP P   7     -16.124  26.336  12.242  1.00 52.19 LIG-0.65  OA
ENDBRANCH 27 28
ENDBRANCH 23 27
ENDBRANCH 20 23
ENDBRANCH 18 19
BRANCH 18 31
ATOM     31  CB  HIS P   6     -21.286  22.923  14.090  1.00 25.23 LIG 0.10  C 
BRANCH 31 32
ATOM     32  CG  HIS P   6     -21.971  22.849  15.416  1.00 20.03 LIG 0.06  A 
ATOM     33 ND1  HIS P   6     -21.369  23.265  16.583  1.00 23.24 LIG-0.24  NA
ATOM     34  CE1 HIS P   6     -22.196  23.071  17.595  1.00 27.69 LIG 0.23  A 
ATOM     35 NE2  HIS P   6     -23.310  22.534  17.126  1.00 30.02 LIG-0.25  NA
ATOM     36  CD2 HIS P   6     -23.194  22.388  15.764  1.00 26.95 LIG 0.14  A 
ENDBRANCH 31 32
ENDBRANCH 18 31
ENDBRANCH 16 18
ENDBRANCH 1 14
BRANCH 1 37
ATOM     37  N   ARG P   5     -24.798  26.385  12.510  1.00 23.27 LIG-0.35  N 
ATOM     38 H    ARG P   5     -24.033  26.709  12.735  1.00 23.27 LIG 0.16  HD
ATOM     39  C   PHE P   4     -25.938  27.066  12.547  1.00 23.02 LIG 0.24  C 
ATOM     40 O    PHE P   4     -27.021  26.586  12.203  1.00 27.32 LIG-0.27  OA
BRANCH 39 41
ATOM     41  CA  PHE P   4     -25.849  28.495  13.021  1.00 26.78 LIG 0.18  C 
BRANCH 41 42
ATOM     42  CB  PHE P   4     -25.963  28.560  14.547  1.00 27.56 LIG 0.07  C 
BRANCH 42 43
ATOM     43  CG  PHE P   4     -25.035  27.615  15.289  1.00 23.05 LIG-0.06  A 
ATOM     44  CD2 PHE P   4     -25.553  26.566  16.048  1.00 26.81 LIG 0.01  A 
ATOM     45  CE2 PHE P   4     -24.713  25.698  16.766  1.00 20.39 LIG 0.00  A 
ATOM     46  CZ  PHE P   4     -23.330  25.892  16.730  1.00 15.29 LIG 0.00  A 
ATOM     47  CE1 PHE P   4     -22.802  26.947  15.973  1.00 22.67 LIG 0.00  A 
ATOM     48  CD1 PHE P   4     -23.654  27.804  15.268  1.00 22.68 LIG 0.01  A 
ENDBRANCH 42 43
ENDBRANCH 41 42
BRANCH 41 49
ATOM     49  N   PHE P   4     -26.949  29.218  12.400  1.00 24.27 LIG-0.35  N 
ATOM     50 H    PHE P   4     -27.704  28.805  12.425  1.00 24.27 LIG 0.16  HD
ATOM     51  C   GLU P   3     -26.777  30.414  11.845  1.00 33.66 LIG 0.24  C 
ATOM     52 O    GLU P   3     -25.721  31.044  11.899  1.00 34.99 LIG-0.27  OA
BRANCH 51 53
ATOM     53  CA  GLU P   3     -27.987  30.993  11.135  1.00 34.60 LIG 0.18  C 
BRANCH 53 54
ATOM     54  CB  GLU P   3     -27.673  31.158   9.649  1.00 27.84 LIG 0.04  C 
BRANCH 54 55
ATOM     55  CG  GLU P   3     -26.421  31.978   9.370  1.00 43.05 LIG 0.12  C 
BRANCH 55 56
ATOM     56  CD  GLU P   3     -26.623  33.449   9.665  1.00 49.21 LIG 0.17  C 
ATOM     57 OE1  GLU P   3     -25.622  34.132   9.971  1.00 52.28 LIG-0.65  OA
ATOM     58 OE2  GLU P   3     -27.778  33.921   9.588  1.00 52.44 LIG-0.65  OA
ENDBRANCH 55 56
ENDBRANCH 54 55
ENDBRANCH 53 54
BRANCH 53 59
ATOM     59  N   GLU P   3     -28.397  32.262  11.723  1.00 36.80 LIG-0.35  N 
ATOM     60 H    GLU P   3     -28.352  32.932  11.187  1.00 36.80 LIG 0.16  HD
ATOM     61  C   ALA P   2     -28.800  32.348  12.987  1.00 41.96 LIG 0.26  C 
ATOM     62 O    ALA P   2     -28.805  31.382  13.748  1.00 34.80 LIG-0.27  OA
BRANCH 61 63
ATOM     63  CA  ALA P   2     -29.263  33.734  13.461  1.00 47.40 LIG 0.40  C 
ATOM     64  CB  ALA P   2     -30.774  33.766  13.626  1.00 40.76 LIG 0.06  C 
ATOM     65  N   ALA P   2     -28.828  34.815  12.576  1.00 49.60 LIG 0.61  N 
ENDBRANCH 61 63
ENDBRANCH 53 59
ENDBRANCH 51 53
ENDBRANCH 41 49
ENDBRANCH 39 41
ENDBRANCH 1 37
TORSDOF 24
ENDMDL
