MODEL 1
USER: ADFR SOLUTION from run 30
USER: SCORE 17.185381 LL:  -3.693 LR: -16.510 RR:   0.000 FEB:  -9.351
USER: RMSD 13.213407
USER: SEED 29
USER: STATUS no improvement in best in 1 clusters for 5 generations
USER: GENES 26
USER: genes 0 Translation |==|  0.45020 0.51860 0.48967
USER: genes 1 Rotation |==|  0.15321 0.28741 0.78570 0.55402
USER: genes 2 Torsion [C]-CA--CB-[OG] |==|  0.23020
USER: genes 3 Torsion [CA]-CB--OG-[HG] |==|  0.06632
USER: genes 4 Torsion [N]-CA--C-[N] |==|  0.45364
USER: genes 5 Torsion [C]-N--CA-[C] |==|  0.60177
USER: genes 6 Torsion [N]-CA--C-[N] |==|  0.46404
USER: genes 7 Torsion [C]-N--CA-[CB] |==|  0.37889
USER: genes 8 Torsion [N]-CA--CB-[OG] |==|  0.17755
USER: genes 9 Torsion [CA]-CB--OG-[HG] |==|  0.79126
USER: genes 10 Torsion [N]-CA--C-[N] |==|  0.59401
USER: genes 11 Torsion [C]-N--CA-[C] |==|  0.66938
USER: genes 12 Torsion [N]-CA--C-[O] |==|  0.23760
USER: genes 13 Torsion [N]-CA--CB-[CG2] |==|  0.18101
USER: genes 14 Torsion [CA]-CB--OG1-[HG1] |==|  0.29359
USER: genes 15 Torsion [N]-CA--CB-[OG] |==|  0.10274
USER: genes 16 Torsion [CA]-CB--OG-[HG] |==|  0.96326
USER: genes 17 Torsion [CB]-CA--N-[C] |==|  0.46369
USER: genes 18 Torsion [N]-C--CA-[N] |==|  0.32267
USER: genes 19 Torsion [C]-CA--N-[C] |==|  0.76177
USER: genes 20 Torsion [N]-C--CA-[N] |==|  0.07472
USER: genes 21 Torsion [C]-CA--N-[C] |==|  0.16667
USER: genes 22 Torsion [N]-C--CA-[N] |==|  0.87000
USER: genes 23 Torsion [C]-CA--CB-[CG] |==|  0.52382
USER: genes 24 Torsion [CA]-CB--CG-[OD1] |==|  0.24316
USER: genes 25 Torsion [C]-CA--CB-[CG1] |==|  0.73058
ROOT
ATOM      1  CA  SER D1363     -23.034  22.364 -38.264  1.00 54.34 LIG 0.20  C 
ENDROOT
BRANCH 1 2
ATOM      2  CB  SER D1363     -23.934  21.310 -37.616  1.00 54.70 LIG 0.20  C 
BRANCH 2 3
ATOM      3 OG   SER D1363     -23.182  20.223 -37.105  1.00 55.13 LIG-0.40  OA
ATOM      4 HG   SER D1363     -22.396  20.474 -36.949  1.00 55.13 LIG 0.21  HD
ENDBRANCH 2 3
ENDBRANCH 1 2
BRANCH 1 5
ATOM      5  C   SER D1363     -22.707  21.957 -39.683  1.00 54.23 LIG 0.24  C 
ATOM      6  N   SER D1364     -21.839  20.963 -39.805  1.00 54.98 LIG-0.34  N 
ATOM      7 H    SER D1364     -21.482  20.560 -39.134  1.00 54.98 LIG 0.16  HD
ATOM      8 O    SER D1363     -23.234  22.517 -40.641  1.00 54.73 LIG-0.27  OA
BRANCH 6 9
ATOM      9  CA  SER D1364     -21.402  20.456 -41.098  1.00 55.87 LIG 0.20  C 
BRANCH 9 10
ATOM     10  C   SER D1364     -21.226  18.928 -40.984  1.00 56.37 LIG 0.24  C 
ATOM     11 O    SER D1364     -21.202  18.397 -39.899  1.00 55.91 LIG-0.27  OA
ATOM     12  N   SER D1365     -21.088  18.232 -42.103  1.00 58.29 LIG-0.34  N 
ATOM     13 H    SER D1365     -21.088  18.571 -42.894  1.00 58.29 LIG 0.16  HD
BRANCH 12 14
ATOM     14  CA  SER D1365     -20.924  16.792 -42.049  1.00 60.08 LIG 0.20  C 
BRANCH 14 15
ATOM     15  CB  SER D1365     -21.777  16.120 -43.103  1.00 57.27 LIG 0.20  C 
BRANCH 15 16
ATOM     16 OG   SER D1365     -21.319  16.520 -44.373  1.00 56.70 LIG-0.40  OA
ATOM     17 HG   SER D1365     -21.568  17.307 -44.525  1.00 56.70 LIG 0.21  HD
ENDBRANCH 15 16
ENDBRANCH 14 15
BRANCH 14 18
ATOM     18  C   SER D1365     -19.483  16.597 -42.436  1.00 61.54 LIG 0.24  C 
ATOM     19  N   THR D1366     -19.252  15.491 -43.122  1.00 60.28 LIG-0.34  N 
ATOM     20 H    THR D1366     -19.854  15.011 -43.504  1.00 60.28 LIG 0.16  HD
ATOM     21 O    SER D1365     -18.622  17.433 -42.182  1.00 62.26 LIG-0.27  OA
BRANCH 19 22
ATOM     22  CA  THR D1366     -17.906  15.021 -43.264  1.00 59.76 LIG 0.19  C 
BRANCH 22 23
ATOM     23  C   THR D1366     -17.417  14.950 -44.726  1.00 59.52 LIG 0.22  C 
ATOM     24 O    THR D1366     -16.935  15.999 -45.234  1.00 43.13 LIG-0.29  OA
ENDBRANCH 22 23
BRANCH 22 25
ATOM     25  CB  THR D1366     -18.026  13.657 -42.530  1.00 59.99 LIG 0.14  C 
ATOM     26  CG2 THR D1366     -18.935  12.678 -43.212  1.00 59.85 LIG 0.04  C 
BRANCH 25 27
ATOM     27 OG1  THR D1366     -16.737  13.119 -42.233  1.00 59.97 LIG-0.39  OA
ATOM     28 HG1  THR D1366     -16.581  13.205 -41.411  1.00 59.97 LIG 0.21  HD
ENDBRANCH 25 27
ENDBRANCH 22 25
ENDBRANCH 19 22
ENDBRANCH 14 18
ENDBRANCH 12 14
ENDBRANCH 9 10
BRANCH 9 29
ATOM     29  CB  SER D1364     -20.069  21.108 -41.474  1.00 55.64 LIG 0.20  C 
BRANCH 29 30
ATOM     30 OG   SER D1364     -19.238  21.287 -40.341  1.00 56.44 LIG-0.40  OA
ATOM     31 HG   SER D1364     -19.689  21.173 -39.642  1.00 56.44 LIG 0.21  HD
ENDBRANCH 29 30
ENDBRANCH 9 29
ENDBRANCH 6 9
ENDBRANCH 1 5
BRANCH 1 32
ATOM     32  N   SER D1363     -23.664  23.672 -38.209  1.00 53.98 LIG-0.34  N 
ATOM     33  C   VAL D1362     -22.976  24.777 -38.471  1.00 54.25 LIG 0.24  C 
ATOM     34 O    VAL D1362     -21.785  24.769 -38.780  1.00 54.63 LIG-0.27  OA
ATOM     35 H    SER D1363     -24.497  23.659 -37.996  1.00 53.98 LIG 0.16  HD
BRANCH 33 36
ATOM     36  CA  VAL D1362     -23.744  26.085 -38.369  1.00 53.82 LIG 0.18  C 
BRANCH 36 37
ATOM     37  N   VAL D1362     -23.179  26.894 -37.303  1.00 55.57 LIG-0.35  N 
ATOM     38  C   ASP D1361     -23.557  26.754 -36.039  1.00 57.59 LIG 0.24  C 
ATOM     39 O    ASP D1361     -24.389  25.927 -35.669  1.00 58.12 LIG-0.27  OA
ATOM     40 H    VAL D1362     -22.589  27.461 -37.566  1.00 55.57 LIG 0.16  HD
BRANCH 38 41
ATOM     41  CA  ASP D1361     -22.875  27.671 -35.043  1.00 59.82 LIG 0.19  C 
BRANCH 41 42
ATOM     42  N   ASP D1361     -22.418  28.920 -35.652  1.00 59.55 LIG-0.34  N 
ATOM     43  C   PRO D1360     -23.255  29.774 -36.239  1.00 59.89 LIG 0.25  C 
ATOM     44 O    PRO D1360     -24.473  29.596 -36.305  1.00 59.45 LIG-0.27  OA
ATOM     45 H    ASP D1361     -21.569  29.048 -35.594  1.00 59.55 LIG 0.16  HD
BRANCH 43 46
ATOM     46  CA  PRO D1360     -22.619  31.027 -36.833  1.00 59.77 LIG 0.35  C 
ATOM     47  N   PRO D1360     -21.668  31.669 -35.903  1.00 58.11 LIG 0.32  N 
ATOM     48  CD  PRO D1360     -20.411  31.968 -36.609  1.00 58.92 LIG 0.32  C 
ATOM     49  CG  PRO D1360     -20.809  31.801 -38.097  1.00 60.40 LIG 0.04  C 
ATOM     50  CB  PRO D1360     -21.840  30.692 -38.097  1.00 59.31 LIG 0.05  C 
ENDBRANCH 43 46
ENDBRANCH 41 42
BRANCH 41 51
ATOM     51  CB  ASP D1361     -23.843  27.943 -33.887  1.00 61.63 LIG 0.15  C 
BRANCH 51 52
ATOM     52  CG  ASP D1361     -23.337  29.014 -32.938  1.00 64.71 LIG 0.17  C 
ATOM     53 OD1  ASP D1361     -23.598  30.210 -33.189  1.00 66.40 LIG-0.65  OA
ATOM     54 OD2  ASP D1361     -22.669  28.655 -31.943  1.00 65.87 LIG-0.65  OA
ENDBRANCH 51 52
ENDBRANCH 41 51
ENDBRANCH 38 41
ENDBRANCH 36 37
BRANCH 36 55
ATOM     55  CB  VAL D1362     -23.669  26.830 -39.721  1.00 52.08 LIG 0.01  C 
ATOM     56  CG1 VAL D1362     -22.561  27.874 -39.691  1.00 50.17 LIG 0.01  C 
ATOM     57  CG2 VAL D1362     -23.434  25.832 -40.838  1.00 49.53 LIG 0.01  C 
ENDBRANCH 36 55
ENDBRANCH 33 36
ENDBRANCH 1 32
TORSDOF 24
ENDMDL
MODEL 2
USER: ADFR SOLUTION from run 102
USER: SCORE 16.585814 LL:  -3.926 LR: -15.471 RR:   0.000 FEB:  -8.312
USER: RMSD 5.085669
USER: SEED 101
USER: STATUS 1 or 2 clusters left
USER: GENES 26
USER: genes 0 Translation |==|  0.65062 0.43957 0.33755
USER: genes 1 Rotation |==|  0.62011 0.01482 0.48707 0.50189
USER: genes 2 Torsion [C]-CA--CB-[OG] |==|  0.58873
USER: genes 3 Torsion [CA]-CB--OG-[HG] |==|  0.80687
USER: genes 4 Torsion [N]-CA--C-[N] |==|  0.30303
USER: genes 5 Torsion [C]-N--CA-[C] |==|  0.68054
USER: genes 6 Torsion [N]-CA--C-[N] |==|  0.40001
USER: genes 7 Torsion [C]-N--CA-[CB] |==|  0.44461
USER: genes 8 Torsion [N]-CA--CB-[OG] |==|  0.57694
USER: genes 9 Torsion [CA]-CB--OG-[HG] |==|  0.03992
USER: genes 10 Torsion [N]-CA--C-[N] |==|  0.30037
USER: genes 11 Torsion [C]-N--CA-[C] |==|  0.10493
USER: genes 12 Torsion [N]-CA--C-[O] |==|  0.11763
USER: genes 13 Torsion [N]-CA--CB-[CG2] |==|  0.57184
USER: genes 14 Torsion [CA]-CB--OG1-[HG1] |==|  0.90980
USER: genes 15 Torsion [N]-CA--CB-[OG] |==|  0.97368
USER: genes 16 Torsion [CA]-CB--OG-[HG] |==|  0.09892
USER: genes 17 Torsion [CB]-CA--N-[C] |==|  0.51422
USER: genes 18 Torsion [N]-C--CA-[N] |==|  0.06627
USER: genes 19 Torsion [C]-CA--N-[C] |==|  0.74444
USER: genes 20 Torsion [N]-C--CA-[N] |==|  0.09125
USER: genes 21 Torsion [C]-CA--N-[C] |==|  0.15552
USER: genes 22 Torsion [N]-C--CA-[N] |==|  0.81082
USER: genes 23 Torsion [C]-CA--CB-[CG] |==|  0.24906
USER: genes 24 Torsion [CA]-CB--CG-[OD1] |==|  0.18701
USER: genes 25 Torsion [C]-CA--CB-[CG1] |==|  0.25627
ROOT
ATOM      1  CA  SER D1363     -19.727  20.171 -40.546  1.00 54.34 LIG 0.20  C 
ENDROOT
BRANCH 1 2
ATOM      2  CB  SER D1363     -18.604  20.610 -41.489  1.00 54.70 LIG 0.20  C 
BRANCH 2 3
ATOM      3 OG   SER D1363     -17.768  19.524 -41.848  1.00 55.13 LIG-0.40  OA
ATOM      4 HG   SER D1363     -17.321  19.281 -41.179  1.00 55.13 LIG 0.21  HD
ENDBRANCH 2 3
ENDBRANCH 1 2
BRANCH 1 5
ATOM      5  C   SER D1363     -20.959  21.012 -40.788  1.00 54.23 LIG 0.24  C 
ATOM      6  N   SER D1364     -21.484  21.579 -39.711  1.00 54.98 LIG-0.34  N 
ATOM      7 H    SER D1364     -21.154  21.492 -38.922  1.00 54.98 LIG 0.16  HD
ATOM      8 O    SER D1363     -21.418  21.156 -41.919  1.00 54.73 LIG-0.27  OA
BRANCH 6 9
ATOM      9  CA  SER D1364     -22.679  22.409 -39.763  1.00 55.87 LIG 0.20  C 
BRANCH 9 10
ATOM     10  C   SER D1364     -22.286  23.847 -39.365  1.00 56.37 LIG 0.24  C 
ATOM     11 O    SER D1364     -21.457  24.037 -38.507  1.00 55.91 LIG-0.27  OA
ATOM     12  N   SER D1365     -22.895  24.851 -39.980  1.00 58.29 LIG-0.34  N 
ATOM     13 H    SER D1365     -23.498  24.760 -40.587  1.00 58.29 LIG 0.16  HD
BRANCH 12 14
ATOM     14  CA  SER D1365     -22.559  26.221 -39.645  1.00 60.08 LIG 0.20  C 
BRANCH 14 15
ATOM     15  CB  SER D1365     -22.980  27.159 -40.756  1.00 57.27 LIG 0.20  C 
BRANCH 15 16
ATOM     16 OG   SER D1365     -22.134  28.284 -40.736  1.00 56.70 LIG-0.40  OA
ATOM     17 HG   SER D1365     -21.463  28.121 -40.258  1.00 56.70 LIG 0.21  HD
ENDBRANCH 15 16
ENDBRANCH 14 15
BRANCH 14 18
ATOM     18  C   SER D1365     -23.431  26.505 -38.452  1.00 61.54 LIG 0.24  C 
ATOM     19  N   THR D1366     -22.773  26.581 -37.308  1.00 60.28 LIG-0.34  N 
ATOM     20 H    THR D1366     -21.921  26.668 -37.232  1.00 60.28 LIG 0.16  HD
ATOM     21 O    SER D1365     -24.635  26.709 -38.560  1.00 62.26 LIG-0.27  OA
BRANCH 19 22
ATOM     22  CA  THR D1366     -23.500  26.517 -36.075  1.00 59.76 LIG 0.19  C 
BRANCH 22 23
ATOM     23  C   THR D1366     -24.685  25.528 -36.095  1.00 59.52 LIG 0.22  C 
ATOM     24 O    THR D1366     -24.503  24.408 -36.647  1.00 43.13 LIG-0.29  OA
ENDBRANCH 22 23
BRANCH 22 25
ATOM     25  CB  THR D1366     -23.880  28.015 -35.916  1.00 59.99 LIG 0.14  C 
ATOM     26  CG2 THR D1366     -24.105  28.437 -34.495  1.00 59.85 LIG 0.04  C 
BRANCH 25 27
ATOM     27 OG1  THR D1366     -22.962  28.854 -36.617  1.00 59.97 LIG-0.39  OA
ATOM     28 HG1  THR D1366     -22.197  28.504 -36.606  1.00 59.97 LIG 0.21  HD
ENDBRANCH 25 27
ENDBRANCH 22 25
ENDBRANCH 19 22
ENDBRANCH 14 18
ENDBRANCH 12 14
ENDBRANCH 9 10
BRANCH 9 29
ATOM     29  CB  SER D1364     -23.718  21.862 -38.781  1.00 55.64 LIG 0.20  C 
BRANCH 29 30
ATOM     30 OG   SER D1364     -23.334  20.603 -38.261  1.00 56.44 LIG-0.40  OA
ATOM     31 HG   SER D1364     -22.500  20.583 -38.161  1.00 56.44 LIG 0.21  HD
ENDBRANCH 29 30
ENDBRANCH 9 29
ENDBRANCH 6 9
ENDBRANCH 1 5
BRANCH 1 32
ATOM     32  N   SER D1363     -20.000  18.754 -40.709  1.00 53.98 LIG-0.34  N 
ATOM     33  C   VAL D1362     -21.004  18.169 -40.066  1.00 54.25 LIG 0.24  C 
ATOM     34 O    VAL D1362     -21.760  18.776 -39.309  1.00 54.63 LIG-0.27  OA
ATOM     35 H    SER D1363     -19.464  18.345 -41.244  1.00 53.98 LIG 0.16  HD
BRANCH 33 36
ATOM     36  CA  VAL D1362     -21.180  16.680 -40.311  1.00 53.82 LIG 0.18  C 
BRANCH 36 37
ATOM     37  N   VAL D1362     -19.915  16.107 -40.738  1.00 55.57 LIG-0.35  N 
ATOM     38  C   ASP D1361     -19.587  16.003 -42.019  1.00 57.59 LIG 0.24  C 
ATOM     39 O    ASP D1361     -20.309  16.394 -42.936  1.00 58.12 LIG-0.27  OA
ATOM     40 H    VAL D1362     -19.409  15.848 -40.092  1.00 55.57 LIG 0.16  HD
BRANCH 38 41
ATOM     41  CA  ASP D1361     -18.232  15.385 -42.304  1.00 59.82 LIG 0.19  C 
BRANCH 41 42
ATOM     42  N   ASP D1361     -17.861  14.369 -41.320  1.00 59.55 LIG-0.34  N 
ATOM     43  C   PRO D1360     -18.632  13.314 -41.059  1.00 59.89 LIG 0.25  C 
ATOM     44 O    PRO D1360     -19.703  13.097 -41.630  1.00 59.45 LIG-0.27  OA
ATOM     45 H    ASP D1361     -17.108  14.516 -40.931  1.00 59.55 LIG 0.16  HD
BRANCH 43 46
ATOM     46  CA  PRO D1360     -18.106  12.351 -40.000  1.00 59.77 LIG 0.35  C 
ATOM     47  N   PRO D1360     -16.898  11.627 -40.448  1.00 58.11 LIG 0.32  N 
ATOM     48  CD  PRO D1360     -15.867  11.690 -39.400  1.00 58.92 LIG 0.32  C 
ATOM     49  CG  PRO D1360     -16.666  12.174 -38.164  1.00 60.40 LIG 0.04  C 
ATOM     50  CB  PRO D1360     -17.724  13.097 -38.730  1.00 59.31 LIG 0.05  C 
ENDBRANCH 43 46
ENDBRANCH 41 42
BRANCH 41 51
ATOM     51  CB  ASP D1361     -18.250  14.800 -43.720  1.00 61.63 LIG 0.15  C 
BRANCH 51 52
ATOM     52  CG  ASP D1361     -17.815  15.802 -44.774  1.00 64.71 LIG 0.17  C 
ATOM     53 OD1  ASP D1361     -16.627  16.190 -44.778  1.00 66.40 LIG-0.65  OA
ATOM     54 OD2  ASP D1361     -18.668  16.207 -45.594  1.00 65.87 LIG-0.65  OA
ENDBRANCH 51 52
ENDBRANCH 41 51
ENDBRANCH 38 41
ENDBRANCH 36 37
BRANCH 36 55
ATOM     55  CB  VAL D1362     -21.678  16.002 -39.014  1.00 52.08 LIG 0.01  C 
ATOM     56  CG1 VAL D1362     -23.200  15.945 -38.996  1.00 50.17 LIG 0.01  C 
ATOM     57  CG2 VAL D1362     -21.089  14.608 -38.913  1.00 49.53 LIG 0.01  C 
ENDBRANCH 36 55
ENDBRANCH 33 36
ENDBRANCH 1 32
TORSDOF 24
ENDMDL
MODEL 3
USER: ADFR SOLUTION from run 157
USER: SCORE 17.322236 LL:  -4.170 LR: -15.452 RR:   0.000 FEB:  -8.293
USER: RMSD 5.113822
USER: SEED 156
USER: STATUS no improvement in best in 4 clusters for 5 generations
USER: GENES 26
USER: genes 0 Translation |==|  0.47182 0.63922 0.50319
USER: genes 1 Rotation |==|  0.57835 0.06879 0.35642 0.69315
USER: genes 2 Torsion [C]-CA--CB-[OG] |==|  0.08407
USER: genes 3 Torsion [CA]-CB--OG-[HG] |==|  0.13564
USER: genes 4 Torsion [N]-CA--C-[N] |==|  0.41395
USER: genes 5 Torsion [C]-N--CA-[C] |==|  0.66852
USER: genes 6 Torsion [N]-CA--C-[N] |==|  0.00785
USER: genes 7 Torsion [C]-N--CA-[CB] |==|  0.26061
USER: genes 8 Torsion [N]-CA--CB-[OG] |==|  0.46832
USER: genes 9 Torsion [CA]-CB--OG-[HG] |==|  0.75886
USER: genes 10 Torsion [N]-CA--C-[N] |==|  0.34731
USER: genes 11 Torsion [C]-N--CA-[C] |==|  0.11329
USER: genes 12 Torsion [N]-CA--C-[O] |==|  0.50381
USER: genes 13 Torsion [N]-CA--CB-[CG2] |==|  0.55220
USER: genes 14 Torsion [CA]-CB--OG1-[HG1] |==|  0.25721
USER: genes 15 Torsion [N]-CA--CB-[OG] |==|  0.14005
USER: genes 16 Torsion [CA]-CB--OG-[HG] |==|  0.04907
USER: genes 17 Torsion [CB]-CA--N-[C] |==|  0.21488
USER: genes 18 Torsion [N]-C--CA-[N] |==|  0.43281
USER: genes 19 Torsion [C]-CA--N-[C] |==|  0.78158
USER: genes 20 Torsion [N]-C--CA-[N] |==|  1.00000
USER: genes 21 Torsion [C]-CA--N-[C] |==|  0.77221
USER: genes 22 Torsion [N]-C--CA-[N] |==|  0.98666
USER: genes 23 Torsion [C]-CA--CB-[CG] |==|  0.55425
USER: genes 24 Torsion [CA]-CB--CG-[OD1] |==|  0.68837
USER: genes 25 Torsion [C]-CA--CB-[CG1] |==|  0.21946
ROOT
ATOM      1  CA  SER D1363     -22.677  25.711 -38.061  1.00 54.34 LIG 0.20  C 
ENDROOT
BRANCH 1 2
ATOM      2  CB  SER D1363     -22.601  26.506 -39.367  1.00 54.70 LIG 0.20  C 
BRANCH 2 3
ATOM      3 OG   SER D1363     -22.586  27.903 -39.128  1.00 55.13 LIG-0.40  OA
ATOM      4 HG   SER D1363     -22.014  28.081 -38.540  1.00 55.13 LIG 0.21  HD
ENDBRANCH 2 3
ENDBRANCH 1 2
BRANCH 1 5
ATOM      5  C   SER D1363     -23.428  26.508 -37.019  1.00 54.23 LIG 0.24  C 
ATOM      6  N   SER D1364     -22.691  27.334 -36.291  1.00 54.98 LIG-0.34  N 
ATOM      7 H    SER D1364     -21.843  27.431 -36.398  1.00 54.98 LIG 0.16  HD
ATOM      8 O    SER D1363     -24.644  26.389 -36.883  1.00 54.73 LIG-0.27  OA
BRANCH 6 9
ATOM      9  CA  SER D1364     -23.251  28.165 -35.235  1.00 55.87 LIG 0.20  C 
BRANCH 9 10
ATOM     10  C   SER D1364     -22.997  29.643 -35.596  1.00 56.37 LIG 0.24  C 
ATOM     11 O    SER D1364     -23.344  30.522 -34.843  1.00 55.91 LIG-0.27  OA
ATOM     12  N   SER D1365     -22.408  29.908 -36.753  1.00 58.29 LIG-0.34  N 
ATOM     13 H    SER D1365     -22.156  29.315 -37.323  1.00 58.29 LIG 0.16  HD
BRANCH 12 14
ATOM     14  CA  SER D1365     -22.143  31.281 -37.137  1.00 60.08 LIG 0.20  C 
BRANCH 14 15
ATOM     15  CB  SER D1365     -20.743  31.687 -36.729  1.00 57.27 LIG 0.20  C 
BRANCH 15 16
ATOM     16 OG   SER D1365     -20.437  32.916 -37.344  1.00 56.70 LIG-0.40  OA
ATOM     17 HG   SER D1365     -20.122  32.775 -38.110  1.00 56.70 LIG 0.21  HD
ENDBRANCH 15 16
ENDBRANCH 14 15
BRANCH 14 18
ATOM     18  C   SER D1365     -22.185  31.232 -38.640  1.00 61.54 LIG 0.24  C 
ATOM     19  N   THR D1366     -23.035  32.085 -39.186  1.00 60.28 LIG-0.34  N 
ATOM     20 H    THR D1366     -23.394  32.753 -38.781  1.00 60.28 LIG 0.16  HD
ATOM     21 O    SER D1365     -21.443  30.501 -39.288  1.00 62.26 LIG-0.27  OA
BRANCH 19 22
ATOM     22  CA  THR D1366     -23.414  31.918 -40.557  1.00 59.76 LIG 0.19  C 
BRANCH 22 23
ATOM     23  C   THR D1366     -23.655  30.450 -40.968  1.00 59.52 LIG 0.22  C 
ATOM     24 O    THR D1366     -23.967  30.221 -42.169  1.00 43.13 LIG-0.29  OA
ENDBRANCH 22 23
BRANCH 22 25
ATOM     25  CB  THR D1366     -22.212  32.618 -41.249  1.00 59.99 LIG 0.14  C 
ATOM     26  CG2 THR D1366     -22.478  33.023 -42.667  1.00 59.85 LIG 0.04  C 
BRANCH 25 27
ATOM     27 OG1  THR D1366     -21.705  33.682 -40.442  1.00 59.97 LIG-0.39  OA
ATOM     28 HG1  THR D1366     -21.083  33.393 -39.955  1.00 59.97 LIG 0.21  HD
ENDBRANCH 25 27
ENDBRANCH 22 25
ENDBRANCH 19 22
ENDBRANCH 14 18
ENDBRANCH 12 14
ENDBRANCH 9 10
BRANCH 9 29
ATOM     29  CB  SER D1364     -22.566  27.827 -33.908  1.00 55.64 LIG 0.20  C 
BRANCH 29 30
ATOM     30 OG   SER D1364     -21.156  27.848 -34.029  1.00 56.44 LIG-0.40  OA
ATOM     31 HG   SER D1364     -20.939  28.268 -34.723  1.00 56.44 LIG 0.21  HD
ENDBRANCH 29 30
ENDBRANCH 9 29
ENDBRANCH 6 9
ENDBRANCH 1 5
BRANCH 1 32
ATOM     32  N   SER D1363     -23.287  24.414 -38.293  1.00 53.98 LIG-0.34  N 
ATOM     33  C   VAL D1362     -22.601  23.422 -38.849  1.00 54.25 LIG 0.24  C 
ATOM     34 O    VAL D1362     -21.425  23.530 -39.194  1.00 54.63 LIG-0.27  OA
ATOM     35 H    SER D1363     -24.108  24.354 -38.043  1.00 53.98 LIG 0.16  HD
BRANCH 33 36
ATOM     36  CA  VAL D1362     -23.353  22.117 -39.050  1.00 53.82 LIG 0.18  C 
BRANCH 36 37
ATOM     37  N   VAL D1362     -22.732  21.362 -40.125  1.00 55.57 LIG-0.35  N 
ATOM     38  C   ASP D1361     -22.946  21.652 -41.402  1.00 57.59 LIG 0.24  C 
ATOM     39 O    ASP D1361     -23.661  22.582 -41.774  1.00 58.12 LIG-0.27  OA
ATOM     40 H    VAL D1362     -22.224  20.722 -39.859  1.00 55.57 LIG 0.16  HD
BRANCH 38 41
ATOM     41  CA  ASP D1361     -22.225  20.774 -42.405  1.00 59.82 LIG 0.19  C 
BRANCH 41 42
ATOM     42  N   ASP D1361     -21.408  19.744 -41.765  1.00 59.55 LIG-0.34  N 
ATOM     43  C   PRO D1360     -20.185  19.992 -41.299  1.00 59.89 LIG 0.25  C 
ATOM     44 O    PRO D1360     -19.650  21.102 -41.351  1.00 59.45 LIG-0.27  OA
ATOM     45 H    ASP D1361     -21.788  18.974 -41.719  1.00 59.55 LIG 0.16  HD
BRANCH 43 46
ATOM     46  CA  PRO D1360     -19.460  18.809 -40.668  1.00 59.77 LIG 0.35  C 
ATOM     47  N   PRO D1360     -20.313  17.604 -40.589  1.00 58.11 LIG 0.32  N 
ATOM     48  CD  PRO D1360     -19.573  16.439 -41.101  1.00 58.92 LIG 0.32  C 
ATOM     49  CG  PRO D1360     -18.112  16.955 -41.141  1.00 60.40 LIG 0.04  C 
ATOM     50  CB  PRO D1360     -18.234  18.425 -41.484  1.00 59.31 LIG 0.05  C 
ENDBRANCH 43 46
ENDBRANCH 41 42
BRANCH 41 51
ATOM     51  CB  ASP D1361     -23.265  20.149 -43.342  1.00 61.63 LIG 0.15  C 
BRANCH 51 52
ATOM     52  CG  ASP D1361     -22.742  18.919 -44.062  1.00 64.71 LIG 0.17  C 
ATOM     53 OD1  ASP D1361     -22.567  18.977 -45.298  1.00 66.40 LIG-0.65  OA
ATOM     54 OD2  ASP D1361     -22.513  17.891 -43.388  1.00 65.87 LIG-0.65  OA
ENDBRANCH 51 52
ENDBRANCH 41 51
ENDBRANCH 38 41
ENDBRANCH 36 37
BRANCH 36 55
ATOM     55  CB  VAL D1362     -23.337  21.308 -37.733  1.00 52.08 LIG 0.01  C 
ATOM     56  CG1 VAL D1362     -24.378  21.852 -36.763  1.00 50.17 LIG 0.01  C 
ATOM     57  CG2 VAL D1362     -23.600  19.845 -38.034  1.00 49.53 LIG 0.01  C 
ENDBRANCH 36 55
ENDBRANCH 33 36
ENDBRANCH 1 32
TORSDOF 24
ENDMDL
MODEL 4
USER: ADFR SOLUTION from run 136
USER: SCORE 16.453587 LL:  -3.895 LR: -15.402 RR:   0.000 FEB:  -8.243
USER: RMSD 4.627799
USER: SEED 135
USER: STATUS no improvement in best in 7 clusters for 5 generations
USER: GENES 26
USER: genes 0 Translation |==|  0.44368 0.49377 0.44078
USER: genes 1 Rotation |==|  0.50699 0.59003 0.50288 0.99177
USER: genes 2 Torsion [C]-CA--CB-[OG] |==|  0.69206
USER: genes 3 Torsion [CA]-CB--OG-[HG] |==|  0.08293
USER: genes 4 Torsion [N]-CA--C-[N] |==|  0.54673
USER: genes 5 Torsion [C]-N--CA-[C] |==|  0.53728
USER: genes 6 Torsion [N]-CA--C-[N] |==|  0.43470
USER: genes 7 Torsion [C]-N--CA-[CB] |==|  0.36255
USER: genes 8 Torsion [N]-CA--CB-[OG] |==|  0.05435
USER: genes 9 Torsion [CA]-CB--OG-[HG] |==|  0.19538
USER: genes 10 Torsion [N]-CA--C-[N] |==|  0.92111
USER: genes 11 Torsion [C]-N--CA-[C] |==|  0.57470
USER: genes 12 Torsion [N]-CA--C-[O] |==|  0.02778
USER: genes 13 Torsion [N]-CA--CB-[CG2] |==|  0.39087
USER: genes 14 Torsion [CA]-CB--OG1-[HG1] |==|  0.02292
USER: genes 15 Torsion [N]-CA--CB-[OG] |==|  0.45457
USER: genes 16 Torsion [CA]-CB--OG-[HG] |==|  0.15630
USER: genes 17 Torsion [CB]-CA--N-[C] |==|  0.48902
USER: genes 18 Torsion [N]-C--CA-[N] |==|  0.33501
USER: genes 19 Torsion [C]-CA--N-[C] |==|  0.67582
USER: genes 20 Torsion [N]-C--CA-[N] |==|  0.92568
USER: genes 21 Torsion [C]-CA--N-[C] |==|  0.83954
USER: genes 22 Torsion [N]-C--CA-[N] |==|  0.36405
USER: genes 23 Torsion [C]-CA--CB-[CG] |==|  0.54073
USER: genes 24 Torsion [CA]-CB--CG-[OD1] |==|  0.42685
USER: genes 25 Torsion [C]-CA--CB-[CG1] |==|  0.54030
ROOT
ATOM      1  CA  SER D1363     -23.141  21.675 -38.997  1.00 54.34 LIG 0.20  C 
ENDROOT
BRANCH 1 2
ATOM      2  CB  SER D1363     -23.922  21.448 -37.701  1.00 54.70 LIG 0.20  C 
BRANCH 2 3
ATOM      3 OG   SER D1363     -23.382  20.376 -36.947  1.00 55.13 LIG-0.40  OA
ATOM      4 HG   SER D1363     -22.556  20.320 -37.091  1.00 55.13 LIG 0.21  HD
ENDBRANCH 2 3
ENDBRANCH 1 2
BRANCH 1 5
ATOM      5  C   SER D1363     -22.387  22.983 -38.919  1.00 54.23 LIG 0.24  C 
ATOM      6  N   SER D1364     -23.042  23.986 -38.352  1.00 54.98 LIG-0.34  N 
ATOM      7 H    SER D1364     -23.838  23.913 -38.037  1.00 54.98 LIG 0.16  HD
ATOM      8 O    SER D1363     -21.240  23.081 -39.349  1.00 54.73 LIG-0.27  OA
BRANCH 6 9
ATOM      9  CA  SER D1364     -22.469  25.317 -38.209  1.00 55.87 LIG 0.20  C 
BRANCH 9 10
ATOM     10  C   SER D1364     -23.347  26.117 -37.225  1.00 56.37 LIG 0.24  C 
ATOM     11 O    SER D1364     -24.506  25.820 -37.061  1.00 55.91 LIG-0.27  OA
ATOM     12  N   SER D1365     -22.793  27.139 -36.586  1.00 58.29 LIG-0.34  N 
ATOM     13 H    SER D1365     -21.977  27.392 -36.682  1.00 58.29 LIG 0.16  HD
BRANCH 12 14
ATOM     14  CA  SER D1365     -23.575  27.920 -35.648  1.00 60.08 LIG 0.20  C 
BRANCH 14 15
ATOM     15  CB  SER D1365     -22.831  28.079 -34.339  1.00 57.27 LIG 0.20  C 
BRANCH 15 16
ATOM     16 OG   SER D1365     -21.465  27.826 -34.567  1.00 56.70 LIG-0.40  OA
ATOM     17 HG   SER D1365     -21.136  28.452 -35.019  1.00 56.70 LIG 0.21  HD
ENDBRANCH 15 16
ENDBRANCH 14 15
BRANCH 14 18
ATOM     18  C   SER D1365     -23.643  29.274 -36.302  1.00 61.54 LIG 0.24  C 
ATOM     19  N   THR D1366     -22.610  29.551 -37.079  1.00 60.28 LIG-0.34  N 
ATOM     20 H    THR D1366     -22.041  28.976 -37.370  1.00 60.28 LIG 0.16  HD
ATOM     21 O    SER D1365     -24.610  30.015 -36.164  1.00 62.26 LIG-0.27  OA
BRANCH 19 22
ATOM     22  CA  THR D1366     -22.385  30.905 -37.490  1.00 59.76 LIG 0.19  C 
BRANCH 22 23
ATOM     23  C   THR D1366     -21.632  31.036 -38.831  1.00 59.52 LIG 0.22  C 
ATOM     24 O    THR D1366     -21.466  29.988 -39.514  1.00 43.13 LIG-0.29  OA
ENDBRANCH 22 23
BRANCH 22 25
ATOM     25  CB  THR D1366     -21.628  31.436 -36.242  1.00 59.99 LIG 0.14  C 
ATOM     26  CG2 THR D1366     -20.496  32.364 -36.567  1.00 59.85 LIG 0.04  C 
BRANCH 25 27
ATOM     27 OG1  THR D1366     -22.538  31.969 -35.279  1.00 59.97 LIG-0.39  OA
ATOM     28 HG1  THR D1366     -23.326  31.796 -35.513  1.00 59.97 LIG 0.21  HD
ENDBRANCH 25 27
ENDBRANCH 22 25
ENDBRANCH 19 22
ENDBRANCH 14 18
ENDBRANCH 12 14
ENDBRANCH 9 10
BRANCH 9 29
ATOM     29  CB  SER D1364     -22.452  26.010 -39.574  1.00 55.64 LIG 0.20  C 
BRANCH 29 30
ATOM     30 OG   SER D1364     -22.262  27.407 -39.448  1.00 56.44 LIG-0.40  OA
ATOM     31 HG   SER D1364     -21.555  27.557 -39.020  1.00 56.44 LIG 0.21  HD
ENDBRANCH 29 30
ENDBRANCH 9 29
ENDBRANCH 6 9
ENDBRANCH 1 5
BRANCH 1 32
ATOM     32  N   SER D1363     -22.254  20.555 -39.257  1.00 53.98 LIG-0.34  N 
ATOM     33  C   VAL D1362     -21.532  20.494 -40.370  1.00 54.25 LIG 0.24  C 
ATOM     34 O    VAL D1362     -21.559  21.368 -41.236  1.00 54.63 LIG-0.27  OA
ATOM     35 H    SER D1363     -22.244  19.955 -38.640  1.00 53.98 LIG 0.16  HD
BRANCH 33 36
ATOM     36  CA  VAL D1362     -20.651  19.267 -40.532  1.00 53.82 LIG 0.18  C 
BRANCH 36 37
ATOM     37  N   VAL D1362     -21.030  18.556 -41.740  1.00 55.57 LIG-0.35  N 
ATOM     38  C   ASP D1361     -21.517  17.322 -41.707  1.00 57.59 LIG 0.24  C 
ATOM     39 O    ASP D1361     -21.703  16.696 -40.664  1.00 58.12 LIG-0.27  OA
ATOM     40 H    VAL D1362     -20.910  19.003 -42.465  1.00 55.57 LIG 0.16  HD
BRANCH 38 41
ATOM     41  CA  ASP D1361     -21.867  16.716 -43.051  1.00 59.82 LIG 0.19  C 
BRANCH 41 42
ATOM     42  N   ASP D1361     -22.203  17.728 -44.053  1.00 59.55 LIG-0.34  N 
ATOM     43  C   PRO D1360     -23.189  18.607 -43.875  1.00 59.89 LIG 0.25  C 
ATOM     44 O    PRO D1360     -23.883  18.653 -42.857  1.00 59.45 LIG-0.27  OA
ATOM     45 H    ASP D1361     -21.710  17.702 -44.757  1.00 59.55 LIG 0.16  HD
BRANCH 43 46
ATOM     46  CA  PRO D1360     -23.418  19.590 -45.017  1.00 59.77 LIG 0.35  C 
ATOM     47  N   PRO D1360     -24.840  19.672 -45.413  1.00 58.11 LIG 0.32  N 
ATOM     48  CD  PRO D1360     -25.246  21.084 -45.510  1.00 58.92 LIG 0.32  C 
ATOM     49  CG  PRO D1360     -23.887  21.830 -45.509  1.00 60.40 LIG 0.04  C 
ATOM     50  CB  PRO D1360     -22.993  20.996 -44.617  1.00 59.31 LIG 0.05  C 
ENDBRANCH 43 46
ENDBRANCH 41 42
BRANCH 41 51
ATOM     51  CB  ASP D1361     -20.692  15.849 -43.518  1.00 61.63 LIG 0.15  C 
BRANCH 51 52
ATOM     52  CG  ASP D1361     -20.780  15.484 -44.989  1.00 64.71 LIG 0.17  C 
ATOM     53 OD1  ASP D1361     -19.724  15.237 -45.609  1.00 66.40 LIG-0.65  OA
ATOM     54 OD2  ASP D1361     -21.910  15.454 -45.524  1.00 65.87 LIG-0.65  OA
ENDBRANCH 51 52
ENDBRANCH 41 51
ENDBRANCH 38 41
ENDBRANCH 36 37
BRANCH 36 55
ATOM     55  CB  VAL D1362     -19.169  19.703 -40.595  1.00 52.08 LIG 0.01  C 
ATOM     56  CG1 VAL D1362     -18.302  18.561 -41.108  1.00 50.17 LIG 0.01  C 
ATOM     57  CG2 VAL D1362     -19.037  20.920 -41.490  1.00 49.53 LIG 0.01  C 
ENDBRANCH 36 55
ENDBRANCH 33 36
ENDBRANCH 1 32
TORSDOF 24
ENDMDL
MODEL 5
USER: ADFR SOLUTION from run 123
USER: SCORE 15.817168 LL:  -3.755 LR: -15.150 RR:   0.000 FEB:  -7.991
USER: RMSD 13.679794
USER: SEED 122
USER: STATUS no improvement in best in 2 clusters for 5 generations
USER: GENES 26
USER: genes 0 Translation |==|  0.56931 0.42536 0.29863
USER: genes 1 Rotation |==|  0.27725 0.58423 0.06883 0.58589
USER: genes 2 Torsion [C]-CA--CB-[OG] |==|  0.66845
USER: genes 3 Torsion [CA]-CB--OG-[HG] |==|  0.09045
USER: genes 4 Torsion [N]-CA--C-[N] |==|  0.46554
USER: genes 5 Torsion [C]-N--CA-[C] |==|  0.79458
USER: genes 6 Torsion [N]-CA--C-[N] |==|  0.41482
USER: genes 7 Torsion [C]-N--CA-[CB] |==|  0.35667
USER: genes 8 Torsion [N]-CA--CB-[OG] |==|  0.53595
USER: genes 9 Torsion [CA]-CB--OG-[HG] |==|  0.94185
USER: genes 10 Torsion [N]-CA--C-[N] |==|  0.63629
USER: genes 11 Torsion [C]-N--CA-[C] |==|  0.67105
USER: genes 12 Torsion [N]-CA--C-[O] |==|  0.75612
USER: genes 13 Torsion [N]-CA--CB-[CG2] |==|  0.63493
USER: genes 14 Torsion [CA]-CB--OG1-[HG1] |==|  0.75149
USER: genes 15 Torsion [N]-CA--CB-[OG] |==|  0.88012
USER: genes 16 Torsion [CA]-CB--OG-[HG] |==|  0.17484
USER: genes 17 Torsion [CB]-CA--N-[C] |==|  0.26233
USER: genes 18 Torsion [N]-C--CA-[N] |==|  0.44027
USER: genes 19 Torsion [C]-CA--N-[C] |==|  0.81653
USER: genes 20 Torsion [N]-C--CA-[N] |==|  0.30556
USER: genes 21 Torsion [C]-CA--N-[C] |==|  0.79248
USER: genes 22 Torsion [N]-C--CA-[N] |==|  0.18379
USER: genes 23 Torsion [C]-CA--CB-[CG] |==|  0.37363
USER: genes 24 Torsion [CA]-CB--CG-[OD1] |==|  0.59622
USER: genes 25 Torsion [C]-CA--CB-[CG1] |==|  0.20933
ROOT
ATOM      1  CA  SER D1363     -21.068  19.777 -41.129  1.00 54.34 LIG 0.20  C 
ENDROOT
BRANCH 1 2
ATOM      2  CB  SER D1363     -19.669  20.343 -41.381  1.00 54.70 LIG 0.20  C 
BRANCH 2 3
ATOM      3 OG   SER D1363     -19.258  21.206 -40.335  1.00 55.13 LIG-0.40  OA
ATOM      4 HG   SER D1363     -19.586  20.941 -39.608  1.00 55.13 LIG 0.21  HD
ENDBRANCH 2 3
ENDBRANCH 1 2
BRANCH 1 5
ATOM      5  C   SER D1363     -21.004  18.269 -41.044  1.00 54.23 LIG 0.24  C 
ATOM      6  N   SER D1364     -20.737  17.644 -42.182  1.00 54.98 LIG-0.34  N 
ATOM      7 H    SER D1364     -20.597  18.053 -42.925  1.00 54.98 LIG 0.16  HD
ATOM      8 O    SER D1363     -21.180  17.685 -39.977  1.00 54.73 LIG-0.27  OA
BRANCH 6 9
ATOM      9  CA  SER D1364     -20.652  16.194 -42.281  1.00 55.87 LIG 0.20  C 
BRANCH 9 10
ATOM     10  C   SER D1364     -19.330  15.741 -41.627  1.00 56.37 LIG 0.24  C 
ATOM     11 O    SER D1364     -18.358  16.456 -41.661  1.00 55.91 LIG-0.27  OA
ATOM     12  N   SER D1365     -19.298  14.547 -41.051  1.00 58.29 LIG-0.34  N 
ATOM     13 H    SER D1365     -19.963  14.002 -41.015  1.00 58.29 LIG 0.16  HD
BRANCH 12 14
ATOM     14  CA  SER D1365     -18.081  14.077 -40.420  1.00 60.08 LIG 0.20  C 
BRANCH 14 15
ATOM     15  CB  SER D1365     -18.360  13.609 -39.007  1.00 57.27 LIG 0.20  C 
BRANCH 15 16
ATOM     16 OG   SER D1365     -17.132  13.447 -38.339  1.00 56.70 LIG-0.40  OA
ATOM     17 HG   SER D1365     -16.516  13.358 -38.903  1.00 56.70 LIG 0.21  HD
ENDBRANCH 15 16
ENDBRANCH 14 15
BRANCH 14 18
ATOM     18  C   SER D1365     -17.716  12.868 -41.238  1.00 61.54 LIG 0.24  C 
ATOM     19  N   THR D1366     -17.440  11.793 -40.519  1.00 60.28 LIG-0.34  N 
ATOM     20 H    THR D1366     -17.632  11.691 -39.688  1.00 60.28 LIG 0.16  HD
ATOM     21 O    SER D1365     -17.739  12.880 -42.463  1.00 62.26 LIG-0.27  OA
BRANCH 19 22
ATOM     22  CA  THR D1366     -16.769  10.688 -41.138  1.00 59.76 LIG 0.19  C 
BRANCH 22 23
ATOM     23  C   THR D1366     -17.586   9.379 -41.141  1.00 59.52 LIG 0.22  C 
ATOM     24 O    THR D1366     -17.483   8.622 -40.137  1.00 43.13 LIG-0.29  OA
ENDBRANCH 22 23
BRANCH 22 25
ATOM     25  CB  THR D1366     -15.468  10.664 -40.289  1.00 59.99 LIG 0.14  C 
ATOM     26  CG2 THR D1366     -14.212  10.591 -41.104  1.00 59.85 LIG 0.04  C 
BRANCH 25 27
ATOM     27 OG1  THR D1366     -15.460  11.723 -39.331  1.00 59.97 LIG-0.39  OA
ATOM     28 HG1  THR D1366     -15.112  12.408 -39.673  1.00 59.97 LIG 0.21  HD
ENDBRANCH 25 27
ENDBRANCH 22 25
ENDBRANCH 19 22
ENDBRANCH 14 18
ENDBRANCH 12 14
ENDBRANCH 9 10
BRANCH 9 29
ATOM     29  CB  SER D1364     -20.671  15.785 -43.756  1.00 55.64 LIG 0.20  C 
BRANCH 29 30
ATOM     30 OG   SER D1364     -21.639  16.515 -44.487  1.00 56.44 LIG-0.40  OA
ATOM     31 HG   SER D1364     -21.442  17.332 -44.476  1.00 56.44 LIG 0.21  HD
ENDBRANCH 29 30
ENDBRANCH 9 29
ENDBRANCH 6 9
ENDBRANCH 1 5
BRANCH 1 32
ATOM     32  N   SER D1363     -21.643  20.362 -39.931  1.00 53.98 LIG-0.34  N 
ATOM     33  C   VAL D1362     -22.436  21.425 -39.997  1.00 54.25 LIG 0.24  C 
ATOM     34 O    VAL D1362     -22.738  21.971 -41.058  1.00 54.63 LIG-0.27  OA
ATOM     35 H    SER D1363     -21.425  19.966 -39.199  1.00 53.98 LIG 0.16  HD
BRANCH 33 36
ATOM     36  CA  VAL D1362     -22.965  21.951 -38.673  1.00 53.82 LIG 0.18  C 
BRANCH 36 37
ATOM     37  N   VAL D1362     -23.364  23.339 -38.830  1.00 55.57 LIG-0.35  N 
ATOM     38  C   ASP D1361     -22.485  24.298 -39.086  1.00 57.59 LIG 0.24  C 
ATOM     39 O    ASP D1361     -21.280  24.091 -39.228  1.00 58.12 LIG-0.27  OA
ATOM     40 H    VAL D1362     -24.209  23.475 -38.742  1.00 55.57 LIG 0.16  HD
BRANCH 38 41
ATOM     41  CA  ASP D1361     -23.056  25.695 -39.223  1.00 59.82 LIG 0.19  C 
BRANCH 41 42
ATOM     42  N   ASP D1361     -22.685  26.565 -38.107  1.00 59.55 LIG-0.34  N 
ATOM     43  C   PRO D1360     -23.243  26.455 -36.902  1.00 59.89 LIG 0.25  C 
ATOM     44 O    PRO D1360     -24.096  25.610 -36.622  1.00 59.45 LIG-0.27  OA
ATOM     45 H    ASP D1361     -22.082  27.146 -38.301  1.00 59.55 LIG 0.16  HD
BRANCH 43 46
ATOM     46  CA  PRO D1360     -22.753  27.444 -35.850  1.00 59.77 LIG 0.35  C 
ATOM     47  N   PRO D1360     -23.124  28.837 -36.171  1.00 58.11 LIG 0.32  N 
ATOM     48  CD  PRO D1360     -23.716  29.479 -34.986  1.00 58.92 LIG 0.32  C 
ATOM     49  CG  PRO D1360     -23.334  28.502 -33.845  1.00 60.40 LIG 0.04  C 
ATOM     50  CB  PRO D1360     -23.360  27.132 -34.489  1.00 59.31 LIG 0.05  C 
ENDBRANCH 43 46
ENDBRANCH 41 42
BRANCH 41 51
ATOM     51  CB  ASP D1361     -22.590  26.284 -40.559  1.00 61.63 LIG 0.15  C 
BRANCH 51 52
ATOM     52  CG  ASP D1361     -23.712  26.962 -41.325  1.00 64.71 LIG 0.17  C 
ATOM     53 OD1  ASP D1361     -23.710  26.898 -42.572  1.00 66.40 LIG-0.65  OA
ATOM     54 OD2  ASP D1361     -24.591  27.567 -40.673  1.00 65.87 LIG-0.65  OA
ENDBRANCH 51 52
ENDBRANCH 41 51
ENDBRANCH 38 41
ENDBRANCH 36 37
BRANCH 36 55
ATOM     55  CB  VAL D1362     -24.162  21.085 -38.219  1.00 52.08 LIG 0.01  C 
ATOM     56  CG1 VAL D1362     -23.675  19.746 -37.681  1.00 50.17 LIG 0.01  C 
ATOM     57  CG2 VAL D1362     -24.954  21.830 -37.161  1.00 49.53 LIG 0.01  C 
ENDBRANCH 36 55
ENDBRANCH 33 36
ENDBRANCH 1 32
TORSDOF 24
ENDMDL
MODEL 6
USER: ADFR SOLUTION from run 27
USER: SCORE 17.212717 LL:  -4.983 LR: -15.108 RR:   0.000 FEB:  -7.949
USER: RMSD 12.248443
USER: SEED 26
USER: STATUS no improvement in best in 2 clusters for 5 generations
USER: GENES 26
USER: genes 0 Translation |==|  0.45739 0.52324 0.50907
USER: genes 1 Rotation |==|  0.16177 0.33398 0.82601 0.54191
USER: genes 2 Torsion [C]-CA--CB-[OG] |==|  0.14126
USER: genes 3 Torsion [CA]-CB--OG-[HG] |==|  0.03525
USER: genes 4 Torsion [N]-CA--C-[N] |==|  0.32206
USER: genes 5 Torsion [C]-N--CA-[C] |==|  0.81322
USER: genes 6 Torsion [N]-CA--C-[N] |==|  0.93113
USER: genes 7 Torsion [C]-N--CA-[CB] |==|  0.21667
USER: genes 8 Torsion [N]-CA--CB-[OG] |==|  0.75205
USER: genes 9 Torsion [CA]-CB--OG-[HG] |==|  0.09797
USER: genes 10 Torsion [N]-CA--C-[N] |==|  0.28241
USER: genes 11 Torsion [C]-N--CA-[C] |==|  0.81593
USER: genes 12 Torsion [N]-CA--C-[O] |==|  0.28357
USER: genes 13 Torsion [N]-CA--CB-[CG2] |==|  0.41959
USER: genes 14 Torsion [CA]-CB--OG1-[HG1] |==|  0.97710
USER: genes 15 Torsion [N]-CA--CB-[OG] |==|  0.04109
USER: genes 16 Torsion [CA]-CB--OG-[HG] |==|  0.11028
USER: genes 17 Torsion [CB]-CA--N-[C] |==|  0.44696
USER: genes 18 Torsion [N]-C--CA-[N] |==|  0.28525
USER: genes 19 Torsion [C]-CA--N-[C] |==|  0.75505
USER: genes 20 Torsion [N]-C--CA-[N] |==|  0.09377
USER: genes 21 Torsion [C]-CA--N-[C] |==|  0.15826
USER: genes 22 Torsion [N]-C--CA-[N] |==|  0.86739
USER: genes 23 Torsion [C]-CA--CB-[CG] |==|  0.52679
USER: genes 24 Torsion [CA]-CB--CG-[OD1] |==|  0.71830
USER: genes 25 Torsion [C]-CA--CB-[CG1] |==|  0.26306
ROOT
ATOM      1  CA  SER D1363     -22.915  22.493 -37.973  1.00 54.34 LIG 0.20  C 
ENDROOT
BRANCH 1 2
ATOM      2  CB  SER D1363     -23.776  21.667 -37.014  1.00 54.70 LIG 0.20  C 
BRANCH 2 3
ATOM      3 OG   SER D1363     -23.341  20.319 -36.952  1.00 55.13 LIG-0.40  OA
ATOM      4 HG   SER D1363     -22.587  20.251 -37.315  1.00 55.13 LIG 0.21  HD
ENDBRANCH 2 3
ENDBRANCH 1 2
BRANCH 1 5
ATOM      5  C   SER D1363     -22.809  21.786 -39.305  1.00 54.23 LIG 0.24  C 
ATOM      6  N   SER D1364     -21.578  21.488 -39.696  1.00 54.98 LIG-0.34  N 
ATOM      7 H    SER D1364     -20.877  21.667 -39.232  1.00 54.98 LIG 0.16  HD
ATOM      8 O    SER D1363     -23.812  21.508 -39.958  1.00 54.73 LIG-0.27  OA
BRANCH 6 9
ATOM      9  CA  SER D1364     -21.295  20.820 -40.958  1.00 55.87 LIG 0.20  C 
BRANCH 9 10
ATOM     10  C   SER D1364     -21.852  19.384 -40.882  1.00 56.37 LIG 0.24  C 
ATOM     11 O    SER D1364     -22.161  18.796 -41.891  1.00 55.91 LIG-0.27  OA
ATOM     12  N   SER D1365     -21.992  18.834 -39.684  1.00 58.29 LIG-0.34  N 
ATOM     13 H    SER D1365     -21.796  19.221 -38.941  1.00 58.29 LIG 0.16  HD
BRANCH 12 14
ATOM     14  CA  SER D1365     -22.509  17.485 -39.559  1.00 60.08 LIG 0.20  C 
BRANCH 14 15
ATOM     15  CB  SER D1365     -21.433  16.471 -39.885  1.00 57.27 LIG 0.20  C 
BRANCH 15 16
ATOM     16 OG   SER D1365     -21.472  16.207 -41.267  1.00 56.70 LIG-0.40  OA
ATOM     17 HG   SER D1365     -21.673  16.909 -41.681  1.00 56.70 LIG 0.21  HD
ENDBRANCH 15 16
ENDBRANCH 14 15
BRANCH 14 18
ATOM     18  C   SER D1365     -22.815  17.370 -38.090  1.00 61.54 LIG 0.24  C 
ATOM     19  N   THR D1366     -24.096  17.500 -37.793  1.00 60.28 LIG-0.34  N 
ATOM     20 H    THR D1366     -24.742  17.453 -38.358  1.00 60.28 LIG 0.16  HD
ATOM     21 O    SER D1365     -21.947  17.114 -37.263  1.00 62.26 LIG-0.27  OA
BRANCH 19 22
ATOM     22  CA  THR D1366     -24.481  17.740 -36.434  1.00 59.76 LIG 0.19  C 
BRANCH 22 23
ATOM     23  C   THR D1366     -24.187  16.562 -35.481  1.00 59.52 LIG 0.22  C 
ATOM     24 O    THR D1366     -23.175  16.652 -34.734  1.00 43.13 LIG-0.29  OA
ENDBRANCH 22 23
BRANCH 22 25
ATOM     25  CB  THR D1366     -25.984  18.074 -36.642  1.00 59.99 LIG 0.14  C 
ATOM     26  CG2 THR D1366     -26.852  17.723 -35.472  1.00 59.85 LIG 0.04  C 
BRANCH 25 27
ATOM     27 OG1  THR D1366     -26.153  19.420 -37.088  1.00 59.97 LIG-0.39  OA
ATOM     28 HG1  THR D1366     -25.416  19.823 -37.050  1.00 59.97 LIG 0.21  HD
ENDBRANCH 25 27
ENDBRANCH 22 25
ENDBRANCH 19 22
ENDBRANCH 14 18
ENDBRANCH 12 14
ENDBRANCH 9 10
BRANCH 9 29
ATOM     29  CB  SER D1364     -19.781  20.780 -41.181  1.00 55.64 LIG 0.20  C 
BRANCH 29 30
ATOM     30 OG   SER D1364     -19.070  21.078 -39.993  1.00 56.44 LIG-0.40  OA
ATOM     31 HG   SER D1364     -19.451  20.714 -39.339  1.00 56.44 LIG 0.21  HD
ENDBRANCH 29 30
ENDBRANCH 9 29
ENDBRANCH 6 9
ENDBRANCH 1 5
BRANCH 1 32
ATOM     32  N   SER D1363     -23.458  23.833 -38.114  1.00 53.98 LIG-0.34  N 
ATOM     33  C   VAL D1362     -22.712  24.831 -38.574  1.00 54.25 LIG 0.24  C 
ATOM     34 O    VAL D1362     -21.537  24.691 -38.911  1.00 54.63 LIG-0.27  OA
ATOM     35 H    SER D1363     -24.281  23.913 -37.877  1.00 53.98 LIG 0.16  HD
BRANCH 33 36
ATOM     36  CA  VAL D1362     -23.391  26.188 -38.664  1.00 53.82 LIG 0.18  C 
BRANCH 36 37
ATOM     37  N   VAL D1362     -22.958  27.019 -37.554  1.00 55.57 LIG-0.35  N 
ATOM     38  C   ASP D1361     -23.582  27.009 -36.384  1.00 57.59 LIG 0.24  C 
ATOM     39 O    ASP D1361     -24.552  26.292 -36.140  1.00 58.12 LIG-0.27  OA
ATOM     40 H    VAL D1362     -22.272  27.508 -37.726  1.00 55.57 LIG 0.16  HD
BRANCH 38 41
ATOM     41  CA  ASP D1361     -23.010  27.931 -35.325  1.00 59.82 LIG 0.19  C 
BRANCH 41 42
ATOM     42  N   ASP D1361     -22.459  29.162 -35.891  1.00 59.55 LIG-0.34  N 
ATOM     43  C   PRO D1360     -23.186  29.991 -36.639  1.00 59.89 LIG 0.25  C 
ATOM     44 O    PRO D1360     -24.376  29.802 -36.901  1.00 59.45 LIG-0.27  OA
ATOM     45 H    ASP D1361     -21.632  29.297 -35.696  1.00 59.55 LIG 0.16  HD
BRANCH 43 46
ATOM     46  CA  PRO D1360     -22.461  31.226 -37.160  1.00 59.77 LIG 0.35  C 
ATOM     47  N   PRO D1360     -21.696  31.918 -36.101  1.00 58.11 LIG 0.32  N 
ATOM     48  CD  PRO D1360     -20.334  32.204 -36.582  1.00 58.92 LIG 0.32  C 
ATOM     49  CG  PRO D1360     -20.456  31.973 -38.109  1.00 60.40 LIG 0.04  C 
ATOM     50  CB  PRO D1360     -21.464  30.851 -38.248  1.00 59.31 LIG 0.05  C 
ENDBRANCH 43 46
ENDBRANCH 41 42
BRANCH 41 51
ATOM     51  CB  ASP D1361     -24.108  28.239 -34.301  1.00 61.63 LIG 0.15  C 
BRANCH 51 52
ATOM     52  CG  ASP D1361     -23.712  29.335 -33.328  1.00 64.71 LIG 0.17  C 
ATOM     53 OD1  ASP D1361     -23.336  29.012 -32.181  1.00 66.40 LIG-0.65  OA
ATOM     54 OD2  ASP D1361     -23.787  30.523 -33.712  1.00 65.87 LIG-0.65  OA
ENDBRANCH 51 52
ENDBRANCH 41 51
ENDBRANCH 38 41
ENDBRANCH 36 37
BRANCH 36 55
ATOM     55  CB  VAL D1362     -23.036  26.850 -40.015  1.00 52.08 LIG 0.01  C 
ATOM     56  CG1 VAL D1362     -24.117  26.562 -41.048  1.00 50.17 LIG 0.01  C 
ATOM     57  CG2 VAL D1362     -22.869  28.345 -39.818  1.00 49.53 LIG 0.01  C 
ENDBRANCH 36 55
ENDBRANCH 33 36
ENDBRANCH 1 32
TORSDOF 24
ENDMDL
MODEL 7
USER: ADFR SOLUTION from run 110
USER: SCORE 16.080059 LL:  -3.607 LR: -14.959 RR:   0.000 FEB:  -7.800
USER: RMSD 3.926174
USER: SEED 109
USER: STATUS no improvement in best in 4 clusters for 5 generations
USER: GENES 26
USER: genes 0 Translation |==|  0.39906 0.48746 0.48959
USER: genes 1 Rotation |==|  0.46166 0.55770 0.47755 0.99467
USER: genes 2 Torsion [C]-CA--CB-[OG] |==|  0.85643
USER: genes 3 Torsion [CA]-CB--OG-[HG] |==|  0.81314
USER: genes 4 Torsion [N]-CA--C-[N] |==|  0.56222
USER: genes 5 Torsion [C]-N--CA-[C] |==|  0.56135
USER: genes 6 Torsion [N]-CA--C-[N] |==|  0.42745
USER: genes 7 Torsion [C]-N--CA-[CB] |==|  0.37784
USER: genes 8 Torsion [N]-CA--CB-[OG] |==|  0.03761
USER: genes 9 Torsion [CA]-CB--OG-[HG] |==|  0.22084
USER: genes 10 Torsion [N]-CA--C-[N] |==|  0.89371
USER: genes 11 Torsion [C]-N--CA-[C] |==|  0.62388
USER: genes 12 Torsion [N]-CA--C-[O] |==|  0.90751
USER: genes 13 Torsion [N]-CA--CB-[CG2] |==|  0.36420
USER: genes 14 Torsion [CA]-CB--OG1-[HG1] |==|  0.85440
USER: genes 15 Torsion [N]-CA--CB-[OG] |==|  0.72363
USER: genes 16 Torsion [CA]-CB--OG-[HG] |==|  0.68909
USER: genes 17 Torsion [CB]-CA--N-[C] |==|  0.15047
USER: genes 18 Torsion [N]-C--CA-[N] |==|  0.46261
USER: genes 19 Torsion [C]-CA--N-[C] |==|  0.77249
USER: genes 20 Torsion [N]-C--CA-[N] |==|  0.39537
USER: genes 21 Torsion [C]-CA--N-[C] |==|  0.66532
USER: genes 22 Torsion [N]-C--CA-[N] |==|  0.19410
USER: genes 23 Torsion [C]-CA--CB-[CG] |==|  0.43525
USER: genes 24 Torsion [CA]-CB--CG-[OD1] |==|  0.30906
USER: genes 25 Torsion [C]-CA--CB-[CG1] |==|  0.22202
ROOT
ATOM      1  CA  SER D1363     -23.878  21.500 -38.265  1.00 54.34 LIG 0.20  C 
ENDROOT
BRANCH 1 2
ATOM      2  CB  SER D1363     -24.826  21.579 -37.066  1.00 54.70 LIG 0.20  C 
BRANCH 2 3
ATOM      3 OG   SER D1363     -24.132  21.893 -35.871  1.00 55.13 LIG-0.40  OA
ATOM      4 HG   SER D1363     -23.629  21.253 -35.662  1.00 55.13 LIG 0.21  HD
ENDBRANCH 2 3
ENDBRANCH 1 2
BRANCH 1 5
ATOM      5  C   SER D1363     -23.035  22.753 -38.336  1.00 54.23 LIG 0.24  C 
ATOM      6  N   SER D1364     -23.639  23.869 -37.953  1.00 54.98 LIG-0.34  N 
ATOM      7 H    SER D1364     -24.451  23.895 -37.671  1.00 54.98 LIG 0.16  HD
ATOM      8 O    SER D1363     -21.867  22.712 -38.716  1.00 54.73 LIG-0.27  OA
BRANCH 6 9
ATOM      9  CA  SER D1364     -22.978  25.166 -37.972  1.00 55.87 LIG 0.20  C 
BRANCH 9 10
ATOM     10  C   SER D1364     -23.712  26.097 -36.985  1.00 56.37 LIG 0.24  C 
ATOM     11 O    SER D1364     -24.880  25.918 -36.732  1.00 55.91 LIG-0.27  OA
ATOM     12  N   SER D1365     -23.027  27.095 -36.445  1.00 58.29 LIG-0.34  N 
ATOM     13 H    SER D1365     -22.200  27.265 -36.605  1.00 58.29 LIG 0.16  HD
BRANCH 12 14
ATOM     14  CA  SER D1365     -23.671  27.996 -35.508  1.00 60.08 LIG 0.20  C 
BRANCH 14 15
ATOM     15  CB  SER D1365     -22.770  28.261 -34.321  1.00 57.27 LIG 0.20  C 
BRANCH 15 16
ATOM     16 OG   SER D1365     -21.474  27.808 -34.632  1.00 56.70 LIG-0.40  OA
ATOM     17 HG   SER D1365     -21.087  28.377 -35.114  1.00 56.70 LIG 0.21  HD
ENDBRANCH 15 16
ENDBRANCH 14 15
BRANCH 14 18
ATOM     18  C   SER D1365     -23.787  29.277 -36.289  1.00 61.54 LIG 0.24  C 
ATOM     19  N   THR D1366     -22.745  29.536 -37.059  1.00 60.28 LIG-0.34  N 
ATOM     20 H    THR D1366     -22.138  28.969 -37.279  1.00 60.28 LIG 0.16  HD
ATOM     21 O    SER D1365     -24.795  29.974 -36.249  1.00 62.26 LIG-0.27  OA
BRANCH 19 22
ATOM     22  CA  THR D1366     -22.576  30.856 -37.591  1.00 59.76 LIG 0.19  C 
BRANCH 22 23
ATOM     23  C   THR D1366     -22.187  30.886 -39.084  1.00 59.52 LIG 0.22  C 
ATOM     24 O    THR D1366     -21.462  29.950 -39.519  1.00 43.13 LIG-0.29  OA
ENDBRANCH 22 23
BRANCH 22 25
ATOM     25  CB  THR D1366     -21.502  31.400 -36.608  1.00 59.99 LIG 0.14  C 
ATOM     26  CG2 THR D1366     -20.335  32.054 -37.284  1.00 59.85 LIG 0.04  C 
BRANCH 25 27
ATOM     27 OG1  THR D1366     -22.098  32.212 -35.596  1.00 59.97 LIG-0.39  OA
ATOM     28 HG1  THR D1366     -22.575  32.803 -35.956  1.00 59.97 LIG 0.21  HD
ENDBRANCH 25 27
ENDBRANCH 22 25
ENDBRANCH 19 22
ENDBRANCH 14 18
ENDBRANCH 12 14
ENDBRANCH 9 10
BRANCH 9 29
ATOM     29  CB  SER D1364     -23.047  25.748 -39.386  1.00 55.64 LIG 0.20  C 
BRANCH 29 30
ATOM     30 OG   SER D1364     -21.837  25.546 -40.093  1.00 56.44 LIG-0.40  OA
ATOM     31 HG   SER D1364     -21.457  26.284 -40.217  1.00 56.44 LIG 0.21  HD
ENDBRANCH 29 30
ENDBRANCH 9 29
ENDBRANCH 6 9
ENDBRANCH 1 5
BRANCH 1 32
ATOM     32  N   SER D1363     -23.059  20.303 -38.185  1.00 53.98 LIG-0.34  N 
ATOM     33  C   VAL D1362     -23.610  19.102 -38.051  1.00 54.25 LIG 0.24  C 
ATOM     34 O    VAL D1362     -24.827  18.924 -37.993  1.00 54.63 LIG-0.27  OA
ATOM     35 H    SER D1363     -22.212  20.444 -38.231  1.00 53.98 LIG 0.16  HD
BRANCH 33 36
ATOM     36  CA  VAL D1362     -22.648  17.928 -37.968  1.00 53.82 LIG 0.18  C 
BRANCH 36 37
ATOM     37  N   VAL D1362     -23.363  16.749 -37.510  1.00 55.57 LIG-0.35  N 
ATOM     38  C   ASP D1361     -23.609  16.531 -36.225  1.00 57.59 LIG 0.24  C 
ATOM     39 O    ASP D1361     -23.273  17.307 -35.330  1.00 58.12 LIG-0.27  OA
ATOM     40 H    VAL D1362     -23.607  16.218 -38.140  1.00 55.57 LIG 0.16  HD
BRANCH 38 41
ATOM     41  CA  ASP D1361     -24.367  15.258 -35.906  1.00 59.82 LIG 0.19  C 
BRANCH 41 42
ATOM     42  N   ASP D1361     -23.895  14.615 -34.680  1.00 59.55 LIG-0.34  N 
ATOM     43  C   PRO D1360     -23.407  13.375 -34.667  1.00 59.89 LIG 0.25  C 
ATOM     44 O    PRO D1360     -23.298  12.677 -35.677  1.00 59.45 LIG-0.27  OA
ATOM     45 H    ASP D1361     -23.961  15.108 -33.978  1.00 59.55 LIG 0.16  HD
BRANCH 43 46
ATOM     46  CA  PRO D1360     -22.966  12.848 -33.306  1.00 59.77 LIG 0.35  C 
ATOM     47  N   PRO D1360     -24.108  12.599 -32.402  1.00 58.11 LIG 0.32  N 
ATOM     48  CD  PRO D1360     -23.975  11.266 -31.791  1.00 58.92 LIG 0.32  C 
ATOM     49  CG  PRO D1360     -22.503  10.895 -32.102  1.00 60.40 LIG 0.04  C 
ATOM     50  CB  PRO D1360     -22.225  11.526 -33.450  1.00 59.31 LIG 0.05  C 
ENDBRANCH 43 46
ENDBRANCH 41 42
BRANCH 41 51
ATOM     51  CB  ASP D1361     -25.861  15.588 -35.815  1.00 61.63 LIG 0.15  C 
BRANCH 51 52
ATOM     52  CG  ASP D1361     -26.745  14.379 -36.063  1.00 64.71 LIG 0.17  C 
ATOM     53 OD1  ASP D1361     -27.403  13.913 -35.109  1.00 66.40 LIG-0.65  OA
ATOM     54 OD2  ASP D1361     -26.772  13.891 -37.214  1.00 65.87 LIG-0.65  OA
ENDBRANCH 51 52
ENDBRANCH 41 51
ENDBRANCH 38 41
ENDBRANCH 36 37
BRANCH 36 55
ATOM     55  CB  VAL D1362     -22.018  17.681 -39.357  1.00 52.08 LIG 0.01  C 
ATOM     56  CG1 VAL D1362     -20.886  18.668 -39.609  1.00 50.17 LIG 0.01  C 
ATOM     57  CG2 VAL D1362     -21.512  16.254 -39.437  1.00 49.53 LIG 0.01  C 
ENDBRANCH 36 55
ENDBRANCH 33 36
ENDBRANCH 1 32
TORSDOF 24
ENDMDL
MODEL 8
USER: ADFR SOLUTION from run 136
USER: SCORE 16.025564 LL:  -3.902 LR: -14.866 RR:   0.000 FEB:  -7.707
USER: RMSD 2.005431
USER: SEED 135
USER: STATUS no improvement in best in 7 clusters for 5 generations
USER: GENES 26
USER: genes 0 Translation |==|  0.43995 0.49554 0.43954
USER: genes 1 Rotation |==|  0.50157 0.59440 0.50807 0.99094
USER: genes 2 Torsion [C]-CA--CB-[OG] |==|  0.68895
USER: genes 3 Torsion [CA]-CB--OG-[HG] |==|  0.08208
USER: genes 4 Torsion [N]-CA--C-[N] |==|  0.54788
USER: genes 5 Torsion [C]-N--CA-[C] |==|  0.54133
USER: genes 6 Torsion [N]-CA--C-[N] |==|  0.43194
USER: genes 7 Torsion [C]-N--CA-[CB] |==|  0.35722
USER: genes 8 Torsion [N]-CA--CB-[OG] |==|  0.05446
USER: genes 9 Torsion [CA]-CB--OG-[HG] |==|  0.19475
USER: genes 10 Torsion [N]-CA--C-[N] |==|  0.92179
USER: genes 11 Torsion [C]-N--CA-[C] |==|  0.57348
USER: genes 12 Torsion [N]-CA--C-[O] |==|  0.00500
USER: genes 13 Torsion [N]-CA--CB-[CG2] |==|  0.39418
USER: genes 14 Torsion [CA]-CB--OG1-[HG1] |==|  0.00590
USER: genes 15 Torsion [N]-CA--CB-[OG] |==|  0.49227
USER: genes 16 Torsion [CA]-CB--OG-[HG] |==|  0.10842
USER: genes 17 Torsion [CB]-CA--N-[C] |==|  0.20476
USER: genes 18 Torsion [N]-C--CA-[N] |==|  0.39381
USER: genes 19 Torsion [C]-CA--N-[C] |==|  0.83280
USER: genes 20 Torsion [N]-C--CA-[N] |==|  0.21010
USER: genes 21 Torsion [C]-CA--N-[C] |==|  0.77917
USER: genes 22 Torsion [N]-C--CA-[N] |==|  0.40792
USER: genes 23 Torsion [C]-CA--CB-[CG] |==|  0.79673
USER: genes 24 Torsion [CA]-CB--CG-[OD1] |==|  0.79731
USER: genes 25 Torsion [C]-CA--CB-[CG1] |==|  0.12273
ROOT
ATOM      1  CA  SER D1363     -23.203  21.724 -39.016  1.00 54.34 LIG 0.20  C 
ENDROOT
BRANCH 1 2
ATOM      2  CB  SER D1363     -23.956  21.501 -37.702  1.00 54.70 LIG 0.20  C 
BRANCH 2 3
ATOM      3 OG   SER D1363     -23.392  20.440 -36.951  1.00 55.13 LIG-0.40  OA
ATOM      4 HG   SER D1363     -22.569  20.386 -37.114  1.00 55.13 LIG 0.21  HD
ENDBRANCH 2 3
ENDBRANCH 1 2
BRANCH 1 5
ATOM      5  C   SER D1363     -22.480  23.051 -38.974  1.00 54.23 LIG 0.24  C 
ATOM      6  N   SER D1364     -23.146  24.046 -38.406  1.00 54.98 LIG-0.34  N 
ATOM      7 H    SER D1364     -23.933  23.958 -38.070  1.00 54.98 LIG 0.16  HD
ATOM      8 O    SER D1363     -21.346  23.172 -39.432  1.00 54.73 LIG-0.27  OA
BRANCH 6 9
ATOM      9  CA  SER D1364     -22.604  25.392 -38.294  1.00 55.87 LIG 0.20  C 
BRANCH 9 10
ATOM     10  C   SER D1364     -23.456  26.174 -37.273  1.00 56.37 LIG 0.24  C 
ATOM     11 O    SER D1364     -24.603  25.857 -37.067  1.00 55.91 LIG-0.27  OA
ATOM     12  N   SER D1365     -22.894  27.200 -36.650  1.00 58.29 LIG-0.34  N 
ATOM     13 H    SER D1365     -22.086  27.467 -36.775  1.00 58.29 LIG 0.16  HD
BRANCH 12 14
ATOM     14  CA  SER D1365     -23.652  27.965 -35.678  1.00 60.08 LIG 0.20  C 
BRANCH 14 15
ATOM     15  CB  SER D1365     -22.881  28.089 -34.381  1.00 57.27 LIG 0.20  C 
BRANCH 15 16
ATOM     16 OG   SER D1365     -21.521  27.833 -34.643  1.00 56.70 LIG-0.40  OA
ATOM     17 HG   SER D1365     -21.198  28.467 -35.090  1.00 56.70 LIG 0.21  HD
ENDBRANCH 15 16
ENDBRANCH 14 15
BRANCH 14 18
ATOM     18  C   SER D1365     -23.724  29.333 -36.299  1.00 61.54 LIG 0.24  C 
ATOM     19  N   THR D1366     -22.708  29.621 -37.094  1.00 60.28 LIG-0.34  N 
ATOM     20 H    THR D1366     -22.151  29.048 -37.412  1.00 60.28 LIG 0.16  HD
ATOM     21 O    SER D1365     -24.682  30.078 -36.122  1.00 62.26 LIG-0.27  OA
BRANCH 19 22
ATOM     22  CA  THR D1366     -22.482  30.982 -37.480  1.00 59.76 LIG 0.19  C 
BRANCH 22 23
ATOM     23  C   THR D1366     -21.751  31.137 -38.831  1.00 59.52 LIG 0.22  C 
ATOM     24 O    THR D1366     -21.462  30.086 -39.465  1.00 43.13 LIG-0.29  OA
ENDBRANCH 22 23
BRANCH 22 25
ATOM     25  CB  THR D1366     -21.700  31.482 -36.234  1.00 59.99 LIG 0.14  C 
ATOM     26  CG2 THR D1366     -20.587  32.432 -36.555  1.00 59.85 LIG 0.04  C 
BRANCH 25 27
ATOM     27 OG1  THR D1366     -22.592  31.973 -35.233  1.00 59.97 LIG-0.39  OA
ATOM     28 HG1  THR D1366     -23.386  31.875 -35.492  1.00 59.97 LIG 0.21  HD
ENDBRANCH 25 27
ENDBRANCH 22 25
ENDBRANCH 19 22
ENDBRANCH 14 18
ENDBRANCH 12 14
ENDBRANCH 9 10
BRANCH 9 29
ATOM     29  CB  SER D1364     -22.670  26.079 -39.661  1.00 55.64 LIG 0.20  C 
BRANCH 29 30
ATOM     30 OG   SER D1364     -22.212  27.417 -39.596  1.00 56.44 LIG-0.40  OA
ATOM     31 HG   SER D1364     -21.550  27.463 -39.081  1.00 56.44 LIG 0.21  HD
ENDBRANCH 29 30
ENDBRANCH 9 29
ENDBRANCH 6 9
ENDBRANCH 1 5
BRANCH 1 32
ATOM     32  N   SER D1363     -22.293  20.621 -39.272  1.00 53.98 LIG-0.34  N 
ATOM     33  C   VAL D1362     -22.744  19.435 -39.663  1.00 54.25 LIG 0.24  C 
ATOM     34 O    VAL D1362     -23.938  19.195 -39.838  1.00 54.63 LIG-0.27  OA
ATOM     35 H    SER D1363     -21.462  20.806 -39.149  1.00 53.98 LIG 0.16  HD
BRANCH 33 36
ATOM     36  CA  VAL D1362     -21.695  18.359 -39.887  1.00 53.82 LIG 0.18  C 
BRANCH 36 37
ATOM     37  N   VAL D1362     -22.207  17.081 -39.423  1.00 55.57 LIG-0.35  N 
ATOM     38  C   ASP D1361     -22.565  16.883 -38.161  1.00 57.59 LIG 0.24  C 
ATOM     39 O    ASP D1361     -22.512  17.759 -37.297  1.00 58.12 LIG-0.27  OA
ATOM     40 H    VAL D1362     -22.254  16.477 -40.033  1.00 55.57 LIG 0.16  HD
BRANCH 38 41
ATOM     41  CA  ASP D1361     -23.081  15.497 -37.832  1.00 59.82 LIG 0.19  C 
BRANCH 41 42
ATOM     42  N   ASP D1361     -22.009  14.505 -37.744  1.00 59.55 LIG-0.34  N 
ATOM     43  C   PRO D1360     -21.459  13.953 -38.825  1.00 59.89 LIG 0.25  C 
ATOM     44 O    PRO D1360     -21.790  14.238 -39.978  1.00 59.45 LIG-0.27  OA
ATOM     45 H    ASP D1361     -21.772  14.316 -36.940  1.00 59.55 LIG 0.16  HD
BRANCH 43 46
ATOM     46  CA  PRO D1360     -20.360  12.930 -38.563  1.00 59.77 LIG 0.35  C 
ATOM     47  N   PRO D1360     -20.340  11.853 -39.574  1.00 58.11 LIG 0.32  N 
ATOM     48  CD  PRO D1360     -18.964  11.651 -40.057  1.00 58.92 LIG 0.32  C 
ATOM     49  CG  PRO D1360     -18.120  12.416 -39.006  1.00 60.40 LIG 0.04  C 
ATOM     50  CB  PRO D1360     -18.987  13.587 -38.596  1.00 59.31 LIG 0.05  C 
ENDBRANCH 43 46
ENDBRANCH 41 42
BRANCH 41 51
ATOM     51  CB  ASP D1361     -23.874  15.569 -36.522  1.00 61.63 LIG 0.15  C 
BRANCH 51 52
ATOM     52  CG  ASP D1361     -22.982  15.740 -35.306  1.00 64.71 LIG 0.17  C 
ATOM     53 OD1  ASP D1361     -22.303  14.766 -34.918  1.00 66.40 LIG-0.65  OA
ATOM     54 OD2  ASP D1361     -22.969  16.852 -34.734  1.00 65.87 LIG-0.65  OA
ENDBRANCH 51 52
ENDBRANCH 41 51
ENDBRANCH 38 41
ENDBRANCH 36 37
BRANCH 36 55
ATOM     55  CB  VAL D1362     -21.340  18.294 -41.390  1.00 52.08 LIG 0.01  C 
ATOM     56  CG1 VAL D1362     -21.165  19.697 -41.955  1.00 50.17 LIG 0.01  C 
ATOM     57  CG2 VAL D1362     -20.073  17.480 -41.576  1.00 49.53 LIG 0.01  C 
ENDBRANCH 36 55
ENDBRANCH 33 36
ENDBRANCH 1 32
TORSDOF 24
ENDMDL
MODEL 9
USER: ADFR SOLUTION from run 193
USER: SCORE 15.920401 LL:  -3.753 LR: -14.821 RR:   0.000 FEB:  -7.662
USER: RMSD 5.350854
USER: SEED 192
USER: STATUS no improvement in best in 6 clusters for 5 generations
USER: GENES 26
USER: genes 0 Translation |==|  0.47002 0.65317 0.48747
USER: genes 1 Rotation |==|  0.56696 0.06399 0.36136 0.69025
USER: genes 2 Torsion [C]-CA--CB-[OG] |==|  0.53520
USER: genes 3 Torsion [CA]-CB--OG-[HG] |==|  0.71145
USER: genes 4 Torsion [N]-CA--C-[N] |==|  0.35450
USER: genes 5 Torsion [C]-N--CA-[C] |==|  0.73302
USER: genes 6 Torsion [N]-CA--C-[N] |==|  0.00474
USER: genes 7 Torsion [C]-N--CA-[CB] |==|  0.22678
USER: genes 8 Torsion [N]-CA--CB-[OG] |==|  0.32051
USER: genes 9 Torsion [CA]-CB--OG-[HG] |==|  0.19531
USER: genes 10 Torsion [N]-CA--C-[N] |==|  0.43761
USER: genes 11 Torsion [C]-N--CA-[C] |==|  0.53388
USER: genes 12 Torsion [N]-CA--C-[O] |==|  0.98809
USER: genes 13 Torsion [N]-CA--CB-[CG2] |==|  0.34485
USER: genes 14 Torsion [CA]-CB--OG1-[HG1] |==|  0.10004
USER: genes 15 Torsion [N]-CA--CB-[OG] |==|  0.12323
USER: genes 16 Torsion [CA]-CB--OG-[HG] |==|  0.08567
USER: genes 17 Torsion [CB]-CA--N-[C] |==|  0.23581
USER: genes 18 Torsion [N]-C--CA-[N] |==|  0.54632
USER: genes 19 Torsion [C]-CA--N-[C] |==|  0.55086
USER: genes 20 Torsion [N]-C--CA-[N] |==|  0.35003
USER: genes 21 Torsion [C]-CA--N-[C] |==|  0.84889
USER: genes 22 Torsion [N]-C--CA-[N] |==|  0.24328
USER: genes 23 Torsion [C]-CA--CB-[CG] |==|  0.32466
USER: genes 24 Torsion [CA]-CB--CG-[OD1] |==|  0.78494
USER: genes 25 Torsion [C]-CA--CB-[CG1] |==|  0.43242
ROOT
ATOM      1  CA  SER D1363     -22.707  26.098 -38.297  1.00 54.34 LIG 0.20  C 
ENDROOT
BRANCH 1 2
ATOM      2  CB  SER D1363     -22.592  26.839 -39.632  1.00 54.70 LIG 0.20  C 
BRANCH 2 3
ATOM      3 OG   SER D1363     -22.182  25.973 -40.676  1.00 55.13 LIG-0.40  OA
ATOM      4 HG   SER D1363     -21.372  26.109 -40.852  1.00 55.13 LIG 0.21  HD
ENDBRANCH 2 3
ENDBRANCH 1 2
BRANCH 1 5
ATOM      5  C   SER D1363     -23.434  26.962 -37.292  1.00 54.23 LIG 0.24  C 
ATOM      6  N   SER D1364     -22.688  27.445 -36.309  1.00 54.98 LIG-0.34  N 
ATOM      7 H    SER D1364     -21.844  27.295 -36.237  1.00 54.98 LIG 0.16  HD
ATOM      8 O    SER D1363     -24.635  27.197 -37.407  1.00 54.73 LIG-0.27  OA
BRANCH 6 9
ATOM      9  CA  SER D1364     -23.231  28.282 -35.249  1.00 55.87 LIG 0.20  C 
BRANCH 9 10
ATOM     10  C   SER D1364     -22.990  29.758 -35.627  1.00 56.37 LIG 0.24  C 
ATOM     11 O    SER D1364     -23.343  30.643 -34.885  1.00 55.91 LIG-0.27  OA
ATOM     12  N   SER D1365     -22.403  30.015 -36.788  1.00 58.29 LIG-0.34  N 
ATOM     13 H    SER D1365     -22.147  29.417 -37.351  1.00 58.29 LIG 0.16  HD
BRANCH 12 14
ATOM     14  CA  SER D1365     -22.151  31.385 -37.188  1.00 60.08 LIG 0.20  C 
BRANCH 14 15
ATOM     15  CB  SER D1365     -20.888  31.906 -36.536  1.00 57.27 LIG 0.20  C 
BRANCH 15 16
ATOM     16 OG   SER D1365     -19.941  32.170 -37.543  1.00 56.70 LIG-0.40  OA
ATOM     17 HG   SER D1365     -20.184  32.841 -37.988  1.00 56.70 LIG 0.21  HD
ENDBRANCH 15 16
ENDBRANCH 14 15
BRANCH 14 18
ATOM     18  C   SER D1365     -21.888  31.269 -38.665  1.00 61.54 LIG 0.24  C 
ATOM     19  N   THR D1366     -22.090  32.387 -39.340  1.00 60.28 LIG-0.34  N 
ATOM     20 H    THR D1366     -22.165  33.169 -38.991  1.00 60.28 LIG 0.16  HD
ATOM     21 O    SER D1365     -21.464  30.235 -39.171  1.00 62.26 LIG-0.27  OA
BRANCH 19 22
ATOM     22  CA  THR D1366     -22.198  32.336 -40.768  1.00 59.76 LIG 0.19  C 
BRANCH 22 23
ATOM     23  C   THR D1366     -22.133  33.718 -41.451  1.00 59.52 LIG 0.22  C 
ATOM     24 O    THR D1366     -22.079  34.737 -40.709  1.00 43.13 LIG-0.29  OA
ENDBRANCH 22 23
BRANCH 22 25
ATOM     25  CB  THR D1366     -23.551  31.585 -40.902  1.00 59.99 LIG 0.14  C 
ATOM     26  CG2 THR D1366     -24.576  32.318 -41.714  1.00 59.85 LIG 0.04  C 
BRANCH 25 27
ATOM     27 OG1  THR D1366     -23.350  30.237 -41.329  1.00 59.97 LIG-0.39  OA
ATOM     28 HG1  THR D1366     -22.645  29.936 -40.982  1.00 59.97 LIG 0.21  HD
ENDBRANCH 25 27
ENDBRANCH 22 25
ENDBRANCH 19 22
ENDBRANCH 14 18
ENDBRANCH 12 14
ENDBRANCH 9 10
BRANCH 9 29
ATOM     29  CB  SER D1364     -22.518  27.959 -33.933  1.00 55.64 LIG 0.20  C 
BRANCH 29 30
ATOM     30 OG   SER D1364     -21.118  27.848 -34.111  1.00 56.44 LIG-0.40  OA
ATOM     31 HG   SER D1364     -20.873  28.356 -34.733  1.00 56.44 LIG 0.21  HD
ENDBRANCH 29 30
ENDBRANCH 9 29
ENDBRANCH 6 9
ENDBRANCH 1 5
BRANCH 1 32
ATOM     32  N   SER D1363     -23.364  24.817 -38.484  1.00 53.98 LIG-0.34  N 
ATOM     33  C   VAL D1362     -22.679  23.741 -38.856  1.00 54.25 LIG 0.24  C 
ATOM     34 O    VAL D1362     -21.465  23.755 -39.057  1.00 54.63 LIG-0.27  OA
ATOM     35 H    SER D1363     -24.211  24.824 -38.335  1.00 53.98 LIG 0.16  HD
BRANCH 33 36
ATOM     36  CA  VAL D1362     -23.482  22.462 -39.029  1.00 53.82 LIG 0.18  C 
BRANCH 36 37
ATOM     37  N   VAL D1362     -22.579  21.324 -39.043  1.00 55.57 LIG-0.35  N 
ATOM     38  C   ASP D1361     -22.944  20.144 -39.526  1.00 57.59 LIG 0.24  C 
ATOM     39 O    ASP D1361     -24.053  19.925 -40.012  1.00 58.12 LIG-0.27  OA
ATOM     40 H    VAL D1362     -21.801  21.486 -38.714  1.00 55.57 LIG 0.16  HD
BRANCH 38 41
ATOM     41  CA  ASP D1361     -21.890  19.056 -39.472  1.00 59.82 LIG 0.19  C 
BRANCH 41 42
ATOM     42  N   ASP D1361     -22.364  17.848 -38.797  1.00 59.55 LIG-0.34  N 
ATOM     43  C   PRO D1360     -22.877  17.874 -37.567  1.00 59.89 LIG 0.25  C 
ATOM     44 O    PRO D1360     -23.011  18.907 -36.908  1.00 59.45 LIG-0.27  OA
ATOM     45 H    ASP D1361     -22.280  17.130 -39.263  1.00 59.55 LIG 0.16  HD
BRANCH 43 46
ATOM     46  CA  PRO D1360     -23.316  16.528 -37.002  1.00 59.77 LIG 0.35  C 
ATOM     47  N   PRO D1360     -22.215  15.819 -36.317  1.00 58.11 LIG 0.32  N 
ATOM     48  CD  PRO D1360     -22.676  15.339 -35.004  1.00 58.92 LIG 0.32  C 
ATOM     49  CG  PRO D1360     -24.215  15.483 -35.111  1.00 60.40 LIG 0.04  C 
ATOM     50  CB  PRO D1360     -24.427  16.707 -35.976  1.00 59.31 LIG 0.05  C 
ENDBRANCH 43 46
ENDBRANCH 41 42
BRANCH 41 51
ATOM     51  CB  ASP D1361     -21.435  18.745 -40.903  1.00 61.63 LIG 0.15  C 
BRANCH 51 52
ATOM     52  CG  ASP D1361     -19.968  19.059 -41.133  1.00 64.71 LIG 0.17  C 
ATOM     53 OD1  ASP D1361     -19.628  20.250 -41.297  1.00 66.40 LIG-0.65  OA
ATOM     54 OD2  ASP D1361     -19.156  18.108 -41.159  1.00 65.87 LIG-0.65  OA
ENDBRANCH 51 52
ENDBRANCH 41 51
ENDBRANCH 38 41
ENDBRANCH 36 37
BRANCH 36 55
ATOM     55  CB  VAL D1362     -24.503  22.337 -37.876  1.00 52.08 LIG 0.01  C 
ATOM     56  CG1 VAL D1362     -25.676  21.463 -38.299  1.00 50.17 LIG 0.01  C 
ATOM     57  CG2 VAL D1362     -23.818  21.758 -36.653  1.00 49.53 LIG 0.01  C 
ENDBRANCH 36 55
ENDBRANCH 33 36
ENDBRANCH 1 32
TORSDOF 24
ENDMDL
MODEL 10
USER: ADFR SOLUTION from run 97
USER: SCORE 16.266460 LL:  -4.077 LR: -14.805 RR:   0.000 FEB:  -7.645
USER: RMSD 3.932395
USER: SEED 96
USER: STATUS no improvement in best in 1 clusters for 5 generations
USER: GENES 26
USER: genes 0 Translation |==|  0.39546 0.49516 0.46683
USER: genes 1 Rotation |==|  0.47145 0.52579 0.45672 0.99664
USER: genes 2 Torsion [C]-CA--CB-[OG] |==|  0.82630
USER: genes 3 Torsion [CA]-CB--OG-[HG] |==|  0.92356
USER: genes 4 Torsion [N]-CA--C-[N] |==|  0.58350
USER: genes 5 Torsion [C]-N--CA-[C] |==|  0.52377
USER: genes 6 Torsion [N]-CA--C-[N] |==|  0.43507
USER: genes 7 Torsion [C]-N--CA-[CB] |==|  0.41315
USER: genes 8 Torsion [N]-CA--CB-[OG] |==|  0.99313
USER: genes 9 Torsion [CA]-CB--OG-[HG] |==|  0.26693
USER: genes 10 Torsion [N]-CA--C-[N] |==|  0.86123
USER: genes 11 Torsion [C]-N--CA-[C] |==|  0.61161
USER: genes 12 Torsion [N]-CA--C-[O] |==|  0.00830
USER: genes 13 Torsion [N]-CA--CB-[CG2] |==|  0.70577
USER: genes 14 Torsion [CA]-CB--OG1-[HG1] |==|  0.08648
USER: genes 15 Torsion [N]-CA--CB-[OG] |==|  0.40470
USER: genes 16 Torsion [CA]-CB--OG-[HG] |==|  0.25190
USER: genes 17 Torsion [CB]-CA--N-[C] |==|  0.15635
USER: genes 18 Torsion [N]-C--CA-[N] |==|  0.91441
USER: genes 19 Torsion [C]-CA--N-[C] |==|  0.76667
USER: genes 20 Torsion [N]-C--CA-[N] |==|  0.43927
USER: genes 21 Torsion [C]-CA--N-[C] |==|  0.72377
USER: genes 22 Torsion [N]-C--CA-[N] |==|  0.42402
USER: genes 23 Torsion [C]-CA--CB-[CG] |==|  0.55130
USER: genes 24 Torsion [CA]-CB--CG-[OD1] |==|  0.44618
USER: genes 25 Torsion [C]-CA--CB-[CG1] |==|  0.12206
ROOT
ATOM      1  CA  SER D1363     -23.937  21.714 -38.607  1.00 54.34 LIG 0.20  C 
ENDROOT
BRANCH 1 2
ATOM      2  CB  SER D1363     -25.031  21.844 -37.544  1.00 54.70 LIG 0.20  C 
BRANCH 2 3
ATOM      3 OG   SER D1363     -24.490  21.833 -36.234  1.00 55.13 LIG-0.40  OA
ATOM      4 HG   SER D1363     -23.770  21.400 -36.231  1.00 55.13 LIG 0.21  HD
ENDBRANCH 2 3
ENDBRANCH 1 2
BRANCH 1 5
ATOM      5  C   SER D1363     -23.001  22.898 -38.528  1.00 54.23 LIG 0.24  C 
ATOM      6  N   SER D1364     -23.531  24.013 -38.045  1.00 54.98 LIG-0.34  N 
ATOM      7 H    SER D1364     -24.347  24.073 -37.781  1.00 54.98 LIG 0.16  HD
ATOM      8 O    SER D1363     -21.828  22.806 -38.882  1.00 54.73 LIG-0.27  OA
BRANCH 6 9
ATOM      9  CA  SER D1364     -22.775  25.250 -37.914  1.00 55.87 LIG 0.20  C 
BRANCH 9 10
ATOM     10  C   SER D1364     -23.634  26.260 -37.126  1.00 56.37 LIG 0.24  C 
ATOM     11 O    SER D1364     -24.837  26.155 -37.110  1.00 55.91 LIG-0.27  OA
ATOM     12  N   SER D1365     -23.011  27.243 -36.490  1.00 58.29 LIG-0.34  N 
ATOM     13 H    SER D1365     -22.160  27.361 -36.484  1.00 58.29 LIG 0.16  HD
BRANCH 12 14
ATOM     14  CA  SER D1365     -23.774  28.216 -35.732  1.00 60.08 LIG 0.20  C 
BRANCH 14 15
ATOM     15  CB  SER D1365     -22.971  28.716 -34.550  1.00 57.27 LIG 0.20  C 
BRANCH 15 16
ATOM     16 OG   SER D1365     -21.742  28.031 -34.521  1.00 56.70 LIG-0.40  OA
ATOM     17 HG   SER D1365     -21.154  28.495 -34.901  1.00 56.70 LIG 0.21  HD
ENDBRANCH 15 16
ENDBRANCH 14 15
BRANCH 14 18
ATOM     18  C   SER D1365     -23.926  29.360 -36.698  1.00 61.54 LIG 0.24  C 
ATOM     19  N   THR D1366     -22.794  29.744 -37.263  1.00 60.28 LIG-0.34  N 
ATOM     20 H    THR D1366     -22.064  29.291 -37.266  1.00 60.28 LIG 0.16  HD
ATOM     21 O    SER D1365     -25.020  29.839 -36.971  1.00 62.26 LIG-0.27  OA
BRANCH 19 22
ATOM     22  CA  THR D1366     -22.738  31.008 -37.934  1.00 59.76 LIG 0.19  C 
BRANCH 22 23
ATOM     23  C   THR D1366     -21.932  30.986 -39.250  1.00 59.52 LIG 0.22  C 
ATOM     24 O    THR D1366     -21.462  29.878 -39.629  1.00 43.13 LIG-0.29  OA
ENDBRANCH 22 23
BRANCH 22 25
ATOM     25  CB  THR D1366     -22.141  31.883 -36.797  1.00 59.99 LIG 0.14  C 
ATOM     26  CG2 THR D1366     -23.133  32.804 -36.154  1.00 59.85 LIG 0.04  C 
BRANCH 25 27
ATOM     27 OG1  THR D1366     -21.422  31.082 -35.859  1.00 59.97 LIG-0.39  OA
ATOM     28 HG1  THR D1366     -21.086  30.421 -36.254  1.00 59.97 LIG 0.21  HD
ENDBRANCH 25 27
ENDBRANCH 22 25
ENDBRANCH 19 22
ENDBRANCH 14 18
ENDBRANCH 12 14
ENDBRANCH 9 10
BRANCH 9 29
ATOM     29  CB  SER D1364     -22.466  25.804 -39.307  1.00 55.64 LIG 0.20  C 
BRANCH 29 30
ATOM     30 OG   SER D1364     -22.472  27.219 -39.320  1.00 56.44 LIG-0.40  OA
ATOM     31 HG   SER D1364     -21.699  27.505 -39.158  1.00 56.44 LIG 0.21  HD
ENDBRANCH 29 30
ENDBRANCH 9 29
ENDBRANCH 6 9
ENDBRANCH 1 5
BRANCH 1 32
ATOM     32  N   SER D1363     -23.229  20.455 -38.453  1.00 53.98 LIG-0.34  N 
ATOM     33  C   VAL D1362     -23.877  19.296 -38.470  1.00 54.25 LIG 0.24  C 
ATOM     34 O    VAL D1362     -25.096  19.210 -38.622  1.00 54.63 LIG-0.27  OA
ATOM     35 H    SER D1363     -22.378  20.532 -38.352  1.00 53.98 LIG 0.16  HD
BRANCH 33 36
ATOM     36  CA  VAL D1362     -23.027  18.049 -38.288  1.00 53.82 LIG 0.18  C 
BRANCH 36 37
ATOM     37  N   VAL D1362     -21.703  18.283 -38.838  1.00 55.57 LIG-0.35  N 
ATOM     38  C   ASP D1361     -21.440  18.124 -40.128  1.00 57.59 LIG 0.24  C 
ATOM     39 O    ASP D1361     -22.287  17.789 -40.956  1.00 58.12 LIG-0.27  OA
ATOM     40 H    VAL D1362     -21.119  18.529 -38.257  1.00 55.57 LIG 0.16  HD
BRANCH 38 41
ATOM     41  CA  ASP D1361     -20.012  18.408 -40.548  1.00 59.82 LIG 0.19  C 
BRANCH 41 42
ATOM     42  N   ASP D1361     -19.656  17.751 -41.807  1.00 59.55 LIG-0.34  N 
ATOM     43  C   PRO D1360     -18.969  16.610 -41.846  1.00 59.89 LIG 0.25  C 
ATOM     44 O    PRO D1360     -18.594  16.007 -40.838  1.00 59.45 LIG-0.27  OA
ATOM     45 H    ASP D1361     -19.929  18.167 -42.508  1.00 59.55 LIG 0.16  HD
BRANCH 43 46
ATOM     46  CA  PRO D1360     -18.671  16.060 -43.236  1.00 59.77 LIG 0.35  C 
ATOM     47  N   PRO D1360     -17.444  15.238 -43.265  1.00 58.11 LIG 0.32  N 
ATOM     48  CD  PRO D1360     -17.712  13.972 -43.967  1.00 58.92 LIG 0.32  C 
ATOM     49  CG  PRO D1360     -19.063  14.254 -44.671  1.00 60.40 LIG 0.04  C 
ATOM     50  CB  PRO D1360     -19.806  15.171 -43.723  1.00 59.31 LIG 0.05  C 
ENDBRANCH 43 46
ENDBRANCH 41 42
BRANCH 41 51
ATOM     51  CB  ASP D1361     -19.824  19.926 -40.647  1.00 61.63 LIG 0.15  C 
BRANCH 51 52
ATOM     52  CG  ASP D1361     -18.609  20.314 -41.470  1.00 64.71 LIG 0.17  C 
ATOM     53 OD1  ASP D1361     -18.544  21.473 -41.933  1.00 66.40 LIG-0.65  OA
ATOM     54 OD2  ASP D1361     -17.723  19.453 -41.661  1.00 65.87 LIG-0.65  OA
ENDBRANCH 51 52
ENDBRANCH 41 51
ENDBRANCH 38 41
ENDBRANCH 36 37
BRANCH 36 55
ATOM     55  CB  VAL D1362     -22.942  17.701 -36.785  1.00 52.08 LIG 0.01  C 
ATOM     56  CG1 VAL D1362     -24.313  17.830 -36.132  1.00 50.17 LIG 0.01  C 
ATOM     57  CG2 VAL D1362     -22.401  16.294 -36.620  1.00 49.53 LIG 0.01  C 
ENDBRANCH 36 55
ENDBRANCH 33 36
ENDBRANCH 1 32
TORSDOF 24
ENDMDL
MODEL 11
USER: ADFR SOLUTION from run 37
USER: SCORE 16.577842 LL:  -4.213 LR: -14.715 RR:   0.000 FEB:  -7.556
USER: RMSD 4.776057
USER: SEED 36
USER: STATUS no improvement in best in 9 clusters for 5 generations
USER: GENES 26
USER: genes 0 Translation |==|  0.39327 0.49561 0.47577
USER: genes 1 Rotation |==|  0.45095 0.49433 0.45428 0.99545
USER: genes 2 Torsion [C]-CA--CB-[OG] |==|  0.84502
USER: genes 3 Torsion [CA]-CB--OG-[HG] |==|  0.93169
USER: genes 4 Torsion [N]-CA--C-[N] |==|  0.58029
USER: genes 5 Torsion [C]-N--CA-[C] |==|  0.57802
USER: genes 6 Torsion [N]-CA--C-[N] |==|  0.44129
USER: genes 7 Torsion [C]-N--CA-[CB] |==|  0.36780
USER: genes 8 Torsion [N]-CA--CB-[OG] |==|  0.04410
USER: genes 9 Torsion [CA]-CB--OG-[HG] |==|  0.18456
USER: genes 10 Torsion [N]-CA--C-[N] |==|  0.91439
USER: genes 11 Torsion [C]-N--CA-[C] |==|  0.57460
USER: genes 12 Torsion [N]-CA--C-[O] |==|  0.02367
USER: genes 13 Torsion [N]-CA--CB-[CG2] |==|  0.38325
USER: genes 14 Torsion [CA]-CB--OG1-[HG1] |==|  0.02468
USER: genes 15 Torsion [N]-CA--CB-[OG] |==|  0.46261
USER: genes 16 Torsion [CA]-CB--OG-[HG] |==|  0.09311
USER: genes 17 Torsion [CB]-CA--N-[C] |==|  0.15827
USER: genes 18 Torsion [N]-C--CA-[N] |==|  0.40267
USER: genes 19 Torsion [C]-CA--N-[C] |==|  0.66645
USER: genes 20 Torsion [N]-C--CA-[N] |==|  0.92849
USER: genes 21 Torsion [C]-CA--N-[C] |==|  0.83065
USER: genes 22 Torsion [N]-C--CA-[N] |==|  0.60287
USER: genes 23 Torsion [C]-CA--CB-[CG] |==|  0.48783
USER: genes 24 Torsion [CA]-CB--CG-[OD1] |==|  0.65764
USER: genes 25 Torsion [C]-CA--CB-[CG1] |==|  0.19858
ROOT
ATOM      1  CA  SER D1363     -23.973  21.726 -38.472  1.00 54.34 LIG 0.20  C 
ENDROOT
BRANCH 1 2
ATOM      2  CB  SER D1363     -25.184  21.947 -37.563  1.00 54.70 LIG 0.20  C 
BRANCH 2 3
ATOM      3 OG   SER D1363     -24.792  22.214 -36.227  1.00 55.13 LIG-0.40  OA
ATOM      4 HG   SER D1363     -24.031  21.886 -36.087  1.00 55.13 LIG 0.21  HD
ENDBRANCH 2 3
ENDBRANCH 1 2
BRANCH 1 5
ATOM      5  C   SER D1363     -23.048  22.919 -38.394  1.00 54.23 LIG 0.24  C 
ATOM      6  N   SER D1364     -23.630  24.074 -38.106  1.00 54.98 LIG-0.34  N 
ATOM      7 H    SER D1364     -24.474  24.157 -37.962  1.00 54.98 LIG 0.16  HD
ATOM      8 O    SER D1363     -21.839  22.798 -38.577  1.00 54.73 LIG-0.27  OA
BRANCH 6 9
ATOM      9  CA  SER D1364     -22.890  25.324 -38.006  1.00 55.87 LIG 0.20  C 
BRANCH 9 10
ATOM     10  C   SER D1364     -23.636  26.251 -37.024  1.00 56.37 LIG 0.24  C 
ATOM     11 O    SER D1364     -24.810  26.080 -36.799  1.00 55.91 LIG-0.27  OA
ATOM     12  N   SER D1365     -22.953  27.236 -36.459  1.00 58.29 LIG-0.34  N 
ATOM     13 H    SER D1365     -22.121  27.400 -36.600  1.00 58.29 LIG 0.16  HD
BRANCH 12 14
ATOM     14  CA  SER D1365     -23.608  28.133 -35.526  1.00 60.08 LIG 0.20  C 
BRANCH 14 15
ATOM     15  CB  SER D1365     -22.770  28.306 -34.277  1.00 57.27 LIG 0.20  C 
BRANCH 15 16
ATOM     16 OG   SER D1365     -21.466  27.849 -34.547  1.00 56.70 LIG-0.40  OA
ATOM     17 HG   SER D1365     -21.105  28.352 -35.115  1.00 56.70 LIG 0.21  HD
ENDBRANCH 15 16
ENDBRANCH 14 15
BRANCH 14 18
ATOM     18  C   SER D1365     -23.614  29.447 -36.259  1.00 61.54 LIG 0.24  C 
ATOM     19  N   THR D1366     -22.588  29.614 -37.076  1.00 60.28 LIG-0.34  N 
ATOM     20 H    THR D1366     -22.063  28.989 -37.345  1.00 60.28 LIG 0.16  HD
ATOM     21 O    SER D1365     -24.530  30.252 -36.143  1.00 62.26 LIG-0.27  OA
BRANCH 19 22
ATOM     22  CA  THR D1366     -22.294  30.924 -37.574  1.00 59.76 LIG 0.19  C 
BRANCH 22 23
ATOM     23  C   THR D1366     -21.571  30.929 -38.938  1.00 59.52 LIG 0.22  C 
ATOM     24 O    THR D1366     -21.462  29.830 -39.547  1.00 43.13 LIG-0.29  OA
ENDBRANCH 22 23
BRANCH 22 25
ATOM     25  CB  THR D1366     -21.473  31.482 -36.379  1.00 59.99 LIG 0.14  C 
ATOM     26  CG2 THR D1366     -20.261  32.263 -36.786  1.00 59.85 LIG 0.04  C 
BRANCH 25 27
ATOM     27 OG1  THR D1366     -22.314  32.180 -35.460  1.00 59.97 LIG-0.39  OA
ATOM     28 HG1  THR D1366     -23.119  32.059 -35.670  1.00 59.97 LIG 0.21  HD
ENDBRANCH 25 27
ENDBRANCH 22 25
ENDBRANCH 19 22
ENDBRANCH 14 18
ENDBRANCH 12 14
ENDBRANCH 9 10
BRANCH 9 29
ATOM     29  CB  SER D1364     -22.815  25.980 -39.387  1.00 55.64 LIG 0.20  C 
BRANCH 29 30
ATOM     30 OG   SER D1364     -22.383  27.325 -39.304  1.00 56.44 LIG-0.40  OA
ATOM     31 HG   SER D1364     -21.837  27.406 -38.671  1.00 56.44 LIG 0.21  HD
ENDBRANCH 29 30
ENDBRANCH 9 29
ENDBRANCH 6 9
ENDBRANCH 1 5
BRANCH 1 32
ATOM     32  N   SER D1363     -23.294  20.492 -38.120  1.00 53.98 LIG-0.34  N 
ATOM     33  C   VAL D1362     -23.937  19.330 -38.119  1.00 54.25 LIG 0.24  C 
ATOM     34 O    VAL D1362     -25.126  19.220 -38.417  1.00 54.63 LIG-0.27  OA
ATOM     35 H    SER D1363     -22.463  20.585 -37.918  1.00 53.98 LIG 0.16  HD
BRANCH 33 36
ATOM     36  CA  VAL D1362     -23.120  18.112 -37.722  1.00 53.82 LIG 0.18  C 
BRANCH 36 37
ATOM     37  N   VAL D1362     -23.962  17.184 -36.986  1.00 55.57 LIG-0.35  N 
ATOM     38  C   ASP D1361     -23.687  16.820 -35.741  1.00 57.59 LIG 0.24  C 
ATOM     39 O    ASP D1361     -22.721  17.247 -35.109  1.00 58.12 LIG-0.27  OA
ATOM     40 H    VAL D1362     -24.643  16.899 -37.428  1.00 55.57 LIG 0.16  HD
BRANCH 38 41
ATOM     41  CA  ASP D1361     -24.662  15.848 -35.108  1.00 59.82 LIG 0.19  C 
BRANCH 41 42
ATOM     42  N   ASP D1361     -25.999  15.931 -35.696  1.00 59.55 LIG-0.34  N 
ATOM     43  C   PRO D1360     -26.727  17.046 -35.656  1.00 59.89 LIG 0.25  C 
ATOM     44 O    PRO D1360     -26.335  18.096 -35.142  1.00 59.45 LIG-0.27  OA
ATOM     45 H    ASP D1361     -26.266  15.201 -36.065  1.00 59.55 LIG 0.16  HD
BRANCH 43 46
ATOM     46  CA  PRO D1360     -28.103  16.966 -36.307  1.00 59.77 LIG 0.35  C 
ATOM     47  N   PRO D1360     -28.471  18.217 -37.002  1.00 58.11 LIG 0.32  N 
ATOM     48  CD  PRO D1360     -28.972  17.904 -38.351  1.00 58.92 LIG 0.32  C 
ATOM     49  CG  PRO D1360     -29.225  16.377 -38.274  1.00 60.40 LIG 0.04  C 
ATOM     50  CB  PRO D1360     -28.148  15.856 -37.348  1.00 59.31 LIG 0.05  C 
ENDBRANCH 43 46
ENDBRANCH 41 42
BRANCH 41 51
ATOM     51  CB  ASP D1361     -24.091  14.431 -35.237  1.00 61.63 LIG 0.15  C 
BRANCH 51 52
ATOM     52  CG  ASP D1361     -24.945  13.388 -34.538  1.00 64.71 LIG 0.17  C 
ATOM     53 OD1  ASP D1361     -24.418  12.671 -33.661  1.00 66.40 LIG-0.65  OA
ATOM     54 OD2  ASP D1361     -26.145  13.284 -34.875  1.00 65.87 LIG-0.65  OA
ENDBRANCH 51 52
ENDBRANCH 41 51
ENDBRANCH 38 41
ENDBRANCH 36 37
BRANCH 36 55
ATOM     55  CB  VAL D1362     -22.546  17.442 -38.991  1.00 52.08 LIG 0.01  C 
ATOM     56  CG1 VAL D1362     -21.440  18.301 -39.590  1.00 50.17 LIG 0.01  C 
ATOM     57  CG2 VAL D1362     -22.022  16.062 -38.642  1.00 49.53 LIG 0.01  C 
ENDBRANCH 36 55
ENDBRANCH 33 36
ENDBRANCH 1 32
TORSDOF 24
ENDMDL
MODEL 12
USER: ADFR SOLUTION from run 161
USER: SCORE 15.428972 LL:  -4.068 LR: -14.685 RR:   0.000 FEB:  -7.526
USER: RMSD 7.916696
USER: SEED 160
USER: STATUS no improvement in best in 1 clusters for 5 generations
USER: GENES 26
USER: genes 0 Translation |==|  0.46610 0.63664 0.51500
USER: genes 1 Rotation |==|  0.57870 0.07457 0.34255 0.69501
USER: genes 2 Torsion [C]-CA--CB-[OG] |==|  0.52176
USER: genes 3 Torsion [CA]-CB--OG-[HG] |==|  0.69750
USER: genes 4 Torsion [N]-CA--C-[N] |==|  0.45044
USER: genes 5 Torsion [C]-N--CA-[C] |==|  0.64214
USER: genes 6 Torsion [N]-CA--C-[N] |==|  0.99454
USER: genes 7 Torsion [C]-N--CA-[CB] |==|  0.21417
USER: genes 8 Torsion [N]-CA--CB-[OG] |==|  0.23585
USER: genes 9 Torsion [CA]-CB--OG-[HG] |==|  0.63495
USER: genes 10 Torsion [N]-CA--C-[N] |==|  0.45965
USER: genes 11 Torsion [C]-N--CA-[C] |==|  0.52586
USER: genes 12 Torsion [N]-CA--C-[O] |==|  0.50623
USER: genes 13 Torsion [N]-CA--CB-[CG2] |==|  0.16970
USER: genes 14 Torsion [CA]-CB--OG1-[HG1] |==|  0.82735
USER: genes 15 Torsion [N]-CA--CB-[OG] |==|  0.13303
USER: genes 16 Torsion [CA]-CB--OG-[HG] |==|  0.02116
USER: genes 17 Torsion [CB]-CA--N-[C] |==|  0.25647
USER: genes 18 Torsion [N]-C--CA-[N] |==|  0.98013
USER: genes 19 Torsion [C]-CA--N-[C] |==|  0.79866
USER: genes 20 Torsion [N]-C--CA-[N] |==|  0.75556
USER: genes 21 Torsion [C]-CA--N-[C] |==|  0.55959
USER: genes 22 Torsion [N]-C--CA-[N] |==|  0.66817
USER: genes 23 Torsion [C]-CA--CB-[CG] |==|  0.24694
USER: genes 24 Torsion [CA]-CB--CG-[OD1] |==|  0.34174
USER: genes 25 Torsion [C]-CA--CB-[CG1] |==|  0.20656
ROOT
ATOM      1  CA  SER D1363     -22.771  25.640 -37.884  1.00 54.34 LIG 0.20  C 
ENDROOT
BRANCH 1 2
ATOM      2  CB  SER D1363     -22.714  26.503 -39.147  1.00 54.70 LIG 0.20  C 
BRANCH 2 3
ATOM      3 OG   SER D1363     -22.213  25.775 -40.255  1.00 55.13 LIG-0.40  OA
ATOM      4 HG   SER D1363     -21.442  26.050 -40.446  1.00 55.13 LIG 0.21  HD
ENDBRANCH 2 3
ENDBRANCH 1 2
BRANCH 1 5
ATOM      5  C   SER D1363     -23.486  26.389 -36.783  1.00 54.23 LIG 0.24  C 
ATOM      6  N   SER D1364     -22.790  27.360 -36.209  1.00 54.98 LIG-0.34  N 
ATOM      7 H    SER D1364     -21.989  27.569 -36.440  1.00 54.98 LIG 0.16  HD
ATOM      8 O    SER D1363     -24.640  26.107 -36.468  1.00 54.73 LIG-0.27  OA
BRANCH 6 9
ATOM      9  CA  SER D1364     -23.321  28.171 -35.122  1.00 55.87 LIG 0.20  C 
BRANCH 9 10
ATOM     10  C   SER D1364     -23.123  29.657 -35.487  1.00 56.37 LIG 0.24  C 
ATOM     11 O    SER D1364     -23.534  30.524 -34.754  1.00 55.91 LIG-0.27  OA
ATOM     12  N   SER D1365     -22.509  29.941 -36.627  1.00 58.29 LIG-0.34  N 
ATOM     13 H    SER D1365     -22.211  29.356 -37.182  1.00 58.29 LIG 0.16  HD
BRANCH 12 14
ATOM     14  CA  SER D1365     -22.295  31.322 -37.013  1.00 60.08 LIG 0.20  C 
BRANCH 14 15
ATOM     15  CB  SER D1365     -21.143  31.920 -36.234  1.00 57.27 LIG 0.20  C 
BRANCH 15 16
ATOM     16 OG   SER D1365     -19.942  31.598 -36.894  1.00 56.70 LIG-0.40  OA
ATOM     17 HG   SER D1365     -19.390  31.294 -36.338  1.00 56.70 LIG 0.21  HD
ENDBRANCH 15 16
ENDBRANCH 14 15
BRANCH 14 18
ATOM     18  C   SER D1365     -21.866  31.214 -38.451  1.00 61.54 LIG 0.24  C 
ATOM     19  N   THR D1366     -21.903  32.357 -39.113  1.00 60.28 LIG-0.34  N 
ATOM     20 H    THR D1366     -21.961  33.136 -38.754  1.00 60.28 LIG 0.16  HD
ATOM     21 O    SER D1365     -21.462  30.161 -38.932  1.00 62.26 LIG-0.27  OA
BRANCH 19 22
ATOM     22  CA  THR D1366     -21.843  32.341 -40.545  1.00 59.76 LIG 0.19  C 
BRANCH 22 23
ATOM     23  C   THR D1366     -21.666  33.737 -41.180  1.00 59.52 LIG 0.22  C 
ATOM     24 O    THR D1366     -21.648  33.808 -42.440  1.00 43.13 LIG-0.29  OA
ENDBRANCH 22 23
BRANCH 22 25
ATOM     25  CB  THR D1366     -23.188  31.630 -40.856  1.00 59.99 LIG 0.14  C 
ATOM     26  CG2 THR D1366     -24.395  32.369 -40.364  1.00 59.85 LIG 0.04  C 
BRANCH 25 27
ATOM     27 OG1  THR D1366     -23.270  31.268 -42.235  1.00 59.97 LIG-0.39  OA
ATOM     28 HG1  THR D1366     -23.244  31.962 -42.709  1.00 59.97 LIG 0.21  HD
ENDBRANCH 25 27
ENDBRANCH 22 25
ENDBRANCH 19 22
ENDBRANCH 14 18
ENDBRANCH 12 14
ENDBRANCH 9 10
BRANCH 9 29
ATOM     29  CB  SER D1364     -22.565  27.846 -33.832  1.00 55.64 LIG 0.20  C 
BRANCH 29 30
ATOM     30 OG   SER D1364     -21.164  27.848 -34.033  1.00 56.44 LIG-0.40  OA
ATOM     31 HG   SER D1364     -20.991  28.130 -34.805  1.00 56.44 LIG 0.21  HD
ENDBRANCH 29 30
ENDBRANCH 9 29
ENDBRANCH 6 9
ENDBRANCH 1 5
BRANCH 1 32
ATOM     32  N   SER D1363     -23.406  24.365 -38.170  1.00 53.98 LIG-0.34  N 
ATOM     33  C   VAL D1362     -22.689  23.304 -38.520  1.00 54.25 LIG 0.24  C 
ATOM     34 O    VAL D1362     -21.462  23.325 -38.618  1.00 54.63 LIG-0.27  OA
ATOM     35 H    SER D1363     -24.263  24.366 -38.094  1.00 53.98 LIG 0.16  HD
BRANCH 33 36
ATOM     36  CA  VAL D1362     -23.469  22.031 -38.805  1.00 53.82 LIG 0.18  C 
BRANCH 36 37
ATOM     37  N   VAL D1362     -24.865  22.232 -38.457  1.00 55.57 LIG-0.35  N 
ATOM     38  C   ASP D1361     -25.272  22.303 -37.197  1.00 57.59 LIG 0.24  C 
ATOM     39 O    ASP D1361     -24.510  22.223 -36.234  1.00 58.12 LIG-0.27  OA
ATOM     40 H    VAL D1362     -25.391  22.300 -39.134  1.00 55.57 LIG 0.16  HD
BRANCH 38 41
ATOM     41  CA  ASP D1361     -26.759  22.517 -36.997  1.00 59.82 LIG 0.19  C 
BRANCH 41 42
ATOM     42  N   ASP D1361     -27.125  23.933 -36.982  1.00 59.55 LIG-0.34  N 
ATOM     43  C   PRO D1360     -28.251  24.372 -36.421  1.00 59.89 LIG 0.25  C 
ATOM     44 O    PRO D1360     -29.063  23.635 -35.859  1.00 59.45 LIG-0.27  OA
ATOM     45 H    ASP D1361     -26.551  24.448 -37.364  1.00 59.55 LIG 0.16  HD
BRANCH 43 46
ATOM     46  CA  PRO D1360     -28.490  25.876 -36.498  1.00 59.77 LIG 0.35  C 
ATOM     47  N   PRO D1360     -28.588  26.499 -35.161  1.00 58.11 LIG 0.32  N 
ATOM     48  CD  PRO D1360     -27.732  27.697 -35.110  1.00 58.92 LIG 0.32  C 
ATOM     49  CG  PRO D1360     -27.413  27.951 -36.605  1.00 60.40 LIG 0.04  C 
ATOM     50  CB  PRO D1360     -27.346  26.571 -37.223  1.00 59.31 LIG 0.05  C 
ENDBRANCH 43 46
ENDBRANCH 41 42
BRANCH 41 51
ATOM     51  CB  ASP D1361     -27.514  21.765 -38.098  1.00 61.63 LIG 0.15  C 
BRANCH 51 52
ATOM     52  CG  ASP D1361     -27.834  20.331 -37.716  1.00 64.71 LIG 0.17  C 
ATOM     53 OD1  ASP D1361     -29.026  19.958 -37.733  1.00 66.40 LIG-0.65  OA
ATOM     54 OD2  ASP D1361     -26.889  19.580 -37.390  1.00 65.87 LIG-0.65  OA
ENDBRANCH 51 52
ENDBRANCH 41 51
ENDBRANCH 38 41
ENDBRANCH 36 37
BRANCH 36 55
ATOM     55  CB  VAL D1362     -23.324  21.664 -40.299  1.00 52.08 LIG 0.01  C 
ATOM     56  CG1 VAL D1362     -21.937  21.098 -40.575  1.00 50.17 LIG 0.01  C 
ATOM     57  CG2 VAL D1362     -24.396  20.661 -40.681  1.00 49.53 LIG 0.01  C 
ENDBRANCH 36 55
ENDBRANCH 33 36
ENDBRANCH 1 32
TORSDOF 24
ENDMDL
MODEL 13
USER: ADFR SOLUTION from run 136
USER: SCORE 15.852376 LL:  -3.975 LR: -14.643 RR:   0.000 FEB:  -7.484
USER: RMSD 2.806626
USER: SEED 135
USER: STATUS no improvement in best in 7 clusters for 5 generations
USER: GENES 26
USER: genes 0 Translation |==|  0.44369 0.49374 0.44081
USER: genes 1 Rotation |==|  0.50856 0.59290 0.50519 0.99119
USER: genes 2 Torsion [C]-CA--CB-[OG] |==|  0.69205
USER: genes 3 Torsion [CA]-CB--OG-[HG] |==|  0.08217
USER: genes 4 Torsion [N]-CA--C-[N] |==|  0.54709
USER: genes 5 Torsion [C]-N--CA-[C] |==|  0.53602
USER: genes 6 Torsion [N]-CA--C-[N] |==|  0.43590
USER: genes 7 Torsion [C]-N--CA-[CB] |==|  0.36358
USER: genes 8 Torsion [N]-CA--CB-[OG] |==|  0.05481
USER: genes 9 Torsion [CA]-CB--OG-[HG] |==|  0.19509
USER: genes 10 Torsion [N]-CA--C-[N] |==|  0.92166
USER: genes 11 Torsion [C]-N--CA-[C] |==|  0.57495
USER: genes 12 Torsion [N]-CA--C-[O] |==|  0.00694
USER: genes 13 Torsion [N]-CA--CB-[CG2] |==|  0.39404
USER: genes 14 Torsion [CA]-CB--OG1-[HG1] |==|  0.02314
USER: genes 15 Torsion [N]-CA--CB-[OG] |==|  0.45594
USER: genes 16 Torsion [CA]-CB--OG-[HG] |==|  0.15617
USER: genes 17 Torsion [CB]-CA--N-[C] |==|  0.48333
USER: genes 18 Torsion [N]-C--CA-[N] |==|  0.33985
USER: genes 19 Torsion [C]-CA--N-[C] |==|  0.82525
USER: genes 20 Torsion [N]-C--CA-[N] |==|  0.10470
USER: genes 21 Torsion [C]-CA--N-[C] |==|  0.15423
USER: genes 22 Torsion [N]-C--CA-[N] |==|  0.60835
USER: genes 23 Torsion [C]-CA--CB-[CG] |==|  0.53450
USER: genes 24 Torsion [CA]-CB--CG-[OD1] |==|  0.23006
USER: genes 25 Torsion [C]-CA--CB-[CG1] |==|  0.55201
ROOT
ATOM      1  CA  SER D1363     -23.141  21.674 -38.997  1.00 54.34 LIG 0.20  C 
ENDROOT
BRANCH 1 2
ATOM      2  CB  SER D1363     -23.905  21.430 -37.693  1.00 54.70 LIG 0.20  C 
BRANCH 2 3
ATOM      3 OG   SER D1363     -23.348  20.358 -36.954  1.00 55.13 LIG-0.40  OA
ATOM      4 HG   SER D1363     -22.524  20.307 -37.111  1.00 55.13 LIG 0.21  HD
ENDBRANCH 2 3
ENDBRANCH 1 2
BRANCH 1 5
ATOM      5  C   SER D1363     -22.397  22.988 -38.917  1.00 54.23 LIG 0.24  C 
ATOM      6  N   SER D1364     -23.052  23.980 -38.332  1.00 54.98 LIG-0.34  N 
ATOM      7 H    SER D1364     -23.844  23.898 -38.007  1.00 54.98 LIG 0.16  HD
ATOM      8 O    SER D1363     -21.256  23.099 -39.361  1.00 54.73 LIG-0.27  OA
BRANCH 6 9
ATOM      9  CA  SER D1364     -22.488  25.314 -38.185  1.00 55.87 LIG 0.20  C 
BRANCH 9 10
ATOM     10  C   SER D1364     -23.366  26.103 -37.190  1.00 56.37 LIG 0.24  C 
ATOM     11 O    SER D1364     -24.520  25.790 -37.016  1.00 55.91 LIG-0.27  OA
ATOM     12  N   SER D1365     -22.818  27.130 -36.556  1.00 58.29 LIG-0.34  N 
ATOM     13 H    SER D1365     -22.006  27.393 -36.659  1.00 58.29 LIG 0.16  HD
BRANCH 12 14
ATOM     14  CA  SER D1365     -23.600  27.900 -35.609  1.00 60.08 LIG 0.20  C 
BRANCH 14 15
ATOM     15  CB  SER D1365     -22.841  28.074 -34.310  1.00 57.27 LIG 0.20  C 
BRANCH 15 16
ATOM     16 OG   SER D1365     -21.474  27.846 -34.557  1.00 56.70 LIG-0.40  OA
ATOM     17 HG   SER D1365     -21.163  28.478 -35.015  1.00 56.70 LIG 0.21  HD
ENDBRANCH 15 16
ENDBRANCH 14 15
BRANCH 14 18
ATOM     18  C   SER D1365     -23.699  29.251 -36.264  1.00 61.54 LIG 0.24  C 
ATOM     19  N   THR D1366     -22.684  29.542 -37.058  1.00 60.28 LIG-0.34  N 
ATOM     20 H    THR D1366     -22.111  28.975 -37.358  1.00 60.28 LIG 0.16  HD
ATOM     21 O    SER D1365     -24.675  29.978 -36.112  1.00 62.26 LIG-0.27  OA
BRANCH 19 22
ATOM     22  CA  THR D1366     -22.486  30.898 -37.477  1.00 59.76 LIG 0.19  C 
BRANCH 22 23
ATOM     23  C   THR D1366     -21.759  31.037 -38.831  1.00 59.52 LIG 0.22  C 
ATOM     24 O    THR D1366     -21.462  29.978 -39.448  1.00 43.13 LIG-0.29  OA
ENDBRANCH 22 23
BRANCH 22 25
ATOM     25  CB  THR D1366     -21.714  31.443 -36.243  1.00 59.99 LIG 0.14  C 
ATOM     26  CG2 THR D1366     -20.620  32.407 -36.589  1.00 59.85 LIG 0.04  C 
BRANCH 25 27
ATOM     27 OG1  THR D1366     -22.615  31.940 -35.253  1.00 59.97 LIG-0.39  OA
ATOM     28 HG1  THR D1366     -23.403  31.744 -35.468  1.00 59.97 LIG 0.21  HD
ENDBRANCH 25 27
ENDBRANCH 22 25
ENDBRANCH 19 22
ENDBRANCH 14 18
ENDBRANCH 12 14
ENDBRANCH 9 10
BRANCH 9 29
ATOM     29  CB  SER D1364     -22.485  26.016 -39.546  1.00 55.64 LIG 0.20  C 
BRANCH 29 30
ATOM     30 OG   SER D1364     -22.294  27.412 -39.413  1.00 56.44 LIG-0.40  OA
ATOM     31 HG   SER D1364     -21.582  27.559 -38.992  1.00 56.44 LIG 0.21  HD
ENDBRANCH 29 30
ENDBRANCH 9 29
ENDBRANCH 6 9
ENDBRANCH 1 5
BRANCH 1 32
ATOM     32  N   SER D1363     -22.248  20.563 -39.276  1.00 53.98 LIG-0.34  N 
ATOM     33  C   VAL D1362     -21.569  20.497 -40.415  1.00 54.25 LIG 0.24  C 
ATOM     34 O    VAL D1362     -21.643  21.358 -41.291  1.00 54.63 LIG-0.27  OA
ATOM     35 H    SER D1363     -22.205  19.973 -38.652  1.00 53.98 LIG 0.16  HD
BRANCH 33 36
ATOM     36  CA  VAL D1362     -20.677  19.280 -40.594  1.00 53.82 LIG 0.18  C 
BRANCH 36 37
ATOM     37  N   VAL D1362     -21.065  18.570 -41.800  1.00 55.57 LIG-0.35  N 
ATOM     38  C   ASP D1361     -22.265  18.021 -41.937  1.00 57.59 LIG 0.24  C 
ATOM     39 O    ASP D1361     -23.141  18.085 -41.074  1.00 58.12 LIG-0.27  OA
ATOM     40 H    VAL D1362     -20.454  18.539 -42.404  1.00 55.57 LIG 0.16  HD
BRANCH 38 41
ATOM     41  CA  ASP D1361     -22.521  17.316 -43.253  1.00 59.82 LIG 0.19  C 
BRANCH 41 42
ATOM     42  N   ASP D1361     -21.343  16.600 -43.744  1.00 59.55 LIG-0.34  N 
ATOM     43  C   PRO D1360     -20.710  15.683 -43.013  1.00 59.89 LIG 0.25  C 
ATOM     44 O    PRO D1360     -21.068  15.351 -41.881  1.00 59.45 LIG-0.27  OA
ATOM     45 H    ASP D1361     -21.102  16.825 -44.539  1.00 59.55 LIG 0.16  HD
BRANCH 43 46
ATOM     46  CA  PRO D1360     -19.494  15.035 -43.666  1.00 59.77 LIG 0.35  C 
ATOM     47  N   PRO D1360     -19.400  13.590 -43.370  1.00 58.11 LIG 0.32  N 
ATOM     48  CD  PRO D1360     -19.157  12.845 -44.616  1.00 58.92 LIG 0.32  C 
ATOM     49  CG  PRO D1360     -18.746  13.963 -45.606  1.00 60.40 LIG 0.04  C 
ATOM     50  CB  PRO D1360     -19.555  15.170 -45.181  1.00 59.31 LIG 0.05  C 
ENDBRANCH 43 46
ENDBRANCH 41 42
BRANCH 41 51
ATOM     51  CB  ASP D1361     -23.709  16.364 -43.075  1.00 61.63 LIG 0.15  C 
BRANCH 51 52
ATOM     52  CG  ASP D1361     -23.861  15.393 -44.233  1.00 64.71 LIG 0.17  C 
ATOM     53 OD1  ASP D1361     -23.167  14.355 -44.240  1.00 66.40 LIG-0.65  OA
ATOM     54 OD2  ASP D1361     -24.674  15.678 -45.140  1.00 65.87 LIG-0.65  OA
ENDBRANCH 51 52
ENDBRANCH 41 51
ENDBRANCH 38 41
ENDBRANCH 36 37
BRANCH 36 55
ATOM     55  CB  VAL D1362     -19.201  19.733 -40.677  1.00 52.08 LIG 0.01  C 
ATOM     56  CG1 VAL D1362     -18.345  18.641 -41.304  1.00 50.17 LIG 0.01  C 
ATOM     57  CG2 VAL D1362     -19.109  21.014 -41.484  1.00 49.53 LIG 0.01  C 
ENDBRANCH 36 55
ENDBRANCH 33 36
ENDBRANCH 1 32
TORSDOF 24
ENDMDL
