MODEL 1
USER: ADFR SOLUTION from run 18
USER: SCORE 24.845425 LL:  -3.443 LR: -23.190 RR:   0.000 FEB: -14.540
USER: RMSD 2.399185
USER: SEED 17
USER: STATUS 1 or 2 clusters left
USER: GENES 31
USER: genes 0 Translation |==|  0.52006 0.60397 0.58545
USER: genes 1 Rotation |==|  0.46237 0.41825 0.44982 0.98927
USER: genes 2 Torsion [CB]-CA--N-[C] |==|  0.42844
USER: genes 3 Torsion [N]-C--CA-[N] |==|  0.92601
USER: genes 4 Torsion [C]-CA--N-[C] |==|  0.84961
USER: genes 5 Torsion [N]-C--CA-[N] |==|  0.41006
USER: genes 6 Torsion [C]-CA--N-[C] |==|  0.63278
USER: genes 7 Torsion [N]-C--CA-[N] |==|  0.54392
USER: genes 8 Torsion [C]-CA--CB-[OG] |==|  0.25318
USER: genes 9 Torsion [CA]-CB--OG-[HG] |==|  0.94305
USER: genes 10 Torsion [C]-CA--CB-[OG] |==|  0.13183
USER: genes 11 Torsion [CA]-CB--OG-[HG] |==|  0.47411
USER: genes 12 Torsion [C]-CA--CB-[CG] |==|  0.50779
USER: genes 13 Torsion [CA]-CB--CG-[CD2] |==|  0.21505
USER: genes 14 Torsion [N]-CA--C-[N] |==|  0.37522
USER: genes 15 Torsion [C]-N--CA-[C] |==|  0.68478
USER: genes 16 Torsion [N]-CA--C-[N] |==|  0.39912
USER: genes 17 Torsion [C]-N--CA-[CB] |==|  0.83833
USER: genes 18 Torsion [N]-CA--C-[N] |==|  0.40743
USER: genes 19 Torsion [C]-N--CA-[C] |==|  0.56610
USER: genes 20 Torsion [N]-CA--C-[O] |==|  0.31706
USER: genes 21 Torsion [N]-CA--CB-[CG] |==|  0.58947
USER: genes 22 Torsion [CA]-CB--CG-[CD] |==|  0.23748
USER: genes 23 Torsion [CB]-CG--CD-[NE] |==|  0.36603
USER: genes 24 Torsion [CG]-CD--NE-[HE] |==|  0.66883
USER: genes 25 Torsion [N]-CA--CB-[CG] |==|  0.36028
USER: genes 26 Torsion [CA]-CB--CG-[OD2] |==|  0.28052
USER: genes 27 Torsion [N]-CA--CB-[OG] |==|  0.94734
USER: genes 28 Torsion [CA]-CB--OG-[HG] |==|  0.20156
USER: genes 29 Torsion [N]-CA--CB-[CG] |==|  0.66243
USER: genes 30 Torsion [CA]-CB--CG-[CD2] |==|  0.35188
ROOT
ATOM      1  CA  PHE D  85      22.748  12.244  -5.417  1.00 13.62 LIG 0.18  C 
ENDROOT
BRANCH 1 2
ATOM      2  N   PHE D  85      21.281  12.026  -5.285  1.00 12.64 LIG-0.35  N 
ATOM      3  C   PHE D  84      20.433  12.911  -5.779  1.00 12.54 LIG 0.24  C 
ATOM      4 O    PHE D  84      20.809  13.962  -6.294  1.00 13.45 LIG-0.27  OA
ATOM      5 H    PHE D  85      21.053  11.304  -4.877  1.00 12.64 LIG 0.16  HD
BRANCH 3 6
ATOM      6  CA  PHE D  84      18.953  12.586  -5.636  1.00 10.99 LIG 0.18  C 
BRANCH 6 7
ATOM      7  N   PHE D  84      18.684  11.157  -5.554  1.00 11.22 LIG-0.35  N 
ATOM      8  C   SER D  83      19.131  10.328  -6.487  1.00 13.00 LIG 0.24  C 
ATOM      9 O    SER D  83      19.635  10.708  -7.540  1.00 14.46 LIG-0.27  OA
ATOM     10 H    PHE D  84      18.226  10.915  -4.868  1.00 11.22 LIG 0.16  HD
BRANCH 8 11
ATOM     11  CA  SER D  83      19.002   8.841  -6.199  1.00 14.43 LIG 0.20  C 
BRANCH 11 12
ATOM     12  N   SER D  83      18.786   8.163  -7.466  1.00 17.69 LIG-0.34  N 
ATOM     13 H    SER D  83      19.331   8.402  -8.087  1.00 17.69 LIG 0.16  HD
ATOM     14  C   SER D  82      17.831   7.260  -7.639  1.00 24.18 LIG 0.26  C 
ATOM     15 O    SER D  82      17.057   6.931  -6.750  1.00 25.18 LIG-0.27  OA
BRANCH 14 16
ATOM     16  CA  SER D  82      17.688   6.669  -9.034  1.00 26.20 LIG 0.42  C 
ATOM     17  N   SER D  82      16.370   5.987  -9.157  1.00 29.40 LIG 0.62  N 
BRANCH 16 18
ATOM     18  CB  SER D  82      17.761   7.813 -10.013  1.00 30.27 LIG 0.21  C 
BRANCH 18 19
ATOM     19 OG   SER D  82      19.091   8.034 -10.433  1.00 31.34 LIG-0.40  OA
ATOM     20 HG   SER D  82      19.621   7.697  -9.876  1.00 31.34 LIG 0.21  HD
ENDBRANCH 18 19
ENDBRANCH 16 18
ENDBRANCH 14 16
ENDBRANCH 11 12
BRANCH 11 21
ATOM     21  CB  SER D  83      20.336   8.407  -5.582  1.00 14.68 LIG 0.20  C 
BRANCH 21 22
ATOM     22 OG   SER D  83      20.725   9.308  -4.567  1.00 13.30 LIG-0.40  OA
ATOM     23 HG   SER D  83      21.384   8.995  -4.152  1.00 13.30 LIG 0.21  HD
ENDBRANCH 21 22
ENDBRANCH 11 21
ENDBRANCH 8 11
ENDBRANCH 6 7
BRANCH 6 24
ATOM     24  CB  PHE D  84      18.250  13.304  -4.490  1.00  8.98 LIG 0.07  C 
BRANCH 24 25
ATOM     25  CG  PHE D  84      16.810  12.877  -4.374  1.00  8.49 LIG-0.06  A 
ATOM     26  CD2 PHE D  84      16.495  11.641  -3.782  1.00 10.31 LIG 0.01  A 
ATOM     27  CE2 PHE D  84      15.166  11.272  -3.596  1.00 10.65 LIG 0.00  A 
ATOM     28  CZ  PHE D  84      14.121  12.098  -4.028  1.00 10.75 LIG 0.00  A 
ATOM     29  CE1 PHE D  84      14.423  13.334  -4.662  1.00 10.66 LIG 0.00  A 
ATOM     30  CD1 PHE D  84      15.763  13.733  -4.767  1.00  9.98 LIG 0.01  A 
ENDBRANCH 24 25
ENDBRANCH 6 24
ENDBRANCH 3 6
ENDBRANCH 1 2
BRANCH 1 31
ATOM     31  C   PHE D  85      23.252  11.784  -6.783  1.00 16.85 LIG 0.24  C 
ATOM     32 O    PHE D  85      22.932  10.684  -7.221  1.00 18.00 LIG-0.27  OA
ATOM     33  N   SER D  86      24.093  12.610  -7.413  1.00 18.10 LIG-0.34  N 
ATOM     34 H    SER D  86      24.510  13.246  -7.012  1.00 18.10 LIG 0.16  HD
BRANCH 33 35
ATOM     35  CA  SER D  86      24.393  12.531  -8.829  1.00 22.43 LIG 0.20  C 
BRANCH 35 36
ATOM     36  C   SER D  86      25.838  12.135  -9.066  1.00 23.81 LIG 0.24  C 
ATOM     37  N   ASP D  87      26.036  11.344 -10.113  1.00 23.40 LIG-0.34  N 
ATOM     38 H    ASP D  87      25.417  11.132 -10.671  1.00 23.40 LIG 0.16  HD
ATOM     39 O    SER D  86      26.749  12.518  -8.308  1.00 25.32 LIG-0.27  OA
BRANCH 37 40
ATOM     40  CA  ASP D  87      27.342  10.751 -10.421  1.00 26.51 LIG 0.19  C 
BRANCH 40 41
ATOM     41  C   ASP D  87      27.800   9.758  -9.351  1.00 27.38 LIG 0.24  C 
ATOM     42 O    ASP D  87      27.490   9.918  -8.153  1.00 28.73 LIG-0.27  OA
ATOM     43  N   ARG D  88      28.515   8.728  -9.794  1.00 28.82 LIG-0.35  N 
ATOM     44 H    ARG D  88      28.712   8.623 -10.625  1.00 28.82 LIG 0.16  HD
BRANCH 43 45
ATOM     45  CA  ARG D  88      29.046   7.666  -8.936  1.00 28.71 LIG 0.16  C 
BRANCH 45 46
ATOM     46  C   ARG D  88      30.259   6.993  -9.590  1.00 31.71 LIG 0.22  C 
ATOM     47 O    ARG D  88      31.387   7.101  -9.071  1.00 33.51 LIG-0.29  OA
ENDBRANCH 45 46
BRANCH 45 48
ATOM     48  CB  ARG D  88      28.000   6.576  -8.643  1.00 27.82 LIG 0.04  C 
BRANCH 48 49
ATOM     49  CG  ARG D  88      28.075   5.872  -7.276  1.00 22.71 LIG 0.02  C 
BRANCH 49 50
ATOM     50  CD  ARG D  88      27.325   6.675  -6.242  1.00 22.91 LIG 0.14  C 
BRANCH 50 51
ATOM     51  NE  ARG D  88      26.436   5.801  -5.487  1.00 22.66 LIG-0.23  N 
ATOM     52  CZ  ARG D  88      26.817   4.763  -4.746  1.00 22.61 LIG 0.67  C 
ATOM     53  NH2 ARG D  88      25.893   4.061  -4.113  1.00 21.99 LIG-0.23  N 
ATOM     54  NH1 ARG D  88      28.091   4.358  -4.744  1.00 25.76 LIG-0.23  N 
ATOM     55 2HH2 ARG D  88      26.120   3.387  -3.630  1.00 21.99 LIG 0.17  HD
ATOM     56 1HH2 ARG D  88      25.064   4.278  -4.185  1.00 21.99 LIG 0.17  HD
ATOM     57 2HH1 ARG D  88      28.328   3.686  -4.263  1.00 25.76 LIG 0.17  HD
ATOM     58 1HH1 ARG D  88      28.674   4.769  -5.225  1.00 25.76 LIG 0.17  HD
ATOM     59 HE   ARG D  88      25.594   5.971  -5.522  1.00 22.66 LIG 0.18  HD
ENDBRANCH 50 51
ENDBRANCH 49 50
ENDBRANCH 48 49
ENDBRANCH 45 48
ENDBRANCH 43 45
ENDBRANCH 40 41
BRANCH 40 60
ATOM     60  CB  ASP D  87      28.376  11.873 -10.603  1.00 26.50 LIG 0.15  C 
BRANCH 60 61
ATOM     61  CG  ASP D  87      29.659  11.661  -9.775  1.00 24.52 LIG 0.17  C 
ATOM     62 OD2  ASP D  87      30.654  11.212 -10.406  1.00 24.79 LIG-0.65  OA
ATOM     63 OD1  ASP D  87      29.702  11.909  -8.530  1.00 24.25 LIG-0.65  OA
ENDBRANCH 60 61
ENDBRANCH 40 60
ENDBRANCH 37 40
ENDBRANCH 35 36
BRANCH 35 64
ATOM     64  CB  SER D  86      24.154  13.914  -9.443  1.00 23.53 LIG 0.20  C 
BRANCH 64 65
ATOM     65 OG   SER D  86      23.331  14.667  -8.580  1.00 29.54 LIG-0.40  OA
ATOM     66 HG   SER D  86      23.771  14.898  -7.903  1.00 29.54 LIG 0.21  HD
ENDBRANCH 64 65
ENDBRANCH 35 64
ENDBRANCH 33 35
ENDBRANCH 1 31
BRANCH 1 67
ATOM     67  CB  PHE D  85      23.512  11.516  -4.290  1.00 13.93 LIG 0.07  C 
BRANCH 67 68
ATOM     68  CG  PHE D  85      24.343  12.431  -3.453  1.00 11.63 LIG-0.06  A 
ATOM     69  CD1 PHE D  85      25.365  13.220  -4.035  1.00 12.04 LIG 0.01  A 
ATOM     70  CE1 PHE D  85      26.170  14.081  -3.253  1.00 12.49 LIG 0.00  A 
ATOM     71  CZ  PHE D  85      25.952  14.115  -1.833  1.00 15.08 LIG 0.00  A 
ATOM     72  CE2 PHE D  85      24.967  13.281  -1.265  1.00 13.94 LIG 0.00  A 
ATOM     73  CD2 PHE D  85      24.197  12.435  -2.066  1.00 14.09 LIG 0.01  A 
ENDBRANCH 67 68
ENDBRANCH 1 67
TORSDOF 29
ENDMDL
MODEL 2
USER: ADFR SOLUTION from run 90
USER: SCORE 25.223450 LL:  -4.865 LR: -23.075 RR:   0.000 FEB: -14.425
USER: RMSD 1.348804
USER: SEED 89
USER: STATUS no improvement in best in 1 clusters for 5 generations
USER: GENES 31
USER: genes 0 Translation |==|  0.52080 0.61696 0.56195
USER: genes 1 Rotation |==|  0.51443 0.46580 0.44211 0.99525
USER: genes 2 Torsion [CB]-CA--N-[C] |==|  0.47814
USER: genes 3 Torsion [N]-C--CA-[N] |==|  0.94434
USER: genes 4 Torsion [C]-CA--N-[C] |==|  0.81023
USER: genes 5 Torsion [N]-C--CA-[N] |==|  0.42678
USER: genes 6 Torsion [C]-CA--N-[C] |==|  0.68317
USER: genes 7 Torsion [N]-C--CA-[N] |==|  0.09612
USER: genes 8 Torsion [C]-CA--CB-[OG] |==|  0.36675
USER: genes 9 Torsion [CA]-CB--OG-[HG] |==|  0.62721
USER: genes 10 Torsion [C]-CA--CB-[OG] |==|  0.15953
USER: genes 11 Torsion [CA]-CB--OG-[HG] |==|  0.44040
USER: genes 12 Torsion [C]-CA--CB-[CG] |==|  0.50177
USER: genes 13 Torsion [CA]-CB--CG-[CD2] |==|  0.25436
USER: genes 14 Torsion [N]-CA--C-[N] |==|  0.32778
USER: genes 15 Torsion [C]-N--CA-[C] |==|  0.86103
USER: genes 16 Torsion [N]-CA--C-[N] |==|  0.86669
USER: genes 17 Torsion [C]-N--CA-[CB] |==|  0.40932
USER: genes 18 Torsion [N]-CA--C-[N] |==|  0.93574
USER: genes 19 Torsion [C]-N--CA-[C] |==|  0.62901
USER: genes 20 Torsion [N]-CA--C-[O] |==|  0.21108
USER: genes 21 Torsion [N]-CA--CB-[CG] |==|  0.79843
USER: genes 22 Torsion [CA]-CB--CG-[CD] |==|  0.54147
USER: genes 23 Torsion [CB]-CG--CD-[NE] |==|  0.12617
USER: genes 24 Torsion [CG]-CD--NE-[HE] |==|  0.87908
USER: genes 25 Torsion [N]-CA--CB-[CG] |==|  0.20269
USER: genes 26 Torsion [CA]-CB--CG-[OD2] |==|  0.91115
USER: genes 27 Torsion [N]-CA--CB-[OG] |==|  0.76400
USER: genes 28 Torsion [CA]-CB--OG-[HG] |==|  0.90149
USER: genes 29 Torsion [N]-CA--CB-[CG] |==|  0.70711
USER: genes 30 Torsion [CA]-CB--CG-[CD2] |==|  0.84629
ROOT
ATOM      1  CA  PHE D  85      22.766  12.527  -5.857  1.00 13.62 LIG 0.18  C 
ENDROOT
BRANCH 1 2
ATOM      2  N   PHE D  85      21.334  12.268  -5.537  1.00 12.64 LIG-0.35  N 
ATOM      3  C   PHE D  84      20.397  13.082  -5.989  1.00 12.54 LIG 0.24  C 
ATOM      4 O    PHE D  84      20.664  14.103  -6.619  1.00 13.45 LIG-0.27  OA
ATOM      5 H    PHE D  85      21.187  11.572  -5.054  1.00 12.64 LIG 0.16  HD
BRANCH 3 6
ATOM      6  CA  PHE D  84      18.959  12.717  -5.647  1.00 10.99 LIG 0.18  C 
BRANCH 6 7
ATOM      7  N   PHE D  84      18.793  11.317  -5.283  1.00 11.22 LIG-0.35  N 
ATOM      8  C   SER D  83      18.948  10.358  -6.185  1.00 13.00 LIG 0.24  C 
ATOM      9 O    SER D  83      19.067  10.578  -7.388  1.00 14.46 LIG-0.27  OA
ATOM     10 H    PHE D  84      18.593  11.180  -4.459  1.00 11.22 LIG 0.16  HD
BRANCH 8 11
ATOM     11  CA  SER D  83      18.984   8.931  -5.665  1.00 14.43 LIG 0.20  C 
BRANCH 11 12
ATOM     12  N   SER D  83      18.532   8.059  -6.738  1.00 17.69 LIG-0.34  N 
ATOM     13 H    SER D  83      19.060   8.038  -7.416  1.00 17.69 LIG 0.16  HD
ATOM     14  C   SER D  82      17.404   7.365  -6.667  1.00 24.18 LIG 0.26  C 
ATOM     15 O    SER D  82      16.658   7.405  -5.698  1.00 25.18 LIG-0.27  OA
BRANCH 14 16
ATOM     16  CA  SER D  82      17.030   6.534  -7.885  1.00 26.20 LIG 0.42  C 
ATOM     17  N   SER D  82      18.263   5.998  -8.525  1.00 29.40 LIG 0.62  N 
BRANCH 16 18
ATOM     18  CB  SER D  82      16.173   5.392  -7.399  1.00 30.27 LIG 0.21  C 
BRANCH 18 19
ATOM     19 OG   SER D  82      15.012   5.259  -8.192  1.00 31.34 LIG-0.40  OA
ATOM     20 HG   SER D  82      14.343   5.160  -7.695  1.00 31.34 LIG 0.21  HD
ENDBRANCH 18 19
ENDBRANCH 16 18
ENDBRANCH 14 16
ENDBRANCH 11 12
BRANCH 11 21
ATOM     21  CB  SER D  83      20.447   8.637  -5.321  1.00 14.68 LIG 0.20  C 
BRANCH 21 22
ATOM     22 OG   SER D  83      20.928   9.573  -4.380  1.00 13.30 LIG-0.40  OA
ATOM     23 HG   SER D  83      21.596   9.253  -3.983  1.00 13.30 LIG 0.21  HD
ENDBRANCH 21 22
ENDBRANCH 11 21
ENDBRANCH 8 11
ENDBRANCH 6 7
BRANCH 6 24
ATOM     24  CB  PHE D  84      18.311  13.601  -4.589  1.00  8.98 LIG 0.07  C 
BRANCH 24 25
ATOM     25  CG  PHE D  84      16.898  13.165  -4.297  1.00  8.49 LIG-0.06  A 
ATOM     26  CD2 PHE D  84      16.653  12.242  -3.265  1.00 10.31 LIG 0.01  A 
ATOM     27  CE2 PHE D  84      15.346  11.894  -2.934  1.00 10.65 LIG 0.00  A 
ATOM     28  CZ  PHE D  84      14.258  12.418  -3.642  1.00 10.75 LIG 0.00  A 
ATOM     29  CE1 PHE D  84      14.492  13.323  -4.713  1.00 10.66 LIG 0.00  A 
ATOM     30  CD1 PHE D  84      15.806  13.732  -4.981  1.00  9.98 LIG 0.01  A 
ENDBRANCH 24 25
ENDBRANCH 6 24
ENDBRANCH 3 6
ENDBRANCH 1 2
BRANCH 1 31
ATOM     31  C   PHE D  85      23.026  12.396  -7.356  1.00 16.85 LIG 0.24  C 
ATOM     32 O    PHE D  85      22.897  11.311  -7.914  1.00 18.00 LIG-0.27  OA
ATOM     33  N   SER D  86      23.454  13.497  -7.982  1.00 18.10 LIG-0.34  N 
ATOM     34 H    SER D  86      23.782  14.173  -7.563  1.00 18.10 LIG 0.16  HD
BRANCH 33 35
ATOM     35  CA  SER D  86      23.416  13.676  -9.419  1.00 22.43 LIG 0.20  C 
BRANCH 35 36
ATOM     36  C   SER D  86      24.025  12.489 -10.141  1.00 23.81 LIG 0.24  C 
ATOM     37  N   ASP D  87      25.201  12.092  -9.671  1.00 23.40 LIG-0.34  N 
ATOM     38 H    ASP D  87      25.563  12.418  -8.962  1.00 23.40 LIG 0.16  HD
ATOM     39 O    SER D  86      23.455  11.959 -11.113  1.00 25.32 LIG-0.27  OA
BRANCH 37 40
ATOM     40  CA  ASP D  87      26.002  11.049 -10.322  1.00 26.51 LIG 0.19  C 
BRANCH 40 41
ATOM     41  C   ASP D  87      25.661   9.648  -9.812  1.00 27.38 LIG 0.24  C 
ATOM     42 O    ASP D  87      25.915   8.637 -10.496  1.00 28.73 LIG-0.27  OA
ATOM     43  N   ARG D  88      25.108   9.597  -8.602  1.00 28.82 LIG-0.35  N 
ATOM     44 H    ARG D  88      24.949  10.301  -8.135  1.00 28.82 LIG 0.16  HD
BRANCH 43 45
ATOM     45  CA  ARG D  88      24.709   8.357  -7.932  1.00 28.71 LIG 0.16  C 
BRANCH 45 46
ATOM     46  C   ARG D  88      23.303   8.489  -7.334  1.00 31.71 LIG 0.22  C 
ATOM     47 O    ARG D  88      22.303   8.438  -8.074  1.00 33.51 LIG-0.29  OA
ENDBRANCH 45 46
BRANCH 45 48
ATOM     48  CB  ARG D  88      25.673   7.972  -6.797  1.00 27.82 LIG 0.04  C 
BRANCH 48 49
ATOM     49  CG  ARG D  88      27.062   7.441  -7.197  1.00 22.71 LIG 0.02  C 
BRANCH 49 50
ATOM     50  CD  ARG D  88      27.721   6.781  -6.011  1.00 22.91 LIG 0.14  C 
BRANCH 50 51
ATOM     51  NE  ARG D  88      26.766   5.911  -5.335  1.00 22.66 LIG-0.23  N 
ATOM     52  CZ  ARG D  88      27.022   4.685  -4.884  1.00 22.61 LIG 0.67  C 
ATOM     53  NH2 ARG D  88      26.052   4.013  -4.288  1.00 21.99 LIG-0.23  N 
ATOM     54  NH1 ARG D  88      28.192   4.093  -5.145  1.00 25.76 LIG-0.23  N 
ATOM     55 2HH2 ARG D  88      26.198   3.219  -3.990  1.00 21.99 LIG 0.17  HD
ATOM     56 1HH2 ARG D  88      25.275   4.370  -4.196  1.00 21.99 LIG 0.17  HD
ATOM     57 2HH1 ARG D  88      28.348   3.301  -4.850  1.00 25.76 LIG 0.17  HD
ATOM     58 1HH1 ARG D  88      28.789   4.505  -5.607  1.00 25.76 LIG 0.17  HD
ATOM     59 HE   ARG D  88      25.971   6.216  -5.217  1.00 22.66 LIG 0.18  HD
ENDBRANCH 50 51
ENDBRANCH 49 50
ENDBRANCH 48 49
ENDBRANCH 45 48
ENDBRANCH 43 45
ENDBRANCH 40 41
BRANCH 40 60
ATOM     60  CB  ASP D  87      27.493  11.356 -10.119  1.00 26.50 LIG 0.15  C 
BRANCH 60 61
ATOM     61  CG  ASP D  87      27.979  11.098  -8.678  1.00 24.52 LIG 0.17  C 
ATOM     62 OD2  ASP D  87      27.129  11.294  -7.767  1.00 24.79 LIG-0.65  OA
ATOM     63 OD1  ASP D  87      29.168  10.727  -8.429  1.00 24.25 LIG-0.65  OA
ENDBRANCH 60 61
ENDBRANCH 40 60
ENDBRANCH 37 40
ENDBRANCH 35 36
BRANCH 35 64
ATOM     64  CB  SER D  86      24.226  14.930  -9.763  1.00 23.53 LIG 0.20  C 
BRANCH 64 65
ATOM     65 OG   SER D  86      23.399  16.065  -9.632  1.00 29.54 LIG-0.40  OA
ATOM     66 HG   SER D  86      22.618  15.872  -9.872  1.00 29.54 LIG 0.21  HD
ENDBRANCH 64 65
ENDBRANCH 35 64
ENDBRANCH 33 35
ENDBRANCH 1 31
BRANCH 1 67
ATOM     67  CB  PHE D  85      23.684  11.569  -5.068  1.00 13.93 LIG 0.07  C 
BRANCH 67 68
ATOM     68  CG  PHE D  85      24.390  12.232  -3.932  1.00 11.63 LIG-0.06  A 
ATOM     69  CD1 PHE D  85      24.190  11.797  -2.599  1.00 12.04 LIG 0.01  A 
ATOM     70  CE1 PHE D  85      24.841  12.425  -1.511  1.00 12.49 LIG 0.00  A 
ATOM     71  CZ  PHE D  85      25.694  13.549  -1.784  1.00 15.08 LIG 0.00  A 
ATOM     72  CE2 PHE D  85      25.838  14.001  -3.112  1.00 13.94 LIG 0.00  A 
ATOM     73  CD2 PHE D  85      25.172  13.364  -4.160  1.00 14.09 LIG 0.01  A 
ENDBRANCH 67 68
ENDBRANCH 1 67
TORSDOF 29
ENDMDL
MODEL 3
USER: ADFR SOLUTION from run 173
USER: SCORE 23.989410 LL:  -3.763 LR: -22.941 RR:   0.000 FEB: -14.290
USER: RMSD 9.277920
USER: SEED 172
USER: STATUS 1 or 2 clusters left
USER: GENES 31
USER: genes 0 Translation |==|  0.40624 0.56170 0.64109
USER: genes 1 Rotation |==|  0.55037 0.69419 0.94952 0.58765
USER: genes 2 Torsion [CB]-CA--N-[C] |==|  0.86328
USER: genes 3 Torsion [N]-C--CA-[N] |==|  0.38432
USER: genes 4 Torsion [C]-CA--N-[C] |==|  0.73930
USER: genes 5 Torsion [N]-C--CA-[N] |==|  0.04326
USER: genes 6 Torsion [C]-CA--N-[C] |==|  0.64593
USER: genes 7 Torsion [N]-C--CA-[N] |==|  0.41046
USER: genes 8 Torsion [C]-CA--CB-[OG] |==|  0.08692
USER: genes 9 Torsion [CA]-CB--OG-[HG] |==|  0.17595
USER: genes 10 Torsion [C]-CA--CB-[OG] |==|  0.77762
USER: genes 11 Torsion [CA]-CB--OG-[HG] |==|  0.83950
USER: genes 12 Torsion [C]-CA--CB-[CG] |==|  0.26537
USER: genes 13 Torsion [CA]-CB--CG-[CD2] |==|  0.96614
USER: genes 14 Torsion [N]-CA--C-[N] |==|  0.32285
USER: genes 15 Torsion [C]-N--CA-[C] |==|  0.57992
USER: genes 16 Torsion [N]-CA--C-[N] |==|  0.58837
USER: genes 17 Torsion [C]-N--CA-[CB] |==|  0.40872
USER: genes 18 Torsion [N]-CA--C-[N] |==|  0.90098
USER: genes 19 Torsion [C]-N--CA-[C] |==|  0.59283
USER: genes 20 Torsion [N]-CA--C-[O] |==|  0.02810
USER: genes 21 Torsion [N]-CA--CB-[CG] |==|  0.36727
USER: genes 22 Torsion [CA]-CB--CG-[CD] |==|  0.72011
USER: genes 23 Torsion [CB]-CG--CD-[NE] |==|  0.28104
USER: genes 24 Torsion [CG]-CD--NE-[HE] |==|  0.71695
USER: genes 25 Torsion [N]-CA--CB-[CG] |==|  0.55533
USER: genes 26 Torsion [CA]-CB--CG-[OD2] |==|  0.58091
USER: genes 27 Torsion [N]-CA--CB-[OG] |==|  0.12654
USER: genes 28 Torsion [CA]-CB--OG-[HG] |==|  0.78676
USER: genes 29 Torsion [N]-CA--CB-[CG] |==|  0.50514
USER: genes 30 Torsion [CA]-CB--CG-[CD2] |==|  0.12234
ROOT
ATOM      1  CA  PHE D  85      20.102  11.325  -4.374  1.00 13.62 LIG 0.18  C 
ENDROOT
BRANCH 1 2
ATOM      2  N   PHE D  85      21.575  11.525  -4.475  1.00 12.64 LIG-0.35  N 
ATOM      3  C   PHE D  84      22.070  12.344  -5.386  1.00 12.54 LIG 0.24  C 
ATOM      4 O    PHE D  84      21.359  12.908  -6.216  1.00 13.45 LIG-0.27  OA
ATOM      5 H    PHE D  85      22.045  11.077  -3.911  1.00 12.64 LIG 0.16  HD
BRANCH 3 6
ATOM      6  CA  PHE D  84      23.582  12.519  -5.390  1.00 10.99 LIG 0.18  C 
BRANCH 6 7
ATOM      7  N   PHE D  84      24.154  12.541  -6.729  1.00 11.22 LIG-0.35  N 
ATOM      8  C   SER D  83      24.621  11.432  -7.286  1.00 13.00 LIG 0.24  C 
ATOM      9 O    SER D  83      24.761  10.378  -6.672  1.00 14.46 LIG-0.27  OA
ATOM     10 H    PHE D  84      24.158  13.313  -7.107  1.00 11.22 LIG 0.16  HD
BRANCH 8 11
ATOM     11  CA  SER D  83      24.982  11.508  -8.760  1.00 14.43 LIG 0.20  C 
BRANCH 11 12
ATOM     12  N   SER D  83      25.067  12.913  -9.122  1.00 17.69 LIG-0.34  N 
ATOM     13 H    SER D  83      25.583  13.375  -8.611  1.00 17.69 LIG 0.16  HD
ATOM     14  C   SER D  82      24.404  13.428 -10.149  1.00 24.18 LIG 0.26  C 
ATOM     15 O    SER D  82      23.670  12.763 -10.867  1.00 25.18 LIG-0.27  OA
BRANCH 14 16
ATOM     16  CA  SER D  82      24.548  14.925 -10.379  1.00 26.20 LIG 0.42  C 
ATOM     17  N   SER D  82      24.463  15.218 -11.836  1.00 29.40 LIG 0.62  N 
BRANCH 16 18
ATOM     18  CB  SER D  82      23.407  15.598  -9.659  1.00 30.27 LIG 0.21  C 
BRANCH 18 19
ATOM     19 OG   SER D  82      23.036  14.869  -8.508  1.00 31.34 LIG-0.40  OA
ATOM     20 HG   SER D  82      23.676  14.855  -7.965  1.00 31.34 LIG 0.21  HD
ENDBRANCH 18 19
ENDBRANCH 16 18
ENDBRANCH 14 16
ENDBRANCH 11 12
BRANCH 11 21
ATOM     21  CB  SER D  83      26.353  10.837  -8.900  1.00 14.68 LIG 0.20  C 
BRANCH 21 22
ATOM     22 OG   SER D  83      27.378  11.730  -8.518  1.00 13.30 LIG-0.40  OA
ATOM     23 HG   SER D  83      27.335  12.423  -8.990  1.00 13.30 LIG 0.21  HD
ENDBRANCH 21 22
ENDBRANCH 11 21
ENDBRANCH 8 11
ENDBRANCH 6 7
BRANCH 6 24
ATOM     24  CB  PHE D  84      24.087  13.719  -4.599  1.00  8.98 LIG 0.07  C 
BRANCH 24 25
ATOM     25  CG  PHE D  84      24.492  13.327  -3.202  1.00  8.49 LIG-0.06  A 
ATOM     26  CD2 PHE D  84      24.139  12.060  -2.705  1.00 10.31 LIG 0.01  A 
ATOM     27  CE2 PHE D  84      24.577  11.655  -1.446  1.00 10.65 LIG 0.00  A 
ATOM     28  CZ  PHE D  84      25.335  12.510  -0.637  1.00 10.75 LIG 0.00  A 
ATOM     29  CE1 PHE D  84      25.666  13.809  -1.110  1.00 10.66 LIG 0.00  A 
ATOM     30  CD1 PHE D  84      25.294  14.173  -2.412  1.00  9.98 LIG 0.01  A 
ENDBRANCH 24 25
ENDBRANCH 6 24
ENDBRANCH 3 6
ENDBRANCH 1 2
BRANCH 1 31
ATOM     31  C   PHE D  85      19.583  10.469  -5.527  1.00 16.85 LIG 0.24  C 
ATOM     32 O    PHE D  85      19.612  10.897  -6.676  1.00 18.00 LIG-0.27  OA
ATOM     33  N   SER D  86      19.051   9.288  -5.196  1.00 18.10 LIG-0.34  N 
ATOM     34 H    SER D  86      18.802   9.098  -4.395  1.00 18.10 LIG 0.16  HD
BRANCH 33 35
ATOM     35  CA  SER D  86      18.836   8.207  -6.136  1.00 22.43 LIG 0.20  C 
BRANCH 35 36
ATOM     36  C   SER D  86      17.663   7.339  -5.722  1.00 23.81 LIG 0.24  C 
ATOM     37  N   ASP D  87      17.770   6.059  -6.056  1.00 23.40 LIG-0.34  N 
ATOM     38 H    ASP D  87      18.477   5.717  -6.405  1.00 23.40 LIG 0.16  HD
ATOM     39 O    SER D  86      16.676   7.819  -5.134  1.00 25.32 LIG-0.27  OA
BRANCH 37 40
ATOM     40  CA  ASP D  87      16.680   5.097  -5.859  1.00 26.51 LIG 0.19  C 
BRANCH 40 41
ATOM     41  C   ASP D  87      16.733   4.429  -4.484  1.00 27.38 LIG 0.24  C 
ATOM     42 O    ASP D  87      15.686   4.124  -3.878  1.00 28.73 LIG-0.27  OA
ATOM     43  N   ARG D  88      17.953   4.186  -4.012  1.00 28.82 LIG-0.35  N 
ATOM     44 H    ARG D  88      18.667   4.390  -4.445  1.00 28.82 LIG 0.16  HD
BRANCH 43 45
ATOM     45  CA  ARG D  88      18.223   3.552  -2.718  1.00 28.71 LIG 0.16  C 
BRANCH 45 46
ATOM     46  C   ARG D  88      19.507   4.114  -2.095  1.00 31.71 LIG 0.22  C 
ATOM     47 O    ARG D  88      20.056   5.115  -2.593  1.00 33.51 LIG-0.29  OA
ENDBRANCH 45 46
BRANCH 45 48
ATOM     48  CB  ARG D  88      18.382   2.027  -2.838  1.00 27.82 LIG 0.04  C 
BRANCH 48 49
ATOM     49  CG  ARG D  88      19.594   1.384  -2.139  1.00 22.71 LIG 0.02  C 
BRANCH 49 50
ATOM     50  CD  ARG D  88      20.679   1.101  -3.147  1.00 22.91 LIG 0.14  C 
BRANCH 50 51
ATOM     51  NE  ARG D  88      21.710   2.130  -3.066  1.00 22.66 LIG-0.23  N 
ATOM     52  CZ  ARG D  88      22.663   2.198  -2.139  1.00 22.61 LIG 0.67  C 
ATOM     53  NH2 ARG D  88      23.532   3.192  -2.196  1.00 21.99 LIG-0.23  N 
ATOM     54  NH1 ARG D  88      22.663   1.359  -1.099  1.00 25.76 LIG-0.23  N 
ATOM     55 2HH2 ARG D  88      24.155   3.253  -1.606  1.00 21.99 LIG 0.17  HD
ATOM     56 1HH2 ARG D  88      23.476   3.778  -2.823  1.00 21.99 LIG 0.17  HD
ATOM     57 2HH1 ARG D  88      23.283   1.411  -0.505  1.00 25.76 LIG 0.17  HD
ATOM     58 1HH1 ARG D  88      22.044   0.767  -1.023  1.00 25.76 LIG 0.17  HD
ATOM     59 HE   ARG D  88      21.702   2.743  -3.668  1.00 22.66 LIG 0.18  HD
ENDBRANCH 50 51
ENDBRANCH 49 50
ENDBRANCH 48 49
ENDBRANCH 45 48
ENDBRANCH 43 45
ENDBRANCH 40 41
BRANCH 40 60
ATOM     60  CB  ASP D  87      16.724   4.046  -6.979  1.00 26.50 LIG 0.15  C 
BRANCH 60 61
ATOM     61  CG  ASP D  87      15.390   3.296  -7.165  1.00 24.52 LIG 0.17  C 
ATOM     62 OD2  ASP D  87      15.477   2.116  -7.602  1.00 24.79 LIG-0.65  OA
ATOM     63 OD1  ASP D  87      14.273   3.843  -6.908  1.00 24.25 LIG-0.65  OA
ENDBRANCH 60 61
ENDBRANCH 40 60
ENDBRANCH 37 40
ENDBRANCH 35 36
BRANCH 35 64
ATOM     64  CB  SER D  86      20.102   7.344  -6.165  1.00 23.53 LIG 0.20  C 
BRANCH 64 65
ATOM     65 OG   SER D  86      20.529   7.106  -4.841  1.00 29.54 LIG-0.40  OA
ATOM     66 HG   SER D  86      20.908   7.792  -4.541  1.00 29.54 LIG 0.21  HD
ENDBRANCH 64 65
ENDBRANCH 35 64
ENDBRANCH 33 35
ENDBRANCH 1 31
BRANCH 1 67
ATOM     67  CB  PHE D  85      19.368  12.683  -4.340  1.00 13.93 LIG 0.07  C 
BRANCH 67 68
ATOM     68  CG  PHE D  85      17.888  12.549  -4.194  1.00 11.63 LIG-0.06  A 
ATOM     69  CD1 PHE D  85      17.009  13.410  -4.896  1.00 12.04 LIG 0.01  A 
ATOM     70  CE1 PHE D  85      15.605  13.305  -4.756  1.00 12.49 LIG 0.00  A 
ATOM     71  CZ  PHE D  85      15.081  12.319  -3.852  1.00 15.08 LIG 0.00  A 
ATOM     72  CE2 PHE D  85      15.974  11.508  -3.121  1.00 13.94 LIG 0.00  A 
ATOM     73  CD2 PHE D  85      17.354  11.646  -3.275  1.00 14.09 LIG 0.01  A 
ENDBRANCH 67 68
ENDBRANCH 1 67
TORSDOF 29
ENDMDL
MODEL 4
USER: ADFR SOLUTION from run 9
USER: SCORE 24.306648 LL:  -4.113 LR: -22.905 RR:   0.000 FEB: -14.255
USER: RMSD 2.525417
USER: SEED 871007
USER: STATUS 1 or 2 clusters left
USER: GENES 31
USER: genes 0 Translation |==|  0.52180 0.61463 0.60077
USER: genes 1 Rotation |==|  0.47608 0.42716 0.40971 0.98577
USER: genes 2 Torsion [CB]-CA--N-[C] |==|  0.50132
USER: genes 3 Torsion [N]-C--CA-[N] |==|  0.80845
USER: genes 4 Torsion [C]-CA--N-[C] |==|  0.19127
USER: genes 5 Torsion [N]-C--CA-[N] |==|  0.36323
USER: genes 6 Torsion [C]-CA--N-[C] |==|  0.83007
USER: genes 7 Torsion [N]-C--CA-[N] |==|  0.68975
USER: genes 8 Torsion [C]-CA--CB-[OG] |==|  0.80712
USER: genes 9 Torsion [CA]-CB--OG-[HG] |==|  0.75897
USER: genes 10 Torsion [C]-CA--CB-[OG] |==|  0.50537
USER: genes 11 Torsion [CA]-CB--OG-[HG] |==|  0.65588
USER: genes 12 Torsion [C]-CA--CB-[CG] |==|  0.53463
USER: genes 13 Torsion [CA]-CB--CG-[CD2] |==|  0.82214
USER: genes 14 Torsion [N]-CA--C-[N] |==|  0.28889
USER: genes 15 Torsion [C]-N--CA-[C] |==|  0.74467
USER: genes 16 Torsion [N]-CA--C-[N] |==|  0.22925
USER: genes 17 Torsion [C]-N--CA-[CB] |==|  0.17357
USER: genes 18 Torsion [N]-CA--C-[N] |==|  0.81671
USER: genes 19 Torsion [C]-N--CA-[C] |==|  0.17362
USER: genes 20 Torsion [N]-CA--C-[O] |==|  0.39501
USER: genes 21 Torsion [N]-CA--CB-[CG] |==|  0.60496
USER: genes 22 Torsion [CA]-CB--CG-[CD] |==|  0.85731
USER: genes 23 Torsion [CB]-CG--CD-[NE] |==|  0.26395
USER: genes 24 Torsion [CG]-CD--NE-[HE] |==|  0.04664
USER: genes 25 Torsion [N]-CA--CB-[CG] |==|  0.57413
USER: genes 26 Torsion [CA]-CB--CG-[OD2] |==|  0.83192
USER: genes 27 Torsion [N]-CA--CB-[OG] |==|  0.96123
USER: genes 28 Torsion [CA]-CB--OG-[HG] |==|  0.92722
USER: genes 29 Torsion [N]-CA--CB-[CG] |==|  0.67231
USER: genes 30 Torsion [CA]-CB--CG-[CD2] |==|  0.87650
ROOT
ATOM      1  CA  PHE D  85      22.789  12.476  -5.130  1.00 13.62 LIG 0.18  C 
ENDROOT
BRANCH 1 2
ATOM      2  N   PHE D  85      21.306  12.472  -4.985  1.00 12.64 LIG-0.35  N 
ATOM      3  C   PHE D  84      20.560  13.197  -5.799  1.00 12.54 LIG 0.24  C 
ATOM      4 O    PHE D  84      21.048  13.945  -6.644  1.00 13.45 LIG-0.27  OA
ATOM      5 H    PHE D  85      21.002  11.975  -4.352  1.00 12.64 LIG 0.16  HD
BRANCH 3 6
ATOM      6  CA  PHE D  84      19.053  13.100  -5.605  1.00 10.99 LIG 0.18  C 
BRANCH 6 7
ATOM      7  N   PHE D  84      18.509  11.802  -5.980  1.00 11.22 LIG-0.35  N 
ATOM      8  C   SER D  83      18.782  10.720  -5.265  1.00 13.00 LIG 0.24  C 
ATOM      9 O    SER D  83      19.623  10.698  -4.371  1.00 14.46 LIG-0.27  OA
ATOM     10 H    PHE D  84      18.013  11.808  -6.682  1.00 11.22 LIG 0.16  HD
BRANCH 8 11
ATOM     11  CA  SER D  83      17.990   9.465  -5.596  1.00 14.43 LIG 0.20  C 
BRANCH 11 12
ATOM     12  N   SER D  83      18.937   8.373  -5.747  1.00 17.69 LIG-0.34  N 
ATOM     13 H    SER D  83      18.823   7.731  -5.186  1.00 17.69 LIG 0.16  HD
ATOM     14  C   SER D  82      19.888   8.375  -6.671  1.00 24.18 LIG 0.26  C 
ATOM     15 O    SER D  82      20.045   9.295  -7.463  1.00 25.18 LIG-0.27  OA
BRANCH 14 16
ATOM     16  CA  SER D  82      20.840   7.188  -6.681  1.00 26.20 LIG 0.42  C 
ATOM     17  N   SER D  82      22.200   7.632  -6.269  1.00 29.40 LIG 0.62  N 
BRANCH 16 18
ATOM     18  CB  SER D  82      20.311   6.184  -5.688  1.00 30.27 LIG 0.21  C 
BRANCH 18 19
ATOM     19 OG   SER D  82      20.450   6.660  -4.366  1.00 31.34 LIG-0.40  OA
ATOM     20 HG   SER D  82      21.211   6.460  -4.074  1.00 31.34 LIG 0.21  HD
ENDBRANCH 18 19
ENDBRANCH 16 18
ENDBRANCH 14 16
ENDBRANCH 11 12
BRANCH 11 21
ATOM     21  CB  SER D  83      17.070   9.212  -4.397  1.00 14.68 LIG 0.20  C 
BRANCH 21 22
ATOM     22 OG   SER D  83      16.320   8.032  -4.594  1.00 13.30 LIG-0.40  OA
ATOM     23 HG   SER D  83      15.501   8.208  -4.532  1.00 13.30 LIG 0.21  HD
ENDBRANCH 21 22
ENDBRANCH 11 21
ENDBRANCH 8 11
ENDBRANCH 6 7
BRANCH 6 24
ATOM     24  CB  PHE D  84      18.564  13.475  -4.211  1.00  8.98 LIG 0.07  C 
BRANCH 24 25
ATOM     25  CG  PHE D  84      17.127  13.071  -4.004  1.00  8.49 LIG-0.06  A 
ATOM     26  CD2 PHE D  84      16.118  13.662  -4.785  1.00 10.31 LIG 0.01  A 
ATOM     27  CE2 PHE D  84      14.798  13.238  -4.659  1.00 10.65 LIG 0.00  A 
ATOM     28  CZ  PHE D  84      14.442  12.252  -3.730  1.00 10.75 LIG 0.00  A 
ATOM     29  CE1 PHE D  84      15.445  11.672  -2.908  1.00 10.66 LIG 0.00  A 
ATOM     30  CD1 PHE D  84      16.783  12.045  -3.103  1.00  9.98 LIG 0.01  A 
ENDBRANCH 24 25
ENDBRANCH 6 24
ENDBRANCH 3 6
ENDBRANCH 1 2
BRANCH 1 31
ATOM     31  C   PHE D  85      23.205  12.061  -6.539  1.00 16.85 LIG 0.24  C 
ATOM     32 O    PHE D  85      23.215  10.876  -6.856  1.00 18.00 LIG-0.27  OA
ATOM     33  N   SER D  86      23.609  13.042  -7.351  1.00 18.10 LIG-0.34  N 
ATOM     34 H    SER D  86      23.841  13.819  -7.063  1.00 18.10 LIG 0.16  HD
BRANCH 33 35
ATOM     35  CA  SER D  86      23.699  12.913  -8.792  1.00 22.43 LIG 0.20  C 
BRANCH 35 36
ATOM     36  C   SER D  86      25.083  12.462  -9.221  1.00 23.81 LIG 0.24  C 
ATOM     37  N   ASP D  87      25.292  11.153  -9.148  1.00 23.40 LIG-0.34  N 
ATOM     38 H    ASP D  87      24.676  10.585  -8.955  1.00 23.40 LIG 0.16  HD
ATOM     39 O    SER D  86      25.947  13.281  -9.587  1.00 25.32 LIG-0.27  OA
BRANCH 37 40
ATOM     40  CA  ASP D  87      26.605  10.548  -9.394  1.00 26.51 LIG 0.19  C 
BRANCH 40 41
ATOM     41  C   ASP D  87      26.553   9.019  -9.392  1.00 27.38 LIG 0.24  C 
ATOM     42 O    ASP D  87      26.801   8.368 -10.426  1.00 28.73 LIG-0.27  OA
ATOM     43  N   ARG D  88      26.252   8.458  -8.223  1.00 28.82 LIG-0.35  N 
ATOM     44 H    ARG D  88      26.094   8.918  -7.514  1.00 28.82 LIG 0.16  HD
BRANCH 43 45
ATOM     45  CA  ARG D  88      26.153   7.012  -8.008  1.00 28.71 LIG 0.16  C 
BRANCH 45 46
ATOM     46  C   ARG D  88      27.503   6.330  -8.265  1.00 31.71 LIG 0.22  C 
ATOM     47 O    ARG D  88      27.869   5.381  -7.546  1.00 33.51 LIG-0.29  OA
ENDBRANCH 45 46
BRANCH 45 48
ATOM     48  CB  ARG D  88      25.108   6.356  -8.927  1.00 27.82 LIG 0.04  C 
BRANCH 48 49
ATOM     49  CG  ARG D  88      24.259   5.217  -8.334  1.00 22.71 LIG 0.02  C 
BRANCH 49 50
ATOM     50  CD  ARG D  88      25.155   4.185  -7.696  1.00 22.91 LIG 0.14  C 
BRANCH 50 51
ATOM     51  NE  ARG D  88      25.282   4.454  -6.269  1.00 22.66 LIG-0.23  N 
ATOM     52  CZ  ARG D  88      26.221   3.955  -5.468  1.00 22.61 LIG 0.67  C 
ATOM     53  NH2 ARG D  88      26.209   4.292  -4.190  1.00 21.99 LIG-0.23  N 
ATOM     54  NH1 ARG D  88      27.078   3.033  -5.915  1.00 25.76 LIG-0.23  N 
ATOM     55 2HH2 ARG D  88      26.808   3.980  -3.657  1.00 21.99 LIG 0.17  HD
ATOM     56 1HH2 ARG D  88      25.603   4.823  -3.890  1.00 21.99 LIG 0.17  HD
ATOM     57 2HH1 ARG D  88      27.682   2.716  -5.391  1.00 25.76 LIG 0.17  HD
ATOM     58 1HH1 ARG D  88      27.027   2.755  -6.728  1.00 25.76 LIG 0.17  HD
ATOM     59 HE   ARG D  88      24.701   4.979  -5.914  1.00 22.66 LIG 0.18  HD
ENDBRANCH 50 51
ENDBRANCH 49 50
ENDBRANCH 48 49
ENDBRANCH 45 48
ENDBRANCH 43 45
ENDBRANCH 40 41
BRANCH 40 60
ATOM     60  CB  ASP D  87      27.603  11.062  -8.344  1.00 26.50 LIG 0.15  C 
BRANCH 60 61
ATOM     61  CG  ASP D  87      29.065  11.050  -8.835  1.00 24.52 LIG 0.17  C 
ATOM     62 OD2  ASP D  87      29.529   9.922  -9.156  1.00 24.79 LIG-0.65  OA
ATOM     63 OD1  ASP D  87      29.759  12.112  -8.894  1.00 24.25 LIG-0.65  OA
ENDBRANCH 60 61
ENDBRANCH 40 60
ENDBRANCH 37 40
ENDBRANCH 35 36
BRANCH 35 64
ATOM     64  CB  SER D  86      23.414  14.285  -9.410  1.00 23.53 LIG 0.20  C 
BRANCH 64 65
ATOM     65 OG   SER D  86      22.851  15.127  -8.429  1.00 29.54 LIG-0.40  OA
ATOM     66 HG   SER D  86      22.461  14.661  -7.849  1.00 29.54 LIG 0.21  HD
ENDBRANCH 64 65
ENDBRANCH 35 64
ENDBRANCH 33 35
ENDBRANCH 1 31
BRANCH 1 67
ATOM     67  CB  PHE D  85      23.442  11.549  -4.082  1.00 13.93 LIG 0.07  C 
BRANCH 67 68
ATOM     68  CG  PHE D  85      24.346  12.271  -3.138  1.00 11.63 LIG-0.06  A 
ATOM     69  CD1 PHE D  85      24.226  12.093  -1.738  1.00 12.04 LIG 0.01  A 
ATOM     70  CE1 PHE D  85      25.065  12.781  -0.831  1.00 12.49 LIG 0.00  A 
ATOM     71  CZ  PHE D  85      26.032  13.703  -1.361  1.00 15.08 LIG 0.00  A 
ATOM     72  CE2 PHE D  85      26.099  13.908  -2.754  1.00 13.94 LIG 0.00  A 
ATOM     73  CD2 PHE D  85      25.248  13.219  -3.620  1.00 14.09 LIG 0.01  A 
ENDBRANCH 67 68
ENDBRANCH 1 67
TORSDOF 29
ENDMDL
MODEL 5
USER: ADFR SOLUTION from run 61
USER: SCORE 25.486639 LL:  -5.500 LR: -22.327 RR:   0.000 FEB: -13.676
USER: RMSD 7.284734
USER: SEED 60
USER: STATUS searching
USER: GENES 31
USER: genes 0 Translation |==|  0.40385 0.56877 0.62892
USER: genes 1 Rotation |==|  0.53907 0.76454 0.91542 0.57696
USER: genes 2 Torsion [CB]-CA--N-[C] |==|  0.82778
USER: genes 3 Torsion [N]-C--CA-[N] |==|  0.45952
USER: genes 4 Torsion [C]-CA--N-[C] |==|  0.57033
USER: genes 5 Torsion [N]-C--CA-[N] |==|  0.18537
USER: genes 6 Torsion [C]-CA--N-[C] |==|  0.77178
USER: genes 7 Torsion [N]-C--CA-[N] |==|  0.41016
USER: genes 8 Torsion [C]-CA--CB-[OG] |==|  0.94327
USER: genes 9 Torsion [CA]-CB--OG-[HG] |==|  0.24227
USER: genes 10 Torsion [C]-CA--CB-[OG] |==|  0.66611
USER: genes 11 Torsion [CA]-CB--OG-[HG] |==|  0.13529
USER: genes 12 Torsion [C]-CA--CB-[CG] |==|  0.28529
USER: genes 13 Torsion [CA]-CB--CG-[CD2] |==|  0.41673
USER: genes 14 Torsion [N]-CA--C-[N] |==|  0.25313
USER: genes 15 Torsion [C]-N--CA-[C] |==|  0.14033
USER: genes 16 Torsion [N]-CA--C-[N] |==|  0.12573
USER: genes 17 Torsion [C]-N--CA-[CB] |==|  0.19683
USER: genes 18 Torsion [N]-CA--C-[N] |==|  0.34867
USER: genes 19 Torsion [C]-N--CA-[C] |==|  0.72287
USER: genes 20 Torsion [N]-CA--C-[O] |==|  0.55375
USER: genes 21 Torsion [N]-CA--CB-[CG] |==|  0.75574
USER: genes 22 Torsion [CA]-CB--CG-[CD] |==|  0.36648
USER: genes 23 Torsion [CB]-CG--CD-[NE] |==|  0.52723
USER: genes 24 Torsion [CG]-CD--NE-[HE] |==|  0.82572
USER: genes 25 Torsion [N]-CA--CB-[CG] |==|  0.62221
USER: genes 26 Torsion [CA]-CB--CG-[OD2] |==|  0.62089
USER: genes 27 Torsion [N]-CA--CB-[OG] |==|  0.85931
USER: genes 28 Torsion [CA]-CB--OG-[HG] |==|  0.00029
USER: genes 29 Torsion [N]-CA--CB-[CG] |==|  0.53690
USER: genes 30 Torsion [CA]-CB--CG-[CD2] |==|  0.58207
ROOT
ATOM      1  CA  PHE D  85      20.047  11.479  -4.602  1.00 13.62 LIG 0.18  C 
ENDROOT
BRANCH 1 2
ATOM      2  N   PHE D  85      21.499  11.717  -4.830  1.00 12.64 LIG-0.35  N 
ATOM      3  C   PHE D  84      21.941  12.000  -6.043  1.00 12.54 LIG 0.24  C 
ATOM      4 O    PHE D  84      21.201  12.009  -7.024  1.00 13.45 LIG-0.27  OA
ATOM      5 H    PHE D  85      21.995  11.654  -4.130  1.00 12.64 LIG 0.16  HD
BRANCH 3 6
ATOM      6  CA  PHE D  84      23.434  12.268  -6.175  1.00 10.99 LIG 0.18  C 
BRANCH 6 7
ATOM      7  N   PHE D  84      23.903  12.239  -7.553  1.00 11.22 LIG-0.35  N 
ATOM      8  C   SER D  83      25.166  11.954  -7.834  1.00 13.00 LIG 0.24  C 
ATOM      9 O    SER D  83      26.044  11.870  -6.979  1.00 14.46 LIG-0.27  OA
ATOM     10 H    PHE D  84      23.302  12.416  -8.142  1.00 11.22 LIG 0.16  HD
BRANCH 8 11
ATOM     11  CA  SER D  83      25.505  11.721  -9.297  1.00 14.43 LIG 0.20  C 
BRANCH 11 12
ATOM     12  N   SER D  83      25.328  12.983  -9.997  1.00 17.69 LIG-0.34  N 
ATOM     13 H    SER D  83      26.058  13.422 -10.114  1.00 17.69 LIG 0.16  HD
ATOM     14  C   SER D  82      24.144  13.408 -10.414  1.00 24.18 LIG 0.26  C 
ATOM     15 O    SER D  82      23.110  12.777 -10.238  1.00 25.18 LIG-0.27  OA
BRANCH 14 16
ATOM     16  CA  SER D  82      24.100  14.772 -11.088  1.00 26.20 LIG 0.42  C 
ATOM     17  N   SER D  82      23.034  14.785 -12.126  1.00 29.40 LIG 0.62  N 
BRANCH 16 18
ATOM     18  CB  SER D  82      23.781  15.787 -10.019  1.00 30.27 LIG 0.21  C 
BRANCH 18 19
ATOM     19 OG   SER D  82      23.181  15.171  -8.900  1.00 31.34 LIG-0.40  OA
ATOM     20 HG   SER D  82      23.778  14.901  -8.374  1.00 31.34 LIG 0.21  HD
ENDBRANCH 18 19
ENDBRANCH 16 18
ENDBRANCH 14 16
ENDBRANCH 11 12
BRANCH 11 21
ATOM     21  CB  SER D  83      26.976  11.292  -9.333  1.00 14.68 LIG 0.20  C 
BRANCH 21 22
ATOM     22 OG   SER D  83      27.732  12.197 -10.109  1.00 13.30 LIG-0.40  OA
ATOM     23 HG   SER D  83      27.559  12.983  -9.871  1.00 13.30 LIG 0.21  HD
ENDBRANCH 21 22
ENDBRANCH 11 21
ENDBRANCH 8 11
ENDBRANCH 6 7
BRANCH 6 24
ATOM     24  CB  PHE D  84      23.914  13.547  -5.499  1.00  8.98 LIG 0.07  C 
BRANCH 24 25
ATOM     25  CG  PHE D  84      24.603  13.254  -4.192  1.00  8.49 LIG-0.06  A 
ATOM     26  CD2 PHE D  84      25.624  14.108  -3.737  1.00 10.31 LIG 0.01  A 
ATOM     27  CE2 PHE D  84      26.212  13.893  -2.493  1.00 10.65 LIG 0.00  A 
ATOM     28  CZ  PHE D  84      25.833  12.808  -1.693  1.00 10.75 LIG 0.00  A 
ATOM     29  CE1 PHE D  84      24.830  11.914  -2.157  1.00 10.66 LIG 0.00  A 
ATOM     30  CD1 PHE D  84      24.185  12.189  -3.372  1.00  9.98 LIG 0.01  A 
ENDBRANCH 24 25
ENDBRANCH 6 24
ENDBRANCH 3 6
ENDBRANCH 1 2
BRANCH 1 31
ATOM     31  C   PHE D  85      19.551  10.284  -5.413  1.00 16.85 LIG 0.24  C 
ATOM     32 O    PHE D  85      19.084  10.450  -6.535  1.00 18.00 LIG-0.27  OA
ATOM     33  N   SER D  86      19.601   9.094  -4.806  1.00 18.10 LIG-0.34  N 
ATOM     34 H    SER D  86      19.685   9.009  -3.955  1.00 18.10 LIG 0.16  HD
BRANCH 33 35
ATOM     35  CA  SER D  86      19.519   7.827  -5.504  1.00 22.43 LIG 0.20  C 
BRANCH 35 36
ATOM     36  C   SER D  86      20.498   7.768  -6.661  1.00 23.81 LIG 0.24  C 
ATOM     37  N   ASP D  87      21.720   8.204  -6.381  1.00 23.40 LIG-0.34  N 
ATOM     38 H    ASP D  87      21.975   8.427  -5.591  1.00 23.40 LIG 0.16  HD
ATOM     39 O    SER D  86      20.151   7.359  -7.785  1.00 25.32 LIG-0.27  OA
BRANCH 37 40
ATOM     40  CA  ASP D  87      22.762   8.348  -7.404  1.00 26.51 LIG 0.19  C 
BRANCH 40 41
ATOM     41  C   ASP D  87      24.155   8.524  -6.798  1.00 27.38 LIG 0.24  C 
ATOM     42 O    ASP D  87      24.378   9.413  -5.952  1.00 28.73 LIG-0.27  OA
ATOM     43  N   ARG D  88      25.077   7.662  -7.219  1.00 28.82 LIG-0.35  N 
ATOM     44 H    ARG D  88      24.907   7.045  -7.795  1.00 28.82 LIG 0.16  HD
BRANCH 43 45
ATOM     45  CA  ARG D  88      26.469   7.658  -6.762  1.00 28.71 LIG 0.16  C 
BRANCH 45 46
ATOM     46  C   ARG D  88      27.379   8.349  -7.785  1.00 31.71 LIG 0.22  C 
ATOM     47 O    ARG D  88      28.607   8.140  -7.768  1.00 33.51 LIG-0.29  OA
ENDBRANCH 45 46
BRANCH 45 48
ATOM     48  CB  ARG D  88      27.004   6.233  -6.537  1.00 27.82 LIG 0.04  C 
BRANCH 48 49
ATOM     49  CG  ARG D  88      26.781   5.604  -5.150  1.00 22.71 LIG 0.02  C 
BRANCH 49 50
ATOM     50  CD  ARG D  88      26.229   4.208  -5.302  1.00 22.91 LIG 0.14  C 
BRANCH 50 51
ATOM     51  NE  ARG D  88      25.802   3.701  -4.003  1.00 22.66 LIG-0.23  N 
ATOM     52  CZ  ARG D  88      24.555   3.370  -3.675  1.00 22.61 LIG 0.67  C 
ATOM     53  NH2 ARG D  88      24.319   2.921  -2.454  1.00 21.99 LIG-0.23  N 
ATOM     54  NH1 ARG D  88      23.543   3.608  -4.514  1.00 25.76 LIG-0.23  N 
ATOM     55 2HH2 ARG D  88      23.520   2.701  -2.223  1.00 21.99 LIG 0.17  HD
ATOM     56 1HH2 ARG D  88      24.964   2.847  -1.890  1.00 21.99 LIG 0.17  HD
ATOM     57 2HH1 ARG D  88      22.741   3.391  -4.293  1.00 25.76 LIG 0.17  HD
ATOM     58 1HH1 ARG D  88      23.693   3.979  -5.275  1.00 25.76 LIG 0.17  HD
ATOM     59 HE   ARG D  88      26.406   3.608  -3.399  1.00 22.66 LIG 0.18  HD
ENDBRANCH 50 51
ENDBRANCH 49 50
ENDBRANCH 48 49
ENDBRANCH 45 48
ENDBRANCH 43 45
ENDBRANCH 40 41
BRANCH 40 60
ATOM     60  CB  ASP D  87      22.411   9.529  -8.321  1.00 26.50 LIG 0.15  C 
BRANCH 60 61
ATOM     61  CG  ASP D  87      22.620   9.224  -9.818  1.00 24.52 LIG 0.17  C 
ATOM     62 OD2  ASP D  87      23.178  10.132 -10.493  1.00 24.79 LIG-0.65  OA
ATOM     63 OD1  ASP D  87      22.238   8.130 -10.338  1.00 24.25 LIG-0.65  OA
ENDBRANCH 60 61
ENDBRANCH 40 60
ENDBRANCH 37 40
ENDBRANCH 35 36
BRANCH 35 64
ATOM     64  CB  SER D  86      18.097   7.679  -6.055  1.00 23.53 LIG 0.20  C 
BRANCH 64 65
ATOM     65 OG   SER D  86      17.172   7.922  -5.018  1.00 29.54 LIG-0.40  OA
ATOM     66 HG   SER D  86      17.586   8.100  -4.309  1.00 29.54 LIG 0.21  HD
ENDBRANCH 64 65
ENDBRANCH 35 64
ENDBRANCH 33 35
ENDBRANCH 1 31
BRANCH 1 67
ATOM     67  CB  PHE D  85      19.226  12.740  -4.948  1.00 13.93 LIG 0.07  C 
BRANCH 67 68
ATOM     68  CG  PHE D  85      17.820  12.683  -4.452  1.00 11.63 LIG-0.06  A 
ATOM     69  CD1 PHE D  85      17.470  11.860  -3.353  1.00 12.04 LIG 0.01  A 
ATOM     70  CE1 PHE D  85      16.138  11.784  -2.881  1.00 12.49 LIG 0.00  A 
ATOM     71  CZ  PHE D  85      15.127  12.542  -3.567  1.00 15.08 LIG 0.00  A 
ATOM     72  CE2 PHE D  85      15.486  13.312  -4.692  1.00 13.94 LIG 0.00  A 
ATOM     73  CD2 PHE D  85      16.808  13.355  -5.137  1.00 14.09 LIG 0.01  A 
ENDBRANCH 67 68
ENDBRANCH 1 67
TORSDOF 29
ENDMDL
MODEL 6
USER: ADFR SOLUTION from run 6
USER: SCORE 24.481990 LL:  -4.207 LR: -22.289 RR:   0.000 FEB: -13.639
USER: RMSD 2.310720
USER: SEED 403690
USER: STATUS 1 or 2 clusters left
USER: GENES 31
USER: genes 0 Translation |==|  0.50460 0.62272 0.57412
USER: genes 1 Rotation |==|  0.48934 0.44267 0.44727 0.99378
USER: genes 2 Torsion [CB]-CA--N-[C] |==|  0.86510
USER: genes 3 Torsion [N]-C--CA-[N] |==|  0.48018
USER: genes 4 Torsion [C]-CA--N-[C] |==|  0.77408
USER: genes 5 Torsion [N]-C--CA-[N] |==|  0.83497
USER: genes 6 Torsion [C]-CA--N-[C] |==|  0.77760
USER: genes 7 Torsion [N]-C--CA-[N] |==|  0.99726
USER: genes 8 Torsion [C]-CA--CB-[OG] |==|  0.40301
USER: genes 9 Torsion [CA]-CB--OG-[HG] |==|  0.81214
USER: genes 10 Torsion [C]-CA--CB-[OG] |==|  0.36854
USER: genes 11 Torsion [CA]-CB--OG-[HG] |==|  0.95137
USER: genes 12 Torsion [C]-CA--CB-[CG] |==|  0.40478
USER: genes 13 Torsion [CA]-CB--CG-[CD2] |==|  0.41405
USER: genes 14 Torsion [N]-CA--C-[N] |==|  0.33545
USER: genes 15 Torsion [C]-N--CA-[C] |==|  0.82102
USER: genes 16 Torsion [N]-CA--C-[N] |==|  0.88670
USER: genes 17 Torsion [C]-N--CA-[CB] |==|  0.52222
USER: genes 18 Torsion [N]-CA--C-[N] |==|  0.88441
USER: genes 19 Torsion [C]-N--CA-[C] |==|  0.64383
USER: genes 20 Torsion [N]-CA--C-[O] |==|  0.29029
USER: genes 21 Torsion [N]-CA--CB-[CG] |==|  0.88970
USER: genes 22 Torsion [CA]-CB--CG-[CD] |==|  0.60379
USER: genes 23 Torsion [CB]-CG--CD-[NE] |==|  0.78884
USER: genes 24 Torsion [CG]-CD--NE-[HE] |==|  0.11904
USER: genes 25 Torsion [N]-CA--CB-[CG] |==|  0.61774
USER: genes 26 Torsion [CA]-CB--CG-[OD2] |==|  0.27110
USER: genes 27 Torsion [N]-CA--CB-[OG] |==|  0.81928
USER: genes 28 Torsion [CA]-CB--OG-[HG] |==|  0.73792
USER: genes 29 Torsion [N]-CA--CB-[CG] |==|  0.65205
USER: genes 30 Torsion [CA]-CB--CG-[CD2] |==|  0.34275
ROOT
ATOM      1  CA  PHE D  85      22.389  12.652  -5.629  1.00 13.62 LIG 0.18  C 
ENDROOT
BRANCH 1 2
ATOM      2  N   PHE D  85      20.938  12.409  -5.398  1.00 12.64 LIG-0.35  N 
ATOM      3  C   PHE D  84      20.477  11.173  -5.322  1.00 12.54 LIG 0.24  C 
ATOM      4 O    PHE D  84      21.198  10.193  -5.504  1.00 13.45 LIG-0.27  OA
ATOM      5 H    PHE D  85      20.455  13.117  -5.323  1.00 12.64 LIG 0.16  HD
BRANCH 3 6
ATOM      6  CA  PHE D  84      18.989  11.019  -5.042  1.00 10.99 LIG 0.18  C 
BRANCH 6 7
ATOM      7  N   PHE D  84      18.526   9.642  -5.135  1.00 11.22 LIG-0.35  N 
ATOM      8  C   SER D  83      18.249   9.098  -6.312  1.00 13.00 LIG 0.24  C 
ATOM      9 O    SER D  83      18.196   9.741  -7.356  1.00 14.46 LIG-0.27  OA
ATOM     10 H    PHE D  84      18.454   9.234  -4.382  1.00 11.22 LIG 0.16  HD
BRANCH 8 11
ATOM     11  CA  SER D  83      17.998   7.599  -6.328  1.00 14.43 LIG 0.20  C 
BRANCH 11 12
ATOM     12  N   SER D  83      19.194   6.946  -5.821  1.00 17.69 LIG-0.34  N 
ATOM     13 H    SER D  83      19.139   6.708  -4.997  1.00 17.69 LIG 0.16  HD
ATOM     14  C   SER D  82      20.268   6.741  -6.572  1.00 24.18 LIG 0.26  C 
ATOM     15 O    SER D  82      20.338   7.088  -7.743  1.00 25.18 LIG-0.27  OA
BRANCH 14 16
ATOM     16  CA  SER D  82      21.466   6.092  -5.895  1.00 26.20 LIG 0.42  C 
ATOM     17  N   SER D  82      21.157   5.839  -4.461  1.00 29.40 LIG 0.62  N 
BRANCH 16 18
ATOM     18  CB  SER D  82      21.720   4.783  -6.598  1.00 30.27 LIG 0.21  C 
BRANCH 18 19
ATOM     19 OG   SER D  82      23.103   4.501  -6.658  1.00 31.34 LIG-0.40  OA
ATOM     20 HG   SER D  82      23.481   5.054  -7.164  1.00 31.34 LIG 0.21  HD
ENDBRANCH 18 19
ENDBRANCH 16 18
ENDBRANCH 14 16
ENDBRANCH 11 12
BRANCH 11 21
ATOM     21  CB  SER D  83      16.816   7.352  -5.386  1.00 14.68 LIG 0.20  C 
BRANCH 21 22
ATOM     22 OG   SER D  83      15.867   6.505  -5.999  1.00 13.30 LIG-0.40  OA
ATOM     23 HG   SER D  83      16.001   6.488  -6.828  1.00 13.30 LIG 0.21  HD
ENDBRANCH 21 22
ENDBRANCH 11 21
ENDBRANCH 8 11
ENDBRANCH 6 7
BRANCH 6 24
ATOM     24  CB  PHE D  84      18.521  11.628  -3.725  1.00  8.98 LIG 0.07  C 
BRANCH 24 25
ATOM     25  CG  PHE D  84      17.129  12.192  -3.843  1.00  8.49 LIG-0.06  A 
ATOM     26  CD2 PHE D  84      16.281  12.193  -2.721  1.00 10.31 LIG 0.01  A 
ATOM     27  CE2 PHE D  84      15.023  12.784  -2.796  1.00 10.65 LIG 0.00  A 
ATOM     28  CZ  PHE D  84      14.560  13.348  -3.991  1.00 10.75 LIG 0.00  A 
ATOM     29  CE1 PHE D  84      15.391  13.320  -5.144  1.00 10.66 LIG 0.00  A 
ATOM     30  CD1 PHE D  84      16.688  12.800  -5.034  1.00  9.98 LIG 0.01  A 
ENDBRANCH 24 25
ENDBRANCH 6 24
ENDBRANCH 3 6
ENDBRANCH 1 2
BRANCH 1 31
ATOM     31  C   PHE D  85      22.771  12.360  -7.079  1.00 16.85 LIG 0.24  C 
ATOM     32 O    PHE D  85      22.646  11.228  -7.535  1.00 18.00 LIG-0.27  OA
ATOM     33  N   SER D  86      23.296  13.377  -7.769  1.00 18.10 LIG-0.34  N 
ATOM     34 H    SER D  86      23.614  14.081  -7.392  1.00 18.10 LIG 0.16  HD
BRANCH 33 35
ATOM     35  CA  SER D  86      23.389  13.409  -9.215  1.00 22.43 LIG 0.20  C 
BRANCH 35 36
ATOM     36  C   SER D  86      24.309  12.320  -9.735  1.00 23.81 LIG 0.24  C 
ATOM     37  N   ASP D  87      25.413  12.134  -9.022  1.00 23.40 LIG-0.34  N 
ATOM     38 H    ASP D  87      25.568  12.533  -8.276  1.00 23.40 LIG 0.16  HD
ATOM     39 O    SER D  86      24.037  11.680 -10.767  1.00 25.32 LIG-0.27  OA
BRANCH 37 40
ATOM     40  CA  ASP D  87      26.481  11.222  -9.443  1.00 26.51 LIG 0.19  C 
BRANCH 40 41
ATOM     41  C   ASP D  87      25.947   9.849  -9.857  1.00 27.38 LIG 0.24  C 
ATOM     42 O    ASP D  87      26.415   9.251 -10.847  1.00 28.73 LIG-0.27  OA
ATOM     43  N   ARG D  88      24.987   9.350  -9.082  1.00 28.82 LIG-0.35  N 
ATOM     44 H    ARG D  88      24.682   9.768  -8.395  1.00 28.82 LIG 0.16  HD
BRANCH 43 45
ATOM     45  CA  ARG D  88      24.345   8.053  -9.302  1.00 28.71 LIG 0.16  C 
BRANCH 45 46
ATOM     46  C   ARG D  88      22.818   8.197  -9.316  1.00 31.71 LIG 0.22  C 
ATOM     47 O    ARG D  88      22.197   8.153 -10.395  1.00 33.51 LIG-0.29  OA
ENDBRANCH 45 46
BRANCH 45 48
ATOM     48  CB  ARG D  88      24.714   7.027  -8.217  1.00 27.82 LIG 0.04  C 
BRANCH 48 49
ATOM     49  CG  ARG D  88      26.171   7.017  -7.719  1.00 22.71 LIG 0.02  C 
BRANCH 49 50
ATOM     50  CD  ARG D  88      26.614   5.599  -7.455  1.00 22.91 LIG 0.14  C 
BRANCH 50 51
ATOM     51  NE  ARG D  88      26.032   5.123  -6.206  1.00 22.66 LIG-0.23  N 
ATOM     52  CZ  ARG D  88      26.672   4.423  -5.272  1.00 22.61 LIG 0.67  C 
ATOM     53  NH2 ARG D  88      26.011   4.060  -4.186  1.00 21.99 LIG-0.23  N 
ATOM     54  NH1 ARG D  88      27.916   3.981  -5.484  1.00 25.76 LIG-0.23  N 
ATOM     55 2HH2 ARG D  88      26.408   3.607  -3.572  1.00 21.99 LIG 0.17  HD
ATOM     56 1HH2 ARG D  88      25.184   4.278  -4.093  1.00 21.99 LIG 0.17  HD
ATOM     57 2HH1 ARG D  88      28.322   3.529  -4.875  1.00 25.76 LIG 0.17  HD
ATOM     58 1HH1 ARG D  88      28.311   4.149  -6.229  1.00 25.76 LIG 0.17  HD
ATOM     59 HE   ARG D  88      25.206   5.311  -6.060  1.00 22.66 LIG 0.18  HD
ENDBRANCH 50 51
ENDBRANCH 49 50
ENDBRANCH 48 49
ENDBRANCH 45 48
ENDBRANCH 43 45
ENDBRANCH 40 41
BRANCH 40 60
ATOM     60  CB  ASP D  87      27.509  11.089  -8.309  1.00 26.50 LIG 0.15  C 
BRANCH 60 61
ATOM     61  CG  ASP D  87      28.970  11.116  -8.802  1.00 24.52 LIG 0.17  C 
ATOM     62 OD2  ASP D  87      29.557  12.230  -8.722  1.00 24.79 LIG-0.65  OA
ATOM     63 OD1  ASP D  87      29.536  10.082  -9.275  1.00 24.25 LIG-0.65  OA
ENDBRANCH 60 61
ENDBRANCH 40 60
ENDBRANCH 37 40
ENDBRANCH 35 36
BRANCH 35 64
ATOM     64  CB  SER D  86      23.957  14.771  -9.625  1.00 23.53 LIG 0.20  C 
BRANCH 64 65
ATOM     65 OG   SER D  86      23.038  15.781  -9.269  1.00 29.54 LIG-0.40  OA
ATOM     66 HG   SER D  86      22.545  15.956  -9.927  1.00 29.54 LIG 0.21  HD
ENDBRANCH 64 65
ENDBRANCH 35 64
ENDBRANCH 33 35
ENDBRANCH 1 31
BRANCH 1 67
ATOM     67  CB  PHE D  85      23.245  11.801  -4.667  1.00 13.93 LIG 0.07  C 
BRANCH 67 68
ATOM     68  CG  PHE D  85      24.211  12.609  -3.866  1.00 11.63 LIG-0.06  A 
ATOM     69  CD1 PHE D  85      25.236  13.353  -4.500  1.00 12.04 LIG 0.01  A 
ATOM     70  CE1 PHE D  85      26.168  14.112  -3.753  1.00 12.49 LIG 0.00  A 
ATOM     71  CZ  PHE D  85      26.076  14.086  -2.319  1.00 15.08 LIG 0.00  A 
ATOM     72  CE2 PHE D  85      25.082  13.296  -1.705  1.00 13.94 LIG 0.00  A 
ATOM     73  CD2 PHE D  85      24.185  12.551  -2.472  1.00 14.09 LIG 0.01  A 
ENDBRANCH 67 68
ENDBRANCH 1 67
TORSDOF 29
ENDMDL
MODEL 7
USER: ADFR SOLUTION from run 39
USER: SCORE 22.818977 LL:  -3.411 LR: -21.815 RR:   0.000 FEB: -13.165
USER: RMSD 9.308580
USER: SEED 38
USER: STATUS no improvement in best in 3 clusters for 5 generations
USER: GENES 31
USER: genes 0 Translation |==|  0.39578 0.56526 0.64164
USER: genes 1 Rotation |==|  0.54938 0.70761 0.94389 0.58618
USER: genes 2 Torsion [CB]-CA--N-[C] |==|  0.85720
USER: genes 3 Torsion [N]-C--CA-[N] |==|  0.40259
USER: genes 4 Torsion [C]-CA--N-[C] |==|  0.80616
USER: genes 5 Torsion [N]-C--CA-[N] |==|  0.34835
USER: genes 6 Torsion [C]-CA--N-[C] |==|  0.83307
USER: genes 7 Torsion [N]-C--CA-[N] |==|  0.98707
USER: genes 8 Torsion [C]-CA--CB-[OG] |==|  0.27399
USER: genes 9 Torsion [CA]-CB--OG-[HG] |==|  0.13866
USER: genes 10 Torsion [C]-CA--CB-[OG] |==|  0.74919
USER: genes 11 Torsion [CA]-CB--OG-[HG] |==|  0.36317
USER: genes 12 Torsion [C]-CA--CB-[CG] |==|  0.28607
USER: genes 13 Torsion [CA]-CB--CG-[CD2] |==|  0.92788
USER: genes 14 Torsion [N]-CA--C-[N] |==|  0.31189
USER: genes 15 Torsion [C]-N--CA-[C] |==|  0.59263
USER: genes 16 Torsion [N]-CA--C-[N] |==|  0.55364
USER: genes 17 Torsion [C]-N--CA-[CB] |==|  0.36570
USER: genes 18 Torsion [N]-CA--C-[N] |==|  0.87331
USER: genes 19 Torsion [C]-N--CA-[C] |==|  0.18739
USER: genes 20 Torsion [N]-CA--C-[O] |==|  0.67752
USER: genes 21 Torsion [N]-CA--CB-[CG] |==|  0.71308
USER: genes 22 Torsion [CA]-CB--CG-[CD] |==|  0.87597
USER: genes 23 Torsion [CB]-CG--CD-[NE] |==|  0.36669
USER: genes 24 Torsion [CG]-CD--NE-[HE] |==|  0.84412
USER: genes 25 Torsion [N]-CA--CB-[CG] |==|  0.53762
USER: genes 26 Torsion [CA]-CB--CG-[OD2] |==|  0.25057
USER: genes 27 Torsion [N]-CA--CB-[OG] |==|  0.88234
USER: genes 28 Torsion [CA]-CB--OG-[HG] |==|  0.37268
USER: genes 29 Torsion [N]-CA--CB-[CG] |==|  0.51044
USER: genes 30 Torsion [CA]-CB--CG-[CD2] |==|  0.61491
ROOT
ATOM      1  CA  PHE D  85      19.859  11.402  -4.363  1.00 13.62 LIG 0.18  C 
ENDROOT
BRANCH 1 2
ATOM      2  N   PHE D  85      21.329  11.608  -4.492  1.00 12.64 LIG-0.35  N 
ATOM      3  C   PHE D  84      21.810  12.343  -5.479  1.00 12.54 LIG 0.24  C 
ATOM      4 O    PHE D  84      21.089  12.818  -6.354  1.00 13.45 LIG-0.27  OA
ATOM      5 H    PHE D  85      21.807  11.221  -3.891  1.00 12.64 LIG 0.16  HD
BRANCH 3 6
ATOM      6  CA  PHE D  84      23.321  12.533  -5.508  1.00 10.99 LIG 0.18  C 
BRANCH 6 7
ATOM      7  N   PHE D  84      23.866  12.586  -6.857  1.00 11.22 LIG-0.35  N 
ATOM      8  C   SER D  83      23.893  11.503  -7.621  1.00 13.00 LIG 0.24  C 
ATOM      9 O    SER D  83      23.631  10.378  -7.205  1.00 14.46 LIG-0.27  OA
ATOM     10 H    PHE D  84      24.158  13.358  -7.098  1.00 11.22 LIG 0.16  HD
BRANCH 8 11
ATOM     11  CA  SER D  83      24.264  11.707  -9.081  1.00 14.43 LIG 0.20  C 
BRANCH 11 12
ATOM     12  N   SER D  83      25.381  10.825  -9.380  1.00 17.69 LIG-0.34  N 
ATOM     13 H    SER D  83      25.217  10.252 -10.000  1.00 17.69 LIG 0.16  HD
ATOM     14  C   SER D  82      26.543  10.904  -8.746  1.00 24.18 LIG 0.26  C 
ATOM     15 O    SER D  82      26.764  11.721  -7.861  1.00 25.18 LIG-0.27  OA
BRANCH 14 16
ATOM     16  CA  SER D  82      27.605   9.883  -9.126  1.00 26.20 LIG 0.42  C 
ATOM     17  N   SER D  82      27.038   8.907 -10.096  1.00 29.40 LIG 0.62  N 
BRANCH 16 18
ATOM     18  CB  SER D  82      28.739  10.639  -9.770  1.00 30.27 LIG 0.21  C 
BRANCH 18 19
ATOM     19 OG   SER D  82      29.780  10.873  -8.845  1.00 31.34 LIG-0.40  OA
ATOM     20 HG   SER D  82      29.979  10.154  -8.459  1.00 31.34 LIG 0.21  HD
ENDBRANCH 18 19
ENDBRANCH 16 18
ENDBRANCH 14 16
ENDBRANCH 11 12
BRANCH 11 21
ATOM     21  CB  SER D  83      23.032  11.302  -9.897  1.00 14.68 LIG 0.20  C 
BRANCH 21 22
ATOM     22 OG   SER D  83      23.088   9.930 -10.224  1.00 13.30 LIG-0.40  OA
ATOM     23 HG   SER D  83      22.356   9.566 -10.031  1.00 13.30 LIG 0.21  HD
ENDBRANCH 21 22
ENDBRANCH 11 21
ENDBRANCH 8 11
ENDBRANCH 6 7
BRANCH 6 24
ATOM     24  CB  PHE D  84      23.829  13.723  -4.704  1.00  8.98 LIG 0.07  C 
BRANCH 24 25
ATOM     25  CG  PHE D  84      24.430  13.285  -3.393  1.00  8.49 LIG-0.06  A 
ATOM     26  CD2 PHE D  84      24.008  12.082  -2.801  1.00 10.31 LIG 0.01  A 
ATOM     27  CE2 PHE D  84      24.613  11.627  -1.633  1.00 10.65 LIG 0.00  A 
ATOM     28  CZ  PHE D  84      25.618  12.372  -1.003  1.00 10.75 LIG 0.00  A 
ATOM     29  CE1 PHE D  84      26.029  13.610  -1.569  1.00 10.66 LIG 0.00  A 
ATOM     30  CD1 PHE D  84      25.473  14.015  -2.791  1.00  9.98 LIG 0.01  A 
ENDBRANCH 24 25
ENDBRANCH 6 24
ENDBRANCH 3 6
ENDBRANCH 1 2
BRANCH 1 31
ATOM     31  C   PHE D  85      19.336  10.478  -5.460  1.00 16.85 LIG 0.24  C 
ATOM     32 O    PHE D  85      19.282  10.866  -6.623  1.00 18.00 LIG-0.27  OA
ATOM     33  N   SER D  86      18.892   9.281  -5.064  1.00 18.10 LIG-0.34  N 
ATOM     34 H    SER D  86      18.695   9.105  -4.246  1.00 18.10 LIG 0.16  HD
BRANCH 33 35
ATOM     35  CA  SER D  86      18.696   8.156  -5.957  1.00 22.43 LIG 0.20  C 
BRANCH 35 36
ATOM     36  C   SER D  86      17.526   7.297  -5.516  1.00 23.81 LIG 0.24  C 
ATOM     37  N   ASP D  87      17.519   6.066  -6.012  1.00 23.40 LIG-0.34  N 
ATOM     38 H    ASP D  87      18.162   5.740  -6.480  1.00 23.40 LIG 0.16  HD
ATOM     39 O    SER D  86      16.640   7.744  -4.764  1.00 25.32 LIG-0.27  OA
BRANCH 37 40
ATOM     40  CA  ASP D  87      16.402   5.138  -5.806  1.00 26.51 LIG 0.19  C 
BRANCH 40 41
ATOM     41  C   ASP D  87      16.727   4.052  -4.778  1.00 27.38 LIG 0.24  C 
ATOM     42 O    ASP D  87      15.904   3.738  -3.895  1.00 28.73 LIG-0.27  OA
ATOM     43  N   ARG D  88      17.917   3.473  -4.914  1.00 28.82 LIG-0.35  N 
ATOM     44 H    ARG D  88      18.471   3.690  -5.535  1.00 28.82 LIG 0.16  HD
BRANCH 43 45
ATOM     45  CA  ARG D  88      18.419   2.412  -4.037  1.00 28.71 LIG 0.16  C 
BRANCH 45 46
ATOM     46  C   ARG D  88      17.604   1.125  -4.218  1.00 31.71 LIG 0.22  C 
ATOM     47 O    ARG D  88      16.934   0.674  -3.270  1.00 33.51 LIG-0.29  OA
ENDBRANCH 45 46
BRANCH 45 48
ATOM     48  CB  ARG D  88      18.359   2.806  -2.551  1.00 27.82 LIG 0.04  C 
BRANCH 48 49
ATOM     49  CG  ARG D  88      19.678   3.219  -1.874  1.00 22.71 LIG 0.02  C 
BRANCH 49 50
ATOM     50  CD  ARG D  88      20.775   2.257  -2.256  1.00 22.91 LIG 0.14  C 
BRANCH 50 51
ATOM     51  NE  ARG D  88      21.960   2.997  -2.671  1.00 22.66 LIG-0.23  N 
ATOM     52  CZ  ARG D  88      23.176   2.870  -2.144  1.00 22.61 LIG 0.67  C 
ATOM     53  NH2 ARG D  88      24.158   3.610  -2.628  1.00 21.99 LIG-0.23  N 
ATOM     54  NH1 ARG D  88      23.374   2.108  -1.064  1.00 25.76 LIG-0.23  N 
ATOM     55 2HH2 ARG D  88      24.950   3.542  -2.300  1.00 21.99 LIG 0.17  HD
ATOM     56 1HH2 ARG D  88      24.006   4.161  -3.271  1.00 21.99 LIG 0.17  HD
ATOM     57 2HH1 ARG D  88      24.162   2.032  -0.729  1.00 25.76 LIG 0.17  HD
ATOM     58 1HH1 ARG D  88      22.713   1.694  -0.702  1.00 25.76 LIG 0.17  HD
ATOM     59 HE   ARG D  88      21.867   3.563  -3.311  1.00 22.66 LIG 0.18  HD
ENDBRANCH 50 51
ENDBRANCH 49 50
ENDBRANCH 48 49
ENDBRANCH 45 48
ENDBRANCH 43 45
ENDBRANCH 40 41
BRANCH 40 60
ATOM     60  CB  ASP D  87      16.008   4.513  -7.153  1.00 26.50 LIG 0.15  C 
BRANCH 60 61
ATOM     61  CG  ASP D  87      14.650   3.784  -7.114  1.00 24.52 LIG 0.17  C 
ATOM     62 OD2  ASP D  87      13.640   4.486  -7.397  1.00 24.79 LIG-0.65  OA
ATOM     63 OD1  ASP D  87      14.557   2.557  -6.800  1.00 24.25 LIG-0.65  OA
ENDBRANCH 60 61
ENDBRANCH 40 60
ENDBRANCH 37 40
ENDBRANCH 35 36
BRANCH 35 64
ATOM     64  CB  SER D  86      19.969   7.304  -5.935  1.00 23.53 LIG 0.20  C 
BRANCH 64 65
ATOM     65 OG   SER D  86      21.095   8.154  -5.965  1.00 29.54 LIG-0.40  OA
ATOM     66 HG   SER D  86      21.653   7.901  -5.390  1.00 29.54 LIG 0.21  HD
ENDBRANCH 64 65
ENDBRANCH 35 64
ENDBRANCH 33 35
ENDBRANCH 1 31
BRANCH 1 67
ATOM     67  CB  PHE D  85      19.113  12.754  -4.399  1.00 13.93 LIG 0.07  C 
BRANCH 67 68
ATOM     68  CG  PHE D  85      17.642  12.622  -4.185  1.00 11.63 LIG-0.06  A 
ATOM     69  CD1 PHE D  85      17.122  11.653  -3.292  1.00 12.04 LIG 0.01  A 
ATOM     70  CE1 PHE D  85      15.730  11.506  -3.091  1.00 12.49 LIG 0.00  A 
ATOM     71  CZ  PHE D  85      14.839  12.346  -3.844  1.00 15.08 LIG 0.00  A 
ATOM     72  CE2 PHE D  85      15.374  13.266  -4.768  1.00 13.94 LIG 0.00  A 
ATOM     73  CD2 PHE D  85      16.753  13.377  -4.950  1.00 14.09 LIG 0.01  A 
ENDBRANCH 67 68
ENDBRANCH 1 67
TORSDOF 29
ENDMDL
MODEL 8
USER: ADFR SOLUTION from run 144
USER: SCORE 23.928535 LL:  -4.194 LR: -21.761 RR:   0.000 FEB: -13.110
USER: RMSD 2.390836
USER: SEED 143
USER: STATUS no improvement in best in 6 clusters for 5 generations
USER: GENES 31
USER: genes 0 Translation |==|  0.52147 0.62011 0.56402
USER: genes 1 Rotation |==|  0.50876 0.46815 0.44299 0.99564
USER: genes 2 Torsion [CB]-CA--N-[C] |==|  0.48333
USER: genes 3 Torsion [N]-C--CA-[N] |==|  0.93185
USER: genes 4 Torsion [C]-CA--N-[C] |==|  0.81704
USER: genes 5 Torsion [N]-C--CA-[N] |==|  0.43408
USER: genes 6 Torsion [C]-CA--N-[C] |==|  0.63465
USER: genes 7 Torsion [N]-C--CA-[N] |==|  0.21917
USER: genes 8 Torsion [C]-CA--CB-[OG] |==|  0.48172
USER: genes 9 Torsion [CA]-CB--OG-[HG] |==|  0.62141
USER: genes 10 Torsion [C]-CA--CB-[OG] |==|  0.65014
USER: genes 11 Torsion [CA]-CB--OG-[HG] |==|  0.54387
USER: genes 12 Torsion [C]-CA--CB-[CG] |==|  0.50899
USER: genes 13 Torsion [CA]-CB--CG-[CD2] |==|  0.74042
USER: genes 14 Torsion [N]-CA--C-[N] |==|  0.32791
USER: genes 15 Torsion [C]-N--CA-[C] |==|  0.83287
USER: genes 16 Torsion [N]-CA--C-[N] |==|  0.30248
USER: genes 17 Torsion [C]-N--CA-[CB] |==|  0.76337
USER: genes 18 Torsion [N]-CA--C-[N] |==|  0.13902
USER: genes 19 Torsion [C]-N--CA-[C] |==|  0.17481
USER: genes 20 Torsion [N]-CA--C-[O] |==|  0.13977
USER: genes 21 Torsion [N]-CA--CB-[CG] |==|  0.54949
USER: genes 22 Torsion [CA]-CB--CG-[CD] |==|  0.36383
USER: genes 23 Torsion [CB]-CG--CD-[NE] |==|  0.65257
USER: genes 24 Torsion [CG]-CD--NE-[HE] |==|  0.20727
USER: genes 25 Torsion [N]-CA--CB-[CG] |==|  0.59447
USER: genes 26 Torsion [CA]-CB--CG-[OD2] |==|  0.00024
USER: genes 27 Torsion [N]-CA--CB-[OG] |==|  0.79772
USER: genes 28 Torsion [CA]-CB--OG-[HG] |==|  0.04028
USER: genes 29 Torsion [N]-CA--CB-[CG] |==|  0.70311
USER: genes 30 Torsion [CA]-CB--CG-[CD2] |==|  0.83839
ROOT
ATOM      1  CA  PHE D  85      22.781  12.595  -5.819  1.00 13.62 LIG 0.18  C 
ENDROOT
BRANCH 1 2
ATOM      2  N   PHE D  85      21.354  12.340  -5.476  1.00 12.64 LIG-0.35  N 
ATOM      3  C   PHE D  84      20.406  13.120  -5.964  1.00 12.54 LIG 0.24  C 
ATOM      4 O    PHE D  84      20.660  14.109  -6.649  1.00 13.45 LIG-0.27  OA
ATOM      5 H    PHE D  85      21.217  11.669  -4.955  1.00 12.64 LIG 0.16  HD
BRANCH 3 6
ATOM      6  CA  PHE D  84      18.974  12.760  -5.594  1.00 10.99 LIG 0.18  C 
BRANCH 6 7
ATOM      7  N   PHE D  84      18.805  11.355  -5.255  1.00 11.22 LIG-0.35  N 
ATOM      8  C   SER D  83      18.977  10.411  -6.170  1.00 13.00 LIG 0.24  C 
ATOM      9 O    SER D  83      19.114  10.649  -7.366  1.00 14.46 LIG-0.27  OA
ATOM     10 H    PHE D  84      18.592  11.204  -4.436  1.00 11.22 LIG 0.16  HD
BRANCH 8 11
ATOM     11  CA  SER D  83      19.006   8.975  -5.672  1.00 14.43 LIG 0.20  C 
BRANCH 11 12
ATOM     12  N   SER D  83      18.634   8.115  -6.784  1.00 17.69 LIG-0.34  N 
ATOM     13 H    SER D  83      19.056   8.285  -7.513  1.00 17.69 LIG 0.16  HD
ATOM     14  C   SER D  82      17.722   7.158  -6.673  1.00 24.18 LIG 0.26  C 
ATOM     15 O    SER D  82      17.123   6.928  -5.631  1.00 25.18 LIG-0.27  OA
BRANCH 14 16
ATOM     16  CA  SER D  82      17.396   6.369  -7.932  1.00 26.20 LIG 0.42  C 
ATOM     17  N   SER D  82      18.455   5.352  -8.175  1.00 29.40 LIG 0.62  N 
BRANCH 16 18
ATOM     18  CB  SER D  82      16.075   5.682  -7.697  1.00 30.27 LIG 0.21  C 
BRANCH 18 19
ATOM     19 OG   SER D  82      15.620   5.045  -8.873  1.00 31.34 LIG-0.40  OA
ATOM     20 HG   SER D  82      14.800   5.195  -8.974  1.00 31.34 LIG 0.21  HD
ENDBRANCH 18 19
ENDBRANCH 16 18
ENDBRANCH 14 16
ENDBRANCH 11 12
BRANCH 11 21
ATOM     21  CB  SER D  83      20.452   8.699  -5.246  1.00 14.68 LIG 0.20  C 
BRANCH 21 22
ATOM     22 OG   SER D  83      20.945   7.548  -5.898  1.00 13.30 LIG-0.40  OA
ATOM     23 HG   SER D  83      21.640   7.282  -5.508  1.00 13.30 LIG 0.21  HD
ENDBRANCH 21 22
ENDBRANCH 11 21
ENDBRANCH 8 11
ENDBRANCH 6 7
BRANCH 6 24
ATOM     24  CB  PHE D  84      18.361  13.627  -4.501  1.00  8.98 LIG 0.07  C 
BRANCH 24 25
ATOM     25  CG  PHE D  84      16.975  13.158  -4.139  1.00  8.49 LIG-0.06  A 
ATOM     26  CD2 PHE D  84      15.858  13.733  -4.772  1.00 10.31 LIG 0.01  A 
ATOM     27  CE2 PHE D  84      14.579  13.252  -4.505  1.00 10.65 LIG 0.00  A 
ATOM     28  CZ  PHE D  84      14.374  12.224  -3.578  1.00 10.75 LIG 0.00  A 
ATOM     29  CE1 PHE D  84      15.489  11.659  -2.902  1.00 10.66 LIG 0.00  A 
ATOM     30  CD1 PHE D  84      16.779  12.092  -3.242  1.00  9.98 LIG 0.01  A 
ENDBRANCH 24 25
ENDBRANCH 6 24
ENDBRANCH 3 6
ENDBRANCH 1 2
BRANCH 1 31
ATOM     31  C   PHE D  85      23.024  12.433  -7.317  1.00 16.85 LIG 0.24  C 
ATOM     32 O    PHE D  85      22.890  11.335  -7.850  1.00 18.00 LIG-0.27  OA
ATOM     33  N   SER D  86      23.443  13.520  -7.971  1.00 18.10 LIG-0.34  N 
ATOM     34 H    SER D  86      23.775  14.205  -7.571  1.00 18.10 LIG 0.16  HD
BRANCH 33 35
ATOM     35  CA  SER D  86      23.388  13.668  -9.412  1.00 22.43 LIG 0.20  C 
BRANCH 35 36
ATOM     36  C   SER D  86      24.203  12.596 -10.110  1.00 23.81 LIG 0.24  C 
ATOM     37  N   ASP D  87      23.488  11.677 -10.747  1.00 23.40 LIG-0.34  N 
ATOM     38 H    ASP D  87      22.634  11.719 -10.837  1.00 23.40 LIG 0.16  HD
ATOM     39 O    SER D  86      25.447  12.589 -10.055  1.00 25.32 LIG-0.27  OA
BRANCH 37 40
ATOM     40  CA  ASP D  87      24.094  10.493 -11.365  1.00 26.51 LIG 0.19  C 
BRANCH 40 41
ATOM     41  C   ASP D  87      25.239   9.919 -10.528  1.00 27.38 LIG 0.24  C 
ATOM     42 O    ASP D  87      26.352   9.684 -11.040  1.00 28.73 LIG-0.27  OA
ATOM     43  N   ARG D  88      24.964   9.719  -9.242  1.00 28.82 LIG-0.35  N 
ATOM     44 H    ARG D  88      24.195   9.897  -8.899  1.00 28.82 LIG 0.16  HD
BRANCH 43 45
ATOM     45  CA  ARG D  88      25.920   9.181  -8.271  1.00 28.71 LIG 0.16  C 
BRANCH 45 46
ATOM     46  C   ARG D  88      27.120  10.121  -8.111  1.00 31.71 LIG 0.22  C 
ATOM     47 O    ARG D  88      26.938  11.334  -7.896  1.00 33.51 LIG-0.29  OA
ENDBRANCH 45 46
BRANCH 45 48
ATOM     48  CB  ARG D  88      26.453   7.798  -8.683  1.00 27.82 LIG 0.04  C 
BRANCH 48 49
ATOM     49  CG  ARG D  88      27.117   6.940  -7.591  1.00 22.71 LIG 0.02  C 
BRANCH 49 50
ATOM     50  CD  ARG D  88      26.545   5.545  -7.614  1.00 22.91 LIG 0.14  C 
BRANCH 50 51
ATOM     51  NE  ARG D  88      26.034   5.198  -6.293  1.00 22.66 LIG-0.23  N 
ATOM     52  CZ  ARG D  88      26.618   4.369  -5.431  1.00 22.61 LIG 0.67  C 
ATOM     53  NH2 ARG D  88      26.034   4.152  -4.265  1.00 21.99 LIG-0.23  N 
ATOM     54  NH1 ARG D  88      27.700   3.669  -5.785  1.00 25.76 LIG-0.23  N 
ATOM     55 2HH2 ARG D  88      26.396   3.619  -3.695  1.00 21.99 LIG 0.17  HD
ATOM     56 1HH2 ARG D  88      25.292   4.543  -4.076  1.00 21.99 LIG 0.17  HD
ATOM     57 2HH1 ARG D  88      28.071   3.136  -5.221  1.00 25.76 LIG 0.17  HD
ATOM     58 1HH1 ARG D  88      28.027   3.752  -6.576  1.00 25.76 LIG 0.17  HD
ATOM     59 HE   ARG D  88      25.293   5.560  -6.051  1.00 22.66 LIG 0.18  HD
ENDBRANCH 50 51
ENDBRANCH 49 50
ENDBRANCH 48 49
ENDBRANCH 45 48
ENDBRANCH 43 45
ENDBRANCH 40 41
BRANCH 40 60
ATOM     60  CB  ASP D  87      24.578  10.852 -12.779  1.00 26.50 LIG 0.15  C 
BRANCH 60 61
ATOM     61  CG  ASP D  87      24.449   9.688 -13.782  1.00 24.52 LIG 0.17  C 
ATOM     62 OD2  ASP D  87      23.972   8.614 -13.322  1.00 24.79 LIG-0.65  OA
ATOM     63 OD1  ASP D  87      24.818   9.802 -14.992  1.00 24.25 LIG-0.65  OA
ENDBRANCH 60 61
ENDBRANCH 40 60
ENDBRANCH 37 40
ENDBRANCH 35 36
BRANCH 35 64
ATOM     64  CB  SER D  86      23.967  15.040  -9.771  1.00 23.53 LIG 0.20  C 
BRANCH 64 65
ATOM     65 OG   SER D  86      23.046  16.043  -9.400  1.00 29.54 LIG-0.40  OA
ATOM     66 HG   SER D  86      22.467  15.716  -8.887  1.00 29.54 LIG 0.21  HD
ENDBRANCH 64 65
ENDBRANCH 35 64
ENDBRANCH 33 35
ENDBRANCH 1 31
BRANCH 1 67
ATOM     67  CB  PHE D  85      23.711  11.657  -5.019  1.00 13.93 LIG 0.07  C 
BRANCH 67 68
ATOM     68  CG  PHE D  85      24.455  12.353  -3.929  1.00 11.63 LIG-0.06  A 
ATOM     69  CD1 PHE D  85      24.242  12.010  -2.571  1.00 12.04 LIG 0.01  A 
ATOM     70  CE1 PHE D  85      24.930  12.671  -1.526  1.00 12.49 LIG 0.00  A 
ATOM     71  CZ  PHE D  85      25.834  13.734  -1.869  1.00 15.08 LIG 0.00  A 
ATOM     72  CE2 PHE D  85      25.991  14.098  -3.222  1.00 13.94 LIG 0.00  A 
ATOM     73  CD2 PHE D  85      25.288  13.431  -4.228  1.00 14.09 LIG 0.01  A 
ENDBRANCH 67 68
ENDBRANCH 1 67
TORSDOF 29
ENDMDL
MODEL 9
USER: ADFR SOLUTION from run 110
USER: SCORE 23.273484 LL:  -3.509 LR: -21.371 RR:   0.000 FEB: -12.720
USER: RMSD 6.397939
USER: SEED 109
USER: STATUS 1 or 2 clusters left
USER: GENES 31
USER: genes 0 Translation |==|  0.31042 0.48883 0.56345
USER: genes 1 Rotation |==|  0.46273 0.25175 0.80243 0.80906
USER: genes 2 Torsion [CB]-CA--N-[C] |==|  0.15729
USER: genes 3 Torsion [N]-C--CA-[N] |==|  0.13199
USER: genes 4 Torsion [C]-CA--N-[C] |==|  0.60246
USER: genes 5 Torsion [N]-C--CA-[N] |==|  0.31754
USER: genes 6 Torsion [C]-CA--N-[C] |==|  0.80081
USER: genes 7 Torsion [N]-C--CA-[N] |==|  0.47103
USER: genes 8 Torsion [C]-CA--CB-[OG] |==|  0.73176
USER: genes 9 Torsion [CA]-CB--OG-[HG] |==|  0.76342
USER: genes 10 Torsion [C]-CA--CB-[OG] |==|  0.56582
USER: genes 11 Torsion [CA]-CB--OG-[HG] |==|  0.77397
USER: genes 12 Torsion [C]-CA--CB-[CG] |==|  0.28783
USER: genes 13 Torsion [CA]-CB--CG-[CD2] |==|  0.42691
USER: genes 14 Torsion [N]-CA--C-[N] |==|  0.67747
USER: genes 15 Torsion [C]-N--CA-[C] |==|  0.67184
USER: genes 16 Torsion [N]-CA--C-[N] |==|  0.45514
USER: genes 17 Torsion [C]-N--CA-[CB] |==|  0.86667
USER: genes 18 Torsion [N]-CA--C-[N] |==|  0.88955
USER: genes 19 Torsion [C]-N--CA-[C] |==|  0.52503
USER: genes 20 Torsion [N]-CA--C-[O] |==|  0.28411
USER: genes 21 Torsion [N]-CA--CB-[CG] |==|  0.58159
USER: genes 22 Torsion [CA]-CB--CG-[CD] |==|  0.54767
USER: genes 23 Torsion [CB]-CG--CD-[NE] |==|  0.17493
USER: genes 24 Torsion [CG]-CD--NE-[HE] |==|  0.92280
USER: genes 25 Torsion [N]-CA--CB-[CG] |==|  0.67613
USER: genes 26 Torsion [CA]-CB--CG-[OD2] |==|  0.17381
USER: genes 27 Torsion [N]-CA--CB-[OG] |==|  0.76448
USER: genes 28 Torsion [CA]-CB--OG-[HG] |==|  0.18962
USER: genes 29 Torsion [N]-CA--CB-[CG] |==|  0.59694
USER: genes 30 Torsion [CA]-CB--CG-[CD2] |==|  0.32119
ROOT
ATOM      1  CA  PHE D  85      17.874   9.740  -5.829  1.00 13.62 LIG 0.18  C 
ENDROOT
BRANCH 1 2
ATOM      2  N   PHE D  85      18.159   8.278  -5.853  1.00 12.64 LIG-0.35  N 
ATOM      3  C   PHE D  84      17.268   7.422  -5.383  1.00 12.54 LIG 0.24  C 
ATOM      4 O    PHE D  84      16.222   7.791  -4.853  1.00 13.45 LIG-0.27  OA
ATOM      5 H    PHE D  85      18.921   8.059  -6.187  1.00 12.64 LIG 0.16  HD
BRANCH 3 6
ATOM      6  CA  PHE D  84      17.626   5.946  -5.486  1.00 10.99 LIG 0.18  C 
BRANCH 6 7
ATOM      7  N   PHE D  84      18.976   5.649  -5.027  1.00 11.22 LIG-0.35  N 
ATOM      8  C   SER D  83      19.713   4.731  -5.636  1.00 13.00 LIG 0.24  C 
ATOM      9 O    SER D  83      19.269   3.968  -6.489  1.00 14.46 LIG-0.27  OA
ATOM     10 H    PHE D  84      19.236   6.110  -4.349  1.00 11.22 LIG 0.16  HD
BRANCH 8 11
ATOM     11  CA  SER D  83      21.177   4.656  -5.235  1.00 14.43 LIG 0.20  C 
BRANCH 11 12
ATOM     12  N   SER D  83      21.391   3.373  -4.584  1.00 17.69 LIG-0.34  N 
ATOM     13 H    SER D  83      21.844   2.814  -5.055  1.00 17.69 LIG 0.16  HD
ATOM     14  C   SER D  82      20.923   3.100  -3.374  1.00 24.18 LIG 0.26  C 
ATOM     15 O    SER D  82      20.276   3.902  -2.714  1.00 25.18 LIG-0.27  OA
BRANCH 14 16
ATOM     16  CA  SER D  82      21.179   1.700  -2.838  1.00 26.20 LIG 0.42  C 
ATOM     17  N   SER D  82      20.820   1.642  -1.394  1.00 29.40 LIG 0.62  N 
BRANCH 16 18
ATOM     18  CB  SER D  82      20.299   0.756  -3.618  1.00 30.27 LIG 0.21  C 
BRANCH 18 19
ATOM     19 OG   SER D  82      19.102   0.487  -2.919  1.00 31.34 LIG-0.40  OA
ATOM     20 HG   SER D  82      19.229  -0.141  -2.377  1.00 31.34 LIG 0.21  HD
ENDBRANCH 18 19
ENDBRANCH 16 18
ENDBRANCH 14 16
ENDBRANCH 11 12
BRANCH 11 21
ATOM     21  CB  SER D  83      21.982   4.734  -6.537  1.00 14.68 LIG 0.20  C 
BRANCH 21 22
ATOM     22 OG   SER D  83      23.254   4.148  -6.364  1.00 13.30 LIG-0.40  OA
ATOM     23 HG   SER D  83      23.769   4.700  -5.996  1.00 13.30 LIG 0.21  HD
ENDBRANCH 21 22
ENDBRANCH 11 21
ENDBRANCH 8 11
ENDBRANCH 6 7
BRANCH 6 24
ATOM     24  CB  PHE D  84      16.638   5.002  -4.812  1.00  8.98 LIG 0.07  C 
BRANCH 24 25
ATOM     25  CG  PHE D  84      15.758   4.313  -5.823  1.00  8.49 LIG-0.06  A 
ATOM     26  CD2 PHE D  84      15.200   3.059  -5.519  1.00 10.31 LIG 0.01  A 
ATOM     27  CE2 PHE D  84      14.321   2.449  -6.411  1.00 10.65 LIG 0.00  A 
ATOM     28  CZ  PHE D  84      14.011   3.046  -7.640  1.00 10.75 LIG 0.00  A 
ATOM     29  CE1 PHE D  84      14.598   4.296  -7.977  1.00 10.66 LIG 0.00  A 
ATOM     30  CD1 PHE D  84      15.413   4.940  -7.035  1.00  9.98 LIG 0.01  A 
ENDBRANCH 24 25
ENDBRANCH 6 24
ENDBRANCH 3 6
ENDBRANCH 1 2
BRANCH 1 31
ATOM     31  C   PHE D  85      19.040  10.536  -6.411  1.00 16.85 LIG 0.24  C 
ATOM     32 O    PHE D  85      19.392  10.358  -7.572  1.00 18.00 LIG-0.27  OA
ATOM     33  N   SER D  86      19.670  11.364  -5.571  1.00 18.10 LIG-0.34  N 
ATOM     34 H    SER D  86      19.594  11.306  -4.716  1.00 18.10 LIG 0.16  HD
BRANCH 33 35
ATOM     35  CA  SER D  86      20.541  12.440  -5.998  1.00 22.43 LIG 0.20  C 
BRANCH 35 36
ATOM     36  C   SER D  86      21.957  12.239  -5.491  1.00 23.81 LIG 0.24  C 
ATOM     37  N   ASP D  87      22.878  12.977  -6.101  1.00 23.40 LIG-0.34  N 
ATOM     38 H    ASP D  87      22.692  13.584  -6.680  1.00 23.40 LIG 0.16  HD
ATOM     39 O    SER D  86      22.213  11.423  -4.587  1.00 25.32 LIG-0.27  OA
BRANCH 37 40
ATOM     40  CA  ASP D  87      24.313  12.823  -5.839  1.00 26.51 LIG 0.19  C 
BRANCH 40 41
ATOM     41  C   ASP D  87      24.897  11.574  -6.502  1.00 27.38 LIG 0.24  C 
ATOM     42 O    ASP D  87      26.032  11.593  -7.019  1.00 28.73 LIG-0.27  OA
ATOM     43  N   ARG D  88      24.124  10.491  -6.463  1.00 28.82 LIG-0.35  N 
ATOM     44 H    ARG D  88      23.348  10.488  -6.093  1.00 28.82 LIG 0.16  HD
BRANCH 43 45
ATOM     45  CA  ARG D  88      24.497   9.195  -7.036  1.00 28.71 LIG 0.16  C 
BRANCH 45 46
ATOM     46  C   ARG D  88      23.305   8.230  -7.018  1.00 31.71 LIG 0.22  C 
ATOM     47 O    ARG D  88      22.662   8.014  -8.063  1.00 33.51 LIG-0.29  OA
ENDBRANCH 45 46
BRANCH 45 48
ATOM     48  CB  ARG D  88      25.656   8.531  -6.273  1.00 27.82 LIG 0.04  C 
BRANCH 48 49
ATOM     49  CG  ARG D  88      26.590   7.602  -7.070  1.00 22.71 LIG 0.02  C 
BRANCH 49 50
ATOM     50  CD  ARG D  88      27.378   6.732  -6.124  1.00 22.91 LIG 0.14  C 
BRANCH 50 51
ATOM     51  NE  ARG D  88      26.473   5.869  -5.374  1.00 22.66 LIG-0.23  N 
ATOM     52  CZ  ARG D  88      26.781   4.675  -4.873  1.00 22.61 LIG 0.67  C 
ATOM     53  NH2 ARG D  88      25.852   4.006  -4.211  1.00 21.99 LIG-0.23  N 
ATOM     54  NH1 ARG D  88      27.959   4.105  -5.144  1.00 25.76 LIG-0.23  N 
ATOM     55 2HH2 ARG D  88      26.032   3.233  -3.880  1.00 21.99 LIG 0.17  HD
ATOM     56 1HH2 ARG D  88      25.068   4.344  -4.111  1.00 21.99 LIG 0.17  HD
ATOM     57 2HH1 ARG D  88      28.149   3.333  -4.816  1.00 25.76 LIG 0.17  HD
ATOM     58 1HH1 ARG D  88      28.528   4.510  -5.646  1.00 25.76 LIG 0.17  HD
ATOM     59 HE   ARG D  88      25.674   6.156  -5.244  1.00 22.66 LIG 0.18  HD
ENDBRANCH 50 51
ENDBRANCH 49 50
ENDBRANCH 48 49
ENDBRANCH 45 48
ENDBRANCH 43 45
ENDBRANCH 40 41
BRANCH 40 60
ATOM     60  CB  ASP D  87      24.551  12.797  -4.322  1.00 26.50 LIG 0.15  C 
BRANCH 60 61
ATOM     61  CG  ASP D  87      25.403  13.980  -3.818  1.00 24.52 LIG 0.17  C 
ATOM     62 OD2  ASP D  87      24.907  15.127  -3.986  1.00 24.79 LIG-0.65  OA
ATOM     63 OD1  ASP D  87      26.541  13.805  -3.281  1.00 24.25 LIG-0.65  OA
ENDBRANCH 60 61
ENDBRANCH 40 60
ENDBRANCH 37 40
ENDBRANCH 35 36
BRANCH 35 64
ATOM     64  CB  SER D  86      19.994  13.750  -5.425  1.00 23.53 LIG 0.20  C 
BRANCH 64 65
ATOM     65 OG   SER D  86      18.997  14.252  -6.288  1.00 29.54 LIG-0.40  OA
ATOM     66 HG   SER D  86      18.327  13.747  -6.267  1.00 29.54 LIG 0.21  HD
ENDBRANCH 64 65
ENDBRANCH 35 64
ENDBRANCH 33 35
ENDBRANCH 1 31
BRANCH 1 67
ATOM     67  CB  PHE D  85      17.565  10.212  -4.392  1.00 13.93 LIG 0.07  C 
BRANCH 67 68
ATOM     68  CG  PHE D  85      16.541  11.296  -4.335  1.00 11.63 LIG-0.06  A 
ATOM     69  CD1 PHE D  85      16.835  12.599  -4.806  1.00 12.04 LIG 0.01  A 
ATOM     70  CE1 PHE D  85      15.878  13.640  -4.744  1.00 12.49 LIG 0.00  A 
ATOM     71  CZ  PHE D  85      14.598  13.356  -4.157  1.00 15.08 LIG 0.00  A 
ATOM     72  CE2 PHE D  85      14.343  12.068  -3.644  1.00 13.94 LIG 0.00  A 
ATOM     73  CD2 PHE D  85      15.314  11.067  -3.711  1.00 14.09 LIG 0.01  A 
ENDBRANCH 67 68
ENDBRANCH 1 67
TORSDOF 29
ENDMDL
MODEL 10
USER: ADFR SOLUTION from run 129
USER: SCORE 22.132682 LL:  -4.569 LR: -21.359 RR:   0.000 FEB: -12.708
USER: RMSD 8.715138
USER: SEED 128
USER: STATUS no improvement in best in 5 clusters for 5 generations
USER: GENES 31
USER: genes 0 Translation |==|  0.37449 0.55284 0.64592
USER: genes 1 Rotation |==|  0.56921 0.67101 0.95499 0.59460
USER: genes 2 Torsion [CB]-CA--N-[C] |==|  0.82753
USER: genes 3 Torsion [N]-C--CA-[N] |==|  0.35107
USER: genes 4 Torsion [C]-CA--N-[C] |==|  0.22136
USER: genes 5 Torsion [N]-C--CA-[N] |==|  0.55908
USER: genes 6 Torsion [C]-CA--N-[C] |==|  0.68497
USER: genes 7 Torsion [N]-C--CA-[N] |==|  0.63389
USER: genes 8 Torsion [C]-CA--CB-[OG] |==|  0.39345
USER: genes 9 Torsion [CA]-CB--OG-[HG] |==|  0.79921
USER: genes 10 Torsion [C]-CA--CB-[OG] |==|  0.77484
USER: genes 11 Torsion [CA]-CB--OG-[HG] |==|  0.13292
USER: genes 12 Torsion [C]-CA--CB-[CG] |==|  0.33185
USER: genes 13 Torsion [CA]-CB--CG-[CD2] |==|  0.90061
USER: genes 14 Torsion [N]-CA--C-[N] |==|  0.27872
USER: genes 15 Torsion [C]-N--CA-[C] |==|  0.52237
USER: genes 16 Torsion [N]-CA--C-[N] |==|  0.50515
USER: genes 17 Torsion [C]-N--CA-[CB] |==|  0.52446
USER: genes 18 Torsion [N]-CA--C-[N] |==|  0.89985
USER: genes 19 Torsion [C]-N--CA-[C] |==|  0.68940
USER: genes 20 Torsion [N]-CA--C-[O] |==|  0.91685
USER: genes 21 Torsion [N]-CA--CB-[CG] |==|  0.11136
USER: genes 22 Torsion [CA]-CB--CG-[CD] |==|  0.45201
USER: genes 23 Torsion [CB]-CG--CD-[NE] |==|  0.74444
USER: genes 24 Torsion [CG]-CD--NE-[HE] |==|  0.96746
USER: genes 25 Torsion [N]-CA--CB-[CG] |==|  0.13721
USER: genes 26 Torsion [CA]-CB--CG-[OD2] |==|  0.31803
USER: genes 27 Torsion [N]-CA--CB-[OG] |==|  0.11623
USER: genes 28 Torsion [CA]-CB--OG-[HG] |==|  0.13925
USER: genes 29 Torsion [N]-CA--CB-[CG] |==|  0.48863
USER: genes 30 Torsion [CA]-CB--CG-[CD2] |==|  0.62996
ROOT
ATOM      1  CA  PHE D  85      19.364  11.132  -4.283  1.00 13.62 LIG 0.18  C 
ENDROOT
BRANCH 1 2
ATOM      2  N   PHE D  85      20.842  11.257  -4.425  1.00 12.64 LIG-0.35  N 
ATOM      3  C   PHE D  84      21.355  11.939  -5.434  1.00 12.54 LIG 0.24  C 
ATOM      4 O    PHE D  84      20.654  12.430  -6.316  1.00 13.45 LIG-0.27  OA
ATOM      5 H    PHE D  85      21.303  10.860  -3.817  1.00 12.64 LIG 0.16  HD
BRANCH 3 6
ATOM      6  CA  PHE D  84      22.872  12.048  -5.476  1.00 10.99 LIG 0.18  C 
BRANCH 6 7
ATOM      7  N   PHE D  84      23.444  11.617  -6.743  1.00 11.22 LIG-0.35  N 
ATOM      8  C   SER D  83      23.437  12.419  -7.799  1.00 13.00 LIG 0.24  C 
ATOM      9 O    SER D  83      22.817  13.478  -7.836  1.00 14.46 LIG-0.27  OA
ATOM     10 H    PHE D  84      23.772  10.822  -6.739  1.00 11.22 LIG 0.16  HD
BRANCH 8 11
ATOM     11  CA  SER D  83      24.256  11.974  -9.000  1.00 14.43 LIG 0.20  C 
BRANCH 11 12
ATOM     12  N   SER D  83      24.536  13.152  -9.804  1.00 17.69 LIG-0.34  N 
ATOM     13 H    SER D  83      25.053  13.722  -9.419  1.00 17.69 LIG 0.16  HD
ATOM     14  C   SER D  82      24.034  13.324 -11.019  1.00 24.18 LIG 0.26  C 
ATOM     15 O    SER D  82      23.295  12.509 -11.555  1.00 25.18 LIG-0.27  OA
BRANCH 14 16
ATOM     16  CA  SER D  82      24.371  14.630 -11.724  1.00 26.20 LIG 0.42  C 
ATOM     17  N   SER D  82      23.130  15.233 -12.283  1.00 29.40 LIG 0.62  N 
BRANCH 16 18
ATOM     18  CB  SER D  82      24.965  15.554 -10.691  1.00 30.27 LIG 0.21  C 
BRANCH 18 19
ATOM     19 OG   SER D  82      26.024  16.310 -11.239  1.00 31.34 LIG-0.40  OA
ATOM     20 HG   SER D  82      26.690  15.813 -11.359  1.00 31.34 LIG 0.21  HD
ENDBRANCH 18 19
ENDBRANCH 16 18
ENDBRANCH 14 16
ENDBRANCH 11 12
BRANCH 11 21
ATOM     21  CB  SER D  83      25.556  11.388  -8.439  1.00 14.68 LIG 0.20  C 
BRANCH 21 22
ATOM     22 OG   SER D  83      26.465  12.422  -8.127  1.00 13.30 LIG-0.40  OA
ATOM     23 HG   SER D  83      26.071  13.018  -7.685  1.00 13.30 LIG 0.21  HD
ENDBRANCH 21 22
ENDBRANCH 11 21
ENDBRANCH 8 11
ENDBRANCH 6 7
BRANCH 6 24
ATOM     24  CB  PHE D  84      23.423  13.421  -5.108  1.00  8.98 LIG 0.07  C 
BRANCH 24 25
ATOM     25  CG  PHE D  84      24.322  13.347  -3.900  1.00  8.49 LIG-0.06  A 
ATOM     26  CD2 PHE D  84      24.021  12.447  -2.863  1.00 10.31 LIG 0.01  A 
ATOM     27  CE2 PHE D  84      24.887  12.313  -1.780  1.00 10.65 LIG 0.00  A 
ATOM     28  CZ  PHE D  84      26.045  13.095  -1.681  1.00 10.75 LIG 0.00  A 
ATOM     29  CE1 PHE D  84      26.342  14.036  -2.704  1.00 10.66 LIG 0.00  A 
ATOM     30  CD1 PHE D  84      25.509  14.101  -3.829  1.00  9.98 LIG 0.01  A 
ENDBRANCH 24 25
ENDBRANCH 6 24
ENDBRANCH 3 6
ENDBRANCH 1 2
BRANCH 1 31
ATOM     31  C   PHE D  85      18.753  10.431  -5.494  1.00 16.85 LIG 0.24  C 
ATOM     32 O    PHE D  85      18.502  11.066  -6.514  1.00 18.00 LIG-0.27  OA
ATOM     33  N   SER D  86      18.459   9.136  -5.343  1.00 18.10 LIG-0.34  N 
ATOM     34 H    SER D  86      18.397   8.760  -4.573  1.00 18.10 LIG 0.16  HD
BRANCH 33 35
ATOM     35  CA  SER D  86      18.215   8.229  -6.447  1.00 22.43 LIG 0.20  C 
BRANCH 35 36
ATOM     36  C   SER D  86      17.717   6.883  -5.957  1.00 23.81 LIG 0.24  C 
ATOM     37  N   ASP D  87      17.507   5.984  -6.911  1.00 23.40 LIG-0.34  N 
ATOM     38 H    ASP D  87      17.712   6.112  -7.736  1.00 23.40 LIG 0.16  HD
ATOM     39 O    SER D  86      17.507   6.670  -4.748  1.00 25.32 LIG-0.27  OA
BRANCH 37 40
ATOM     40  CA  ASP D  87      16.902   4.675  -6.644  1.00 26.51 LIG 0.19  C 
BRANCH 40 41
ATOM     41  C   ASP D  87      17.538   3.971  -5.443  1.00 27.38 LIG 0.24  C 
ATOM     42 O    ASP D  87      16.853   3.262  -4.679  1.00 28.73 LIG-0.27  OA
ATOM     43  N   ARG D  88      18.848   4.156  -5.299  1.00 28.82 LIG-0.35  N 
ATOM     44 H    ARG D  88      19.311   4.638  -5.841  1.00 28.82 LIG 0.16  HD
BRANCH 43 45
ATOM     45  CA  ARG D  88      19.646   3.569  -4.220  1.00 28.71 LIG 0.16  C 
BRANCH 45 46
ATOM     46  C   ARG D  88      20.146   4.657  -3.261  1.00 31.71 LIG 0.22  C 
ATOM     47 O    ARG D  88      20.365   5.808  -3.684  1.00 33.51 LIG-0.29  OA
ENDBRANCH 45 46
BRANCH 45 48
ATOM     48  CB  ARG D  88      20.872   2.806  -4.750  1.00 27.82 LIG 0.04  C 
BRANCH 48 49
ATOM     49  CG  ARG D  88      21.641   3.431  -5.929  1.00 22.71 LIG 0.02  C 
BRANCH 49 50
ATOM     50  CD  ARG D  88      23.009   2.805  -6.040  1.00 22.91 LIG 0.14  C 
BRANCH 50 51
ATOM     51  NE  ARG D  88      23.974   3.586  -5.276  1.00 22.66 LIG-0.23  N 
ATOM     52  CZ  ARG D  88      25.213   3.205  -4.976  1.00 22.61 LIG 0.67  C 
ATOM     53  NH2 ARG D  88      25.977   4.024  -4.274  1.00 21.99 LIG-0.23  N 
ATOM     54  NH1 ARG D  88      25.635   1.970  -5.265  1.00 25.76 LIG-0.23  N 
ATOM     55 2HH2 ARG D  88      26.781   3.796  -4.071  1.00 21.99 LIG 0.17  HD
ATOM     56 1HH2 ARG D  88      25.671   4.787  -4.020  1.00 21.99 LIG 0.17  HD
ATOM     57 2HH1 ARG D  88      26.438   1.732  -5.068  1.00 25.76 LIG 0.17  HD
ATOM     58 1HH1 ARG D  88      25.104   1.412  -5.647  1.00 25.76 LIG 0.17  HD
ATOM     59 HE   ARG D  88      23.721   4.358  -4.995  1.00 22.66 LIG 0.18  HD
ENDBRANCH 50 51
ENDBRANCH 49 50
ENDBRANCH 48 49
ENDBRANCH 45 48
ENDBRANCH 43 45
ENDBRANCH 40 41
BRANCH 40 60
ATOM     60  CB  ASP D  87      17.004   3.803  -7.905  1.00 26.50 LIG 0.15  C 
BRANCH 60 61
ATOM     61  CG  ASP D  87      18.421   3.774  -8.513  1.00 24.52 LIG 0.17  C 
ATOM     62 OD2  ASP D  87      19.009   2.658  -8.486  1.00 24.79 LIG-0.65  OA
ATOM     63 OD1  ASP D  87      18.965   4.816  -8.995  1.00 24.25 LIG-0.65  OA
ENDBRANCH 60 61
ENDBRANCH 40 60
ENDBRANCH 37 40
ENDBRANCH 35 36
BRANCH 35 64
ATOM     64  CB  SER D  86      19.536   8.024  -7.194  1.00 23.53 LIG 0.20  C 
BRANCH 64 65
ATOM     65 OG   SER D  86      20.581   7.881  -6.256  1.00 29.54 LIG-0.40  OA
ATOM     66 HG   SER D  86      20.366   7.306  -5.683  1.00 29.54 LIG 0.21  HD
ENDBRANCH 64 65
ENDBRANCH 35 64
ENDBRANCH 33 35
ENDBRANCH 1 31
BRANCH 1 67
ATOM     67  CB  PHE D  85      18.716  12.519  -4.082  1.00 13.93 LIG 0.07  C 
BRANCH 67 68
ATOM     68  CG  PHE D  85      17.226  12.472  -4.030  1.00 11.63 LIG-0.06  A 
ATOM     69  CD1 PHE D  85      16.556  11.443  -3.324  1.00 12.04 LIG 0.01  A 
ATOM     70  CE1 PHE D  85      15.143  11.377  -3.279  1.00 12.49 LIG 0.00  A 
ATOM     71  CZ  PHE D  85      14.390  12.367  -4.000  1.00 15.08 LIG 0.00  A 
ATOM     72  CE2 PHE D  85      15.075  13.351  -4.741  1.00 13.94 LIG 0.00  A 
ATOM     73  CD2 PHE D  85      16.471  13.380  -4.773  1.00 14.09 LIG 0.01  A 
ENDBRANCH 67 68
ENDBRANCH 1 67
TORSDOF 29
ENDMDL
