MODEL 1
USER: ADFR SOLUTION from run 192
USER: SCORE 23.913549 LL:  -6.757 LR: -20.052 RR:   0.000 FEB: -10.208
USER: RMSD 4.410898
USER: SEED 191
USER: STATUS searching
USER: GENES 35
USER: genes 0 Translation |==|  0.45554 0.39019 0.54607
USER: genes 1 Rotation |==|  0.47723 0.58136 0.49385 0.99277
USER: genes 2 Torsion [C]-CA--N-[C] |==|  0.74991
USER: genes 3 Torsion [N]-C--CA-[N] |==|  0.26094
USER: genes 4 Torsion [C]-CA--N-[C] |==|  0.15074
USER: genes 5 Torsion [N]-C--CA-[N] |==|  0.86667
USER: genes 6 Torsion [C]-CA--N-[C] |==|  0.87222
USER: genes 7 Torsion [N]-C--CA-[N] |==|  0.95763
USER: genes 8 Torsion [C]-CA--CB-[CG2] |==|  0.81775
USER: genes 9 Torsion [CA]-CB--OG1-[HG1] |==|  0.79537
USER: genes 10 Torsion [C]-CA--CB-[CG] |==|  0.44897
USER: genes 11 Torsion [CA]-CB--CG-[CD1] |==|  0.94746
USER: genes 12 Torsion [CE2]-CZ--OH-[HH] |==|  0.67610
USER: genes 13 Torsion [C]-CA--CB-[CG] |==|  0.50377
USER: genes 14 Torsion [CA]-CB--CG-[CD] |==|  0.50017
USER: genes 15 Torsion [CB]-CG--CD-[CE] |==|  0.54962
USER: genes 16 Torsion [CG]-CD--CE-[NZ] |==|  0.29924
USER: genes 17 Torsion [CD]-CE--NZ-[HZ2] |==|  0.15926
USER: genes 18 Torsion [N]-CA--C-[N] |==|  0.27202
USER: genes 19 Torsion [C]-N--CA-[CB] |==|  0.19126
USER: genes 20 Torsion [N]-CA--C-[N] |==|  0.74718
USER: genes 21 Torsion [C]-N--CA-[CB] |==|  0.87645
USER: genes 22 Torsion [N]-CA--CB-[CG] |==|  0.69453
USER: genes 23 Torsion [CA]-CB--CG-[CD] |==|  0.07937
USER: genes 24 Torsion [CB]-CG--CD-[OE2] |==|  0.21153
USER: genes 25 Torsion [N]-CA--C-[N] |==|  0.87426
USER: genes 26 Torsion [C]-N--CA-[C] |==|  0.51508
USER: genes 27 Torsion [N]-CA--C-[OXT] |==|  0.95568
USER: genes 28 Torsion [N]-CA--CB-[CG] |==|  0.19931
USER: genes 29 Torsion [CA]-CB--CG-[CD] |==|  0.65700
USER: genes 30 Torsion [CB]-CG--CD-[OE1] |==|  0.68904
USER: genes 31 Torsion [N]-CA--CB-[CG] |==|  0.06115
USER: genes 32 Torsion [CA]-CB--CG-[CD2] |==|  0.68080
USER: genes 33 Torsion [N]-CA--CB-[CG] |==|  0.74015
USER: genes 34 Torsion [CA]-CB--CG-[CD1] |==|  0.44261
ROOT
ATOM      1  CA  PHE B 689     -25.558   4.669  27.787  1.00 23.75 LIG 0.18  C 
ENDROOT
BRANCH 1 2
ATOM      2  N   PHE B 689     -24.669   5.677  28.395  1.00 25.36 LIG-0.35  N 
ATOM      3 H    PHE B 689     -25.073   6.228  28.917  1.00 25.36 LIG 0.16  HD
ATOM      4  C   LYS B 688     -23.362   5.722  28.154  1.00 27.14 LIG 0.24  C 
ATOM      5 O    LYS B 688     -22.795   4.955  27.387  1.00 24.82 LIG-0.27  OA
BRANCH 4 6
ATOM      6  CA  LYS B 688     -22.570   6.812  28.867  1.00 29.11 LIG 0.18  C 
BRANCH 6 7
ATOM      7  N   LYS B 688     -22.005   6.284  30.117  1.00 31.24 LIG-0.35  N 
ATOM      8  C   TYR B 687     -21.250   5.187  30.137  1.00 34.73 LIG 0.24  C 
ATOM      9 O    TYR B 687     -20.991   4.525  29.120  1.00 34.89 LIG-0.27  OA
ATOM     10 H    LYS B 688     -22.204   6.741  30.817  1.00 31.24 LIG 0.16  HD
BRANCH 8 11
ATOM     11  CA  TYR B 687     -20.681   4.776  31.487  1.00 37.40 LIG 0.18  C 
BRANCH 11 12
ATOM     12  N   TYR B 687     -20.056   5.876  32.211  1.00 39.68 LIG-0.34  N 
ATOM     13 H    TYR B 687     -20.276   5.926  33.041  1.00 39.68 LIG 0.16  HD
ATOM     14  C   THR B 686     -19.216   6.720  31.612  1.00 41.22 LIG 0.26  C 
ATOM     15 O    THR B 686     -19.065   6.771  30.389  1.00 41.89 LIG-0.27  OA
BRANCH 14 16
ATOM     16  CA  THR B 686     -18.414   7.647  32.528  1.00 42.81 LIG 0.43  C 
ATOM     17  N   THR B 686     -18.971   7.703  33.920  1.00 43.04 LIG 0.62  N 
BRANCH 16 18
ATOM     18  CB  THR B 686     -16.938   7.145  32.485  1.00 43.12 LIG 0.16  C 
ATOM     19  CG2 THR B 686     -16.809   5.728  33.113  1.00 43.85 LIG 0.04  C 
BRANCH 18 20
ATOM     20 OG1  THR B 686     -16.441   7.145  31.143  1.00 44.58 LIG-0.39  OA
ATOM     21 HG1  THR B 686     -16.785   6.509  30.716  1.00 44.58 LIG 0.21  HD
ENDBRANCH 18 20
ENDBRANCH 16 18
ENDBRANCH 14 16
ENDBRANCH 11 12
BRANCH 11 22
ATOM     22  CB  TYR B 687     -21.797   4.186  32.336  1.00 38.54 LIG 0.07  C 
BRANCH 22 23
ATOM     23  CG  TYR B 687     -21.332   3.353  33.499  1.00 40.36 LIG-0.06  A 
ATOM     24  CD2 TYR B 687     -22.198   3.068  34.562  1.00 43.44 LIG 0.01  A 
ATOM     25  CE2 TYR B 687     -21.778   2.283  35.639  1.00 43.74 LIG 0.04  A 
ATOM     26  CZ  TYR B 687     -20.480   1.784  35.643  1.00 42.51 LIG 0.07  A 
ATOM     27  CE1 TYR B 687     -19.608   2.057  34.594  1.00 41.41 LIG 0.04  A 
ATOM     28  CD1 TYR B 687     -20.039   2.835  33.536  1.00 40.86 LIG 0.01  A 
BRANCH 26 29
ATOM     29 OH   TYR B 687     -20.070   1.009  36.702  1.00 42.23 LIG-0.36  OA
ATOM     30 HH   TYR B 687     -19.444   1.396  37.107  1.00 42.23 LIG 0.22  HD
ENDBRANCH 26 29
ENDBRANCH 22 23
ENDBRANCH 11 22
ENDBRANCH 8 11
ENDBRANCH 6 7
BRANCH 6 31
ATOM     31  CB  LYS B 688     -21.439   7.299  27.972  1.00 31.14 LIG 0.04  C 
BRANCH 31 32
ATOM     32  CG  LYS B 688     -20.568   8.352  28.580  1.00 35.59 LIG 0.00  C 
BRANCH 32 33
ATOM     33  CD  LYS B 688     -19.460   8.795  27.634  1.00 43.16 LIG 0.03  C 
BRANCH 33 34
ATOM     34  CE  LYS B 688     -18.344   9.519  28.404  1.00 45.87 LIG 0.23  C 
BRANCH 34 35
ATOM     35  NZ  LYS B 688     -17.085   8.683  28.515  1.00 48.40 LIG-0.08  N 
ATOM     36 HZ2  LYS B 688     -16.802   8.463  27.701  1.00 48.40 LIG 0.27  HD
ATOM     37 HZ3  LYS B 688     -16.453   9.152  28.931  1.00 48.40 LIG 0.27  HD
ATOM     38 HZ1  LYS B 688     -17.260   7.944  28.979  1.00 48.40 LIG 0.27  HD
ENDBRANCH 34 35
ENDBRANCH 33 34
ENDBRANCH 32 33
ENDBRANCH 31 32
ENDBRANCH 6 31
ENDBRANCH 4 6
ENDBRANCH 1 2
BRANCH 1 39
ATOM     39  C   PHE B 689     -26.129   5.150  26.462  1.00 24.45 LIG 0.24  C 
ATOM     40  N   PHE B 690     -25.524   4.734  25.366  1.00 21.51 LIG-0.35  N 
ATOM     41 H    PHE B 690     -24.786   4.291  25.360  1.00 21.51 LIG 0.16  HD
ATOM     42 O    PHE B 689     -27.106   5.908  26.424  1.00 26.25 LIG-0.27  OA
BRANCH 40 43
ATOM     43  CA  PHE B 690     -26.078   5.005  24.044  1.00 22.61 LIG 0.18  C 
BRANCH 43 44
ATOM     44  C   PHE B 690     -25.302   4.201  23.032  1.00 22.66 LIG 0.24  C 
ATOM     45 O    PHE B 690     -25.647   3.076  22.755  1.00 22.36 LIG-0.27  OA
ATOM     46  N   GLU B 691     -24.250   4.808  22.492  1.00 25.08 LIG-0.35  N 
ATOM     47 H    GLU B 691     -24.018   5.613  22.686  1.00 25.08 LIG 0.16  HD
BRANCH 46 48
ATOM     48  CA  GLU B 691     -23.383   4.165  21.511  1.00 27.99 LIG 0.18  C 
BRANCH 48 49
ATOM     49  CB  GLU B 691     -23.065   2.738  21.958  1.00 28.84 LIG 0.04  C 
BRANCH 49 50
ATOM     50  CG  GLU B 691     -21.603   2.576  22.386  1.00 33.53 LIG 0.12  C 
BRANCH 50 51
ATOM     51  CD  GLU B 691     -20.985   3.867  22.940  1.00 40.22 LIG 0.17  C 
ATOM     52 OE1  GLU B 691     -20.190   4.527  22.223  1.00 42.38 LIG-0.65  OA
ATOM     53 OE2  GLU B 691     -21.302   4.216  24.108  1.00 45.19 LIG-0.65  OA
ENDBRANCH 50 51
ENDBRANCH 49 50
ENDBRANCH 48 49
BRANCH 48 54
ATOM     54  C   GLU B 691     -23.961   4.157  20.102  1.00 29.69 LIG 0.24  C 
ATOM     55 O    GLU B 691     -23.256   4.470  19.125  1.00 29.49 LIG-0.27  OA
ATOM     56  N   GLN B 692     -25.237   3.812  19.993  1.00 30.92 LIG-0.34  N 
ATOM     57 H    GLN B 692     -25.734   3.551  20.645  1.00 30.92 LIG 0.16  HD
BRANCH 56 58
ATOM     58  CA  GLN B 692     -25.896   3.864  18.686  1.00 33.57 LIG 0.19  C 
BRANCH 58 59
ATOM     59  C   GLN B 692     -27.379   3.560  18.807  1.00 34.50 LIG 0.20  C 
ATOM     60 O    GLN B 692     -28.143   3.817  17.860  1.00 34.98 LIG-0.65  OA
ATOM     61 OXT  GLN B 692     -27.818   3.027  19.845  1.00 35.71 LIG-0.65  OA
ENDBRANCH 58 59
BRANCH 58 62
ATOM     62  CB  GLN B 692     -25.222   2.870  17.718  1.00 33.00 LIG 0.04  C 
BRANCH 62 63
ATOM     63  CG  GLN B 692     -25.513   1.399  18.029  0.80 34.02 LIG 0.10  C 
BRANCH 63 64
ATOM     64  CD  GLN B 692     -24.265   0.561  18.245  0.80 34.38 LIG 0.21  C 
ATOM     65  NE2 GLN B 692     -23.565   0.814  19.353  0.80 37.28 LIG-0.37  N 
ATOM     66 21HE GLN B 692     -23.821   1.434  19.891  0.80 37.28 LIG 0.16  HD
ATOM     67 22HE GLN B 692     -22.858   0.357  19.529  0.80 37.28 LIG 0.16  HD
ATOM     68 OE1  GLN B 692     -23.942  -0.314  17.442  0.80 37.51 LIG-0.27  OA
ENDBRANCH 63 64
ENDBRANCH 62 63
ENDBRANCH 58 62
ENDBRANCH 56 58
ENDBRANCH 48 54
ENDBRANCH 46 48
ENDBRANCH 43 44
BRANCH 43 69
ATOM     69  CB  PHE B 690     -26.001   6.504  23.701  1.00 21.72 LIG 0.07  C 
BRANCH 69 70
ATOM     70  CG  PHE B 690     -24.958   7.274  24.480  1.00 20.05 LIG-0.06  A 
ATOM     71  CD2 PHE B 690     -25.340   8.265  25.366  1.00 19.86 LIG 0.01  A 
ATOM     72  CE2 PHE B 690     -24.397   9.004  26.103  1.00 20.22 LIG 0.00  A 
ATOM     73  CZ  PHE B 690     -23.043   8.762  25.880  1.00 19.78 LIG 0.00  A 
ATOM     74  CE1 PHE B 690     -22.656   7.791  25.004  1.00 19.59 LIG 0.00  A 
ATOM     75  CD1 PHE B 690     -23.610   7.054  24.269  1.00 20.29 LIG 0.01  A 
ENDBRANCH 69 70
ENDBRANCH 43 69
ENDBRANCH 40 43
ENDBRANCH 1 39
BRANCH 1 76
ATOM     76  CB  PHE B 689     -26.704   4.277  28.731  1.00 23.35 LIG 0.07  C 
BRANCH 76 77
ATOM     77  CG  PHE B 689     -26.395   3.086  29.548  1.00 24.01 LIG-0.06  A 
ATOM     78  CD2 PHE B 689     -25.390   2.197  29.163  1.00 25.22 LIG 0.01  A 
ATOM     79  CE2 PHE B 689     -25.066   1.087  29.959  1.00 25.32 LIG 0.00  A 
ATOM     80  CZ  PHE B 689     -25.798   0.833  31.130  1.00 27.81 LIG 0.00  A 
ATOM     81  CE1 PHE B 689     -26.814   1.708  31.519  1.00 24.81 LIG 0.00  A 
ATOM     82  CD1 PHE B 689     -27.101   2.841  30.734  1.00 27.61 LIG 0.01  A 
ENDBRANCH 76 77
ENDBRANCH 1 76
TORSDOF 33
ENDMDL
MODEL 2
USER: ADFR SOLUTION from run 147
USER: SCORE 23.480471 LL:  -5.424 LR: -19.626 RR:   0.000 FEB:  -9.782
USER: RMSD 3.397026
USER: SEED 146
USER: STATUS 1 or 2 clusters left
USER: GENES 35
USER: genes 0 Translation |==|  0.57105 0.41413 0.54561
USER: genes 1 Rotation |==|  0.54777 0.45947 0.45905 0.99437
USER: genes 2 Torsion [C]-CA--N-[C] |==|  0.68114
USER: genes 3 Torsion [N]-C--CA-[N] |==|  0.39512
USER: genes 4 Torsion [C]-CA--N-[C] |==|  0.82122
USER: genes 5 Torsion [N]-C--CA-[N] |==|  0.07222
USER: genes 6 Torsion [C]-CA--N-[C] |==|  0.68542
USER: genes 7 Torsion [N]-C--CA-[N] |==|  0.46004
USER: genes 8 Torsion [C]-CA--CB-[CG2] |==|  0.90438
USER: genes 9 Torsion [CA]-CB--OG1-[HG1] |==|  0.15602
USER: genes 10 Torsion [C]-CA--CB-[CG] |==|  0.45864
USER: genes 11 Torsion [CA]-CB--CG-[CD1] |==|  0.04323
USER: genes 12 Torsion [CE2]-CZ--OH-[HH] |==|  0.20983
USER: genes 13 Torsion [C]-CA--CB-[CG] |==|  0.18186
USER: genes 14 Torsion [CA]-CB--CG-[CD] |==|  0.63144
USER: genes 15 Torsion [CB]-CG--CD-[CE] |==|  0.76277
USER: genes 16 Torsion [CG]-CD--CE-[NZ] |==|  0.38304
USER: genes 17 Torsion [CD]-CE--NZ-[HZ2] |==|  0.20146
USER: genes 18 Torsion [N]-CA--C-[N] |==|  0.40588
USER: genes 19 Torsion [C]-N--CA-[CB] |==|  0.35594
USER: genes 20 Torsion [N]-CA--C-[N] |==|  0.90144
USER: genes 21 Torsion [C]-N--CA-[CB] |==|  0.81939
USER: genes 22 Torsion [N]-CA--CB-[CG] |==|  0.34526
USER: genes 23 Torsion [CA]-CB--CG-[CD] |==|  0.41058
USER: genes 24 Torsion [CB]-CG--CD-[OE2] |==|  0.82005
USER: genes 25 Torsion [N]-CA--C-[N] |==|  0.41779
USER: genes 26 Torsion [C]-N--CA-[C] |==|  0.69789
USER: genes 27 Torsion [N]-CA--C-[OXT] |==|  0.30177
USER: genes 28 Torsion [N]-CA--CB-[CG] |==|  0.68381
USER: genes 29 Torsion [CA]-CB--CG-[CD] |==|  0.43890
USER: genes 30 Torsion [CB]-CG--CD-[OE1] |==|  0.97940
USER: genes 31 Torsion [N]-CA--CB-[CG] |==|  0.17997
USER: genes 32 Torsion [CA]-CB--CG-[CD2] |==|  0.22417
USER: genes 33 Torsion [N]-CA--CB-[CG] |==|  0.78712
USER: genes 34 Torsion [CA]-CB--CG-[CD1] |==|  0.25052
ROOT
ATOM      1  CA  PHE B 689     -23.306   5.136  27.772  1.00 23.75 LIG 0.18  C 
ENDROOT
BRANCH 1 2
ATOM      2  N   PHE B 689     -22.740   5.786  28.969  1.00 25.36 LIG-0.35  N 
ATOM      3 H    PHE B 689     -23.135   6.519  29.187  1.00 25.36 LIG 0.16  HD
ATOM      4  C   LYS B 688     -21.714   5.280  29.646  1.00 27.14 LIG 0.24  C 
ATOM      5 O    LYS B 688     -21.134   4.254  29.316  1.00 24.82 LIG-0.27  OA
BRANCH 4 6
ATOM      6  CA  LYS B 688     -21.249   6.058  30.872  1.00 29.11 LIG 0.18  C 
BRANCH 6 7
ATOM      7  N   LYS B 688     -20.855   5.124  31.937  1.00 31.24 LIG-0.35  N 
ATOM      8  C   TYR B 687     -21.734   4.306  32.513  1.00 34.73 LIG 0.24  C 
ATOM      9 O    TYR B 687     -22.938   4.288  32.214  1.00 34.89 LIG-0.27  OA
ATOM     10 H    LYS B 688     -20.022   5.157  32.147  1.00 31.24 LIG 0.16  HD
BRANCH 8 11
ATOM     11  CA  TYR B 687     -21.188   3.351  33.563  1.00 37.40 LIG 0.18  C 
BRANCH 11 12
ATOM     12  N   TYR B 687     -19.976   3.836  34.214  1.00 39.68 LIG-0.34  N 
ATOM     13 H    TYR B 687     -20.091   4.534  34.702  1.00 39.68 LIG 0.16  HD
ATOM     14  C   THR B 686     -18.803   3.227  34.048  1.00 41.22 LIG 0.26  C 
ATOM     15 O    THR B 686     -18.604   2.360  33.193  1.00 41.89 LIG-0.27  OA
BRANCH 14 16
ATOM     16  CA  THR B 686     -17.676   3.652  34.994  1.00 42.81 LIG 0.43  C 
ATOM     17  N   THR B 686     -16.518   2.698  34.974  1.00 43.04 LIG 0.62  N 
BRANCH 16 18
ATOM     18  CB  THR B 686     -17.275   5.102  34.580  1.00 43.12 LIG 0.16  C 
ATOM     19  CG2 THR B 686     -17.404   5.303  33.043  1.00 43.85 LIG 0.04  C 
BRANCH 18 20
ATOM     20 OG1  THR B 686     -18.067   6.066  35.281  1.00 44.58 LIG-0.39  OA
ATOM     21 HG1  THR B 686     -17.991   5.944  36.108  1.00 44.58 LIG 0.21  HD
ENDBRANCH 18 20
ENDBRANCH 16 18
ENDBRANCH 14 16
ENDBRANCH 11 12
BRANCH 11 22
ATOM     22  CB  TYR B 687     -22.259   3.106  34.615  1.00 38.54 LIG 0.07  C 
BRANCH 22 23
ATOM     23  CG  TYR B 687     -22.004   1.929  35.516  1.00 40.36 LIG-0.06  A 
ATOM     24  CD2 TYR B 687     -23.037   1.384  36.287  1.00 43.44 LIG 0.01  A 
ATOM     25  CE2 TYR B 687     -22.811   0.282  37.116  1.00 43.74 LIG 0.04  A 
ATOM     26  CZ  TYR B 687     -21.536  -0.273  37.166  1.00 42.51 LIG 0.07  A 
ATOM     27  CE1 TYR B 687     -20.499   0.257  36.404  1.00 41.41 LIG 0.04  A 
ATOM     28  CD1 TYR B 687     -20.740   1.347  35.590  1.00 40.86 LIG 0.01  A 
BRANCH 26 29
ATOM     29 OH   TYR B 687     -21.316  -1.359  37.978  1.00 42.23 LIG-0.36  OA
ATOM     30 HH   TYR B 687     -21.642  -2.046  37.622  1.00 42.23 LIG 0.22  HD
ENDBRANCH 26 29
ENDBRANCH 22 23
ENDBRANCH 11 22
ENDBRANCH 8 11
ENDBRANCH 6 7
BRANCH 6 31
ATOM     31  CB  LYS B 688     -20.059   6.935  30.508  1.00 31.14 LIG 0.04  C 
BRANCH 31 32
ATOM     32  CG  LYS B 688     -20.362   8.029  29.534  1.00 35.59 LIG 0.00  C 
BRANCH 32 33
ATOM     33  CD  LYS B 688     -19.337   8.096  28.411  1.00 43.16 LIG 0.03  C 
BRANCH 33 34
ATOM     34  CE  LYS B 688     -18.122   8.940  28.831  1.00 45.87 LIG 0.23  C 
BRANCH 34 35
ATOM     35  NZ  LYS B 688     -16.810   8.318  28.398  1.00 48.40 LIG-0.08  N 
ATOM     36 HZ2  LYS B 688     -16.717   8.404  27.517  1.00 48.40 LIG 0.27  HD
ATOM     37 HZ3  LYS B 688     -16.137   8.730  28.808  1.00 48.40 LIG 0.27  HD
ATOM     38 HZ1  LYS B 688     -16.805   7.455  28.613  1.00 48.40 LIG 0.27  HD
ENDBRANCH 34 35
ENDBRANCH 33 34
ENDBRANCH 32 33
ENDBRANCH 31 32
ENDBRANCH 6 31
ENDBRANCH 4 6
ENDBRANCH 1 2
BRANCH 1 39
ATOM     39  C   PHE B 689     -23.105   5.983  26.525  1.00 24.45 LIG 0.24  C 
ATOM     40  N   PHE B 690     -22.906   5.338  25.392  1.00 21.51 LIG-0.35  N 
ATOM     41 H    PHE B 690     -22.795   4.487  25.333  1.00 21.51 LIG 0.16  HD
ATOM     42 O    PHE B 689     -23.115   7.219  26.583  1.00 26.25 LIG-0.27  OA
BRANCH 40 43
ATOM     43  CA  PHE B 690     -22.860   6.044  24.116  1.00 22.61 LIG 0.18  C 
BRANCH 43 44
ATOM     44  C   PHE B 690     -24.087   5.669  23.323  1.00 22.66 LIG 0.24  C 
ATOM     45 O    PHE B 690     -24.626   6.486  22.614  1.00 22.36 LIG-0.27  OA
ATOM     46  N   GLU B 691     -24.509   4.417  23.464  1.00 25.08 LIG-0.35  N 
ATOM     47 H    GLU B 691     -24.114   3.838  23.962  1.00 25.08 LIG 0.16  HD
BRANCH 46 48
ATOM     48  CA  GLU B 691     -25.690   3.898  22.783  1.00 27.99 LIG 0.18  C 
BRANCH 48 49
ATOM     49  CB  GLU B 691     -26.939   4.620  23.291  1.00 28.84 LIG 0.04  C 
BRANCH 49 50
ATOM     50  CG  GLU B 691     -27.738   5.266  22.155  1.00 33.53 LIG 0.12  C 
BRANCH 50 51
ATOM     51  CD  GLU B 691     -29.250   5.293  22.415  1.00 40.22 LIG 0.17  C 
ATOM     52 OE1  GLU B 691     -29.833   6.399  22.552  1.00 42.38 LIG-0.65  OA
ATOM     53 OE2  GLU B 691     -29.854   4.190  22.486  1.00 45.19 LIG-0.65  OA
ENDBRANCH 50 51
ENDBRANCH 49 50
ENDBRANCH 48 49
BRANCH 48 54
ATOM     54  C   GLU B 691     -25.608   3.996  21.266  1.00 29.69 LIG 0.24  C 
ATOM     55 O    GLU B 691     -24.958   4.909  20.722  1.00 29.49 LIG-0.27  OA
ATOM     56  N   GLN B 692     -26.268   3.071  20.581  1.00 30.92 LIG-0.34  N 
ATOM     57 H    GLN B 692     -26.688   2.407  20.931  1.00 30.92 LIG 0.16  HD
BRANCH 56 58
ATOM     58  CA  GLN B 692     -26.315   3.142  19.120  1.00 33.57 LIG 0.19  C 
BRANCH 58 59
ATOM     59  C   GLN B 692     -27.699   3.533  18.633  1.00 34.50 LIG 0.20  C 
ATOM     60 O    GLN B 692     -28.644   2.733  18.747  1.00 34.98 LIG-0.65  OA
ATOM     61 OXT  GLN B 692     -27.887   4.666  18.147  1.00 35.71 LIG-0.65  OA
ENDBRANCH 58 59
BRANCH 58 62
ATOM     62  CB  GLN B 692     -25.895   1.787  18.513  1.00 33.00 LIG 0.04  C 
BRANCH 62 63
ATOM     63  CG  GLN B 692     -24.582   1.834  17.728  0.80 34.02 LIG 0.10  C 
BRANCH 63 64
ATOM     64  CD  GLN B 692     -23.903   0.482  17.589  0.80 34.38 LIG 0.21  C 
ATOM     65  NE2 GLN B 692     -22.824   0.438  16.804  0.80 37.28 LIG-0.37  N 
ATOM     66 21HE GLN B 692     -22.558   1.148  16.400  0.80 37.28 LIG 0.16  HD
ATOM     67 22HE GLN B 692     -22.395  -0.301  16.704  0.80 37.28 LIG 0.16  HD
ATOM     68 OE1  GLN B 692     -24.327  -0.504  18.191  0.80 37.51 LIG-0.27  OA
ENDBRANCH 63 64
ENDBRANCH 62 63
ENDBRANCH 58 62
ENDBRANCH 56 58
ENDBRANCH 48 54
ENDBRANCH 46 48
ENDBRANCH 43 44
BRANCH 43 69
ATOM     69  CB  PHE B 690     -21.589   5.685  23.323  1.00 21.72 LIG 0.07  C 
BRANCH 69 70
ATOM     70  CG  PHE B 690     -21.506   4.238  22.889  1.00 20.05 LIG-0.06  A 
ATOM     71  CD2 PHE B 690     -22.189   3.806  21.767  1.00 19.86 LIG 0.01  A 
ATOM     72  CE2 PHE B 690     -22.138   2.468  21.338  1.00 20.22 LIG 0.00  A 
ATOM     73  CZ  PHE B 690     -21.425   1.551  22.107  1.00 19.78 LIG 0.00  A 
ATOM     74  CE1 PHE B 690     -20.753   1.966  23.219  1.00 19.59 LIG 0.00  A 
ATOM     75  CD1 PHE B 690     -20.809   3.312  23.642  1.00 20.29 LIG 0.01  A 
ENDBRANCH 69 70
ENDBRANCH 43 69
ENDBRANCH 40 43
ENDBRANCH 1 39
BRANCH 1 76
ATOM     76  CB  PHE B 689     -24.798   4.820  27.948  1.00 23.35 LIG 0.07  C 
BRANCH 76 77
ATOM     77  CG  PHE B 689     -25.040   3.639  28.800  1.00 24.01 LIG-0.06  A 
ATOM     78  CD2 PHE B 689     -25.101   2.358  28.247  1.00 25.22 LIG 0.01  A 
ATOM     79  CE2 PHE B 689     -25.290   1.230  29.060  1.00 25.32 LIG 0.00  A 
ATOM     80  CZ  PHE B 689     -25.475   1.391  30.443  1.00 27.81 LIG 0.00  A 
ATOM     81  CE1 PHE B 689     -25.426   2.667  31.006  1.00 24.81 LIG 0.00  A 
ATOM     82  CD1 PHE B 689     -25.196   3.787  30.186  1.00 27.61 LIG 0.01  A 
ENDBRANCH 76 77
ENDBRANCH 1 76
TORSDOF 33
ENDMDL
MODEL 3
USER: ADFR SOLUTION from run 22
USER: SCORE 20.074497 LL:  -5.579 LR: -19.475 RR:   0.000 FEB:  -9.631
USER: RMSD 6.595454
USER: SEED 21
USER: STATUS no improvement in best in 13 clusters for 5 generations
USER: GENES 35
USER: genes 0 Translation |==|  0.61822 0.47641 0.61463
USER: genes 1 Rotation |==|  0.29763 0.45366 0.06310 0.62657
USER: genes 2 Torsion [C]-CA--N-[C] |==|  0.65560
USER: genes 3 Torsion [N]-C--CA-[N] |==|  0.60007
USER: genes 4 Torsion [C]-CA--N-[C] |==|  0.14889
USER: genes 5 Torsion [N]-C--CA-[N] |==|  0.59429
USER: genes 6 Torsion [C]-CA--N-[C] |==|  0.59961
USER: genes 7 Torsion [N]-C--CA-[N] |==|  0.34237
USER: genes 8 Torsion [C]-CA--CB-[CG2] |==|  0.15906
USER: genes 9 Torsion [CA]-CB--OG1-[HG1] |==|  0.17461
USER: genes 10 Torsion [C]-CA--CB-[CG] |==|  0.67638
USER: genes 11 Torsion [CA]-CB--CG-[CD1] |==|  0.72605
USER: genes 12 Torsion [CE2]-CZ--OH-[HH] |==|  0.75869
USER: genes 13 Torsion [C]-CA--CB-[CG] |==|  0.42086
USER: genes 14 Torsion [CA]-CB--CG-[CD] |==|  0.23233
USER: genes 15 Torsion [CB]-CG--CD-[CE] |==|  0.71293
USER: genes 16 Torsion [CG]-CD--CE-[NZ] |==|  0.56730
USER: genes 17 Torsion [CD]-CE--NZ-[HZ2] |==|  0.04685
USER: genes 18 Torsion [N]-CA--C-[N] |==|  0.42931
USER: genes 19 Torsion [C]-N--CA-[CB] |==|  0.32690
USER: genes 20 Torsion [N]-CA--C-[N] |==|  0.42406
USER: genes 21 Torsion [C]-N--CA-[CB] |==|  0.37148
USER: genes 22 Torsion [N]-CA--CB-[CG] |==|  0.76395
USER: genes 23 Torsion [CA]-CB--CG-[CD] |==|  0.42899
USER: genes 24 Torsion [CB]-CG--CD-[OE2] |==|  0.35063
USER: genes 25 Torsion [N]-CA--C-[N] |==|  0.69315
USER: genes 26 Torsion [C]-N--CA-[C] |==|  0.78909
USER: genes 27 Torsion [N]-CA--C-[OXT] |==|  0.41371
USER: genes 28 Torsion [N]-CA--CB-[CG] |==|  0.18870
USER: genes 29 Torsion [CA]-CB--CG-[CD] |==|  0.41330
USER: genes 30 Torsion [CB]-CG--CD-[OE1] |==|  0.20746
USER: genes 31 Torsion [N]-CA--CB-[CG] |==|  0.79653
USER: genes 32 Torsion [CA]-CB--CG-[CD2] |==|  0.42841
USER: genes 33 Torsion [N]-CA--CB-[CG] |==|  0.92306
USER: genes 34 Torsion [CA]-CB--CG-[CD1] |==|  0.31636
ROOT
ATOM      1  CA  PHE B 689     -22.386   6.350  30.050  1.00 23.75 LIG 0.18  C 
ENDROOT
BRANCH 1 2
ATOM      2  N   PHE B 689     -21.598   5.657  31.087  1.00 25.36 LIG-0.35  N 
ATOM      3 H    PHE B 689     -20.945   5.192  30.776  1.00 25.36 LIG 0.16  HD
ATOM      4  C   LYS B 688     -21.878   5.749  32.383  1.00 27.14 LIG 0.24  C 
ATOM      5 O    LYS B 688     -22.826   6.387  32.821  1.00 24.82 LIG-0.27  OA
BRANCH 4 6
ATOM      6  CA  LYS B 688     -20.965   4.989  33.339  1.00 29.11 LIG 0.18  C 
BRANCH 6 7
ATOM      7  N   LYS B 688     -21.749   4.455  34.462  1.00 31.24 LIG-0.35  N 
ATOM      8  C   TYR B 687     -22.829   3.700  34.267  1.00 34.73 LIG 0.24  C 
ATOM      9 O    TYR B 687     -23.261   3.416  33.139  1.00 34.89 LIG-0.27  OA
ATOM     10 H    LYS B 688     -21.450   4.672  35.238  1.00 31.24 LIG 0.16  HD
BRANCH 8 11
ATOM     11  CA  TYR B 687     -23.519   3.165  35.512  1.00 37.40 LIG 0.18  C 
BRANCH 11 12
ATOM     12  N   TYR B 687     -24.106   1.843  35.327  1.00 39.68 LIG-0.34  N 
ATOM     13 H    TYR B 687     -23.652   1.321  34.815  1.00 39.68 LIG 0.16  HD
ATOM     14  C   THR B 686     -25.252   1.498  35.913  1.00 41.22 LIG 0.26  C 
ATOM     15 O    THR B 686     -25.997   2.307  36.472  1.00 41.89 LIG-0.27  OA
BRANCH 14 16
ATOM     16  CA  THR B 686     -25.616   0.012  35.873  1.00 42.81 LIG 0.43  C 
ATOM     17  N   THR B 686     -25.831  -0.565  37.242  1.00 43.04 LIG 0.62  N 
BRANCH 16 18
ATOM     18  CB  THR B 686     -26.875  -0.111  34.959  1.00 43.12 LIG 0.16  C 
ATOM     19  CG2 THR B 686     -26.598   0.470  33.543  1.00 43.85 LIG 0.04  C 
BRANCH 18 20
ATOM     20 OG1  THR B 686     -27.303  -1.473  34.867  1.00 44.58 LIG-0.39  OA
ATOM     21 HG1  THR B 686     -27.533  -1.747  35.627  1.00 44.58 LIG 0.21  HD
ENDBRANCH 18 20
ENDBRANCH 16 18
ENDBRANCH 14 16
ENDBRANCH 11 12
BRANCH 11 22
ATOM     22  CB  TYR B 687     -22.513   3.112  36.652  1.00 38.54 LIG 0.07  C 
BRANCH 22 23
ATOM     23  CG  TYR B 687     -22.222   1.731  37.175  1.00 40.36 LIG-0.06  A 
ATOM     24  CD2 TYR B 687     -21.301   0.903  36.525  1.00 43.44 LIG 0.01  A 
ATOM     25  CE2 TYR B 687     -21.015  -0.375  37.013  1.00 43.74 LIG 0.04  A 
ATOM     26  CZ  TYR B 687     -21.661  -0.817  38.162  1.00 42.51 LIG 0.07  A 
ATOM     27  CE1 TYR B 687     -22.579  -0.005  38.821  1.00 41.41 LIG 0.04  A 
ATOM     28  CD1 TYR B 687     -22.850   1.257  38.325  1.00 40.86 LIG 0.01  A 
BRANCH 26 29
ATOM     29 OH   TYR B 687     -21.376  -2.073  38.643  1.00 42.23 LIG-0.36  OA
ATOM     30 HH   TYR B 687     -21.872  -2.637  38.266  1.00 42.23 LIG 0.22  HD
ENDBRANCH 26 29
ENDBRANCH 22 23
ENDBRANCH 11 22
ENDBRANCH 8 11
ENDBRANCH 6 7
BRANCH 6 31
ATOM     31  CB  LYS B 688     -20.291   3.838  32.605  1.00 31.14 LIG 0.04  C 
BRANCH 31 32
ATOM     32  CG  LYS B 688     -18.952   3.448  33.147  1.00 35.59 LIG 0.00  C 
BRANCH 32 33
ATOM     33  CD  LYS B 688     -19.070   2.496  34.330  1.00 43.16 LIG 0.03  C 
BRANCH 33 34
ATOM     34  CE  LYS B 688     -18.817   3.238  35.653  1.00 45.87 LIG 0.23  C 
BRANCH 34 35
ATOM     35  NZ  LYS B 688     -18.346   2.310  36.754  1.00 48.40 LIG-0.08  N 
ATOM     36 HZ2  LYS B 688     -18.063   1.546  36.397  1.00 48.40 LIG 0.27  HD
ATOM     37 HZ3  LYS B 688     -17.679   2.693  37.200  1.00 48.40 LIG 0.27  HD
ATOM     38 HZ1  LYS B 688     -19.020   2.145  37.311  1.00 48.40 LIG 0.27  HD
ENDBRANCH 34 35
ENDBRANCH 33 34
ENDBRANCH 32 33
ENDBRANCH 31 32
ENDBRANCH 6 31
ENDBRANCH 4 6
ENDBRANCH 1 2
BRANCH 1 39
ATOM     39  C   PHE B 689     -22.921   5.378  29.009  1.00 24.45 LIG 0.24  C 
ATOM     40  N   PHE B 690     -24.013   5.740  28.362  1.00 21.51 LIG-0.35  N 
ATOM     41 H    PHE B 690     -24.480   6.437  28.554  1.00 21.51 LIG 0.16  HD
ATOM     42 O    PHE B 689     -22.363   4.295  28.798  1.00 26.25 LIG-0.27  OA
BRANCH 40 43
ATOM     43  CA  PHE B 690     -24.521   4.961  27.239  1.00 22.61 LIG 0.18  C 
BRANCH 43 44
ATOM     44  C   PHE B 690     -24.568   5.854  26.026  1.00 22.66 LIG 0.24  C 
ATOM     45 O    PHE B 690     -24.704   7.049  26.155  1.00 22.36 LIG-0.27  OA
ATOM     46  N   GLU B 691     -24.453   5.245  24.850  1.00 25.08 LIG-0.35  N 
ATOM     47 H    GLU B 691     -24.346   4.396  24.767  1.00 25.08 LIG 0.16  HD
BRANCH 46 48
ATOM     48  CA  GLU B 691     -24.497   5.961  23.580  1.00 27.99 LIG 0.18  C 
BRANCH 48 49
ATOM     49  CB  GLU B 691     -23.359   5.483  22.677  1.00 28.84 LIG 0.04  C 
BRANCH 49 50
ATOM     50  CG  GLU B 691     -22.046   6.222  22.956  1.00 33.53 LIG 0.12  C 
BRANCH 50 51
ATOM     51  CD  GLU B 691     -20.800   5.413  22.573  1.00 40.22 LIG 0.17  C 
ATOM     52 OE1  GLU B 691     -20.651   4.253  23.035  1.00 42.38 LIG-0.65  OA
ATOM     53 OE2  GLU B 691     -19.963   5.954  21.803  1.00 45.19 LIG-0.65  OA
ENDBRANCH 50 51
ENDBRANCH 49 50
ENDBRANCH 48 49
BRANCH 48 54
ATOM     54  C   GLU B 691     -25.830   5.833  22.856  1.00 29.69 LIG 0.24  C 
ATOM     55 O    GLU B 691     -26.854   6.377  23.311  1.00 29.49 LIG-0.27  OA
ATOM     56  N   GLN B 692     -25.827   5.112  21.743  1.00 30.92 LIG-0.34  N 
ATOM     57 H    GLN B 692     -25.127   4.763  21.385  1.00 30.92 LIG 0.16  HD
BRANCH 56 58
ATOM     58  CA  GLN B 692     -27.083   4.865  21.033  1.00 33.57 LIG 0.19  C 
BRANCH 58 59
ATOM     59  C   GLN B 692     -27.917   3.813  21.742  1.00 34.50 LIG 0.20  C 
ATOM     60 O    GLN B 692     -27.359   2.922  22.404  1.00 34.98 LIG-0.65  OA
ATOM     61 OXT  GLN B 692     -29.162   3.867  21.681  1.00 35.71 LIG-0.65  OA
ENDBRANCH 58 59
BRANCH 58 62
ATOM     62  CB  GLN B 692     -26.791   4.429  19.582  1.00 33.00 LIG 0.04  C 
BRANCH 62 63
ATOM     63  CG  GLN B 692     -26.127   3.054  19.465  0.80 34.02 LIG 0.10  C 
BRANCH 63 64
ATOM     64  CD  GLN B 692     -26.494   2.303  18.197  0.80 34.38 LIG 0.21  C 
ATOM     65  NE2 GLN B 692     -27.369   1.303  18.332  0.80 37.28 LIG-0.37  N 
ATOM     66 21HE GLN B 692     -27.681   1.107  19.109  0.80 37.28 LIG 0.16  HD
ATOM     67 22HE GLN B 692     -27.621   0.856  17.642  0.80 37.28 LIG 0.16  HD
ATOM     68 OE1  GLN B 692     -26.018   2.625  17.109  0.80 37.51 LIG-0.27  OA
ENDBRANCH 63 64
ENDBRANCH 62 63
ENDBRANCH 58 62
ENDBRANCH 56 58
ENDBRANCH 48 54
ENDBRANCH 46 48
ENDBRANCH 43 44
BRANCH 43 69
ATOM     69  CB  PHE B 690     -25.924   4.400  27.537  1.00 21.72 LIG 0.07  C 
BRANCH 69 70
ATOM     70  CG  PHE B 690     -25.947   3.254  28.525  1.00 20.05 LIG-0.06  A 
ATOM     71  CD2 PHE B 690     -27.079   3.005  29.278  1.00 19.86 LIG 0.01  A 
ATOM     72  CE2 PHE B 690     -27.133   1.953  30.210  1.00 20.22 LIG 0.00  A 
ATOM     73  CZ  PHE B 690     -25.988   1.185  30.410  1.00 19.78 LIG 0.00  A 
ATOM     74  CE1 PHE B 690     -24.864   1.427  29.675  1.00 19.59 LIG 0.00  A 
ATOM     75  CD1 PHE B 690     -24.820   2.485  28.743  1.00 20.29 LIG 0.01  A 
ENDBRANCH 69 70
ENDBRANCH 43 69
ENDBRANCH 40 43
ENDBRANCH 1 39
BRANCH 1 76
ATOM     76  CB  PHE B 689     -21.570   7.451  29.356  1.00 23.35 LIG 0.07  C 
BRANCH 76 77
ATOM     77  CG  PHE B 689     -20.516   8.017  30.221  1.00 24.01 LIG-0.06  A 
ATOM     78  CD2 PHE B 689     -20.846   8.734  31.373  1.00 25.22 LIG 0.01  A 
ATOM     79  CE2 PHE B 689     -19.846   9.238  32.219  1.00 25.32 LIG 0.00  A 
ATOM     80  CZ  PHE B 689     -18.494   9.070  31.877  1.00 27.81 LIG 0.00  A 
ATOM     81  CE1 PHE B 689     -18.152   8.366  30.721  1.00 24.81 LIG 0.00  A 
ATOM     82  CD1 PHE B 689     -19.163   7.829  29.902  1.00 27.61 LIG 0.01  A 
ENDBRANCH 76 77
ENDBRANCH 1 76
TORSDOF 33
ENDMDL
MODEL 4
USER: ADFR SOLUTION from run 104
USER: SCORE 24.866092 LL:  -7.055 LR: -19.469 RR:   0.000 FEB:  -9.625
USER: RMSD 7.007487
USER: SEED 103
USER: STATUS searching
USER: GENES 35
USER: genes 0 Translation |==|  0.59718 0.46260 0.44654
USER: genes 1 Rotation |==|  0.76148 0.51373 0.90212 0.64050
USER: genes 2 Torsion [C]-CA--N-[C] |==|  0.76189
USER: genes 3 Torsion [N]-C--CA-[N] |==|  0.39485
USER: genes 4 Torsion [C]-CA--N-[C] |==|  0.64634
USER: genes 5 Torsion [N]-C--CA-[N] |==|  0.52778
USER: genes 6 Torsion [C]-CA--N-[C] |==|  0.61498
USER: genes 7 Torsion [N]-C--CA-[N] |==|  0.77781
USER: genes 8 Torsion [C]-CA--CB-[CG2] |==|  0.38613
USER: genes 9 Torsion [CA]-CB--OG1-[HG1] |==|  0.31200
USER: genes 10 Torsion [C]-CA--CB-[CG] |==|  0.83355
USER: genes 11 Torsion [CA]-CB--CG-[CD1] |==|  0.29838
USER: genes 12 Torsion [CE2]-CZ--OH-[HH] |==|  0.88833
USER: genes 13 Torsion [C]-CA--CB-[CG] |==|  0.50187
USER: genes 14 Torsion [CA]-CB--CG-[CD] |==|  0.60345
USER: genes 15 Torsion [CB]-CG--CD-[CE] |==|  0.85355
USER: genes 16 Torsion [CG]-CD--CE-[NZ] |==|  0.47029
USER: genes 17 Torsion [CD]-CE--NZ-[HZ2] |==|  0.48854
USER: genes 18 Torsion [N]-CA--C-[N] |==|  0.94592
USER: genes 19 Torsion [C]-N--CA-[CB] |==|  0.87655
USER: genes 20 Torsion [N]-CA--C-[N] |==|  0.78541
USER: genes 21 Torsion [C]-N--CA-[CB] |==|  0.86106
USER: genes 22 Torsion [N]-CA--CB-[CG] |==|  0.55074
USER: genes 23 Torsion [CA]-CB--CG-[CD] |==|  0.27536
USER: genes 24 Torsion [CB]-CG--CD-[OE2] |==|  0.39598
USER: genes 25 Torsion [N]-CA--C-[N] |==|  0.88585
USER: genes 26 Torsion [C]-N--CA-[C] |==|  0.67370
USER: genes 27 Torsion [N]-CA--C-[OXT] |==|  0.93435
USER: genes 28 Torsion [N]-CA--CB-[CG] |==|  0.37600
USER: genes 29 Torsion [CA]-CB--CG-[CD] |==|  0.64254
USER: genes 30 Torsion [CB]-CG--CD-[OE1] |==|  0.77197
USER: genes 31 Torsion [N]-CA--CB-[CG] |==|  0.86150
USER: genes 32 Torsion [CA]-CB--CG-[CD2] |==|  0.36419
USER: genes 33 Torsion [N]-CA--CB-[CG] |==|  0.16517
USER: genes 34 Torsion [CA]-CB--CG-[CD1] |==|  0.71436
ROOT
ATOM      1  CA  PHE B 689     -22.796   6.081  24.503  1.00 23.75 LIG 0.18  C 
ENDROOT
BRANCH 1 2
ATOM      2  N   PHE B 689     -22.569   5.334  25.755  1.00 25.36 LIG-0.35  N 
ATOM      3 H    PHE B 689     -22.206   4.563  25.639  1.00 25.36 LIG 0.16  HD
ATOM      4  C   LYS B 688     -22.899   5.816  26.949  1.00 27.14 LIG 0.24  C 
ATOM      5 O    LYS B 688     -23.444   6.900  27.107  1.00 24.82 LIG-0.27  OA
BRANCH 4 6
ATOM      6  CA  LYS B 688     -22.590   4.935  28.154  1.00 29.11 LIG 0.18  C 
BRANCH 6 7
ATOM      7  N   LYS B 688     -22.138   5.766  29.279  1.00 31.24 LIG-0.35  N 
ATOM      8  C   TYR B 687     -21.000   5.516  29.923  1.00 34.73 LIG 0.24  C 
ATOM      9 O    TYR B 687     -20.257   4.563  29.640  1.00 34.89 LIG-0.27  OA
ATOM     10 H    LYS B 688     -22.668   6.414  29.477  1.00 31.24 LIG 0.16  HD
BRANCH 8 11
ATOM     11  CA  TYR B 687     -20.619   6.484  31.033  1.00 37.40 LIG 0.18  C 
BRANCH 11 12
ATOM     12  N   TYR B 687     -19.263   6.287  31.534  1.00 39.68 LIG-0.34  N 
ATOM     13 H    TYR B 687     -18.678   6.132  30.923  1.00 39.68 LIG 0.16  HD
ATOM     14  C   THR B 686     -18.983   6.348  32.835  1.00 41.22 LIG 0.26  C 
ATOM     15 O    THR B 686     -19.847   6.364  33.714  1.00 41.89 LIG-0.27  OA
BRANCH 14 16
ATOM     16  CA  THR B 686     -17.499   6.408  33.209  1.00 42.81 LIG 0.43  C 
ATOM     17  N   THR B 686     -16.842   5.059  33.171  1.00 43.04 LIG 0.62  N 
BRANCH 16 18
ATOM     18  CB  THR B 686     -16.838   7.432  32.236  1.00 43.12 LIG 0.16  C 
ATOM     19  CG2 THR B 686     -15.814   8.335  32.982  1.00 43.85 LIG 0.04  C 
BRANCH 18 20
ATOM     20 OG1  THR B 686     -16.208   6.758  31.142  1.00 44.58 LIG-0.39  OA
ATOM     21 HG1  THR B 686     -16.621   6.930  30.432  1.00 44.58 LIG 0.21  HD
ENDBRANCH 18 20
ENDBRANCH 16 18
ENDBRANCH 14 16
ENDBRANCH 11 12
BRANCH 11 22
ATOM     22  CB  TYR B 687     -20.763   7.909  30.521  1.00 38.54 LIG 0.07  C 
BRANCH 22 23
ATOM     23  CG  TYR B 687     -19.904   8.243  29.331  1.00 40.36 LIG-0.06  A 
ATOM     24  CD2 TYR B 687     -18.519   8.389  29.471  1.00 43.44 LIG 0.01  A 
ATOM     25  CE2 TYR B 687     -17.713   8.685  28.368  1.00 43.74 LIG 0.04  A 
ATOM     26  CZ  TYR B 687     -18.308   8.834  27.120  1.00 42.51 LIG 0.07  A 
ATOM     27  CE1 TYR B 687     -19.684   8.691  26.965  1.00 41.41 LIG 0.04  A 
ATOM     28  CD1 TYR B 687     -20.466   8.398  28.066  1.00 40.86 LIG 0.01  A 
BRANCH 26 29
ATOM     29 OH   TYR B 687     -17.514   9.122  26.036  1.00 42.23 LIG-0.36  OA
ATOM     30 HH   TYR B 687     -16.924   9.676  26.260  1.00 42.23 LIG 0.22  HD
ENDBRANCH 26 29
ENDBRANCH 22 23
ENDBRANCH 11 22
ENDBRANCH 8 11
ENDBRANCH 6 7
BRANCH 6 31
ATOM     31  CB  LYS B 688     -23.838   4.167  28.568  1.00 31.14 LIG 0.04  C 
BRANCH 31 32
ATOM     32  CG  LYS B 688     -23.659   3.276  29.756  1.00 35.59 LIG 0.00  C 
BRANCH 32 33
ATOM     33  CD  LYS B 688     -24.441   1.977  29.620  1.00 43.16 LIG 0.03  C 
BRANCH 33 34
ATOM     34  CE  LYS B 688     -25.917   2.261  29.296  1.00 45.87 LIG 0.23  C 
BRANCH 34 35
ATOM     35  NZ  LYS B 688     -26.672   1.009  28.898  1.00 48.40 LIG-0.08  N 
ATOM     36 HZ2  LYS B 688     -27.531   1.206  28.778  1.00 48.40 LIG 0.27  HD
ATOM     37 HZ3  LYS B 688     -26.334   0.686  28.141  1.00 48.40 LIG 0.27  HD
ATOM     38 HZ1  LYS B 688     -26.595   0.399  29.541  1.00 48.40 LIG 0.27  HD
ENDBRANCH 34 35
ENDBRANCH 33 34
ENDBRANCH 32 33
ENDBRANCH 31 32
ENDBRANCH 6 31
ENDBRANCH 4 6
ENDBRANCH 1 2
BRANCH 1 39
ATOM     39  C   PHE B 689     -24.201   5.860  23.964  1.00 24.45 LIG 0.24  C 
ATOM     40  N   PHE B 690     -24.848   4.798  24.404  1.00 21.51 LIG-0.35  N 
ATOM     41 H    PHE B 690     -24.495   4.187  24.896  1.00 21.51 LIG 0.16  HD
ATOM     42 O    PHE B 689     -24.701   6.638  23.141  1.00 26.25 LIG-0.27  OA
BRANCH 40 43
ATOM     43  CA  PHE B 690     -26.252   4.576  24.076  1.00 22.61 LIG 0.18  C 
BRANCH 43 44
ATOM     44  C   PHE B 690     -26.334   4.082  22.654  1.00 22.66 LIG 0.24  C 
ATOM     45 O    PHE B 690     -26.522   2.909  22.427  1.00 22.36 LIG-0.27  OA
ATOM     46  N   GLU B 691     -26.189   5.006  21.710  1.00 25.08 LIG-0.35  N 
ATOM     47 H    GLU B 691     -26.067   5.839  21.879  1.00 25.08 LIG 0.16  HD
BRANCH 46 48
ATOM     48  CA  GLU B 691     -26.223   4.693  20.285  1.00 27.99 LIG 0.18  C 
BRANCH 48 49
ATOM     49  CB  GLU B 691     -25.279   3.527  19.988  1.00 28.84 LIG 0.04  C 
BRANCH 49 50
ATOM     50  CG  GLU B 691     -24.921   3.434  18.502  1.00 33.53 LIG 0.12  C 
BRANCH 50 51
ATOM     51  CD  GLU B 691     -23.557   4.050  18.165  1.00 40.22 LIG 0.17  C 
ATOM     52 OE1  GLU B 691     -23.191   5.098  18.756  1.00 42.38 LIG-0.65  OA
ATOM     53 OE2  GLU B 691     -22.852   3.476  17.294  1.00 45.19 LIG-0.65  OA
ENDBRANCH 50 51
ENDBRANCH 49 50
ENDBRANCH 48 49
BRANCH 48 54
ATOM     54  C   GLU B 691     -27.620   4.383  19.765  1.00 29.69 LIG 0.24  C 
ATOM     55 O    GLU B 691     -28.001   4.826  18.665  1.00 29.49 LIG-0.27  OA
ATOM     56  N   GLN B 692     -28.386   3.636  20.549  1.00 30.92 LIG-0.34  N 
ATOM     57 H    GLN B 692     -28.133   3.283  21.292  1.00 30.92 LIG 0.16  HD
BRANCH 56 58
ATOM     58  CA  GLN B 692     -29.773   3.365  20.167  1.00 33.57 LIG 0.19  C 
BRANCH 58 59
ATOM     59  C   GLN B 692     -30.745   3.938  21.182  1.00 34.50 LIG 0.20  C 
ATOM     60 O    GLN B 692     -31.920   4.175  20.850  1.00 34.98 LIG-0.65  OA
ATOM     61 OXT  GLN B 692     -30.368   4.142  22.353  1.00 35.71 LIG-0.65  OA
ENDBRANCH 58 59
BRANCH 58 62
ATOM     62  CB  GLN B 692     -29.989   1.845  20.017  1.00 33.00 LIG 0.04  C 
BRANCH 62 63
ATOM     63  CG  GLN B 692     -31.279   1.330  20.662  0.80 34.02 LIG 0.10  C 
BRANCH 63 64
ATOM     64  CD  GLN B 692     -31.067   0.149  21.594  0.80 34.38 LIG 0.21  C 
ATOM     65  NE2 GLN B 692     -31.011   0.426  22.899  0.80 37.28 LIG-0.37  N 
ATOM     66 21HE GLN B 692     -31.080   1.240  23.169  0.80 37.28 LIG 0.16  HD
ATOM     67 22HE GLN B 692     -30.908  -0.209  23.470  0.80 37.28 LIG 0.16  HD
ATOM     68 OE1  GLN B 692     -30.976  -0.997  21.155  0.80 37.51 LIG-0.27  OA
ENDBRANCH 63 64
ENDBRANCH 62 63
ENDBRANCH 58 62
ENDBRANCH 56 58
ENDBRANCH 48 54
ENDBRANCH 46 48
ENDBRANCH 43 44
BRANCH 43 69
ATOM     69  CB  PHE B 690     -27.075   5.868  24.235  1.00 21.72 LIG 0.07  C 
BRANCH 69 70
ATOM     70  CG  PHE B 690     -26.874   6.583  25.553  1.00 20.05 LIG-0.06  A 
ATOM     71  CD2 PHE B 690     -26.616   7.941  25.577  1.00 19.86 LIG 0.01  A 
ATOM     72  CE2 PHE B 690     -26.418   8.637  26.784  1.00 20.22 LIG 0.00  A 
ATOM     73  CZ  PHE B 690     -26.428   7.915  27.975  1.00 19.78 LIG 0.00  A 
ATOM     74  CE1 PHE B 690     -26.676   6.573  27.961  1.00 19.59 LIG 0.00  A 
ATOM     75  CD1 PHE B 690     -26.874   5.884  26.745  1.00 20.29 LIG 0.01  A 
ENDBRANCH 69 70
ENDBRANCH 43 69
ENDBRANCH 40 43
ENDBRANCH 1 39
BRANCH 1 76
ATOM     76  CB  PHE B 689     -21.766   5.711  23.426  1.00 23.35 LIG 0.07  C 
BRANCH 76 77
ATOM     77  CG  PHE B 689     -21.787   4.276  23.078  1.00 24.01 LIG-0.06  A 
ATOM     78  CD2 PHE B 689     -22.777   3.757  22.242  1.00 25.22 LIG 0.01  A 
ATOM     79  CE2 PHE B 689     -22.775   2.402  21.877  1.00 25.32 LIG 0.00  A 
ATOM     80  CZ  PHE B 689     -21.798   1.541  22.402  1.00 27.81 LIG 0.00  A 
ATOM     81  CE1 PHE B 689     -20.809   2.045  23.248  1.00 24.81 LIG 0.00  A 
ATOM     82  CD1 PHE B 689     -20.797   3.414  23.574  1.00 27.61 LIG 0.01  A 
ENDBRANCH 76 77
ENDBRANCH 1 76
TORSDOF 33
ENDMDL
MODEL 5
USER: ADFR SOLUTION from run 104
USER: SCORE 23.797316 LL:  -6.826 LR: -19.272 RR:   0.000 FEB:  -9.428
USER: RMSD 6.682862
USER: SEED 103
USER: STATUS searching
USER: GENES 35
USER: genes 0 Translation |==|  0.59824 0.46068 0.44489
USER: genes 1 Rotation |==|  0.74311 0.51552 0.91619 0.63207
USER: genes 2 Torsion [C]-CA--N-[C] |==|  0.75921
USER: genes 3 Torsion [N]-C--CA-[N] |==|  0.38014
USER: genes 4 Torsion [C]-CA--N-[C] |==|  0.65200
USER: genes 5 Torsion [N]-C--CA-[N] |==|  0.53277
USER: genes 6 Torsion [C]-CA--N-[C] |==|  0.61294
USER: genes 7 Torsion [N]-C--CA-[N] |==|  0.77082
USER: genes 8 Torsion [C]-CA--CB-[CG2] |==|  0.35546
USER: genes 9 Torsion [CA]-CB--OG1-[HG1] |==|  0.33401
USER: genes 10 Torsion [C]-CA--CB-[CG] |==|  0.82221
USER: genes 11 Torsion [CA]-CB--CG-[CD1] |==|  0.29030
USER: genes 12 Torsion [CE2]-CZ--OH-[HH] |==|  0.96103
USER: genes 13 Torsion [C]-CA--CB-[CG] |==|  0.50456
USER: genes 14 Torsion [CA]-CB--CG-[CD] |==|  0.62436
USER: genes 15 Torsion [CB]-CG--CD-[CE] |==|  0.84814
USER: genes 16 Torsion [CG]-CD--CE-[NZ] |==|  0.49484
USER: genes 17 Torsion [CD]-CE--NZ-[HZ2] |==|  0.46573
USER: genes 18 Torsion [N]-CA--C-[N] |==|  0.96161
USER: genes 19 Torsion [C]-N--CA-[CB] |==|  0.84046
USER: genes 20 Torsion [N]-CA--C-[N] |==|  0.70296
USER: genes 21 Torsion [C]-N--CA-[CB] |==|  0.79925
USER: genes 22 Torsion [N]-CA--CB-[CG] |==|  0.28929
USER: genes 23 Torsion [CA]-CB--CG-[CD] |==|  0.45867
USER: genes 24 Torsion [CB]-CG--CD-[OE2] |==|  0.02965
USER: genes 25 Torsion [N]-CA--C-[N] |==|  0.48889
USER: genes 26 Torsion [C]-N--CA-[C] |==|  0.15365
USER: genes 27 Torsion [N]-CA--C-[OXT] |==|  0.66509
USER: genes 28 Torsion [N]-CA--CB-[CG] |==|  0.70658
USER: genes 29 Torsion [CA]-CB--CG-[CD] |==|  0.53519
USER: genes 30 Torsion [CB]-CG--CD-[OE1] |==|  0.78646
USER: genes 31 Torsion [N]-CA--CB-[CG] |==|  0.86977
USER: genes 32 Torsion [CA]-CB--CG-[CD2] |==|  0.34371
USER: genes 33 Torsion [N]-CA--CB-[CG] |==|  0.18019
USER: genes 34 Torsion [CA]-CB--CG-[CD1] |==|  0.72253
ROOT
ATOM      1  CA  PHE B 689     -22.775   6.043  24.448  1.00 23.75 LIG 0.18  C 
ENDROOT
BRANCH 1 2
ATOM      2  N   PHE B 689     -22.621   5.315  25.722  1.00 25.36 LIG-0.35  N 
ATOM      3 H    PHE B 689     -22.224   4.556  25.643  1.00 25.36 LIG 0.16  HD
ATOM      4  C   LYS B 688     -23.058   5.795  26.882  1.00 27.14 LIG 0.24  C 
ATOM      5 O    LYS B 688     -23.650   6.861  26.986  1.00 24.82 LIG-0.27  OA
BRANCH 4 6
ATOM      6  CA  LYS B 688     -22.813   4.935  28.117  1.00 29.11 LIG 0.18  C 
BRANCH 6 7
ATOM      7  N   LYS B 688     -22.356   5.778  29.231  1.00 31.24 LIG-0.35  N 
ATOM      8  C   TYR B 687     -21.223   5.523  29.883  1.00 34.73 LIG 0.24  C 
ATOM      9 O    TYR B 687     -20.492   4.557  29.619  1.00 34.89 LIG-0.27  OA
ATOM     10 H    LYS B 688     -22.878   6.435  29.417  1.00 31.24 LIG 0.16  HD
BRANCH 8 11
ATOM     11  CA  TYR B 687     -20.834   6.503  30.981  1.00 37.40 LIG 0.18  C 
BRANCH 11 12
ATOM     12  N   TYR B 687     -19.469   6.323  31.461  1.00 39.68 LIG-0.34  N 
ATOM     13 H    TYR B 687     -18.894   6.160  30.843  1.00 39.68 LIG 0.16  HD
ATOM     14  C   THR B 686     -19.166   6.411  32.756  1.00 41.22 LIG 0.26  C 
ATOM     15 O    THR B 686     -20.016   6.438  33.649  1.00 41.89 LIG-0.27  OA
BRANCH 14 16
ATOM     16  CA  THR B 686     -17.677   6.486  33.102  1.00 42.81 LIG 0.43  C 
ATOM     17  N   THR B 686     -17.026   5.134  33.138  1.00 43.04 LIG 0.62  N 
BRANCH 16 18
ATOM     18  CB  THR B 686     -17.027   7.445  32.058  1.00 43.12 LIG 0.16  C 
ATOM     19  CG2 THR B 686     -16.203   8.563  32.759  1.00 43.85 LIG 0.04  C 
BRANCH 18 20
ATOM     20 OG1  THR B 686     -16.204   6.715  31.142  1.00 44.58 LIG-0.39  OA
ATOM     21 HG1  THR B 686     -16.489   6.824  30.360  1.00 44.58 LIG 0.21  HD
ENDBRANCH 18 20
ENDBRANCH 16 18
ENDBRANCH 14 16
ENDBRANCH 11 12
BRANCH 11 22
ATOM     22  CB  TYR B 687     -21.001   7.922  30.460  1.00 38.54 LIG 0.07  C 
BRANCH 22 23
ATOM     23  CG  TYR B 687     -20.095   8.287  29.316  1.00 40.36 LIG-0.06  A 
ATOM     24  CD2 TYR B 687     -18.736   8.539  29.535  1.00 43.44 LIG 0.01  A 
ATOM     25  CE2 TYR B 687     -17.885   8.864  28.475  1.00 43.74 LIG 0.04  A 
ATOM     26  CZ  TYR B 687     -18.409   8.935  27.189  1.00 42.51 LIG 0.07  A 
ATOM     27  CE1 TYR B 687     -19.758   8.685  26.954  1.00 41.41 LIG 0.04  A 
ATOM     28  CD1 TYR B 687     -20.586   8.365  28.014  1.00 40.86 LIG 0.01  A 
BRANCH 26 29
ATOM     29 OH   TYR B 687     -17.571   9.251  26.147  1.00 42.23 LIG-0.36  OA
ATOM     30 HH   TYR B 687     -16.849   9.555  26.450  1.00 42.23 LIG 0.22  HD
ENDBRANCH 26 29
ENDBRANCH 22 23
ENDBRANCH 11 22
ENDBRANCH 8 11
ENDBRANCH 6 7
BRANCH 6 31
ATOM     31  CB  LYS B 688     -24.100   4.228  28.519  1.00 31.14 LIG 0.04  C 
BRANCH 31 32
ATOM     32  CG  LYS B 688     -23.992   3.381  29.747  1.00 35.59 LIG 0.00  C 
BRANCH 32 33
ATOM     33  CD  LYS B 688     -24.663   2.025  29.568  1.00 43.16 LIG 0.03  C 
BRANCH 33 34
ATOM     34  CE  LYS B 688     -26.125   2.196  29.125  1.00 45.87 LIG 0.23  C 
BRANCH 34 35
ATOM     35  NZ  LYS B 688     -26.815   0.867  28.892  1.00 48.40 LIG-0.08  N 
ATOM     36 HZ2  LYS B 688     -27.692   0.998  28.814  1.00 48.40 LIG 0.27  HD
ATOM     37 HZ3  LYS B 688     -26.504   0.498  28.145  1.00 48.40 LIG 0.27  HD
ATOM     38 HZ1  LYS B 688     -26.656   0.325  29.579  1.00 48.40 LIG 0.27  HD
ENDBRANCH 34 35
ENDBRANCH 33 34
ENDBRANCH 32 33
ENDBRANCH 31 32
ENDBRANCH 6 31
ENDBRANCH 4 6
ENDBRANCH 1 2
BRANCH 1 39
ATOM     39  C   PHE B 689     -24.117   5.752  23.794  1.00 24.45 LIG 0.24  C 
ATOM     40  N   PHE B 690     -24.800   4.726  24.266  1.00 21.51 LIG-0.35  N 
ATOM     41 H    PHE B 690     -24.496   4.171  24.848  1.00 21.51 LIG 0.16  HD
ATOM     42 O    PHE B 689     -24.533   6.439  22.853  1.00 26.25 LIG-0.27  OA
BRANCH 40 43
ATOM     43  CA  PHE B 690     -26.162   4.453  23.821  1.00 22.61 LIG 0.18  C 
BRANCH 43 44
ATOM     44  C   PHE B 690     -26.123   4.131  22.349  1.00 22.66 LIG 0.24  C 
ATOM     45 O    PHE B 690     -25.682   3.071  21.970  1.00 22.36 LIG-0.27  OA
ATOM     46  N   GLU B 691     -26.595   5.070  21.536  1.00 25.08 LIG-0.35  N 
ATOM     47 H    GLU B 691     -26.917   5.817  21.813  1.00 25.08 LIG 0.16  HD
BRANCH 46 48
ATOM     48  CA  GLU B 691     -26.612   4.924  20.084  1.00 27.99 LIG 0.18  C 
BRANCH 48 49
ATOM     49  CB  GLU B 691     -25.190   5.040  19.535  1.00 28.84 LIG 0.04  C 
BRANCH 49 50
ATOM     50  CG  GLU B 691     -24.608   3.680  19.140  1.00 33.53 LIG 0.12  C 
BRANCH 50 51
ATOM     51  CD  GLU B 691     -23.352   3.787  18.264  1.00 40.22 LIG 0.17  C 
ATOM     52 OE1  GLU B 691     -22.896   2.754  17.711  1.00 42.38 LIG-0.65  OA
ATOM     53 OE2  GLU B 691     -22.820   4.922  18.136  1.00 45.19 LIG-0.65  OA
ENDBRANCH 50 51
ENDBRANCH 49 50
ENDBRANCH 48 49
BRANCH 48 54
ATOM     54  C   GLU B 691     -27.254   3.627  19.612  1.00 29.69 LIG 0.24  C 
ATOM     55 O    GLU B 691     -27.628   2.768  20.432  1.00 29.49 LIG-0.27  OA
ATOM     56  N   GLN B 692     -27.373   3.475  18.300  1.00 30.92 LIG-0.34  N 
ATOM     57 H    GLN B 692     -27.162   4.069  17.714  1.00 30.92 LIG 0.16  HD
BRANCH 56 58
ATOM     58  CA  GLN B 692     -27.897   2.220  17.757  1.00 33.57 LIG 0.19  C 
BRANCH 58 59
ATOM     59  C   GLN B 692     -29.256   1.891  18.349  1.00 34.50 LIG 0.20  C 
ATOM     60 O    GLN B 692     -30.210   2.669  18.181  1.00 34.98 LIG-0.65  OA
ATOM     61 OXT  GLN B 692     -29.415   0.826  18.978  1.00 35.71 LIG-0.65  OA
ENDBRANCH 58 59
BRANCH 58 62
ATOM     62  CB  GLN B 692     -26.902   1.073  18.029  1.00 33.00 LIG 0.04  C 
BRANCH 62 63
ATOM     63  CG  GLN B 692     -26.120   0.618  16.793  0.80 34.02 LIG 0.10  C 
BRANCH 63 64
ATOM     64  CD  GLN B 692     -25.377  -0.692  16.987  0.80 34.38 LIG 0.21  C 
ATOM     65  NE2 GLN B 692     -25.916  -1.770  16.414  0.80 37.28 LIG-0.37  N 
ATOM     66 21HE GLN B 692     -26.653  -1.701  15.976  0.80 37.28 LIG 0.16  HD
ATOM     67 22HE GLN B 692     -25.526  -2.534  16.482  0.80 37.28 LIG 0.16  HD
ATOM     68 OE1  GLN B 692     -24.324  -0.735  17.625  0.80 37.51 LIG-0.27  OA
ENDBRANCH 63 64
ENDBRANCH 62 63
ENDBRANCH 58 62
ENDBRANCH 56 58
ENDBRANCH 48 54
ENDBRANCH 46 48
ENDBRANCH 43 44
BRANCH 43 69
ATOM     69  CB  PHE B 690     -27.086   5.660  24.073  1.00 21.72 LIG 0.07  C 
BRANCH 69 70
ATOM     70  CG  PHE B 690     -26.965   6.267  25.454  1.00 20.05 LIG-0.06  A 
ATOM     71  CD2 PHE B 690     -26.662   7.608  25.602  1.00 19.86 LIG 0.01  A 
ATOM     72  CE2 PHE B 690     -26.536   8.203  26.870  1.00 20.22 LIG 0.00  A 
ATOM     73  CZ  PHE B 690     -26.665   7.396  27.998  1.00 19.78 LIG 0.00  A 
ATOM     74  CE1 PHE B 690     -26.958   6.070  27.862  1.00 19.59 LIG 0.00  A 
ATOM     75  CD1 PHE B 690     -27.083   5.482  26.585  1.00 20.29 LIG 0.01  A 
ENDBRANCH 69 70
ENDBRANCH 43 69
ENDBRANCH 40 43
ENDBRANCH 1 39
BRANCH 1 76
ATOM     76  CB  PHE B 689     -21.641   5.719  23.467  1.00 23.35 LIG 0.07  C 
BRANCH 76 77
ATOM     77  CG  PHE B 689     -21.640   4.307  23.033  1.00 24.01 LIG-0.06  A 
ATOM     78  CD2 PHE B 689     -22.499   3.869  22.024  1.00 25.22 LIG 0.01  A 
ATOM     79  CE2 PHE B 689     -22.472   2.537  21.581  1.00 25.32 LIG 0.00  A 
ATOM     80  CZ  PHE B 689     -21.610   1.617  22.198  1.00 27.81 LIG 0.00  A 
ATOM     81  CE1 PHE B 689     -20.754   2.040  23.216  1.00 24.81 LIG 0.00  A 
ATOM     82  CD1 PHE B 689     -20.761   3.387  23.623  1.00 27.61 LIG 0.01  A 
ENDBRANCH 76 77
ENDBRANCH 1 76
TORSDOF 33
ENDMDL
MODEL 6
USER: ADFR SOLUTION from run 177
USER: SCORE 22.525636 LL:  -5.984 LR: -19.213 RR:   0.000 FEB:  -9.369
USER: RMSD 4.637050
USER: SEED 176
USER: STATUS no improvement in best in 6 clusters for 5 generations
USER: GENES 35
USER: genes 0 Translation |==|  0.57815 0.42086 0.54518
USER: genes 1 Rotation |==|  0.54113 0.45039 0.43344 0.99134
USER: genes 2 Torsion [C]-CA--N-[C] |==|  0.69532
USER: genes 3 Torsion [N]-C--CA-[N] |==|  0.38934
USER: genes 4 Torsion [C]-CA--N-[C] |==|  0.78272
USER: genes 5 Torsion [N]-C--CA-[N] |==|  0.15611
USER: genes 6 Torsion [C]-CA--N-[C] |==|  0.65984
USER: genes 7 Torsion [N]-C--CA-[N] |==|  0.23114
USER: genes 8 Torsion [C]-CA--CB-[CG2] |==|  0.75826
USER: genes 9 Torsion [CA]-CB--OG1-[HG1] |==|  0.14426
USER: genes 10 Torsion [C]-CA--CB-[CG] |==|  0.48629
USER: genes 11 Torsion [CA]-CB--CG-[CD1] |==|  0.92999
USER: genes 12 Torsion [CE2]-CZ--OH-[HH] |==|  0.25376
USER: genes 13 Torsion [C]-CA--CB-[CG] |==|  0.19659
USER: genes 14 Torsion [CA]-CB--CG-[CD] |==|  0.67454
USER: genes 15 Torsion [CB]-CG--CD-[CE] |==|  0.68008
USER: genes 16 Torsion [CG]-CD--CE-[NZ] |==|  0.27358
USER: genes 17 Torsion [CD]-CE--NZ-[HZ2] |==|  0.27660
USER: genes 18 Torsion [N]-CA--C-[N] |==|  0.41176
USER: genes 19 Torsion [C]-N--CA-[CB] |==|  0.34432
USER: genes 20 Torsion [N]-CA--C-[N] |==|  0.47095
USER: genes 21 Torsion [C]-N--CA-[CB] |==|  0.85835
USER: genes 22 Torsion [N]-CA--CB-[CG] |==|  0.65626
USER: genes 23 Torsion [CA]-CB--CG-[CD] |==|  0.19616
USER: genes 24 Torsion [CB]-CG--CD-[OE2] |==|  0.32607
USER: genes 25 Torsion [N]-CA--C-[N] |==|  0.85558
USER: genes 26 Torsion [C]-N--CA-[C] |==|  0.51613
USER: genes 27 Torsion [N]-CA--C-[OXT] |==|  0.05988
USER: genes 28 Torsion [N]-CA--CB-[CG] |==|  0.17298
USER: genes 29 Torsion [CA]-CB--CG-[CD] |==|  0.34435
USER: genes 30 Torsion [CB]-CG--CD-[OE1] |==|  0.39602
USER: genes 31 Torsion [N]-CA--CB-[CG] |==|  0.18053
USER: genes 32 Torsion [CA]-CB--CG-[CD2] |==|  0.19713
USER: genes 33 Torsion [N]-CA--CB-[CG] |==|  0.75068
USER: genes 34 Torsion [CA]-CB--CG-[CD1] |==|  0.54473
ROOT
ATOM      1  CA  PHE B 689     -23.167   5.267  27.758  1.00 23.75 LIG 0.18  C 
ENDROOT
BRANCH 1 2
ATOM      2  N   PHE B 689     -22.564   5.878  28.957  1.00 25.36 LIG-0.35  N 
ATOM      3 H    PHE B 689     -22.929   6.621  29.191  1.00 25.36 LIG 0.16  HD
ATOM      4  C   LYS B 688     -21.547   5.326  29.612  1.00 27.14 LIG 0.24  C 
ATOM      5 O    LYS B 688     -21.009   4.285  29.258  1.00 24.82 LIG-0.27  OA
BRANCH 4 6
ATOM      6  CA  LYS B 688     -21.039   6.066  30.843  1.00 29.11 LIG 0.18  C 
BRANCH 6 7
ATOM      7  N   LYS B 688     -20.712   5.105  31.906  1.00 31.24 LIG-0.35  N 
ATOM      8  C   TYR B 687     -21.656   4.545  32.660  1.00 34.73 LIG 0.24  C 
ATOM      9 O    TYR B 687     -22.863   4.806  32.538  1.00 34.89 LIG-0.27  OA
ATOM     10 H    LYS B 688     -19.871   4.944  31.993  1.00 31.24 LIG 0.16  HD
BRANCH 8 11
ATOM     11  CA  TYR B 687     -21.190   3.525  33.689  1.00 37.40 LIG 0.18  C 
BRANCH 11 12
ATOM     12  N   TYR B 687     -20.191   4.049  34.612  1.00 39.68 LIG-0.34  N 
ATOM     13 H    TYR B 687     -20.444   4.743  35.053  1.00 39.68 LIG 0.16  HD
ATOM     14  C   THR B 686     -18.993   3.480  34.743  1.00 41.22 LIG 0.26  C 
ATOM     15 O    THR B 686     -18.563   2.621  33.969  1.00 41.89 LIG-0.27  OA
BRANCH 14 16
ATOM     16  CA  THR B 686     -18.147   3.941  35.933  1.00 42.81 LIG 0.43  C 
ATOM     17  N   THR B 686     -18.504   3.228  37.203  1.00 43.04 LIG 0.62  N 
BRANCH 16 18
ATOM     18  CB  THR B 686     -16.656   3.737  35.520  1.00 43.12 LIG 0.16  C 
ATOM     19  CG2 THR B 686     -16.175   2.295  35.849  1.00 43.85 LIG 0.04  C 
BRANCH 18 20
ATOM     20 OG1  THR B 686     -16.471   4.023  34.130  1.00 44.58 LIG-0.39  OA
ATOM     21 HG1  THR B 686     -16.790   4.779  33.955  1.00 44.58 LIG 0.21  HD
ENDBRANCH 18 20
ENDBRANCH 16 18
ENDBRANCH 14 16
ENDBRANCH 11 12
BRANCH 11 22
ATOM     22  CB  TYR B 687     -22.394   3.032  34.478  1.00 38.54 LIG 0.07  C 
BRANCH 22 23
ATOM     23  CG  TYR B 687     -22.099   1.929  35.457  1.00 40.36 LIG-0.06  A 
ATOM     24  CD2 TYR B 687     -22.922   1.726  36.570  1.00 43.44 LIG 0.01  A 
ATOM     25  CE2 TYR B 687     -22.663   0.694  37.477  1.00 43.74 LIG 0.04  A 
ATOM     26  CZ  TYR B 687     -21.568  -0.135  37.258  1.00 42.51 LIG 0.07  A 
ATOM     27  CE1 TYR B 687     -20.740   0.053  36.155  1.00 41.41 LIG 0.04  A 
ATOM     28  CD1 TYR B 687     -21.011   1.078  35.268  1.00 40.86 LIG 0.01  A 
BRANCH 26 29
ATOM     29 OH   TYR B 687     -21.316  -1.152  38.148  1.00 42.23 LIG-0.36  OA
ATOM     30 HH   TYR B 687     -21.704  -1.851  37.892  1.00 42.23 LIG 0.22  HD
ENDBRANCH 26 29
ENDBRANCH 22 23
ENDBRANCH 11 22
ENDBRANCH 8 11
ENDBRANCH 6 7
BRANCH 6 31
ATOM     31  CB  LYS B 688     -19.792   6.866  30.489  1.00 31.14 LIG 0.04  C 
BRANCH 31 32
ATOM     32  CG  LYS B 688     -20.039   8.056  29.617  1.00 35.59 LIG 0.00  C 
BRANCH 32 33
ATOM     33  CD  LYS B 688     -19.337   7.935  28.272  1.00 43.16 LIG 0.03  C 
BRANCH 33 34
ATOM     34  CE  LYS B 688     -18.257   9.019  28.122  1.00 45.87 LIG 0.23  C 
BRANCH 34 35
ATOM     35  NZ  LYS B 688     -16.870   8.499  28.442  1.00 48.40 LIG-0.08  N 
ATOM     36 HZ2  LYS B 688     -16.442   8.310  27.686  1.00 48.40 LIG 0.27  HD
ATOM     37 HZ3  LYS B 688     -16.417   9.118  28.892  1.00 48.40 LIG 0.27  HD
ATOM     38 HZ1  LYS B 688     -16.937   7.762  28.937  1.00 48.40 LIG 0.27  HD
ENDBRANCH 34 35
ENDBRANCH 33 34
ENDBRANCH 32 33
ENDBRANCH 31 32
ENDBRANCH 6 31
ENDBRANCH 4 6
ENDBRANCH 1 2
BRANCH 1 39
ATOM     39  C   PHE B 689     -22.847   6.062  26.501  1.00 24.45 LIG 0.24  C 
ATOM     40  N   PHE B 690     -22.734   5.380  25.377  1.00 21.51 LIG-0.35  N 
ATOM     41 H    PHE B 690     -22.741   4.521  25.331  1.00 21.51 LIG 0.16  HD
ATOM     42 O    PHE B 689     -22.686   7.288  26.543  1.00 26.25 LIG-0.27  OA
BRANCH 40 43
ATOM     43  CA  PHE B 690     -22.586   6.055  24.093  1.00 22.61 LIG 0.18  C 
BRANCH 43 44
ATOM     44  C   PHE B 690     -23.805   5.756  23.258  1.00 22.66 LIG 0.24  C 
ATOM     45 O    PHE B 690     -24.596   4.914  23.616  1.00 22.36 LIG-0.27  OA
ATOM     46  N   GLU B 691     -23.934   6.466  22.142  1.00 25.08 LIG-0.35  N 
ATOM     47 H    GLU B 691     -23.373   7.071  21.900  1.00 25.08 LIG 0.16  HD
BRANCH 46 48
ATOM     48  CA  GLU B 691     -25.045   6.288  21.214  1.00 27.99 LIG 0.18  C 
BRANCH 48 49
ATOM     49  CB  GLU B 691     -25.192   4.808  20.860  1.00 28.84 LIG 0.04  C 
BRANCH 49 50
ATOM     50  CG  GLU B 691     -25.122   4.562  19.350  1.00 33.53 LIG 0.12  C 
BRANCH 50 51
ATOM     51  CD  GLU B 691     -23.720   4.771  18.764  1.00 40.22 LIG 0.17  C 
ATOM     52 OE1  GLU B 691     -23.191   5.911  18.822  1.00 42.38 LIG-0.65  OA
ATOM     53 OE2  GLU B 691     -23.148   3.779  18.239  1.00 45.19 LIG-0.65  OA
ENDBRANCH 50 51
ENDBRANCH 49 50
ENDBRANCH 48 49
BRANCH 48 54
ATOM     54  C   GLU B 691     -26.366   6.837  21.736  1.00 29.69 LIG 0.24  C 
ATOM     55 O    GLU B 691     -27.039   7.631  21.051  1.00 29.49 LIG-0.27  OA
ATOM     56  N   GLN B 692     -26.734   6.430  22.943  1.00 30.92 LIG-0.34  N 
ATOM     57 H    GLN B 692     -26.311   5.851  23.418  1.00 30.92 LIG 0.16  HD
BRANCH 56 58
ATOM     58  CA  GLN B 692     -27.946   6.977  23.557  1.00 33.57 LIG 0.19  C 
BRANCH 58 59
ATOM     59  C   GLN B 692     -28.106   6.488  24.986  1.00 34.50 LIG 0.20  C 
ATOM     60 O    GLN B 692     -29.231   6.477  25.514  1.00 34.98 LIG-0.65  OA
ATOM     61 OXT  GLN B 692     -27.112   6.073  25.612  1.00 35.71 LIG-0.65  OA
ENDBRANCH 58 59
BRANCH 58 62
ATOM     62  CB  GLN B 692     -29.181   6.593  22.717  1.00 33.00 LIG 0.04  C 
BRANCH 62 63
ATOM     63  CG  GLN B 692     -29.429   5.085  22.623  0.80 34.02 LIG 0.10  C 
BRANCH 63 64
ATOM     64  CD  GLN B 692     -30.811   4.662  23.089  0.80 34.38 LIG 0.21  C 
ATOM     65  NE2 GLN B 692     -31.320   5.333  24.124  0.80 37.28 LIG-0.37  N 
ATOM     66 21HE GLN B 692     -30.862   5.958  24.498  0.80 37.28 LIG 0.16  HD
ATOM     67 22HE GLN B 692     -32.106   5.142  24.417  0.80 37.28 LIG 0.16  HD
ATOM     68 OE1  GLN B 692     -31.424   3.761  22.517  0.80 37.51 LIG-0.27  OA
ENDBRANCH 63 64
ENDBRANCH 62 63
ENDBRANCH 58 62
ENDBRANCH 56 58
ENDBRANCH 48 54
ENDBRANCH 46 48
ENDBRANCH 43 44
BRANCH 43 69
ATOM     69  CB  PHE B 690     -21.315   5.587  23.358  1.00 21.72 LIG 0.07  C 
BRANCH 69 70
ATOM     70  CG  PHE B 690     -21.326   4.131  22.948  1.00 20.05 LIG-0.06  A 
ATOM     71  CD2 PHE B 690     -22.152   3.700  21.927  1.00 19.86 LIG 0.01  A 
ATOM     72  CE2 PHE B 690     -22.191   2.354  21.523  1.00 20.22 LIG 0.00  A 
ATOM     73  CZ  PHE B 690     -21.415   1.430  22.219  1.00 19.78 LIG 0.00  A 
ATOM     74  CE1 PHE B 690     -20.600   1.844  23.232  1.00 19.59 LIG 0.00  A 
ATOM     75  CD1 PHE B 690     -20.568   3.198  23.630  1.00 20.29 LIG 0.01  A 
ENDBRANCH 69 70
ENDBRANCH 43 69
ENDBRANCH 40 43
ENDBRANCH 1 39
BRANCH 1 76
ATOM     76  CB  PHE B 689     -24.688   5.117  27.900  1.00 23.35 LIG 0.07  C 
BRANCH 76 77
ATOM     77  CG  PHE B 689     -25.086   3.828  28.502  1.00 24.01 LIG-0.06  A 
ATOM     78  CD2 PHE B 689     -24.158   3.045  29.192  1.00 25.22 LIG 0.01  A 
ATOM     79  CE2 PHE B 689     -24.543   1.840  29.800  1.00 25.32 LIG 0.00  A 
ATOM     80  CZ  PHE B 689     -25.865   1.384  29.668  1.00 27.81 LIG 0.00  A 
ATOM     81  CE1 PHE B 689     -26.799   2.153  28.971  1.00 24.81 LIG 0.00  A 
ATOM     82  CD1 PHE B 689     -26.411   3.380  28.400  1.00 27.61 LIG 0.01  A 
ENDBRANCH 76 77
ENDBRANCH 1 76
TORSDOF 33
ENDMDL
MODEL 7
USER: ADFR SOLUTION from run 150
USER: SCORE 21.957871 LL:  -5.590 LR: -18.988 RR:   0.000 FEB:  -9.144
USER: RMSD 5.291713
USER: SEED 149
USER: STATUS 1 or 2 clusters left
USER: GENES 35
USER: genes 0 Translation |==|  0.51166 0.29141 0.56959
USER: genes 1 Rotation |==|  0.66116 0.62173 0.62671 0.93949
USER: genes 2 Torsion [C]-CA--N-[C] |==|  0.78471
USER: genes 3 Torsion [N]-C--CA-[N] |==|  0.05121
USER: genes 4 Torsion [C]-CA--N-[C] |==|  0.61412
USER: genes 5 Torsion [N]-C--CA-[N] |==|  0.31027
USER: genes 6 Torsion [C]-CA--N-[C] |==|  0.73296
USER: genes 7 Torsion [N]-C--CA-[N] |==|  0.83060
USER: genes 8 Torsion [C]-CA--CB-[CG2] |==|  0.22232
USER: genes 9 Torsion [CA]-CB--OG1-[HG1] |==|  0.83309
USER: genes 10 Torsion [C]-CA--CB-[CG] |==|  0.46849
USER: genes 11 Torsion [CA]-CB--CG-[CD1] |==|  0.25114
USER: genes 12 Torsion [CE2]-CZ--OH-[HH] |==|  0.94546
USER: genes 13 Torsion [C]-CA--CB-[CG] |==|  0.35056
USER: genes 14 Torsion [CA]-CB--CG-[CD] |==|  0.85515
USER: genes 15 Torsion [CB]-CG--CD-[CE] |==|  0.62251
USER: genes 16 Torsion [CG]-CD--CE-[NZ] |==|  0.06375
USER: genes 17 Torsion [CD]-CE--NZ-[HZ2] |==|  0.89378
USER: genes 18 Torsion [N]-CA--C-[N] |==|  0.30004
USER: genes 19 Torsion [C]-N--CA-[CB] |==|  0.17071
USER: genes 20 Torsion [N]-CA--C-[N] |==|  0.07491
USER: genes 21 Torsion [C]-N--CA-[CB] |==|  0.34009
USER: genes 22 Torsion [N]-CA--CB-[CG] |==|  0.21940
USER: genes 23 Torsion [CA]-CB--CG-[CD] |==|  0.39429
USER: genes 24 Torsion [CB]-CG--CD-[OE2] |==|  0.56522
USER: genes 25 Torsion [N]-CA--C-[N] |==|  0.50404
USER: genes 26 Torsion [C]-N--CA-[C] |==|  0.51949
USER: genes 27 Torsion [N]-CA--C-[OXT] |==|  0.42724
USER: genes 28 Torsion [N]-CA--CB-[CG] |==|  0.52618
USER: genes 29 Torsion [CA]-CB--CG-[CD] |==|  0.58081
USER: genes 30 Torsion [CB]-CG--CD-[OE1] |==|  0.69220
USER: genes 31 Torsion [N]-CA--CB-[CG] |==|  0.72862
USER: genes 32 Torsion [CA]-CB--CG-[CD2] |==|  0.36482
USER: genes 33 Torsion [N]-CA--CB-[CG] |==|  0.18279
USER: genes 34 Torsion [CA]-CB--CG-[CD1] |==|  0.80618
ROOT
ATOM      1  CA  PHE B 689     -24.464   2.743  28.563  1.00 23.75 LIG 0.18  C 
ENDROOT
BRANCH 1 2
ATOM      2  N   PHE B 689     -23.722   3.323  29.699  1.00 25.36 LIG-0.35  N 
ATOM      3 H    PHE B 689     -23.943   2.996  30.463  1.00 25.36 LIG 0.16  HD
ATOM      4  C   LYS B 688     -22.798   4.267  29.547  1.00 27.14 LIG 0.24  C 
ATOM      5 O    LYS B 688     -22.507   4.752  28.461  1.00 24.82 LIG-0.27  OA
BRANCH 4 6
ATOM      6  CA  LYS B 688     -22.104   4.759  30.812  1.00 29.11 LIG 0.18  C 
BRANCH 6 7
ATOM      7  N   LYS B 688     -22.290   3.785  31.897  1.00 31.24 LIG-0.35  N 
ATOM      8  C   TYR B 687     -22.551   4.168  33.145  1.00 34.73 LIG 0.24  C 
ATOM      9 O    TYR B 687     -22.632   5.358  33.486  1.00 34.89 LIG-0.27  OA
ATOM     10 H    LYS B 688     -22.216   2.964  31.653  1.00 31.24 LIG 0.16  HD
BRANCH 8 11
ATOM     11  CA  TYR B 687     -22.776   3.061  34.164  1.00 37.40 LIG 0.18  C 
BRANCH 11 12
ATOM     12  N   TYR B 687     -21.717   2.967  35.162  1.00 39.68 LIG-0.34  N 
ATOM     13 H    TYR B 687     -21.806   3.507  35.826  1.00 39.68 LIG 0.16  HD
ATOM     14  C   THR B 686     -20.708   2.107  35.032  1.00 41.22 LIG 0.26  C 
ATOM     15 O    THR B 686     -20.475   1.489  33.990  1.00 41.89 LIG-0.27  OA
BRANCH 14 16
ATOM     16  CA  THR B 686     -19.824   1.904  36.265  1.00 42.81 LIG 0.43  C 
ATOM     17  N   THR B 686     -19.147   3.169  36.702  1.00 43.04 LIG 0.62  N 
BRANCH 16 18
ATOM     18  CB  THR B 686     -20.740   1.292  37.370  1.00 43.12 LIG 0.16  C 
ATOM     19  CG2 THR B 686     -20.934  -0.236  37.156  1.00 43.85 LIG 0.04  C 
BRANCH 18 20
ATOM     20 OG1  THR B 686     -20.205   1.553  38.672  1.00 44.58 LIG-0.39  OA
ATOM     21 HG1  THR B 686     -19.441   1.210  38.735  1.00 44.58 LIG 0.21  HD
ENDBRANCH 18 20
ENDBRANCH 16 18
ENDBRANCH 14 16
ENDBRANCH 11 12
BRANCH 11 22
ATOM     22  CB  TYR B 687     -24.107   3.294  34.864  1.00 38.54 LIG 0.07  C 
BRANCH 22 23
ATOM     23  CG  TYR B 687     -24.590   2.143  35.703  1.00 40.36 LIG-0.06  A 
ATOM     24  CD2 TYR B 687     -25.380   1.133  35.140  1.00 43.44 LIG 0.01  A 
ATOM     25  CE2 TYR B 687     -25.821   0.053  35.910  1.00 43.74 LIG 0.04  A 
ATOM     26  CZ  TYR B 687     -25.463  -0.007  37.252  1.00 42.51 LIG 0.07  A 
ATOM     27  CE1 TYR B 687     -24.677   0.988  37.826  1.00 41.41 LIG 0.04  A 
ATOM     28  CD1 TYR B 687     -24.250   2.049  37.051  1.00 40.86 LIG 0.01  A 
BRANCH 26 29
ATOM     29 OH   TYR B 687     -25.894  -1.072  38.008  1.00 42.23 LIG-0.36  OA
ATOM     30 HH   TYR B 687     -26.551  -1.436  37.630  1.00 42.23 LIG 0.22  HD
ENDBRANCH 26 29
ENDBRANCH 22 23
ENDBRANCH 11 22
ENDBRANCH 8 11
ENDBRANCH 6 7
BRANCH 6 31
ATOM     31  CB  LYS B 688     -20.615   4.940  30.549  1.00 31.14 LIG 0.04  C 
BRANCH 31 32
ATOM     32  CG  LYS B 688     -20.078   6.293  30.893  1.00 35.59 LIG 0.00  C 
BRANCH 32 33
ATOM     33  CD  LYS B 688     -20.887   7.410  30.248  1.00 43.16 LIG 0.03  C 
BRANCH 33 34
ATOM     34  CE  LYS B 688     -19.958   8.478  29.648  1.00 45.87 LIG 0.23  C 
BRANCH 34 35
ATOM     35  NZ  LYS B 688     -18.577   7.935  29.342  1.00 48.40 LIG-0.08  N 
ATOM     36 HZ2  LYS B 688     -18.332   7.368  29.983  1.00 48.40 LIG 0.27  HD
ATOM     37 HZ3  LYS B 688     -18.591   7.510  28.561  1.00 48.40 LIG 0.27  HD
ATOM     38 HZ1  LYS B 688     -17.995   8.607  29.304  1.00 48.40 LIG 0.27  HD
ENDBRANCH 34 35
ENDBRANCH 33 34
ENDBRANCH 32 33
ENDBRANCH 31 32
ENDBRANCH 6 31
ENDBRANCH 4 6
ENDBRANCH 1 2
BRANCH 1 39
ATOM     39  C   PHE B 689     -25.562   3.674  28.074  1.00 24.45 LIG 0.24  C 
ATOM     40  N   PHE B 690     -25.364   4.271  26.914  1.00 21.51 LIG-0.35  N 
ATOM     41 H    PHE B 690     -24.627   4.235  26.472  1.00 21.51 LIG 0.16  HD
ATOM     42 O    PHE B 689     -26.582   3.870  28.746  1.00 26.25 LIG-0.27  OA
BRANCH 40 43
ATOM     43  CA  PHE B 690     -26.414   5.059  26.278  1.00 22.61 LIG 0.18  C 
BRANCH 43 44
ATOM     44  C   PHE B 690     -25.899   5.549  24.949  1.00 22.66 LIG 0.24  C 
ATOM     45 O    PHE B 690     -26.335   6.568  24.465  1.00 22.36 LIG-0.27  OA
ATOM     46  N   GLU B 691     -24.963   4.799  24.377  1.00 25.08 LIG-0.35  N 
ATOM     47 H    GLU B 691     -24.649   4.082  24.732  1.00 25.08 LIG 0.16  HD
BRANCH 46 48
ATOM     48  CA  GLU B 691     -24.371   5.121  23.083  1.00 27.99 LIG 0.18  C 
BRANCH 48 49
ATOM     49  CB  GLU B 691     -22.855   5.258  23.226  1.00 28.84 LIG 0.04  C 
BRANCH 49 50
ATOM     50  CG  GLU B 691     -22.152   3.899  23.274  1.00 33.53 LIG 0.12  C 
BRANCH 50 51
ATOM     51  CD  GLU B 691     -20.812   3.881  22.526  1.00 40.22 LIG 0.17  C 
ATOM     52 OE1  GLU B 691     -20.193   4.961  22.343  1.00 42.38 LIG-0.65  OA
ATOM     53 OE2  GLU B 691     -20.382   2.770  22.117  1.00 45.19 LIG-0.65  OA
ENDBRANCH 50 51
ENDBRANCH 49 50
ENDBRANCH 48 49
BRANCH 48 54
ATOM     54  C   GLU B 691     -24.707   4.112  21.993  1.00 29.69 LIG 0.24  C 
ATOM     55 O    GLU B 691     -25.438   3.134  22.238  1.00 29.49 LIG-0.27  OA
ATOM     56  N   GLN B 692     -24.173   4.337  20.800  1.00 30.92 LIG-0.34  N 
ATOM     57 H    GLN B 692     -23.701   5.026  20.594  1.00 30.92 LIG 0.16  HD
BRANCH 56 58
ATOM     58  CA  GLN B 692     -24.372   3.369  19.720  1.00 33.57 LIG 0.19  C 
BRANCH 58 59
ATOM     59  C   GLN B 692     -23.541   3.728  18.501  1.00 34.50 LIG 0.20  C 
ATOM     60 O    GLN B 692     -23.191   4.906  18.315  1.00 34.98 LIG-0.65  OA
ATOM     61 OXT  GLN B 692     -23.189   2.833  17.707  1.00 35.71 LIG-0.65  OA
ENDBRANCH 58 59
BRANCH 58 62
ATOM     62  CB  GLN B 692     -25.867   3.296  19.347  1.00 33.00 LIG 0.04  C 
BRANCH 62 63
ATOM     63  CG  GLN B 692     -26.218   2.155  18.389  0.80 34.02 LIG 0.10  C 
BRANCH 63 64
ATOM     64  CD  GLN B 692     -27.412   2.449  17.498  0.80 34.38 LIG 0.21  C 
ATOM     65  NE2 GLN B 692     -27.230   3.367  16.546  0.80 37.28 LIG-0.37  N 
ATOM     66 21HE GLN B 692     -26.471   3.765  16.473  0.80 37.28 LIG 0.16  HD
ATOM     67 22HE GLN B 692     -27.870   3.559  16.005  0.80 37.28 LIG 0.16  HD
ATOM     68 OE1  GLN B 692     -28.477   1.850  17.646  0.80 37.51 LIG-0.27  OA
ENDBRANCH 63 64
ENDBRANCH 62 63
ENDBRANCH 58 62
ENDBRANCH 56 58
ENDBRANCH 48 54
ENDBRANCH 46 48
ENDBRANCH 43 44
BRANCH 43 69
ATOM     69  CB  PHE B 690     -26.828   6.254  27.158  1.00 21.72 LIG 0.07  C 
BRANCH 69 70
ATOM     70  CG  PHE B 690     -28.066   6.019  27.994  1.00 20.05 LIG-0.06  A 
ATOM     71  CD2 PHE B 690     -28.065   6.325  29.343  1.00 19.86 LIG 0.01  A 
ATOM     72  CE2 PHE B 690     -29.197   6.115  30.152  1.00 20.22 LIG 0.00  A 
ATOM     73  CZ  PHE B 690     -30.322   5.528  29.578  1.00 19.78 LIG 0.00  A 
ATOM     74  CE1 PHE B 690     -30.331   5.217  28.250  1.00 19.59 LIG 0.00  A 
ATOM     75  CD1 PHE B 690     -29.191   5.432  27.446  1.00 20.29 LIG 0.01  A 
ENDBRANCH 69 70
ENDBRANCH 43 69
ENDBRANCH 40 43
ENDBRANCH 1 39
BRANCH 1 76
ATOM     76  CB  PHE B 689     -25.066   1.376  28.917  1.00 23.35 LIG 0.07  C 
BRANCH 76 77
ATOM     77  CG  PHE B 689     -26.114   1.460  29.954  1.00 24.01 LIG-0.06  A 
ATOM     78  CD2 PHE B 689     -27.452   1.211  29.640  1.00 25.22 LIG 0.01  A 
ATOM     79  CE2 PHE B 689     -28.444   1.249  30.632  1.00 25.32 LIG 0.00  A 
ATOM     80  CZ  PHE B 689     -28.100   1.596  31.948  1.00 27.81 LIG 0.00  A 
ATOM     81  CE1 PHE B 689     -26.768   1.858  32.273  1.00 24.81 LIG 0.00  A 
ATOM     82  CD1 PHE B 689     -25.775   1.776  31.278  1.00 27.61 LIG 0.01  A 
ENDBRANCH 76 77
ENDBRANCH 1 76
TORSDOF 33
ENDMDL
MODEL 8
USER: ADFR SOLUTION from run 22
USER: SCORE 20.143003 LL:  -5.388 LR: -18.840 RR:   0.000 FEB:  -8.996
USER: RMSD 6.747498
USER: SEED 21
USER: STATUS no improvement in best in 13 clusters for 5 generations
USER: GENES 35
USER: genes 0 Translation |==|  0.60616 0.48300 0.61654
USER: genes 1 Rotation |==|  0.29695 0.44978 0.06825 0.64085
USER: genes 2 Torsion [C]-CA--N-[C] |==|  0.68060
USER: genes 3 Torsion [N]-C--CA-[N] |==|  0.57262
USER: genes 4 Torsion [C]-CA--N-[C] |==|  0.15197
USER: genes 5 Torsion [N]-C--CA-[N] |==|  0.57777
USER: genes 6 Torsion [C]-CA--N-[C] |==|  0.60724
USER: genes 7 Torsion [N]-C--CA-[N] |==|  0.33546
USER: genes 8 Torsion [C]-CA--CB-[CG2] |==|  0.13643
USER: genes 9 Torsion [CA]-CB--OG1-[HG1] |==|  0.16530
USER: genes 10 Torsion [C]-CA--CB-[CG] |==|  0.66929
USER: genes 11 Torsion [CA]-CB--CG-[CD1] |==|  0.74895
USER: genes 12 Torsion [CE2]-CZ--OH-[HH] |==|  0.76727
USER: genes 13 Torsion [C]-CA--CB-[CG] |==|  0.43778
USER: genes 14 Torsion [CA]-CB--CG-[CD] |==|  0.22589
USER: genes 15 Torsion [CB]-CG--CD-[CE] |==|  0.69464
USER: genes 16 Torsion [CG]-CD--CE-[NZ] |==|  0.58102
USER: genes 17 Torsion [CD]-CE--NZ-[HZ2] |==|  0.04248
USER: genes 18 Torsion [N]-CA--C-[N] |==|  0.40633
USER: genes 19 Torsion [C]-N--CA-[CB] |==|  0.38804
USER: genes 20 Torsion [N]-CA--C-[N] |==|  0.28517
USER: genes 21 Torsion [C]-N--CA-[CB] |==|  0.23748
USER: genes 22 Torsion [N]-CA--CB-[CG] |==|  0.74598
USER: genes 23 Torsion [CA]-CB--CG-[CD] |==|  0.35754
USER: genes 24 Torsion [CB]-CG--CD-[OE2] |==|  0.36712
USER: genes 25 Torsion [N]-CA--C-[N] |==|  0.07538
USER: genes 26 Torsion [C]-N--CA-[C] |==|  0.17651
USER: genes 27 Torsion [N]-CA--C-[OXT] |==|  0.45163
USER: genes 28 Torsion [N]-CA--CB-[CG] |==|  0.61188
USER: genes 29 Torsion [CA]-CB--CG-[CD] |==|  0.48835
USER: genes 30 Torsion [CB]-CG--CD-[OE1] |==|  0.39593
USER: genes 31 Torsion [N]-CA--CB-[CG] |==|  0.77113
USER: genes 32 Torsion [CA]-CB--CG-[CD2] |==|  0.42164
USER: genes 33 Torsion [N]-CA--CB-[CG] |==|  0.94829
USER: genes 34 Torsion [CA]-CB--CG-[CD1] |==|  0.30591
ROOT
ATOM      1  CA  PHE B 689     -22.621   6.479  30.113  1.00 23.75 LIG 0.18  C 
ENDROOT
BRANCH 1 2
ATOM      2  N   PHE B 689     -21.779   5.829  31.136  1.00 25.36 LIG-0.35  N 
ATOM      3 H    PHE B 689     -21.041   5.512  30.829  1.00 25.36 LIG 0.16  HD
ATOM      4  C   LYS B 688     -22.137   5.744  32.413  1.00 27.14 LIG 0.24  C 
ATOM      5 O    LYS B 688     -23.202   6.169  32.841  1.00 24.82 LIG-0.27  OA
BRANCH 4 6
ATOM      6  CA  LYS B 688     -21.157   5.057  33.357  1.00 29.11 LIG 0.18  C 
BRANCH 6 7
ATOM      7  N   LYS B 688     -21.880   4.490  34.505  1.00 31.24 LIG-0.35  N 
ATOM      8  C   TYR B 687     -22.900   3.650  34.344  1.00 34.73 LIG 0.24  C 
ATOM      9 O    TYR B 687     -23.325   3.305  33.231  1.00 34.89 LIG-0.27  OA
ATOM     10 H    LYS B 688     -21.588   4.749  35.271  1.00 31.24 LIG 0.16  HD
BRANCH 8 11
ATOM     11  CA  TYR B 687     -23.528   3.092  35.613  1.00 37.40 LIG 0.18  C 
BRANCH 11 12
ATOM     12  N   TYR B 687     -24.135   1.778  35.430  1.00 39.68 LIG-0.34  N 
ATOM     13 H    TYR B 687     -23.693   1.252  34.913  1.00 39.68 LIG 0.16  HD
ATOM     14  C   THR B 686     -25.280   1.448  36.027  1.00 41.22 LIG 0.26  C 
ATOM     15 O    THR B 686     -26.008   2.266  36.594  1.00 41.89 LIG-0.27  OA
BRANCH 14 16
ATOM     16  CA  THR B 686     -25.665  -0.033  35.987  1.00 42.81 LIG 0.43  C 
ATOM     17  N   THR B 686     -25.816  -0.625  37.358  1.00 43.04 LIG 0.62  N 
BRANCH 16 18
ATOM     18  CB  THR B 686     -26.970  -0.129  35.137  1.00 43.12 LIG 0.16  C 
ATOM     19  CG2 THR B 686     -26.824   0.646  33.796  1.00 43.85 LIG 0.04  C 
BRANCH 18 20
ATOM     20 OG1  THR B 686     -27.316  -1.496  34.892  1.00 44.58 LIG-0.39  OA
ATOM     21 HG1  THR B 686     -27.433  -1.891  35.624  1.00 44.58 LIG 0.21  HD
ENDBRANCH 18 20
ENDBRANCH 16 18
ENDBRANCH 14 16
ENDBRANCH 11 12
BRANCH 11 22
ATOM     22  CB  TYR B 687     -22.465   3.007  36.697  1.00 38.54 LIG 0.07  C 
BRANCH 22 23
ATOM     23  CG  TYR B 687     -22.200   1.620  37.217  1.00 40.36 LIG-0.06  A 
ATOM     24  CD2 TYR B 687     -21.223   0.812  36.625  1.00 43.44 LIG 0.01  A 
ATOM     25  CE2 TYR B 687     -20.962  -0.472  37.112  1.00 43.74 LIG 0.04  A 
ATOM     26  CZ  TYR B 687     -21.691  -0.941  38.199  1.00 42.51 LIG 0.07  A 
ATOM     27  CE1 TYR B 687     -22.666  -0.149  38.799  1.00 41.41 LIG 0.04  A 
ATOM     28  CD1 TYR B 687     -22.911   1.119  38.305  1.00 40.86 LIG 0.01  A 
BRANCH 26 29
ATOM     29 OH   TYR B 687     -21.431  -2.203  38.679  1.00 42.23 LIG-0.36  OA
ATOM     30 HH   TYR B 687     -21.857  -2.768  38.227  1.00 42.23 LIG 0.22  HD
ENDBRANCH 26 29
ENDBRANCH 22 23
ENDBRANCH 11 22
ENDBRANCH 8 11
ENDBRANCH 6 7
BRANCH 6 31
ATOM     31  CB  LYS B 688     -20.427   3.941  32.623  1.00 31.14 LIG 0.04  C 
BRANCH 31 32
ATOM     32  CG  LYS B 688     -19.116   3.546  33.226  1.00 35.59 LIG 0.00  C 
BRANCH 32 33
ATOM     33  CD  LYS B 688     -19.291   2.596  34.402  1.00 43.16 LIG 0.03  C 
BRANCH 33 34
ATOM     34  CE  LYS B 688     -18.938   3.296  35.725  1.00 45.87 LIG 0.23  C 
BRANCH 34 35
ATOM     35  NZ  LYS B 688     -18.413   2.328  36.767  1.00 48.40 LIG-0.08  N 
ATOM     36 HZ2  LYS B 688     -18.190   1.562  36.375  1.00 48.40 LIG 0.27  HD
ATOM     37 HZ3  LYS B 688     -17.697   2.678  37.162  1.00 48.40 LIG 0.27  HD
ATOM     38 HZ1  LYS B 688     -19.044   2.177  37.376  1.00 48.40 LIG 0.27  HD
ENDBRANCH 34 35
ENDBRANCH 33 34
ENDBRANCH 32 33
ENDBRANCH 31 32
ENDBRANCH 6 31
ENDBRANCH 4 6
ENDBRANCH 1 2
BRANCH 1 39
ATOM     39  C   PHE B 689     -23.109   5.483  29.072  1.00 24.45 LIG 0.24  C 
ATOM     40  N   PHE B 690     -24.307   5.693  28.562  1.00 21.51 LIG-0.35  N 
ATOM     41 H    PHE B 690     -24.853   6.295  28.844  1.00 21.51 LIG 0.16  HD
ATOM     42 O    PHE B 689     -22.415   4.515  28.737  1.00 26.25 LIG-0.27  OA
BRANCH 40 43
ATOM     43  CA  PHE B 690     -24.808   4.895  27.448  1.00 22.61 LIG 0.18  C 
BRANCH 43 44
ATOM     44  C   PHE B 690     -24.614   5.683  26.177  1.00 22.66 LIG 0.24  C 
ATOM     45 O    PHE B 690     -25.367   6.589  25.902  1.00 22.36 LIG-0.27  OA
ATOM     46  N   GLU B 691     -23.589   5.315  25.416  1.00 25.08 LIG-0.35  N 
ATOM     47 H    GLU B 691     -23.052   4.677  25.624  1.00 25.08 LIG 0.16  HD
BRANCH 46 48
ATOM     48  CA  GLU B 691     -23.274   5.960  24.146  1.00 27.99 LIG 0.18  C 
BRANCH 48 49
ATOM     49  CB  GLU B 691     -22.405   7.194  24.395  1.00 28.84 LIG 0.04  C 
BRANCH 49 50
ATOM     50  CG  GLU B 691     -23.239   8.466  24.570  1.00 33.53 LIG 0.12  C 
BRANCH 50 51
ATOM     51  CD  GLU B 691     -22.883   9.257  25.836  1.00 40.22 LIG 0.17  C 
ATOM     52 OE1  GLU B 691     -22.788   8.652  26.935  1.00 42.38 LIG-0.65  OA
ATOM     53 OE2  GLU B 691     -22.702  10.498  25.722  1.00 45.19 LIG-0.65  OA
ENDBRANCH 50 51
ENDBRANCH 49 50
ENDBRANCH 48 49
BRANCH 48 54
ATOM     54  C   GLU B 691     -22.597   5.034  23.146  1.00 29.69 LIG 0.24  C 
ATOM     55 O    GLU B 691     -21.844   5.492  22.265  1.00 29.49 LIG-0.27  OA
ATOM     56  N   GLN B 692     -22.866   3.741  23.268  1.00 30.92 LIG-0.34  N 
ATOM     57 H    GLN B 692     -23.347   3.395  23.891  1.00 30.92 LIG 0.16  HD
BRANCH 56 58
ATOM     58  CA  GLN B 692     -22.327   2.791  22.292  1.00 33.57 LIG 0.19  C 
BRANCH 58 59
ATOM     59  C   GLN B 692     -20.810   2.760  22.336  1.00 34.50 LIG 0.20  C 
ATOM     60 O    GLN B 692     -20.188   3.675  22.903  1.00 34.98 LIG-0.65  OA
ATOM     61 OXT  GLN B 692     -20.196   1.802  21.827  1.00 35.71 LIG-0.65  OA
ENDBRANCH 58 59
BRANCH 58 62
ATOM     62  CB  GLN B 692     -22.816   3.157  20.876  1.00 33.00 LIG 0.04  C 
BRANCH 62 63
ATOM     63  CG  GLN B 692     -23.199   1.949  20.015  0.80 34.02 LIG 0.10  C 
BRANCH 63 64
ATOM     64  CD  GLN B 692     -23.774   2.322  18.660  0.80 34.38 LIG 0.21  C 
ATOM     65  NE2 GLN B 692     -24.548   3.408  18.622  0.80 37.28 LIG-0.37  N 
ATOM     66 21HE GLN B 692     -24.707   3.848  19.344  0.80 37.28 LIG 0.16  HD
ATOM     67 22HE GLN B 692     -24.885   3.670  17.875  0.80 37.28 LIG 0.16  HD
ATOM     68 OE1  GLN B 692     -23.513   1.657  17.657  0.80 37.51 LIG-0.27  OA
ENDBRANCH 63 64
ENDBRANCH 62 63
ENDBRANCH 58 62
ENDBRANCH 56 58
ENDBRANCH 48 54
ENDBRANCH 46 48
ENDBRANCH 43 44
BRANCH 43 69
ATOM     69  CB  PHE B 690     -26.297   4.548  27.633  1.00 21.72 LIG 0.07  C 
BRANCH 69 70
ATOM     70  CG  PHE B 690     -26.559   3.357  28.527  1.00 20.05 LIG-0.06  A 
ATOM     71  CD2 PHE B 690     -27.739   3.267  29.243  1.00 19.86 LIG 0.01  A 
ATOM     72  CE2 PHE B 690     -28.012   2.176  30.087  1.00 20.22 LIG 0.00  A 
ATOM     73  CZ  PHE B 690     -27.035   1.196  30.243  1.00 19.78 LIG 0.00  A 
ATOM     74  CE1 PHE B 690     -25.865   1.279  29.546  1.00 19.59 LIG 0.00  A 
ATOM     75  CD1 PHE B 690     -25.599   2.377  28.700  1.00 20.29 LIG 0.01  A 
ENDBRANCH 69 70
ENDBRANCH 43 69
ENDBRANCH 40 43
ENDBRANCH 1 39
BRANCH 1 76
ATOM     76  CB  PHE B 689     -21.883   7.632  29.418  1.00 23.35 LIG 0.07  C 
BRANCH 76 77
ATOM     77  CG  PHE B 689     -20.718   8.115  30.186  1.00 24.01 LIG-0.06  A 
ATOM     78  CD2 PHE B 689     -20.891   8.799  31.391  1.00 25.22 LIG 0.01  A 
ATOM     79  CE2 PHE B 689     -19.784   9.223  32.144  1.00 25.32 LIG 0.00  A 
ATOM     80  CZ  PHE B 689     -18.486   9.009  31.654  1.00 27.81 LIG 0.00  A 
ATOM     81  CE1 PHE B 689     -18.301   8.336  30.445  1.00 24.81 LIG 0.00  A 
ATOM     82  CD1 PHE B 689     -19.416   7.879  29.720  1.00 27.61 LIG 0.01  A 
ENDBRANCH 76 77
ENDBRANCH 1 76
TORSDOF 33
ENDMDL
MODEL 9
USER: ADFR SOLUTION from run 22
USER: SCORE 21.189373 LL:  -6.180 LR: -18.819 RR:   0.000 FEB:  -8.975
USER: RMSD 6.727427
USER: SEED 21
USER: STATUS no improvement in best in 13 clusters for 5 generations
USER: GENES 35
USER: genes 0 Translation |==|  0.61485 0.47966 0.61407
USER: genes 1 Rotation |==|  0.30484 0.45386 0.06174 0.63308
USER: genes 2 Torsion [C]-CA--N-[C] |==|  0.65107
USER: genes 3 Torsion [N]-C--CA-[N] |==|  0.59775
USER: genes 4 Torsion [C]-CA--N-[C] |==|  0.15307
USER: genes 5 Torsion [N]-C--CA-[N] |==|  0.59065
USER: genes 6 Torsion [C]-CA--N-[C] |==|  0.57954
USER: genes 7 Torsion [N]-C--CA-[N] |==|  0.34376
USER: genes 8 Torsion [C]-CA--CB-[CG2] |==|  0.13580
USER: genes 9 Torsion [CA]-CB--OG1-[HG1] |==|  0.18831
USER: genes 10 Torsion [C]-CA--CB-[CG] |==|  0.67869
USER: genes 11 Torsion [CA]-CB--CG-[CD1] |==|  0.72157
USER: genes 12 Torsion [CE2]-CZ--OH-[HH] |==|  0.76092
USER: genes 13 Torsion [C]-CA--CB-[CG] |==|  0.42660
USER: genes 14 Torsion [CA]-CB--CG-[CD] |==|  0.22633
USER: genes 15 Torsion [CB]-CG--CD-[CE] |==|  0.70250
USER: genes 16 Torsion [CG]-CD--CE-[NZ] |==|  0.57891
USER: genes 17 Torsion [CD]-CE--NZ-[HZ2] |==|  0.03755
USER: genes 18 Torsion [N]-CA--C-[N] |==|  0.40412
USER: genes 19 Torsion [C]-N--CA-[CB] |==|  0.35170
USER: genes 20 Torsion [N]-CA--C-[N] |==|  0.35266
USER: genes 21 Torsion [C]-N--CA-[CB] |==|  0.15157
USER: genes 22 Torsion [N]-CA--CB-[CG] |==|  0.68657
USER: genes 23 Torsion [CA]-CB--CG-[CD] |==|  0.64177
USER: genes 24 Torsion [CB]-CG--CD-[OE2] |==|  0.98787
USER: genes 25 Torsion [N]-CA--C-[N] |==|  0.18333
USER: genes 26 Torsion [C]-N--CA-[C] |==|  0.69204
USER: genes 27 Torsion [N]-CA--C-[OXT] |==|  0.28452
USER: genes 28 Torsion [N]-CA--CB-[CG] |==|  0.68680
USER: genes 29 Torsion [CA]-CB--CG-[CD] |==|  0.21776
USER: genes 30 Torsion [CB]-CG--CD-[OE1] |==|  0.74674
USER: genes 31 Torsion [N]-CA--CB-[CG] |==|  0.82319
USER: genes 32 Torsion [CA]-CB--CG-[CD2] |==|  0.29428
USER: genes 33 Torsion [N]-CA--CB-[CG] |==|  0.53449
USER: genes 34 Torsion [CA]-CB--CG-[CD1] |==|  0.11872
ROOT
ATOM      1  CA  PHE B 689     -22.451   6.413  30.031  1.00 23.75 LIG 0.18  C 
ENDROOT
BRANCH 1 2
ATOM      2  N   PHE B 689     -21.673   5.720  31.075  1.00 25.36 LIG-0.35  N 
ATOM      3 H    PHE B 689     -21.014   5.258  30.769  1.00 25.36 LIG 0.16  HD
ATOM      4  C   LYS B 688     -21.968   5.805  32.368  1.00 27.14 LIG 0.24  C 
ATOM      5 O    LYS B 688     -22.924   6.438  32.797  1.00 24.82 LIG-0.27  OA
BRANCH 4 6
ATOM      6  CA  LYS B 688     -21.063   5.044  33.331  1.00 29.11 LIG 0.18  C 
BRANCH 6 7
ATOM      7  N   LYS B 688     -21.855   4.520  34.453  1.00 31.24 LIG-0.35  N 
ATOM      8  C   TYR B 687     -22.921   3.746  34.258  1.00 34.73 LIG 0.24  C 
ATOM      9 O    TYR B 687     -23.334   3.434  33.130  1.00 34.89 LIG-0.27  OA
ATOM     10 H    LYS B 688     -21.569   4.756  35.229  1.00 31.24 LIG 0.16  HD
BRANCH 8 11
ATOM     11  CA  TYR B 687     -23.620   3.224  35.504  1.00 37.40 LIG 0.18  C 
BRANCH 11 12
ATOM     12  N   TYR B 687     -24.212   1.903  35.326  1.00 39.68 LIG-0.34  N 
ATOM     13 H    TYR B 687     -23.812   1.410  34.746  1.00 39.68 LIG 0.16  HD
ATOM     14  C   THR B 686     -25.284   1.518  36.018  1.00 41.22 LIG 0.26  C 
ATOM     15 O    THR B 686     -25.971   2.292  36.688  1.00 41.89 LIG-0.27  OA
BRANCH 14 16
ATOM     16  CA  THR B 686     -25.637   0.030  35.953  1.00 42.81 LIG 0.43  C 
ATOM     17  N   THR B 686     -25.708  -0.604  37.311  1.00 43.04 LIG 0.62  N 
BRANCH 16 18
ATOM     18  CB  THR B 686     -26.979  -0.073  35.164  1.00 43.12 LIG 0.16  C 
ATOM     19  CG2 THR B 686     -26.919   0.747  33.844  1.00 43.85 LIG 0.04  C 
BRANCH 18 20
ATOM     20 OG1  THR B 686     -27.303  -1.440  34.891  1.00 44.58 LIG-0.39  OA
ATOM     21 HG1  THR B 686     -27.486  -1.834  35.610  1.00 44.58 LIG 0.21  HD
ENDBRANCH 18 20
ENDBRANCH 16 18
ENDBRANCH 14 16
ENDBRANCH 11 12
BRANCH 11 22
ATOM     22  CB  TYR B 687     -22.621   3.176  36.650  1.00 38.54 LIG 0.07  C 
BRANCH 22 23
ATOM     23  CG  TYR B 687     -22.324   1.797  37.173  1.00 40.36 LIG-0.06  A 
ATOM     24  CD2 TYR B 687     -21.419   0.963  36.508  1.00 43.44 LIG 0.01  A 
ATOM     25  CE2 TYR B 687     -21.127  -0.314  36.996  1.00 43.74 LIG 0.04  A 
ATOM     26  CZ  TYR B 687     -21.752  -0.749  38.159  1.00 42.51 LIG 0.07  A 
ATOM     27  CE1 TYR B 687     -22.654   0.069  38.833  1.00 41.41 LIG 0.04  A 
ATOM     28  CD1 TYR B 687     -22.931   1.329  38.337  1.00 40.86 LIG 0.01  A 
BRANCH 26 29
ATOM     29 OH   TYR B 687     -21.461  -2.004  38.640  1.00 42.23 LIG-0.36  OA
ATOM     30 HH   TYR B 687     -21.958  -2.569  38.267  1.00 42.23 LIG 0.22  HD
ENDBRANCH 26 29
ENDBRANCH 22 23
ENDBRANCH 11 22
ENDBRANCH 8 11
ENDBRANCH 6 7
BRANCH 6 31
ATOM     31  CB  LYS B 688     -20.393   3.886  32.605  1.00 31.14 LIG 0.04  C 
BRANCH 31 32
ATOM     32  CG  LYS B 688     -19.081   3.460  33.185  1.00 35.59 LIG 0.00  C 
BRANCH 32 33
ATOM     33  CD  LYS B 688     -19.258   2.540  34.385  1.00 43.16 LIG 0.03  C 
BRANCH 33 34
ATOM     34  CE  LYS B 688     -18.915   3.277  35.691  1.00 45.87 LIG 0.23  C 
BRANCH 34 35
ATOM     35  NZ  LYS B 688     -18.409   2.338  36.767  1.00 48.40 LIG-0.08  N 
ATOM     36 HZ2  LYS B 688     -18.211   1.550  36.404  1.00 48.40 LIG 0.27  HD
ATOM     37 HZ3  LYS B 688     -17.680   2.682  37.143  1.00 48.40 LIG 0.27  HD
ATOM     38 HZ1  LYS B 688     -19.039   2.229  37.386  1.00 48.40 LIG 0.27  HD
ENDBRANCH 34 35
ENDBRANCH 33 34
ENDBRANCH 32 33
ENDBRANCH 31 32
ENDBRANCH 6 31
ENDBRANCH 4 6
ENDBRANCH 1 2
BRANCH 1 39
ATOM     39  C   PHE B 689     -22.938   5.450  28.960  1.00 24.45 LIG 0.24  C 
ATOM     40  N   PHE B 690     -24.116   5.703  28.421  1.00 21.51 LIG-0.35  N 
ATOM     41 H    PHE B 690     -24.652   6.315  28.699  1.00 21.51 LIG 0.16  HD
ATOM     42 O    PHE B 689     -22.262   4.469  28.626  1.00 26.25 LIG-0.27  OA
BRANCH 40 43
ATOM     43  CA  PHE B 690     -24.607   4.938  27.280  1.00 22.61 LIG 0.18  C 
BRANCH 43 44
ATOM     44  C   PHE B 690     -24.658   5.854  26.084  1.00 22.66 LIG 0.24  C 
ATOM     45 O    PHE B 690     -25.245   6.909  26.149  1.00 22.36 LIG-0.27  OA
ATOM     46  N   GLU B 691     -24.028   5.424  24.996  1.00 25.08 LIG-0.35  N 
ATOM     47 H    GLU B 691     -23.603   4.678  24.960  1.00 25.08 LIG 0.16  HD
BRANCH 46 48
ATOM     48  CA  GLU B 691     -23.996   6.180  23.748  1.00 27.99 LIG 0.18  C 
BRANCH 48 49
ATOM     49  CB  GLU B 691     -23.465   7.589  24.011  1.00 28.84 LIG 0.04  C 
BRANCH 49 50
ATOM     50  CG  GLU B 691     -24.537   8.663  23.799  1.00 33.53 LIG 0.12  C 
BRANCH 50 51
ATOM     51  CD  GLU B 691     -24.082   9.802  22.877  1.00 40.22 LIG 0.17  C 
ATOM     52 OE1  GLU B 691     -24.902  10.700  22.556  1.00 42.38 LIG-0.65  OA
ATOM     53 OE2  GLU B 691     -22.890   9.789  22.471  1.00 45.19 LIG-0.65  OA
ENDBRANCH 50 51
ENDBRANCH 49 50
ENDBRANCH 48 49
BRANCH 48 54
ATOM     54  C   GLU B 691     -23.182   5.508  22.652  1.00 29.69 LIG 0.24  C 
ATOM     55 O    GLU B 691     -22.137   6.033  22.224  1.00 29.49 LIG-0.27  OA
ATOM     56  N   GLN B 692     -23.657   4.359  22.188  1.00 30.92 LIG-0.34  N 
ATOM     57 H    GLN B 692     -24.351   3.954  22.495  1.00 30.92 LIG 0.16  HD
BRANCH 56 58
ATOM     58  CA  GLN B 692     -22.984   3.691  21.072  1.00 33.57 LIG 0.19  C 
BRANCH 58 59
ATOM     59  C   GLN B 692     -23.835   3.729  19.816  1.00 34.50 LIG 0.20  C 
ATOM     60 O    GLN B 692     -24.813   2.970  19.706  1.00 34.98 LIG-0.65  OA
ATOM     61 OXT  GLN B 692     -23.566   4.544  18.911  1.00 35.71 LIG-0.65  OA
ENDBRANCH 58 59
BRANCH 58 62
ATOM     62  CB  GLN B 692     -22.656   2.232  21.453  1.00 33.00 LIG 0.04  C 
BRANCH 62 63
ATOM     63  CG  GLN B 692     -21.158   1.942  21.583  0.80 34.02 LIG 0.10  C 
BRANCH 63 64
ATOM     64  CD  GLN B 692     -20.552   2.426  22.890  0.80 34.38 LIG 0.21  C 
ATOM     65  NE2 GLN B 692     -20.566   1.560  23.906  0.80 37.28 LIG-0.37  N 
ATOM     66 21HE GLN B 692     -20.918   0.782  23.803  0.80 37.28 LIG 0.16  HD
ATOM     67 22HE GLN B 692     -20.222   1.780  24.663  0.80 37.28 LIG 0.16  HD
ATOM     68 OE1  GLN B 692     -20.061   3.550  22.983  0.80 37.51 LIG-0.27  OA
ENDBRANCH 63 64
ENDBRANCH 62 63
ENDBRANCH 58 62
ENDBRANCH 56 58
ENDBRANCH 48 54
ENDBRANCH 46 48
ENDBRANCH 43 44
BRANCH 43 69
ATOM     69  CB  PHE B 690     -26.005   4.354  27.558  1.00 21.72 LIG 0.07  C 
BRANCH 69 70
ATOM     70  CG  PHE B 690     -26.053   3.349  28.687  1.00 20.05 LIG-0.06  A 
ATOM     71  CD2 PHE B 690     -26.604   3.696  29.908  1.00 19.86 LIG 0.01  A 
ATOM     72  CE2 PHE B 690     -26.660   2.788  30.981  1.00 20.22 LIG 0.00  A 
ATOM     73  CZ  PHE B 690     -26.089   1.529  30.814  1.00 19.78 LIG 0.00  A 
ATOM     74  CE1 PHE B 690     -25.538   1.179  29.617  1.00 19.59 LIG 0.00  A 
ATOM     75  CD1 PHE B 690     -25.486   2.096  28.545  1.00 20.29 LIG 0.01  A 
ENDBRANCH 69 70
ENDBRANCH 43 69
ENDBRANCH 40 43
ENDBRANCH 1 39
BRANCH 1 76
ATOM     76  CB  PHE B 689     -21.646   7.546  29.379  1.00 23.35 LIG 0.07  C 
BRANCH 76 77
ATOM     77  CG  PHE B 689     -22.477   8.440  28.549  1.00 24.01 LIG-0.06  A 
ATOM     78  CD2 PHE B 689     -22.034   8.867  27.295  1.00 25.22 LIG 0.01  A 
ATOM     79  CE2 PHE B 689     -22.840   9.683  26.486  1.00 25.32 LIG 0.00  A 
ATOM     80  CZ  PHE B 689     -24.086  10.123  26.962  1.00 27.81 LIG 0.00  A 
ATOM     81  CE1 PHE B 689     -24.535   9.711  28.218  1.00 24.81 LIG 0.00  A 
ATOM     82  CD1 PHE B 689     -23.736   8.860  29.003  1.00 27.61 LIG 0.01  A 
ENDBRANCH 76 77
ENDBRANCH 1 76
TORSDOF 33
ENDMDL
MODEL 10
USER: ADFR SOLUTION from run 22
USER: SCORE 20.842309 LL:  -6.720 LR: -18.506 RR:   0.000 FEB:  -8.663
USER: RMSD 6.895449
USER: SEED 21
USER: STATUS no improvement in best in 13 clusters for 5 generations
USER: GENES 35
USER: genes 0 Translation |==|  0.62169 0.47979 0.61504
USER: genes 1 Rotation |==|  0.31034 0.45595 0.05833 0.63045
USER: genes 2 Torsion [C]-CA--N-[C] |==|  0.64883
USER: genes 3 Torsion [N]-C--CA-[N] |==|  0.60018
USER: genes 4 Torsion [C]-CA--N-[C] |==|  0.15262
USER: genes 5 Torsion [N]-C--CA-[N] |==|  0.59690
USER: genes 6 Torsion [C]-CA--N-[C] |==|  0.57657
USER: genes 7 Torsion [N]-C--CA-[N] |==|  0.34212
USER: genes 8 Torsion [C]-CA--CB-[CG2] |==|  0.15056
USER: genes 9 Torsion [CA]-CB--OG1-[HG1] |==|  0.19588
USER: genes 10 Torsion [C]-CA--CB-[CG] |==|  0.68659
USER: genes 11 Torsion [CA]-CB--CG-[CD1] |==|  0.69729
USER: genes 12 Torsion [CE2]-CZ--OH-[HH] |==|  0.82983
USER: genes 13 Torsion [C]-CA--CB-[CG] |==|  0.40184
USER: genes 14 Torsion [CA]-CB--CG-[CD] |==|  0.24931
USER: genes 15 Torsion [CB]-CG--CD-[CE] |==|  0.73991
USER: genes 16 Torsion [CG]-CD--CE-[NZ] |==|  0.55567
USER: genes 17 Torsion [CD]-CE--NZ-[HZ2] |==|  0.00676
USER: genes 18 Torsion [N]-CA--C-[N] |==|  0.37959
USER: genes 19 Torsion [C]-N--CA-[CB] |==|  0.36849
USER: genes 20 Torsion [N]-CA--C-[N] |==|  0.34304
USER: genes 21 Torsion [C]-N--CA-[CB] |==|  0.55215
USER: genes 22 Torsion [N]-CA--CB-[CG] |==|  0.65973
USER: genes 23 Torsion [CA]-CB--CG-[CD] |==|  0.26354
USER: genes 24 Torsion [CB]-CG--CD-[OE2] |==|  0.51628
USER: genes 25 Torsion [N]-CA--C-[N] |==|  0.84355
USER: genes 26 Torsion [C]-N--CA-[C] |==|  0.72042
USER: genes 27 Torsion [N]-CA--C-[OXT] |==|  0.36069
USER: genes 28 Torsion [N]-CA--CB-[CG] |==|  0.95093
USER: genes 29 Torsion [CA]-CB--CG-[CD] |==|  0.27455
USER: genes 30 Torsion [CB]-CG--CD-[OE1] |==|  0.72604
USER: genes 31 Torsion [N]-CA--CB-[CG] |==|  0.81237
USER: genes 32 Torsion [CA]-CB--CG-[CD2] |==|  0.32745
USER: genes 33 Torsion [N]-CA--CB-[CG] |==|  0.46128
USER: genes 34 Torsion [CA]-CB--CG-[CD1] |==|  0.19441
ROOT
ATOM      1  CA  PHE B 689     -22.318   6.416  30.063  1.00 23.75 LIG 0.18  C 
ENDROOT
BRANCH 1 2
ATOM      2  N   PHE B 689     -21.574   5.701  31.117  1.00 25.36 LIG-0.35  N 
ATOM      3 H    PHE B 689     -20.922   5.224  30.821  1.00 25.36 LIG 0.16  HD
ATOM      4  C   LYS B 688     -21.888   5.789  32.406  1.00 27.14 LIG 0.24  C 
ATOM      5 O    LYS B 688     -22.836   6.444  32.821  1.00 24.82 LIG-0.27  OA
BRANCH 4 6
ATOM      6  CA  LYS B 688     -21.018   5.004  33.381  1.00 29.11 LIG 0.18  C 
BRANCH 6 7
ATOM      7  N   LYS B 688     -21.844   4.478  34.477  1.00 31.24 LIG-0.35  N 
ATOM      8  C   TYR B 687     -22.918   3.725  34.247  1.00 34.73 LIG 0.24  C 
ATOM      9 O    TYR B 687     -23.310   3.435  33.106  1.00 34.89 LIG-0.27  OA
ATOM     10 H    LYS B 688     -21.574   4.699  35.263  1.00 31.24 LIG 0.16  HD
BRANCH 8 11
ATOM     11  CA  TYR B 687     -23.655   3.198  35.469  1.00 37.40 LIG 0.18  C 
BRANCH 11 12
ATOM     12  N   TYR B 687     -24.220   1.867  35.276  1.00 39.68 LIG-0.34  N 
ATOM     13 H    TYR B 687     -23.799   1.383  34.703  1.00 39.68 LIG 0.16  HD
ATOM     14  C   THR B 686     -25.298   1.462  35.945  1.00 41.22 LIG 0.26  C 
ATOM     15 O    THR B 686     -26.012   2.222  36.603  1.00 41.89 LIG-0.27  OA
BRANCH 14 16
ATOM     16  CA  THR B 686     -25.623  -0.033  35.870  1.00 42.81 LIG 0.43  C 
ATOM     17  N   THR B 686     -25.696  -0.674  37.225  1.00 43.04 LIG 0.62  N 
BRANCH 16 18
ATOM     18  CB  THR B 686     -26.956  -0.156  35.068  1.00 43.12 LIG 0.16  C 
ATOM     19  CG2 THR B 686     -26.851   0.561  33.692  1.00 43.85 LIG 0.04  C 
BRANCH 18 20
ATOM     20 OG1  THR B 686     -27.316  -1.530  34.892  1.00 44.58 LIG-0.39  OA
ATOM     21 HG1  THR B 686     -27.557  -1.853  35.629  1.00 44.58 LIG 0.21  HD
ENDBRANCH 18 20
ENDBRANCH 16 18
ENDBRANCH 14 16
ENDBRANCH 11 12
BRANCH 11 22
ATOM     22  CB  TYR B 687     -22.699   3.171  36.651  1.00 38.54 LIG 0.07  C 
BRANCH 22 23
ATOM     23  CG  TYR B 687     -22.348   1.796  37.150  1.00 40.36 LIG-0.06  A 
ATOM     24  CD2 TYR B 687     -21.512   0.959  36.401  1.00 43.44 LIG 0.01  A 
ATOM     25  CE2 TYR B 687     -21.170  -0.315  36.864  1.00 43.74 LIG 0.04  A 
ATOM     26  CZ  TYR B 687     -21.674  -0.744  38.088  1.00 42.51 LIG 0.07  A 
ATOM     27  CE1 TYR B 687     -22.504   0.078  38.844  1.00 41.41 LIG 0.04  A 
ATOM     28  CD1 TYR B 687     -22.833   1.334  38.372  1.00 40.86 LIG 0.01  A 
BRANCH 26 29
ATOM     29 OH   TYR B 687     -21.333  -1.995  38.544  1.00 42.23 LIG-0.36  OA
ATOM     30 HH   TYR B 687     -21.609  -2.575  38.003  1.00 42.23 LIG 0.22  HD
ENDBRANCH 26 29
ENDBRANCH 22 23
ENDBRANCH 11 22
ENDBRANCH 8 11
ENDBRANCH 6 7
BRANCH 6 31
ATOM     31  CB  LYS B 688     -20.347   3.845  32.658  1.00 31.14 LIG 0.04  C 
BRANCH 31 32
ATOM     32  CG  LYS B 688     -18.963   3.529  33.131  1.00 35.59 LIG 0.00  C 
BRANCH 32 33
ATOM     33  CD  LYS B 688     -18.965   2.513  34.266  1.00 43.16 LIG 0.03  C 
BRANCH 33 34
ATOM     34  CE  LYS B 688     -18.959   3.221  35.631  1.00 45.87 LIG 0.23  C 
BRANCH 34 35
ATOM     35  NZ  LYS B 688     -18.480   2.316  36.747  1.00 48.40 LIG-0.08  N 
ATOM     36 HZ2  LYS B 688     -18.248   1.526  36.410  1.00 48.40 LIG 0.27  HD
ATOM     37 HZ3  LYS B 688     -17.776   2.685  37.148  1.00 48.40 LIG 0.27  HD
ATOM     38 HZ1  LYS B 688     -19.134   2.205  37.340  1.00 48.40 LIG 0.27  HD
ENDBRANCH 34 35
ENDBRANCH 33 34
ENDBRANCH 32 33
ENDBRANCH 31 32
ENDBRANCH 6 31
ENDBRANCH 4 6
ENDBRANCH 1 2
BRANCH 1 39
ATOM     39  C   PHE B 689     -22.793   5.470  28.971  1.00 24.45 LIG 0.24  C 
ATOM     40  N   PHE B 690     -24.026   5.636  28.533  1.00 21.51 LIG-0.35  N 
ATOM     41 H    PHE B 690     -24.595   6.177  28.886  1.00 21.51 LIG 0.16  HD
ATOM     42 O    PHE B 689     -22.056   4.580  28.530  1.00 26.25 LIG-0.27  OA
BRANCH 40 43
ATOM     43  CA  PHE B 690     -24.530   4.892  27.384  1.00 22.61 LIG 0.18  C 
BRANCH 43 44
ATOM     44  C   PHE B 690     -24.615   5.835  26.211  1.00 22.66 LIG 0.24  C 
ATOM     45 O    PHE B 690     -25.266   6.850  26.291  1.00 22.36 LIG-0.27  OA
ATOM     46  N   GLU B 691     -23.941   5.471  25.124  1.00 25.08 LIG-0.35  N 
ATOM     47 H    GLU B 691     -23.471   4.753  25.078  1.00 25.08 LIG 0.16  HD
BRANCH 46 48
ATOM     48  CA  GLU B 691     -23.933   6.261  23.897  1.00 27.99 LIG 0.18  C 
BRANCH 48 49
ATOM     49  CB  GLU B 691     -23.483   5.389  22.724  1.00 28.84 LIG 0.04  C 
BRANCH 49 50
ATOM     50  CG  GLU B 691     -22.253   5.961  22.014  1.00 33.53 LIG 0.12  C 
BRANCH 50 51
ATOM     51  CD  GLU B 691     -20.930   5.367  22.517  1.00 40.22 LIG 0.17  C 
ATOM     52 OE1  GLU B 691     -20.954   4.425  23.349  1.00 42.38 LIG-0.65  OA
ATOM     53 OE2  GLU B 691     -19.859   5.858  22.072  1.00 45.19 LIG-0.65  OA
ENDBRANCH 50 51
ENDBRANCH 49 50
ENDBRANCH 48 49
BRANCH 48 54
ATOM     54  C   GLU B 691     -25.273   6.911  23.584  1.00 29.69 LIG 0.24  C 
ATOM     55 O    GLU B 691     -25.362   8.144  23.437  1.00 29.49 LIG-0.27  OA
ATOM     56  N   GLN B 692     -26.315   6.094  23.493  1.00 30.92 LIG-0.34  N 
ATOM     57 H    GLN B 692     -26.274   5.237  23.548  1.00 30.92 LIG 0.16  HD
BRANCH 56 58
ATOM     58  CA  GLN B 692     -27.655   6.645  23.283  1.00 33.57 LIG 0.19  C 
BRANCH 58 59
ATOM     59  C   GLN B 692     -28.440   6.689  24.582  1.00 34.50 LIG 0.20  C 
ATOM     60 O    GLN B 692     -28.486   5.685  25.313  1.00 34.98 LIG-0.65  OA
ATOM     61 OXT  GLN B 692     -29.012   7.744  24.924  1.00 35.71 LIG-0.65  OA
ENDBRANCH 58 59
BRANCH 58 62
ATOM     62  CB  GLN B 692     -28.409   5.808  22.229  1.00 33.00 LIG 0.04  C 
BRANCH 62 63
ATOM     63  CG  GLN B 692     -27.503   4.924  21.368  0.80 34.02 LIG 0.10  C 
BRANCH 63 64
ATOM     64  CD  GLN B 692     -27.445   3.477  21.826  0.80 34.38 LIG 0.21  C 
ATOM     65  NE2 GLN B 692     -28.441   2.686  21.420  0.80 37.28 LIG-0.37  N 
ATOM     66 21HE GLN B 692     -29.076   3.008  20.937  0.80 37.28 LIG 0.16  HD
ATOM     67 22HE GLN B 692     -28.447   1.855  21.640  0.80 37.28 LIG 0.16  HD
ATOM     68 OE1  GLN B 692     -26.512   3.067  22.517  0.80 37.51 LIG-0.27  OA
ENDBRANCH 63 64
ENDBRANCH 62 63
ENDBRANCH 58 62
ENDBRANCH 56 58
ENDBRANCH 48 54
ENDBRANCH 46 48
ENDBRANCH 43 44
BRANCH 43 69
ATOM     69  CB  PHE B 690     -25.915   4.284  27.675  1.00 21.72 LIG 0.07  C 
BRANCH 69 70
ATOM     70  CG  PHE B 690     -25.914   3.187  28.716  1.00 20.05 LIG-0.06  A 
ATOM     71  CD2 PHE B 690     -26.622   3.342  29.893  1.00 19.86 LIG 0.01  A 
ATOM     72  CE2 PHE B 690     -26.638   2.345  30.885  1.00 20.22 LIG 0.00  A 
ATOM     73  CZ  PHE B 690     -25.869   1.201  30.689  1.00 19.78 LIG 0.00  A 
ATOM     74  CE1 PHE B 690     -25.162   1.041  29.533  1.00 19.59 LIG 0.00  A 
ATOM     75  CD1 PHE B 690     -25.151   2.047  28.543  1.00 20.29 LIG 0.01  A 
ENDBRANCH 69 70
ENDBRANCH 43 69
ENDBRANCH 40 43
ENDBRANCH 1 39
BRANCH 1 76
ATOM     76  CB  PHE B 689     -21.482   7.544  29.442  1.00 23.35 LIG 0.07  C 
BRANCH 76 77
ATOM     77  CG  PHE B 689     -22.055   8.060  28.183  1.00 24.01 LIG-0.06  A 
ATOM     78  CD2 PHE B 689     -21.437   7.802  26.958  1.00 25.22 LIG 0.01  A 
ATOM     79  CE2 PHE B 689     -22.002   8.255  25.756  1.00 25.32 LIG 0.00  A 
ATOM     80  CZ  PHE B 689     -23.175   9.027  25.786  1.00 27.81 LIG 0.00  A 
ATOM     81  CE1 PHE B 689     -23.797   9.301  27.005  1.00 24.81 LIG 0.00  A 
ATOM     82  CD1 PHE B 689     -23.243   8.806  28.201  1.00 27.61 LIG 0.01  A 
ENDBRANCH 76 77
ENDBRANCH 1 76
TORSDOF 33
ENDMDL
MODEL 11
USER: ADFR SOLUTION from run 104
USER: SCORE 23.996690 LL:  -7.584 LR: -18.437 RR:   0.000 FEB:  -8.593
USER: RMSD 6.689738
USER: SEED 103
USER: STATUS searching
USER: GENES 35
USER: genes 0 Translation |==|  0.59833 0.46287 0.44619
USER: genes 1 Rotation |==|  0.75703 0.50999 0.90337 0.64536
USER: genes 2 Torsion [C]-CA--N-[C] |==|  0.76733
USER: genes 3 Torsion [N]-C--CA-[N] |==|  0.38841
USER: genes 4 Torsion [C]-CA--N-[C] |==|  0.65008
USER: genes 5 Torsion [N]-C--CA-[N] |==|  0.53309
USER: genes 6 Torsion [C]-CA--N-[C] |==|  0.61247
USER: genes 7 Torsion [N]-C--CA-[N] |==|  0.77010
USER: genes 8 Torsion [C]-CA--CB-[CG2] |==|  0.35996
USER: genes 9 Torsion [CA]-CB--OG1-[HG1] |==|  0.33116
USER: genes 10 Torsion [C]-CA--CB-[CG] |==|  0.82518
USER: genes 11 Torsion [CA]-CB--CG-[CD1] |==|  0.28853
USER: genes 12 Torsion [CE2]-CZ--OH-[HH] |==|  0.96022
USER: genes 13 Torsion [C]-CA--CB-[CG] |==|  0.49676
USER: genes 14 Torsion [CA]-CB--CG-[CD] |==|  0.61384
USER: genes 15 Torsion [CB]-CG--CD-[CE] |==|  0.85154
USER: genes 16 Torsion [CG]-CD--CE-[NZ] |==|  0.49382
USER: genes 17 Torsion [CD]-CE--NZ-[HZ2] |==|  0.46516
USER: genes 18 Torsion [N]-CA--C-[N] |==|  0.93571
USER: genes 19 Torsion [C]-N--CA-[CB] |==|  0.88226
USER: genes 20 Torsion [N]-CA--C-[N] |==|  0.82778
USER: genes 21 Torsion [C]-N--CA-[CB] |==|  0.86452
USER: genes 22 Torsion [N]-CA--CB-[CG] |==|  0.54594
USER: genes 23 Torsion [CA]-CB--CG-[CD] |==|  0.18715
USER: genes 24 Torsion [CB]-CG--CD-[OE2] |==|  0.46861
USER: genes 25 Torsion [N]-CA--C-[N] |==|  0.81750
USER: genes 26 Torsion [C]-N--CA-[C] |==|  0.51638
USER: genes 27 Torsion [N]-CA--C-[OXT] |==|  0.91822
USER: genes 28 Torsion [N]-CA--CB-[CG] |==|  0.24014
USER: genes 29 Torsion [CA]-CB--CG-[CD] |==|  0.75756
USER: genes 30 Torsion [CB]-CG--CD-[OE1] |==|  0.77232
USER: genes 31 Torsion [N]-CA--CB-[CG] |==|  0.41523
USER: genes 32 Torsion [CA]-CB--CG-[CD2] |==|  0.68549
USER: genes 33 Torsion [N]-CA--CB-[CG] |==|  0.16693
USER: genes 34 Torsion [CA]-CB--CG-[CD1] |==|  0.71436
ROOT
ATOM      1  CA  PHE B 689     -22.774   6.086  24.491  1.00 23.75 LIG 0.18  C 
ENDROOT
BRANCH 1 2
ATOM      2  N   PHE B 689     -22.590   5.339  25.750  1.00 25.36 LIG-0.35  N 
ATOM      3 H    PHE B 689     -22.217   4.570  25.648  1.00 25.36 LIG 0.16  HD
ATOM      4  C   LYS B 688     -22.970   5.815  26.931  1.00 27.14 LIG 0.24  C 
ATOM      5 O    LYS B 688     -23.529   6.896  27.070  1.00 24.82 LIG-0.27  OA
BRANCH 4 6
ATOM      6  CA  LYS B 688     -22.701   4.935  28.146  1.00 29.11 LIG 0.18  C 
BRANCH 6 7
ATOM      7  N   LYS B 688     -22.247   5.762  29.274  1.00 31.24 LIG-0.35  N 
ATOM      8  C   TYR B 687     -21.111   5.503  29.919  1.00 34.73 LIG 0.24  C 
ATOM      9 O    TYR B 687     -20.375   4.546  29.637  1.00 34.89 LIG-0.27  OA
ATOM     10 H    LYS B 688     -22.773   6.413  29.471  1.00 31.24 LIG 0.16  HD
BRANCH 8 11
ATOM     11  CA  TYR B 687     -20.726   6.467  31.032  1.00 37.40 LIG 0.18  C 
BRANCH 11 12
ATOM     12  N   TYR B 687     -19.358   6.290  31.505  1.00 39.68 LIG-0.34  N 
ATOM     13 H    TYR B 687     -18.784   6.139  30.883  1.00 39.68 LIG 0.16  HD
ATOM     14  C   THR B 686     -19.052   6.361  32.800  1.00 41.22 LIG 0.26  C 
ATOM     15 O    THR B 686     -19.898   6.370  33.697  1.00 41.89 LIG-0.27  OA
BRANCH 14 16
ATOM     16  CA  THR B 686     -17.562   6.440  33.143  1.00 42.81 LIG 0.43  C 
ATOM     17  N   THR B 686     -16.903   5.092  33.163  1.00 43.04 LIG 0.62  N 
BRANCH 16 18
ATOM     18  CB  THR B 686     -16.920   7.414  32.105  1.00 43.12 LIG 0.16  C 
ATOM     19  CG2 THR B 686     -16.067   8.505  32.813  1.00 43.85 LIG 0.04  C 
BRANCH 18 20
ATOM     20 OG1  THR B 686     -16.126   6.693  31.157  1.00 44.58 LIG-0.39  OA
ATOM     21 HG1  THR B 686     -16.435   6.811  30.386  1.00 44.58 LIG 0.21  HD
ENDBRANCH 18 20
ENDBRANCH 16 18
ENDBRANCH 14 16
ENDBRANCH 11 12
BRANCH 11 22
ATOM     22  CB  TYR B 687     -20.905   7.894  30.536  1.00 38.54 LIG 0.07  C 
BRANCH 22 23
ATOM     23  CG  TYR B 687     -20.024   8.277  29.379  1.00 40.36 LIG-0.06  A 
ATOM     24  CD2 TYR B 687     -18.663   8.540  29.577  1.00 43.44 LIG 0.01  A 
ATOM     25  CE2 TYR B 687     -17.835   8.883  28.504  1.00 43.74 LIG 0.04  A 
ATOM     26  CZ  TYR B 687     -18.382   8.959  27.228  1.00 42.51 LIG 0.07  A 
ATOM     27  CE1 TYR B 687     -19.733   8.698  27.015  1.00 41.41 LIG 0.04  A 
ATOM     28  CD1 TYR B 687     -20.538   8.361  28.087  1.00 40.86 LIG 0.01  A 
BRANCH 26 29
ATOM     29 OH   TYR B 687     -17.566   9.292  26.174  1.00 42.23 LIG-0.36  OA
ATOM     30 HH   TYR B 687     -16.843   9.604  26.467  1.00 42.23 LIG 0.22  HD
ENDBRANCH 26 29
ENDBRANCH 22 23
ENDBRANCH 11 22
ENDBRANCH 8 11
ENDBRANCH 6 7
BRANCH 6 31
ATOM     31  CB  LYS B 688     -23.974   4.200  28.544  1.00 31.14 LIG 0.04  C 
BRANCH 31 32
ATOM     32  CG  LYS B 688     -23.825   3.279  29.715  1.00 35.59 LIG 0.00  C 
BRANCH 32 33
ATOM     33  CD  LYS B 688     -24.577   1.971  29.512  1.00 43.16 LIG 0.03  C 
BRANCH 33 34
ATOM     34  CE  LYS B 688     -26.049   2.238  29.155  1.00 45.87 LIG 0.23  C 
BRANCH 34 35
ATOM     35  NZ  LYS B 688     -26.819   0.960  28.892  1.00 48.40 LIG-0.08  N 
ATOM     36 HZ2  LYS B 688     -27.690   1.138  28.870  1.00 48.40 LIG 0.27  HD
ATOM     37 HZ3  LYS B 688     -26.567   0.617  28.110  1.00 48.40 LIG 0.27  HD
ATOM     38 HZ1  LYS B 688     -26.652   0.374  29.540  1.00 48.40 LIG 0.27  HD
ENDBRANCH 34 35
ENDBRANCH 33 34
ENDBRANCH 32 33
ENDBRANCH 31 32
ENDBRANCH 6 31
ENDBRANCH 4 6
ENDBRANCH 1 2
BRANCH 1 39
ATOM     39  C   PHE B 689     -24.171   5.894  23.923  1.00 24.45 LIG 0.24  C 
ATOM     40  N   PHE B 690     -24.822   4.808  24.294  1.00 21.51 LIG-0.35  N 
ATOM     41 H    PHE B 690     -24.474   4.171  24.756  1.00 21.51 LIG 0.16  HD
ATOM     42 O    PHE B 689     -24.662   6.716  23.139  1.00 26.25 LIG-0.27  OA
BRANCH 40 43
ATOM     43  CA  PHE B 690     -26.221   4.602  23.936  1.00 22.61 LIG 0.18  C 
BRANCH 43 44
ATOM     44  C   PHE B 690     -26.280   4.140  22.503  1.00 22.66 LIG 0.24  C 
ATOM     45 O    PHE B 690     -26.736   3.054  22.232  1.00 22.36 LIG-0.27  OA
ATOM     46  N   GLU B 691     -25.808   4.992  21.598  1.00 25.08 LIG-0.35  N 
ATOM     47 H    GLU B 691     -25.495   5.767  21.797  1.00 25.08 LIG 0.16  HD
BRANCH 46 48
ATOM     48  CA  GLU B 691     -25.775   4.692  20.170  1.00 27.99 LIG 0.18  C 
BRANCH 48 49
ATOM     49  CB  GLU B 691     -25.162   3.309  19.946  1.00 28.84 LIG 0.04  C 
BRANCH 49 50
ATOM     50  CG  GLU B 691     -24.726   3.096  18.493  1.00 33.53 LIG 0.12  C 
BRANCH 50 51
ATOM     51  CD  GLU B 691     -23.548   3.986  18.075  1.00 40.22 LIG 0.17  C 
ATOM     52 OE1  GLU B 691     -23.191   4.930  18.826  1.00 42.38 LIG-0.65  OA
ATOM     53 OE2  GLU B 691     -22.980   3.733  16.980  1.00 45.19 LIG-0.65  OA
ENDBRANCH 50 51
ENDBRANCH 49 50
ENDBRANCH 48 49
BRANCH 48 54
ATOM     54  C   GLU B 691     -27.139   4.777  19.501  1.00 29.69 LIG 0.24  C 
ATOM     55 O    GLU B 691     -27.374   5.653  18.647  1.00 29.49 LIG-0.27  OA
ATOM     56  N   GLN B 692     -28.040   3.883  19.887  1.00 30.92 LIG-0.34  N 
ATOM     57 H    GLN B 692     -27.890   3.243  20.441  1.00 30.92 LIG 0.16  HD
BRANCH 56 58
ATOM     58  CA  GLN B 692     -29.404   3.949  19.358  1.00 33.57 LIG 0.19  C 
BRANCH 58 59
ATOM     59  C   GLN B 692     -30.304   2.930  20.034  1.00 34.50 LIG 0.20  C 
ATOM     60 O    GLN B 692     -31.524   3.148  20.129  1.00 34.98 LIG-0.65  OA
ATOM     61 OXT  GLN B 692     -29.818   1.865  20.465  1.00 35.71 LIG-0.65  OA
ENDBRANCH 58 59
BRANCH 58 62
ATOM     62  CB  GLN B 692     -29.388   3.722  17.832  1.00 33.00 LIG 0.04  C 
BRANCH 62 63
ATOM     63  CG  GLN B 692     -29.441   2.249  17.419  0.80 34.02 LIG 0.10  C 
BRANCH 63 64
ATOM     64  CD  GLN B 692     -28.076   1.586  17.340  0.80 34.38 LIG 0.21  C 
ATOM     65  NE2 GLN B 692     -27.712   0.850  18.392  0.80 37.28 LIG-0.37  N 
ATOM     66 21HE GLN B 692     -28.235   0.783  19.071  0.80 37.28 LIG 0.16  HD
ATOM     67 22HE GLN B 692     -26.955   0.442  18.390  0.80 37.28 LIG 0.16  HD
ATOM     68 OE1  GLN B 692     -27.366   1.716  16.343  0.80 37.51 LIG-0.27  OA
ENDBRANCH 63 64
ENDBRANCH 62 63
ENDBRANCH 58 62
ENDBRANCH 56 58
ENDBRANCH 48 54
ENDBRANCH 46 48
ENDBRANCH 43 44
BRANCH 43 69
ATOM     69  CB  PHE B 690     -27.038   5.896  24.109  1.00 21.72 LIG 0.07  C 
BRANCH 69 70
ATOM     70  CG  PHE B 690     -28.204   6.035  23.155  1.00 20.05 LIG-0.06  A 
ATOM     71  CD2 PHE B 690     -28.199   7.022  22.186  1.00 19.86 LIG 0.01  A 
ATOM     72  CE2 PHE B 690     -29.269   7.183  21.287  1.00 20.22 LIG 0.00  A 
ATOM     73  CZ  PHE B 690     -30.382   6.357  21.426  1.00 19.78 LIG 0.00  A 
ATOM     74  CE1 PHE B 690     -30.399   5.385  22.382  1.00 19.59 LIG 0.00  A 
ATOM     75  CD1 PHE B 690     -29.321   5.230  23.280  1.00 20.29 LIG 0.01  A 
ENDBRANCH 69 70
ENDBRANCH 43 69
ENDBRANCH 40 43
ENDBRANCH 1 39
BRANCH 1 76
ATOM     76  CB  PHE B 689     -21.729   5.690  23.438  1.00 23.35 LIG 0.07  C 
BRANCH 76 77
ATOM     77  CG  PHE B 689     -21.783   4.258  23.083  1.00 24.01 LIG-0.06  A 
ATOM     78  CD2 PHE B 689     -22.767   3.772  22.220  1.00 25.22 LIG 0.01  A 
ATOM     79  CE2 PHE B 689     -22.796   2.419  21.849  1.00 25.32 LIG 0.00  A 
ATOM     80  CZ  PHE B 689     -21.857   1.528  22.393  1.00 27.81 LIG 0.00  A 
ATOM     81  CE1 PHE B 689     -20.875   1.999  23.265  1.00 24.81 LIG 0.00  A 
ATOM     82  CD1 PHE B 689     -20.832   3.366  23.599  1.00 27.61 LIG 0.01  A 
ENDBRANCH 76 77
ENDBRANCH 1 76
TORSDOF 33
ENDMDL
MODEL 12
USER: ADFR SOLUTION from run 83
USER: SCORE 21.997949 LL:  -5.734 LR: -18.229 RR:   0.000 FEB:  -8.385
USER: RMSD 4.707296
USER: SEED 82
USER: STATUS searching
USER: GENES 35
USER: genes 0 Translation |==|  0.57283 0.41268 0.55298
USER: genes 1 Rotation |==|  0.52645 0.42328 0.43697 0.98933
USER: genes 2 Torsion [C]-CA--N-[C] |==|  0.73434
USER: genes 3 Torsion [N]-C--CA-[N] |==|  0.37732
USER: genes 4 Torsion [C]-CA--N-[C] |==|  0.84259
USER: genes 5 Torsion [N]-C--CA-[N] |==|  0.04159
USER: genes 6 Torsion [C]-CA--N-[C] |==|  0.72038
USER: genes 7 Torsion [N]-C--CA-[N] |==|  0.98057
USER: genes 8 Torsion [C]-CA--CB-[CG2] |==|  0.52538
USER: genes 9 Torsion [CA]-CB--OG1-[HG1] |==|  0.59697
USER: genes 10 Torsion [C]-CA--CB-[CG] |==|  0.44388
USER: genes 11 Torsion [CA]-CB--CG-[CD1] |==|  0.00363
USER: genes 12 Torsion [CE2]-CZ--OH-[HH] |==|  0.17192
USER: genes 13 Torsion [C]-CA--CB-[CG] |==|  0.06563
USER: genes 14 Torsion [CA]-CB--CG-[CD] |==|  0.44292
USER: genes 15 Torsion [CB]-CG--CD-[CE] |==|  0.17385
USER: genes 16 Torsion [CG]-CD--CE-[NZ] |==|  0.29080
USER: genes 17 Torsion [CD]-CE--NZ-[HZ2] |==|  0.08869
USER: genes 18 Torsion [N]-CA--C-[N] |==|  0.82812
USER: genes 19 Torsion [C]-N--CA-[CB] |==|  0.80727
USER: genes 20 Torsion [N]-CA--C-[N] |==|  0.16883
USER: genes 21 Torsion [C]-N--CA-[CB] |==|  0.86089
USER: genes 22 Torsion [N]-CA--CB-[CG] |==|  0.80769
USER: genes 23 Torsion [CA]-CB--CG-[CD] |==|  0.27860
USER: genes 24 Torsion [CB]-CG--CD-[OE2] |==|  0.73514
USER: genes 25 Torsion [N]-CA--C-[N] |==|  0.80156
USER: genes 26 Torsion [C]-N--CA-[C] |==|  0.51505
USER: genes 27 Torsion [N]-CA--C-[OXT] |==|  0.07238
USER: genes 28 Torsion [N]-CA--CB-[CG] |==|  0.13235
USER: genes 29 Torsion [CA]-CB--CG-[CD] |==|  0.55192
USER: genes 30 Torsion [CB]-CG--CD-[OE1] |==|  0.36942
USER: genes 31 Torsion [N]-CA--CB-[CG] |==|  0.49566
USER: genes 32 Torsion [CA]-CB--CG-[CD2] |==|  0.64592
USER: genes 33 Torsion [N]-CA--CB-[CG] |==|  0.73585
USER: genes 34 Torsion [CA]-CB--CG-[CD1] |==|  0.50948
ROOT
ATOM      1  CA  PHE B 689     -23.271   5.107  28.015  1.00 23.75 LIG 0.18  C 
ENDROOT
BRANCH 1 2
ATOM      2  N   PHE B 689     -22.787   5.805  29.222  1.00 25.36 LIG-0.35  N 
ATOM      3 H    PHE B 689     -23.290   6.457  29.472  1.00 25.36 LIG 0.16  HD
ATOM      4  C   LYS B 688     -21.675   5.453  29.859  1.00 27.14 LIG 0.24  C 
ATOM      5 O    LYS B 688     -20.946   4.545  29.483  1.00 24.82 LIG-0.27  OA
BRANCH 4 6
ATOM      6  CA  LYS B 688     -21.311   6.259  31.101  1.00 29.11 LIG 0.18  C 
BRANCH 6 7
ATOM      7  N   LYS B 688     -20.888   5.354  32.179  1.00 31.24 LIG-0.35  N 
ATOM      8  C   TYR B 687     -21.675   4.374  32.621  1.00 34.73 LIG 0.24  C 
ATOM      9 O    TYR B 687     -22.815   4.170  32.178  1.00 34.89 LIG-0.27  OA
ATOM     10 H    LYS B 688     -20.102   5.514  32.490  1.00 31.24 LIG 0.16  HD
BRANCH 8 11
ATOM     11  CA  TYR B 687     -21.098   3.473  33.703  1.00 37.40 LIG 0.18  C 
BRANCH 11 12
ATOM     12  N   TYR B 687     -19.905   4.021  34.338  1.00 39.68 LIG-0.34  N 
ATOM     13 H    TYR B 687     -20.064   4.621  34.934  1.00 39.68 LIG 0.16  HD
ATOM     14  C   THR B 686     -18.683   3.608  34.004  1.00 41.22 LIG 0.26  C 
ATOM     15 O    THR B 686     -18.451   2.908  33.016  1.00 41.89 LIG-0.27  OA
BRANCH 14 16
ATOM     16  CA  THR B 686     -17.542   4.044  34.927  1.00 42.81 LIG 0.43  C 
ATOM     17  N   THR B 686     -17.991   5.017  35.977  1.00 43.04 LIG 0.62  N 
BRANCH 16 18
ATOM     18  CB  THR B 686     -16.936   2.739  35.529  1.00 43.12 LIG 0.16  C 
ATOM     19  CG2 THR B 686     -15.917   3.062  36.659  1.00 43.85 LIG 0.04  C 
BRANCH 18 20
ATOM     20 OG1  THR B 686     -17.970   1.879  36.018  1.00 44.58 LIG-0.39  OA
ATOM     21 HG1  THR B 686     -17.699   1.476  36.704  1.00 44.58 LIG 0.21  HD
ENDBRANCH 18 20
ENDBRANCH 16 18
ENDBRANCH 14 16
ENDBRANCH 11 12
BRANCH 11 22
ATOM     22  CB  TYR B 687     -22.162   3.225  34.761  1.00 38.54 LIG 0.07  C 
BRANCH 22 23
ATOM     23  CG  TYR B 687     -21.929   2.012  35.620  1.00 40.36 LIG-0.06  A 
ATOM     24  CD2 TYR B 687     -22.856   1.648  36.603  1.00 43.44 LIG 0.01  A 
ATOM     25  CE2 TYR B 687     -22.654   0.514  37.395  1.00 43.74 LIG 0.04  A 
ATOM     26  CZ  TYR B 687     -21.512  -0.254  37.194  1.00 42.51 LIG 0.07  A 
ATOM     27  CE1 TYR B 687     -20.581   0.096  36.219  1.00 41.41 LIG 0.04  A 
ATOM     28  CD1 TYR B 687     -20.797   1.220  35.444  1.00 40.86 LIG 0.01  A 
BRANCH 26 29
ATOM     29 OH   TYR B 687     -21.316  -1.370  37.971  1.00 42.23 LIG-0.36  OA
ATOM     30 HH   TYR B 687     -21.940  -1.917  37.838  1.00 42.23 LIG 0.22  HD
ENDBRANCH 26 29
ENDBRANCH 22 23
ENDBRANCH 11 22
ENDBRANCH 8 11
ENDBRANCH 6 7
BRANCH 6 31
ATOM     31  CB  LYS B 688     -20.175   7.220  30.779  1.00 31.14 LIG 0.04  C 
BRANCH 31 32
ATOM     32  CG  LYS B 688     -20.052   7.581  29.332  1.00 35.59 LIG 0.00  C 
BRANCH 32 33
ATOM     33  CD  LYS B 688     -19.275   8.875  29.130  1.00 43.16 LIG 0.03  C 
BRANCH 33 34
ATOM     34  CE  LYS B 688     -17.831   8.729  29.640  1.00 45.87 LIG 0.23  C 
BRANCH 34 35
ATOM     35  NZ  LYS B 688     -16.833   8.583  28.509  1.00 48.40 LIG-0.08  N 
ATOM     36 HZ2  LYS B 688     -17.117   9.041  27.801  1.00 48.40 LIG 0.27  HD
ATOM     37 HZ3  LYS B 688     -16.043   8.901  28.769  1.00 48.40 LIG 0.27  HD
ATOM     38 HZ1  LYS B 688     -16.751   7.724  28.294  1.00 48.40 LIG 0.27  HD
ENDBRANCH 34 35
ENDBRANCH 33 34
ENDBRANCH 32 33
ENDBRANCH 31 32
ENDBRANCH 6 31
ENDBRANCH 4 6
ENDBRANCH 1 2
BRANCH 1 39
ATOM     39  C   PHE B 689     -22.822   5.809  26.743  1.00 24.45 LIG 0.24  C 
ATOM     40  N   PHE B 690     -23.249   7.044  26.561  1.00 21.51 LIG-0.35  N 
ATOM     41 H    PHE B 690     -23.827   7.434  27.064  1.00 21.51 LIG 0.16  HD
ATOM     42 O    PHE B 689     -22.102   5.236  25.915  1.00 26.25 LIG-0.27  OA
BRANCH 40 43
ATOM     43  CA  PHE B 690     -22.755   7.862  25.459  1.00 22.61 LIG 0.18  C 
BRANCH 43 44
ATOM     44  C   PHE B 690     -22.905   7.076  24.182  1.00 22.66 LIG 0.24  C 
ATOM     45 O    PHE B 690     -21.932   6.799  23.519  1.00 22.36 LIG-0.27  OA
ATOM     46  N   GLU B 691     -24.145   6.725  23.858  1.00 25.08 LIG-0.35  N 
ATOM     47 H    GLU B 691     -24.831   6.916  24.340  1.00 25.08 LIG 0.16  HD
BRANCH 46 48
ATOM     48  CA  GLU B 691     -24.466   5.978  22.646  1.00 27.99 LIG 0.18  C 
BRANCH 48 49
ATOM     49  CB  GLU B 691     -23.809   6.645  21.437  1.00 28.84 LIG 0.04  C 
BRANCH 49 50
ATOM     50  CG  GLU B 691     -24.444   7.998  21.104  1.00 33.53 LIG 0.12  C 
BRANCH 50 51
ATOM     51  CD  GLU B 691     -23.633   9.194  21.619  1.00 40.22 LIG 0.17  C 
ATOM     52 OE1  GLU B 691     -22.681   9.638  20.927  1.00 42.38 LIG-0.65  OA
ATOM     53 OE2  GLU B 691     -23.956   9.688  22.732  1.00 45.19 LIG-0.65  OA
ENDBRANCH 50 51
ENDBRANCH 49 50
ENDBRANCH 48 49
BRANCH 48 54
ATOM     54  C   GLU B 691     -24.070   4.510  22.715  1.00 29.69 LIG 0.24  C 
ATOM     55 O    GLU B 691     -24.937   3.622  22.821  1.00 29.49 LIG-0.27  OA
ATOM     56  N   GLN B 692     -22.770   4.250  22.668  1.00 30.92 LIG-0.34  N 
ATOM     57 H    GLN B 692     -22.154   4.839  22.553  1.00 30.92 LIG 0.16  HD
BRANCH 56 58
ATOM     58  CA  GLN B 692     -22.298   2.872  22.817  1.00 33.57 LIG 0.19  C 
BRANCH 58 59
ATOM     59  C   GLN B 692     -20.781   2.813  22.865  1.00 34.50 LIG 0.20  C 
ATOM     60 O    GLN B 692     -20.188   1.791  22.481  1.00 34.98 LIG-0.65  OA
ATOM     61 OXT  GLN B 692     -20.137   3.804  23.263  1.00 35.71 LIG-0.65  OA
ENDBRANCH 58 59
BRANCH 58 62
ATOM     62  CB  GLN B 692     -22.832   2.004  21.659  1.00 33.00 LIG 0.04  C 
BRANCH 62 63
ATOM     63  CG  GLN B 692     -22.650   2.630  20.274  0.80 34.02 LIG 0.10  C 
BRANCH 63 64
ATOM     64  CD  GLN B 692     -23.544   2.024  19.206  0.80 34.38 LIG 0.21  C 
ATOM     65  NE2 GLN B 692     -23.609   0.692  19.172  0.80 37.28 LIG-0.37  N 
ATOM     66 21HE GLN B 692     -23.147   0.225  19.728  0.80 37.28 LIG 0.16  HD
ATOM     67 22HE GLN B 692     -24.113   0.300  18.596  0.80 37.28 LIG 0.16  HD
ATOM     68 OE1  GLN B 692     -24.184   2.739  18.435  0.80 37.51 LIG-0.27  OA
ENDBRANCH 63 64
ENDBRANCH 62 63
ENDBRANCH 58 62
ENDBRANCH 56 58
ENDBRANCH 48 54
ENDBRANCH 46 48
ENDBRANCH 43 44
BRANCH 43 69
ATOM     69  CB  PHE B 690     -21.280   8.253  25.669  1.00 21.72 LIG 0.07  C 
BRANCH 69 70
ATOM     70  CG  PHE B 690     -20.680   9.073  24.548  1.00 20.05 LIG-0.06  A 
ATOM     71  CD2 PHE B 690     -19.498   8.678  23.950  1.00 19.86 LIG 0.01  A 
ATOM     72  CE2 PHE B 690     -18.910   9.419  22.909  1.00 20.22 LIG 0.00  A 
ATOM     73  CZ  PHE B 690     -19.515  10.612  22.521  1.00 19.78 LIG 0.00  A 
ATOM     74  CE1 PHE B 690     -20.679  11.014  23.109  1.00 19.59 LIG 0.00  A 
ATOM     75  CD1 PHE B 690     -21.262  10.263  24.153  1.00 20.29 LIG 0.01  A 
ENDBRANCH 69 70
ENDBRANCH 43 69
ENDBRANCH 40 43
ENDBRANCH 1 39
BRANCH 1 76
ATOM     76  CB  PHE B 689     -24.800   4.965  28.015  1.00 23.35 LIG 0.07  C 
BRANCH 76 77
ATOM     77  CG  PHE B 689     -25.258   3.668  28.551  1.00 24.01 LIG-0.06  A 
ATOM     78  CD2 PHE B 689     -24.346   2.750  29.075  1.00 25.22 LIG 0.01  A 
ATOM     79  CE2 PHE B 689     -24.782   1.533  29.623  1.00 25.32 LIG 0.00  A 
ATOM     80  CZ  PHE B 689     -26.148   1.208  29.596  1.00 27.81 LIG 0.00  A 
ATOM     81  CE1 PHE B 689     -27.068   2.113  29.065  1.00 24.81 LIG 0.00  A 
ATOM     82  CD1 PHE B 689     -26.623   3.347  28.555  1.00 27.61 LIG 0.01  A 
ENDBRANCH 76 77
ENDBRANCH 1 76
TORSDOF 33
ENDMDL
MODEL 13
USER: ADFR SOLUTION from run 29
USER: SCORE 22.615297 LL:  -6.919 LR: -18.146 RR:   0.000 FEB:  -8.302
USER: RMSD 6.385669
USER: SEED 28
USER: STATUS no improvement in best in 7 clusters for 5 generations
USER: GENES 35
USER: genes 0 Translation |==|  0.61851 0.45631 0.46422
USER: genes 1 Rotation |==|  0.77449 0.32300 0.59922 0.86536
USER: genes 2 Torsion [C]-CA--N-[C] |==|  0.84989
USER: genes 3 Torsion [N]-C--CA-[N] |==|  0.45787
USER: genes 4 Torsion [C]-CA--N-[C] |==|  0.55000
USER: genes 5 Torsion [N]-C--CA-[N] |==|  0.03591
USER: genes 6 Torsion [C]-CA--N-[C] |==|  0.74311
USER: genes 7 Torsion [N]-C--CA-[N] |==|  0.00866
USER: genes 8 Torsion [C]-CA--CB-[CG2] |==|  0.91546
USER: genes 9 Torsion [CA]-CB--OG1-[HG1] |==|  0.95248
USER: genes 10 Torsion [C]-CA--CB-[CG] |==|  0.29958
USER: genes 11 Torsion [CA]-CB--CG-[CD1] |==|  0.07692
USER: genes 12 Torsion [CE2]-CZ--OH-[HH] |==|  0.09976
USER: genes 13 Torsion [C]-CA--CB-[CG] |==|  0.36087
USER: genes 14 Torsion [CA]-CB--CG-[CD] |==|  0.97734
USER: genes 15 Torsion [CB]-CG--CD-[CE] |==|  0.38207
USER: genes 16 Torsion [CG]-CD--CE-[NZ] |==|  0.34912
USER: genes 17 Torsion [CD]-CE--NZ-[HZ2] |==|  0.92909
USER: genes 18 Torsion [N]-CA--C-[N] |==|  0.34515
USER: genes 19 Torsion [C]-N--CA-[CB] |==|  0.40519
USER: genes 20 Torsion [N]-CA--C-[N] |==|  0.07575
USER: genes 21 Torsion [C]-N--CA-[CB] |==|  0.22359
USER: genes 22 Torsion [N]-CA--CB-[CG] |==|  0.03509
USER: genes 23 Torsion [CA]-CB--CG-[CD] |==|  0.19740
USER: genes 24 Torsion [CB]-CG--CD-[OE2] |==|  0.46829
USER: genes 25 Torsion [N]-CA--C-[N] |==|  0.02884
USER: genes 26 Torsion [C]-N--CA-[C] |==|  0.70353
USER: genes 27 Torsion [N]-CA--C-[OXT] |==|  0.93331
USER: genes 28 Torsion [N]-CA--CB-[CG] |==|  0.47643
USER: genes 29 Torsion [CA]-CB--CG-[CD] |==|  0.51262
USER: genes 30 Torsion [CB]-CG--CD-[OE1] |==|  0.01670
USER: genes 31 Torsion [N]-CA--CB-[CG] |==|  0.07027
USER: genes 32 Torsion [CA]-CB--CG-[CD2] |==|  0.67975
USER: genes 33 Torsion [N]-CA--CB-[CG] |==|  0.75810
USER: genes 34 Torsion [CA]-CB--CG-[CD1] |==|  0.95702
ROOT
ATOM      1  CA  PHE B 689     -22.380   5.958  25.086  1.00 23.75 LIG 0.18  C 
ENDROOT
BRANCH 1 2
ATOM      2  N   PHE B 689     -22.904   5.310  26.304  1.00 25.36 LIG-0.35  N 
ATOM      3 H    PHE B 689     -23.518   4.727  26.152  1.00 25.36 LIG 0.16  HD
ATOM      4  C   LYS B 688     -22.462   5.606  27.522  1.00 27.14 LIG 0.24  C 
ATOM      5 O    LYS B 688     -21.610   6.458  27.738  1.00 24.82 LIG-0.27  OA
BRANCH 4 6
ATOM      6  CA  LYS B 688     -23.088   4.843  28.684  1.00 29.11 LIG 0.18  C 
BRANCH 6 7
ATOM      7  N   LYS B 688     -22.266   5.006  29.892  1.00 31.24 LIG-0.35  N 
ATOM      8  C   TYR B 687     -22.378   4.184  30.933  1.00 34.73 LIG 0.24  C 
ATOM      9 O    TYR B 687     -23.189   3.246  30.970  1.00 34.89 LIG-0.27  OA
ATOM     10 H    LYS B 688     -21.719   5.669  29.862  1.00 31.24 LIG 0.16  HD
BRANCH 8 11
ATOM     11  CA  TYR B 687     -21.431   4.428  32.098  1.00 37.40 LIG 0.18  C 
BRANCH 11 12
ATOM     12  N   TYR B 687     -20.743   5.711  32.027  1.00 39.68 LIG-0.34  N 
ATOM     13 H    TYR B 687     -21.173   6.365  32.383  1.00 39.68 LIG 0.16  HD
ATOM     14  C   THR B 686     -19.547   5.831  31.452  1.00 41.22 LIG 0.26  C 
ATOM     15 O    THR B 686     -19.032   4.944  30.767  1.00 41.89 LIG-0.27  OA
BRANCH 14 16
ATOM     16  CA  THR B 686     -18.808   7.152  31.687  1.00 42.81 LIG 0.43  C 
ATOM     17  N   THR B 686     -19.554   8.072  32.608  1.00 43.04 LIG 0.62  N 
BRANCH 16 18
ATOM     18  CB  THR B 686     -17.390   6.778  32.219  1.00 43.12 LIG 0.16  C 
ATOM     19  CG2 THR B 686     -17.427   5.449  33.027  1.00 43.85 LIG 0.04  C 
BRANCH 18 20
ATOM     20 OG1  THR B 686     -16.453   6.685  31.142  1.00 44.58 LIG-0.39  OA
ATOM     21 HG1  THR B 686     -16.867   6.616  30.415  1.00 44.58 LIG 0.21  HD
ENDBRANCH 18 20
ENDBRANCH 16 18
ENDBRANCH 14 16
ENDBRANCH 11 12
BRANCH 11 22
ATOM     22  CB  TYR B 687     -22.217   4.352  33.399  1.00 38.54 LIG 0.07  C 
BRANCH 22 23
ATOM     23  CG  TYR B 687     -21.952   3.123  34.227  1.00 40.36 LIG-0.06  A 
ATOM     24  CD2 TYR B 687     -22.940   2.609  35.074  1.00 43.44 LIG 0.01  A 
ATOM     25  CE2 TYR B 687     -22.706   1.461  35.836  1.00 43.74 LIG 0.04  A 
ATOM     26  CZ  TYR B 687     -21.471   0.829  35.740  1.00 42.51 LIG 0.07  A 
ATOM     27  CE1 TYR B 687     -20.479   1.328  34.900  1.00 41.41 LIG 0.04  A 
ATOM     28  CD1 TYR B 687     -20.726   2.465  34.154  1.00 40.86 LIG 0.01  A 
BRANCH 26 29
ATOM     29 OH   TYR B 687     -21.243  -0.302  36.486  1.00 42.23 LIG-0.36  OA
ATOM     30 HH   TYR B 687     -21.950  -0.754  36.533  1.00 42.23 LIG 0.22  HD
ENDBRANCH 26 29
ENDBRANCH 22 23
ENDBRANCH 11 22
ENDBRANCH 8 11
ENDBRANCH 6 7
BRANCH 6 31
ATOM     31  CB  LYS B 688     -24.489   5.372  28.956  1.00 31.14 LIG 0.04  C 
BRANCH 31 32
ATOM     32  CG  LYS B 688     -25.549   4.320  29.049  1.00 35.59 LIG 0.00  C 
BRANCH 32 33
ATOM     33  CD  LYS B 688     -25.026   2.946  28.653  1.00 43.16 LIG 0.03  C 
BRANCH 33 34
ATOM     34  CE  LYS B 688     -25.547   1.867  29.617  1.00 45.87 LIG 0.23  C 
BRANCH 34 35
ATOM     35  NZ  LYS B 688     -26.248   0.736  28.892  1.00 48.40 LIG-0.08  N 
ATOM     36 HZ2  LYS B 688     -26.566   1.033  28.116  1.00 48.40 LIG 0.27  HD
ATOM     37 HZ3  LYS B 688     -25.670   0.077  28.741  1.00 48.40 LIG 0.27  HD
ATOM     38 HZ1  LYS B 688     -26.919   0.434  29.391  1.00 48.40 LIG 0.27  HD
ENDBRANCH 34 35
ENDBRANCH 33 34
ENDBRANCH 32 33
ENDBRANCH 31 32
ENDBRANCH 6 31
ENDBRANCH 4 6
ENDBRANCH 1 2
BRANCH 1 39
ATOM     39  C   PHE B 689     -22.460   7.474  25.178  1.00 24.45 LIG 0.24  C 
ATOM     40  N   PHE B 690     -21.336   8.142  25.004  1.00 21.51 LIG-0.35  N 
ATOM     41 H    PHE B 690     -20.561   7.774  24.934  1.00 21.51 LIG 0.16  HD
ATOM     42 O    PHE B 689     -23.531   8.045  25.419  1.00 26.25 LIG-0.27  OA
BRANCH 40 43
ATOM     43  CA  PHE B 690     -21.325   9.598  24.915  1.00 22.61 LIG 0.18  C 
BRANCH 43 44
ATOM     44  C   PHE B 690     -21.415   9.983  23.460  1.00 22.66 LIG 0.24  C 
ATOM     45 O    PHE B 690     -20.947  11.031  23.078  1.00 22.36 LIG-0.27  OA
ATOM     46  N   GLU B 691     -22.025   9.111  22.665  1.00 25.08 LIG-0.35  N 
ATOM     47 H    GLU B 691     -22.345   8.363  22.942  1.00 25.08 LIG 0.16  HD
BRANCH 46 48
ATOM     48  CA  GLU B 691     -22.213   9.338  21.236  1.00 27.99 LIG 0.18  C 
BRANCH 48 49
ATOM     49  CB  GLU B 691     -20.925   8.999  20.485  1.00 28.84 LIG 0.04  C 
BRANCH 49 50
ATOM     50  CG  GLU B 691     -19.925   8.237  21.360  1.00 33.53 LIG 0.12  C 
BRANCH 50 51
ATOM     51  CD  GLU B 691     -20.357   6.796  21.663  1.00 40.22 LIG 0.17  C 
ATOM     52 OE1  GLU B 691     -21.529   6.433  21.389  1.00 42.38 LIG-0.65  OA
ATOM     53 OE2  GLU B 691     -19.508   6.026  22.185  1.00 45.19 LIG-0.65  OA
ENDBRANCH 50 51
ENDBRANCH 49 50
ENDBRANCH 48 49
BRANCH 48 54
ATOM     54  C   GLU B 691     -23.384   8.566  20.647  1.00 29.69 LIG 0.24  C 
ATOM     55 O    GLU B 691     -23.556   8.515  19.414  1.00 29.49 LIG-0.27  OA
ATOM     56  N   GLN B 692     -24.194   7.975  21.515  1.00 30.92 LIG-0.34  N 
ATOM     57 H    GLN B 692     -24.075   7.958  22.367  1.00 30.92 LIG 0.16  HD
BRANCH 56 58
ATOM     58  CA  GLN B 692     -25.394   7.285  21.038  1.00 33.57 LIG 0.19  C 
BRANCH 58 59
ATOM     59  C   GLN B 692     -26.649   8.077  21.364  1.00 34.50 LIG 0.20  C 
ATOM     60 O    GLN B 692     -27.686   7.892  20.706  1.00 34.98 LIG-0.65  OA
ATOM     61 OXT  GLN B 692     -26.639   8.888  22.310  1.00 35.71 LIG-0.65  OA
ENDBRANCH 58 59
BRANCH 58 62
ATOM     62  CB  GLN B 692     -25.474   5.875  21.659  1.00 33.00 LIG 0.04  C 
BRANCH 62 63
ATOM     63  CG  GLN B 692     -26.792   5.146  21.389  0.80 34.02 LIG 0.10  C 
BRANCH 63 64
ATOM     64  CD  GLN B 692     -26.906   3.805  22.094  0.80 34.38 LIG 0.21  C 
ATOM     65  NE2 GLN B 692     -27.968   3.059  21.781  0.80 37.28 LIG-0.37  N 
ATOM     66 21HE GLN B 692     -28.548   3.352  21.218  0.80 37.28 LIG 0.16  HD
ATOM     67 22HE GLN B 692     -28.071   2.285  22.141  0.80 37.28 LIG 0.16  HD
ATOM     68 OE1  GLN B 692     -26.046   3.434  22.892  0.80 37.51 LIG-0.27  OA
ENDBRANCH 63 64
ENDBRANCH 62 63
ENDBRANCH 58 62
ENDBRANCH 56 58
ENDBRANCH 48 54
ENDBRANCH 46 48
ENDBRANCH 43 44
BRANCH 43 69
ATOM     69  CB  PHE B 690     -20.046  10.187  25.540  1.00 21.72 LIG 0.07  C 
BRANCH 69 70
ATOM     70  CG  PHE B 690     -18.862   9.247  25.553  1.00 20.05 LIG-0.06  A 
ATOM     71  CD2 PHE B 690     -18.336   8.804  26.752  1.00 19.86 LIG 0.01  A 
ATOM     72  CE2 PHE B 690     -17.231   7.934  26.801  1.00 20.22 LIG 0.00  A 
ATOM     73  CZ  PHE B 690     -16.625   7.564  25.603  1.00 19.78 LIG 0.00  A 
ATOM     74  CE1 PHE B 690     -17.133   8.000  24.415  1.00 19.59 LIG 0.00  A 
ATOM     75  CD1 PHE B 690     -18.242   8.873  24.376  1.00 20.29 LIG 0.01  A 
ENDBRANCH 69 70
ENDBRANCH 43 69
ENDBRANCH 40 43
ENDBRANCH 1 39
BRANCH 1 76
ATOM     76  CB  PHE B 689     -23.114   5.477  23.826  1.00 23.35 LIG 0.07  C 
BRANCH 76 77
ATOM     77  CG  PHE B 689     -22.524   4.253  23.248  1.00 24.01 LIG-0.06  A 
ATOM     78  CD2 PHE B 689     -23.222   3.504  22.299  1.00 25.22 LIG 0.01  A 
ATOM     79  CE2 PHE B 689     -22.648   2.363  21.717  1.00 25.32 LIG 0.00  A 
ATOM     80  CZ  PHE B 689     -21.376   1.935  22.133  1.00 27.81 LIG 0.00  A 
ATOM     81  CE1 PHE B 689     -20.673   2.670  23.089  1.00 24.81 LIG 0.00  A 
ATOM     82  CD1 PHE B 689     -21.243   3.835  23.635  1.00 27.61 LIG 0.01  A 
ENDBRANCH 76 77
ENDBRANCH 1 76
TORSDOF 33
ENDMDL
MODEL 14
USER: ADFR SOLUTION from run 72
USER: SCORE 22.096795 LL:  -5.463 LR: -18.108 RR:   0.000 FEB:  -8.264
USER: RMSD 4.438692
USER: SEED 71
USER: STATUS no improvement in best in 6 clusters for 5 generations
USER: GENES 35
USER: genes 0 Translation |==|  0.59403 0.41866 0.59249
USER: genes 1 Rotation |==|  0.48573 0.51697 0.43659 0.99547
USER: genes 2 Torsion [C]-CA--N-[C] |==|  0.71559
USER: genes 3 Torsion [N]-C--CA-[N] |==|  0.41895
USER: genes 4 Torsion [C]-CA--N-[C] |==|  0.73459
USER: genes 5 Torsion [N]-C--CA-[N] |==|  0.42608
USER: genes 6 Torsion [C]-CA--N-[C] |==|  0.60019
USER: genes 7 Torsion [N]-C--CA-[N] |==|  0.35821
USER: genes 8 Torsion [C]-CA--CB-[CG2] |==|  0.09212
USER: genes 9 Torsion [CA]-CB--OG1-[HG1] |==|  0.83402
USER: genes 10 Torsion [C]-CA--CB-[CG] |==|  0.75758
USER: genes 11 Torsion [CA]-CB--CG-[CD1] |==|  0.28316
USER: genes 12 Torsion [CE2]-CZ--OH-[HH] |==|  0.72337
USER: genes 13 Torsion [C]-CA--CB-[CG] |==|  0.16934
USER: genes 14 Torsion [CA]-CB--CG-[CD] |==|  0.66509
USER: genes 15 Torsion [CB]-CG--CD-[CE] |==|  0.88354
USER: genes 16 Torsion [CG]-CD--CE-[NZ] |==|  0.80279
USER: genes 17 Torsion [CD]-CE--NZ-[HZ2] |==|  0.76265
USER: genes 18 Torsion [N]-CA--C-[N] |==|  0.72918
USER: genes 19 Torsion [C]-N--CA-[CB] |==|  0.84944
USER: genes 20 Torsion [N]-CA--C-[N] |==|  0.35000
USER: genes 21 Torsion [C]-N--CA-[CB] |==|  0.53132
USER: genes 22 Torsion [N]-CA--CB-[CG] |==|  0.63383
USER: genes 23 Torsion [CA]-CB--CG-[CD] |==|  0.86607
USER: genes 24 Torsion [CB]-CG--CD-[OE2] |==|  0.22059
USER: genes 25 Torsion [N]-CA--C-[N] |==|  0.39150
USER: genes 26 Torsion [C]-N--CA-[C] |==|  0.73550
USER: genes 27 Torsion [N]-CA--C-[OXT] |==|  0.73370
USER: genes 28 Torsion [N]-CA--CB-[CG] |==|  0.62799
USER: genes 29 Torsion [CA]-CB--CG-[CD] |==|  0.21868
USER: genes 30 Torsion [CB]-CG--CD-[OE1] |==|  0.74433
USER: genes 31 Torsion [N]-CA--CB-[CG] |==|  0.40303
USER: genes 32 Torsion [CA]-CB--CG-[CD2] |==|  0.19624
USER: genes 33 Torsion [N]-CA--CB-[CG] |==|  0.58931
USER: genes 34 Torsion [CA]-CB--CG-[CD1] |==|  0.11839
ROOT
ATOM      1  CA  PHE B 689     -22.857   5.224  29.319  1.00 23.75 LIG 0.18  C 
ENDROOT
BRANCH 1 2
ATOM      2  N   PHE B 689     -21.962   6.038  30.163  1.00 25.36 LIG-0.35  N 
ATOM      3 H    PHE B 689     -22.314   6.773  30.437  1.00 25.36 LIG 0.16  HD
ATOM      4  C   LYS B 688     -20.723   5.663  30.467  1.00 27.14 LIG 0.24  C 
ATOM      5 O    LYS B 688     -20.214   4.631  30.051  1.00 24.82 LIG-0.27  OA
BRANCH 4 6
ATOM      6  CA  LYS B 688     -19.922   6.601  31.362  1.00 29.11 LIG 0.18  C 
BRANCH 6 7
ATOM      7  N   LYS B 688     -18.951   5.832  32.153  1.00 31.24 LIG-0.35  N 
ATOM      8  C   TYR B 687     -19.218   5.432  33.395  1.00 34.73 LIG 0.24  C 
ATOM      9 O    TYR B 687     -20.282   5.696  33.977  1.00 34.89 LIG-0.27  OA
ATOM     10 H    LYS B 688     -18.211   5.669  31.746  1.00 31.24 LIG 0.16  HD
BRANCH 8 11
ATOM     11  CA  TYR B 687     -18.152   4.596  34.085  1.00 37.40 LIG 0.18  C 
BRANCH 11 12
ATOM     12  N   TYR B 687     -18.181   4.704  35.539  1.00 39.68 LIG-0.34  N 
ATOM     13 H    TYR B 687     -18.970   4.774  35.874  1.00 39.68 LIG 0.16  HD
ATOM     14  C   THR B 686     -17.063   4.693  36.264  1.00 41.22 LIG 0.26  C 
ATOM     15 O    THR B 686     -15.937   4.800  35.773  1.00 41.89 LIG-0.27  OA
BRANCH 14 16
ATOM     16  CA  THR B 686     -17.235   4.528  37.777  1.00 42.81 LIG 0.43  C 
ATOM     17  N   THR B 686     -16.374   3.434  38.337  1.00 43.04 LIG 0.62  N 
BRANCH 16 18
ATOM     18  CB  THR B 686     -16.934   5.922  38.410  1.00 43.12 LIG 0.16  C 
ATOM     19  CG2 THR B 686     -17.381   7.075  37.468  1.00 43.85 LIG 0.04  C 
BRANCH 18 20
ATOM     20 OG1  THR B 686     -17.566   6.045  39.688  1.00 44.58 LIG-0.39  OA
ATOM     21 HG1  THR B 686     -18.397   5.958  39.599  1.00 44.58 LIG 0.21  HD
ENDBRANCH 18 20
ENDBRANCH 16 18
ENDBRANCH 14 16
ENDBRANCH 11 12
BRANCH 11 22
ATOM     22  CB  TYR B 687     -18.329   3.138  33.687  1.00 38.54 LIG 0.07  C 
BRANCH 22 23
ATOM     23  CG  TYR B 687     -19.288   2.360  34.545  1.00 40.36 LIG-0.06  A 
ATOM     24  CD2 TYR B 687     -18.903   1.905  35.811  1.00 43.44 LIG 0.01  A 
ATOM     25  CE2 TYR B 687     -19.794   1.194  36.621  1.00 43.74 LIG 0.04  A 
ATOM     26  CZ  TYR B 687     -21.077   0.941  36.149  1.00 42.51 LIG 0.07  A 
ATOM     27  CE1 TYR B 687     -21.475   1.388  34.892  1.00 41.41 LIG 0.04  A 
ATOM     28  CD1 TYR B 687     -20.582   2.090  34.105  1.00 40.86 LIG 0.01  A 
BRANCH 26 29
ATOM     29 OH   TYR B 687     -21.953   0.244  36.947  1.00 42.23 LIG-0.36  OA
ATOM     30 HH   TYR B 687     -21.977  -0.559  36.702  1.00 42.23 LIG 0.22  HD
ENDBRANCH 26 29
ENDBRANCH 22 23
ENDBRANCH 11 22
ENDBRANCH 8 11
ENDBRANCH 6 7
BRANCH 6 31
ATOM     31  CB  LYS B 688     -19.178   7.620  30.509  1.00 31.14 LIG 0.04  C 
BRANCH 31 32
ATOM     32  CG  LYS B 688     -20.057   8.501  29.677  1.00 35.59 LIG 0.00  C 
BRANCH 32 33
ATOM     33  CD  LYS B 688     -19.757   8.368  28.191  1.00 43.16 LIG 0.03  C 
BRANCH 33 34
ATOM     34  CE  LYS B 688     -18.240   8.312  27.944  1.00 45.87 LIG 0.23  C 
BRANCH 34 35
ATOM     35  NZ  LYS B 688     -17.566   9.646  28.189  1.00 48.40 LIG-0.08  N 
ATOM     36 HZ2  LYS B 688     -17.615  10.143  27.453  1.00 48.40 LIG 0.27  HD
ATOM     37 HZ3  LYS B 688     -17.975  10.067  28.858  1.00 48.40 LIG 0.27  HD
ATOM     38 HZ1  LYS B 688     -16.712   9.513  28.401  1.00 48.40 LIG 0.27  HD
ENDBRANCH 34 35
ENDBRANCH 33 34
ENDBRANCH 32 33
ENDBRANCH 31 32
ENDBRANCH 6 31
ENDBRANCH 4 6
ENDBRANCH 1 2
BRANCH 1 39
ATOM     39  C   PHE B 689     -22.943   5.769  27.902  1.00 24.45 LIG 0.24  C 
ATOM     40  N   PHE B 690     -23.977   6.540  27.622  1.00 21.51 LIG-0.35  N 
ATOM     41 H    PHE B 690     -24.638   6.674  28.155  1.00 21.51 LIG 0.16  HD
ATOM     42 O    PHE B 689     -22.088   5.486  27.054  1.00 26.25 LIG-0.27  OA
BRANCH 40 43
ATOM     43  CA  PHE B 690     -24.076   7.241  26.346  1.00 22.61 LIG 0.18  C 
BRANCH 43 44
ATOM     44  C   PHE B 690     -24.246   6.216  25.255  1.00 22.66 LIG 0.24  C 
ATOM     45 O    PHE B 690     -23.455   5.309  25.143  1.00 22.36 LIG-0.27  OA
ATOM     46  N   GLU B 691     -25.296   6.385  24.457  1.00 25.08 LIG-0.35  N 
ATOM     47 H    GLU B 691     -25.861   7.026  24.550  1.00 25.08 LIG 0.16  HD
BRANCH 46 48
ATOM     48  CA  GLU B 691     -25.594   5.493  23.342  1.00 27.99 LIG 0.18  C 
BRANCH 48 49
ATOM     49  CB  GLU B 691     -26.685   6.108  22.465  1.00 28.84 LIG 0.04  C 
BRANCH 49 50
ATOM     50  CG  GLU B 691     -27.801   5.111  22.141  1.00 33.53 LIG 0.12  C 
BRANCH 50 51
ATOM     51  CD  GLU B 691     -27.280   3.753  21.652  1.00 40.22 LIG 0.17  C 
ATOM     52 OE1  GLU B 691     -27.287   3.496  20.421  1.00 42.38 LIG-0.65  OA
ATOM     53 OE2  GLU B 691     -26.864   2.938  22.517  1.00 45.19 LIG-0.65  OA
ENDBRANCH 50 51
ENDBRANCH 49 50
ENDBRANCH 48 49
BRANCH 48 54
ATOM     54  C   GLU B 691     -24.375   5.147  22.498  1.00 29.69 LIG 0.24  C 
ATOM     55 O    GLU B 691     -23.518   6.012  22.237  1.00 29.49 LIG-0.27  OA
ATOM     56  N   GLN B 692     -24.298   3.897  22.063  1.00 30.92 LIG-0.34  N 
ATOM     57 H    GLN B 692     -24.853   3.271  22.264  1.00 30.92 LIG 0.16  HD
BRANCH 56 58
ATOM     58  CA  GLN B 692     -23.205   3.502  21.173  1.00 33.57 LIG 0.19  C 
BRANCH 58 59
ATOM     59  C   GLN B 692     -23.629   3.574  19.717  1.00 34.50 LIG 0.20  C 
ATOM     60 O    GLN B 692     -23.545   4.649  19.099  1.00 34.98 LIG-0.65  OA
ATOM     61 OXT  GLN B 692     -24.034   2.545  19.139  1.00 35.71 LIG-0.65  OA
ENDBRANCH 58 59
BRANCH 58 62
ATOM     62  CB  GLN B 692     -22.729   2.077  21.523  1.00 33.00 LIG 0.04  C 
BRANCH 62 63
ATOM     63  CG  GLN B 692     -21.208   1.928  21.607  0.80 34.02 LIG 0.10  C 
BRANCH 63 64
ATOM     64  CD  GLN B 692     -20.614   2.444  22.907  0.80 34.38 LIG 0.21  C 
ATOM     65  NE2 GLN B 692     -20.533   1.567  23.911  0.80 37.28 LIG-0.37  N 
ATOM     66 21HE GLN B 692     -20.823   0.764  23.805  0.80 37.28 LIG 0.16  HD
ATOM     67 22HE GLN B 692     -20.191   1.806  24.663  0.80 37.28 LIG 0.16  HD
ATOM     68 OE1  GLN B 692     -20.215   3.604  23.005  0.80 37.51 LIG-0.27  OA
ENDBRANCH 63 64
ENDBRANCH 62 63
ENDBRANCH 58 62
ENDBRANCH 56 58
ENDBRANCH 48 54
ENDBRANCH 46 48
ENDBRANCH 43 44
BRANCH 43 69
ATOM     69  CB  PHE B 690     -22.822   8.096  26.079  1.00 21.72 LIG 0.07  C 
BRANCH 69 70
ATOM     70  CG  PHE B 690     -22.412   8.171  24.625  1.00 20.05 LIG-0.06  A 
ATOM     71  CD2 PHE B 690     -23.177   8.885  23.720  1.00 19.86 LIG 0.01  A 
ATOM     72  CE2 PHE B 690     -22.828   8.971  22.361  1.00 20.22 LIG 0.00  A 
ATOM     73  CZ  PHE B 690     -21.711   8.267  21.916  1.00 19.78 LIG 0.00  A 
ATOM     74  CE1 PHE B 690     -20.953   7.556  22.800  1.00 19.59 LIG 0.00  A 
ATOM     75  CD1 PHE B 690     -21.312   7.475  24.163  1.00 20.29 LIG 0.01  A 
ENDBRANCH 69 70
ENDBRANCH 43 69
ENDBRANCH 40 43
ENDBRANCH 1 39
BRANCH 1 76
ATOM     76  CB  PHE B 689     -24.267   5.122  29.919  1.00 23.35 LIG 0.07  C 
BRANCH 76 77
ATOM     77  CG  PHE B 689     -24.929   3.837  29.620  1.00 24.01 LIG-0.06  A 
ATOM     78  CD2 PHE B 689     -26.270   3.797  29.231  1.00 25.22 LIG 0.01  A 
ATOM     79  CE2 PHE B 689     -26.890   2.581  28.906  1.00 25.32 LIG 0.00  A 
ATOM     80  CZ  PHE B 689     -26.172   1.380  29.024  1.00 27.81 LIG 0.00  A 
ATOM     81  CE1 PHE B 689     -24.835   1.405  29.422  1.00 24.81 LIG 0.00  A 
ATOM     82  CD1 PHE B 689     -24.212   2.635  29.706  1.00 27.61 LIG 0.01  A 
ENDBRANCH 76 77
ENDBRANCH 1 76
TORSDOF 33
ENDMDL
MODEL 15
USER: ADFR SOLUTION from run 177
USER: SCORE 21.932239 LL:  -6.386 LR: -18.111 RR:   0.000 FEB:  -8.267
USER: RMSD 5.049370
USER: SEED 176
USER: STATUS no improvement in best in 6 clusters for 5 generations
USER: GENES 35
USER: genes 0 Translation |==|  0.56877 0.40368 0.55187
USER: genes 1 Rotation |==|  0.56511 0.46604 0.46192 0.99311
USER: genes 2 Torsion [C]-CA--N-[C] |==|  0.70371
USER: genes 3 Torsion [N]-C--CA-[N] |==|  0.36425
USER: genes 4 Torsion [C]-CA--N-[C] |==|  0.65663
USER: genes 5 Torsion [N]-C--CA-[N] |==|  0.27306
USER: genes 6 Torsion [C]-CA--N-[C] |==|  0.65235
USER: genes 7 Torsion [N]-C--CA-[N] |==|  0.47204
USER: genes 8 Torsion [C]-CA--CB-[CG2] |==|  0.86974
USER: genes 9 Torsion [CA]-CB--OG1-[HG1] |==|  0.14793
USER: genes 10 Torsion [C]-CA--CB-[CG] |==|  0.48813
USER: genes 11 Torsion [CA]-CB--CG-[CD1] |==|  0.92454
USER: genes 12 Torsion [CE2]-CZ--OH-[HH] |==|  0.20742
USER: genes 13 Torsion [C]-CA--CB-[CG] |==|  0.19559
USER: genes 14 Torsion [CA]-CB--CG-[CD] |==|  0.63864
USER: genes 15 Torsion [CB]-CG--CD-[CE] |==|  0.72159
USER: genes 16 Torsion [CG]-CD--CE-[NZ] |==|  0.39122
USER: genes 17 Torsion [CD]-CE--NZ-[HZ2] |==|  0.20381
USER: genes 18 Torsion [N]-CA--C-[N] |==|  0.39169
USER: genes 19 Torsion [C]-N--CA-[CB] |==|  0.38431
USER: genes 20 Torsion [N]-CA--C-[N] |==|  0.45731
USER: genes 21 Torsion [C]-N--CA-[CB] |==|  0.76296
USER: genes 22 Torsion [N]-CA--CB-[CG] |==|  0.77869
USER: genes 23 Torsion [CA]-CB--CG-[CD] |==|  0.38980
USER: genes 24 Torsion [CB]-CG--CD-[OE2] |==|  0.51437
USER: genes 25 Torsion [N]-CA--C-[N] |==|  0.19445
USER: genes 26 Torsion [C]-N--CA-[C] |==|  0.59706
USER: genes 27 Torsion [N]-CA--C-[OXT] |==|  0.98165
USER: genes 28 Torsion [N]-CA--CB-[CG] |==|  0.03626
USER: genes 29 Torsion [CA]-CB--CG-[CD] |==|  0.25053
USER: genes 30 Torsion [CB]-CG--CD-[OE1] |==|  0.33456
USER: genes 31 Torsion [N]-CA--CB-[CG] |==|  0.16213
USER: genes 32 Torsion [CA]-CB--CG-[CD2] |==|  0.68941
USER: genes 33 Torsion [N]-CA--CB-[CG] |==|  0.80361
USER: genes 34 Torsion [CA]-CB--CG-[CD1] |==|  0.75174
ROOT
ATOM      1  CA  PHE B 689     -23.350   4.932  27.979  1.00 23.75 LIG 0.18  C 
ENDROOT
BRANCH 1 2
ATOM      2  N   PHE B 689     -22.774   5.508  29.209  1.00 25.36 LIG-0.35  N 
ATOM      3 H    PHE B 689     -23.240   6.147  29.546  1.00 25.36 LIG 0.16  HD
ATOM      4  C   LYS B 688     -21.636   5.074  29.741  1.00 27.14 LIG 0.24  C 
ATOM      5 O    LYS B 688     -20.958   4.185  29.242  1.00 24.82 LIG-0.27  OA
BRANCH 4 6
ATOM      6  CA  LYS B 688     -21.172   5.757  31.023  1.00 29.11 LIG 0.18  C 
BRANCH 6 7
ATOM      7  N   LYS B 688     -20.817   4.746  32.029  1.00 31.24 LIG-0.35  N 
ATOM      8  C   TYR B 687     -21.388   4.724  33.232  1.00 34.73 LIG 0.24  C 
ATOM      9 O    TYR B 687     -22.232   5.557  33.597  1.00 34.89 LIG-0.27  OA
ATOM     10 H    LYS B 688     -20.220   4.184  31.772  1.00 31.24 LIG 0.16  HD
BRANCH 8 11
ATOM     11  CA  TYR B 687     -20.973   3.593  34.162  1.00 37.40 LIG 0.18  C 
BRANCH 11 12
ATOM     12  N   TYR B 687     -19.955   3.984  35.130  1.00 39.68 LIG-0.34  N 
ATOM     13 H    TYR B 687     -20.163   4.667  35.609  1.00 39.68 LIG 0.16  HD
ATOM     14  C   THR B 686     -18.806   3.318  35.243  1.00 41.22 LIG 0.26  C 
ATOM     15 O    THR B 686     -18.427   2.477  34.425  1.00 41.89 LIG-0.27  OA
BRANCH 14 16
ATOM     16  CA  THR B 686     -17.950   3.642  36.471  1.00 42.81 LIG 0.43  C 
ATOM     17  N   THR B 686     -16.807   2.685  36.643  1.00 43.04 LIG 0.62  N 
BRANCH 16 18
ATOM     18  CB  THR B 686     -17.484   5.121  36.307  1.00 43.12 LIG 0.16  C 
ATOM     19  CG2 THR B 686     -16.942   5.384  34.873  1.00 43.85 LIG 0.04  C 
BRANCH 18 20
ATOM     20 OG1  THR B 686     -18.550   6.026  36.614  1.00 44.58 LIG-0.39  OA
ATOM     21 HG1  THR B 686     -18.861   5.845  37.373  1.00 44.58 LIG 0.21  HD
ENDBRANCH 18 20
ENDBRANCH 16 18
ENDBRANCH 14 16
ENDBRANCH 11 12
BRANCH 11 22
ATOM     22  CB  TYR B 687     -22.200   3.084  34.902  1.00 38.54 LIG 0.07  C 
BRANCH 22 23
ATOM     23  CG  TYR B 687     -21.956   1.892  35.787  1.00 40.36 LIG-0.06  A 
ATOM     24  CD2 TYR B 687     -22.771   1.652  36.899  1.00 43.44 LIG 0.01  A 
ATOM     25  CE2 TYR B 687     -22.559   0.539  37.718  1.00 43.74 LIG 0.04  A 
ATOM     26  CZ  TYR B 687     -21.521  -0.334  37.411  1.00 42.51 LIG 0.07  A 
ATOM     27  CE1 TYR B 687     -20.704  -0.110  36.307  1.00 41.41 LIG 0.04  A 
ATOM     28  CD1 TYR B 687     -20.927   0.995  35.508  1.00 40.86 LIG 0.01  A 
BRANCH 26 29
ATOM     29 OH   TYR B 687     -21.316  -1.430  38.215  1.00 42.23 LIG-0.36  OA
ATOM     30 HH   TYR B 687     -21.909  -2.005  38.062  1.00 42.23 LIG 0.22  HD
ENDBRANCH 26 29
ENDBRANCH 22 23
ENDBRANCH 11 22
ENDBRANCH 8 11
ENDBRANCH 6 7
BRANCH 6 31
ATOM     31  CB  LYS B 688     -19.956   6.627  30.735  1.00 31.14 LIG 0.04  C 
BRANCH 31 32
ATOM     32  CG  LYS B 688     -20.241   7.854  29.928  1.00 35.59 LIG 0.00  C 
BRANCH 32 33
ATOM     33  CD  LYS B 688     -19.289   7.996  28.748  1.00 43.16 LIG 0.03  C 
BRANCH 33 34
ATOM     34  CE  LYS B 688     -18.173   9.004  29.068  1.00 45.87 LIG 0.23  C 
BRANCH 34 35
ATOM     35  NZ  LYS B 688     -16.827   8.565  28.527  1.00 48.40 LIG-0.08  N 
ATOM     36 HZ2  LYS B 688     -16.816   8.666  27.643  1.00 48.40 LIG 0.27  HD
ATOM     37 HZ3  LYS B 688     -16.185   9.062  28.890  1.00 48.40 LIG 0.27  HD
ATOM     38 HZ1  LYS B 688     -16.691   7.709  28.729  1.00 48.40 LIG 0.27  HD
ENDBRANCH 34 35
ENDBRANCH 33 34
ENDBRANCH 32 33
ENDBRANCH 31 32
ENDBRANCH 6 31
ENDBRANCH 4 6
ENDBRANCH 1 2
BRANCH 1 39
ATOM     39  C   PHE B 689     -23.190   5.868  26.791  1.00 24.45 LIG 0.24  C 
ATOM     40  N   PHE B 690     -22.898   5.314  25.630  1.00 21.51 LIG-0.35  N 
ATOM     41 H    PHE B 690     -22.707   4.482  25.527  1.00 21.51 LIG 0.16  HD
ATOM     42 O    PHE B 689     -23.314   7.093  26.920  1.00 26.25 LIG-0.27  OA
BRANCH 40 43
ATOM     43  CA  PHE B 690     -22.877   6.098  24.400  1.00 22.61 LIG 0.18  C 
BRANCH 43 44
ATOM     44  C   PHE B 690     -24.167   5.851  23.660  1.00 22.66 LIG 0.24  C 
ATOM     45 O    PHE B 690     -24.871   4.915  23.960  1.00 22.36 LIG-0.27  OA
ATOM     46  N   GLU B 691     -24.455   6.714  22.691  1.00 25.08 LIG-0.35  N 
ATOM     47 H    GLU B 691     -23.955   7.383  22.491  1.00 25.08 LIG 0.16  HD
BRANCH 46 48
ATOM     48  CA  GLU B 691     -25.654   6.607  21.867  1.00 27.99 LIG 0.18  C 
BRANCH 48 49
ATOM     49  CB  GLU B 691     -25.396   5.659  20.696  1.00 28.84 LIG 0.04  C 
BRANCH 49 50
ATOM     50  CG  GLU B 691     -24.624   6.336  19.560  1.00 33.53 LIG 0.12  C 
BRANCH 50 51
ATOM     51  CD  GLU B 691     -23.567   5.427  18.917  1.00 40.22 LIG 0.17  C 
ATOM     52 OE1  GLU B 691     -23.482   4.227  19.282  1.00 42.38 LIG-0.65  OA
ATOM     53 OE2  GLU B 691     -22.815   5.930  18.041  1.00 45.19 LIG-0.65  OA
ENDBRANCH 50 51
ENDBRANCH 49 50
ENDBRANCH 48 49
BRANCH 48 54
ATOM     54  C   GLU B 691     -26.886   6.161  22.643  1.00 29.69 LIG 0.24  C 
ATOM     55 O    GLU B 691     -27.382   5.034  22.453  1.00 29.49 LIG-0.27  OA
ATOM     56  N   GLN B 692     -27.386   7.036  23.505  1.00 30.92 LIG-0.34  N 
ATOM     57 H    GLN B 692     -27.039   7.802  23.686  1.00 30.92 LIG 0.16  HD
BRANCH 56 58
ATOM     58  CA  GLN B 692     -28.620   6.722  24.227  1.00 33.57 LIG 0.19  C 
BRANCH 58 59
ATOM     59  C   GLN B 692     -29.462   7.967  24.444  1.00 34.50 LIG 0.20  C 
ATOM     60 O    GLN B 692     -30.589   7.872  24.959  1.00 34.98 LIG-0.65  OA
ATOM     61 OXT  GLN B 692     -29.005   9.084  24.130  1.00 35.71 LIG-0.65  OA
ENDBRANCH 58 59
BRANCH 58 62
ATOM     62  CB  GLN B 692     -28.284   6.060  25.580  1.00 33.00 LIG 0.04  C 
BRANCH 62 63
ATOM     63  CG  GLN B 692     -26.812   6.175  25.983  0.80 34.02 LIG 0.10  C 
BRANCH 63 64
ATOM     64  CD  GLN B 692     -26.496   7.415  26.801  0.80 34.38 LIG 0.21  C 
ATOM     65  NE2 GLN B 692     -26.778   8.589  26.232  0.80 37.28 LIG-0.37  N 
ATOM     66 21HE GLN B 692     -27.107   8.613  25.437  0.80 37.28 LIG 0.16  HD
ATOM     67 22HE GLN B 692     -26.632   9.321  26.660  0.80 37.28 LIG 0.16  HD
ATOM     68 OE1  GLN B 692     -26.025   7.323  27.935  0.80 37.51 LIG-0.27  OA
ENDBRANCH 63 64
ENDBRANCH 62 63
ENDBRANCH 58 62
ENDBRANCH 56 58
ENDBRANCH 48 54
ENDBRANCH 46 48
ENDBRANCH 43 44
BRANCH 43 69
ATOM     69  CB  PHE B 690     -21.677   5.715  23.513  1.00 21.72 LIG 0.07  C 
BRANCH 69 70
ATOM     70  CG  PHE B 690     -21.632   4.257  23.111  1.00 20.05 LIG-0.06  A 
ATOM     71  CD2 PHE B 690     -20.641   3.428  23.605  1.00 19.86 LIG 0.01  A 
ATOM     72  CE2 PHE B 690     -20.566   2.070  23.248  1.00 20.22 LIG 0.00  A 
ATOM     73  CZ  PHE B 690     -21.485   1.574  22.327  1.00 19.78 LIG 0.00  A 
ATOM     74  CE1 PHE B 690     -22.463   2.385  21.830  1.00 19.59 LIG 0.00  A 
ATOM     75  CD1 PHE B 690     -22.531   3.747  22.194  1.00 20.29 LIG 0.01  A 
ENDBRANCH 69 70
ENDBRANCH 43 69
ENDBRANCH 40 43
ENDBRANCH 1 39
BRANCH 1 76
ATOM     76  CB  PHE B 689     -24.832   4.575  28.159  1.00 23.35 LIG 0.07  C 
BRANCH 76 77
ATOM     77  CG  PHE B 689     -25.041   3.413  29.046  1.00 24.01 LIG-0.06  A 
ATOM     78  CD2 PHE B 689     -25.233   3.588  30.418  1.00 25.22 LIG 0.01  A 
ATOM     79  CE2 PHE B 689     -25.473   2.489  31.258  1.00 25.32 LIG 0.00  A 
ATOM     80  CZ  PHE B 689     -25.467   1.190  30.724  1.00 27.81 LIG 0.00  A 
ATOM     81  CE1 PHE B 689     -25.265   1.002  29.355  1.00 24.81 LIG 0.00  A 
ATOM     82  CD1 PHE B 689     -25.066   2.115  28.517  1.00 27.61 LIG 0.01  A 
ENDBRANCH 76 77
ENDBRANCH 1 76
TORSDOF 33
ENDMDL
