MODEL 1
USER: ADFR SOLUTION from run 64
USER: SCORE 15.519545 LL:  -2.508 LR: -13.602 RR:   0.000 FEB:  -8.829
USER: RMSD 3.192601
USER: SEED 63
USER: STATUS no improvement in best in 12 clusters for 5 generations
USER: GENES 18
USER: genes 0 Translation |==|  0.53298 0.52702 0.53594
USER: genes 1 Rotation |==|  0.35427 0.56491 0.33202 0.94309
USER: genes 2 Torsion [N]-C--CA-[N] |==|  0.24549
USER: genes 3 Torsion [C]-CA--CB-[CG] |==|  0.15362
USER: genes 4 Torsion [CA]-CB--CG-[CD] |==|  0.64183
USER: genes 5 Torsion [CB]-CG--CD-[OE2] |==|  0.35951
USER: genes 6 Torsion [C]-CA--N-[C] |==|  0.56310
USER: genes 7 Torsion [N]-C--CA-[N] |==|  0.93214
USER: genes 8 Torsion [C]-CA--CB-[CG] |==|  0.67054
USER: genes 9 Torsion [CA]-CB--CG-[CD] |==|  0.20180
USER: genes 10 Torsion [CB]-CG--CD-[OE2] |==|  0.01287
USER: genes 11 Torsion [C]-N--CA-[C] |==|  0.82072
USER: genes 12 Torsion [N]-CA--C-[N] |==|  0.37455
USER: genes 13 Torsion [C]-N--CA-[CB] |==|  0.86077
USER: genes 14 Torsion [N]-CA--CB-[CG] |==|  0.71085
USER: genes 15 Torsion [CA]-CB--CG-[OD1] |==|  0.74916
USER: genes 16 Torsion [N]-CA--C-[O] |==|  0.14469
USER: genes 17 Torsion [N]-CA--CB-[CG2] |==|  0.16571
ROOT
ATOM      1  C   GLU Q 640      31.566  56.675  71.902  1.00 42.49 LIG 0.24  C 
ATOM      2 O    GLU Q 640      32.463  56.220  71.196  1.00 42.42 LIG-0.27  OA
ATOM      3  N   VAL Q 641      31.657  56.776  73.223  1.00 42.52 LIG-0.35  N 
ATOM      4 H    VAL Q 641      31.009  57.038  73.725  1.00 42.52 LIG 0.16  HD
ENDROOT
BRANCH 1 5
ATOM      5  CA  GLU Q 640      30.244  57.145  71.303  1.00 42.54 LIG 0.18  C 
BRANCH 5 6
ATOM      6  CB  GLU Q 640      29.885  56.293  70.083  1.00 42.65 LIG 0.04  C 
BRANCH 6 7
ATOM      7  CG  GLU Q 640      29.836  54.797  70.363  1.00 42.42 LIG 0.12  C 
BRANCH 7 8
ATOM      8  CD  GLU Q 640      30.659  53.978  69.380  1.00 42.56 LIG 0.17  C 
ATOM      9 OE2  GLU Q 640      31.473  53.144  69.844  1.00 42.27 LIG-0.65  OA
ATOM     10 OE1  GLU Q 640      30.495  54.163  68.149  1.00 42.60 LIG-0.65  OA
ENDBRANCH 7 8
ENDBRANCH 6 7
ENDBRANCH 5 6
BRANCH 5 11
ATOM     11  N   GLU Q 640      30.209  58.571  70.973  1.00 42.67 LIG-0.35  N 
ATOM     12  C   GLU Q 639      29.058  59.234  70.873  1.00 42.69 LIG 0.26  C 
ATOM     13 O    GLU Q 639      27.971  58.738  71.172  1.00 42.71 LIG-0.27  OA
ATOM     14 H    GLU Q 640      30.981  58.929  70.853  1.00 42.67 LIG 0.16  HD
BRANCH 12 15
ATOM     15  CA  GLU Q 639      29.134  60.670  70.354  1.00 42.78 LIG 0.40  C 
ATOM     16  N   GLU Q 639      30.465  61.310  70.574  1.00 42.84 LIG 0.61  N 
BRANCH 15 17
ATOM     17  CB  GLU Q 639      28.758  60.694  68.868  1.00 42.78 LIG 0.06  C 
BRANCH 17 18
ATOM     18  CG  GLU Q 639      29.862  61.191  67.951  1.00 43.01 LIG 0.12  C 
BRANCH 18 19
ATOM     19  CD  GLU Q 639      30.995  60.189  67.788  1.00 43.16 LIG 0.17  C 
ATOM     20 OE1  GLU Q 639      32.008  60.515  67.130  1.00 43.27 LIG-0.65  OA
ATOM     21 OE2  GLU Q 639      30.873  59.068  68.325  1.00 43.17 LIG-0.65  OA
ENDBRANCH 18 19
ENDBRANCH 17 18
ENDBRANCH 15 17
ENDBRANCH 12 15
ENDBRANCH 5 11
ENDBRANCH 1 5
BRANCH 3 22
ATOM     22  CA  VAL Q 641      32.876  56.453  73.950  1.00 42.43 LIG 0.18  C 
BRANCH 22 23
ATOM     23  C   VAL Q 641      33.223  54.957  73.819  1.00 42.31 LIG 0.24  C 
ATOM     24 O    VAL Q 641      32.347  54.097  73.939  1.00 42.15 LIG-0.27  OA
ATOM     25  N   ASP Q 642      34.495  54.657  73.555  1.00 42.19 LIG-0.35  N 
ATOM     26 H    ASP Q 642      35.116  55.245  73.469  1.00 42.19 LIG 0.16  HD
BRANCH 25 27
ATOM     27  CA  ASP Q 642      34.947  53.272  73.387  1.00 42.17 LIG 0.17  C 
BRANCH 27 28
ATOM     28  CB  ASP Q 642      34.469  52.394  74.550  1.00 42.21 LIG 0.15  C 
BRANCH 28 29
ATOM     29  CG  ASP Q 642      35.574  52.071  75.545  1.00 42.38 LIG 0.17  C 
ATOM     30 OD1  ASP Q 642      36.269  51.043  75.377  1.00 42.36 LIG-0.65  OA
ATOM     31 OD2  ASP Q 642      35.743  52.854  76.506  1.00 42.41 LIG-0.65  OA
ENDBRANCH 28 29
ENDBRANCH 27 28
BRANCH 27 32
ATOM     32  C   ASP Q 642      34.507  52.661  72.054  1.00 42.05 LIG 0.22  C 
ATOM     33 O    ASP Q 642      34.731  53.235  70.989  1.00 41.78 LIG-0.29  OA
ENDBRANCH 27 32
ENDBRANCH 25 27
ENDBRANCH 22 23
BRANCH 22 34
ATOM     34  CB  VAL Q 641      32.748  56.919  75.430  1.00 42.38 LIG 0.01  C 
ATOM     35  CG2 VAL Q 641      31.592  56.249  76.099  1.00 42.63 LIG 0.01  C 
ATOM     36  CG1 VAL Q 641      32.652  58.443  75.547  1.00 42.36 LIG 0.01  C 
ENDBRANCH 22 34
ENDBRANCH 3 22
TORSDOF 16
ENDMDL
MODEL 2
USER: ADFR SOLUTION from run 36
USER: SCORE 15.180376 LL:  -2.123 LR: -13.455 RR:   0.000 FEB:  -8.682
USER: RMSD 2.556797
USER: SEED 35
USER: STATUS no improvement in best in 9 clusters for 5 generations
USER: GENES 18
USER: genes 0 Translation |==|  0.52967 0.49536 0.55728
USER: genes 1 Rotation |==|  0.40294 0.54286 0.42195 0.98234
USER: genes 2 Torsion [N]-C--CA-[N] |==|  0.34697
USER: genes 3 Torsion [C]-CA--CB-[CG] |==|  0.64770
USER: genes 4 Torsion [CA]-CB--CG-[CD] |==|  0.32835
USER: genes 5 Torsion [CB]-CG--CD-[OE2] |==|  0.16755
USER: genes 6 Torsion [C]-CA--N-[C] |==|  0.60000
USER: genes 7 Torsion [N]-C--CA-[N] |==|  0.45736
USER: genes 8 Torsion [C]-CA--CB-[CG] |==|  0.38439
USER: genes 9 Torsion [CA]-CB--CG-[CD] |==|  0.85576
USER: genes 10 Torsion [CB]-CG--CD-[OE2] |==|  0.51108
USER: genes 11 Torsion [C]-N--CA-[C] |==|  0.75204
USER: genes 12 Torsion [N]-CA--C-[N] |==|  0.36135
USER: genes 13 Torsion [C]-N--CA-[CB] |==|  0.38515
USER: genes 14 Torsion [N]-CA--CB-[CG] |==|  0.05526
USER: genes 15 Torsion [CA]-CB--CG-[OD1] |==|  0.79766
USER: genes 16 Torsion [N]-CA--C-[O] |==|  0.15150
USER: genes 17 Torsion [N]-CA--CB-[CG2] |==|  0.11784
ROOT
ATOM      1  C   GLU Q 640      31.496  56.153  72.286  1.00 42.49 LIG 0.24  C 
ATOM      2 O    GLU Q 640      32.508  56.231  71.593  1.00 42.42 LIG-0.27  OA
ATOM      3  N   VAL Q 641      31.525  55.959  73.600  1.00 42.52 LIG-0.35  N 
ATOM      4 H    VAL Q 641      30.820  55.844  74.079  1.00 42.52 LIG 0.16  HD
ENDROOT
BRANCH 1 5
ATOM      5  CA  GLU Q 640      30.102  56.251  71.673  1.00 42.54 LIG 0.18  C 
BRANCH 5 6
ATOM      6  CB  GLU Q 640      29.808  55.009  70.830  1.00 42.65 LIG 0.04  C 
BRANCH 6 7
ATOM      7  CG  GLU Q 640      29.365  55.315  69.406  1.00 42.42 LIG 0.12  C 
BRANCH 7 8
ATOM      8  CD  GLU Q 640      30.313  54.761  68.353  1.00 42.56 LIG 0.17  C 
ATOM      9 OE2  GLU Q 640      30.498  53.520  68.320  1.00 42.27 LIG-0.65  OA
ATOM     10 OE1  GLU Q 640      30.873  55.558  67.560  1.00 42.60 LIG-0.65  OA
ENDBRANCH 7 8
ENDBRANCH 6 7
ENDBRANCH 5 6
BRANCH 5 11
ATOM     11  N   GLU Q 640      29.872  57.473  70.901  1.00 42.67 LIG-0.35  N 
ATOM     12  C   GLU Q 639      28.688  58.082  70.897  1.00 42.69 LIG 0.26  C 
ATOM     13 O    GLU Q 639      27.757  57.741  71.630  1.00 42.71 LIG-0.27  OA
ATOM     14 H    GLU Q 640      30.557  57.752  70.462  1.00 42.67 LIG 0.16  HD
BRANCH 12 15
ATOM     15  CA  GLU Q 639      28.514  59.245  69.921  1.00 42.78 LIG 0.40  C 
ATOM     16  N   GLU Q 639      27.087  59.633  69.711  1.00 42.84 LIG 0.61  N 
BRANCH 15 17
ATOM     17  CB  GLU Q 639      29.337  60.443  70.405  1.00 42.78 LIG 0.06  C 
BRANCH 17 18
ATOM     18  CG  GLU Q 639      30.075  61.183  69.302  1.00 43.01 LIG 0.12  C 
BRANCH 18 19
ATOM     19  CD  GLU Q 639      30.917  60.264  68.429  1.00 43.16 LIG 0.17  C 
ATOM     20 OE1  GLU Q 639      30.873  59.030  68.624  1.00 43.27 LIG-0.65  OA
ATOM     21 OE2  GLU Q 639      31.623  60.782  67.540  1.00 43.17 LIG-0.65  OA
ENDBRANCH 18 19
ENDBRANCH 17 18
ENDBRANCH 15 17
ENDBRANCH 12 15
ENDBRANCH 5 11
ENDBRANCH 1 5
BRANCH 3 22
ATOM     22  CA  VAL Q 641      32.767  55.925  74.358  1.00 42.43 LIG 0.18  C 
BRANCH 22 23
ATOM     23  C   VAL Q 641      33.343  54.497  74.423  1.00 42.31 LIG 0.24  C 
ATOM     24 O    VAL Q 641      32.626  53.546  74.744  1.00 42.15 LIG-0.27  OA
ATOM     25  N   ASP Q 642      34.628  54.354  74.100  1.00 42.19 LIG-0.35  N 
ATOM     26 H    ASP Q 642      35.140  55.007  73.875  1.00 42.19 LIG 0.16  HD
BRANCH 25 27
ATOM     27  CA  ASP Q 642      35.287  53.043  74.103  1.00 42.17 LIG 0.17  C 
BRANCH 27 28
ATOM     28  CB  ASP Q 642      36.213  52.892  72.890  1.00 42.21 LIG 0.15  C 
BRANCH 28 29
ATOM     29  CG  ASP Q 642      36.604  54.225  72.270  1.00 42.38 LIG 0.17  C 
ATOM     30 OD1  ASP Q 642      35.754  54.869  71.613  1.00 42.36 LIG-0.65  OA
ATOM     31 OD2  ASP Q 642      37.776  54.627  72.440  1.00 42.41 LIG-0.65  OA
ENDBRANCH 28 29
ENDBRANCH 27 28
BRANCH 27 32
ATOM     32  C   ASP Q 642      36.066  52.772  75.394  1.00 42.05 LIG 0.22  C 
ATOM     33 O    ASP Q 642      35.519  52.855  76.493  1.00 41.78 LIG-0.29  OA
ENDBRANCH 27 32
ENDBRANCH 25 27
ENDBRANCH 22 23
BRANCH 22 34
ATOM     34  CB  VAL Q 641      32.544  56.555  75.765  1.00 42.38 LIG 0.01  C 
ATOM     35  CG2 VAL Q 641      31.247  56.098  76.351  1.00 42.63 LIG 0.01  C 
ATOM     36  CG1 VAL Q 641      32.633  58.083  75.733  1.00 42.36 LIG 0.01  C 
ENDBRANCH 22 34
ENDBRANCH 3 22
TORSDOF 16
ENDMDL
MODEL 3
USER: ADFR SOLUTION from run 24
USER: SCORE 15.372942 LL:  -2.318 LR: -13.218 RR:   0.000 FEB:  -8.445
USER: RMSD 8.884526
USER: SEED 23
USER: STATUS no improvement in best in 5 clusters for 5 generations
USER: GENES 18
USER: genes 0 Translation |==|  0.49348 0.52251 0.50061
USER: genes 1 Rotation |==|  0.08967 0.53226 0.78203 0.53239
USER: genes 2 Torsion [N]-C--CA-[N] |==|  0.43954
USER: genes 3 Torsion [C]-CA--CB-[CG] |==|  0.68681
USER: genes 4 Torsion [CA]-CB--CG-[CD] |==|  0.20137
USER: genes 5 Torsion [CB]-CG--CD-[OE2] |==|  0.38711
USER: genes 6 Torsion [C]-CA--N-[C] |==|  0.71798
USER: genes 7 Torsion [N]-C--CA-[N] |==|  0.77407
USER: genes 8 Torsion [C]-CA--CB-[CG] |==|  0.63682
USER: genes 9 Torsion [CA]-CB--CG-[CD] |==|  0.67034
USER: genes 10 Torsion [CB]-CG--CD-[OE2] |==|  0.26974
USER: genes 11 Torsion [C]-N--CA-[C] |==|  0.79626
USER: genes 12 Torsion [N]-CA--C-[N] |==|  0.35556
USER: genes 13 Torsion [C]-N--CA-[CB] |==|  0.51730
USER: genes 14 Torsion [N]-CA--CB-[CG] |==|  0.84402
USER: genes 15 Torsion [CA]-CB--CG-[OD1] |==|  0.19990
USER: genes 16 Torsion [N]-CA--C-[O] |==|  0.26433
USER: genes 17 Torsion [N]-CA--CB-[CG2] |==|  0.45253
ROOT
ATOM      1  C   GLU Q 640      30.736  56.600  71.266  1.00 42.49 LIG 0.24  C 
ATOM      2 O    GLU Q 640      31.323  55.893  70.450  1.00 42.42 LIG-0.27  OA
ATOM      3  N   VAL Q 641      29.802  57.483  70.929  1.00 42.52 LIG-0.35  N 
ATOM      4 H    VAL Q 641      29.433  58.021  71.489  1.00 42.52 LIG 0.16  HD
ENDROOT
BRANCH 1 5
ATOM      5  CA  GLU Q 640      31.060  56.532  72.755  1.00 42.54 LIG 0.18  C 
BRANCH 5 6
ATOM      6  CB  GLU Q 640      31.922  57.729  73.163  1.00 42.65 LIG 0.04  C 
BRANCH 6 7
ATOM      7  CG  GLU Q 640      33.341  57.361  73.574  1.00 42.42 LIG 0.12  C 
BRANCH 7 8
ATOM      8  CD  GLU Q 640      34.216  56.951  72.399  1.00 42.56 LIG 0.17  C 
ATOM      9 OE2  GLU Q 640      35.404  57.354  72.380  1.00 42.27 LIG-0.65  OA
ATOM     10 OE1  GLU Q 640      33.723  56.229  71.497  1.00 42.60 LIG-0.65  OA
ENDBRANCH 7 8
ENDBRANCH 6 7
ENDBRANCH 5 6
BRANCH 5 11
ATOM     11  N   GLU Q 640      31.678  55.275  73.178  1.00 42.67 LIG-0.35  N 
ATOM     12  C   GLU Q 639      30.976  54.325  73.791  1.00 42.69 LIG 0.26  C 
ATOM     13 O    GLU Q 639      29.752  54.380  73.929  1.00 42.71 LIG-0.27  OA
ATOM     14 H    GLU Q 640      32.516  55.211  72.997  1.00 42.67 LIG 0.16  HD
BRANCH 12 15
ATOM     15  CA  GLU Q 639      31.760  53.134  74.341  1.00 42.78 LIG 0.40  C 
ATOM     16  N   GLU Q 639      32.084  52.109  73.305  1.00 42.84 LIG 0.61  N 
BRANCH 15 17
ATOM     17  CB  GLU Q 639      33.035  53.637  75.026  1.00 42.78 LIG 0.06  C 
BRANCH 17 18
ATOM     18  CG  GLU Q 639      34.302  52.915  74.601  1.00 43.01 LIG 0.12  C 
BRANCH 18 19
ATOM     19  CD  GLU Q 639      34.995  52.202  75.753  1.00 43.16 LIG 0.17  C 
ATOM     20 OE1  GLU Q 639      35.752  52.854  76.506  1.00 43.27 LIG-0.65  OA
ATOM     21 OE2  GLU Q 639      34.778  50.983  75.907  1.00 43.17 LIG-0.65  OA
ENDBRANCH 18 19
ENDBRANCH 17 18
ENDBRANCH 15 17
ENDBRANCH 12 15
ENDBRANCH 5 11
ENDBRANCH 1 5
BRANCH 3 22
ATOM     22  CA  VAL Q 641      29.311  57.619  69.565  1.00 42.43 LIG 0.18  C 
BRANCH 22 23
ATOM     23  C   VAL Q 641      30.354  58.308  68.663  1.00 42.31 LIG 0.24  C 
ATOM     24 O    VAL Q 641      30.873  59.374  69.005  1.00 42.15 LIG-0.27  OA
ATOM     25  N   ASP Q 642      30.668  57.686  67.527  1.00 42.19 LIG-0.35  N 
ATOM     26 H    ASP Q 642      30.316  56.944  67.275  1.00 42.19 LIG 0.16  HD
BRANCH 25 27
ATOM     27  CA  ASP Q 642      31.662  58.230  66.594  1.00 42.17 LIG 0.17  C 
BRANCH 27 28
ATOM     28  CB  ASP Q 642      31.716  57.400  65.305  1.00 42.21 LIG 0.15  C 
BRANCH 28 29
ATOM     29  CG  ASP Q 642      31.997  55.926  65.557  1.00 42.38 LIG 0.17  C 
ATOM     30 OD1  ASP Q 642      31.105  55.210  66.066  1.00 42.36 LIG-0.65  OA
ATOM     31 OD2  ASP Q 642      33.126  55.486  65.247  1.00 42.41 LIG-0.65  OA
ENDBRANCH 28 29
ENDBRANCH 27 28
BRANCH 27 32
ATOM     32  C   ASP Q 642      31.419  59.704  66.259  1.00 42.05 LIG 0.22  C 
ATOM     33 O    ASP Q 642      32.000  60.598  66.874  1.00 41.78 LIG-0.29  OA
ENDBRANCH 27 32
ENDBRANCH 25 27
ENDBRANCH 22 23
BRANCH 22 34
ATOM     34  CB  VAL Q 641      27.936  58.349  69.570  1.00 42.38 LIG 0.01  C 
ATOM     35  CG2 VAL Q 641      27.606  58.867  68.208  1.00 42.63 LIG 0.01  C 
ATOM     36  CG1 VAL Q 641      27.878  59.463  70.618  1.00 42.36 LIG 0.01  C 
ENDBRANCH 22 34
ENDBRANCH 3 22
TORSDOF 16
ENDMDL
MODEL 4
USER: ADFR SOLUTION from run 158
USER: SCORE 15.888312 LL:  -2.812 LR: -13.192 RR:   0.000 FEB:  -8.420
USER: RMSD 3.658383
USER: SEED 157
USER: STATUS no improvement in best in 7 clusters for 5 generations
USER: GENES 18
USER: genes 0 Translation |==|  0.50497 0.50468 0.49227
USER: genes 1 Rotation |==|  0.37053 0.52978 0.40383 0.97234
USER: genes 2 Torsion [N]-C--CA-[N] |==|  0.44794
USER: genes 3 Torsion [C]-CA--CB-[CG] |==|  0.69745
USER: genes 4 Torsion [CA]-CB--CG-[CD] |==|  0.16266
USER: genes 5 Torsion [CB]-CG--CD-[OE2] |==|  0.67123
USER: genes 6 Torsion [C]-CA--N-[C] |==|  0.81473
USER: genes 7 Torsion [N]-C--CA-[N] |==|  0.58979
USER: genes 8 Torsion [C]-CA--CB-[CG] |==|  0.67695
USER: genes 9 Torsion [CA]-CB--CG-[CD] |==|  0.20060
USER: genes 10 Torsion [CB]-CG--CD-[OE2] |==|  0.87025
USER: genes 11 Torsion [C]-N--CA-[C] |==|  0.77648
USER: genes 12 Torsion [N]-CA--C-[N] |==|  0.42693
USER: genes 13 Torsion [C]-N--CA-[CB] |==|  0.85093
USER: genes 14 Torsion [N]-CA--CB-[CG] |==|  0.63820
USER: genes 15 Torsion [CA]-CB--CG-[OD1] |==|  0.17838
USER: genes 16 Torsion [N]-CA--C-[O] |==|  0.02509
USER: genes 17 Torsion [N]-CA--CB-[CG2] |==|  0.64943
ROOT
ATOM      1  C   GLU Q 640      30.977  56.306  71.116  1.00 42.49 LIG 0.24  C 
ATOM      2 O    GLU Q 640      32.017  56.229  70.464  1.00 42.42 LIG-0.27  OA
ATOM      3  N   VAL Q 641      30.947  56.308  72.444  1.00 42.52 LIG-0.35  N 
ATOM      4 H    VAL Q 641      30.219  56.301  72.902  1.00 42.52 LIG 0.16  HD
ENDROOT
BRANCH 1 5
ATOM      5  CA  GLU Q 640      29.615  56.385  70.434  1.00 42.54 LIG 0.18  C 
BRANCH 5 6
ATOM      6  CB  GLU Q 640      28.879  55.050  70.570  1.00 42.65 LIG 0.04  C 
BRANCH 6 7
ATOM      7  CG  GLU Q 640      28.771  54.265  69.269  1.00 42.42 LIG 0.12  C 
BRANCH 7 8
ATOM      8  CD  GLU Q 640      30.124  53.941  68.653  1.00 42.56 LIG 0.17  C 
ATOM      9 OE2  GLU Q 640      30.379  54.404  67.515  1.00 42.27 LIG-0.65  OA
ATOM     10 OE1  GLU Q 640      30.931  53.228  69.299  1.00 42.60 LIG-0.65  OA
ENDBRANCH 7 8
ENDBRANCH 6 7
ENDBRANCH 5 6
BRANCH 5 11
ATOM     11  N   GLU Q 640      29.669  56.812  69.034  1.00 42.67 LIG-0.35  N 
ATOM     12  C   GLU Q 639      30.049  58.042  68.696  1.00 42.69 LIG 0.26  C 
ATOM     13 O    GLU Q 639      30.498  58.853  69.509  1.00 42.71 LIG-0.27  OA
ATOM     14 H    GLU Q 640      29.438  56.208  68.468  1.00 42.67 LIG 0.16  HD
BRANCH 12 15
ATOM     15  CA  GLU Q 639      29.900  58.430  67.224  1.00 42.78 LIG 0.40  C 
ATOM     16  N   GLU Q 639      30.947  59.384  66.755  1.00 42.84 LIG 0.61  N 
BRANCH 15 17
ATOM     17  CB  GLU Q 639      29.893  57.162  66.363  1.00 42.78 LIG 0.06  C 
BRANCH 17 18
ATOM     18  CG  GLU Q 639      31.061  57.054  65.399  1.00 43.01 LIG 0.12  C 
BRANCH 18 19
ATOM     19  CD  GLU Q 639      32.380  56.749  66.095  1.00 43.16 LIG 0.17  C 
ATOM     20 OE1  GLU Q 639      33.122  55.856  65.630  1.00 43.27 LIG-0.65  OA
ATOM     21 OE2  GLU Q 639      32.676  57.410  67.111  1.00 43.17 LIG-0.65  OA
ENDBRANCH 18 19
ENDBRANCH 17 18
ENDBRANCH 15 17
ENDBRANCH 12 15
ENDBRANCH 5 11
ENDBRANCH 1 5
BRANCH 3 22
ATOM     22  CA  VAL Q 641      32.156  56.323  73.254  1.00 42.43 LIG 0.18  C 
BRANCH 22 23
ATOM     23  C   VAL Q 641      32.768  54.913  73.369  1.00 42.31 LIG 0.24  C 
ATOM     24 O    VAL Q 641      32.061  53.910  73.244  1.00 42.15 LIG-0.27  OA
ATOM     25  N   ASP Q 642      34.081  54.845  73.588  1.00 42.19 LIG-0.35  N 
ATOM     26 H    ASP Q 642      34.587  55.534  73.677  1.00 42.19 LIG 0.16  HD
BRANCH 25 27
ATOM     27  CA  ASP Q 642      34.784  53.562  73.696  1.00 42.17 LIG 0.17  C 
BRANCH 27 28
ATOM     28  CB  ASP Q 642      34.126  52.662  74.749  1.00 42.21 LIG 0.15  C 
BRANCH 28 29
ATOM     29  CG  ASP Q 642      35.122  52.082  75.743  1.00 42.38 LIG 0.17  C 
ATOM     30 OD1  ASP Q 642      35.748  52.854  76.505  1.00 42.36 LIG-0.65  OA
ATOM     31 OD2  ASP Q 642      35.282  50.842  75.754  1.00 42.41 LIG-0.65  OA
ENDBRANCH 28 29
ENDBRANCH 27 28
BRANCH 27 32
ATOM     32  C   ASP Q 642      34.879  52.821  72.359  1.00 42.05 LIG 0.22  C 
ATOM     33 O    ASP Q 642      34.547  53.367  71.308  1.00 41.78 LIG-0.29  OA
ENDBRANCH 27 32
ENDBRANCH 25 27
ENDBRANCH 22 23
BRANCH 22 34
ATOM     34  CB  VAL Q 641      31.857  56.970  74.638  1.00 42.38 LIG 0.01  C 
ATOM     35  CG2 VAL Q 641      32.807  58.089  74.917  1.00 42.63 LIG 0.01  C 
ATOM     36  CG1 VAL Q 641      31.863  55.939  75.770  1.00 42.36 LIG 0.01  C 
ENDBRANCH 22 34
ENDBRANCH 3 22
TORSDOF 16
ENDMDL
MODEL 5
USER: ADFR SOLUTION from run 141
USER: SCORE 14.432249 LL:  -2.108 LR: -13.109 RR:   0.000 FEB:  -8.336
USER: RMSD 7.728981
USER: SEED 140
USER: STATUS no improvement in best in 7 clusters for 5 generations
USER: GENES 18
USER: genes 0 Translation |==|  0.78565 0.39609 0.51296
USER: genes 1 Rotation |==|  0.70523 0.78720 0.45782 0.85159
USER: genes 2 Torsion [N]-C--CA-[N] |==|  0.76463
USER: genes 3 Torsion [C]-CA--CB-[CG] |==|  0.60135
USER: genes 4 Torsion [CA]-CB--CG-[CD] |==|  0.56057
USER: genes 5 Torsion [CB]-CG--CD-[OE2] |==|  0.63596
USER: genes 6 Torsion [C]-CA--N-[C] |==|  0.71667
USER: genes 7 Torsion [N]-C--CA-[N] |==|  0.13705
USER: genes 8 Torsion [C]-CA--CB-[CG] |==|  0.39338
USER: genes 9 Torsion [CA]-CB--CG-[CD] |==|  0.84626
USER: genes 10 Torsion [CB]-CG--CD-[OE2] |==|  0.25334
USER: genes 11 Torsion [C]-N--CA-[C] |==|  0.70586
USER: genes 12 Torsion [N]-CA--C-[N] |==|  0.40402
USER: genes 13 Torsion [C]-N--CA-[CB] |==|  0.25969
USER: genes 14 Torsion [N]-CA--CB-[CG] |==|  0.71963
USER: genes 15 Torsion [CA]-CB--CG-[OD1] |==|  0.54388
USER: genes 16 Torsion [N]-CA--C-[O] |==|  0.93052
USER: genes 17 Torsion [N]-CA--CB-[CG2] |==|  0.47479
ROOT
ATOM      1  C   GLU Q 640      36.872  54.515  71.488  1.00 42.49 LIG 0.24  C 
ATOM      2 O    GLU Q 640      37.283  55.519  70.912  1.00 42.42 LIG-0.27  OA
ATOM      3  N   VAL Q 641      37.288  53.286  71.201  1.00 42.52 LIG-0.35  N 
ATOM      4 H    VAL Q 641      36.959  52.577  71.560  1.00 42.52 LIG 0.16  HD
ENDROOT
BRANCH 1 5
ATOM      5  CA  GLU Q 640      35.813  54.603  72.583  1.00 42.54 LIG 0.18  C 
BRANCH 5 6
ATOM      6  CB  GLU Q 640      36.145  53.631  73.717  1.00 42.65 LIG 0.04  C 
BRANCH 6 7
ATOM      7  CG  GLU Q 640      34.925  52.976  74.351  1.00 42.42 LIG 0.12  C 
BRANCH 7 8
ATOM      8  CD  GLU Q 640      35.189  52.453  75.755  1.00 42.56 LIG 0.17  C 
ATOM      9 OE2  GLU Q 640      34.834  51.281  76.024  1.00 42.27 LIG-0.65  OA
ATOM     10 OE1  GLU Q 640      35.748  53.208  76.589  1.00 42.60 LIG-0.65  OA
ENDBRANCH 7 8
ENDBRANCH 6 7
ENDBRANCH 5 6
BRANCH 5 11
ATOM     11  N   GLU Q 640      34.442  54.406  72.110  1.00 42.67 LIG-0.35  N 
ATOM     12  C   GLU Q 639      33.615  55.432  71.924  1.00 42.69 LIG 0.26  C 
ATOM     13 O    GLU Q 639      33.976  56.608  72.011  1.00 42.71 LIG-0.27  OA
ATOM     14 H    GLU Q 640      34.229  53.585  71.967  1.00 42.67 LIG 0.16  HD
BRANCH 12 15
ATOM     15  CA  GLU Q 639      32.160  55.095  71.598  1.00 42.78 LIG 0.40  C 
ATOM     16  N   GLU Q 639      31.562  54.093  72.529  1.00 42.84 LIG 0.61  N 
BRANCH 15 17
ATOM     17  CB  GLU Q 639      31.331  56.383  71.580  1.00 42.78 LIG 0.06  C 
BRANCH 17 18
ATOM     18  CG  GLU Q 639      30.270  56.431  70.494  1.00 43.01 LIG 0.12  C 
BRANCH 18 19
ATOM     19  CD  GLU Q 639      30.836  56.204  69.099  1.00 43.16 LIG 0.17  C 
ATOM     20 OE1  GLU Q 639      31.248  57.185  68.442  1.00 43.27 LIG-0.65  OA
ATOM     21 OE2  GLU Q 639      30.873  55.036  68.661  1.00 43.17 LIG-0.65  OA
ENDBRANCH 18 19
ENDBRANCH 17 18
ENDBRANCH 15 17
ENDBRANCH 12 15
ENDBRANCH 5 11
ENDBRANCH 1 5
BRANCH 3 22
ATOM     22  CA  VAL Q 641      38.353  53.025  70.243  1.00 42.43 LIG 0.18  C 
BRANCH 22 23
ATOM     23  C   VAL Q 641      37.791  52.460  68.924  1.00 42.31 LIG 0.24  C 
ATOM     24 O    VAL Q 641      36.798  51.727  68.929  1.00 42.15 LIG-0.27  OA
ATOM     25  N   ASP Q 642      38.417  52.818  67.803  1.00 42.19 LIG-0.35  N 
ATOM     26 H    ASP Q 642      39.109  53.327  67.784  1.00 42.19 LIG 0.16  HD
BRANCH 25 27
ATOM     27  CA  ASP Q 642      37.965  52.363  66.484  1.00 42.17 LIG 0.17  C 
BRANCH 27 28
ATOM     28  CB  ASP Q 642      37.015  53.384  65.846  1.00 42.21 LIG 0.15  C 
BRANCH 28 29
ATOM     29  CG  ASP Q 642      35.550  52.991  65.970  1.00 42.38 LIG 0.17  C 
ATOM     30 OD1  ASP Q 642      34.699  53.562  65.251  1.00 42.36 LIG-0.65  OA
ATOM     31 OD2  ASP Q 642      35.251  52.104  66.801  1.00 42.41 LIG-0.65  OA
ENDBRANCH 28 29
ENDBRANCH 27 28
BRANCH 27 32
ATOM     32  C   ASP Q 642      39.125  52.060  65.531  1.00 42.05 LIG 0.22  C 
ATOM     33 O    ASP Q 642      40.221  52.600  65.675  1.00 41.78 LIG-0.29  OA
ENDBRANCH 27 32
ENDBRANCH 25 27
ENDBRANCH 22 23
BRANCH 22 34
ATOM     34  CB  VAL Q 641      39.430  52.105  70.889  1.00 42.38 LIG 0.01  C 
ATOM     35  CG2 VAL Q 641      40.417  51.645  69.866  1.00 42.63 LIG 0.01  C 
ATOM     36  CG1 VAL Q 641      38.806  50.921  71.632  1.00 42.36 LIG 0.01  C 
ENDBRANCH 22 34
ENDBRANCH 3 22
TORSDOF 16
ENDMDL
MODEL 6
USER: ADFR SOLUTION from run 167
USER: SCORE 14.948776 LL:  -2.907 LR: -13.096 RR:   0.000 FEB:  -8.323
USER: RMSD 4.528791
USER: SEED 166
USER: STATUS no improvement in best in 5 clusters for 5 generations
USER: GENES 18
USER: genes 0 Translation |==|  0.50361 0.56734 0.54620
USER: genes 1 Rotation |==|  0.80714 0.38626 0.87779 0.50051
USER: genes 2 Torsion [N]-C--CA-[N] |==|  0.43548
USER: genes 3 Torsion [C]-CA--CB-[CG] |==|  0.48120
USER: genes 4 Torsion [CA]-CB--CG-[CD] |==|  0.87575
USER: genes 5 Torsion [CB]-CG--CD-[OE2] |==|  0.67800
USER: genes 6 Torsion [C]-CA--N-[C] |==|  0.80110
USER: genes 7 Torsion [N]-C--CA-[N] |==|  0.27489
USER: genes 8 Torsion [C]-CA--CB-[CG] |==|  0.71723
USER: genes 9 Torsion [CA]-CB--CG-[CD] |==|  0.17100
USER: genes 10 Torsion [CB]-CG--CD-[OE2] |==|  0.76214
USER: genes 11 Torsion [C]-N--CA-[C] |==|  0.18350
USER: genes 12 Torsion [N]-CA--C-[N] |==|  0.40927
USER: genes 13 Torsion [C]-N--CA-[CB] |==|  0.44837
USER: genes 14 Torsion [N]-CA--CB-[CG] |==|  0.30823
USER: genes 15 Torsion [CA]-CB--CG-[OD1] |==|  0.79572
USER: genes 16 Torsion [N]-CA--C-[O] |==|  0.00222
USER: genes 17 Torsion [N]-CA--CB-[CG2] |==|  0.71616
ROOT
ATOM      1  C   GLU Q 640      30.949  57.340  72.087  1.00 42.49 LIG 0.24  C 
ATOM      2 O    GLU Q 640      30.183  56.639  72.745  1.00 42.42 LIG-0.27  OA
ATOM      3  N   VAL Q 641      32.207  57.579  72.441  1.00 42.52 LIG-0.35  N 
ATOM      4 H    VAL Q 641      32.726  58.116  72.015  1.00 42.52 LIG 0.16  HD
ENDROOT
BRANCH 1 5
ATOM      5  CA  GLU Q 640      30.495  58.020  70.799  1.00 42.54 LIG 0.18  C 
BRANCH 5 6
ATOM      6  CB  GLU Q 640      30.197  59.498  71.060  1.00 42.65 LIG 0.04  C 
BRANCH 6 7
ATOM      7  CG  GLU Q 640      29.893  60.302  69.802  1.00 42.42 LIG 0.12  C 
BRANCH 7 8
ATOM      8  CD  GLU Q 640      30.854  60.011  68.660  1.00 42.56 LIG 0.17  C 
ATOM      9 OE2  GLU Q 640      31.591  60.943  68.258  1.00 42.27 LIG-0.65  OA
ATOM     10 OE1  GLU Q 640      30.876  58.857  68.163  1.00 42.60 LIG-0.65  OA
ENDBRANCH 7 8
ENDBRANCH 6 7
ENDBRANCH 5 6
BRANCH 5 11
ATOM     11  N   GLU Q 640      29.362  57.366  70.142  1.00 42.67 LIG-0.35  N 
ATOM     12  C   GLU Q 639      29.496  56.194  69.525  1.00 42.69 LIG 0.26  C 
ATOM     13 O    GLU Q 639      30.532  55.527  69.572  1.00 42.71 LIG-0.27  OA
ATOM     14 H    GLU Q 640      28.621  57.800  70.192  1.00 42.67 LIG 0.16  HD
BRANCH 12 15
ATOM     15  CA  GLU Q 639      28.292  55.693  68.728  1.00 42.78 LIG 0.40  C 
ATOM     16  N   GLU Q 639      28.402  55.957  67.262  1.00 42.84 LIG 0.61  N 
BRANCH 15 17
ATOM     17  CB  GLU Q 639      28.091  54.198  68.997  1.00 42.78 LIG 0.06  C 
BRANCH 17 18
ATOM     18  CG  GLU Q 639      28.598  53.288  67.892  1.00 43.01 LIG 0.12  C 
BRANCH 18 19
ATOM     19  CD  GLU Q 639      30.097  53.415  67.658  1.00 43.16 LIG 0.17  C 
ATOM     20 OE1  GLU Q 639      30.873  52.620  68.232  1.00 43.27 LIG-0.65  OA
ATOM     21 OE2  GLU Q 639      30.499  54.315  66.892  1.00 43.17 LIG-0.65  OA
ENDBRANCH 18 19
ENDBRANCH 17 18
ENDBRANCH 15 17
ENDBRANCH 12 15
ENDBRANCH 5 11
ENDBRANCH 1 5
BRANCH 3 22
ATOM     22  CA  VAL Q 641      32.828  56.945  73.594  1.00 42.43 LIG 0.18  C 
BRANCH 22 23
ATOM     23  C   VAL Q 641      32.973  55.424  73.385  1.00 42.31 LIG 0.24  C 
ATOM     24 O    VAL Q 641      32.148  54.803  72.711  1.00 42.15 LIG-0.27  OA
ATOM     25  N   ASP Q 642      34.031  54.840  73.946  1.00 42.19 LIG-0.35  N 
ATOM     26 H    ASP Q 642      34.615  55.260  74.418  1.00 42.19 LIG 0.16  HD
BRANCH 25 27
ATOM     27  CA  ASP Q 642      34.292  53.403  73.802  1.00 42.17 LIG 0.17  C 
BRANCH 27 28
ATOM     28  CB  ASP Q 642      35.754  53.075  74.128  1.00 42.21 LIG 0.15  C 
BRANCH 28 29
ATOM     29  CG  ASP Q 642      35.912  52.279  75.416  1.00 42.38 LIG 0.17  C 
ATOM     30 OD1  ASP Q 642      35.748  52.854  76.516  1.00 42.36 LIG-0.65  OA
ATOM     31 OD2  ASP Q 642      36.208  51.067  75.321  1.00 42.41 LIG-0.65  OA
ENDBRANCH 28 29
ENDBRANCH 27 28
BRANCH 27 32
ATOM     32  C   ASP Q 642      33.357  52.541  74.655  1.00 42.05 LIG 0.22  C 
ATOM     33 O    ASP Q 642      32.487  53.054  75.358  1.00 41.78 LIG-0.29  OA
ENDBRANCH 27 32
ENDBRANCH 25 27
ENDBRANCH 22 23
BRANCH 22 34
ATOM     34  CB  VAL Q 641      32.038  57.307  74.886  1.00 42.38 LIG 0.01  C 
ATOM     35  CG2 VAL Q 641      32.749  58.367  75.662  1.00 42.63 LIG 0.01  C 
ATOM     36  CG1 VAL Q 641      31.755  56.077  75.752  1.00 42.36 LIG 0.01  C 
ENDBRANCH 22 34
ENDBRANCH 3 22
TORSDOF 16
ENDMDL
MODEL 7
USER: ADFR SOLUTION from run 80
USER: SCORE 13.602616 LL:  -1.893 LR: -13.020 RR:   0.000 FEB:  -8.248
USER: RMSD 8.525446
USER: SEED 79
USER: STATUS no improvement in best in 2 clusters for 5 generations
USER: GENES 18
USER: genes 0 Translation |==|  0.48067 0.59345 0.48236
USER: genes 1 Rotation |==|  0.18599 0.12014 0.46124 0.57482
USER: genes 2 Torsion [N]-C--CA-[N] |==|  0.52549
USER: genes 3 Torsion [C]-CA--CB-[CG] |==|  0.30333
USER: genes 4 Torsion [CA]-CB--CG-[CD] |==|  0.09983
USER: genes 5 Torsion [CB]-CG--CD-[OE2] |==|  0.60147
USER: genes 6 Torsion [C]-CA--N-[C] |==|  0.73801
USER: genes 7 Torsion [N]-C--CA-[N] |==|  0.90697
USER: genes 8 Torsion [C]-CA--CB-[CG] |==|  0.34529
USER: genes 9 Torsion [CA]-CB--CG-[CD] |==|  0.36869
USER: genes 10 Torsion [CB]-CG--CD-[OE2] |==|  0.65241
USER: genes 11 Torsion [C]-N--CA-[C] |==|  0.21111
USER: genes 12 Torsion [N]-CA--C-[N] |==|  0.20924
USER: genes 13 Torsion [C]-N--CA-[CB] |==|  0.28389
USER: genes 14 Torsion [N]-CA--CB-[CG] |==|  0.07150
USER: genes 15 Torsion [CA]-CB--CG-[OD1] |==|  0.84294
USER: genes 16 Torsion [N]-CA--C-[O] |==|  0.11054
USER: genes 17 Torsion [N]-CA--CB-[CG2] |==|  0.82176
ROOT
ATOM      1  C   GLU Q 640      30.467  57.771  70.937  1.00 42.49 LIG 0.24  C 
ATOM      2 O    GLU Q 640      30.955  58.705  71.571  1.00 42.42 LIG-0.27  OA
ATOM      3  N   VAL Q 641      29.654  57.938  69.900  1.00 42.52 LIG-0.35  N 
ATOM      4 H    VAL Q 641      29.264  57.288  69.493  1.00 42.52 LIG 0.16  HD
ENDROOT
BRANCH 1 5
ATOM      5  CA  GLU Q 640      30.748  56.320  71.317  1.00 42.54 LIG 0.18  C 
BRANCH 5 6
ATOM      6  CB  GLU Q 640      29.446  55.516  71.325  1.00 42.65 LIG 0.04  C 
BRANCH 6 7
ATOM      7  CG  GLU Q 640      29.326  54.517  70.182  1.00 42.42 LIG 0.12  C 
BRANCH 7 8
ATOM      8  CD  GLU Q 640      30.653  53.871  69.811  1.00 42.56 LIG 0.17  C 
ATOM      9 OE2  GLU Q 640      30.873  53.630  68.600  1.00 42.27 LIG-0.65  OA
ATOM     10 OE1  GLU Q 640      31.474  53.603  70.723  1.00 42.60 LIG-0.65  OA
ENDBRANCH 7 8
ENDBRANCH 6 7
ENDBRANCH 5 6
BRANCH 5 11
ATOM     11  N   GLU Q 640      31.469  56.160  72.581  1.00 42.67 LIG-0.35  N 
ATOM     12  C   GLU Q 639      32.795  56.044  72.616  1.00 42.69 LIG 0.26  C 
ATOM     13 O    GLU Q 639      33.507  56.190  71.621  1.00 42.71 LIG-0.27  OA
ATOM     14 H    GLU Q 640      30.967  56.148  73.279  1.00 42.67 LIG 0.16  HD
BRANCH 12 15
ATOM     15  CA  GLU Q 639      33.421  55.706  73.969  1.00 42.78 LIG 0.40  C 
ATOM     16  N   GLU Q 639      32.685  56.298  75.126  1.00 42.84 LIG 0.61  N 
BRANCH 15 17
ATOM     17  CB  GLU Q 639      33.530  54.185  74.114  1.00 42.78 LIG 0.06  C 
BRANCH 17 18
ATOM     18  CG  GLU Q 639      34.933  53.681  74.405  1.00 43.01 LIG 0.12  C 
BRANCH 18 19
ATOM     19  CD  GLU Q 639      34.978  52.674  75.545  1.00 43.16 LIG 0.17  C 
ATOM     20 OE1  GLU Q 639      34.259  51.653  75.485  1.00 43.27 LIG-0.65  OA
ATOM     21 OE2  GLU Q 639      35.742  52.905  76.505  1.00 43.17 LIG-0.65  OA
ENDBRANCH 18 19
ENDBRANCH 17 18
ENDBRANCH 15 17
ENDBRANCH 12 15
ENDBRANCH 5 11
ENDBRANCH 1 5
BRANCH 3 22
ATOM     22  CA  VAL Q 641      29.346  59.250  69.351  1.00 42.43 LIG 0.18  C 
BRANCH 22 23
ATOM     23  C   VAL Q 641      30.518  59.793  68.511  1.00 42.31 LIG 0.24  C 
ATOM     24 O    VAL Q 641      31.261  60.669  68.962  1.00 42.15 LIG-0.27  OA
ATOM     25  N   ASP Q 642      30.688  59.257  67.302  1.00 42.19 LIG-0.35  N 
ATOM     26 H    ASP Q 642      30.180  58.647  66.974  1.00 42.19 LIG 0.16  HD
BRANCH 25 27
ATOM     27  CA  ASP Q 642      31.780  59.674  66.415  1.00 42.17 LIG 0.17  C 
BRANCH 27 28
ATOM     28  CB  ASP Q 642      32.920  58.648  66.428  1.00 42.21 LIG 0.15  C 
BRANCH 28 29
ATOM     29  CG  ASP Q 642      32.453  57.246  66.791  1.00 42.38 LIG 0.17  C 
ATOM     30 OD1  ASP Q 642      31.852  57.061  67.874  1.00 42.36 LIG-0.65  OA
ATOM     31 OD2  ASP Q 642      32.697  56.321  65.985  1.00 42.41 LIG-0.65  OA
ENDBRANCH 28 29
ENDBRANCH 27 28
BRANCH 27 32
ATOM     32  C   ASP Q 642      31.316  59.925  64.978  1.00 42.05 LIG 0.22  C 
ATOM     33 O    ASP Q 642      30.243  60.481  64.747  1.00 41.78 LIG-0.29  OA
ENDBRANCH 27 32
ENDBRANCH 25 27
ENDBRANCH 22 23
BRANCH 22 34
ATOM     34  CB  VAL Q 641      28.922  60.216  70.497  1.00 42.38 LIG 0.01  C 
ATOM     35  CG2 VAL Q 641      27.656  59.752  71.140  1.00 42.63 LIG 0.01  C 
ATOM     36  CG1 VAL Q 641      28.804  61.664  70.016  1.00 42.36 LIG 0.01  C 
ENDBRANCH 22 34
ENDBRANCH 3 22
TORSDOF 16
ENDMDL
MODEL 8
USER: ADFR SOLUTION from run 60
USER: SCORE 15.169568 LL:  -2.885 LR: -13.002 RR:   0.000 FEB:  -8.229
USER: RMSD 9.053618
USER: SEED 59
USER: STATUS no improvement in best in 2 clusters for 5 generations
USER: GENES 18
USER: genes 0 Translation |==|  0.67061 0.33733 0.56062
USER: genes 1 Rotation |==|  0.36560 0.54339 0.96616 0.61290
USER: genes 2 Torsion [N]-C--CA-[N] |==|  0.68139
USER: genes 3 Torsion [C]-CA--CB-[CG] |==|  0.26804
USER: genes 4 Torsion [CA]-CB--CG-[CD] |==|  0.73448
USER: genes 5 Torsion [CB]-CG--CD-[OE2] |==|  0.22050
USER: genes 6 Torsion [C]-CA--N-[C] |==|  0.65480
USER: genes 7 Torsion [N]-C--CA-[N] |==|  0.24173
USER: genes 8 Torsion [C]-CA--CB-[CG] |==|  0.41875
USER: genes 9 Torsion [CA]-CB--CG-[CD] |==|  0.10248
USER: genes 10 Torsion [CB]-CG--CD-[OE2] |==|  0.77731
USER: genes 11 Torsion [C]-N--CA-[C] |==|  0.83335
USER: genes 12 Torsion [N]-CA--C-[N] |==|  0.37499
USER: genes 13 Torsion [C]-N--CA-[CB] |==|  0.39380
USER: genes 14 Torsion [N]-CA--CB-[CG] |==|  0.74906
USER: genes 15 Torsion [CA]-CB--CG-[OD1] |==|  0.74286
USER: genes 16 Torsion [N]-CA--C-[O] |==|  0.20101
USER: genes 17 Torsion [N]-CA--CB-[CG2] |==|  0.65142
ROOT
ATOM      1  C   GLU Q 640      34.456  53.545  72.346  1.00 42.49 LIG 0.24  C 
ATOM      2 O    GLU Q 640      33.591  53.265  71.519  1.00 42.42 LIG-0.27  OA
ATOM      3  N   VAL Q 641      34.288  54.458  73.297  1.00 42.52 LIG-0.35  N 
ATOM      4 H    VAL Q 641      34.911  54.698  73.839  1.00 42.52 LIG 0.16  HD
ENDROOT
BRANCH 1 5
ATOM      5  CA  GLU Q 640      35.822  52.867  72.329  1.00 42.54 LIG 0.18  C 
BRANCH 5 6
ATOM      6  CB  GLU Q 640      36.601  53.217  73.599  1.00 42.65 LIG 0.04  C 
BRANCH 6 7
ATOM      7  CG  GLU Q 640      36.498  52.169  74.699  1.00 42.42 LIG 0.12  C 
BRANCH 7 8
ATOM      8  CD  GLU Q 640      35.415  52.479  75.721  1.00 42.56 LIG 0.17  C 
ATOM      9 OE2  GLU Q 640      34.226  52.214  75.419  1.00 42.27 LIG-0.65  OA
ATOM     10 OE1  GLU Q 640      35.746  52.985  76.822  1.00 42.60 LIG-0.65  OA
ENDBRANCH 7 8
ENDBRANCH 6 7
ENDBRANCH 5 6
BRANCH 5 11
ATOM     11  N   GLU Q 640      36.618  53.151  71.133  1.00 42.67 LIG-0.35  N 
ATOM     12  C   GLU Q 639      37.092  52.174  70.364  1.00 42.69 LIG 0.26  C 
ATOM     13 O    GLU Q 639      36.794  50.989  70.526  1.00 42.71 LIG-0.27  OA
ATOM     14 H    GLU Q 640      36.746  53.988  70.981  1.00 42.67 LIG 0.16  HD
BRANCH 12 15
ATOM     15  CA  GLU Q 639      38.053  52.581  69.246  1.00 42.78 LIG 0.40  C 
ATOM     16  N   GLU Q 639      39.478  52.649  69.686  1.00 42.84 LIG 0.61  N 
BRANCH 15 17
ATOM     17  CB  GLU Q 639      37.894  51.619  68.064  1.00 42.78 LIG 0.06  C 
BRANCH 17 18
ATOM     18  CG  GLU Q 639      38.201  52.234  66.710  1.00 43.01 LIG 0.12  C 
BRANCH 18 19
ATOM     19  CD  GLU Q 639      39.356  53.224  66.754  1.00 43.16 LIG 0.17  C 
ATOM     20 OE1  GLU Q 639      40.490  52.854  66.380  1.00 43.27 LIG-0.65  OA
ATOM     21 OE2  GLU Q 639      39.125  54.381  67.164  1.00 43.17 LIG-0.65  OA
ENDBRANCH 18 19
ENDBRANCH 17 18
ENDBRANCH 15 17
ENDBRANCH 12 15
ENDBRANCH 5 11
ENDBRANCH 1 5
BRANCH 3 22
ATOM     22  CA  VAL Q 641      33.021  55.140  73.511  1.00 42.43 LIG 0.18  C 
BRANCH 22 23
ATOM     23  C   VAL Q 641      32.589  55.923  72.256  1.00 42.31 LIG 0.24  C 
ATOM     24 O    VAL Q 641      33.406  56.604  71.630  1.00 42.15 LIG-0.27  OA
ATOM     25  N   ASP Q 642      31.314  55.808  71.886  1.00 42.19 LIG-0.35  N 
ATOM     26 H    ASP Q 642      30.734  55.338  72.311  1.00 42.19 LIG 0.16  HD
BRANCH 25 27
ATOM     27  CA  ASP Q 642      30.787  56.487  70.697  1.00 42.17 LIG 0.17  C 
BRANCH 27 28
ATOM     28  CB  ASP Q 642      29.781  55.596  69.957  1.00 42.21 LIG 0.15  C 
BRANCH 28 29
ATOM     29  CG  ASP Q 642      30.431  54.721  68.895  1.00 42.38 LIG 0.17  C 
ATOM     30 OD1  ASP Q 642      30.498  55.135  67.716  1.00 42.36 LIG-0.65  OA
ATOM     31 OD2  ASP Q 642      30.873  53.605  69.249  1.00 42.41 LIG-0.65  OA
ENDBRANCH 28 29
ENDBRANCH 27 28
BRANCH 27 32
ATOM     32  C   ASP Q 642      30.149  57.841  71.020  1.00 42.05 LIG 0.22  C 
ATOM     33 O    ASP Q 642      30.842  58.811  71.327  1.00 41.78 LIG-0.29  OA
ENDBRANCH 27 32
ENDBRANCH 25 27
ENDBRANCH 22 23
BRANCH 22 34
ATOM     34  CB  VAL Q 641      33.110  56.033  74.784  1.00 42.38 LIG 0.01  C 
ATOM     35  CG2 VAL Q 641      32.012  55.703  75.741  1.00 42.63 LIG 0.01  C 
ATOM     36  CG1 VAL Q 641      33.120  57.525  74.441  1.00 42.36 LIG 0.01  C 
ENDBRANCH 22 34
ENDBRANCH 3 22
TORSDOF 16
ENDMDL
MODEL 9
USER: ADFR SOLUTION from run 136
USER: SCORE 14.817266 LL:  -2.650 LR: -12.969 RR:   0.000 FEB:  -8.197
USER: RMSD 4.377253
USER: SEED 135
USER: STATUS no improvement in best in 2 clusters for 5 generations
USER: GENES 18
USER: genes 0 Translation |==|  0.47388 0.50148 0.55674
USER: genes 1 Rotation |==|  0.49915 0.63343 0.64187 0.96051
USER: genes 2 Torsion [N]-C--CA-[N] |==|  0.35936
USER: genes 3 Torsion [C]-CA--CB-[CG] |==|  0.83062
USER: genes 4 Torsion [CA]-CB--CG-[CD] |==|  0.33392
USER: genes 5 Torsion [CB]-CG--CD-[OE2] |==|  0.62316
USER: genes 6 Torsion [C]-CA--N-[C] |==|  0.62982
USER: genes 7 Torsion [N]-C--CA-[N] |==|  0.31420
USER: genes 8 Torsion [C]-CA--CB-[CG] |==|  0.69576
USER: genes 9 Torsion [CA]-CB--CG-[CD] |==|  0.73981
USER: genes 10 Torsion [CB]-CG--CD-[OE2] |==|  0.09010
USER: genes 11 Torsion [C]-N--CA-[C] |==|  0.70534
USER: genes 12 Torsion [N]-CA--C-[N] |==|  0.77961
USER: genes 13 Torsion [C]-N--CA-[CB] |==|  0.40814
USER: genes 14 Torsion [N]-CA--CB-[CG] |==|  0.11335
USER: genes 15 Torsion [CA]-CB--CG-[OD1] |==|  0.05652
USER: genes 16 Torsion [N]-CA--C-[O] |==|  0.33752
USER: genes 17 Torsion [N]-CA--CB-[CG2] |==|  0.04331
ROOT
ATOM      1  C   GLU Q 640      30.325  56.253  72.276  1.00 42.49 LIG 0.24  C 
ATOM      2 O    GLU Q 640      30.509  57.233  71.557  1.00 42.42 LIG-0.27  OA
ATOM      3  N   VAL Q 641      31.210  55.827  73.170  1.00 42.52 LIG-0.35  N 
ATOM      4 H    VAL Q 641      31.110  55.108  73.632  1.00 42.52 LIG 0.16  HD
ENDROOT
BRANCH 1 5
ATOM      5  CA  GLU Q 640      29.047  55.425  72.179  1.00 42.54 LIG 0.18  C 
BRANCH 5 6
ATOM      6  CB  GLU Q 640      29.070  54.568  70.911  1.00 42.65 LIG 0.04  C 
BRANCH 6 7
ATOM      7  CG  GLU Q 640      29.148  55.372  69.620  1.00 42.42 LIG 0.12  C 
BRANCH 7 8
ATOM      8  CD  GLU Q 640      30.381  55.050  68.789  1.00 42.56 LIG 0.17  C 
ATOM      9 OE2  GLU Q 640      31.022  56.007  68.291  1.00 42.27 LIG-0.65  OA
ATOM     10 OE1  GLU Q 640      30.712  53.848  68.633  1.00 42.60 LIG-0.65  OA
ENDBRANCH 7 8
ENDBRANCH 6 7
ENDBRANCH 5 6
BRANCH 5 11
ATOM     11  N   GLU Q 640      27.815  56.211  72.256  1.00 42.67 LIG-0.35  N 
ATOM     12  C   GLU Q 639      26.804  55.845  73.042  1.00 42.69 LIG 0.26  C 
ATOM     13 O    GLU Q 639      26.881  54.910  73.842  1.00 42.71 LIG-0.27  OA
ATOM     14 H    GLU Q 640      27.807  56.912  71.759  1.00 42.67 LIG 0.16  HD
BRANCH 12 15
ATOM     15  CA  GLU Q 639      25.506  56.642  72.910  1.00 42.78 LIG 0.40  C 
ATOM     16  N   GLU Q 639      24.376  55.842  72.350  1.00 42.84 LIG 0.61  N 
BRANCH 15 17
ATOM     17  CB  GLU Q 639      25.131  57.232  74.273  1.00 42.78 LIG 0.06  C 
BRANCH 17 18
ATOM     18  CG  GLU Q 639      23.915  56.593  74.920  1.00 43.01 LIG 0.12  C 
BRANCH 18 19
ATOM     19  CD  GLU Q 639      22.620  57.332  74.612  1.00 43.16 LIG 0.17  C 
ATOM     20 OE1  GLU Q 639      21.711  57.354  75.470  1.00 43.27 LIG-0.65  OA
ATOM     21 OE2  GLU Q 639      22.514  57.897  73.503  1.00 43.17 LIG-0.65  OA
ENDBRANCH 18 19
ENDBRANCH 17 18
ENDBRANCH 15 17
ENDBRANCH 12 15
ENDBRANCH 5 11
ENDBRANCH 1 5
BRANCH 3 22
ATOM     22  CA  VAL Q 641      32.444  56.546  73.453  1.00 42.43 LIG 0.18  C 
BRANCH 22 23
ATOM     23  C   VAL Q 641      33.663  55.824  72.846  1.00 42.31 LIG 0.24  C 
ATOM     24 O    VAL Q 641      34.171  56.227  71.796  1.00 42.15 LIG-0.27  OA
ATOM     25  N   ASP Q 642      34.134  54.774  73.518  1.00 42.19 LIG-0.35  N 
ATOM     26 H    ASP Q 642      33.791  54.481  74.250  1.00 42.19 LIG 0.16  HD
BRANCH 25 27
ATOM     27  CA  ASP Q 642      35.302  54.016  73.054  1.00 42.17 LIG 0.17  C 
BRANCH 27 28
ATOM     28  CB  ASP Q 642      36.113  53.478  74.239  1.00 42.21 LIG 0.15  C 
BRANCH 28 29
ATOM     29  CG  ASP Q 642      35.239  52.946  75.365  1.00 42.38 LIG 0.17  C 
ATOM     30 OD1  ASP Q 642      34.054  52.625  75.122  1.00 42.36 LIG-0.65  OA
ATOM     31 OD2  ASP Q 642      35.747  52.854  76.505  1.00 42.41 LIG-0.65  OA
ENDBRANCH 28 29
ENDBRANCH 27 28
BRANCH 27 32
ATOM     32  C   ASP Q 642      34.930  52.870  72.109  1.00 42.05 LIG 0.22  C 
ATOM     33 O    ASP Q 642      35.389  52.815  70.969  1.00 41.78 LIG-0.29  OA
ENDBRANCH 27 32
ENDBRANCH 25 27
ENDBRANCH 22 23
BRANCH 22 34
ATOM     34  CB  VAL Q 641      32.578  56.780  74.986  1.00 42.38 LIG 0.01  C 
ATOM     35  CG2 VAL Q 641      31.636  55.900  75.742  1.00 42.63 LIG 0.01  C 
ATOM     36  CG1 VAL Q 641      32.389  58.252  75.363  1.00 42.36 LIG 0.01  C 
ENDBRANCH 22 34
ENDBRANCH 3 22
TORSDOF 16
ENDMDL
MODEL 10
USER: ADFR SOLUTION from run 90
USER: SCORE 14.583397 LL:  -2.154 LR: -12.797 RR:   0.000 FEB:  -8.024
USER: RMSD 4.409599
USER: SEED 89
USER: STATUS no improvement in best in 6 clusters for 5 generations
USER: GENES 18
USER: genes 0 Translation |==|  0.56656 0.50947 0.54530
USER: genes 1 Rotation |==|  0.44355 0.48520 0.42809 0.99135
USER: genes 2 Torsion [N]-C--CA-[N] |==|  0.86117
USER: genes 3 Torsion [C]-CA--CB-[CG] |==|  0.41669
USER: genes 4 Torsion [CA]-CB--CG-[CD] |==|  0.83756
USER: genes 5 Torsion [CB]-CG--CD-[OE2] |==|  0.22216
USER: genes 6 Torsion [C]-CA--N-[C] |==|  0.85684
USER: genes 7 Torsion [N]-C--CA-[N] |==|  0.77389
USER: genes 8 Torsion [C]-CA--CB-[CG] |==|  0.24932
USER: genes 9 Torsion [CA]-CB--CG-[CD] |==|  0.89826
USER: genes 10 Torsion [CB]-CG--CD-[OE2] |==|  0.73010
USER: genes 11 Torsion [C]-N--CA-[C] |==|  0.74102
USER: genes 12 Torsion [N]-CA--C-[N] |==|  0.31201
USER: genes 13 Torsion [C]-N--CA-[CB] |==|  0.41835
USER: genes 14 Torsion [N]-CA--CB-[CG] |==|  0.95531
USER: genes 15 Torsion [CA]-CB--CG-[OD1] |==|  0.32277
USER: genes 16 Torsion [N]-CA--C-[O] |==|  0.13143
USER: genes 17 Torsion [N]-CA--CB-[CG2] |==|  0.13153
ROOT
ATOM      1  C   GLU Q 640      32.271  56.385  72.070  1.00 42.49 LIG 0.24  C 
ATOM      2 O    GLU Q 640      33.410  56.601  71.664  1.00 42.42 LIG-0.27  OA
ATOM      3  N   VAL Q 641      31.998  56.017  73.317  1.00 42.52 LIG-0.35  N 
ATOM      4 H    VAL Q 641      31.210  55.807  73.589  1.00 42.52 LIG 0.16  HD
ENDROOT
BRANCH 1 5
ATOM      5  CA  GLU Q 640      31.061  56.506  71.148  1.00 42.54 LIG 0.18  C 
BRANCH 5 6
ATOM      6  CB  GLU Q 640      30.284  57.786  71.463  1.00 42.65 LIG 0.04  C 
BRANCH 6 7
ATOM      7  CG  GLU Q 640      29.563  58.385  70.263  1.00 42.42 LIG 0.12  C 
BRANCH 7 8
ATOM      8  CD  GLU Q 640      30.498  58.728  69.113  1.00 42.56 LIG 0.17  C 
ATOM      9 OE2  GLU Q 640      30.868  57.797  68.357  1.00 42.27 LIG-0.65  OA
ATOM     10 OE1  GLU Q 640      30.863  59.920  68.962  1.00 42.60 LIG-0.65  OA
ENDBRANCH 7 8
ENDBRANCH 6 7
ENDBRANCH 5 6
BRANCH 5 11
ATOM     11  N   GLU Q 640      30.176  55.340  71.165  1.00 42.67 LIG-0.35  N 
ATOM     12  C   GLU Q 639      30.645  54.107  70.983  1.00 42.69 LIG 0.26  C 
ATOM     13 O    GLU Q 639      31.849  53.851  70.918  1.00 42.71 LIG-0.27  OA
ATOM     14 H    GLU Q 640      29.347  55.523  71.300  1.00 42.67 LIG 0.16  HD
BRANCH 12 15
ATOM     15  CA  GLU Q 639      29.610  52.990  70.846  1.00 42.78 LIG 0.40  C 
ATOM     16  N   GLU Q 639      29.085  52.506  72.158  1.00 42.84 LIG 0.61  N 
BRANCH 15 17
ATOM     17  CB  GLU Q 639      28.466  53.463  69.944  1.00 42.78 LIG 0.06  C 
BRANCH 17 18
ATOM     18  CG  GLU Q 639      28.673  53.176  68.467  1.00 43.01 LIG 0.12  C 
BRANCH 18 19
ATOM     19  CD  GLU Q 639      30.123  53.325  68.029  1.00 43.16 LIG 0.17  C 
ATOM     20 OE1  GLU Q 639      30.914  52.373  68.206  1.00 43.27 LIG-0.65  OA
ATOM     21 OE2  GLU Q 639      30.471  54.402  67.502  1.00 43.17 LIG-0.65  OA
ENDBRANCH 18 19
ENDBRANCH 17 18
ENDBRANCH 15 17
ENDBRANCH 12 15
ENDBRANCH 5 11
ENDBRANCH 1 5
BRANCH 3 22
ATOM     22  CA  VAL Q 641      33.021  55.934  74.350  1.00 42.43 LIG 0.18  C 
BRANCH 22 23
ATOM     23  C   VAL Q 641      33.602  54.510  74.448  1.00 42.31 LIG 0.24  C 
ATOM     24 O    VAL Q 641      32.901  53.572  74.837  1.00 42.15 LIG-0.27  OA
ATOM     25  N   ASP Q 642      34.873  54.354  74.077  1.00 42.19 LIG-0.35  N 
ATOM     26 H    ASP Q 642      35.373  54.997  73.804  1.00 42.19 LIG 0.16  HD
BRANCH 25 27
ATOM     27  CA  ASP Q 642      35.534  53.044  74.105  1.00 42.17 LIG 0.17  C 
BRANCH 27 28
ATOM     28  CB  ASP Q 642      36.625  52.957  73.031  1.00 42.21 LIG 0.15  C 
BRANCH 28 29
ATOM     29  CG  ASP Q 642      36.505  54.043  71.972  1.00 42.38 LIG 0.17  C 
ATOM     30 OD1  ASP Q 642      37.420  54.890  71.857  1.00 42.36 LIG-0.65  OA
ATOM     31 OD2  ASP Q 642      35.481  54.048  71.253  1.00 42.41 LIG-0.65  OA
ENDBRANCH 28 29
ENDBRANCH 27 28
BRANCH 27 32
ATOM     32  C   ASP Q 642      36.121  52.704  75.478  1.00 42.05 LIG 0.22  C 
ATOM     33 O    ASP Q 642      35.461  52.855  76.505  1.00 41.78 LIG-0.29  OA
ENDBRANCH 27 32
ENDBRANCH 25 27
ENDBRANCH 22 23
BRANCH 22 34
ATOM     34  CB  VAL Q 641      32.449  56.452  75.702  1.00 42.38 LIG 0.01  C 
ATOM     35  CG2 VAL Q 641      31.111  55.847  75.978  1.00 42.63 LIG 0.01  C 
ATOM     36  CG1 VAL Q 641      32.391  57.981  75.756  1.00 42.36 LIG 0.01  C 
ENDBRANCH 22 34
ENDBRANCH 3 22
TORSDOF 16
ENDMDL
MODEL 11
USER: ADFR SOLUTION from run 13
USER: SCORE 15.224070 LL:  -2.621 LR: -12.764 RR:   0.000 FEB:  -7.991
USER: RMSD 9.734286
USER: SEED 934377
USER: STATUS no improvement in best in 8 clusters for 5 generations
USER: GENES 18
USER: genes 0 Translation |==|  0.63593 0.36113 0.61500
USER: genes 1 Rotation |==|  0.31677 0.63948 0.93313 0.59679
USER: genes 2 Torsion [N]-C--CA-[N] |==|  0.41313
USER: genes 3 Torsion [C]-CA--CB-[CG] |==|  0.99279
USER: genes 4 Torsion [CA]-CB--CG-[CD] |==|  0.34060
USER: genes 5 Torsion [CB]-CG--CD-[OE2] |==|  0.65962
USER: genes 6 Torsion [C]-CA--N-[C] |==|  0.69211
USER: genes 7 Torsion [N]-C--CA-[N] |==|  0.76006
USER: genes 8 Torsion [C]-CA--CB-[CG] |==|  0.22363
USER: genes 9 Torsion [CA]-CB--CG-[CD] |==|  0.05435
USER: genes 10 Torsion [CB]-CG--CD-[OE2] |==|  0.65016
USER: genes 11 Torsion [C]-N--CA-[C] |==|  0.81970
USER: genes 12 Torsion [N]-CA--C-[N] |==|  0.43276
USER: genes 13 Torsion [C]-N--CA-[CB] |==|  0.32162
USER: genes 14 Torsion [N]-CA--CB-[CG] |==|  0.68333
USER: genes 15 Torsion [CA]-CB--CG-[OD1] |==|  0.32329
USER: genes 16 Torsion [N]-CA--C-[O] |==|  0.31742
USER: genes 17 Torsion [N]-CA--CB-[CG2] |==|  0.16127
ROOT
ATOM      1  C   GLU Q 640      33.728  53.938  73.325  1.00 42.49 LIG 0.24  C 
ATOM      2 O    GLU Q 640      32.939  53.358  72.582  1.00 42.42 LIG-0.27  OA
ATOM      3  N   VAL Q 641      33.532  55.171  73.777  1.00 42.52 LIG-0.35  N 
ATOM      4 H    VAL Q 641      34.109  55.602  74.248  1.00 42.52 LIG 0.16  HD
ENDROOT
BRANCH 1 5
ATOM      5  CA  GLU Q 640      35.028  53.279  73.775  1.00 42.54 LIG 0.18  C 
BRANCH 5 6
ATOM      6  CB  GLU Q 640      36.169  53.668  72.833  1.00 42.65 LIG 0.04  C 
BRANCH 6 7
ATOM      7  CG  GLU Q 640      35.739  54.544  71.665  1.00 42.42 LIG 0.12  C 
BRANCH 7 8
ATOM      8  CD  GLU Q 640      36.488  55.868  71.604  1.00 42.56 LIG 0.17  C 
ATOM      9 OE2  GLU Q 640      35.815  56.927  71.630  1.00 42.27 LIG-0.65  OA
ATOM     10 OE1  GLU Q 640      37.742  55.854  71.530  1.00 42.60 LIG-0.65  OA
ENDBRANCH 7 8
ENDBRANCH 6 7
ENDBRANCH 5 6
BRANCH 5 11
ATOM     11  N   GLU Q 640      34.943  51.824  73.921  1.00 42.67 LIG-0.35  N 
ATOM     12  C   GLU Q 639      35.001  51.240  75.116  1.00 42.69 LIG 0.26  C 
ATOM     13 O    GLU Q 639      34.998  51.875  76.173  1.00 42.71 LIG-0.27  OA
ATOM     14 H    GLU Q 640      34.856  51.396  73.181  1.00 42.67 LIG 0.16  HD
BRANCH 12 15
ATOM     15  CA  GLU Q 639      35.079  49.714  75.134  1.00 42.78 LIG 0.40  C 
ATOM     16  N   GLU Q 639      33.742  49.052  75.086  1.00 42.84 LIG 0.61  N 
BRANCH 15 17
ATOM     17  CB  GLU Q 639      35.964  49.236  73.978  1.00 42.78 LIG 0.06  C 
BRANCH 17 18
ATOM     18  CG  GLU Q 639      37.456  49.324  74.253  1.00 43.01 LIG 0.12  C 
BRANCH 18 19
ATOM     19  CD  GLU Q 639      37.783  49.408  75.737  1.00 43.16 LIG 0.17  C 
ATOM     20 OE1  GLU Q 639      37.336  48.533  76.510  1.00 43.27 LIG-0.65  OA
ATOM     21 OE2  GLU Q 639      38.495  50.355  76.130  1.00 43.17 LIG-0.65  OA
ENDBRANCH 18 19
ENDBRANCH 17 18
ENDBRANCH 15 17
ENDBRANCH 12 15
ENDBRANCH 5 11
ENDBRANCH 1 5
BRANCH 3 22
ATOM     22  CA  VAL Q 641      32.308  55.915  73.516  1.00 42.43 LIG 0.18  C 
BRANCH 22 23
ATOM     23  C   VAL Q 641      32.145  56.210  72.012  1.00 42.31 LIG 0.24  C 
ATOM     24 O    VAL Q 641      33.128  56.229  71.266  1.00 42.15 LIG-0.27  OA
ATOM     25  N   ASP Q 642      30.904  56.420  71.573  1.00 42.19 LIG-0.35  N 
ATOM     26 H    ASP Q 642      30.210  56.410  72.080  1.00 42.19 LIG 0.16  HD
BRANCH 25 27
ATOM     27  CA  ASP Q 642      30.616  56.690  70.160  1.00 42.17 LIG 0.17  C 
BRANCH 27 28
ATOM     28  CB  ASP Q 642      29.763  55.571  69.550  1.00 42.21 LIG 0.15  C 
BRANCH 28 29
ATOM     29  CG  ASP Q 642      30.497  54.782  68.476  1.00 42.38 LIG 0.17  C 
ATOM     30 OD1  ASP Q 642      30.729  53.565  68.660  1.00 42.36 LIG-0.65  OA
ATOM     31 OD2  ASP Q 642      30.849  55.390  67.441  1.00 42.41 LIG-0.65  OA
ENDBRANCH 28 29
ENDBRANCH 27 28
BRANCH 27 32
ATOM     32  C   ASP Q 642      29.938  58.046  69.940  1.00 42.05 LIG 0.22  C 
ATOM     33 O    ASP Q 642      30.508  58.947  69.326  1.00 41.78 LIG-0.29  OA
ENDBRANCH 27 32
ENDBRANCH 25 27
ENDBRANCH 22 23
BRANCH 22 34
ATOM     34  CB  VAL Q 641      32.273  57.200  74.394  1.00 42.38 LIG 0.01  C 
ATOM     35  CG2 VAL Q 641      33.466  58.059  74.126  1.00 42.63 LIG 0.01  C 
ATOM     36  CG1 VAL Q 641      32.145  56.875  75.885  1.00 42.36 LIG 0.01  C 
ENDBRANCH 22 34
ENDBRANCH 3 22
TORSDOF 16
ENDMDL
MODEL 12
USER: ADFR SOLUTION from run 13
USER: SCORE 15.114785 LL:  -2.752 LR: -12.659 RR:   0.000 FEB:  -7.886
USER: RMSD 8.268626
USER: SEED 934377
USER: STATUS no improvement in best in 8 clusters for 5 generations
USER: GENES 18
USER: genes 0 Translation |==|  0.61264 0.33896 0.58815
USER: genes 1 Rotation |==|  0.36183 0.57468 0.93958 0.67918
USER: genes 2 Torsion [N]-C--CA-[N] |==|  0.51665
USER: genes 3 Torsion [C]-CA--CB-[CG] |==|  0.23427
USER: genes 4 Torsion [CA]-CB--CG-[CD] |==|  0.12597
USER: genes 5 Torsion [CB]-CG--CD-[OE2] |==|  0.11799
USER: genes 6 Torsion [C]-CA--N-[C] |==|  0.76095
USER: genes 7 Torsion [N]-C--CA-[N] |==|  0.70115
USER: genes 8 Torsion [C]-CA--CB-[CG] |==|  0.65605
USER: genes 9 Torsion [CA]-CB--CG-[CD] |==|  0.20813
USER: genes 10 Torsion [CB]-CG--CD-[OE2] |==|  0.91205
USER: genes 11 Torsion [C]-N--CA-[C] |==|  0.83126
USER: genes 12 Torsion [N]-CA--C-[N] |==|  0.37987
USER: genes 13 Torsion [C]-N--CA-[CB] |==|  0.32011
USER: genes 14 Torsion [N]-CA--CB-[CG] |==|  0.68707
USER: genes 15 Torsion [CA]-CB--CG-[OD1] |==|  0.37530
USER: genes 16 Torsion [N]-CA--C-[O] |==|  0.27645
USER: genes 17 Torsion [N]-CA--CB-[CG2] |==|  0.69900
ROOT
ATOM      1  C   GLU Q 640      33.238  53.572  72.842  1.00 42.49 LIG 0.24  C 
ATOM      2 O    GLU Q 640      32.353  53.512  71.991  1.00 42.42 LIG-0.27  OA
ATOM      3  N   VAL Q 641      33.327  54.551  73.735  1.00 42.52 LIG-0.35  N 
ATOM      4 H    VAL Q 641      33.978  54.628  74.292  1.00 42.52 LIG 0.16  HD
ENDROOT
BRANCH 1 5
ATOM      5  CA  GLU Q 640      34.337  52.517  72.922  1.00 42.54 LIG 0.18  C 
BRANCH 5 6
ATOM      6  CB  GLU Q 640      35.710  53.190  72.996  1.00 42.65 LIG 0.04  C 
BRANCH 6 7
ATOM      7  CG  GLU Q 640      36.123  53.604  74.402  1.00 42.42 LIG 0.12  C 
BRANCH 7 8
ATOM      8  CD  GLU Q 640      35.867  52.524  75.443  1.00 42.56 LIG 0.17  C 
ATOM      9 OE2  GLU Q 640      36.152  51.339  75.145  1.00 42.27 LIG-0.65  OA
ATOM     10 OE1  GLU Q 640      35.383  52.854  76.554  1.00 42.60 LIG-0.65  OA
ENDBRANCH 7 8
ENDBRANCH 6 7
ENDBRANCH 5 6
BRANCH 5 11
ATOM     11  N   GLU Q 640      34.299  51.527  71.843  1.00 42.67 LIG-0.35  N 
ATOM     12  C   GLU Q 639      33.541  50.435  71.928  1.00 42.69 LIG 0.26  C 
ATOM     13 O    GLU Q 639      32.737  50.247  72.842  1.00 42.71 LIG-0.27  OA
ATOM     14 H    GLU Q 640      34.799  51.714  71.170  1.00 42.67 LIG 0.16  HD
BRANCH 12 15
ATOM     15  CA  GLU Q 639      33.714  49.391  70.825  1.00 42.78 LIG 0.40  C 
ATOM     16  N   GLU Q 639      32.564  49.339  69.874  1.00 42.84 LIG 0.61  N 
BRANCH 15 17
ATOM     17  CB  GLU Q 639      35.026  49.651  70.078  1.00 42.78 LIG 0.06  C 
BRANCH 17 18
ATOM     18  CG  GLU Q 639      34.867  49.840  68.579  1.00 43.01 LIG 0.12  C 
BRANCH 18 19
ATOM     19  CD  GLU Q 639      34.285  51.197  68.209  1.00 43.16 LIG 0.17  C 
ATOM     20 OE1  GLU Q 639      34.623  51.731  67.130  1.00 43.27 LIG-0.65  OA
ATOM     21 OE2  GLU Q 639      33.481  51.729  69.002  1.00 43.17 LIG-0.65  OA
ENDBRANCH 18 19
ENDBRANCH 17 18
ENDBRANCH 15 17
ENDBRANCH 12 15
ENDBRANCH 5 11
ENDBRANCH 1 5
BRANCH 3 22
ATOM     22  CA  VAL Q 641      32.318  55.593  73.856  1.00 42.43 LIG 0.18  C 
BRANCH 22 23
ATOM     23  C   VAL Q 641      32.190  56.401  72.549  1.00 42.31 LIG 0.24  C 
ATOM     24 O    VAL Q 641      33.197  56.742  71.923  1.00 42.15 LIG-0.27  OA
ATOM     25  N   ASP Q 642      30.955  56.684  72.137  1.00 42.19 LIG-0.35  N 
ATOM     26 H    ASP Q 642      30.245  56.453  72.563  1.00 42.19 LIG 0.16  HD
BRANCH 25 27
ATOM     27  CA  ASP Q 642      30.702  57.429  70.899  1.00 42.17 LIG 0.17  C 
BRANCH 27 28
ATOM     28  CB  ASP Q 642      29.971  56.555  69.872  1.00 42.21 LIG 0.15  C 
BRANCH 28 29
ATOM     29  CG  ASP Q 642      30.823  56.230  68.654  1.00 42.38 LIG 0.17  C 
ATOM     30 OD1  ASP Q 642      30.845  55.057  68.216  1.00 42.36 LIG-0.65  OA
ATOM     31 OD2  ASP Q 642      31.480  57.159  68.135  1.00 42.41 LIG-0.65  OA
ENDBRANCH 28 29
ENDBRANCH 27 28
BRANCH 27 32
ATOM     32  C   ASP Q 642      29.921  58.725  71.133  1.00 42.05 LIG 0.22  C 
ATOM     33 O    ASP Q 642      30.498  59.811  71.186  1.00 41.78 LIG-0.29  OA
ENDBRANCH 27 32
ENDBRANCH 25 27
ENDBRANCH 22 23
BRANCH 22 34
ATOM     34  CB  VAL Q 641      32.625  56.485  75.094  1.00 42.38 LIG 0.01  C 
ATOM     35  CG2 VAL Q 641      31.639  56.233  76.188  1.00 42.63 LIG 0.01  C 
ATOM     36  CG1 VAL Q 641      32.687  57.972  74.732  1.00 42.36 LIG 0.01  C 
ENDBRANCH 22 34
ENDBRANCH 3 22
TORSDOF 16
ENDMDL
MODEL 13
USER: ADFR SOLUTION from run 142
USER: SCORE 14.673619 LL:  -2.678 LR: -12.631 RR:   0.000 FEB:  -7.859
USER: RMSD 5.233268
USER: SEED 141
USER: STATUS no improvement in best in 9 clusters for 5 generations
USER: GENES 18
USER: genes 0 Translation |==|  0.55141 0.49746 0.52460
USER: genes 1 Rotation |==|  0.38010 0.45636 0.41310 0.97557
USER: genes 2 Torsion [N]-C--CA-[N] |==|  0.79524
USER: genes 3 Torsion [C]-CA--CB-[CG] |==|  0.37271
USER: genes 4 Torsion [CA]-CB--CG-[CD] |==|  0.87212
USER: genes 5 Torsion [CB]-CG--CD-[OE2] |==|  0.71847
USER: genes 6 Torsion [C]-CA--N-[C] |==|  0.63919
USER: genes 7 Torsion [N]-C--CA-[N] |==|  0.44688
USER: genes 8 Torsion [C]-CA--CB-[CG] |==|  0.72134
USER: genes 9 Torsion [CA]-CB--CG-[CD] |==|  0.16905
USER: genes 10 Torsion [CB]-CG--CD-[OE2] |==|  0.80769
USER: genes 11 Torsion [C]-N--CA-[C] |==|  0.75232
USER: genes 12 Torsion [N]-CA--C-[N] |==|  0.02584
USER: genes 13 Torsion [C]-N--CA-[CB] |==|  0.84685
USER: genes 14 Torsion [N]-CA--CB-[CG] |==|  0.33862
USER: genes 15 Torsion [CA]-CB--CG-[OD1] |==|  0.20467
USER: genes 16 Torsion [N]-CA--C-[O] |==|  0.26047
USER: genes 17 Torsion [N]-CA--CB-[CG2] |==|  0.62559
ROOT
ATOM      1  C   GLU Q 640      31.953  56.187  71.698  1.00 42.49 LIG 0.24  C 
ATOM      2 O    GLU Q 640      33.133  56.227  71.356  1.00 42.42 LIG-0.27  OA
ATOM      3  N   VAL Q 641      31.560  56.184  72.967  1.00 42.52 LIG-0.35  N 
ATOM      4 H    VAL Q 641      30.739  56.096  73.210  1.00 42.52 LIG 0.16  HD
ENDROOT
BRANCH 1 5
ATOM      5  CA  GLU Q 640      30.829  56.113  70.669  1.00 42.54 LIG 0.18  C 
BRANCH 5 6
ATOM      6  CB  GLU Q 640      29.783  57.194  70.952  1.00 42.65 LIG 0.04  C 
BRANCH 6 7
ATOM      7  CG  GLU Q 640      29.337  57.966  69.718  1.00 42.42 LIG 0.12  C 
BRANCH 7 8
ATOM      8  CD  GLU Q 640      30.498  58.410  68.839  1.00 42.56 LIG 0.17  C 
ATOM      9 OE2  GLU Q 640      30.874  59.604  68.918  1.00 42.27 LIG-0.65  OA
ATOM     10 OE1  GLU Q 640      31.034  57.571  68.072  1.00 42.60 LIG-0.65  OA
ENDBRANCH 7 8
ENDBRANCH 6 7
ENDBRANCH 5 6
BRANCH 5 11
ATOM     11  N   GLU Q 640      30.202  54.795  70.559  1.00 42.67 LIG-0.35  N 
ATOM     12  C   GLU Q 639      30.032  54.201  69.379  1.00 42.69 LIG 0.26  C 
ATOM     13 O    GLU Q 639      30.498  54.650  68.330  1.00 42.71 LIG-0.27  OA
ATOM     14 H    GLU Q 640      29.960  54.451  71.309  1.00 42.67 LIG 0.16  HD
BRANCH 12 15
ATOM     15  CA  GLU Q 639      29.212  52.911  69.369  1.00 42.78 LIG 0.40  C 
ATOM     16  N   GLU Q 639      28.686  52.556  68.017  1.00 42.84 LIG 0.61  N 
BRANCH 15 17
ATOM     17  CB  GLU Q 639      30.054  51.768  69.943  1.00 42.78 LIG 0.06  C 
BRANCH 17 18
ATOM     18  CG  GLU Q 639      30.674  50.859  68.895  1.00 43.01 LIG 0.12  C 
BRANCH 18 19
ATOM     19  CD  GLU Q 639      31.623  51.592  67.958  1.00 43.16 LIG 0.17  C 
ATOM     20 OE1  GLU Q 639      32.849  51.353  68.023  1.00 43.27 LIG-0.65  OA
ATOM     21 OE2  GLU Q 639      31.137  52.409  67.149  1.00 43.17 LIG-0.65  OA
ENDBRANCH 18 19
ENDBRANCH 17 18
ENDBRANCH 15 17
ENDBRANCH 12 15
ENDBRANCH 5 11
ENDBRANCH 1 5
BRANCH 3 22
ATOM     22  CA  VAL Q 641      32.492  56.334  74.075  1.00 42.43 LIG 0.18  C 
BRANCH 22 23
ATOM     23  C   VAL Q 641      33.036  54.967  74.536  1.00 42.31 LIG 0.24  C 
ATOM     24 O    VAL Q 641      33.689  54.871  75.578  1.00 42.15 LIG-0.27  OA
ATOM     25  N   ASP Q 642      32.746  53.917  73.768  1.00 42.19 LIG-0.35  N 
ATOM     26 H    ASP Q 642      32.292  53.968  73.040  1.00 42.19 LIG 0.16  HD
BRANCH 25 27
ATOM     27  CA  ASP Q 642      33.188  52.560  74.110  1.00 42.17 LIG 0.17  C 
BRANCH 27 28
ATOM     28  CB  ASP Q 642      34.709  52.512  74.307  1.00 42.21 LIG 0.15  C 
BRANCH 28 29
ATOM     29  CG  ASP Q 642      35.115  52.015  75.686  1.00 42.38 LIG 0.17  C 
ATOM     30 OD1  ASP Q 642      34.998  50.798  75.959  1.00 42.36 LIG-0.65  OA
ATOM     31 OD2  ASP Q 642      35.550  52.854  76.505  1.00 42.41 LIG-0.65  OA
ENDBRANCH 28 29
ENDBRANCH 27 28
BRANCH 27 32
ATOM     32  C   ASP Q 642      32.482  51.999  75.348  1.00 42.05 LIG 0.22  C 
ATOM     33 O    ASP Q 642      31.470  51.307  75.240  1.00 41.78 LIG-0.29  OA
ENDBRANCH 27 32
ENDBRANCH 25 27
ENDBRANCH 22 23
BRANCH 22 34
ATOM     34  CB  VAL Q 641      31.821  57.140  75.225  1.00 42.38 LIG 0.01  C 
ATOM     35  CG2 VAL Q 641      32.750  58.183  75.754  1.00 42.63 LIG 0.01  C 
ATOM     36  CG1 VAL Q 641      31.310  56.229  76.345  1.00 42.36 LIG 0.01  C 
ENDBRANCH 22 34
ENDBRANCH 3 22
TORSDOF 16
ENDMDL
MODEL 14
USER: ADFR SOLUTION from run 51
USER: SCORE 13.862583 LL:  -2.540 LR: -12.457 RR:   0.000 FEB:  -7.684
USER: RMSD 8.797710
USER: SEED 50
USER: STATUS no improvement in best in 5 clusters for 5 generations
USER: GENES 18
USER: genes 0 Translation |==|  0.61238 0.44972 0.58935
USER: genes 1 Rotation |==|  0.24902 0.31470 0.79082 0.76095
USER: genes 2 Torsion [N]-C--CA-[N] |==|  0.60869
USER: genes 3 Torsion [C]-CA--CB-[CG] |==|  0.50858
USER: genes 4 Torsion [CA]-CB--CG-[CD] |==|  0.27084
USER: genes 5 Torsion [CB]-CG--CD-[OE2] |==|  0.66491
USER: genes 6 Torsion [C]-CA--N-[C] |==|  0.66111
USER: genes 7 Torsion [N]-C--CA-[N] |==|  0.30784
USER: genes 8 Torsion [C]-CA--CB-[CG] |==|  0.75948
USER: genes 9 Torsion [CA]-CB--CG-[CD] |==|  0.54962
USER: genes 10 Torsion [CB]-CG--CD-[OE2] |==|  0.30320
USER: genes 11 Torsion [C]-N--CA-[C] |==|  0.10718
USER: genes 12 Torsion [N]-CA--C-[N] |==|  0.15891
USER: genes 13 Torsion [C]-N--CA-[CB] |==|  0.48775
USER: genes 14 Torsion [N]-CA--CB-[CG] |==|  0.69580
USER: genes 15 Torsion [CA]-CB--CG-[OD1] |==|  0.81318
USER: genes 16 Torsion [N]-CA--C-[O] |==|  0.93985
USER: genes 17 Torsion [N]-CA--CB-[CG2] |==|  0.13314
ROOT
ATOM      1  C   GLU Q 640      33.233  55.399  72.863  1.00 42.49 LIG 0.24  C 
ATOM      2 O    GLU Q 640      33.500  56.226  71.994  1.00 42.42 LIG-0.27  OA
ATOM      3  N   VAL Q 641      32.291  55.584  73.782  1.00 42.52 LIG-0.35  N 
ATOM      4 H    VAL Q 641      32.142  55.035  74.427  1.00 42.52 LIG 0.16  HD
ENDROOT
BRANCH 1 5
ATOM      5  CA  GLU Q 640      33.994  54.082  72.968  1.00 42.54 LIG 0.18  C 
BRANCH 5 6
ATOM      6  CB  GLU Q 640      33.751  53.440  74.336  1.00 42.65 LIG 0.04  C 
BRANCH 6 7
ATOM      7  CG  GLU Q 640      34.531  52.152  74.565  1.00 42.42 LIG 0.12  C 
BRANCH 7 8
ATOM      8  CD  GLU Q 640      35.816  52.363  75.352  1.00 42.56 LIG 0.17  C 
ATOM      9 OE2  GLU Q 640      36.899  52.035  74.810  1.00 42.27 LIG-0.65  OA
ATOM     10 OE1  GLU Q 640      35.748  52.854  76.506  1.00 42.60 LIG-0.65  OA
ENDBRANCH 7 8
ENDBRANCH 6 7
ENDBRANCH 5 6
BRANCH 5 11
ATOM     11  N   GLU Q 640      35.427  54.193  72.690  1.00 42.67 LIG-0.35  N 
ATOM     12  C   GLU Q 639      36.006  53.485  71.722  1.00 42.69 LIG 0.26  C 
ATOM     13 O    GLU Q 639      35.368  52.797  70.923  1.00 42.71 LIG-0.27  OA
ATOM     14 H    GLU Q 640      35.847  54.744  73.199  1.00 42.67 LIG 0.16  HD
BRANCH 12 15
ATOM     15  CA  GLU Q 639      37.531  53.550  71.638  1.00 42.78 LIG 0.40  C 
ATOM     16  N   GLU Q 639      38.199  52.267  72.010  1.00 42.84 LIG 0.61  N 
BRANCH 15 17
ATOM     17  CB  GLU Q 639      37.944  53.989  70.230  1.00 42.78 LIG 0.06  C 
BRANCH 17 18
ATOM     18  CG  GLU Q 639      38.068  52.853  69.229  1.00 43.01 LIG 0.12  C 
BRANCH 18 19
ATOM     19  CD  GLU Q 639      38.876  53.233  67.997  1.00 43.16 LIG 0.17  C 
ATOM     20 OE1  GLU Q 639      38.387  54.034  67.170  1.00 43.27 LIG-0.65  OA
ATOM     21 OE2  GLU Q 639      40.009  52.727  67.857  1.00 43.17 LIG-0.65  OA
ENDBRANCH 18 19
ENDBRANCH 17 18
ENDBRANCH 15 17
ENDBRANCH 12 15
ENDBRANCH 5 11
ENDBRANCH 1 5
BRANCH 3 22
ATOM     22  CA  VAL Q 641      31.413  56.746  73.779  1.00 42.43 LIG 0.18  C 
BRANCH 22 23
ATOM     23  C   VAL Q 641      31.004  57.133  72.345  1.00 42.31 LIG 0.24  C 
ATOM     24 O    VAL Q 641      31.251  58.258  71.904  1.00 42.15 LIG-0.27  OA
ATOM     25  N   ASP Q 642      30.398  56.193  71.620  1.00 42.19 LIG-0.35  N 
ATOM     26 H    ASP Q 642      30.219  55.405  71.912  1.00 42.19 LIG 0.16  HD
BRANCH 25 27
ATOM     27  CA  ASP Q 642      29.978  56.432  70.234  1.00 42.17 LIG 0.17  C 
BRANCH 27 28
ATOM     28  CB  ASP Q 642      29.409  55.155  69.605  1.00 42.21 LIG 0.15  C 
BRANCH 28 29
ATOM     29  CG  ASP Q 642      30.318  54.560  68.539  1.00 42.38 LIG 0.17  C 
ATOM     30 OD1  ASP Q 642      30.498  55.185  67.469  1.00 42.36 LIG-0.65  OA
ATOM     31 OD2  ASP Q 642      30.851  53.454  68.776  1.00 42.41 LIG-0.65  OA
ENDBRANCH 28 29
ENDBRANCH 27 28
BRANCH 27 32
ATOM     32  C   ASP Q 642      28.966  57.575  70.108  1.00 42.05 LIG 0.22  C 
ATOM     33 O    ASP Q 642      28.287  57.929  71.071  1.00 41.78 LIG-0.29  OA
ENDBRANCH 27 32
ENDBRANCH 25 27
ENDBRANCH 22 23
BRANCH 22 34
ATOM     34  CB  VAL Q 641      32.085  57.916  74.556  1.00 42.38 LIG 0.01  C 
ATOM     35  CG2 VAL Q 641      33.499  58.105  74.112  1.00 42.63 LIG 0.01  C 
ATOM     36  CG1 VAL Q 641      31.998  57.725  76.073  1.00 42.36 LIG 0.01  C 
ENDBRANCH 22 34
ENDBRANCH 3 22
TORSDOF 16
ENDMDL
MODEL 15
USER: ADFR SOLUTION from run 71
USER: SCORE 14.576706 LL:  -2.677 LR: -12.454 RR:   0.000 FEB:  -7.681
USER: RMSD 3.477627
USER: SEED 70
USER: STATUS no improvement in best in 8 clusters for 5 generations
USER: GENES 18
USER: genes 0 Translation |==|  0.55545 0.50039 0.53056
USER: genes 1 Rotation |==|  0.39674 0.51008 0.40114 0.97902
USER: genes 2 Torsion [N]-C--CA-[N] |==|  0.52048
USER: genes 3 Torsion [C]-CA--CB-[CG] |==|  0.68294
USER: genes 4 Torsion [CA]-CB--CG-[CD] |==|  0.15650
USER: genes 5 Torsion [CB]-CG--CD-[OE2] |==|  0.66091
USER: genes 6 Torsion [C]-CA--N-[C] |==|  0.68952
USER: genes 7 Torsion [N]-C--CA-[N] |==|  0.29113
USER: genes 8 Torsion [C]-CA--CB-[CG] |==|  0.33669
USER: genes 9 Torsion [CA]-CB--CG-[CD] |==|  0.08397
USER: genes 10 Torsion [CB]-CG--CD-[OE2] |==|  0.10798
USER: genes 11 Torsion [C]-N--CA-[C] |==|  0.75201
USER: genes 12 Torsion [N]-CA--C-[N] |==|  0.33970
USER: genes 13 Torsion [C]-N--CA-[CB] |==|  0.37806
USER: genes 14 Torsion [N]-CA--CB-[CG] |==|  0.05768
USER: genes 15 Torsion [CA]-CB--CG-[OD1] |==|  0.12900
USER: genes 16 Torsion [N]-CA--C-[O] |==|  0.18791
USER: genes 17 Torsion [N]-CA--CB-[CG2] |==|  0.15631
ROOT
ATOM      1  C   GLU Q 640      32.037  56.235  71.805  1.00 42.49 LIG 0.24  C 
ATOM      2 O    GLU Q 640      33.137  56.222  71.256  1.00 42.42 LIG-0.27  OA
ATOM      3  N   VAL Q 641      31.876  56.117  73.118  1.00 42.52 LIG-0.35  N 
ATOM      4 H    VAL Q 641      31.107  56.065  73.500  1.00 42.52 LIG 0.16  HD
ENDROOT
BRANCH 1 5
ATOM      5  CA  GLU Q 640      30.748  56.370  71.001  1.00 42.54 LIG 0.18  C 
BRANCH 5 6
ATOM      6  CB  GLU Q 640      29.735  55.314  71.449  1.00 42.65 LIG 0.04  C 
BRANCH 6 7
ATOM      7  CG  GLU Q 640      29.407  54.276  70.384  1.00 42.42 LIG 0.12  C 
BRANCH 7 8
ATOM      8  CD  GLU Q 640      30.635  53.548  69.861  1.00 42.56 LIG 0.17  C 
ATOM      9 OE2  GLU Q 640      30.873  53.602  68.630  1.00 42.27 LIG-0.65  OA
ATOM     10 OE1  GLU Q 640      31.363  52.922  70.672  1.00 42.60 LIG-0.65  OA
ENDBRANCH 7 8
ENDBRANCH 6 7
ENDBRANCH 5 6
BRANCH 5 11
ATOM     11  N   GLU Q 640      30.939  56.327  69.550  1.00 42.67 LIG-0.35  N 
ATOM     12  C   GLU Q 639      30.733  57.401  68.789  1.00 42.69 LIG 0.26  C 
ATOM     13 O    GLU Q 639      30.498  58.517  69.256  1.00 42.71 LIG-0.27  OA
ATOM     14 H    GLU Q 640      31.190  55.564  69.245  1.00 42.67 LIG 0.16  HD
BRANCH 12 15
ATOM     15  CA  GLU Q 639      30.793  57.194  67.276  1.00 42.78 LIG 0.40  C 
ATOM     16  N   GLU Q 639      29.449  57.195  66.626  1.00 42.84 LIG 0.61  N 
BRANCH 15 17
ATOM     17  CB  GLU Q 639      31.698  58.261  66.652  1.00 42.78 LIG 0.06  C 
BRANCH 17 18
ATOM     18  CG  GLU Q 639      32.883  57.706  65.882  1.00 43.01 LIG 0.12  C 
BRANCH 18 19
ATOM     19  CD  GLU Q 639      32.600  56.348  65.254  1.00 43.16 LIG 0.17  C 
ATOM     20 OE1  GLU Q 639      33.497  55.477  65.255  1.00 43.27 LIG-0.65  OA
ATOM     21 OE2  GLU Q 639      31.470  56.152  64.761  1.00 43.17 LIG-0.65  OA
ENDBRANCH 18 19
ENDBRANCH 17 18
ENDBRANCH 15 17
ENDBRANCH 12 15
ENDBRANCH 5 11
ENDBRANCH 1 5
BRANCH 3 22
ATOM     22  CA  VAL Q 641      33.000  56.064  74.042  1.00 42.43 LIG 0.18  C 
BRANCH 22 23
ATOM     23  C   VAL Q 641      33.478  54.614  74.258  1.00 42.31 LIG 0.24  C 
ATOM     24 O    VAL Q 641      32.696  53.750  74.663  1.00 42.15 LIG-0.27  OA
ATOM     25  N   ASP Q 642      34.752  54.354  73.969  1.00 42.19 LIG-0.35  N 
ATOM     26 H    ASP Q 642      35.309  54.945  73.687  1.00 42.19 LIG 0.16  HD
BRANCH 25 27
ATOM     27  CA  ASP Q 642      35.321  53.009  74.113  1.00 42.17 LIG 0.17  C 
BRANCH 27 28
ATOM     28  CB  ASP Q 642      36.192  52.650  72.903  1.00 42.21 LIG 0.15  C 
BRANCH 28 29
ATOM     29  CG  ASP Q 642      36.669  53.870  72.130  1.00 42.38 LIG 0.17  C 
ATOM     30 OD1  ASP Q 642      37.143  54.846  72.755  1.00 42.36 LIG-0.65  OA
ATOM     31 OD2  ASP Q 642      36.561  53.851  70.883  1.00 42.41 LIG-0.65  OA
ENDBRANCH 28 29
ENDBRANCH 27 28
BRANCH 27 32
ATOM     32  C   ASP Q 642      36.123  52.837  75.406  1.00 42.05 LIG 0.22  C 
ATOM     33 O    ASP Q 642      35.566  52.854  76.504  1.00 41.78 LIG-0.29  OA
ENDBRANCH 27 32
ENDBRANCH 25 27
ENDBRANCH 22 23
BRANCH 22 34
ATOM     34  CB  VAL Q 641      32.625  56.784  75.371  1.00 42.38 LIG 0.01  C 
ATOM     35  CG2 VAL Q 641      31.393  56.187  75.969  1.00 42.63 LIG 0.01  C 
ATOM     36  CG1 VAL Q 641      32.477  58.297  75.184  1.00 42.36 LIG 0.01  C 
ENDBRANCH 22 34
ENDBRANCH 3 22
TORSDOF 16
ENDMDL
MODEL 16
USER: ADFR SOLUTION from run 137
USER: SCORE 14.369573 LL:  -2.731 LR: -12.448 RR:   0.000 FEB:  -7.675
USER: RMSD 10.065835
USER: SEED 136
USER: STATUS no improvement in best in 2 clusters for 5 generations
USER: GENES 18
USER: genes 0 Translation |==|  0.80960 0.35615 0.46946
USER: genes 1 Rotation |==|  0.82481 0.74681 0.52922 0.78762
USER: genes 2 Torsion [N]-C--CA-[N] |==|  0.17224
USER: genes 3 Torsion [C]-CA--CB-[CG] |==|  0.14948
USER: genes 4 Torsion [CA]-CB--CG-[CD] |==|  0.36021
USER: genes 5 Torsion [CB]-CG--CD-[OE2] |==|  0.79224
USER: genes 6 Torsion [C]-CA--N-[C] |==|  0.72328
USER: genes 7 Torsion [N]-C--CA-[N] |==|  0.86985
USER: genes 8 Torsion [C]-CA--CB-[CG] |==|  0.88912
USER: genes 9 Torsion [CA]-CB--CG-[CD] |==|  0.77838
USER: genes 10 Torsion [CB]-CG--CD-[OE2] |==|  0.10632
USER: genes 11 Torsion [C]-N--CA-[C] |==|  0.68314
USER: genes 12 Torsion [N]-CA--C-[N] |==|  0.89124
USER: genes 13 Torsion [C]-N--CA-[CB] |==|  0.48745
USER: genes 14 Torsion [N]-CA--CB-[CG] |==|  0.15012
USER: genes 15 Torsion [CA]-CB--CG-[OD1] |==|  0.36158
USER: genes 16 Torsion [N]-CA--C-[O] |==|  0.55168
USER: genes 17 Torsion [N]-CA--CB-[CG2] |==|  0.83433
ROOT
ATOM      1  C   GLU Q 640      37.375  53.855  70.705  1.00 42.49 LIG 0.24  C 
ATOM      2 O    GLU Q 640      37.991  54.911  70.838  1.00 42.42 LIG-0.27  OA
ATOM      3  N   VAL Q 641      37.687  52.937  69.797  1.00 42.52 LIG-0.35  N 
ATOM      4 H    VAL Q 641      37.222  52.226  69.662  1.00 42.52 LIG 0.16  HD
ENDROOT
BRANCH 1 5
ATOM      5  CA  GLU Q 640      36.167  53.525  71.577  1.00 42.54 LIG 0.18  C 
BRANCH 5 6
ATOM      6  CB  GLU Q 640      35.798  54.729  72.446  1.00 42.65 LIG 0.04  C 
BRANCH 6 7
ATOM      7  CG  GLU Q 640      35.583  56.017  71.662  1.00 42.42 LIG 0.12  C 
BRANCH 7 8
ATOM      8  CD  GLU Q 640      34.275  56.715  72.006  1.00 42.56 LIG 0.17  C 
ATOM      9 OE2  GLU Q 640      33.211  56.224  71.560  1.00 42.27 LIG-0.65  OA
ATOM     10 OE1  GLU Q 640      34.307  57.749  72.719  1.00 42.60 LIG-0.65  OA
ENDBRANCH 7 8
ENDBRANCH 6 7
ENDBRANCH 5 6
BRANCH 5 11
ATOM     11  N   GLU Q 640      36.329  52.321  72.394  1.00 42.67 LIG-0.35  N 
ATOM     12  C   GLU Q 639      35.804  51.154  72.026  1.00 42.69 LIG 0.26  C 
ATOM     13 O    GLU Q 639      35.267  50.976  70.931  1.00 42.71 LIG-0.27  OA
ATOM     14 H    GLU Q 640      36.783  52.438  73.115  1.00 42.67 LIG 0.16  HD
BRANCH 12 15
ATOM     15  CA  GLU Q 639      35.887  50.011  73.039  1.00 42.78 LIG 0.40  C 
ATOM     16  N   GLU Q 639      37.240  49.860  73.652  1.00 42.84 LIG 0.61  N 
BRANCH 15 17
ATOM     17  CB  GLU Q 639      34.820  50.212  74.120  1.00 42.78 LIG 0.06  C 
BRANCH 17 18
ATOM     18  CG  GLU Q 639      34.640  51.653  74.564  1.00 43.01 LIG 0.12  C 
BRANCH 18 19
ATOM     19  CD  GLU Q 639      35.702  52.107  75.555  1.00 43.16 LIG 0.17  C 
ATOM     20 OE1  GLU Q 639      35.373  52.854  76.502  1.00 43.27 LIG-0.65  OA
ATOM     21 OE2  GLU Q 639      36.874  51.708  75.386  1.00 43.17 LIG-0.65  OA
ENDBRANCH 18 19
ENDBRANCH 17 18
ENDBRANCH 15 17
ENDBRANCH 12 15
ENDBRANCH 5 11
ENDBRANCH 1 5
BRANCH 3 22
ATOM     22  CA  VAL Q 641      38.857  53.052  68.940  1.00 42.43 LIG 0.18  C 
BRANCH 22 23
ATOM     23  C   VAL Q 641      38.453  53.226  67.463  1.00 42.31 LIG 0.24  C 
ATOM     24 O    VAL Q 641      39.088  53.983  66.724  1.00 42.15 LIG-0.27  OA
ATOM     25  N   ASP Q 642      37.412  52.511  67.037  1.00 42.19 LIG-0.35  N 
ATOM     26 H    ASP Q 642      36.960  51.979  67.539  1.00 42.19 LIG 0.16  HD
BRANCH 25 27
ATOM     27  CA  ASP Q 642      36.943  52.573  65.648  1.00 42.17 LIG 0.17  C 
BRANCH 27 28
ATOM     28  CB  ASP Q 642      35.808  51.571  65.407  1.00 42.21 LIG 0.15  C 
BRANCH 28 29
ATOM     29  CG  ASP Q 642      34.656  51.729  66.389  1.00 42.38 LIG 0.17  C 
ATOM     30 OD1  ASP Q 642      33.485  51.803  65.953  1.00 42.36 LIG-0.65  OA
ATOM     31 OD2  ASP Q 642      34.931  51.784  67.608  1.00 42.41 LIG-0.65  OA
ENDBRANCH 28 29
ENDBRANCH 27 28
BRANCH 27 32
ATOM     32  C   ASP Q 642      36.499  53.979  65.234  1.00 42.05 LIG 0.22  C 
ATOM     33 O    ASP Q 642      35.778  54.152  64.252  1.00 41.78 LIG-0.29  OA
ENDBRANCH 27 32
ENDBRANCH 25 27
ENDBRANCH 22 23
BRANCH 22 34
ATOM     34  CB  VAL Q 641      39.802  51.836  69.172  1.00 42.38 LIG 0.01  C 
ATOM     35  CG2 VAL Q 641      40.249  51.776  70.596  1.00 42.63 LIG 0.01  C 
ATOM     36  CG1 VAL Q 641      40.996  51.843  68.213  1.00 42.36 LIG 0.01  C 
ENDBRANCH 22 34
ENDBRANCH 3 22
TORSDOF 16
ENDMDL
MODEL 17
USER: ADFR SOLUTION from run 121
USER: SCORE 14.533292 LL:  -2.400 LR: -12.443 RR:   0.000 FEB:  -7.670
USER: RMSD 3.952163
USER: SEED 120
USER: STATUS no improvement in best in 4 clusters for 5 generations
USER: GENES 18
USER: genes 0 Translation |==|  0.47398 0.46640 0.58784
USER: genes 1 Rotation |==|  0.58496 0.58149 0.63027 0.96816
USER: genes 2 Torsion [N]-C--CA-[N] |==|  0.38307
USER: genes 3 Torsion [C]-CA--CB-[CG] |==|  0.79082
USER: genes 4 Torsion [CA]-CB--CG-[CD] |==|  0.35555
USER: genes 5 Torsion [CB]-CG--CD-[OE2] |==|  0.15996
USER: genes 6 Torsion [C]-CA--N-[C] |==|  0.65101
USER: genes 7 Torsion [N]-C--CA-[N] |==|  0.31683
USER: genes 8 Torsion [C]-CA--CB-[CG] |==|  0.72628
USER: genes 9 Torsion [CA]-CB--CG-[CD] |==|  0.75250
USER: genes 10 Torsion [CB]-CG--CD-[OE2] |==|  0.09282
USER: genes 11 Torsion [C]-N--CA-[C] |==|  0.60669
USER: genes 12 Torsion [N]-CA--C-[N] |==|  0.40036
USER: genes 13 Torsion [C]-N--CA-[CB] |==|  0.43854
USER: genes 14 Torsion [N]-CA--CB-[CG] |==|  0.89455
USER: genes 15 Torsion [CA]-CB--CG-[OD1] |==|  0.96301
USER: genes 16 Torsion [N]-CA--C-[O] |==|  0.03466
USER: genes 17 Torsion [N]-CA--CB-[CG2] |==|  0.04813
ROOT
ATOM      1  C   GLU Q 640      30.327  55.675  72.836  1.00 42.49 LIG 0.24  C 
ATOM      2 O    GLU Q 640      30.718  56.801  72.536  1.00 42.42 LIG-0.27  OA
ATOM      3  N   VAL Q 641      31.034  54.829  73.578  1.00 42.52 LIG-0.35  N 
ATOM      4 H    VAL Q 641      30.790  54.020  73.739  1.00 42.52 LIG 0.16  HD
ENDROOT
BRANCH 1 5
ATOM      5  CA  GLU Q 640      28.981  55.145  72.351  1.00 42.54 LIG 0.18  C 
BRANCH 5 6
ATOM      6  CB  GLU Q 640      29.113  54.595  70.929  1.00 42.65 LIG 0.04  C 
BRANCH 6 7
ATOM      7  CG  GLU Q 640      29.211  55.668  69.854  1.00 42.42 LIG 0.12  C 
BRANCH 7 8
ATOM      8  CD  GLU Q 640      30.404  55.481  68.928  1.00 42.56 LIG 0.17  C 
ATOM      9 OE2  GLU Q 640      30.499  54.398  68.301  1.00 42.27 LIG-0.65  OA
ATOM     10 OE1  GLU Q 640      31.245  56.408  68.825  1.00 42.60 LIG-0.65  OA
ENDBRANCH 7 8
ENDBRANCH 6 7
ENDBRANCH 5 6
BRANCH 5 11
ATOM     11  N   GLU Q 640      27.888  56.116  72.436  1.00 42.67 LIG-0.35  N 
ATOM     12  C   GLU Q 639      26.758  55.836  73.081  1.00 42.69 LIG 0.26  C 
ATOM     13 O    GLU Q 639      26.604  54.812  73.750  1.00 42.71 LIG-0.27  OA
ATOM     14 H    GLU Q 640      28.043  56.862  72.039  1.00 42.67 LIG 0.16  HD
BRANCH 12 15
ATOM     15  CA  GLU Q 639      25.623  56.853  72.956  1.00 42.78 LIG 0.40  C 
ATOM     16  N   GLU Q 639      24.434  56.325  72.224  1.00 42.84 LIG 0.61  N 
BRANCH 15 17
ATOM     17  CB  GLU Q 639      25.228  57.348  74.351  1.00 42.78 LIG 0.06  C 
BRANCH 17 18
ATOM     18  CG  GLU Q 639      24.006  56.662  74.937  1.00 43.01 LIG 0.12  C 
BRANCH 18 19
ATOM     19  CD  GLU Q 639      22.702  57.354  74.569  1.00 43.16 LIG 0.17  C 
ATOM     20 OE1  GLU Q 639      21.759  57.354  75.391  1.00 43.27 LIG-0.65  OA
ATOM     21 OE2  GLU Q 639      22.622  57.904  73.451  1.00 43.17 LIG-0.65  OA
ENDBRANCH 18 19
ENDBRANCH 17 18
ENDBRANCH 15 17
ENDBRANCH 12 15
ENDBRANCH 5 11
ENDBRANCH 1 5
BRANCH 3 22
ATOM     22  CA  VAL Q 641      32.300  55.200  74.193  1.00 42.43 LIG 0.18  C 
BRANCH 22 23
ATOM     23  C   VAL Q 641      33.308  54.034  74.141  1.00 42.31 LIG 0.24  C 
ATOM     24 O    VAL Q 641      32.923  52.867  74.252  1.00 42.15 LIG-0.27  OA
ATOM     25  N   ASP Q 642      34.588  54.356  73.954  1.00 42.19 LIG-0.35  N 
ATOM     26 H    ASP Q 642      34.871  55.164  73.875  1.00 42.19 LIG 0.16  HD
BRANCH 25 27
ATOM     27  CA  ASP Q 642      35.639  53.337  73.867  1.00 42.17 LIG 0.17  C 
BRANCH 27 28
ATOM     28  CB  ASP Q 642      36.870  53.879  73.130  1.00 42.21 LIG 0.15  C 
BRANCH 28 29
ATOM     29  CG  ASP Q 642      36.512  54.788  71.963  1.00 42.38 LIG 0.17  C 
ATOM     30 OD1  ASP Q 642      35.332  54.817  71.548  1.00 42.36 LIG-0.65  OA
ATOM     31 OD2  ASP Q 642      37.426  55.476  71.457  1.00 42.41 LIG-0.65  OA
ENDBRANCH 28 29
ENDBRANCH 27 28
BRANCH 27 32
ATOM     32  C   ASP Q 642      36.048  52.785  75.235  1.00 42.05 LIG 0.22  C 
ATOM     33 O    ASP Q 642      35.374  53.014  76.238  1.00 41.78 LIG-0.29  OA
ENDBRANCH 27 32
ENDBRANCH 25 27
ENDBRANCH 22 23
BRANCH 22 34
ATOM     34  CB  VAL Q 641      32.052  55.725  75.637  1.00 42.38 LIG 0.01  C 
ATOM     35  CG2 VAL Q 641      30.699  55.318  76.124  1.00 42.63 LIG 0.01  C 
ATOM     36  CG1 VAL Q 641      32.249  57.240  75.741  1.00 42.36 LIG 0.01  C 
ENDBRANCH 22 34
ENDBRANCH 3 22
TORSDOF 16
ENDMDL
MODEL 18
USER: ADFR SOLUTION from run 31
USER: SCORE 14.141072 LL:  -2.627 LR: -12.404 RR:   0.000 FEB:  -7.631
USER: RMSD 8.702238
USER: SEED 30
USER: STATUS no improvement in best in 8 clusters for 5 generations
USER: GENES 18
USER: genes 0 Translation |==|  0.80658 0.36300 0.47658
USER: genes 1 Rotation |==|  0.81755 0.75804 0.52830 0.78597
USER: genes 2 Torsion [N]-C--CA-[N] |==|  0.91399
USER: genes 3 Torsion [C]-CA--CB-[CG] |==|  0.37251
USER: genes 4 Torsion [CA]-CB--CG-[CD] |==|  0.42649
USER: genes 5 Torsion [CB]-CG--CD-[OE2] |==|  0.01797
USER: genes 6 Torsion [C]-CA--N-[C] |==|  0.62295
USER: genes 7 Torsion [N]-C--CA-[N] |==|  0.10928
USER: genes 8 Torsion [C]-CA--CB-[CG] |==|  0.35269
USER: genes 9 Torsion [CA]-CB--CG-[CD] |==|  0.87142
USER: genes 10 Torsion [CB]-CG--CD-[OE2] |==|  0.31787
USER: genes 11 Torsion [C]-N--CA-[C] |==|  0.67954
USER: genes 12 Torsion [N]-CA--C-[N] |==|  0.87264
USER: genes 13 Torsion [C]-N--CA-[CB] |==|  0.51299
USER: genes 14 Torsion [N]-CA--CB-[CG] |==|  0.16352
USER: genes 15 Torsion [CA]-CB--CG-[OD1] |==|  0.84720
USER: genes 16 Torsion [N]-CA--C-[O] |==|  0.41851
USER: genes 17 Torsion [N]-CA--CB-[CG2] |==|  0.82884
ROOT
ATOM      1  C   GLU Q 640      37.311  53.969  70.833  1.00 42.49 LIG 0.24  C 
ATOM      2 O    GLU Q 640      37.886  55.051  70.930  1.00 42.42 LIG-0.27  OA
ATOM      3  N   VAL Q 641      37.635  53.048  69.931  1.00 42.52 LIG-0.35  N 
ATOM      4 H    VAL Q 641      37.196  52.317  69.821  1.00 42.52 LIG 0.16  HD
ENDROOT
BRANCH 1 5
ATOM      5  CA  GLU Q 640      36.145  53.603  71.746  1.00 42.54 LIG 0.18  C 
BRANCH 5 6
ATOM      6  CB  GLU Q 640      36.666  52.986  73.046  1.00 42.65 LIG 0.04  C 
BRANCH 6 7
ATOM      7  CG  GLU Q 640      36.008  53.540  74.303  1.00 42.42 LIG 0.12  C 
BRANCH 7 8
ATOM      8  CD  GLU Q 640      36.021  52.558  75.466  1.00 42.56 LIG 0.17  C 
ATOM      9 OE2  GLU Q 640      36.656  51.486  75.325  1.00 42.27 LIG-0.65  OA
ATOM     10 OE1  GLU Q 640      35.400  52.854  76.517  1.00 42.60 LIG-0.65  OA
ENDBRANCH 7 8
ENDBRANCH 6 7
ENDBRANCH 5 6
BRANCH 5 11
ATOM     11  N   GLU Q 640      35.143  52.737  71.122  1.00 42.67 LIG-0.35  N 
ATOM     12  C   GLU Q 639      33.839  52.966  71.263  1.00 42.69 LIG 0.26  C 
ATOM     13 O    GLU Q 639      33.392  53.976  71.810  1.00 42.71 LIG-0.27  OA
ATOM     14 H    GLU Q 640      35.470  52.084  70.668  1.00 42.67 LIG 0.16  HD
BRANCH 12 15
ATOM     15  CA  GLU Q 639      32.889  51.901  70.716  1.00 42.78 LIG 0.40  C 
ATOM     16  N   GLU Q 639      33.364  50.506  70.955  1.00 42.84 LIG 0.61  N 
BRANCH 15 17
ATOM     17  CB  GLU Q 639      31.493  52.110  71.312  1.00 42.78 LIG 0.06  C 
BRANCH 17 18
ATOM     18  CG  GLU Q 639      30.380  52.207  70.284  1.00 43.01 LIG 0.12  C 
BRANCH 18 19
ATOM     19  CD  GLU Q 639      30.721  53.131  69.124  1.00 43.16 LIG 0.17  C 
ATOM     20 OE1  GLU Q 639      30.873  54.353  69.342  1.00 43.27 LIG-0.65  OA
ATOM     21 OE2  GLU Q 639      30.842  52.629  67.987  1.00 43.17 LIG-0.65  OA
ENDBRANCH 18 19
ENDBRANCH 17 18
ENDBRANCH 15 17
ENDBRANCH 12 15
ENDBRANCH 5 11
ENDBRANCH 1 5
BRANCH 3 22
ATOM     22  CA  VAL Q 641      38.774  53.196  69.037  1.00 42.43 LIG 0.18  C 
BRANCH 22 23
ATOM     23  C   VAL Q 641      38.321  53.296  67.567  1.00 42.31 LIG 0.24  C 
ATOM     24 O    VAL Q 641      38.809  54.145  66.817  1.00 42.15 LIG-0.27  OA
ATOM     25  N   ASP Q 642      37.407  52.416  67.161  1.00 42.19 LIG-0.35  N 
ATOM     26 H    ASP Q 642      37.058  51.818  67.671  1.00 42.19 LIG 0.16  HD
BRANCH 25 27
ATOM     27  CA  ASP Q 642      36.910  52.395  65.780  1.00 42.17 LIG 0.17  C 
BRANCH 27 28
ATOM     28  CB  ASP Q 642      35.787  51.364  65.616  1.00 42.21 LIG 0.15  C 
BRANCH 28 29
ATOM     29  CG  ASP Q 642      34.600  51.627  66.531  1.00 42.38 LIG 0.17  C 
ATOM     30 OD1  ASP Q 642      34.787  51.728  67.765  1.00 42.36 LIG-0.65  OA
ATOM     31 OD2  ASP Q 642      33.469  51.729  66.007  1.00 42.41 LIG-0.65  OA
ENDBRANCH 28 29
ENDBRANCH 27 28
BRANCH 27 32
ATOM     32  C   ASP Q 642      36.436  53.768  65.298  1.00 42.05 LIG 0.22  C 
ATOM     33 O    ASP Q 642      36.498  54.079  64.109  1.00 41.78 LIG-0.29  OA
ENDBRANCH 27 32
ENDBRANCH 25 27
ENDBRANCH 22 23
BRANCH 22 34
ATOM     34  CB  VAL Q 641      39.791  52.043  69.283  1.00 42.38 LIG 0.01  C 
ATOM     35  CG2 VAL Q 641      40.314  52.087  70.682  1.00 42.63 LIG 0.01  C 
ATOM     36  CG1 VAL Q 641      40.931  52.053  68.261  1.00 42.36 LIG 0.01  C 
ENDBRANCH 22 34
ENDBRANCH 3 22
TORSDOF 16
ENDMDL
MODEL 19
USER: ADFR SOLUTION from run 10
USER: SCORE 15.116902 LL:  -3.150 LR: -12.365 RR:   0.000 FEB:  -7.592
USER: RMSD 9.960963
USER: SEED 690303
USER: STATUS no improvement in best in 4 clusters for 5 generations
USER: GENES 18
USER: genes 0 Translation |==|  0.45234 0.47056 0.62910
USER: genes 1 Rotation |==|  0.68020 0.75685 0.11105 0.51655
USER: genes 2 Torsion [N]-C--CA-[N] |==|  0.24444
USER: genes 3 Torsion [C]-CA--CB-[CG] |==|  0.57616
USER: genes 4 Torsion [CA]-CB--CG-[CD] |==|  0.23924
USER: genes 5 Torsion [CB]-CG--CD-[OE2] |==|  0.97941
USER: genes 6 Torsion [C]-CA--N-[C] |==|  0.76977
USER: genes 7 Torsion [N]-C--CA-[N] |==|  0.68669
USER: genes 8 Torsion [C]-CA--CB-[CG] |==|  0.40663
USER: genes 9 Torsion [CA]-CB--CG-[CD] |==|  0.99255
USER: genes 10 Torsion [CB]-CG--CD-[OE2] |==|  0.31066
USER: genes 11 Torsion [C]-N--CA-[C] |==|  0.70590
USER: genes 12 Torsion [N]-CA--C-[N] |==|  0.34129
USER: genes 13 Torsion [C]-N--CA-[CB] |==|  0.81433
USER: genes 14 Torsion [N]-CA--CB-[CG] |==|  0.56785
USER: genes 15 Torsion [CA]-CB--CG-[OD1] |==|  0.61782
USER: genes 16 Torsion [N]-CA--C-[O] |==|  0.59132
USER: genes 17 Torsion [N]-CA--CB-[CG2] |==|  0.46368
ROOT
ATOM      1  C   GLU Q 640      29.872  55.743  73.579  1.00 42.49 LIG 0.24  C 
ATOM      2 O    GLU Q 640      29.597  56.078  72.429  1.00 42.42 LIG-0.27  OA
ATOM      3  N   VAL Q 641      29.018  55.118  74.382  1.00 42.52 LIG-0.35  N 
ATOM      4 H    VAL Q 641      29.186  54.936  75.205  1.00 42.52 LIG 0.16  HD
ENDROOT
BRANCH 1 5
ATOM      5  CA  GLU Q 640      31.237  56.046  74.190  1.00 42.54 LIG 0.18  C 
BRANCH 5 6
ATOM      6  CB  GLU Q 640      31.784  57.362  73.633  1.00 42.65 LIG 0.04  C 
BRANCH 6 7
ATOM      7  CG  GLU Q 640      33.304  57.448  73.623  1.00 42.42 LIG 0.12  C 
BRANCH 7 8
ATOM      8  CD  GLU Q 640      33.928  56.843  72.374  1.00 42.56 LIG 0.17  C 
ATOM      9 OE2  GLU Q 640      33.178  56.228  71.579  1.00 42.27 LIG-0.65  OA
ATOM     10 OE1  GLU Q 640      35.163  56.980  72.185  1.00 42.60 LIG-0.65  OA
ENDBRANCH 7 8
ENDBRANCH 6 7
ENDBRANCH 5 6
BRANCH 5 11
ATOM     11  N   GLU Q 640      32.215  54.968  74.038  1.00 42.67 LIG-0.35  N 
ATOM     12  C   GLU Q 639      32.245  53.932  74.875  1.00 42.69 LIG 0.26  C 
ATOM     13 O    GLU Q 639      31.388  53.745  75.741  1.00 42.71 LIG-0.27  OA
ATOM     14 H    GLU Q 640      32.753  55.065  73.375  1.00 42.67 LIG 0.16  HD
BRANCH 12 15
ATOM     15  CA  GLU Q 639      33.415  52.960  74.726  1.00 42.78 LIG 0.40  C 
ATOM     16  N   GLU Q 639      33.003  51.608  74.246  1.00 42.84 LIG 0.61  N 
BRANCH 15 17
ATOM     17  CB  GLU Q 639      34.468  53.570  73.795  1.00 42.78 LIG 0.06  C 
BRANCH 17 18
ATOM     18  CG  GLU Q 639      35.901  53.205  74.143  1.00 43.01 LIG 0.12  C 
BRANCH 18 19
ATOM     19  CD  GLU Q 639      36.008  52.350  75.398  1.00 43.16 LIG 0.17  C 
ATOM     20 OE1  GLU Q 639      35.719  52.855  76.505  1.00 43.27 LIG-0.65  OA
ATOM     21 OE2  GLU Q 639      36.379  51.165  75.273  1.00 43.17 LIG-0.65  OA
ENDBRANCH 18 19
ENDBRANCH 17 18
ENDBRANCH 15 17
ENDBRANCH 12 15
ENDBRANCH 5 11
ENDBRANCH 1 5
BRANCH 3 22
ATOM     22  CA  VAL Q 641      27.704  54.679  73.935  1.00 42.43 LIG 0.18  C 
BRANCH 22 23
ATOM     23  C   VAL Q 641      26.591  55.583  74.499  1.00 42.31 LIG 0.24  C 
ATOM     24 O    VAL Q 641      26.478  55.754  75.716  1.00 42.15 LIG-0.27  OA
ATOM     25  N   ASP Q 642      25.788  56.170  73.612  1.00 42.19 LIG-0.35  N 
ATOM     26 H    ASP Q 642      25.854  56.061  72.762  1.00 42.19 LIG 0.16  HD
BRANCH 25 27
ATOM     27  CA  ASP Q 642      24.704  57.070  74.023  1.00 42.17 LIG 0.17  C 
BRANCH 27 28
ATOM     28  CB  ASP Q 642      23.615  56.305  74.784  1.00 42.21 LIG 0.15  C 
BRANCH 28 29
ATOM     29  CG  ASP Q 642      22.255  56.985  74.721  1.00 42.38 LIG 0.17  C 
ATOM     30 OD1  ASP Q 642      21.552  57.048  75.755  1.00 42.36 LIG-0.65  OA
ATOM     31 OD2  ASP Q 642      21.888  57.456  73.621  1.00 42.41 LIG-0.65  OA
ENDBRANCH 28 29
ENDBRANCH 27 28
BRANCH 27 32
ATOM     32  C   ASP Q 642      25.199  58.252  74.861  1.00 42.05 LIG 0.22  C 
ATOM     33 O    ASP Q 642      24.498  58.735  75.750  1.00 41.78 LIG-0.29  OA
ENDBRANCH 27 32
ENDBRANCH 25 27
ENDBRANCH 22 23
BRANCH 22 34
ATOM     34  CB  VAL Q 641      27.503  53.176  74.287  1.00 42.38 LIG 0.01  C 
ATOM     35  CG2 VAL Q 641      26.070  52.782  74.132  1.00 42.63 LIG 0.01  C 
ATOM     36  CG1 VAL Q 641      28.025  52.837  75.686  1.00 42.36 LIG 0.01  C 
ENDBRANCH 22 34
ENDBRANCH 3 22
TORSDOF 16
ENDMDL
MODEL 20
USER: ADFR SOLUTION from run 11
USER: SCORE 15.377564 LL:  -3.668 LR: -12.368 RR:   0.000 FEB:  -7.596
USER: RMSD 8.909853
USER: SEED 187015
USER: STATUS no improvement in best in 8 clusters for 5 generations
USER: GENES 18
USER: genes 0 Translation |==|  0.79555 0.38300 0.51300
USER: genes 1 Rotation |==|  0.77506 0.61961 0.48742 0.89985
USER: genes 2 Torsion [N]-C--CA-[N] |==|  0.21981
USER: genes 3 Torsion [C]-CA--CB-[CG] |==|  0.61233
USER: genes 4 Torsion [CA]-CB--CG-[CD] |==|  0.81016
USER: genes 5 Torsion [CB]-CG--CD-[OE2] |==|  0.92117
USER: genes 6 Torsion [C]-CA--N-[C] |==|  0.64786
USER: genes 7 Torsion [N]-C--CA-[N] |==|  0.28296
USER: genes 8 Torsion [C]-CA--CB-[CG] |==|  0.20342
USER: genes 9 Torsion [CA]-CB--CG-[CD] |==|  0.08169
USER: genes 10 Torsion [CB]-CG--CD-[OE2] |==|  0.09424
USER: genes 11 Torsion [C]-N--CA-[C] |==|  0.72676
USER: genes 12 Torsion [N]-CA--C-[N] |==|  0.93896
USER: genes 13 Torsion [C]-N--CA-[CB] |==|  0.41419
USER: genes 14 Torsion [N]-CA--CB-[CG] |==|  0.15628
USER: genes 15 Torsion [CA]-CB--CG-[OD1] |==|  0.76697
USER: genes 16 Torsion [N]-CA--C-[O] |==|  0.08100
USER: genes 17 Torsion [N]-CA--CB-[CG2] |==|  0.34943
ROOT
ATOM      1  C   GLU Q 640      37.080  54.298  71.489  1.00 42.49 LIG 0.24  C 
ATOM      2 O    GLU Q 640      38.013  55.098  71.512  1.00 42.42 LIG-0.27  OA
ATOM      3  N   VAL Q 641      37.233  53.005  71.228  1.00 42.52 LIG-0.35  N 
ATOM      4 H    VAL Q 641      36.576  52.455  71.152  1.00 42.52 LIG 0.16  HD
ENDROOT
BRANCH 1 5
ATOM      5  CA  GLU Q 640      35.643  54.746  71.741  1.00 42.54 LIG 0.18  C 
BRANCH 5 6
ATOM      6  CB  GLU Q 640      35.491  56.235  71.424  1.00 42.65 LIG 0.04  C 
BRANCH 6 7
ATOM      7  CG  GLU Q 640      34.620  56.995  72.415  1.00 42.42 LIG 0.12  C 
BRANCH 7 8
ATOM      8  CD  GLU Q 640      33.153  56.598  72.348  1.00 42.56 LIG 0.17  C 
ATOM      9 OE2  GLU Q 640      32.705  56.179  71.253  1.00 42.27 LIG-0.65  OA
ATOM     10 OE1  GLU Q 640      32.448  56.701  73.382  1.00 42.60 LIG-0.65  OA
ENDBRANCH 7 8
ENDBRANCH 6 7
ENDBRANCH 5 6
BRANCH 5 11
ATOM     11  N   GLU Q 640      35.149  54.445  73.086  1.00 42.67 LIG-0.35  N 
ATOM     12  C   GLU Q 639      34.013  53.776  73.276  1.00 42.69 LIG 0.26  C 
ATOM     13 O    GLU Q 639      33.376  53.261  72.356  1.00 42.71 LIG-0.27  OA
ATOM     14 H    GLU Q 640      35.649  54.734  73.723  1.00 42.67 LIG 0.16  HD
BRANCH 12 15
ATOM     15  CA  GLU Q 639      33.507  53.673  74.716  1.00 42.78 LIG 0.40  C 
ATOM     16  N   GLU Q 639      32.394  54.620  75.020  1.00 42.84 LIG 0.61  N 
BRANCH 15 17
ATOM     17  CB  GLU Q 639      33.087  52.228  75.005  1.00 42.78 LIG 0.06  C 
BRANCH 17 18
ATOM     18  CG  GLU Q 639      34.245  51.259  75.163  1.00 43.01 LIG 0.12  C 
BRANCH 18 19
ATOM     19  CD  GLU Q 639      35.504  51.920  75.705  1.00 43.16 LIG 0.17  C 
ATOM     20 OE1  GLU Q 639      36.621  51.515  75.317  1.00 43.27 LIG-0.65  OA
ATOM     21 OE2  GLU Q 639      35.373  52.854  76.523  1.00 43.17 LIG-0.65  OA
ENDBRANCH 18 19
ENDBRANCH 17 18
ENDBRANCH 15 17
ENDBRANCH 12 15
ENDBRANCH 5 11
ENDBRANCH 1 5
BRANCH 3 22
ATOM     22  CA  VAL Q 641      38.541  52.393  71.047  1.00 42.43 LIG 0.18  C 
BRANCH 22 23
ATOM     23  C   VAL Q 641      38.887  52.247  69.552  1.00 42.31 LIG 0.24  C 
ATOM     24 O    VAL Q 641      40.059  52.122  69.189  1.00 42.15 LIG-0.27  OA
ATOM     25  N   ASP Q 642      37.864  52.243  68.697  1.00 42.19 LIG-0.35  N 
ATOM     26 H    ASP Q 642      37.042  52.329  68.935  1.00 42.19 LIG 0.16  HD
BRANCH 25 27
ATOM     27  CA  ASP Q 642      38.061  52.089  67.252  1.00 42.17 LIG 0.17  C 
BRANCH 27 28
ATOM     28  CB  ASP Q 642      36.865  51.378  66.607  1.00 42.21 LIG 0.15  C 
BRANCH 28 29
ATOM     29  CG  ASP Q 642      35.542  52.080  66.873  1.00 42.38 LIG 0.17  C 
ATOM     30 OD1  ASP Q 642      34.931  51.853  67.942  1.00 42.36 LIG-0.65  OA
ATOM     31 OD2  ASP Q 642      35.110  52.864  65.998  1.00 42.41 LIG-0.65  OA
ENDBRANCH 28 29
ENDBRANCH 27 28
BRANCH 27 32
ATOM     32  C   ASP Q 642      38.324  53.420  66.542  1.00 42.05 LIG 0.22  C 
ATOM     33 O    ASP Q 642      38.870  54.354  67.129  1.00 41.78 LIG-0.29  OA
ENDBRANCH 27 32
ENDBRANCH 25 27
ENDBRANCH 22 23
BRANCH 22 34
ATOM     34  CB  VAL Q 641      38.605  51.044  71.820  1.00 42.38 LIG 0.01  C 
ATOM     35  CG2 VAL Q 641      39.014  49.930  70.911  1.00 42.63 LIG 0.01  C 
ATOM     36  CG1 VAL Q 641      37.287  50.726  72.533  1.00 42.36 LIG 0.01  C 
ENDBRANCH 22 34
ENDBRANCH 3 22
TORSDOF 16
ENDMDL
MODEL 21
USER: ADFR SOLUTION from run 29
USER: SCORE 13.929154 LL:  -2.538 LR: -12.332 RR:   0.000 FEB:  -7.560
USER: RMSD 4.611380
USER: SEED 28
USER: STATUS no improvement in best in 6 clusters for 5 generations
USER: GENES 18
USER: genes 0 Translation |==|  0.47926 0.57582 0.52260
USER: genes 1 Rotation |==|  0.62527 0.52759 0.63405 0.96430
USER: genes 2 Torsion [N]-C--CA-[N] |==|  0.29446
USER: genes 3 Torsion [C]-CA--CB-[CG] |==|  0.85190
USER: genes 4 Torsion [CA]-CB--CG-[CD] |==|  0.35511
USER: genes 5 Torsion [CB]-CG--CD-[OE2] |==|  0.50099
USER: genes 6 Torsion [C]-CA--N-[C] |==|  0.69182
USER: genes 7 Torsion [N]-C--CA-[N] |==|  0.27121
USER: genes 8 Torsion [C]-CA--CB-[CG] |==|  0.41330
USER: genes 9 Torsion [CA]-CB--CG-[CD] |==|  0.22585
USER: genes 10 Torsion [CB]-CG--CD-[OE2] |==|  0.82467
USER: genes 11 Torsion [C]-N--CA-[C] |==|  0.66912
USER: genes 12 Torsion [N]-CA--C-[N] |==|  0.69352
USER: genes 13 Torsion [C]-N--CA-[CB] |==|  0.36672
USER: genes 14 Torsion [N]-CA--CB-[CG] |==|  0.15603
USER: genes 15 Torsion [CA]-CB--CG-[OD1] |==|  0.51426
USER: genes 16 Torsion [N]-CA--C-[O] |==|  0.22182
USER: genes 17 Torsion [N]-CA--CB-[CG2] |==|  0.50407
ROOT
ATOM      1  C   GLU Q 640      30.437  57.480  71.662  1.00 42.49 LIG 0.24  C 
ATOM      2 O    GLU Q 640      30.903  58.617  71.674  1.00 42.42 LIG-0.27  OA
ATOM      3  N   VAL Q 641      30.991  56.458  72.305  1.00 42.52 LIG-0.35  N 
ATOM      4 H    VAL Q 641      30.702  55.650  72.250  1.00 42.52 LIG 0.16  HD
ENDROOT
BRANCH 1 5
ATOM      5  CA  GLU Q 640      29.175  57.146  70.873  1.00 42.54 LIG 0.18  C 
BRANCH 5 6
ATOM      6  CB  GLU Q 640      29.303  57.652  69.435  1.00 42.65 LIG 0.04  C 
BRANCH 6 7
ATOM      7  CG  GLU Q 640      29.664  59.127  69.325  1.00 42.42 LIG 0.12  C 
BRANCH 7 8
ATOM      8  CD  GLU Q 640      30.867  59.383  68.428  1.00 42.56 LIG 0.17  C 
ATOM      9 OE2  GLU Q 640      31.248  60.568  68.279  1.00 42.27 LIG-0.65  OA
ATOM     10 OE1  GLU Q 640      31.430  58.406  67.875  1.00 42.60 LIG-0.65  OA
ENDBRANCH 7 8
ENDBRANCH 6 7
ENDBRANCH 5 6
BRANCH 5 11
ATOM     11  N   GLU Q 640      27.938  57.628  71.489  1.00 42.67 LIG-0.35  N 
ATOM     12  C   GLU Q 639      27.044  56.788  72.007  1.00 42.69 LIG 0.26  C 
ATOM     13 O    GLU Q 639      27.250  55.578  72.121  1.00 42.71 LIG-0.27  OA
ATOM     14 H    GLU Q 640      27.846  58.483  71.483  1.00 42.67 LIG 0.16  HD
BRANCH 12 15
ATOM     15  CA  GLU Q 639      25.715  57.390  72.464  1.00 42.78 LIG 0.40  C 
ATOM     16  N   GLU Q 639      24.624  57.248  71.455  1.00 42.84 LIG 0.61  N 
BRANCH 15 17
ATOM     17  CB  GLU Q 639      25.305  56.763  73.800  1.00 42.78 LIG 0.06  C 
BRANCH 17 18
ATOM     18  CG  GLU Q 639      24.513  57.687  74.709  1.00 43.01 LIG 0.12  C 
BRANCH 18 19
ATOM     19  CD  GLU Q 639      23.036  57.753  74.347  1.00 43.16 LIG 0.17  C 
ATOM     20 OE1  GLU Q 639      22.187  57.354  75.174  1.00 43.27 LIG-0.65  OA
ATOM     21 OE2  GLU Q 639      22.724  58.210  73.228  1.00 43.17 LIG-0.65  OA
ENDBRANCH 18 19
ENDBRANCH 17 18
ENDBRANCH 15 17
ENDBRANCH 12 15
ENDBRANCH 5 11
ENDBRANCH 1 5
BRANCH 3 22
ATOM     22  CA  VAL Q 641      32.150  56.615  73.172  1.00 42.43 LIG 0.18  C 
BRANCH 22 23
ATOM     23  C   VAL Q 641      33.345  55.785  72.663  1.00 42.31 LIG 0.24  C 
ATOM     24 O    VAL Q 641      33.942  56.113  71.634  1.00 42.15 LIG-0.27  OA
ATOM     25  N   ASP Q 642      33.697  54.729  73.395  1.00 42.19 LIG-0.35  N 
ATOM     26 H    ASP Q 642      33.291  54.488  74.113  1.00 42.19 LIG 0.16  HD
BRANCH 25 27
ATOM     27  CA  ASP Q 642      34.831  53.873  73.027  1.00 42.17 LIG 0.17  C 
BRANCH 27 28
ATOM     28  CB  ASP Q 642      35.743  53.621  74.233  1.00 42.21 LIG 0.15  C 
BRANCH 28 29
ATOM     29  CG  ASP Q 642      35.006  53.018  75.420  1.00 42.38 LIG 0.17  C 
ATOM     30 OD1  ASP Q 642      35.616  52.854  76.501  1.00 42.36 LIG-0.65  OA
ATOM     31 OD2  ASP Q 642      33.806  52.702  75.264  1.00 42.41 LIG-0.65  OA
ENDBRANCH 28 29
ENDBRANCH 27 28
BRANCH 27 32
ATOM     32  C   ASP Q 642      34.394  52.540  72.412  1.00 42.05 LIG 0.22  C 
ATOM     33 O    ASP Q 642      34.053  52.468  71.232  1.00 41.78 LIG-0.29  OA
ENDBRANCH 27 32
ENDBRANCH 25 27
ENDBRANCH 22 23
BRANCH 22 34
ATOM     34  CB  VAL Q 641      31.759  56.278  74.641  1.00 42.38 LIG 0.01  C 
ATOM     35  CG2 VAL Q 641      32.925  56.467  75.556  1.00 42.63 LIG 0.01  C 
ATOM     36  CG1 VAL Q 641      31.169  54.871  74.773  1.00 42.36 LIG 0.01  C 
ENDBRANCH 22 34
ENDBRANCH 3 22
TORSDOF 16
ENDMDL
MODEL 22
USER: ADFR SOLUTION from run 40
USER: SCORE 14.885768 LL:  -2.748 LR: -12.299 RR:   0.000 FEB:  -7.526
USER: RMSD 8.936928
USER: SEED 39
USER: STATUS no improvement in best in 7 clusters for 5 generations
USER: GENES 18
USER: genes 0 Translation |==|  0.51465 0.45522 0.75270
USER: genes 1 Rotation |==|  0.55815 0.09244 0.51401 0.78340
USER: genes 2 Torsion [N]-C--CA-[N] |==|  0.94268
USER: genes 3 Torsion [C]-CA--CB-[CG] |==|  0.46248
USER: genes 4 Torsion [CA]-CB--CG-[CD] |==|  0.19396
USER: genes 5 Torsion [CB]-CG--CD-[OE2] |==|  0.57077
USER: genes 6 Torsion [C]-CA--N-[C] |==|  0.81014
USER: genes 7 Torsion [N]-C--CA-[N] |==|  0.02137
USER: genes 8 Torsion [C]-CA--CB-[CG] |==|  0.90232
USER: genes 9 Torsion [CA]-CB--CG-[CD] |==|  0.33182
USER: genes 10 Torsion [CB]-CG--CD-[OE2] |==|  0.20700
USER: genes 11 Torsion [C]-N--CA-[C] |==|  0.72942
USER: genes 12 Torsion [N]-CA--C-[N] |==|  0.46667
USER: genes 13 Torsion [C]-N--CA-[CB] |==|  0.19541
USER: genes 14 Torsion [N]-CA--CB-[CG] |==|  0.65403
USER: genes 15 Torsion [CA]-CB--CG-[OD1] |==|  0.28804
USER: genes 16 Torsion [N]-CA--C-[O] |==|  0.85887
USER: genes 17 Torsion [N]-CA--CB-[CG2] |==|  0.99893
ROOT
ATOM      1  C   GLU Q 640      31.181  55.490  75.804  1.00 42.49 LIG 0.24  C 
ATOM      2 O    GLU Q 640      31.060  56.000  76.915  1.00 42.42 LIG-0.27  OA
ATOM      3  N   VAL Q 641      30.307  54.627  75.298  1.00 42.52 LIG-0.35  N 
ATOM      4 H    VAL Q 641      30.419  54.223  74.547  1.00 42.52 LIG 0.16  HD
ENDROOT
BRANCH 1 5
ATOM      5  CA  GLU Q 640      32.380  55.800  74.913  1.00 42.54 LIG 0.18  C 
BRANCH 5 6
ATOM      6  CB  GLU Q 640      32.224  57.187  74.284  1.00 42.65 LIG 0.04  C 
BRANCH 6 7
ATOM      7  CG  GLU Q 640      33.498  57.725  73.645  1.00 42.42 LIG 0.12  C 
BRANCH 7 8
ATOM      8  CD  GLU Q 640      33.893  56.978  72.380  1.00 42.56 LIG 0.17  C 
ATOM      9 OE2  GLU Q 640      35.104  56.979  72.049  1.00 42.27 LIG-0.65  OA
ATOM     10 OE1  GLU Q 640      33.002  56.391  71.717  1.00 42.60 LIG-0.65  OA
ENDBRANCH 7 8
ENDBRANCH 6 7
ENDBRANCH 5 6
BRANCH 5 11
ATOM     11  N   GLU Q 640      32.643  54.788  73.888  1.00 42.67 LIG-0.35  N 
ATOM     12  C   GLU Q 639      33.073  53.569  74.208  1.00 42.69 LIG 0.26  C 
ATOM     13 O    GLU Q 639      33.154  53.171  75.372  1.00 42.71 LIG-0.27  OA
ATOM     14 H    GLU Q 640      32.498  55.050  73.082  1.00 42.67 LIG 0.16  HD
BRANCH 12 15
ATOM     15  CA  GLU Q 639      33.481  52.657  73.051  1.00 42.78 LIG 0.40  C 
ATOM     16  N   GLU Q 639      33.502  53.351  71.730  1.00 42.84 LIG 0.61  N 
BRANCH 15 17
ATOM     17  CB  GLU Q 639      34.844  52.027  73.357  1.00 42.78 LIG 0.06  C 
BRANCH 17 18
ATOM     18  CG  GLU Q 639      35.799  52.934  74.113  1.00 43.01 LIG 0.12  C 
BRANCH 18 19
ATOM     19  CD  GLU Q 639      36.215  52.367  75.462  1.00 43.16 LIG 0.17  C 
ATOM     20 OE1  GLU Q 639      35.727  52.854  76.505  1.00 43.27 LIG-0.65  OA
ATOM     21 OE2  GLU Q 639      37.034  51.425  75.477  1.00 43.17 LIG-0.65  OA
ENDBRANCH 18 19
ENDBRANCH 17 18
ENDBRANCH 15 17
ENDBRANCH 12 15
ENDBRANCH 5 11
ENDBRANCH 1 5
BRANCH 3 22
ATOM     22  CA  VAL Q 641      29.066  54.283  75.975  1.00 42.43 LIG 0.18  C 
BRANCH 22 23
ATOM     23  C   VAL Q 641      29.209  52.970  76.770  1.00 42.31 LIG 0.24  C 
ATOM     24 O    VAL Q 641      30.199  52.249  76.618  1.00 42.15 LIG-0.27  OA
ATOM     25  N   ASP Q 642      28.230  52.678  77.626  1.00 42.19 LIG-0.35  N 
ATOM     26 H    ASP Q 642      27.535  53.169  77.743  1.00 42.19 LIG 0.16  HD
BRANCH 25 27
ATOM     27  CA  ASP Q 642      28.260  51.468  78.456  1.00 42.17 LIG 0.17  C 
BRANCH 27 28
ATOM     28  CB  ASP Q 642      29.339  51.573  79.541  1.00 42.21 LIG 0.15  C 
BRANCH 28 29
ATOM     29  CG  ASP Q 642      30.330  50.419  79.509  1.00 42.38 LIG 0.17  C 
ATOM     30 OD1  ASP Q 642      31.472  50.604  79.031  1.00 42.36 LIG-0.65  OA
ATOM     31 OD2  ASP Q 642      29.956  49.315  79.964  1.00 42.41 LIG-0.65  OA
ENDBRANCH 28 29
ENDBRANCH 27 28
BRANCH 27 32
ATOM     32  C   ASP Q 642      26.905  51.150  79.094  1.00 42.05 LIG 0.22  C 
ATOM     33 O    ASP Q 642      26.281  52.008  79.716  1.00 41.78 LIG-0.29  OA
ENDBRANCH 27 32
ENDBRANCH 25 27
ENDBRANCH 22 23
BRANCH 22 34
ATOM     34  CB  VAL Q 641      27.896  54.246  74.948  1.00 42.38 LIG 0.01  C 
ATOM     35  CG2 VAL Q 641      28.384  54.582  73.576  1.00 42.63 LIG 0.01  C 
ATOM     36  CG1 VAL Q 641      26.736  55.154  75.364  1.00 42.36 LIG 0.01  C 
ENDBRANCH 22 34
ENDBRANCH 3 22
TORSDOF 16
ENDMDL
MODEL 23
USER: ADFR SOLUTION from run 171
USER: SCORE 15.057887 LL:  -3.181 LR: -12.288 RR:   0.000 FEB:  -7.516
USER: RMSD 8.582148
USER: SEED 170
USER: STATUS no improvement in best in 3 clusters for 5 generations
USER: GENES 18
USER: genes 0 Translation |==|  0.56106 0.32513 0.68390
USER: genes 1 Rotation |==|  0.64438 0.86330 0.81070 0.52513
USER: genes 2 Torsion [N]-C--CA-[N] |==|  0.10965
USER: genes 3 Torsion [C]-CA--CB-[CG] |==|  0.50406
USER: genes 4 Torsion [CA]-CB--CG-[CD] |==|  0.30127
USER: genes 5 Torsion [CB]-CG--CD-[OE2] |==|  0.22576
USER: genes 6 Torsion [C]-CA--N-[C] |==|  0.17044
USER: genes 7 Torsion [N]-C--CA-[N] |==|  0.77293
USER: genes 8 Torsion [C]-CA--CB-[CG] |==|  0.16028
USER: genes 9 Torsion [CA]-CB--CG-[CD] |==|  0.33063
USER: genes 10 Torsion [CB]-CG--CD-[OE2] |==|  0.51497
USER: genes 11 Torsion [C]-N--CA-[C] |==|  0.56258
USER: genes 12 Torsion [N]-CA--C-[N] |==|  0.37223
USER: genes 13 Torsion [C]-N--CA-[CB] |==|  0.26337
USER: genes 14 Torsion [N]-CA--CB-[CG] |==|  0.67197
USER: genes 15 Torsion [CA]-CB--CG-[OD1] |==|  0.86086
USER: genes 16 Torsion [N]-CA--C-[O] |==|  0.32592
USER: genes 17 Torsion [N]-CA--CB-[CG2] |==|  0.72898
ROOT
ATOM      1  C   GLU Q 640      32.155  53.344  74.565  1.00 42.49 LIG 0.24  C 
ATOM      2 O    GLU Q 640      31.391  53.533  75.509  1.00 42.42 LIG-0.27  OA
ATOM      3  N   VAL Q 641      32.438  54.271  73.657  1.00 42.52 LIG-0.35  N 
ATOM      4 H    VAL Q 641      32.924  54.124  72.963  1.00 42.52 LIG 0.16  HD
ENDROOT
BRANCH 1 5
ATOM      5  CA  GLU Q 640      32.834  51.995  74.349  1.00 42.54 LIG 0.18  C 
BRANCH 5 6
ATOM      6  CB  GLU Q 640      32.740  51.148  75.621  1.00 42.65 LIG 0.04  C 
BRANCH 6 7
ATOM      7  CG  GLU Q 640      33.422  49.791  75.515  1.00 42.42 LIG 0.12  C 
BRANCH 7 8
ATOM      8  CD  GLU Q 640      34.704  49.701  76.330  1.00 42.56 LIG 0.17  C 
ATOM      9 OE2  GLU Q 640      34.605  49.469  77.559  1.00 42.27 LIG-0.65  OA
ATOM     10 OE1  GLU Q 640      35.806  49.860  75.749  1.00 42.60 LIG-0.65  OA
ENDBRANCH 7 8
ENDBRANCH 6 7
ENDBRANCH 5 6
BRANCH 5 11
ATOM     11  N   GLU Q 640      34.219  52.087  73.885  1.00 42.67 LIG-0.35  N 
ATOM     12  C   GLU Q 639      35.160  52.682  74.615  1.00 42.69 LIG 0.26  C 
ATOM     13 O    GLU Q 639      34.965  53.075  75.767  1.00 42.71 LIG-0.27  OA
ATOM     14 H    GLU Q 640      34.362  51.730  73.116  1.00 42.67 LIG 0.16  HD
BRANCH 12 15
ATOM     15  CA  GLU Q 639      36.526  52.874  73.956  1.00 42.78 LIG 0.40  C 
ATOM     16  N   GLU Q 639      37.385  51.654  74.009  1.00 42.84 LIG 0.61  N 
BRANCH 15 17
ATOM     17  CB  GLU Q 639      36.331  53.340  72.509  1.00 42.78 LIG 0.06  C 
BRANCH 17 18
ATOM     18  CG  GLU Q 639      35.534  54.624  72.366  1.00 43.01 LIG 0.12  C 
BRANCH 18 19
ATOM     19  CD  GLU Q 639      36.324  55.744  71.704  1.00 43.16 LIG 0.17  C 
ATOM     20 OE1  GLU Q 639      37.466  55.500  71.254  1.00 43.27 LIG-0.65  OA
ATOM     21 OE2  GLU Q 639      35.797  56.873  71.630  1.00 43.17 LIG-0.65  OA
ENDBRANCH 18 19
ENDBRANCH 17 18
ENDBRANCH 15 17
ENDBRANCH 12 15
ENDBRANCH 5 11
ENDBRANCH 1 5
BRANCH 3 22
ATOM     22  CA  VAL Q 641      31.945  55.637  73.756  1.00 42.43 LIG 0.18  C 
BRANCH 22 23
ATOM     23  C   VAL Q 641      31.926  56.326  72.376  1.00 42.31 LIG 0.24  C 
ATOM     24 O    VAL Q 641      32.890  56.225  71.613  1.00 42.15 LIG-0.27  OA
ATOM     25  N   ASP Q 642      30.824  57.003  72.059  1.00 42.19 LIG-0.35  N 
ATOM     26 H    ASP Q 642      30.144  57.082  72.579  1.00 42.19 LIG 0.16  HD
BRANCH 25 27
ATOM     27  CA  ASP Q 642      30.676  57.684  70.767  1.00 42.17 LIG 0.17  C 
BRANCH 27 28
ATOM     28  CB  ASP Q 642      29.945  56.791  69.757  1.00 42.21 LIG 0.15  C 
BRANCH 28 29
ATOM     29  CG  ASP Q 642      30.793  56.452  68.540  1.00 42.38 LIG 0.17  C 
ATOM     30 OD1  ASP Q 642      31.374  57.373  67.921  1.00 42.36 LIG-0.65  OA
ATOM     31 OD2  ASP Q 642      30.873  55.251  68.199  1.00 42.41 LIG-0.65  OA
ENDBRANCH 28 29
ENDBRANCH 27 28
BRANCH 27 32
ATOM     32  C   ASP Q 642      29.965  59.035  70.885  1.00 42.05 LIG 0.22  C 
ATOM     33 O    ASP Q 642      30.538  60.081  70.584  1.00 41.78 LIG-0.29  OA
ENDBRANCH 27 32
ENDBRANCH 25 27
ENDBRANCH 22 23
BRANCH 22 34
ATOM     34  CB  VAL Q 641      32.772  56.422  74.815  1.00 42.38 LIG 0.01  C 
ATOM     35  CG2 VAL Q 641      32.063  56.448  76.130  1.00 42.63 LIG 0.01  C 
ATOM     36  CG1 VAL Q 641      33.120  57.837  74.343  1.00 42.36 LIG 0.01  C 
ENDBRANCH 22 34
ENDBRANCH 3 22
TORSDOF 16
ENDMDL
MODEL 24
USER: ADFR SOLUTION from run 114
USER: SCORE 13.690682 LL:  -2.699 LR: -12.294 RR:   0.000 FEB:  -7.521
USER: RMSD 5.533492
USER: SEED 113
USER: STATUS no improvement in best in 10 clusters for 5 generations
USER: GENES 18
USER: genes 0 Translation |==|  0.53789 0.48604 0.53433
USER: genes 1 Rotation |==|  0.47667 0.39661 0.59072 0.98014
USER: genes 2 Torsion [N]-C--CA-[N] |==|  0.90083
USER: genes 3 Torsion [C]-CA--CB-[CG] |==|  0.34826
USER: genes 4 Torsion [CA]-CB--CG-[CD] |==|  0.89753
USER: genes 5 Torsion [CB]-CG--CD-[OE2] |==|  0.70929
USER: genes 6 Torsion [C]-CA--N-[C] |==|  0.55030
USER: genes 7 Torsion [N]-C--CA-[N] |==|  0.47935
USER: genes 8 Torsion [C]-CA--CB-[CG] |==|  0.72456
USER: genes 9 Torsion [CA]-CB--CG-[CD] |==|  0.16103
USER: genes 10 Torsion [CB]-CG--CD-[OE2] |==|  0.28034
USER: genes 11 Torsion [C]-N--CA-[C] |==|  0.74959
USER: genes 12 Torsion [N]-CA--C-[N] |==|  0.06667
USER: genes 13 Torsion [C]-N--CA-[CB] |==|  0.21747
USER: genes 14 Torsion [N]-CA--CB-[CG] |==|  0.65580
USER: genes 15 Torsion [CA]-CB--CG-[OD1] |==|  0.13548
USER: genes 16 Torsion [N]-CA--C-[O] |==|  0.12414
USER: genes 17 Torsion [N]-CA--CB-[CG2] |==|  0.53506
ROOT
ATOM      1  C   GLU Q 640      31.669  55.999  71.873  1.00 42.49 LIG 0.24  C 
ATOM      2 O    GLU Q 640      32.464  56.933  71.808  1.00 42.42 LIG-0.27  OA
ATOM      3  N   VAL Q 641      31.386  55.358  73.002  1.00 42.52 LIG-0.35  N 
ATOM      4 H    VAL Q 641      30.877  54.666  73.041  1.00 42.52 LIG 0.16  HD
ENDROOT
BRANCH 1 5
ATOM      5  CA  GLU Q 640      30.948  55.480  70.633  1.00 42.54 LIG 0.18  C 
BRANCH 5 6
ATOM      6  CB  GLU Q 640      29.615  56.210  70.453  1.00 42.65 LIG 0.04  C 
BRANCH 6 7
ATOM      7  CG  GLU Q 640      29.443  56.862  69.088  1.00 42.42 LIG 0.12  C 
BRANCH 7 8
ATOM      8  CD  GLU Q 640      30.734  57.454  68.541  1.00 42.56 LIG 0.17  C 
ATOM      9 OE2  GLU Q 640      30.871  58.700  68.573  1.00 42.27 LIG-0.65  OA
ATOM     10 OE1  GLU Q 640      31.609  56.680  68.080  1.00 42.60 LIG-0.65  OA
ENDBRANCH 7 8
ENDBRANCH 6 7
ENDBRANCH 5 6
BRANCH 5 11
ATOM     11  N   GLU Q 640      30.755  54.028  70.614  1.00 42.67 LIG-0.35  N 
ATOM     12  C   GLU Q 639      30.479  53.378  69.486  1.00 42.69 LIG 0.26  C 
ATOM     13 O    GLU Q 639      30.493  53.920  68.379  1.00 42.71 LIG-0.27  OA
ATOM     14 H    GLU Q 640      30.836  53.648  71.381  1.00 42.67 LIG 0.16  HD
BRANCH 12 15
ATOM     15  CA  GLU Q 639      30.126  51.896  69.614  1.00 42.78 LIG 0.40  C 
ATOM     16  N   GLU Q 639      29.661  51.285  68.334  1.00 42.84 LIG 0.61  N 
BRANCH 15 17
ATOM     17  CB  GLU Q 639      31.332  51.133  70.173  1.00 42.78 LIG 0.06  C 
BRANCH 17 18
ATOM     18  CG  GLU Q 639      32.162  50.415  69.123  1.00 43.01 LIG 0.12  C 
BRANCH 18 19
ATOM     19  CD  GLU Q 639      32.703  51.352  68.052  1.00 43.16 LIG 0.17  C 
ATOM     20 OE1  GLU Q 639      31.944  51.728  67.131  1.00 43.27 LIG-0.65  OA
ATOM     21 OE2  GLU Q 639      33.894  51.716  68.134  1.00 43.17 LIG-0.65  OA
ENDBRANCH 18 19
ENDBRANCH 17 18
ENDBRANCH 15 17
ENDBRANCH 12 15
ENDBRANCH 5 11
ENDBRANCH 1 5
BRANCH 3 22
ATOM     22  CA  VAL Q 641      31.919  55.773  74.291  1.00 42.43 LIG 0.18  C 
BRANCH 22 23
ATOM     23  C   VAL Q 641      33.263  55.080  74.590  1.00 42.31 LIG 0.24  C 
ATOM     24 O    VAL Q 641      33.643  54.925  75.754  1.00 42.15 LIG-0.27  OA
ATOM     25  N   ASP Q 642      33.963  54.651  73.541  1.00 42.19 LIG-0.35  N 
ATOM     26 H    ASP Q 642      33.712  54.752  72.725  1.00 42.19 LIG 0.16  HD
BRANCH 25 27
ATOM     27  CA  ASP Q 642      35.247  53.958  73.695  1.00 42.17 LIG 0.17  C 
BRANCH 27 28
ATOM     28  CB  ASP Q 642      35.035  52.493  74.097  1.00 42.21 LIG 0.15  C 
BRANCH 28 29
ATOM     29  CG  ASP Q 642      35.755  52.119  75.384  1.00 42.38 LIG 0.17  C 
ATOM     30 OD1  ASP Q 642      35.634  52.855  76.390  1.00 42.36 LIG-0.65  OA
ATOM     31 OD2  ASP Q 642      36.452  51.080  75.383  1.00 42.41 LIG-0.65  OA
ENDBRANCH 28 29
ENDBRANCH 27 28
BRANCH 27 32
ATOM     32  C   ASP Q 642      36.120  54.036  72.440  1.00 42.05 LIG 0.22  C 
ATOM     33 O    ASP Q 642      36.257  55.095  71.828  1.00 41.78 LIG-0.29  OA
ENDBRANCH 27 32
ENDBRANCH 25 27
ENDBRANCH 22 23
BRANCH 22 34
ATOM     34  CB  VAL Q 641      30.854  55.539  75.402  1.00 42.38 LIG 0.01  C 
ATOM     35  CG2 VAL Q 641      31.248  56.228  76.668  1.00 42.63 LIG 0.01  C 
ATOM     36  CG1 VAL Q 641      30.586  54.050  75.639  1.00 42.36 LIG 0.01  C 
ENDBRANCH 22 34
ENDBRANCH 3 22
TORSDOF 16
ENDMDL
MODEL 25
USER: ADFR SOLUTION from run 26
USER: SCORE 13.301567 LL:  -2.264 LR: -12.260 RR:   0.000 FEB:  -7.487
USER: RMSD 8.167756
USER: SEED 25
USER: STATUS no improvement in best in 6 clusters for 5 generations
USER: GENES 18
USER: genes 0 Translation |==|  0.59193 0.42075 0.53909
USER: genes 1 Rotation |==|  0.30099 0.34815 0.73420 0.86398
USER: genes 2 Torsion [N]-C--CA-[N] |==|  0.75000
USER: genes 3 Torsion [C]-CA--CB-[CG] |==|  0.26439
USER: genes 4 Torsion [CA]-CB--CG-[CD] |==|  0.08907
USER: genes 5 Torsion [CB]-CG--CD-[OE2] |==|  0.13536
USER: genes 6 Torsion [C]-CA--N-[C] |==|  0.85063
USER: genes 7 Torsion [N]-C--CA-[N] |==|  0.48983
USER: genes 8 Torsion [C]-CA--CB-[CG] |==|  0.91896
USER: genes 9 Torsion [CA]-CB--CG-[CD] |==|  0.43372
USER: genes 10 Torsion [CB]-CG--CD-[OE2] |==|  0.83586
USER: genes 11 Torsion [C]-N--CA-[C] |==|  0.13928
USER: genes 12 Torsion [N]-CA--C-[N] |==|  0.09900
USER: genes 13 Torsion [C]-N--CA-[CB] |==|  0.35517
USER: genes 14 Torsion [N]-CA--CB-[CG] |==|  0.72722
USER: genes 15 Torsion [CA]-CB--CG-[OD1] |==|  0.88872
USER: genes 16 Torsion [N]-CA--C-[O] |==|  0.59265
USER: genes 17 Torsion [N]-CA--CB-[CG2] |==|  0.57299
ROOT
ATOM      1  C   GLU Q 640      32.803  54.921  71.959  1.00 42.49 LIG 0.24  C 
ATOM      2 O    GLU Q 640      33.211  55.880  71.306  1.00 42.42 LIG-0.27  OA
ATOM      3  N   VAL Q 641      32.164  55.045  73.117  1.00 42.52 LIG-0.35  N 
ATOM      4 H    VAL Q 641      31.931  54.377  73.604  1.00 42.52 LIG 0.16  HD
ENDROOT
BRANCH 1 5
ATOM      5  CA  GLU Q 640      33.025  53.487  71.488  1.00 42.54 LIG 0.18  C 
BRANCH 5 6
ATOM      6  CB  GLU Q 640      31.829  52.615  71.876  1.00 42.65 LIG 0.04  C 
BRANCH 6 7
ATOM      7  CG  GLU Q 640      30.787  52.462  70.776  1.00 42.42 LIG 0.12  C 
BRANCH 7 8
ATOM      8  CD  GLU Q 640      31.387  52.490  69.378  1.00 42.56 LIG 0.17  C 
ATOM      9 OE2  GLU Q 640      32.380  51.758  69.148  1.00 42.27 LIG-0.65  OA
ATOM     10 OE1  GLU Q 640      30.871  53.237  68.510  1.00 42.60 LIG-0.65  OA
ENDBRANCH 7 8
ENDBRANCH 6 7
ENDBRANCH 5 6
BRANCH 5 11
ATOM     11  N   GLU Q 640      34.279  52.891  71.950  1.00 42.67 LIG-0.35  N 
ATOM     12  C   GLU Q 639      35.451  53.487  71.743  1.00 42.69 LIG 0.26  C 
ATOM     13 O    GLU Q 639      35.552  54.622  71.272  1.00 42.71 LIG-0.27  OA
ATOM     14 H    GLU Q 640      34.188  52.139  72.357  1.00 42.67 LIG 0.16  HD
BRANCH 12 15
ATOM     15  CA  GLU Q 639      36.704  52.692  72.113  1.00 42.78 LIG 0.40  C 
ATOM     16  N   GLU Q 639      37.974  53.396  71.769  1.00 42.84 LIG 0.61  N 
BRANCH 15 17
ATOM     17  CB  GLU Q 639      36.662  52.341  73.604  1.00 42.78 LIG 0.06  C 
BRANCH 17 18
ATOM     18  CG  GLU Q 639      35.907  53.341  74.462  1.00 43.01 LIG 0.12  C 
BRANCH 18 19
ATOM     19  CD  GLU Q 639      35.382  52.737  75.757  1.00 43.16 LIG 0.17  C 
ATOM     20 OE1  GLU Q 639      35.747  53.225  76.849  1.00 43.27 LIG-0.65  OA
ATOM     21 OE2  GLU Q 639      34.598  51.769  75.679  1.00 43.17 LIG-0.65  OA
ENDBRANCH 18 19
ENDBRANCH 17 18
ENDBRANCH 15 17
ENDBRANCH 12 15
ENDBRANCH 5 11
ENDBRANCH 1 5
BRANCH 3 22
ATOM     22  CA  VAL Q 641      31.796  56.340  73.672  1.00 42.43 LIG 0.18  C 
BRANCH 22 23
ATOM     23  C   VAL Q 641      31.064  57.207  72.628  1.00 42.31 LIG 0.24  C 
ATOM     24 O    VAL Q 641      31.247  58.426  72.588  1.00 42.15 LIG-0.27  OA
ATOM     25  N   ASP Q 642      30.256  56.571  71.780  1.00 42.19 LIG-0.35  N 
ATOM     26 H    ASP Q 642      30.119  55.723  71.796  1.00 42.19 LIG 0.16  HD
BRANCH 25 27
ATOM     27  CA  ASP Q 642      29.521  57.282  70.729  1.00 42.17 LIG 0.17  C 
BRANCH 27 28
ATOM     28  CB  ASP Q 642      29.759  56.635  69.359  1.00 42.21 LIG 0.15  C 
BRANCH 28 29
ATOM     29  CG  ASP Q 642      30.823  57.351  68.540  1.00 42.38 LIG 0.17  C 
ATOM     30 OD1  ASP Q 642      30.866  58.602  68.549  1.00 42.36 LIG-0.65  OA
ATOM     31 OD2  ASP Q 642      31.621  56.650  67.878  1.00 42.41 LIG-0.65  OA
ENDBRANCH 28 29
ENDBRANCH 27 28
BRANCH 27 32
ATOM     32  C   ASP Q 642      28.018  57.373  71.012  1.00 42.05 LIG 0.22  C 
ATOM     33 O    ASP Q 642      27.198  57.351  70.095  1.00 41.78 LIG-0.29  OA
ENDBRANCH 27 32
ENDBRANCH 25 27
ENDBRANCH 22 23
BRANCH 22 34
ATOM     34  CB  VAL Q 641      33.054  57.037  74.266  1.00 42.38 LIG 0.01  C 
ATOM     35  CG2 VAL Q 641      32.670  57.990  75.351  1.00 42.63 LIG 0.01  C 
ATOM     36  CG1 VAL Q 641      33.893  57.729  73.188  1.00 42.36 LIG 0.01  C 
ENDBRANCH 22 34
ENDBRANCH 3 22
TORSDOF 16
ENDMDL
MODEL 26
USER: ADFR SOLUTION from run 30
USER: SCORE 15.949123 LL:  -3.797 LR: -12.254 RR:   0.000 FEB:  -7.482
USER: RMSD 8.346508
USER: SEED 29
USER: STATUS no improvement in best in 3 clusters for 5 generations
USER: GENES 18
USER: genes 0 Translation |==|  0.59269 0.28422 0.58654
USER: genes 1 Rotation |==|  0.43312 0.68939 0.93006 0.65718
USER: genes 2 Torsion [N]-C--CA-[N] |==|  0.92222
USER: genes 3 Torsion [C]-CA--CB-[CG] |==|  0.84994
USER: genes 4 Torsion [CA]-CB--CG-[CD] |==|  0.78324
USER: genes 5 Torsion [CB]-CG--CD-[OE2] |==|  0.43849
USER: genes 6 Torsion [C]-CA--N-[C] |==|  0.80578
USER: genes 7 Torsion [N]-C--CA-[N] |==|  0.50049
USER: genes 8 Torsion [C]-CA--CB-[CG] |==|  0.88613
USER: genes 9 Torsion [CA]-CB--CG-[CD] |==|  0.80392
USER: genes 10 Torsion [CB]-CG--CD-[OE2] |==|  0.47121
USER: genes 11 Torsion [C]-N--CA-[C] |==|  0.77886
USER: genes 12 Torsion [N]-CA--C-[N] |==|  0.34573
USER: genes 13 Torsion [C]-N--CA-[CB] |==|  0.34474
USER: genes 14 Torsion [N]-CA--CB-[CG] |==|  0.73545
USER: genes 15 Torsion [CA]-CB--CG-[OD1] |==|  0.24234
USER: genes 16 Torsion [N]-CA--C-[O] |==|  0.31929
USER: genes 17 Torsion [N]-CA--CB-[CG2] |==|  0.71875
ROOT
ATOM      1  C   GLU Q 640      32.819  52.669  72.813  1.00 42.49 LIG 0.24  C 
ATOM      2 O    GLU Q 640      31.658  52.511  72.444  1.00 42.42 LIG-0.27  OA
ATOM      3  N   VAL Q 641      33.306  53.839  73.212  1.00 42.52 LIG-0.35  N 
ATOM      4 H    VAL Q 641      34.133  53.965  73.413  1.00 42.52 LIG 0.16  HD
ENDROOT
BRANCH 1 5
ATOM      5  CA  GLU Q 640      33.816  51.513  72.818  1.00 42.54 LIG 0.18  C 
BRANCH 5 6
ATOM      6  CB  GLU Q 640      33.662  50.691  74.100  1.00 42.65 LIG 0.04  C 
BRANCH 6 7
ATOM      7  CG  GLU Q 640      33.758  51.511  75.379  1.00 42.42 LIG 0.12  C 
BRANCH 7 8
ATOM      8  CD  GLU Q 640      35.189  51.867  75.755  1.00 42.56 LIG 0.17  C 
ATOM      9 OE2  GLU Q 640      35.373  52.854  76.506  1.00 42.27 LIG-0.65  OA
ATOM     10 OE1  GLU Q 640      36.128  51.165  75.303  1.00 42.60 LIG-0.65  OA
ENDBRANCH 7 8
ENDBRANCH 6 7
ENDBRANCH 5 6
BRANCH 5 11
ATOM     11  N   GLU Q 640      35.208  51.921  72.624  1.00 42.67 LIG-0.35  N 
ATOM     12  C   GLU Q 639      35.641  52.382  71.452  1.00 42.69 LIG 0.26  C 
ATOM     13 O    GLU Q 639      34.888  52.615  70.504  1.00 42.71 LIG-0.27  OA
ATOM     14 H    GLU Q 640      35.705  51.837  73.320  1.00 42.67 LIG 0.16  HD
BRANCH 12 15
ATOM     15  CA  GLU Q 639      37.147  52.610  71.315  1.00 42.78 LIG 0.40  C 
ATOM     16  N   GLU Q 639      37.546  53.130  69.974  1.00 42.84 LIG 0.61  N 
BRANCH 15 17
ATOM     17  CB  GLU Q 639      37.621  53.552  72.427  1.00 42.78 LIG 0.06  C 
BRANCH 17 18
ATOM     18  CG  GLU Q 639      36.682  54.711  72.710  1.00 43.01 LIG 0.12  C 
BRANCH 18 19
ATOM     19  CD  GLU Q 639      36.663  55.747  71.594  1.00 43.16 LIG 0.17  C 
ATOM     20 OE1  GLU Q 639      37.515  55.676  70.682  1.00 43.27 LIG-0.65  OA
ATOM     21 OE2  GLU Q 639      35.786  56.635  71.630  1.00 43.17 LIG-0.65  OA
ENDBRANCH 18 19
ENDBRANCH 17 18
ENDBRANCH 15 17
ENDBRANCH 12 15
ENDBRANCH 5 11
ENDBRANCH 1 5
BRANCH 3 22
ATOM     22  CA  VAL Q 641      32.475  55.026  73.348  1.00 42.43 LIG 0.18  C 
BRANCH 22 23
ATOM     23  C   VAL Q 641      32.222  55.690  71.981  1.00 42.31 LIG 0.24  C 
ATOM     24 O    VAL Q 641      33.167  56.010  71.255  1.00 42.15 LIG-0.27  OA
ATOM     25  N   ASP Q 642      30.950  55.876  71.630  1.00 42.19 LIG-0.35  N 
ATOM     26 H    ASP Q 642      30.281  55.659  72.125  1.00 42.19 LIG 0.16  HD
BRANCH 25 27
ATOM     27  CA  ASP Q 642      30.579  56.479  70.345  1.00 42.17 LIG 0.17  C 
BRANCH 27 28
ATOM     28  CB  ASP Q 642      29.644  55.555  69.555  1.00 42.21 LIG 0.15  C 
BRANCH 28 29
ATOM     29  CG  ASP Q 642      30.381  54.680  68.552  1.00 42.38 LIG 0.17  C 
ATOM     30 OD1  ASP Q 642      30.843  53.577  68.924  1.00 42.36 LIG-0.65  OA
ATOM     31 OD2  ASP Q 642      30.502  55.106  67.382  1.00 42.41 LIG-0.65  OA
ENDBRANCH 28 29
ENDBRANCH 27 28
BRANCH 27 32
ATOM     32  C   ASP Q 642      29.941  57.863  70.500  1.00 42.05 LIG 0.22  C 
ATOM     33 O    ASP Q 642      30.498  58.869  70.062  1.00 41.78 LIG-0.29  OA
ENDBRANCH 27 32
ENDBRANCH 25 27
ENDBRANCH 22 23
BRANCH 22 34
ATOM     34  CB  VAL Q 641      33.108  55.997  74.388  1.00 42.38 LIG 0.01  C 
ATOM     35  CG2 VAL Q 641      32.410  55.892  75.705  1.00 42.63 LIG 0.01  C 
ATOM     36  CG1 VAL Q 641      33.134  57.443  73.884  1.00 42.36 LIG 0.01  C 
ENDBRANCH 22 34
ENDBRANCH 3 22
TORSDOF 16
ENDMDL
MODEL 27
USER: ADFR SOLUTION from run 175
USER: SCORE 14.719332 LL:  -2.753 LR: -12.249 RR:   0.000 FEB:  -7.476
USER: RMSD 4.582689
USER: SEED 174
USER: STATUS no improvement in best in 6 clusters for 5 generations
USER: GENES 18
USER: genes 0 Translation |==|  0.52965 0.55459 0.54101
USER: genes 1 Rotation |==|  0.72026 0.40533 0.68280 0.89888
USER: genes 2 Torsion [N]-C--CA-[N] |==|  0.10613
USER: genes 3 Torsion [C]-CA--CB-[CG] |==|  0.42395
USER: genes 4 Torsion [CA]-CB--CG-[CD] |==|  0.86308
USER: genes 5 Torsion [CB]-CG--CD-[OE2] |==|  0.22167
USER: genes 6 Torsion [C]-CA--N-[C] |==|  0.14128
USER: genes 7 Torsion [N]-C--CA-[N] |==|  0.54867
USER: genes 8 Torsion [C]-CA--CB-[CG] |==|  0.32418
USER: genes 9 Torsion [CA]-CB--CG-[CD] |==|  0.79770
USER: genes 10 Torsion [CB]-CG--CD-[OE2] |==|  0.17034
USER: genes 11 Torsion [C]-N--CA-[C] |==|  0.57132
USER: genes 12 Torsion [N]-CA--C-[N] |==|  0.42419
USER: genes 13 Torsion [C]-N--CA-[CB] |==|  0.79521
USER: genes 14 Torsion [N]-CA--CB-[CG] |==|  0.81040
USER: genes 15 Torsion [CA]-CB--CG-[OD1] |==|  0.96407
USER: genes 16 Torsion [N]-CA--C-[O] |==|  0.18157
USER: genes 17 Torsion [N]-CA--CB-[CG2] |==|  0.66886
ROOT
ATOM      1  C   GLU Q 640      31.496  57.130  71.993  1.00 42.49 LIG 0.24  C 
ATOM      2 O    GLU Q 640      31.682  58.072  72.760  1.00 42.42 LIG-0.27  OA
ATOM      3  N   VAL Q 641      32.005  55.918  72.189  1.00 42.52 LIG-0.35  N 
ATOM      4 H    VAL Q 641      31.927  55.274  71.625  1.00 42.52 LIG 0.16  HD
ENDROOT
BRANCH 1 5
ATOM      5  CA  GLU Q 640      30.668  57.290  70.722  1.00 42.54 LIG 0.18  C 
BRANCH 5 6
ATOM      6  CB  GLU Q 640      29.819  58.561  70.802  1.00 42.65 LIG 0.04  C 
BRANCH 6 7
ATOM      7  CG  GLU Q 640      29.488  59.173  69.448  1.00 42.42 LIG 0.12  C 
BRANCH 7 8
ATOM      8  CD  GLU Q 640      30.705  59.332  68.549  1.00 42.56 LIG 0.17  C 
ATOM      9 OE2  GLU Q 640      31.120  58.321  67.934  1.00 42.27 LIG-0.65  OA
ATOM     10 OE1  GLU Q 640      31.248  60.461  68.457  1.00 42.60 LIG-0.65  OA
ENDBRANCH 7 8
ENDBRANCH 6 7
ENDBRANCH 5 6
BRANCH 5 11
ATOM     11  N   GLU Q 640      29.838  56.128  70.396  1.00 42.67 LIG-0.35  N 
ATOM     12  C   GLU Q 639      29.027  55.577  71.297  1.00 42.69 LIG 0.26  C 
ATOM     13 O    GLU Q 639      28.823  56.073  72.407  1.00 42.71 LIG-0.27  OA
ATOM     14 H    GLU Q 640      29.923  55.845  69.589  1.00 42.67 LIG 0.16  HD
BRANCH 12 15
ATOM     15  CA  GLU Q 639      28.344  54.268  70.900  1.00 42.78 LIG 0.40  C 
ATOM     16  N   GLU Q 639      27.166  53.933  71.753  1.00 42.84 LIG 0.61  N 
BRANCH 15 17
ATOM     17  CB  GLU Q 639      27.946  54.331  69.421  1.00 42.78 LIG 0.06  C 
BRANCH 17 18
ATOM     18  CG  GLU Q 639      28.641  53.308  68.541  1.00 43.01 LIG 0.12  C 
BRANCH 18 19
ATOM     19  CD  GLU Q 639      30.107  53.633  68.295  1.00 43.16 LIG 0.17  C 
ATOM     20 OE1  GLU Q 639      30.498  53.841  67.126  1.00 43.27 LIG-0.65  OA
ATOM     21 OE2  GLU Q 639      30.872  53.685  69.281  1.00 43.17 LIG-0.65  OA
ENDBRANCH 18 19
ENDBRANCH 17 18
ENDBRANCH 15 17
ENDBRANCH 12 15
ENDBRANCH 5 11
ENDBRANCH 1 5
BRANCH 3 22
ATOM     22  CA  VAL Q 641      32.749  55.567  73.390  1.00 42.43 LIG 0.18  C 
BRANCH 22 23
ATOM     23  C   VAL Q 641      33.730  54.409  73.120  1.00 42.31 LIG 0.24  C 
ATOM     24 O    VAL Q 641      33.508  53.596  72.220  1.00 42.15 LIG-0.27  OA
ATOM     25  N   ASP Q 642      34.817  54.354  73.889  1.00 42.19 LIG-0.35  N 
ATOM     26 H    ASP Q 642      34.986  54.913  74.520  1.00 42.19 LIG 0.16  HD
BRANCH 25 27
ATOM     27  CA  ASP Q 642      35.836  53.312  73.717  1.00 42.17 LIG 0.17  C 
BRANCH 27 28
ATOM     28  CB  ASP Q 642      35.334  51.962  74.242  1.00 42.21 LIG 0.15  C 
BRANCH 28 29
ATOM     29  CG  ASP Q 642      35.171  51.935  75.755  1.00 42.38 LIG 0.17  C 
ATOM     30 OD1  ASP Q 642      35.665  52.858  76.442  1.00 42.36 LIG-0.65  OA
ATOM     31 OD2  ASP Q 642      34.544  50.976  76.258  1.00 42.41 LIG-0.65  OA
ENDBRANCH 28 29
ENDBRANCH 27 28
BRANCH 27 32
ATOM     32  C   ASP Q 642      36.303  53.170  72.266  1.00 42.05 LIG 0.22  C 
ATOM     33 O    ASP Q 642      36.909  54.081  71.703  1.00 41.78 LIG-0.29  OA
ENDBRANCH 27 32
ENDBRANCH 25 27
ENDBRANCH 22 23
BRANCH 22 34
ATOM     34  CB  VAL Q 641      31.760  55.267  74.554  1.00 42.38 LIG 0.01  C 
ATOM     35  CG2 VAL Q 641      31.977  56.212  75.691  1.00 42.63 LIG 0.01  C 
ATOM     36  CG1 VAL Q 641      31.841  53.810  75.017  1.00 42.36 LIG 0.01  C 
ENDBRANCH 22 34
ENDBRANCH 3 22
TORSDOF 16
ENDMDL
MODEL 28
USER: ADFR SOLUTION from run 50
USER: SCORE 15.341248 LL:  -3.225 LR: -12.229 RR:   0.000 FEB:  -7.457
USER: RMSD 4.868266
USER: SEED 49
USER: STATUS searching
USER: GENES 18
USER: genes 0 Translation |==|  0.53637 0.53427 0.53724
USER: genes 1 Rotation |==|  0.35219 0.56627 0.30761 0.93214
USER: genes 2 Torsion [N]-C--CA-[N] |==|  0.86678
USER: genes 3 Torsion [C]-CA--CB-[CG] |==|  0.39814
USER: genes 4 Torsion [CA]-CB--CG-[CD] |==|  0.74705
USER: genes 5 Torsion [CB]-CG--CD-[OE2] |==|  0.69758
USER: genes 6 Torsion [C]-CA--N-[C] |==|  0.83983
USER: genes 7 Torsion [N]-C--CA-[N] |==|  0.32726
USER: genes 8 Torsion [C]-CA--CB-[CG] |==|  0.38720
USER: genes 9 Torsion [CA]-CB--CG-[CD] |==|  0.03844
USER: genes 10 Torsion [CB]-CG--CD-[OE2] |==|  0.15767
USER: genes 11 Torsion [C]-N--CA-[C] |==|  0.83047
USER: genes 12 Torsion [N]-CA--C-[N] |==|  0.36709
USER: genes 13 Torsion [C]-N--CA-[CB] |==|  0.85415
USER: genes 14 Torsion [N]-CA--CB-[CG] |==|  0.72939
USER: genes 15 Torsion [CA]-CB--CG-[OD1] |==|  0.26297
USER: genes 16 Torsion [N]-CA--C-[O] |==|  0.01373
USER: genes 17 Torsion [N]-CA--CB-[CG2] |==|  0.17370
ROOT
ATOM      1  C   GLU Q 640      31.637  56.794  71.925  1.00 42.49 LIG 0.24  C 
ATOM      2 O    GLU Q 640      32.493  56.229  71.249  1.00 42.42 LIG-0.27  OA
ATOM      3  N   VAL Q 641      31.720  56.928  73.244  1.00 42.52 LIG-0.35  N 
ATOM      4 H    VAL Q 641      31.096  57.269  73.727  1.00 42.52 LIG 0.16  HD
ENDROOT
BRANCH 1 5
ATOM      5  CA  GLU Q 640      30.378  57.377  71.290  1.00 42.54 LIG 0.18  C 
BRANCH 5 6
ATOM      6  CB  GLU Q 640      30.498  58.899  71.183  1.00 42.65 LIG 0.04  C 
BRANCH 6 7
ATOM      7  CG  GLU Q 640      29.877  59.484  69.922  1.00 42.42 LIG 0.12  C 
BRANCH 7 8
ATOM      8  CD  GLU Q 640      30.861  59.594  68.766  1.00 42.56 LIG 0.17  C 
ATOM      9 OE2  GLU Q 640      31.248  60.738  68.429  1.00 42.27 LIG-0.65  OA
ATOM     10 OE1  GLU Q 640      31.248  58.544  68.196  1.00 42.60 LIG-0.65  OA
ENDBRANCH 7 8
ENDBRANCH 6 7
ENDBRANCH 5 6
BRANCH 5 11
ATOM     11  N   GLU Q 640      29.135  56.997  71.964  1.00 42.67 LIG-0.35  N 
ATOM     12  C   GLU Q 639      28.791  55.721  72.121  1.00 42.69 LIG 0.26  C 
ATOM     13 O    GLU Q 639      29.539  54.784  71.833  1.00 42.71 LIG-0.27  OA
ATOM     14 H    GLU Q 640      28.663  57.660  72.241  1.00 42.67 LIG 0.16  HD
BRANCH 12 15
ATOM     15  CA  GLU Q 639      27.394  55.448  72.681  1.00 42.78 LIG 0.40  C 
ATOM     16  N   GLU Q 639      26.516  54.695  71.737  1.00 42.84 LIG 0.61  N 
BRANCH 15 17
ATOM     17  CB  GLU Q 639      27.517  54.707  74.016  1.00 42.78 LIG 0.06  C 
BRANCH 17 18
ATOM     18  CG  GLU Q 639      26.541  55.172  75.083  1.00 43.01 LIG 0.12  C 
BRANCH 18 19
ATOM     19  CD  GLU Q 639      25.420  56.038  74.526  1.00 43.16 LIG 0.17  C 
ATOM     20 OE1  GLU Q 639      25.250  57.187  74.989  1.00 43.27 LIG-0.65  OA
ATOM     21 OE2  GLU Q 639      24.707  55.565  73.616  1.00 43.17 LIG-0.65  OA
ENDBRANCH 18 19
ENDBRANCH 17 18
ENDBRANCH 15 17
ENDBRANCH 12 15
ENDBRANCH 5 11
ENDBRANCH 1 5
BRANCH 3 22
ATOM     22  CA  VAL Q 641      32.890  56.506  74.001  1.00 42.43 LIG 0.18  C 
BRANCH 22 23
ATOM     23  C   VAL Q 641      33.135  54.992  73.850  1.00 42.31 LIG 0.24  C 
ATOM     24 O    VAL Q 641      32.206  54.190  73.975  1.00 42.15 LIG-0.27  OA
ATOM     25  N   ASP Q 642      34.380  54.612  73.564  1.00 42.19 LIG-0.35  N 
ATOM     26 H    ASP Q 642      35.038  55.158  73.474  1.00 42.19 LIG 0.16  HD
BRANCH 25 27
ATOM     27  CA  ASP Q 642      34.737  53.201  73.375  1.00 42.17 LIG 0.17  C 
BRANCH 27 28
ATOM     28  CB  ASP Q 642      34.270  52.353  74.565  1.00 42.21 LIG 0.15  C 
BRANCH 28 29
ATOM     29  CG  ASP Q 642      35.373  52.099  75.583  1.00 42.38 LIG 0.17  C 
ATOM     30 OD1  ASP Q 642      35.477  52.854  76.576  1.00 42.36 LIG-0.65  OA
ATOM     31 OD2  ASP Q 642      36.144  51.135  75.380  1.00 42.41 LIG-0.65  OA
ENDBRANCH 28 29
ENDBRANCH 27 28
BRANCH 27 32
ATOM     32  C   ASP Q 642      34.189  52.619  72.069  1.00 42.05 LIG 0.22  C 
ATOM     33 O    ASP Q 642      33.602  53.330  71.255  1.00 41.78 LIG-0.29  OA
ENDBRANCH 27 32
ENDBRANCH 25 27
ENDBRANCH 22 23
BRANCH 22 34
ATOM     34  CB  VAL Q 641      32.748  56.953  75.485  1.00 42.38 LIG 0.01  C 
ATOM     35  CG2 VAL Q 641      31.567  56.300  76.126  1.00 42.63 LIG 0.01  C 
ATOM     36  CG1 VAL Q 641      32.685  58.477  75.624  1.00 42.36 LIG 0.01  C 
ENDBRANCH 22 34
ENDBRANCH 3 22
TORSDOF 16
ENDMDL
MODEL 29
USER: ADFR SOLUTION from run 23
USER: SCORE 13.617809 LL:  -2.311 LR: -12.219 RR:   0.000 FEB:  -7.446
USER: RMSD 6.327374
USER: SEED 22
USER: STATUS no improvement in best in 6 clusters for 5 generations
USER: GENES 18
USER: genes 0 Translation |==|  0.68921 0.43829 0.53206
USER: genes 1 Rotation |==|  0.72842 0.73453 0.53249 0.87652
USER: genes 2 Torsion [N]-C--CA-[N] |==|  0.75853
USER: genes 3 Torsion [C]-CA--CB-[CG] |==|  0.19894
USER: genes 4 Torsion [CA]-CB--CG-[CD] |==|  0.58588
USER: genes 5 Torsion [CB]-CG--CD-[OE2] |==|  0.55158
USER: genes 6 Torsion [C]-CA--N-[C] |==|  0.65229
USER: genes 7 Torsion [N]-C--CA-[N] |==|  0.23714
USER: genes 8 Torsion [C]-CA--CB-[CG] |==|  0.32217
USER: genes 9 Torsion [CA]-CB--CG-[CD] |==|  0.90936
USER: genes 10 Torsion [CB]-CG--CD-[OE2] |==|  0.20122
USER: genes 11 Torsion [C]-N--CA-[C] |==|  0.58573
USER: genes 12 Torsion [N]-CA--C-[N] |==|  0.38349
USER: genes 13 Torsion [C]-N--CA-[CB] |==|  0.12187
USER: genes 14 Torsion [N]-CA--CB-[CG] |==|  0.15500
USER: genes 15 Torsion [CA]-CB--CG-[OD1] |==|  0.60280
USER: genes 16 Torsion [N]-CA--C-[O] |==|  0.05506
USER: genes 17 Torsion [N]-CA--CB-[CG2] |==|  0.14853
ROOT
ATOM      1  C   GLU Q 640      34.846  55.211  71.832  1.00 42.49 LIG 0.24  C 
ATOM      2 O    GLU Q 640      35.312  56.324  71.598  1.00 42.42 LIG-0.27  OA
ATOM      3  N   VAL Q 641      35.462  54.079  71.508  1.00 42.52 LIG-0.35  N 
ATOM      4 H    VAL Q 641      35.113  53.301  71.615  1.00 42.52 LIG 0.16  HD
ENDROOT
BRANCH 1 5
ATOM      5  CA  GLU Q 640      33.489  55.042  72.506  1.00 42.54 LIG 0.18  C 
BRANCH 5 6
ATOM      6  CB  GLU Q 640      33.523  53.856  73.473  1.00 42.65 LIG 0.04  C 
BRANCH 6 7
ATOM      7  CG  GLU Q 640      34.340  54.106  74.733  1.00 42.42 LIG 0.12  C 
BRANCH 7 8
ATOM      8  CD  GLU Q 640      34.990  52.845  75.284  1.00 42.56 LIG 0.17  C 
ATOM      9 OE2  GLU Q 640      35.377  52.855  76.478  1.00 42.27 LIG-0.65  OA
ATOM     10 OE1  GLU Q 640      35.115  51.847  74.531  1.00 42.60 LIG-0.65  OA
ENDBRANCH 7 8
ENDBRANCH 6 7
ENDBRANCH 5 6
BRANCH 5 11
ATOM     11  N   GLU Q 640      32.366  54.923  71.573  1.00 42.67 LIG-0.35  N 
ATOM     12  C   GLU Q 639      31.312  55.732  71.646  1.00 42.69 LIG 0.26  C 
ATOM     13 O    GLU Q 639      31.263  56.703  72.405  1.00 42.71 LIG-0.27  OA
ATOM     14 H    GLU Q 640      32.452  54.297  70.990  1.00 42.67 LIG 0.16  HD
BRANCH 12 15
ATOM     15  CA  GLU Q 639      30.127  55.404  70.737  1.00 42.78 LIG 0.40  C 
ATOM     16  N   GLU Q 639      29.188  54.404  71.327  1.00 42.84 LIG 0.61  N 
BRANCH 15 17
ATOM     17  CB  GLU Q 639      29.388  56.698  70.378  1.00 42.78 LIG 0.06  C 
BRANCH 17 18
ATOM     18  CG  GLU Q 639      29.419  57.048  68.901  1.00 43.01 LIG 0.12  C 
BRANCH 18 19
ATOM     19  CD  GLU Q 639      30.703  56.607  68.212  1.00 43.16 LIG 0.17  C 
ATOM     20 OE1  GLU Q 639      31.544  57.471  67.881  1.00 43.27 LIG-0.65  OA
ATOM     21 OE2  GLU Q 639      30.871  55.388  68.005  1.00 43.17 LIG-0.65  OA
ENDBRANCH 18 19
ENDBRANCH 17 18
ENDBRANCH 15 17
ENDBRANCH 12 15
ENDBRANCH 5 11
ENDBRANCH 1 5
BRANCH 3 22
ATOM     22  CA  VAL Q 641      36.800  54.054  70.935  1.00 42.43 LIG 0.18  C 
BRANCH 22 23
ATOM     23  C   VAL Q 641      36.981  52.849  69.990  1.00 42.31 LIG 0.24  C 
ATOM     24 O    VAL Q 641      36.522  51.744  70.289  1.00 42.15 LIG-0.27  OA
ATOM     25  N   ASP Q 642      37.631  53.074  68.849  1.00 42.19 LIG-0.35  N 
ATOM     26 H    ASP Q 642      37.956  53.838  68.627  1.00 42.19 LIG 0.16  HD
BRANCH 25 27
ATOM     27  CA  ASP Q 642      37.848  52.015  67.858  1.00 42.17 LIG 0.17  C 
BRANCH 27 28
ATOM     28  CB  ASP Q 642      36.575  51.185  67.653  1.00 42.21 LIG 0.15  C 
BRANCH 28 29
ATOM     29  CG  ASP Q 642      35.371  52.029  67.260  1.00 42.38 LIG 0.17  C 
ATOM     30 OD1  ASP Q 642      34.240  51.729  67.705  1.00 42.36 LIG-0.65  OA
ATOM     31 OD2  ASP Q 642      35.563  52.998  66.492  1.00 42.41 LIG-0.65  OA
ENDBRANCH 28 29
ENDBRANCH 27 28
BRANCH 27 32
ATOM     32  C   ASP Q 642      38.346  52.551  66.513  1.00 42.05 LIG 0.22  C 
ATOM     33 O    ASP Q 642      38.866  53.663  66.427  1.00 41.78 LIG-0.29  OA
ENDBRANCH 27 32
ENDBRANCH 25 27
ENDBRANCH 22 23
BRANCH 22 34
ATOM     34  CB  VAL Q 641      37.862  54.098  72.073  1.00 42.38 LIG 0.01  C 
ATOM     35  CG2 VAL Q 641      37.614  53.015  73.072  1.00 42.63 LIG 0.01  C 
ATOM     36  CG1 VAL Q 641      37.930  55.472  72.745  1.00 42.36 LIG 0.01  C 
ENDBRANCH 22 34
ENDBRANCH 3 22
TORSDOF 16
ENDMDL
MODEL 30
USER: ADFR SOLUTION from run 10
USER: SCORE 15.149505 LL:  -3.198 LR: -12.197 RR:   0.000 FEB:  -7.424
USER: RMSD 8.191956
USER: SEED 690303
USER: STATUS no improvement in best in 4 clusters for 5 generations
USER: GENES 18
USER: genes 0 Translation |==|  0.62580 0.29725 0.58735
USER: genes 1 Rotation |==|  0.33894 0.38252 0.92078 0.68221
USER: genes 2 Torsion [N]-C--CA-[N] |==|  0.42781
USER: genes 3 Torsion [C]-CA--CB-[CG] |==|  0.17043
USER: genes 4 Torsion [CA]-CB--CG-[CD] |==|  0.16493
USER: genes 5 Torsion [CB]-CG--CD-[OE2] |==|  0.58827
USER: genes 6 Torsion [C]-CA--N-[C] |==|  0.58554
USER: genes 7 Torsion [N]-C--CA-[N] |==|  0.81354
USER: genes 8 Torsion [C]-CA--CB-[CG] |==|  0.61370
USER: genes 9 Torsion [CA]-CB--CG-[CD] |==|  0.22078
USER: genes 10 Torsion [CB]-CG--CD-[OE2] |==|  0.93790
USER: genes 11 Torsion [C]-N--CA-[C] |==|  0.78518
USER: genes 12 Torsion [N]-CA--C-[N] |==|  0.90953
USER: genes 13 Torsion [C]-N--CA-[CB] |==|  0.81051
USER: genes 14 Torsion [N]-CA--CB-[CG] |==|  0.86767
USER: genes 15 Torsion [CA]-CB--CG-[OD1] |==|  0.77871
USER: genes 16 Torsion [N]-CA--C-[O] |==|  0.37473
USER: genes 17 Torsion [N]-CA--CB-[CG2] |==|  0.79854
ROOT
ATOM      1  C   GLU Q 640      33.515  52.884  72.827  1.00 42.49 LIG 0.24  C 
ATOM      2 O    GLU Q 640      32.973  53.318  71.813  1.00 42.42 LIG-0.27  OA
ATOM      3  N   VAL Q 641      33.048  53.096  74.053  1.00 42.52 LIG-0.35  N 
ATOM      4 H    VAL Q 641      33.456  52.845  74.767  1.00 42.52 LIG 0.16  HD
ENDROOT
BRANCH 1 5
ATOM      5  CA  GLU Q 640      34.803  52.070  72.754  1.00 42.54 LIG 0.18  C 
BRANCH 5 6
ATOM      6  CB  GLU Q 640      36.009  52.964  73.049  1.00 42.65 LIG 0.04  C 
BRANCH 6 7
ATOM      7  CG  GLU Q 640      35.994  53.588  74.439  1.00 42.42 LIG 0.12  C 
BRANCH 7 8
ATOM      8  CD  GLU Q 640      35.969  52.556  75.557  1.00 42.56 LIG 0.17  C 
ATOM      9 OE2  GLU Q 640      35.373  52.854  76.620  1.00 42.27 LIG-0.65  OA
ATOM     10 OE1  GLU Q 640      36.541  51.452  75.378  1.00 42.60 LIG-0.65  OA
ENDBRANCH 7 8
ENDBRANCH 6 7
ENDBRANCH 5 6
BRANCH 5 11
ATOM     11  N   GLU Q 640      34.985  51.346  71.494  1.00 42.67 LIG-0.35  N 
ATOM     12  C   GLU Q 639      35.642  50.190  71.444  1.00 42.69 LIG 0.26  C 
ATOM     13 O    GLU Q 639      36.024  49.592  72.452  1.00 42.71 LIG-0.27  OA
ATOM     14 H    GLU Q 640      34.636  51.731  70.809  1.00 42.67 LIG 0.16  HD
BRANCH 12 15
ATOM     15  CA  GLU Q 639      35.921  49.615  70.055  1.00 42.78 LIG 0.40  C 
ATOM     16  N   GLU Q 639      34.686  49.185  69.334  1.00 42.84 LIG 0.61  N 
BRANCH 15 17
ATOM     17  CB  GLU Q 639      36.704  50.640  69.229  1.00 42.78 LIG 0.06  C 
BRANCH 17 18
ATOM     18  CG  GLU Q 639      36.260  50.749  67.781  1.00 43.01 LIG 0.12  C 
BRANCH 18 19
ATOM     19  CD  GLU Q 639      35.003  51.588  67.606  1.00 43.16 LIG 0.17  C 
ATOM     20 OE1  GLU Q 639      34.764  52.104  66.492  1.00 43.27 LIG-0.65  OA
ATOM     21 OE2  GLU Q 639      34.247  51.729  68.590  1.00 43.17 LIG-0.65  OA
ENDBRANCH 18 19
ENDBRANCH 17 18
ENDBRANCH 15 17
ENDBRANCH 12 15
ENDBRANCH 5 11
ENDBRANCH 1 5
BRANCH 3 22
ATOM     22  CA  VAL Q 641      31.787  53.780  74.301  1.00 42.43 LIG 0.18  C 
BRANCH 22 23
ATOM     23  C   VAL Q 641      31.936  55.305  74.131  1.00 42.31 LIG 0.24  C 
ATOM     24 O    VAL Q 641      30.989  55.986  73.727  1.00 42.15 LIG-0.27  OA
ATOM     25  N   ASP Q 642      33.115  55.832  74.458  1.00 42.19 LIG-0.35  N 
ATOM     26 H    ASP Q 642      33.783  55.372  74.741  1.00 42.19 LIG 0.16  HD
BRANCH 25 27
ATOM     27  CA  ASP Q 642      33.374  57.273  74.360  1.00 42.17 LIG 0.17  C 
BRANCH 27 28
ATOM     28  CB  ASP Q 642      33.394  57.729  72.896  1.00 42.21 LIG 0.15  C 
BRANCH 28 29
ATOM     29  CG  ASP Q 642      34.245  56.835  72.006  1.00 42.38 LIG 0.17  C 
ATOM     30 OD1  ASP Q 642      35.490  56.976  72.005  1.00 42.36 LIG-0.65  OA
ATOM     31 OD2  ASP Q 642      33.659  55.986  71.298  1.00 42.41 LIG-0.65  OA
ENDBRANCH 28 29
ENDBRANCH 27 28
BRANCH 27 32
ATOM     32  C   ASP Q 642      32.372  58.113  75.156  1.00 42.05 LIG 0.22  C 
ATOM     33 O    ASP Q 642      32.749  59.043  75.868  1.00 41.78 LIG-0.29  OA
ENDBRANCH 27 32
ENDBRANCH 25 27
ENDBRANCH 22 23
BRANCH 22 34
ATOM     34  CB  VAL Q 641      31.234  53.376  75.699  1.00 42.38 LIG 0.01  C 
ATOM     35  CG2 VAL Q 641      30.718  51.974  75.681  1.00 42.63 LIG 0.01  C 
ATOM     36  CG1 VAL Q 641      30.169  54.355  76.203  1.00 42.36 LIG 0.01  C 
ENDBRANCH 22 34
ENDBRANCH 3 22
TORSDOF 16
ENDMDL
MODEL 31
USER: ADFR SOLUTION from run 10
USER: SCORE 14.862122 LL:  -2.990 LR: -12.191 RR:   0.000 FEB:  -7.418
USER: RMSD 9.050501
USER: SEED 690303
USER: STATUS no improvement in best in 4 clusters for 5 generations
USER: GENES 18
USER: genes 0 Translation |==|  0.48439 0.52169 0.52883
USER: genes 1 Rotation |==|  0.84337 0.60994 0.15386 0.51417
USER: genes 2 Torsion [N]-C--CA-[N] |==|  0.32134
USER: genes 3 Torsion [C]-CA--CB-[CG] |==|  0.64800
USER: genes 4 Torsion [CA]-CB--CG-[CD] |==|  0.22591
USER: genes 5 Torsion [CB]-CG--CD-[OE2] |==|  0.88561
USER: genes 6 Torsion [C]-CA--N-[C] |==|  0.61269
USER: genes 7 Torsion [N]-C--CA-[N] |==|  0.74373
USER: genes 8 Torsion [C]-CA--CB-[CG] |==|  0.42825
USER: genes 9 Torsion [CA]-CB--CG-[CD] |==|  0.95971
USER: genes 10 Torsion [CB]-CG--CD-[OE2] |==|  0.74044
USER: genes 11 Torsion [C]-N--CA-[C] |==|  0.77778
USER: genes 12 Torsion [N]-CA--C-[N] |==|  0.98483
USER: genes 13 Torsion [C]-N--CA-[CB] |==|  0.86426
USER: genes 14 Torsion [N]-CA--CB-[CG] |==|  0.77569
USER: genes 15 Torsion [CA]-CB--CG-[OD1] |==|  0.26247
USER: genes 16 Torsion [N]-CA--C-[O] |==|  0.02685
USER: genes 17 Torsion [N]-CA--CB-[CG2] |==|  0.25868
ROOT
ATOM      1  C   GLU Q 640      30.545  56.587  71.774  1.00 42.49 LIG 0.24  C 
ATOM      2 O    GLU Q 640      31.053  56.419  70.667  1.00 42.42 LIG-0.27  OA
ATOM      3  N   VAL Q 641      29.248  56.806  71.956  1.00 42.52 LIG-0.35  N 
ATOM      4 H    VAL Q 641      28.899  56.983  72.722  1.00 42.52 LIG 0.16  HD
ENDROOT
BRANCH 1 5
ATOM      5  CA  GLU Q 640      31.388  56.577  73.045  1.00 42.54 LIG 0.18  C 
BRANCH 5 6
ATOM      6  CB  GLU Q 640      32.438  57.688  72.990  1.00 42.65 LIG 0.04  C 
BRANCH 6 7
ATOM      7  CG  GLU Q 640      33.863  57.209  73.236  1.00 42.42 LIG 0.12  C 
BRANCH 7 8
ATOM      8  CD  GLU Q 640      34.512  56.605  71.999  1.00 42.56 LIG 0.17  C 
ATOM      9 OE2  GLU Q 640      33.813  55.857  71.273  1.00 42.27 LIG-0.65  OA
ATOM     10 OE1  GLU Q 640      35.713  56.874  71.751  1.00 42.60 LIG-0.65  OA
ENDBRANCH 7 8
ENDBRANCH 6 7
ENDBRANCH 5 6
BRANCH 5 11
ATOM     11  N   GLU Q 640      32.009  55.285  73.343  1.00 42.67 LIG-0.35  N 
ATOM     12  C   GLU Q 639      32.068  54.811  74.586  1.00 42.69 LIG 0.26  C 
ATOM     13 O    GLU Q 639      31.501  55.353  75.537  1.00 42.71 LIG-0.27  OA
ATOM     14 H    GLU Q 640      32.323  54.874  72.657  1.00 42.67 LIG 0.16  HD
BRANCH 12 15
ATOM     15  CA  GLU Q 639      32.891  53.541  74.801  1.00 42.78 LIG 0.40  C 
ATOM     16  N   GLU Q 639      32.084  52.289  74.699  1.00 42.84 LIG 0.61  N 
BRANCH 15 17
ATOM     17  CB  GLU Q 639      34.059  53.517  73.809  1.00 42.78 LIG 0.06  C 
BRANCH 17 18
ATOM     18  CG  GLU Q 639      35.258  52.709  74.271  1.00 43.01 LIG 0.12  C 
BRANCH 18 19
ATOM     19  CD  GLU Q 639      35.213  52.374  75.755  1.00 43.16 LIG 0.17  C 
ATOM     20 OE1  GLU Q 639      34.606  51.347  76.130  1.00 43.27 LIG-0.65  OA
ATOM     21 OE2  GLU Q 639      35.793  53.143  76.550  1.00 43.17 LIG-0.65  OA
ENDBRANCH 18 19
ENDBRANCH 17 18
ENDBRANCH 15 17
ENDBRANCH 12 15
ENDBRANCH 5 11
ENDBRANCH 1 5
BRANCH 3 22
ATOM     22  CA  VAL Q 641      28.287  56.766  70.863  1.00 42.43 LIG 0.18  C 
BRANCH 22 23
ATOM     23  C   VAL Q 641      28.304  58.078  70.055  1.00 42.31 LIG 0.24  C 
ATOM     24 O    VAL Q 641      27.615  58.198  69.039  1.00 42.15 LIG-0.27  OA
ATOM     25  N   ASP Q 642      29.075  59.060  70.522  1.00 42.19 LIG-0.35  N 
ATOM     26 H    ASP Q 642      29.560  58.992  71.228  1.00 42.19 LIG 0.16  HD
BRANCH 25 27
ATOM     27  CA  ASP Q 642      29.160  60.364  69.855  1.00 42.17 LIG 0.17  C 
BRANCH 27 28
ATOM     28  CB  ASP Q 642      29.406  60.195  68.350  1.00 42.21 LIG 0.15  C 
BRANCH 28 29
ATOM     29  CG  ASP Q 642      30.865  59.929  68.011  1.00 42.38 LIG 0.17  C 
ATOM     30 OD1  ASP Q 642      31.259  58.748  67.884  1.00 42.36 LIG-0.65  OA
ATOM     31 OD2  ASP Q 642      31.623  60.916  67.877  1.00 42.41 LIG-0.65  OA
ENDBRANCH 28 29
ENDBRANCH 27 28
BRANCH 27 32
ATOM     32  C   ASP Q 642      27.923  61.234  70.090  1.00 42.05 LIG 0.22  C 
ATOM     33 O    ASP Q 642      27.067  60.910  70.912  1.00 41.78 LIG-0.29  OA
ENDBRANCH 27 32
ENDBRANCH 25 27
ENDBRANCH 22 23
BRANCH 22 34
ATOM     34  CB  VAL Q 641      26.875  56.410  71.414  1.00 42.38 LIG 0.01  C 
ATOM     35  CG2 VAL Q 641      26.097  57.649  71.718  1.00 42.63 LIG 0.01  C 
ATOM     36  CG1 VAL Q 641      26.948  55.486  72.633  1.00 42.36 LIG 0.01  C 
ENDBRANCH 22 34
ENDBRANCH 3 22
TORSDOF 16
ENDMDL
MODEL 32
USER: ADFR SOLUTION from run 13
USER: SCORE 14.618344 LL:  -2.611 LR: -12.141 RR:   0.000 FEB:  -7.368
USER: RMSD 9.391902
USER: SEED 934377
USER: STATUS no improvement in best in 8 clusters for 5 generations
USER: GENES 18
USER: genes 0 Translation |==|  0.64607 0.35398 0.62655
USER: genes 1 Rotation |==|  0.34040 0.60794 0.94598 0.61822
USER: genes 2 Torsion [N]-C--CA-[N] |==|  0.39306
USER: genes 3 Torsion [C]-CA--CB-[CG] |==|  0.99147
USER: genes 4 Torsion [CA]-CB--CG-[CD] |==|  0.35005
USER: genes 5 Torsion [CB]-CG--CD-[OE2] |==|  0.64605
USER: genes 6 Torsion [C]-CA--N-[C] |==|  0.71740
USER: genes 7 Torsion [N]-C--CA-[N] |==|  0.36879
USER: genes 8 Torsion [C]-CA--CB-[CG] |==|  0.91084
USER: genes 9 Torsion [CA]-CB--CG-[CD] |==|  0.79345
USER: genes 10 Torsion [CB]-CG--CD-[OE2] |==|  0.57497
USER: genes 11 Torsion [C]-N--CA-[C] |==|  0.81354
USER: genes 12 Torsion [N]-CA--C-[N] |==|  0.42013
USER: genes 13 Torsion [C]-N--CA-[CB] |==|  0.31537
USER: genes 14 Torsion [N]-CA--CB-[CG] |==|  0.63966
USER: genes 15 Torsion [CA]-CB--CG-[OD1] |==|  0.40879
USER: genes 16 Torsion [N]-CA--C-[O] |==|  0.29116
USER: genes 17 Torsion [N]-CA--CB-[CG2] |==|  0.68888
ROOT
ATOM      1  C   GLU Q 640      33.941  53.820  73.533  1.00 42.49 LIG 0.24  C 
ATOM      2 O    GLU Q 640      33.090  53.410  72.747  1.00 42.42 LIG-0.27  OA
ATOM      3  N   VAL Q 641      33.827  54.963  74.200  1.00 42.52 LIG-0.35  N 
ATOM      4 H    VAL Q 641      34.446  55.282  74.705  1.00 42.52 LIG 0.16  HD
ENDROOT
BRANCH 1 5
ATOM      5  CA  GLU Q 640      35.227  53.041  73.790  1.00 42.54 LIG 0.18  C 
BRANCH 5 6
ATOM      6  CB  GLU Q 640      36.286  53.415  72.750  1.00 42.65 LIG 0.04  C 
BRANCH 6 7
ATOM      7  CG  GLU Q 640      35.796  54.391  71.688  1.00 42.42 LIG 0.12  C 
BRANCH 7 8
ATOM      8  CD  GLU Q 640      36.675  55.627  71.562  1.00 42.56 LIG 0.17  C 
ATOM      9 OE2  GLU Q 640      36.123  56.751  71.630  1.00 42.27 LIG-0.65  OA
ATOM     10 OE1  GLU Q 640      37.911  55.479  71.395  1.00 42.60 LIG-0.65  OA
ENDBRANCH 7 8
ENDBRANCH 6 7
ENDBRANCH 5 6
BRANCH 5 11
ATOM     11  N   GLU Q 640      35.047  51.590  73.854  1.00 42.67 LIG-0.35  N 
ATOM     12  C   GLU Q 639      35.012  50.944  75.018  1.00 42.69 LIG 0.26  C 
ATOM     13 O    GLU Q 639      34.998  51.523  76.106  1.00 42.71 LIG-0.27  OA
ATOM     14 H    GLU Q 640      34.969  51.206  73.089  1.00 42.67 LIG 0.16  HD
BRANCH 12 15
ATOM     15  CA  GLU Q 639      34.996  49.416  74.958  1.00 42.78 LIG 0.40  C 
ATOM     16  N   GLU Q 639      35.973  48.777  75.888  1.00 42.84 LIG 0.61  N 
BRANCH 15 17
ATOM     17  CB  GLU Q 639      33.575  48.911  75.230  1.00 42.78 LIG 0.06  C 
BRANCH 17 18
ATOM     18  CG  GLU Q 639      32.773  49.780  76.183  1.00 43.01 LIG 0.12  C 
BRANCH 18 19
ATOM     19  CD  GLU Q 639      33.211  49.632  77.634  1.00 43.16 LIG 0.17  C 
ATOM     20 OE1  GLU Q 639      34.390  49.300  77.884  1.00 43.27 LIG-0.65  OA
ATOM     21 OE2  GLU Q 639      32.369  49.854  78.528  1.00 43.17 LIG-0.65  OA
ENDBRANCH 18 19
ENDBRANCH 17 18
ENDBRANCH 15 17
ENDBRANCH 12 15
ENDBRANCH 5 11
ENDBRANCH 1 5
BRANCH 3 22
ATOM     22  CA  VAL Q 641      32.630  55.789  74.139  1.00 42.43 LIG 0.18  C 
BRANCH 22 23
ATOM     23  C   VAL Q 641      32.439  56.392  72.733  1.00 42.31 LIG 0.24  C 
ATOM     24 O    VAL Q 641      33.412  56.604  72.005  1.00 42.15 LIG-0.27  OA
ATOM     25  N   ASP Q 642      31.187  56.645  72.355  1.00 42.19 LIG-0.35  N 
ATOM     26 H    ASP Q 642      30.499  56.503  72.851  1.00 42.19 LIG 0.16  HD
BRANCH 25 27
ATOM     27  CA  ASP Q 642      30.873  57.200  71.033  1.00 42.17 LIG 0.17  C 
BRANCH 27 28
ATOM     28  CB  ASP Q 642      30.100  56.185  70.182  1.00 42.21 LIG 0.15  C 
BRANCH 28 29
ATOM     29  CG  ASP Q 642      30.697  55.994  68.795  1.00 42.38 LIG 0.17  C 
ATOM     30 OD1  ASP Q 642      30.625  54.871  68.246  1.00 42.36 LIG-0.65  OA
ATOM     31 OD2  ASP Q 642      31.248  56.979  68.255  1.00 42.41 LIG-0.65  OA
ENDBRANCH 28 29
ENDBRANCH 27 28
BRANCH 27 32
ATOM     32  C   ASP Q 642      30.098  58.518  71.110  1.00 42.05 LIG 0.22  C 
ATOM     33 O    ASP Q 642      30.652  59.593  70.881  1.00 41.78 LIG-0.29  OA
ENDBRANCH 27 32
ENDBRANCH 25 27
ENDBRANCH 22 23
BRANCH 22 34
ATOM     34  CB  VAL Q 641      32.674  56.866  75.261  1.00 42.38 LIG 0.01  C 
ATOM     35  CG2 VAL Q 641      31.623  56.604  76.290  1.00 42.63 LIG 0.01  C 
ATOM     36  CG1 VAL Q 641      32.562  58.287  74.701  1.00 42.36 LIG 0.01  C 
ENDBRANCH 22 34
ENDBRANCH 3 22
TORSDOF 16
ENDMDL
MODEL 33
USER: ADFR SOLUTION from run 141
USER: SCORE 14.786532 LL:  -3.044 LR: -12.113 RR:   0.000 FEB:  -7.340
USER: RMSD 3.190020
USER: SEED 140
USER: STATUS no improvement in best in 7 clusters for 5 generations
USER: GENES 18
USER: genes 0 Translation |==|  0.48164 0.44257 0.60041
USER: genes 1 Rotation |==|  0.86400 0.54816 0.83939 0.50207
USER: genes 2 Torsion [N]-C--CA-[N] |==|  0.94577
USER: genes 3 Torsion [C]-CA--CB-[CG] |==|  0.54520
USER: genes 4 Torsion [CA]-CB--CG-[CD] |==|  0.26241
USER: genes 5 Torsion [CB]-CG--CD-[OE2] |==|  0.26693
USER: genes 6 Torsion [C]-CA--N-[C] |==|  0.69841
USER: genes 7 Torsion [N]-C--CA-[N] |==|  0.29463
USER: genes 8 Torsion [C]-CA--CB-[CG] |==|  0.27571
USER: genes 9 Torsion [CA]-CB--CG-[CD] |==|  0.15194
USER: genes 10 Torsion [CB]-CG--CD-[OE2] |==|  0.85598
USER: genes 11 Torsion [C]-N--CA-[C] |==|  0.16672
USER: genes 12 Torsion [N]-CA--C-[N] |==|  0.06484
USER: genes 13 Torsion [C]-N--CA-[CB] |==|  0.84779
USER: genes 14 Torsion [N]-CA--CB-[CG] |==|  0.36013
USER: genes 15 Torsion [CA]-CB--CG-[OD1] |==|  0.76554
USER: genes 16 Torsion [N]-CA--C-[O] |==|  0.00152
USER: genes 17 Torsion [N]-CA--CB-[CG2] |==|  0.62047
ROOT
ATOM      1  C   GLU Q 640      30.487  55.281  73.062  1.00 42.49 LIG 0.24  C 
ATOM      2 O    GLU Q 640      30.259  54.773  74.158  1.00 42.42 LIG-0.27  OA
ATOM      3  N   VAL Q 641      31.514  56.092  72.834  1.00 42.52 LIG-0.35  N 
ATOM      4 H    VAL Q 641      31.643  56.497  72.085  1.00 42.52 LIG 0.16  HD
ENDROOT
BRANCH 1 5
ATOM      5  CA  GLU Q 640      29.577  55.031  71.864  1.00 42.54 LIG 0.18  C 
BRANCH 5 6
ATOM      6  CB  GLU Q 640      29.809  53.624  71.310  1.00 42.65 LIG 0.04  C 
BRANCH 6 7
ATOM      7  CG  GLU Q 640      29.255  53.409  69.908  1.00 42.42 LIG 0.12  C 
BRANCH 7 8
ATOM      8  CD  GLU Q 640      30.290  53.637  68.815  1.00 42.56 LIG 0.17  C 
ATOM      9 OE2  GLU Q 640      30.896  52.638  68.360  1.00 42.27 LIG-0.65  OA
ATOM     10 OE1  GLU Q 640      30.498  54.808  68.411  1.00 42.60 LIG-0.65  OA
ENDBRANCH 7 8
ENDBRANCH 6 7
ENDBRANCH 5 6
BRANCH 5 11
ATOM     11  N   GLU Q 640      29.689  56.036  70.805  1.00 42.67 LIG-0.35  N 
ATOM     12  C   GLU Q 639      28.719  56.918  70.576  1.00 42.69 LIG 0.26  C 
ATOM     13 O    GLU Q 639      27.733  57.034  71.306  1.00 42.71 LIG-0.27  OA
ATOM     14 H    GLU Q 640      30.423  56.001  70.358  1.00 42.67 LIG 0.16  HD
BRANCH 12 15
ATOM     15  CA  GLU Q 639      28.869  57.801  69.337  1.00 42.78 LIG 0.40  C 
ATOM     16  N   GLU Q 639      27.953  57.417  68.222  1.00 42.84 LIG 0.61  N 
BRANCH 15 17
ATOM     17  CB  GLU Q 639      28.662  59.267  69.730  1.00 42.78 LIG 0.06  C 
BRANCH 17 18
ATOM     18  CG  GLU Q 639      29.948  60.050  69.928  1.00 43.01 LIG 0.12  C 
BRANCH 18 19
ATOM     19  CD  GLU Q 639      30.873  59.990  68.721  1.00 43.16 LIG 0.17  C 
ATOM     20 OE1  GLU Q 639      31.316  61.055  68.239  1.00 43.27 LIG-0.65  OA
ATOM     21 OE2  GLU Q 639      31.160  58.868  68.255  1.00 43.17 LIG-0.65  OA
ENDBRANCH 18 19
ENDBRANCH 17 18
ENDBRANCH 15 17
ENDBRANCH 12 15
ENDBRANCH 5 11
ENDBRANCH 1 5
BRANCH 3 22
ATOM     22  CA  VAL Q 641      32.529  56.373  73.839  1.00 42.43 LIG 0.18  C 
BRANCH 22 23
ATOM     23  C   VAL Q 641      33.249  55.084  74.280  1.00 42.31 LIG 0.24  C 
ATOM     24 O    VAL Q 641      33.794  55.016  75.385  1.00 42.15 LIG-0.27  OA
ATOM     25  N   ASP Q 642      33.232  54.064  73.422  1.00 42.19 LIG-0.35  N 
ATOM     26 H    ASP Q 642      32.857  54.095  72.650  1.00 42.19 LIG 0.16  HD
BRANCH 25 27
ATOM     27  CA  ASP Q 642      33.865  52.777  73.734  1.00 42.17 LIG 0.17  C 
BRANCH 27 28
ATOM     28  CB  ASP Q 642      35.338  52.968  74.115  1.00 42.21 LIG 0.15  C 
BRANCH 28 29
ATOM     29  CG  ASP Q 642      35.711  52.272  75.416  1.00 42.38 LIG 0.17  C 
ATOM     30 OD1  ASP Q 642      35.501  52.854  76.505  1.00 42.36 LIG-0.65  OA
ATOM     31 OD2  ASP Q 642      36.223  51.133  75.344  1.00 42.41 LIG-0.65  OA
ENDBRANCH 28 29
ENDBRANCH 27 28
BRANCH 27 32
ATOM     32  C   ASP Q 642      33.133  52.007  74.837  1.00 42.05 LIG 0.22  C 
ATOM     33 O    ASP Q 642      32.119  52.463  75.363  1.00 41.78 LIG-0.29  OA
ENDBRANCH 27 32
ENDBRANCH 25 27
ENDBRANCH 22 23
BRANCH 22 34
ATOM     34  CB  VAL Q 641      31.892  57.149  75.029  1.00 42.38 LIG 0.01  C 
ATOM     35  CG2 VAL Q 641      32.778  58.270  75.466  1.00 42.63 LIG 0.01  C 
ATOM     36  CG1 VAL Q 641      31.544  56.226  76.200  1.00 42.36 LIG 0.01  C 
ENDBRANCH 22 34
ENDBRANCH 3 22
TORSDOF 16
ENDMDL
MODEL 34
USER: ADFR SOLUTION from run 169
USER: SCORE 13.413325 LL:  -2.212 LR: -12.094 RR:   0.000 FEB:  -7.321
USER: RMSD 4.889290
USER: SEED 168
USER: STATUS no improvement in best in 6 clusters for 5 generations
USER: GENES 18
USER: genes 0 Translation |==|  0.51593 0.54326 0.50504
USER: genes 1 Rotation |==|  0.23383 0.54565 0.14584 0.72725
USER: genes 2 Torsion [N]-C--CA-[N] |==|  0.47613
USER: genes 3 Torsion [C]-CA--CB-[CG] |==|  0.28733
USER: genes 4 Torsion [CA]-CB--CG-[CD] |==|  0.05746
USER: genes 5 Torsion [CB]-CG--CD-[OE2] |==|  0.60822
USER: genes 6 Torsion [C]-CA--N-[C] |==|  0.68333
USER: genes 7 Torsion [N]-C--CA-[N] |==|  0.04128
USER: genes 8 Torsion [C]-CA--CB-[CG] |==|  0.28408
USER: genes 9 Torsion [CA]-CB--CG-[CD] |==|  0.98460
USER: genes 10 Torsion [CB]-CG--CD-[OE2] |==|  0.19111
USER: genes 11 Torsion [C]-N--CA-[C] |==|  0.11898
USER: genes 12 Torsion [N]-CA--C-[N] |==|  0.62267
USER: genes 13 Torsion [C]-N--CA-[CB] |==|  0.52232
USER: genes 14 Torsion [N]-CA--CB-[CG] |==|  0.68690
USER: genes 15 Torsion [CA]-CB--CG-[OD1] |==|  0.23931
USER: genes 16 Torsion [N]-CA--C-[O] |==|  0.91298
USER: genes 17 Torsion [N]-CA--CB-[CG2] |==|  0.54768
ROOT
ATOM      1  C   GLU Q 640      31.207  56.943  71.346  1.00 42.49 LIG 0.24  C 
ATOM      2 O    GLU Q 640      31.211  55.721  71.478  1.00 42.42 LIG-0.27  OA
ATOM      3  N   VAL Q 641      31.782  57.772  72.210  1.00 42.52 LIG-0.35  N 
ATOM      4 H    VAL Q 641      31.729  58.629  72.153  1.00 42.52 LIG 0.16  HD
ENDROOT
BRANCH 1 5
ATOM      5  CA  GLU Q 640      30.509  57.613  70.167  1.00 42.54 LIG 0.18  C 
BRANCH 5 6
ATOM      6  CB  GLU Q 640      29.351  58.481  70.664  1.00 42.65 LIG 0.04  C 
BRANCH 6 7
ATOM      7  CG  GLU Q 640      29.650  59.974  70.667  1.00 42.42 LIG 0.12  C 
BRANCH 7 8
ATOM      8  CD  GLU Q 640      30.795  60.356  69.741  1.00 42.56 LIG 0.17  C 
ATOM      9 OE2  GLU Q 640      31.597  61.238  70.129  1.00 42.27 LIG-0.65  OA
ATOM     10 OE1  GLU Q 640      30.896  59.779  68.629  1.00 42.60 LIG-0.65  OA
ENDBRANCH 7 8
ENDBRANCH 6 7
ENDBRANCH 5 6
BRANCH 5 11
ATOM     11  N   GLU Q 640      30.058  56.684  69.129  1.00 42.67 LIG-0.35  N 
ATOM     12  C   GLU Q 639      30.587  56.694  67.908  1.00 42.69 LIG 0.26  C 
ATOM     13 O    GLU Q 639      31.563  57.383  67.606  1.00 42.71 LIG-0.27  OA
ATOM     14 H    GLU Q 640      29.435  56.146  69.379  1.00 42.67 LIG 0.16  HD
BRANCH 12 15
ATOM     15  CA  GLU Q 639      29.920  55.802  66.860  1.00 42.78 LIG 0.40  C 
ATOM     16  N   GLU Q 639      28.567  55.321  67.269  1.00 42.84 LIG 0.61  N 
BRANCH 15 17
ATOM     17  CB  GLU Q 639      29.851  56.551  65.525  1.00 42.78 LIG 0.06  C 
BRANCH 17 18
ATOM     18  CG  GLU Q 639      30.899  56.124  64.512  1.00 43.01 LIG 0.12  C 
BRANCH 18 19
ATOM     19  CD  GLU Q 639      31.899  55.125  65.077  1.00 43.16 LIG 0.17  C 
ATOM     20 OE1  GLU Q 639      33.084  55.484  65.255  1.00 43.27 LIG-0.65  OA
ATOM     21 OE2  GLU Q 639      31.495  53.976  65.347  1.00 43.17 LIG-0.65  OA
ENDBRANCH 18 19
ENDBRANCH 17 18
ENDBRANCH 15 17
ENDBRANCH 12 15
ENDBRANCH 5 11
ENDBRANCH 1 5
BRANCH 3 22
ATOM     22  CA  VAL Q 641      32.562  57.301  73.345  1.00 42.43 LIG 0.18  C 
BRANCH 22 23
ATOM     23  C   VAL Q 641      33.489  56.137  72.942  1.00 42.31 LIG 0.24  C 
ATOM     24 O    VAL Q 641      34.153  56.196  71.904  1.00 42.15 LIG-0.27  OA
ATOM     25  N   ASP Q 642      33.541  55.097  73.773  1.00 42.19 LIG-0.35  N 
ATOM     26 H    ASP Q 642      33.085  55.042  74.499  1.00 42.19 LIG 0.16  HD
BRANCH 25 27
ATOM     27  CA  ASP Q 642      34.401  53.937  73.511  1.00 42.17 LIG 0.17  C 
BRANCH 27 28
ATOM     28  CB  ASP Q 642      34.122  52.810  74.512  1.00 42.21 LIG 0.15  C 
BRANCH 28 29
ATOM     29  CG  ASP Q 642      35.287  52.551  75.457  1.00 42.38 LIG 0.17  C 
ATOM     30 OD1  ASP Q 642      35.386  53.225  76.507  1.00 42.36 LIG-0.65  OA
ATOM     31 OD2  ASP Q 642      36.112  51.666  75.138  1.00 42.41 LIG-0.65  OA
ENDBRANCH 28 29
ENDBRANCH 27 28
BRANCH 27 32
ATOM     32  C   ASP Q 642      34.269  53.411  72.079  1.00 42.05 LIG 0.22  C 
ATOM     33 O    ASP Q 642      33.206  53.501  71.466  1.00 41.78 LIG-0.29  OA
ENDBRANCH 27 32
ENDBRANCH 25 27
ENDBRANCH 22 23
BRANCH 22 34
ATOM     34  CB  VAL Q 641      31.613  56.941  74.525  1.00 42.38 LIG 0.01  C 
ATOM     35  CG2 VAL Q 641      32.372  56.857  75.810  1.00 42.63 LIG 0.01  C 
ATOM     36  CG1 VAL Q 641      30.825  55.655  74.259  1.00 42.36 LIG 0.01  C 
ENDBRANCH 22 34
ENDBRANCH 3 22
TORSDOF 16
ENDMDL
MODEL 35
USER: ADFR SOLUTION from run 46
USER: SCORE 15.034593 LL:  -3.084 LR: -12.069 RR:   0.000 FEB:  -7.296
USER: RMSD 4.877128
USER: SEED 45
USER: STATUS no improvement in best in 4 clusters for 5 generations
USER: GENES 18
USER: genes 0 Translation |==|  0.52215 0.56019 0.58985
USER: genes 1 Rotation |==|  0.57864 0.33873 0.50776 0.96663
USER: genes 2 Torsion [N]-C--CA-[N] |==|  0.00448
USER: genes 3 Torsion [C]-CA--CB-[CG] |==|  0.52434
USER: genes 4 Torsion [CA]-CB--CG-[CD] |==|  0.80146
USER: genes 5 Torsion [CB]-CG--CD-[OE2] |==|  0.73605
USER: genes 6 Torsion [C]-CA--N-[C] |==|  0.75265
USER: genes 7 Torsion [N]-C--CA-[N] |==|  0.26898
USER: genes 8 Torsion [C]-CA--CB-[CG] |==|  0.70343
USER: genes 9 Torsion [CA]-CB--CG-[CD] |==|  0.17205
USER: genes 10 Torsion [CB]-CG--CD-[OE2] |==|  0.26896
USER: genes 11 Torsion [C]-N--CA-[C] |==|  0.83126
USER: genes 12 Torsion [N]-CA--C-[N] |==|  0.86667
USER: genes 13 Torsion [C]-N--CA-[CB] |==|  0.32063
USER: genes 14 Torsion [N]-CA--CB-[CG] |==|  0.63105
USER: genes 15 Torsion [CA]-CB--CG-[OD1] |==|  0.61906
USER: genes 16 Torsion [N]-CA--C-[O] |==|  0.07321
USER: genes 17 Torsion [N]-CA--CB-[CG2] |==|  0.93574
ROOT
ATOM      1  C   GLU Q 640      31.338  57.222  72.872  1.00 42.49 LIG 0.24  C 
ATOM      2 O    GLU Q 640      32.268  57.851  73.372  1.00 42.42 LIG-0.27  OA
ATOM      3  N   VAL Q 641      30.714  56.226  73.492  1.00 42.52 LIG-0.35  N 
ATOM      4 H    VAL Q 641      30.104  55.745  73.122  1.00 42.52 LIG 0.16  HD
ENDROOT
BRANCH 1 5
ATOM      5  CA  GLU Q 640      30.836  57.530  71.465  1.00 42.54 LIG 0.18  C 
BRANCH 5 6
ATOM      6  CB  GLU Q 640      30.492  59.016  71.342  1.00 42.65 LIG 0.04  C 
BRANCH 6 7
ATOM      7  CG  GLU Q 640      29.785  59.384  70.044  1.00 42.42 LIG 0.12  C 
BRANCH 7 8
ATOM      8  CD  GLU Q 640      30.698  59.328  68.829  1.00 42.56 LIG 0.17  C 
ATOM      9 OE2  GLU Q 640      31.248  60.391  68.455  1.00 42.27 LIG-0.65  OA
ATOM     10 OE1  GLU Q 640      30.869  58.227  68.248  1.00 42.60 LIG-0.65  OA
ENDBRANCH 7 8
ENDBRANCH 6 7
ENDBRANCH 5 6
BRANCH 5 11
ATOM     11  N   GLU Q 640      29.712  56.696  71.034  1.00 42.67 LIG-0.35  N 
ATOM     12  C   GLU Q 639      29.906  55.531  70.419  1.00 42.69 LIG 0.26  C 
ATOM     13 O    GLU Q 639      31.020  55.020  70.288  1.00 42.71 LIG-0.27  OA
ATOM     14 H    GLU Q 640      28.937  57.023  71.211  1.00 42.67 LIG 0.16  HD
BRANCH 12 15
ATOM     15  CA  GLU Q 639      28.666  54.832  69.860  1.00 42.78 LIG 0.40  C 
ATOM     16  N   GLU Q 639      28.447  55.092  68.406  1.00 42.84 LIG 0.61  N 
BRANCH 15 17
ATOM     17  CB  GLU Q 639      28.762  53.328  70.135  1.00 42.78 LIG 0.06  C 
BRANCH 17 18
ATOM     18  CG  GLU Q 639      29.070  52.485  68.910  1.00 43.01 LIG 0.12  C 
BRANCH 18 19
ATOM     19  CD  GLU Q 639      30.416  52.817  68.282  1.00 43.16 LIG 0.17  C 
ATOM     20 OE1  GLU Q 639      30.498  53.785  67.494  1.00 43.27 LIG-0.65  OA
ATOM     21 OE2  GLU Q 639      31.397  52.107  68.583  1.00 43.17 LIG-0.65  OA
ENDBRANCH 18 19
ENDBRANCH 17 18
ENDBRANCH 15 17
ENDBRANCH 12 15
ENDBRANCH 5 11
ENDBRANCH 1 5
BRANCH 3 22
ATOM     22  CA  VAL Q 641      31.008  55.855  74.868  1.00 42.43 LIG 0.18  C 
BRANCH 22 23
ATOM     23  C   VAL Q 641      32.479  55.422  75.028  1.00 42.31 LIG 0.24  C 
ATOM     24 O    VAL Q 641      33.165  55.862  75.953  1.00 42.15 LIG-0.27  OA
ATOM     25  N   ASP Q 642      32.947  54.548  74.137  1.00 42.19 LIG-0.35  N 
ATOM     26 H    ASP Q 642      32.481  54.233  73.487  1.00 42.19 LIG 0.16  HD
BRANCH 25 27
ATOM     27  CA  ASP Q 642      34.323  54.044  74.194  1.00 42.17 LIG 0.17  C 
BRANCH 27 28
ATOM     28  CB  ASP Q 642      34.344  52.535  74.469  1.00 42.21 LIG 0.15  C 
BRANCH 28 29
ATOM     29  CG  ASP Q 642      35.329  52.143  75.561  1.00 42.38 LIG 0.17  C 
ATOM     30 OD1  ASP Q 642      36.049  51.131  75.402  1.00 42.36 LIG-0.65  OA
ATOM     31 OD2  ASP Q 642      35.376  52.854  76.589  1.00 42.41 LIG-0.65  OA
ENDBRANCH 28 29
ENDBRANCH 27 28
BRANCH 27 32
ATOM     32  C   ASP Q 642      35.124  54.356  72.927  1.00 42.05 LIG 0.22  C 
ATOM     33 O    ASP Q 642      34.843  55.324  72.222  1.00 41.78 LIG-0.29  OA
ENDBRANCH 27 32
ENDBRANCH 25 27
ENDBRANCH 22 23
BRANCH 22 34
ATOM     34  CB  VAL Q 641      30.000  54.770  75.349  1.00 42.38 LIG 0.01  C 
ATOM     35  CG2 VAL Q 641      28.742  54.821  74.543  1.00 42.63 LIG 0.01  C 
ATOM     36  CG1 VAL Q 641      29.706  54.881  76.848  1.00 42.36 LIG 0.01  C 
ENDBRANCH 22 34
ENDBRANCH 3 22
TORSDOF 16
ENDMDL
MODEL 36
USER: ADFR SOLUTION from run 94
USER: SCORE 13.984910 LL:  -3.358 LR: -12.050 RR:   0.000 FEB:  -7.277
USER: RMSD 8.264039
USER: SEED 93
USER: STATUS no improvement in best in 5 clusters for 5 generations
USER: GENES 18
USER: genes 0 Translation |==|  0.78386 0.35655 0.51736
USER: genes 1 Rotation |==|  0.73147 0.86526 0.39407 0.72757
USER: genes 2 Torsion [N]-C--CA-[N] |==|  0.72659
USER: genes 3 Torsion [C]-CA--CB-[CG] |==|  0.68621
USER: genes 4 Torsion [CA]-CB--CG-[CD] |==|  0.77017
USER: genes 5 Torsion [CB]-CG--CD-[OE2] |==|  0.52298
USER: genes 6 Torsion [C]-CA--N-[C] |==|  0.12778
USER: genes 7 Torsion [N]-C--CA-[N] |==|  0.66440
USER: genes 8 Torsion [C]-CA--CB-[CG] |==|  0.26236
USER: genes 9 Torsion [CA]-CB--CG-[CD] |==|  0.87693
USER: genes 10 Torsion [CB]-CG--CD-[OE2] |==|  0.19645
USER: genes 11 Torsion [C]-N--CA-[C] |==|  0.61780
USER: genes 12 Torsion [N]-CA--C-[N] |==|  0.09039
USER: genes 13 Torsion [C]-N--CA-[CB] |==|  0.48038
USER: genes 14 Torsion [N]-CA--CB-[CG] |==|  0.18177
USER: genes 15 Torsion [CA]-CB--CG-[OD1] |==|  0.19740
USER: genes 16 Torsion [N]-CA--C-[O] |==|  0.02509
USER: genes 17 Torsion [N]-CA--CB-[CG2] |==|  0.97563
ROOT
ATOM      1  C   GLU Q 640      36.834  53.862  71.567  1.00 42.49 LIG 0.24  C 
ATOM      2 O    GLU Q 640      37.039  54.914  70.967  1.00 42.42 LIG-0.27  OA
ATOM      3  N   VAL Q 641      36.774  52.678  70.967  1.00 42.52 LIG-0.35  N 
ATOM      4 H    VAL Q 641      36.572  51.949  71.375  1.00 42.52 LIG 0.16  HD
ENDROOT
BRANCH 1 5
ATOM      5  CA  GLU Q 640      36.606  53.839  73.076  1.00 42.54 LIG 0.18  C 
BRANCH 5 6
ATOM      6  CB  GLU Q 640      37.016  52.481  73.650  1.00 42.65 LIG 0.04  C 
BRANCH 6 7
ATOM      7  CG  GLU Q 640      35.854  51.660  74.193  1.00 42.42 LIG 0.12  C 
BRANCH 7 8
ATOM      8  CD  GLU Q 640      35.459  52.047  75.610  1.00 42.56 LIG 0.17  C 
ATOM      9 OE2  GLU Q 640      34.622  51.328  76.206  1.00 42.27 LIG-0.65  OA
ATOM     10 OE1  GLU Q 640      35.981  53.065  76.130  1.00 42.60 LIG-0.65  OA
ENDBRANCH 7 8
ENDBRANCH 6 7
ENDBRANCH 5 6
BRANCH 5 11
ATOM     11  N   GLU Q 640      35.243  54.188  73.481  1.00 42.67 LIG-0.35  N 
ATOM     12  C   GLU Q 639      34.180  53.664  72.873  1.00 42.69 LIG 0.26  C 
ATOM     13 O    GLU Q 639      34.264  52.769  72.030  1.00 42.71 LIG-0.27  OA
ATOM     14 H    GLU Q 640      35.197  54.748  74.132  1.00 42.67 LIG 0.16  HD
BRANCH 12 15
ATOM     15  CA  GLU Q 639      32.815  54.232  73.262  1.00 42.78 LIG 0.40  C 
ATOM     16  N   GLU Q 639      31.884  53.205  73.817  1.00 42.84 LIG 0.61  N 
BRANCH 15 17
ATOM     17  CB  GLU Q 639      33.007  55.384  74.254  1.00 42.78 LIG 0.06  C 
BRANCH 17 18
ATOM     18  CG  GLU Q 639      33.050  56.761  73.614  1.00 43.01 LIG 0.12  C 
BRANCH 18 19
ATOM     19  CD  GLU Q 639      33.913  56.807  72.362  1.00 43.16 LIG 0.17  C 
ATOM     20 OE1  GLU Q 639      35.006  57.413  72.396  1.00 43.27 LIG-0.65  OA
ATOM     21 OE2  GLU Q 639      33.495  56.229  71.337  1.00 43.17 LIG-0.65  OA
ENDBRANCH 18 19
ENDBRANCH 17 18
ENDBRANCH 15 17
ENDBRANCH 12 15
ENDBRANCH 5 11
ENDBRANCH 1 5
BRANCH 3 22
ATOM     22  CA  VAL Q 641      37.051  52.506  69.549  1.00 42.43 LIG 0.18  C 
BRANCH 22 23
ATOM     23  C   VAL Q 641      36.036  51.549  68.894  1.00 42.31 LIG 0.24  C 
ATOM     24 O    VAL Q 641      36.381  50.807  67.970  1.00 42.15 LIG-0.27  OA
ATOM     25  N   ASP Q 642      34.799  51.557  69.388  1.00 42.19 LIG-0.35  N 
ATOM     26 H    ASP Q 642      34.544  52.068  70.030  1.00 42.19 LIG 0.16  HD
BRANCH 25 27
ATOM     27  CA  ASP Q 642      33.748  50.677  68.864  1.00 42.17 LIG 0.17  C 
BRANCH 27 28
ATOM     28  CB  ASP Q 642      32.480  50.765  69.721  1.00 42.21 LIG 0.15  C 
BRANCH 28 29
ATOM     29  CG  ASP Q 642      31.820  52.135  69.668  1.00 42.38 LIG 0.17  C 
ATOM     30 OD1  ASP Q 642      31.240  52.496  68.618  1.00 42.36 LIG-0.65  OA
ATOM     31 OD2  ASP Q 642      31.889  52.857  70.687  1.00 42.41 LIG-0.65  OA
ENDBRANCH 28 29
ENDBRANCH 27 28
BRANCH 27 32
ATOM     32  C   ASP Q 642      33.411  50.961  67.397  1.00 42.05 LIG 0.22  C 
ATOM     33 O    ASP Q 642      34.099  51.729  66.726  1.00 41.78 LIG-0.29  OA
ENDBRANCH 27 32
ENDBRANCH 25 27
ENDBRANCH 22 23
BRANCH 22 34
ATOM     34  CB  VAL Q 641      38.528  52.055  69.350  1.00 42.38 LIG 0.01  C 
ATOM     35  CG2 VAL Q 641      39.285  52.135  70.636  1.00 42.63 LIG 0.01  C 
ATOM     36  CG1 VAL Q 641      39.228  52.847  68.242  1.00 42.36 LIG 0.01  C 
ENDBRANCH 22 34
ENDBRANCH 3 22
TORSDOF 16
ENDMDL
MODEL 37
USER: ADFR SOLUTION from run 28
USER: SCORE 14.000806 LL:  -2.167 LR: -12.017 RR:   0.000 FEB:  -7.244
USER: RMSD 8.471860
USER: SEED 27
USER: STATUS no improvement in best in 8 clusters for 5 generations
USER: GENES 18
USER: genes 0 Translation |==|  0.52078 0.45786 0.78284
USER: genes 1 Rotation |==|  0.54879 0.07040 0.58302 0.73700
USER: genes 2 Torsion [N]-C--CA-[N] |==|  0.01281
USER: genes 3 Torsion [C]-CA--CB-[CG] |==|  0.76192
USER: genes 4 Torsion [CA]-CB--CG-[CD] |==|  0.76141
USER: genes 5 Torsion [CB]-CG--CD-[OE2] |==|  0.34076
USER: genes 6 Torsion [C]-CA--N-[C] |==|  0.70433
USER: genes 7 Torsion [N]-C--CA-[N] |==|  0.80696
USER: genes 8 Torsion [C]-CA--CB-[CG] |==|  0.32391
USER: genes 9 Torsion [CA]-CB--CG-[CD] |==|  0.57979
USER: genes 10 Torsion [CB]-CG--CD-[OE2] |==|  0.46947
USER: genes 11 Torsion [C]-N--CA-[C] |==|  0.68758
USER: genes 12 Torsion [N]-CA--C-[N] |==|  0.41667
USER: genes 13 Torsion [C]-N--CA-[CB] |==|  0.19113
USER: genes 14 Torsion [N]-CA--CB-[CG] |==|  0.69681
USER: genes 15 Torsion [CA]-CB--CG-[OD1] |==|  0.77761
USER: genes 16 Torsion [N]-CA--C-[O] |==|  0.93786
USER: genes 17 Torsion [N]-CA--CB-[CG2] |==|  0.98689
ROOT
ATOM      1  C   GLU Q 640      31.309  55.534  76.346  1.00 42.49 LIG 0.24  C 
ATOM      2 O    GLU Q 640      30.873  56.237  77.255  1.00 42.42 LIG-0.27  OA
ATOM      3  N   VAL Q 641      30.670  54.468  75.878  1.00 42.52 LIG-0.35  N 
ATOM      4 H    VAL Q 641      30.999  53.939  75.284  1.00 42.52 LIG 0.16  HD
ENDROOT
BRANCH 1 5
ATOM      5  CA  GLU Q 640      32.655  55.825  75.690  1.00 42.54 LIG 0.18  C 
BRANCH 5 6
ATOM      6  CB  GLU Q 640      32.727  57.294  75.265  1.00 42.65 LIG 0.04  C 
BRANCH 6 7
ATOM      7  CG  GLU Q 640      32.130  57.573  73.892  1.00 42.42 LIG 0.12  C 
BRANCH 7 8
ATOM      8  CD  GLU Q 640      33.117  57.354  72.755  1.00 42.56 LIG 0.17  C 
ATOM      9 OE2  GLU Q 640      32.808  56.535  71.856  1.00 42.27 LIG-0.65  OA
ATOM     10 OE1  GLU Q 640      34.197  57.995  72.756  1.00 42.60 LIG-0.65  OA
ENDBRANCH 7 8
ENDBRANCH 6 7
ENDBRANCH 5 6
BRANCH 5 11
ATOM     11  N   GLU Q 640      32.981  54.941  74.570  1.00 42.67 LIG-0.35  N 
ATOM     12  C   GLU Q 639      33.900  53.983  74.684  1.00 42.69 LIG 0.26  C 
ATOM     13 O    GLU Q 639      34.437  53.694  75.755  1.00 42.71 LIG-0.27  OA
ATOM     14 H    GLU Q 640      32.535  55.095  73.852  1.00 42.67 LIG 0.16  HD
BRANCH 12 15
ATOM     15  CA  GLU Q 639      34.281  53.238  73.405  1.00 42.78 LIG 0.40  C 
ATOM     16  N   GLU Q 639      33.192  52.358  72.886  1.00 42.84 LIG 0.61  N 
BRANCH 15 17
ATOM     17  CB  GLU Q 639      34.717  54.249  72.339  1.00 42.78 LIG 0.06  C 
BRANCH 17 18
ATOM     18  CG  GLU Q 639      36.165  54.114  71.902  1.00 43.01 LIG 0.12  C 
BRANCH 18 19
ATOM     19  CD  GLU Q 639      36.771  55.430  71.436  1.00 43.16 LIG 0.17  C 
ATOM     20 OE1  GLU Q 639      36.022  56.415  71.255  1.00 43.27 LIG-0.65  OA
ATOM     21 OE2  GLU Q 639      38.005  55.479  71.255  1.00 43.17 LIG-0.65  OA
ENDBRANCH 18 19
ENDBRANCH 17 18
ENDBRANCH 15 17
ENDBRANCH 12 15
ENDBRANCH 5 11
ENDBRANCH 1 5
BRANCH 3 22
ATOM     22  CA  VAL Q 641      29.338  54.093  76.330  1.00 42.43 LIG 0.18  C 
BRANCH 22 23
ATOM     23  C   VAL Q 641      29.369  52.774  77.126  1.00 42.31 LIG 0.24  C 
ATOM     24 O    VAL Q 641      30.227  51.919  76.890  1.00 42.15 LIG-0.27  OA
ATOM     25  N   ASP Q 642      28.446  52.624  78.076  1.00 42.19 LIG-0.35  N 
ATOM     26 H    ASP Q 642      27.843  53.210  78.252  1.00 42.19 LIG 0.16  HD
BRANCH 25 27
ATOM     27  CA  ASP Q 642      28.385  51.423  78.916  1.00 42.17 LIG 0.17  C 
BRANCH 27 28
ATOM     28  CB  ASP Q 642      29.588  51.354  79.864  1.00 42.21 LIG 0.15  C 
BRANCH 28 29
ATOM     29  CG  ASP Q 642      30.577  50.259  79.492  1.00 42.38 LIG 0.17  C 
ATOM     30 OD1  ASP Q 642      30.334  49.076  79.822  1.00 42.36 LIG-0.65  OA
ATOM     31 OD2  ASP Q 642      31.609  50.592  78.868  1.00 42.41 LIG-0.65  OA
ENDBRANCH 28 29
ENDBRANCH 27 28
BRANCH 27 32
ATOM     32  C   ASP Q 642      27.082  51.321  79.713  1.00 42.05 LIG 0.22  C 
ATOM     33 O    ASP Q 642      26.406  52.321  79.954  1.00 41.78 LIG-0.29  OA
ENDBRANCH 27 32
ENDBRANCH 25 27
ENDBRANCH 22 23
BRANCH 22 34
ATOM     34  CB  VAL Q 641      28.362  54.048  75.118  1.00 42.38 LIG 0.01  C 
ATOM     35  CG2 VAL Q 641      29.044  54.510  73.871  1.00 42.63 LIG 0.01  C 
ATOM     36  CG1 VAL Q 641      27.081  54.845  75.380  1.00 42.36 LIG 0.01  C 
ENDBRANCH 22 34
ENDBRANCH 3 22
TORSDOF 16
ENDMDL
MODEL 38
USER: ADFR SOLUTION from run 39
USER: SCORE 14.583000 LL:  -3.076 LR: -12.020 RR:   0.000 FEB:  -7.247
USER: RMSD 8.569163
USER: SEED 38
USER: STATUS no improvement in best in 10 clusters for 5 generations
USER: GENES 18
USER: genes 0 Translation |==|  0.52914 0.43645 0.76414
USER: genes 1 Rotation |==|  0.56421 0.07074 0.63960 0.70524
USER: genes 2 Torsion [N]-C--CA-[N] |==|  0.02893
USER: genes 3 Torsion [C]-CA--CB-[CG] |==|  0.74830
USER: genes 4 Torsion [CA]-CB--CG-[CD] |==|  0.76548
USER: genes 5 Torsion [CB]-CG--CD-[OE2] |==|  0.36182
USER: genes 6 Torsion [C]-CA--N-[C] |==|  0.72307
USER: genes 7 Torsion [N]-C--CA-[N] |==|  0.29786
USER: genes 8 Torsion [C]-CA--CB-[CG] |==|  0.66703
USER: genes 9 Torsion [CA]-CB--CG-[CD] |==|  0.21806
USER: genes 10 Torsion [CB]-CG--CD-[OE2] |==|  0.89685
USER: genes 11 Torsion [C]-N--CA-[C] |==|  0.61113
USER: genes 12 Torsion [N]-CA--C-[N] |==|  0.99291
USER: genes 13 Torsion [C]-N--CA-[CB] |==|  0.44759
USER: genes 14 Torsion [N]-CA--CB-[CG] |==|  0.21948
USER: genes 15 Torsion [CA]-CB--CG-[OD1] |==|  0.25159
USER: genes 16 Torsion [N]-CA--C-[O] |==|  0.94770
USER: genes 17 Torsion [N]-CA--CB-[CG2] |==|  0.04930
ROOT
ATOM      1  C   GLU Q 640      31.485  55.180  76.010  1.00 42.49 LIG 0.24  C 
ATOM      2 O    GLU Q 640      30.818  55.910  76.741  1.00 42.42 LIG-0.27  OA
ATOM      3  N   VAL Q 641      31.105  53.957  75.656  1.00 42.52 LIG-0.35  N 
ATOM      4 H    VAL Q 641      31.596  53.423  75.195  1.00 42.52 LIG 0.16  HD
ENDROOT
BRANCH 1 5
ATOM      5  CA  GLU Q 640      32.837  55.626  75.461  1.00 42.54 LIG 0.18  C 
BRANCH 5 6
ATOM      6  CB  GLU Q 640      32.747  57.063  74.942  1.00 42.65 LIG 0.04  C 
BRANCH 6 7
ATOM      7  CG  GLU Q 640      32.371  57.170  73.470  1.00 42.42 LIG 0.12  C 
BRANCH 7 8
ATOM      8  CD  GLU Q 640      33.565  57.035  72.537  1.00 42.56 LIG 0.17  C 
ATOM      9 OE2  GLU Q 640      33.477  56.228  71.580  1.00 42.27 LIG-0.65  OA
ATOM     10 OE1  GLU Q 640      34.588  57.730  72.755  1.00 42.60 LIG-0.65  OA
ENDBRANCH 7 8
ENDBRANCH 6 7
ENDBRANCH 5 6
BRANCH 5 11
ATOM     11  N   GLU Q 640      33.393  54.736  74.440  1.00 42.67 LIG-0.35  N 
ATOM     12  C   GLU Q 639      34.328  53.836  74.736  1.00 42.69 LIG 0.26  C 
ATOM     13 O    GLU Q 639      34.693  53.603  75.890  1.00 42.71 LIG-0.27  OA
ATOM     14 H    GLU Q 640      33.065  54.848  73.653  1.00 42.67 LIG 0.16  HD
BRANCH 12 15
ATOM     15  CA  GLU Q 639      34.958  53.085  73.562  1.00 42.78 LIG 0.40  C 
ATOM     16  N   GLU Q 639      36.358  53.513  73.269  1.00 42.84 LIG 0.61  N 
BRANCH 15 17
ATOM     17  CB  GLU Q 639      34.895  51.578  73.831  1.00 42.78 LIG 0.06  C 
BRANCH 17 18
ATOM     18  CG  GLU Q 639      36.250  50.893  73.878  1.00 43.01 LIG 0.12  C 
BRANCH 18 19
ATOM     19  CD  GLU Q 639      36.978  51.107  75.198  1.00 43.16 LIG 0.17  C 
ATOM     20 OE1  GLU Q 639      37.656  50.172  75.678  1.00 43.27 LIG-0.65  OA
ATOM     21 OE2  GLU Q 639      36.873  52.219  75.755  1.00 43.17 LIG-0.65  OA
ENDBRANCH 18 19
ENDBRANCH 17 18
ENDBRANCH 15 17
ENDBRANCH 12 15
ENDBRANCH 5 11
ENDBRANCH 1 5
BRANCH 3 22
ATOM     22  CA  VAL Q 641      29.809  53.405  76.020  1.00 42.43 LIG 0.18  C 
BRANCH 22 23
ATOM     23  C   VAL Q 641      29.925  51.920  76.417  1.00 42.31 LIG 0.24  C 
ATOM     24 O    VAL Q 641      28.931  51.290  76.785  1.00 42.15 LIG-0.27  OA
ATOM     25  N   ASP Q 642      31.134  51.367  76.320  1.00 42.19 LIG-0.35  N 
ATOM     26 H    ASP Q 642      31.836  51.793  76.065  1.00 42.19 LIG 0.16  HD
BRANCH 25 27
ATOM     27  CA  ASP Q 642      31.370  49.956  76.648  1.00 42.17 LIG 0.17  C 
BRANCH 27 28
ATOM     28  CB  ASP Q 642      32.681  49.461  76.027  1.00 42.21 LIG 0.15  C 
BRANCH 28 29
ATOM     29  CG  ASP Q 642      33.912  49.887  76.814  1.00 42.38 LIG 0.17  C 
ATOM     30 OD1  ASP Q 642      34.350  49.141  77.719  1.00 42.36 LIG-0.65  OA
ATOM     31 OD2  ASP Q 642      34.439  50.984  76.525  1.00 42.41 LIG-0.65  OA
ENDBRANCH 28 29
ENDBRANCH 27 28
BRANCH 27 32
ATOM     32  C   ASP Q 642      31.370  49.689  78.156  1.00 42.05 LIG 0.22  C 
ATOM     33 O    ASP Q 642      31.530  50.604  78.962  1.00 41.78 LIG-0.29  OA
ENDBRANCH 27 32
ENDBRANCH 25 27
ENDBRANCH 22 23
BRANCH 22 34
ATOM     34  CB  VAL Q 641      28.789  53.648  74.869  1.00 42.38 LIG 0.01  C 
ATOM     35  CG2 VAL Q 641      29.497  53.970  73.593  1.00 42.63 LIG 0.01  C 
ATOM     36  CG1 VAL Q 641      27.764  54.729  75.226  1.00 42.36 LIG 0.01  C 
ENDBRANCH 22 34
ENDBRANCH 3 22
TORSDOF 16
ENDMDL
MODEL 39
USER: ADFR SOLUTION from run 160
USER: SCORE 14.427761 LL:  -2.637 LR: -12.017 RR:   0.000 FEB:  -7.245
USER: RMSD 4.454511
USER: SEED 159
USER: STATUS no improvement in best in 14 clusters for 5 generations
USER: GENES 18
USER: genes 0 Translation |==|  0.53369 0.55770 0.55402
USER: genes 1 Rotation |==|  0.62439 0.38034 0.48475 0.96902
USER: genes 2 Torsion [N]-C--CA-[N] |==|  0.00211
USER: genes 3 Torsion [C]-CA--CB-[CG] |==|  0.47755
USER: genes 4 Torsion [CA]-CB--CG-[CD] |==|  0.85767
USER: genes 5 Torsion [CB]-CG--CD-[OE2] |==|  0.18931
USER: genes 6 Torsion [C]-CA--N-[C] |==|  0.77164
USER: genes 7 Torsion [N]-C--CA-[N] |==|  0.29631
USER: genes 8 Torsion [C]-CA--CB-[CG] |==|  0.71715
USER: genes 9 Torsion [CA]-CB--CG-[CD] |==|  0.16763
USER: genes 10 Torsion [CB]-CG--CD-[OE2] |==|  0.27295
USER: genes 11 Torsion [C]-N--CA-[C] |==|  0.75015
USER: genes 12 Torsion [N]-CA--C-[N] |==|  0.27224
USER: genes 13 Torsion [C]-N--CA-[CB] |==|  0.34832
USER: genes 14 Torsion [N]-CA--CB-[CG] |==|  0.98113
USER: genes 15 Torsion [CA]-CB--CG-[OD1] |==|  0.33965
USER: genes 16 Torsion [N]-CA--C-[O] |==|  0.11503
USER: genes 17 Torsion [N]-CA--CB-[CG2] |==|  0.99710
ROOT
ATOM      1  C   GLU Q 640      31.580  57.181  72.227  1.00 42.49 LIG 0.24  C 
ATOM      2 O    GLU Q 640      32.595  57.716  72.670  1.00 42.42 LIG-0.27  OA
ATOM      3  N   VAL Q 641      31.056  56.074  72.740  1.00 42.52 LIG-0.35  N 
ATOM      4 H    VAL Q 641      30.382  55.664  72.396  1.00 42.52 LIG 0.16  HD
ENDROOT
BRANCH 1 5
ATOM      5  CA  GLU Q 640      30.846  57.749  71.017  1.00 42.54 LIG 0.18  C 
BRANCH 5 6
ATOM      6  CB  GLU Q 640      30.494  59.219  71.255  1.00 42.65 LIG 0.04  C 
BRANCH 6 7
ATOM      7  CG  GLU Q 640      29.933  59.929  70.031  1.00 42.42 LIG 0.12  C 
BRANCH 7 8
ATOM      8  CD  GLU Q 640      30.798  59.759  68.791  1.00 42.56 LIG 0.17  C 
ATOM      9 OE2  GLU Q 640      30.873  58.617  68.277  1.00 42.27 LIG-0.65  OA
ATOM     10 OE1  GLU Q 640      31.402  60.759  68.330  1.00 42.60 LIG-0.65  OA
ENDBRANCH 7 8
ENDBRANCH 6 7
ENDBRANCH 5 6
BRANCH 5 11
ATOM     11  N   GLU Q 640      29.661  56.985  70.622  1.00 42.67 LIG-0.35  N 
ATOM     12  C   GLU Q 639      29.757  55.892  69.868  1.00 42.69 LIG 0.26  C 
ATOM     13 O    GLU Q 639      30.836  55.380  69.564  1.00 42.71 LIG-0.27  OA
ATOM     14 H    GLU Q 640      28.918  57.303  70.915  1.00 42.67 LIG 0.16  HD
BRANCH 12 15
ATOM     15  CA  GLU Q 639      28.446  55.279  69.374  1.00 42.78 LIG 0.40  C 
ATOM     16  N   GLU Q 639      28.198  55.507  67.919  1.00 42.84 LIG 0.61  N 
BRANCH 15 17
ATOM     17  CB  GLU Q 639      28.430  53.782  69.700  1.00 42.78 LIG 0.06  C 
BRANCH 17 18
ATOM     18  CG  GLU Q 639      28.743  52.879  68.519  1.00 43.01 LIG 0.12  C 
BRANCH 18 19
ATOM     19  CD  GLU Q 639      30.123  53.131  67.928  1.00 43.16 LIG 0.17  C 
ATOM     20 OE1  GLU Q 639      30.280  54.080  67.129  1.00 43.27 LIG-0.65  OA
ATOM     21 OE2  GLU Q 639      31.057  52.376  68.269  1.00 43.17 LIG-0.65  OA
ENDBRANCH 18 19
ENDBRANCH 17 18
ENDBRANCH 15 17
ENDBRANCH 12 15
ENDBRANCH 5 11
ENDBRANCH 1 5
BRANCH 3 22
ATOM     22  CA  VAL Q 641      31.578  55.446  73.945  1.00 42.43 LIG 0.18  C 
BRANCH 22 23
ATOM     23  C   VAL Q 641      32.671  54.413  73.608  1.00 42.31 LIG 0.24  C 
ATOM     24 O    VAL Q 641      32.367  53.277  73.237  1.00 42.15 LIG-0.27  OA
ATOM     25  N   ASP Q 642      33.936  54.820  73.721  1.00 42.19 LIG-0.35  N 
ATOM     26 H    ASP Q 642      34.163  55.607  73.978  1.00 42.19 LIG 0.16  HD
BRANCH 25 27
ATOM     27  CA  ASP Q 642      35.065  53.937  73.408  1.00 42.17 LIG 0.17  C 
BRANCH 27 28
ATOM     28  CB  ASP Q 642      35.997  54.583  72.376  1.00 42.21 LIG 0.15  C 
BRANCH 28 29
ATOM     29  CG  ASP Q 642      35.449  55.885  71.812  1.00 42.38 LIG 0.17  C 
ATOM     30 OD1  ASP Q 642      36.123  56.934  71.924  1.00 42.36 LIG-0.65  OA
ATOM     31 OD2  ASP Q 642      34.329  55.855  71.255  1.00 42.41 LIG-0.65  OA
ENDBRANCH 28 29
ENDBRANCH 27 28
BRANCH 27 32
ATOM     32  C   ASP Q 642      35.861  53.528  74.651  1.00 42.05 LIG 0.22  C 
ATOM     33 O    ASP Q 642      35.291  53.229  75.699  1.00 41.78 LIG-0.29  OA
ENDBRANCH 27 32
ENDBRANCH 25 27
ENDBRANCH 22 23
BRANCH 22 34
ATOM     34  CB  VAL Q 641      30.408  54.843  74.776  1.00 42.38 LIG 0.01  C 
ATOM     35  CG2 VAL Q 641      29.095  55.104  74.111  1.00 42.63 LIG 0.01  C 
ATOM     36  CG1 VAL Q 641      30.409  55.345  76.223  1.00 42.36 LIG 0.01  C 
ENDBRANCH 22 34
ENDBRANCH 3 22
TORSDOF 16
ENDMDL
MODEL 40
USER: ADFR SOLUTION from run 14
USER: SCORE 14.939548 LL:  -3.371 LR: -12.000 RR:   0.000 FEB:  -7.227
USER: RMSD 7.478818
USER: SEED 358567
USER: STATUS no improvement in best in 7 clusters for 5 generations
USER: GENES 18
USER: genes 0 Translation |==|  0.53655 0.44830 0.76119
USER: genes 1 Rotation |==|  0.57439 0.07342 0.61238 0.72331
USER: genes 2 Torsion [N]-C--CA-[N] |==|  0.98349
USER: genes 3 Torsion [C]-CA--CB-[CG] |==|  0.62878
USER: genes 4 Torsion [CA]-CB--CG-[CD] |==|  0.23014
USER: genes 5 Torsion [CB]-CG--CD-[OE2] |==|  0.11575
USER: genes 6 Torsion [C]-CA--N-[C] |==|  0.75579
USER: genes 7 Torsion [N]-C--CA-[N] |==|  0.85162
USER: genes 8 Torsion [C]-CA--CB-[CG] |==|  0.75411
USER: genes 9 Torsion [CA]-CB--CG-[CD] |==|  0.44250
USER: genes 10 Torsion [CB]-CG--CD-[OE2] |==|  0.69808
USER: genes 11 Torsion [C]-N--CA-[C] |==|  0.62293
USER: genes 12 Torsion [N]-CA--C-[N] |==|  0.98021
USER: genes 13 Torsion [C]-N--CA-[CB] |==|  0.48339
USER: genes 14 Torsion [N]-CA--CB-[CG] |==|  0.20475
USER: genes 15 Torsion [CA]-CB--CG-[OD1] |==|  0.21461
USER: genes 16 Torsion [N]-CA--C-[O] |==|  0.91776
USER: genes 17 Torsion [N]-CA--CB-[CG2] |==|  0.00874
ROOT
ATOM      1  C   GLU Q 640      31.640  55.376  75.956  1.00 42.49 LIG 0.24  C 
ATOM      2 O    GLU Q 640      31.067  56.045  76.813  1.00 42.42 LIG-0.27  OA
ATOM      3  N   VAL Q 641      31.190  54.203  75.523  1.00 42.52 LIG-0.35  N 
ATOM      4 H    VAL Q 641      31.620  53.705  74.969  1.00 42.52 LIG 0.16  HD
ENDROOT
BRANCH 1 5
ATOM      5  CA  GLU Q 640      32.951  55.841  75.330  1.00 42.54 LIG 0.18  C 
BRANCH 5 6
ATOM      6  CB  GLU Q 640      32.744  57.172  74.602  1.00 42.65 LIG 0.04  C 
BRANCH 6 7
ATOM      7  CG  GLU Q 640      33.359  57.220  73.209  1.00 42.42 LIG 0.12  C 
BRANCH 7 8
ATOM      8  CD  GLU Q 640      32.471  56.596  72.143  1.00 42.56 LIG 0.17  C 
ATOM      9 OE2  GLU Q 640      31.240  56.835  72.186  1.00 42.27 LIG-0.65  OA
ATOM     10 OE1  GLU Q 640      32.998  55.871  71.263  1.00 42.60 LIG-0.65  OA
ENDBRANCH 7 8
ENDBRANCH 6 7
ENDBRANCH 5 6
BRANCH 5 11
ATOM     11  N   GLU Q 640      33.578  54.855  74.447  1.00 42.67 LIG-0.35  N 
ATOM     12  C   GLU Q 639      34.417  53.935  74.917  1.00 42.69 LIG 0.26  C 
ATOM     13 O    GLU Q 639      34.623  53.768  76.121  1.00 42.71 LIG-0.27  OA
ATOM     14 H    GLU Q 640      33.357  54.926  73.619  1.00 42.67 LIG 0.16  HD
BRANCH 12 15
ATOM     15  CA  GLU Q 639      35.143  53.073  73.884  1.00 42.78 LIG 0.40  C 
ATOM     16  N   GLU Q 639      34.222  52.408  72.916  1.00 42.84 LIG 0.61  N 
BRANCH 15 17
ATOM     17  CB  GLU Q 639      36.181  53.927  73.148  1.00 42.78 LIG 0.06  C 
BRANCH 17 18
ATOM     18  CG  GLU Q 639      35.646  54.641  71.918  1.00 43.01 LIG 0.12  C 
BRANCH 18 19
ATOM     19  CD  GLU Q 639      36.497  55.834  71.507  1.00 43.16 LIG 0.17  C 
ATOM     20 OE1  GLU Q 639      37.623  55.633  71.000  1.00 43.27 LIG-0.65  OA
ATOM     21 OE2  GLU Q 639      36.034  56.979  71.688  1.00 43.17 LIG-0.65  OA
ENDBRANCH 18 19
ENDBRANCH 17 18
ENDBRANCH 15 17
ENDBRANCH 12 15
ENDBRANCH 5 11
ENDBRANCH 1 5
BRANCH 3 22
ATOM     22  CA  VAL Q 641      29.914  53.649  75.952  1.00 42.43 LIG 0.18  C 
BRANCH 22 23
ATOM     23  C   VAL Q 641      30.042  52.151  76.292  1.00 42.31 LIG 0.24  C 
ATOM     24 O    VAL Q 641      29.091  51.536  76.782  1.00 42.15 LIG-0.27  OA
ATOM     25  N   ASP Q 642      31.209  51.570  76.013  1.00 42.19 LIG-0.35  N 
ATOM     26 H    ASP Q 642      31.880  51.985  75.671  1.00 42.19 LIG 0.16  HD
BRANCH 25 27
ATOM     27  CA  ASP Q 642      31.447  50.145  76.270  1.00 42.17 LIG 0.17  C 
BRANCH 27 28
ATOM     28  CB  ASP Q 642      32.811  49.710  75.722  1.00 42.21 LIG 0.15  C 
BRANCH 28 29
ATOM     29  CG  ASP Q 642      33.978  50.215  76.559  1.00 42.38 LIG 0.17  C 
ATOM     30 OD1  ASP Q 642      34.249  49.643  77.640  1.00 42.36 LIG-0.65  OA
ATOM     31 OD2  ASP Q 642      34.623  51.197  76.130  1.00 42.41 LIG-0.65  OA
ENDBRANCH 28 29
ENDBRANCH 27 28
BRANCH 27 32
ATOM     32  C   ASP Q 642      31.338  49.783  77.754  1.00 42.05 LIG 0.22  C 
ATOM     33 O    ASP Q 642      31.612  50.604  78.629  1.00 41.78 LIG-0.29  OA
ENDBRANCH 27 32
ENDBRANCH 25 27
ENDBRANCH 22 23
BRANCH 22 34
ATOM     34  CB  VAL Q 641      28.826  53.937  74.877  1.00 42.38 LIG 0.01  C 
ATOM     35  CG2 VAL Q 641      29.420  54.627  73.692  1.00 42.63 LIG 0.01  C 
ATOM     36  CG1 VAL Q 641      27.647  54.729  75.448  1.00 42.36 LIG 0.01  C 
ENDBRANCH 22 34
ENDBRANCH 3 22
TORSDOF 16
ENDMDL
MODEL 41
USER: ADFR SOLUTION from run 6
USER: SCORE 14.234786 LL:  -3.130 LR: -11.972 RR:   0.000 FEB:  -7.199
USER: RMSD 7.538971
USER: SEED 160241
USER: STATUS no improvement in best in 9 clusters for 5 generations
USER: GENES 18
USER: genes 0 Translation |==|  0.78875 0.39180 0.51442
USER: genes 1 Rotation |==|  0.72479 0.77680 0.47161 0.84935
USER: genes 2 Torsion [N]-C--CA-[N] |==|  0.79518
USER: genes 3 Torsion [C]-CA--CB-[CG] |==|  0.62215
USER: genes 4 Torsion [CA]-CB--CG-[CD] |==|  0.58256
USER: genes 5 Torsion [CB]-CG--CD-[OE2] |==|  0.57181
USER: genes 6 Torsion [C]-CA--N-[C] |==|  0.72739
USER: genes 7 Torsion [N]-C--CA-[N] |==|  0.04859
USER: genes 8 Torsion [C]-CA--CB-[CG] |==|  0.32989
USER: genes 9 Torsion [CA]-CB--CG-[CD] |==|  0.96195
USER: genes 10 Torsion [CB]-CG--CD-[OE2] |==|  0.68532
USER: genes 11 Torsion [C]-N--CA-[C] |==|  0.69010
USER: genes 12 Torsion [N]-CA--C-[N] |==|  0.92778
USER: genes 13 Torsion [C]-N--CA-[CB] |==|  0.50834
USER: genes 14 Torsion [N]-CA--CB-[CG] |==|  0.12693
USER: genes 15 Torsion [CA]-CB--CG-[OD1] |==|  0.81888
USER: genes 16 Torsion [N]-CA--C-[O] |==|  0.68845
USER: genes 17 Torsion [N]-CA--CB-[CG2] |==|  0.47469
ROOT
ATOM      1  C   GLU Q 640      36.937  54.444  71.515  1.00 42.49 LIG 0.24  C 
ATOM      2 O    GLU Q 640      37.401  55.483  71.051  1.00 42.42 LIG-0.27  OA
ATOM      3  N   VAL Q 641      37.342  53.234  71.143  1.00 42.52 LIG-0.35  N 
ATOM      4 H    VAL Q 641      36.978  52.506  71.421  1.00 42.52 LIG 0.16  HD
ENDROOT
BRANCH 1 5
ATOM      5  CA  GLU Q 640      35.823  54.466  72.556  1.00 42.54 LIG 0.18  C 
BRANCH 5 6
ATOM      6  CB  GLU Q 640      36.203  53.590  73.753  1.00 42.65 LIG 0.04  C 
BRANCH 6 7
ATOM      7  CG  GLU Q 640      35.074  52.699  74.254  1.00 42.42 LIG 0.12  C 
BRANCH 7 8
ATOM      8  CD  GLU Q 640      35.159  52.408  75.745  1.00 42.56 LIG 0.17  C 
ATOM      9 OE2  GLU Q 640      34.633  51.351  76.170  1.00 42.27 LIG-0.65  OA
ATOM     10 OE1  GLU Q 640      35.747  53.229  76.491  1.00 42.60 LIG-0.65  OA
ENDBRANCH 7 8
ENDBRANCH 6 7
ENDBRANCH 5 6
BRANCH 5 11
ATOM     11  N   GLU Q 640      34.506  54.094  72.035  1.00 42.67 LIG-0.35  N 
ATOM     12  C   GLU Q 639      33.609  55.016  71.689  1.00 42.69 LIG 0.26  C 
ATOM     13 O    GLU Q 639      33.864  56.221  71.661  1.00 42.71 LIG-0.27  OA
ATOM     14 H    GLU Q 640      34.372  53.247  71.975  1.00 42.67 LIG 0.16  HD
BRANCH 12 15
ATOM     15  CA  GLU Q 639      32.212  54.514  71.324  1.00 42.78 LIG 0.40  C 
ATOM     16  N   GLU Q 639      31.939  53.126  71.800  1.00 42.84 LIG 0.61  N 
BRANCH 15 17
ATOM     17  CB  GLU Q 639      31.164  55.491  71.867  1.00 42.78 LIG 0.06  C 
BRANCH 17 18
ATOM     18  CG  GLU Q 639      30.296  56.136  70.800  1.00 43.01 LIG 0.12  C 
BRANCH 18 19
ATOM     19  CD  GLU Q 639      30.845  55.946  69.393  1.00 43.16 LIG 0.17  C 
ATOM     20 OE1  GLU Q 639      30.871  54.797  68.899  1.00 43.27 LIG-0.65  OA
ATOM     21 OE2  GLU Q 639      31.248  56.954  68.777  1.00 43.17 LIG-0.65  OA
ENDBRANCH 18 19
ENDBRANCH 17 18
ENDBRANCH 15 17
ENDBRANCH 12 15
ENDBRANCH 5 11
ENDBRANCH 1 5
BRANCH 3 22
ATOM     22  CA  VAL Q 641      38.451  53.029  70.223  1.00 42.43 LIG 0.18  C 
BRANCH 22 23
ATOM     23  C   VAL Q 641      37.962  52.459  68.877  1.00 42.31 LIG 0.24  C 
ATOM     24 O    VAL Q 641      38.615  52.639  67.846  1.00 42.15 LIG-0.27  OA
ATOM     25  N   ASP Q 642      36.827  51.761  68.898  1.00 42.19 LIG-0.35  N 
ATOM     26 H    ASP Q 642      36.361  51.628  69.608  1.00 42.19 LIG 0.16  HD
BRANCH 25 27
ATOM     27  CA  ASP Q 642      36.269  51.151  67.686  1.00 42.17 LIG 0.17  C 
BRANCH 27 28
ATOM     28  CB  ASP Q 642      34.925  50.473  67.982  1.00 42.21 LIG 0.15  C 
BRANCH 28 29
ATOM     29  CG  ASP Q 642      33.996  51.336  68.823  1.00 42.38 LIG 0.17  C 
ATOM     30 OD1  ASP Q 642      34.319  51.619  69.999  1.00 42.36 LIG-0.65  OA
ATOM     31 OD2  ASP Q 642      32.929  51.729  68.300  1.00 42.41 LIG-0.65  OA
ENDBRANCH 28 29
ENDBRANCH 27 28
BRANCH 27 32
ATOM     32  C   ASP Q 642      36.110  52.150  66.536  1.00 42.05 LIG 0.22  C 
ATOM     33 O    ASP Q 642      34.996  52.487  66.138  1.00 41.78 LIG-0.29  OA
ENDBRANCH 27 32
ENDBRANCH 25 27
ENDBRANCH 22 23
BRANCH 22 34
ATOM     34  CB  VAL Q 641      39.539  52.143  70.898  1.00 42.38 LIG 0.01  C 
ATOM     35  CG2 VAL Q 641      40.581  51.736  69.907  1.00 42.63 LIG 0.01  C 
ATOM     36  CG1 VAL Q 641      38.935  50.926  71.603  1.00 42.36 LIG 0.01  C 
ENDBRANCH 22 34
ENDBRANCH 3 22
TORSDOF 16
ENDMDL
MODEL 42
USER: ADFR SOLUTION from run 169
USER: SCORE 13.295117 LL:  -2.590 LR: -11.924 RR:   0.000 FEB:  -7.152
USER: RMSD 5.791756
USER: SEED 168
USER: STATUS no improvement in best in 6 clusters for 5 generations
USER: GENES 18
USER: genes 0 Translation |==|  0.46586 0.38780 0.73939
USER: genes 1 Rotation |==|  0.01193 0.44192 0.45180 0.57802
USER: genes 2 Torsion [N]-C--CA-[N] |==|  0.99452
USER: genes 3 Torsion [C]-CA--CB-[CG] |==|  0.14542
USER: genes 4 Torsion [CA]-CB--CG-[CD] |==|  0.18712
USER: genes 5 Torsion [CB]-CG--CD-[OE2] |==|  0.01789
USER: genes 6 Torsion [C]-CA--N-[C] |==|  0.18359
USER: genes 7 Torsion [N]-C--CA-[N] |==|  0.63172
USER: genes 8 Torsion [C]-CA--CB-[CG] |==|  0.48073
USER: genes 9 Torsion [CA]-CB--CG-[CD] |==|  0.25621
USER: genes 10 Torsion [CB]-CG--CD-[OE2] |==|  0.87157
USER: genes 11 Torsion [C]-N--CA-[C] |==|  0.11320
USER: genes 12 Torsion [N]-CA--C-[N] |==|  0.61906
USER: genes 13 Torsion [C]-N--CA-[CB] |==|  0.30523
USER: genes 14 Torsion [N]-CA--CB-[CG] |==|  0.99489
USER: genes 15 Torsion [CA]-CB--CG-[OD1] |==|  0.81568
USER: genes 16 Torsion [N]-CA--C-[O] |==|  0.14541
USER: genes 17 Torsion [N]-CA--CB-[CG2] |==|  0.55683
ROOT
ATOM      1  C   GLU Q 640      30.156  54.378  75.564  1.00 42.49 LIG 0.24  C 
ATOM      2 O    GLU Q 640      31.207  53.879  75.962  1.00 42.42 LIG-0.27  OA
ATOM      3  N   VAL Q 641      30.108  55.377  74.690  1.00 42.52 LIG-0.35  N 
ATOM      4 H    VAL Q 641      29.378  55.767  74.455  1.00 42.52 LIG 0.16  HD
ENDROOT
BRANCH 1 5
ATOM      5  CA  GLU Q 640      28.802  53.891  76.071  1.00 42.54 LIG 0.18  C 
BRANCH 5 6
ATOM      6  CB  GLU Q 640      28.646  52.393  75.802  1.00 42.65 LIG 0.04  C 
BRANCH 6 7
ATOM      7  CG  GLU Q 640      29.801  51.545  76.318  1.00 42.42 LIG 0.12  C 
BRANCH 7 8
ATOM      8  CD  GLU Q 640      29.890  51.516  77.836  1.00 42.56 LIG 0.17  C 
ATOM      9 OE2  GLU Q 640      28.970  52.062  78.491  1.00 42.27 LIG-0.65  OA
ATOM     10 OE1  GLU Q 640      30.873  50.951  78.377  1.00 42.60 LIG-0.65  OA
ENDBRANCH 7 8
ENDBRANCH 6 7
ENDBRANCH 5 6
BRANCH 5 11
ATOM     11  N   GLU Q 640      27.660  54.639  75.543  1.00 42.67 LIG-0.35  N 
ATOM     12  C   GLU Q 639      27.340  54.601  74.251  1.00 42.69 LIG 0.26  C 
ATOM     13 O    GLU Q 639      27.892  53.849  73.446  1.00 42.71 LIG-0.27  OA
ATOM     14 H    GLU Q 640      27.227  55.092  76.132  1.00 42.67 LIG 0.16  HD
BRANCH 12 15
ATOM     15  CA  GLU Q 639      26.240  55.555  73.785  1.00 42.78 LIG 0.40  C 
ATOM     16  N   GLU Q 639      25.208  54.896  72.931  1.00 42.84 LIG 0.61  N 
BRANCH 15 17
ATOM     17  CB  GLU Q 639      25.593  56.220  75.005  1.00 42.78 LIG 0.06  C 
BRANCH 17 18
ATOM     18  CG  GLU Q 639      24.596  57.314  74.667  1.00 43.01 LIG 0.12  C 
BRANCH 18 19
ATOM     19  CD  GLU Q 639      23.167  56.804  74.558  1.00 43.16 LIG 0.17  C 
ATOM     20 OE1  GLU Q 639      22.248  57.439  75.120  1.00 43.27 LIG-0.65  OA
ATOM     21 OE2  GLU Q 639      22.962  55.761  73.901  1.00 43.17 LIG-0.65  OA
ENDBRANCH 18 19
ENDBRANCH 17 18
ENDBRANCH 15 17
ENDBRANCH 12 15
ENDBRANCH 5 11
ENDBRANCH 1 5
BRANCH 3 22
ATOM     22  CA  VAL Q 641      31.298  55.907  74.041  1.00 42.43 LIG 0.18  C 
BRANCH 22 23
ATOM     23  C   VAL Q 641      32.263  54.775  73.634  1.00 42.31 LIG 0.24  C 
ATOM     24 O    VAL Q 641      31.835  53.747  73.103  1.00 42.15 LIG-0.27  OA
ATOM     25  N   ASP Q 642      33.559  54.980  73.868  1.00 42.19 LIG-0.35  N 
ATOM     26 H    ASP Q 642      33.872  55.690  74.237  1.00 42.19 LIG 0.16  HD
BRANCH 25 27
ATOM     27  CA  ASP Q 642      34.578  53.988  73.507  1.00 42.17 LIG 0.17  C 
BRANCH 27 28
ATOM     28  CB  ASP Q 642      35.435  54.482  72.335  1.00 42.21 LIG 0.15  C 
BRANCH 28 29
ATOM     29  CG  ASP Q 642      34.997  55.842  71.810  1.00 42.38 LIG 0.17  C 
ATOM     30 OD1  ASP Q 642      33.880  55.954  71.255  1.00 42.36 LIG-0.65  OA
ATOM     31 OD2  ASP Q 642      35.784  56.804  71.953  1.00 42.41 LIG-0.65  OA
ENDBRANCH 28 29
ENDBRANCH 27 28
BRANCH 27 32
ATOM     32  C   ASP Q 642      35.476  53.601  74.686  1.00 42.05 LIG 0.22  C 
ATOM     33 O    ASP Q 642      34.992  53.230  75.755  1.00 41.78 LIG-0.29  OA
ENDBRANCH 27 32
ENDBRANCH 25 27
ENDBRANCH 22 23
BRANCH 22 34
ATOM     34  CB  VAL Q 641      31.966  56.975  74.956  1.00 42.38 LIG 0.01  C 
ATOM     35  CG2 VAL Q 641      32.860  57.870  74.160  1.00 42.63 LIG 0.01  C 
ATOM     36  CG1 VAL Q 641      32.716  56.340  76.130  1.00 42.36 LIG 0.01  C 
ENDBRANCH 22 34
ENDBRANCH 3 22
TORSDOF 16
ENDMDL
MODEL 43
USER: ADFR SOLUTION from run 29
USER: SCORE 14.078998 LL:  -2.525 LR: -11.904 RR:   0.000 FEB:  -7.132
USER: RMSD 4.392278
USER: SEED 28
USER: STATUS no improvement in best in 6 clusters for 5 generations
USER: GENES 18
USER: genes 0 Translation |==|  0.47595 0.57588 0.52040
USER: genes 1 Rotation |==|  0.67655 0.53137 0.64034 0.94514
USER: genes 2 Torsion [N]-C--CA-[N] |==|  0.31827
USER: genes 3 Torsion [C]-CA--CB-[CG] |==|  0.86732
USER: genes 4 Torsion [CA]-CB--CG-[CD] |==|  0.35922
USER: genes 5 Torsion [CB]-CG--CD-[OE2] |==|  0.47745
USER: genes 6 Torsion [C]-CA--N-[C] |==|  0.68333
USER: genes 7 Torsion [N]-C--CA-[N] |==|  0.27822
USER: genes 8 Torsion [C]-CA--CB-[CG] |==|  0.42317
USER: genes 9 Torsion [CA]-CB--CG-[CD] |==|  0.22733
USER: genes 10 Torsion [CB]-CG--CD-[OE2] |==|  0.34238
USER: genes 11 Torsion [C]-N--CA-[C] |==|  0.55376
USER: genes 12 Torsion [N]-CA--C-[N] |==|  0.45799
USER: genes 13 Torsion [C]-N--CA-[CB] |==|  0.28415
USER: genes 14 Torsion [N]-CA--CB-[CG] |==|  0.09658
USER: genes 15 Torsion [CA]-CB--CG-[OD1] |==|  0.32888
USER: genes 16 Torsion [N]-CA--C-[O] |==|  0.16834
USER: genes 17 Torsion [N]-CA--CB-[CG2] |==|  0.62129
ROOT
ATOM      1  C   GLU Q 640      30.368  57.481  71.622  1.00 42.49 LIG 0.24  C 
ATOM      2 O    GLU Q 640      30.800  58.611  71.840  1.00 42.42 LIG-0.27  OA
ATOM      3  N   VAL Q 641      30.995  56.374  72.004  1.00 42.52 LIG-0.35  N 
ATOM      4 H    VAL Q 641      30.727  55.582  71.801  1.00 42.52 LIG 0.16  HD
ENDROOT
BRANCH 1 5
ATOM      5  CA  GLU Q 640      29.064  57.261  70.862  1.00 42.54 LIG 0.18  C 
BRANCH 5 6
ATOM      6  CB  GLU Q 640      29.157  57.878  69.465  1.00 42.65 LIG 0.04  C 
BRANCH 6 7
ATOM      7  CG  GLU Q 640      29.702  59.300  69.449  1.00 42.42 LIG 0.12  C 
BRANCH 7 8
ATOM      8  CD  GLU Q 640      30.839  59.493  68.457  1.00 42.56 LIG 0.17  C 
ATOM      9 OE2  GLU Q 640      31.253  60.660  68.255  1.00 42.27 LIG-0.65  OA
ATOM     10 OE1  GLU Q 640      31.320  58.486  67.880  1.00 42.60 LIG-0.65  OA
ENDBRANCH 7 8
ENDBRANCH 6 7
ENDBRANCH 5 6
BRANCH 5 11
ATOM     11  N   GLU Q 640      27.872  57.738  71.566  1.00 42.67 LIG-0.35  N 
ATOM     12  C   GLU Q 639      26.935  56.896  71.999  1.00 42.69 LIG 0.26  C 
ATOM     13 O    GLU Q 639      27.064  55.671  71.955  1.00 42.71 LIG-0.27  OA
ATOM     14 H    GLU Q 640      27.836  58.591  71.669  1.00 42.67 LIG 0.16  HD
BRANCH 12 15
ATOM     15  CA  GLU Q 639      25.657  57.518  72.562  1.00 42.78 LIG 0.40  C 
ATOM     16  N   GLU Q 639      24.522  57.517  71.591  1.00 42.84 LIG 0.61  N 
BRANCH 15 17
ATOM     17  CB  GLU Q 639      25.267  56.795  73.855  1.00 42.78 LIG 0.06  C 
BRANCH 17 18
ATOM     18  CG  GLU Q 639      24.482  57.647  74.837  1.00 43.01 LIG 0.12  C 
BRANCH 18 19
ATOM     19  CD  GLU Q 639      22.999  57.721  74.507  1.00 43.16 LIG 0.17  C 
ATOM     20 OE1  GLU Q 639      22.645  58.132  73.380  1.00 43.27 LIG-0.65  OA
ATOM     21 OE2  GLU Q 639      22.182  57.363  75.381  1.00 43.17 LIG-0.65  OA
ENDBRANCH 18 19
ENDBRANCH 17 18
ENDBRANCH 15 17
ENDBRANCH 12 15
ENDBRANCH 5 11
ENDBRANCH 1 5
BRANCH 3 22
ATOM     22  CA  VAL Q 641      32.207  56.400  72.810  1.00 42.43 LIG 0.18  C 
BRANCH 22 23
ATOM     23  C   VAL Q 641      32.975  55.068  72.707  1.00 42.31 LIG 0.24  C 
ATOM     24 O    VAL Q 641      32.434  54.067  72.229  1.00 42.15 LIG-0.27  OA
ATOM     25  N   ASP Q 642      34.237  55.068  73.137  1.00 42.19 LIG-0.35  N 
ATOM     26 H    ASP Q 642      34.627  55.756  73.471  1.00 42.19 LIG 0.16  HD
BRANCH 25 27
ATOM     27  CA  ASP Q 642      35.079  53.868  73.072  1.00 42.17 LIG 0.17  C 
BRANCH 27 28
ATOM     28  CB  ASP Q 642      36.060  53.949  71.896  1.00 42.21 LIG 0.15  C 
BRANCH 28 29
ATOM     29  CG  ASP Q 642      36.553  55.364  71.629  1.00 42.38 LIG 0.17  C 
ATOM     30 OD1  ASP Q 642      37.776  55.616  71.730  1.00 42.36 LIG-0.65  OA
ATOM     31 OD2  ASP Q 642      35.705  56.230  71.320  1.00 42.41 LIG-0.65  OA
ENDBRANCH 28 29
ENDBRANCH 27 28
BRANCH 27 32
ATOM     32  C   ASP Q 642      35.842  53.606  74.373  1.00 42.05 LIG 0.22  C 
ATOM     33 O    ASP Q 642      35.243  53.411  75.430  1.00 41.78 LIG-0.29  OA
ENDBRANCH 27 32
ENDBRANCH 25 27
ENDBRANCH 22 23
BRANCH 22 34
ATOM     34  CB  VAL Q 641      31.856  56.786  74.277  1.00 42.38 LIG 0.01  C 
ATOM     35  CG2 VAL Q 641      32.837  57.779  74.812  1.00 42.63 LIG 0.01  C 
ATOM     36  CG1 VAL Q 641      31.752  55.559  75.187  1.00 42.36 LIG 0.01  C 
ENDBRANCH 22 34
ENDBRANCH 3 22
TORSDOF 16
ENDMDL
MODEL 44
USER: ADFR SOLUTION from run 118
USER: SCORE 14.398857 LL:  -2.692 LR: -11.872 RR:   0.000 FEB:  -7.099
USER: RMSD 4.115074
USER: SEED 117
USER: STATUS no improvement in best in 15 clusters for 5 generations
USER: GENES 18
USER: genes 0 Translation |==|  0.54218 0.49435 0.55471
USER: genes 1 Rotation |==|  0.39902 0.52142 0.42623 0.98363
USER: genes 2 Torsion [N]-C--CA-[N] |==|  0.00277
USER: genes 3 Torsion [C]-CA--CB-[CG] |==|  0.37229
USER: genes 4 Torsion [CA]-CB--CG-[CD] |==|  0.78286
USER: genes 5 Torsion [CB]-CG--CD-[OE2] |==|  0.77023
USER: genes 6 Torsion [C]-CA--N-[C] |==|  0.75707
USER: genes 7 Torsion [N]-C--CA-[N] |==|  0.77499
USER: genes 8 Torsion [C]-CA--CB-[CG] |==|  0.45696
USER: genes 9 Torsion [CA]-CB--CG-[CD] |==|  0.24487
USER: genes 10 Torsion [CB]-CG--CD-[OE2] |==|  0.44290
USER: genes 11 Torsion [C]-N--CA-[C] |==|  0.74659
USER: genes 12 Torsion [N]-CA--C-[N] |==|  0.30746
USER: genes 13 Torsion [C]-N--CA-[CB] |==|  0.43668
USER: genes 14 Torsion [N]-CA--CB-[CG] |==|  0.92464
USER: genes 15 Torsion [CA]-CB--CG-[OD1] |==|  0.76602
USER: genes 16 Torsion [N]-CA--C-[O] |==|  0.16564
USER: genes 17 Torsion [N]-CA--CB-[CG2] |==|  0.12950
ROOT
ATOM      1  C   GLU Q 640      31.759  56.136  72.240  1.00 42.49 LIG 0.24  C 
ATOM      2 O    GLU Q 640      32.818  56.234  71.624  1.00 42.42 LIG-0.27  OA
ATOM      3  N   VAL Q 641      31.692  55.976  73.557  1.00 42.52 LIG-0.35  N 
ATOM      4 H    VAL Q 641      30.956  55.847  73.983  1.00 42.52 LIG 0.16  HD
ENDROOT
BRANCH 1 5
ATOM      5  CA  GLU Q 640      30.414  56.169  71.519  1.00 42.54 LIG 0.18  C 
BRANCH 5 6
ATOM      6  CB  GLU Q 640      30.308  57.430  70.660  1.00 42.65 LIG 0.04  C 
BRANCH 6 7
ATOM      7  CG  GLU Q 640      29.784  57.180  69.252  1.00 42.42 LIG 0.12  C 
BRANCH 7 8
ATOM      8  CD  GLU Q 640      30.838  56.608  68.315  1.00 42.56 LIG 0.17  C 
ATOM      9 OE2  GLU Q 640      31.634  57.408  67.766  1.00 42.27 LIG-0.65  OA
ATOM     10 OE1  GLU Q 640      30.873  55.367  68.125  1.00 42.60 LIG-0.65  OA
ENDBRANCH 7 8
ENDBRANCH 6 7
ENDBRANCH 5 6
BRANCH 5 11
ATOM     11  N   GLU Q 640      29.256  56.041  72.405  1.00 42.67 LIG-0.35  N 
ATOM     12  C   GLU Q 639      28.771  54.850  72.749  1.00 42.69 LIG 0.26  C 
ATOM     13 O    GLU Q 639      29.328  53.790  72.458  1.00 42.71 LIG-0.27  OA
ATOM     14 H    GLU Q 640      28.928  56.789  72.674  1.00 42.67 LIG 0.16  HD
BRANCH 12 15
ATOM     15  CA  GLU Q 639      27.458  54.840  73.533  1.00 42.78 LIG 0.40  C 
ATOM     16  N   GLU Q 639      27.638  55.104  74.991  1.00 42.84 LIG 0.61  N 
BRANCH 15 17
ATOM     17  CB  GLU Q 639      26.489  55.852  72.913  1.00 42.78 LIG 0.06  C 
BRANCH 17 18
ATOM     18  CG  GLU Q 639      25.044  55.684  73.350  1.00 43.01 LIG 0.12  C 
BRANCH 18 19
ATOM     19  CD  GLU Q 639      24.714  56.455  74.620  1.00 43.16 LIG 0.17  C 
ATOM     20 OE1  GLU Q 639      25.643  56.805  75.380  1.00 43.27 LIG-0.65  OA
ATOM     21 OE2  GLU Q 639      23.516  56.716  74.856  1.00 43.17 LIG-0.65  OA
ENDBRANCH 18 19
ENDBRANCH 17 18
ENDBRANCH 15 17
ENDBRANCH 12 15
ENDBRANCH 5 11
ENDBRANCH 1 5
BRANCH 3 22
ATOM     22  CA  VAL Q 641      32.871  56.006  74.409  1.00 42.43 LIG 0.18  C 
BRANCH 22 23
ATOM     23  C   VAL Q 641      33.461  54.594  74.597  1.00 42.31 LIG 0.24  C 
ATOM     24 O    VAL Q 641      32.848  53.739  75.241  1.00 42.15 LIG-0.27  OA
ATOM     25  N   ASP Q 642      34.637  54.354  74.018  1.00 42.19 LIG-0.35  N 
ATOM     26 H    ASP Q 642      35.076  54.939  73.566  1.00 42.19 LIG 0.16  HD
BRANCH 25 27
ATOM     27  CA  ASP Q 642      35.292  53.044  74.106  1.00 42.17 LIG 0.17  C 
BRANCH 27 28
ATOM     28  CB  ASP Q 642      36.282  52.846  72.951  1.00 42.21 LIG 0.15  C 
BRANCH 28 29
ATOM     29  CG  ASP Q 642      35.913  53.644  71.709  1.00 42.38 LIG 0.17  C 
ATOM     30 OD1  ASP Q 642      35.087  53.168  70.897  1.00 42.36 LIG-0.65  OA
ATOM     31 OD2  ASP Q 642      36.463  54.756  71.544  1.00 42.41 LIG-0.65  OA
ENDBRANCH 28 29
ENDBRANCH 27 28
BRANCH 27 32
ATOM     32  C   ASP Q 642      35.998  52.821  75.446  1.00 42.05 LIG 0.22  C 
ATOM     33 O    ASP Q 642      35.373  52.855  76.505  1.00 41.78 LIG-0.29  OA
ENDBRANCH 27 32
ENDBRANCH 25 27
ENDBRANCH 22 23
BRANCH 22 34
ATOM     34  CB  VAL Q 641      32.531  56.706  75.757  1.00 42.38 LIG 0.01  C 
ATOM     35  CG2 VAL Q 641      31.248  56.183  76.317  1.00 42.63 LIG 0.01  C 
ATOM     36  CG1 VAL Q 641      32.499  58.231  75.623  1.00 42.36 LIG 0.01  C 
ENDBRANCH 22 34
ENDBRANCH 3 22
TORSDOF 16
ENDMDL
MODEL 45
USER: ADFR SOLUTION from run 71
USER: SCORE 14.617064 LL:  -3.204 LR: -11.860 RR:   0.000 FEB:  -7.087
USER: RMSD 8.507472
USER: SEED 70
USER: STATUS no improvement in best in 8 clusters for 5 generations
USER: GENES 18
USER: genes 0 Translation |==|  0.47462 0.51781 0.55122
USER: genes 1 Rotation |==|  0.61353 0.95074 0.32323 0.55197
USER: genes 2 Torsion [N]-C--CA-[N] |==|  0.01833
USER: genes 3 Torsion [C]-CA--CB-[CG] |==|  0.61870
USER: genes 4 Torsion [CA]-CB--CG-[CD] |==|  0.23617
USER: genes 5 Torsion [CB]-CG--CD-[OE2] |==|  0.92711
USER: genes 6 Torsion [C]-CA--N-[C] |==|  0.69880
USER: genes 7 Torsion [N]-C--CA-[N] |==|  0.65855
USER: genes 8 Torsion [C]-CA--CB-[CG] |==|  0.41112
USER: genes 9 Torsion [CA]-CB--CG-[CD] |==|  0.01196
USER: genes 10 Torsion [CB]-CG--CD-[OE2] |==|  0.71566
USER: genes 11 Torsion [C]-N--CA-[C] |==|  0.11116
USER: genes 12 Torsion [N]-CA--C-[N] |==|  0.12554
USER: genes 13 Torsion [C]-N--CA-[CB] |==|  0.81274
USER: genes 14 Torsion [N]-CA--CB-[CG] |==|  0.82763
USER: genes 15 Torsion [CA]-CB--CG-[OD1] |==|  0.75172
USER: genes 16 Torsion [N]-CA--C-[O] |==|  0.28755
USER: genes 17 Torsion [N]-CA--CB-[CG2] |==|  0.20040
ROOT
ATOM      1  C   GLU Q 640      30.340  56.523  72.177  1.00 42.49 LIG 0.24  C 
ATOM      2 O    GLU Q 640      29.758  57.513  71.740  1.00 42.42 LIG-0.27  OA
ATOM      3  N   VAL Q 641      30.078  55.285  71.773  1.00 42.52 LIG-0.35  N 
ATOM      4 H    VAL Q 641      30.440  54.585  72.119  1.00 42.52 LIG 0.16  HD
ENDROOT
BRANCH 1 5
ATOM      5  CA  GLU Q 640      31.413  56.642  73.255  1.00 42.54 LIG 0.18  C 
BRANCH 5 6
ATOM      6  CB  GLU Q 640      32.422  57.729  72.877  1.00 42.65 LIG 0.04  C 
BRANCH 6 7
ATOM      7  CG  GLU Q 640      33.873  57.346  73.134  1.00 42.42 LIG 0.12  C 
BRANCH 7 8
ATOM      8  CD  GLU Q 640      34.495  56.558  71.991  1.00 42.56 LIG 0.17  C 
ATOM      9 OE2  GLU Q 640      33.733  55.887  71.255  1.00 42.27 LIG-0.65  OA
ATOM     10 OE1  GLU Q 640      35.739  56.608  71.826  1.00 42.60 LIG-0.65  OA
ENDBRANCH 7 8
ENDBRANCH 6 7
ENDBRANCH 5 6
BRANCH 5 11
ATOM     11  N   GLU Q 640      32.093  55.383  73.566  1.00 42.67 LIG-0.35  N 
ATOM     12  C   GLU Q 639      31.882  54.743  74.714  1.00 42.69 LIG 0.26  C 
ATOM     13 O    GLU Q 639      31.020  55.088  75.525  1.00 42.71 LIG-0.27  OA
ATOM     14 H    GLU Q 640      32.628  55.106  72.952  1.00 42.67 LIG 0.16  HD
BRANCH 12 15
ATOM     15  CA  GLU Q 639      32.774  53.537  75.005  1.00 42.78 LIG 0.40  C 
ATOM     16  N   GLU Q 639      32.008  52.277  75.242  1.00 42.84 LIG 0.61  N 
BRANCH 15 17
ATOM     17  CB  GLU Q 639      33.775  53.356  73.858  1.00 42.78 LIG 0.06  C 
BRANCH 17 18
ATOM     18  CG  GLU Q 639      35.117  52.785  74.282  1.00 43.01 LIG 0.12  C 
BRANCH 18 19
ATOM     19  CD  GLU Q 639      35.164  52.407  75.755  1.00 43.16 LIG 0.17  C 
ATOM     20 OE1  GLU Q 639      34.623  51.343  76.128  1.00 43.27 LIG-0.65  OA
ATOM     21 OE2  GLU Q 639      35.749  53.178  76.543  1.00 43.17 LIG-0.65  OA
ENDBRANCH 18 19
ENDBRANCH 17 18
ENDBRANCH 15 17
ENDBRANCH 12 15
ENDBRANCH 5 11
ENDBRANCH 1 5
BRANCH 3 22
ATOM     22  CA  VAL Q 641      29.145  54.995  70.694  1.00 42.43 LIG 0.18  C 
BRANCH 22 23
ATOM     23  C   VAL Q 641      29.285  56.014  69.546  1.00 42.31 LIG 0.24  C 
ATOM     24 O    VAL Q 641      28.285  56.530  69.040  1.00 42.15 LIG-0.27  OA
ATOM     25  N   ASP Q 642      30.524  56.311  69.156  1.00 42.19 LIG-0.35  N 
ATOM     26 H    ASP Q 642      31.230  55.960  69.498  1.00 42.19 LIG 0.16  HD
BRANCH 25 27
ATOM     27  CA  ASP Q 642      30.790  57.281  68.088  1.00 42.17 LIG 0.17  C 
BRANCH 27 28
ATOM     28  CB  ASP Q 642      30.300  56.754  66.733  1.00 42.21 LIG 0.15  C 
BRANCH 28 29
ATOM     29  CG  ASP Q 642      31.008  55.479  66.300  1.00 42.38 LIG 0.17  C 
ATOM     30 OD1  ASP Q 642      32.061  55.560  65.628  1.00 42.36 LIG-0.65  OA
ATOM     31 OD2  ASP Q 642      30.498  54.386  66.633  1.00 42.41 LIG-0.65  OA
ENDBRANCH 28 29
ENDBRANCH 27 28
BRANCH 27 32
ATOM     32  C   ASP Q 642      30.178  58.657  68.368  1.00 42.05 LIG 0.22  C 
ATOM     33 O    ASP Q 642      30.876  59.596  68.745  1.00 41.78 LIG-0.29  OA
ENDBRANCH 27 32
ENDBRANCH 25 27
ENDBRANCH 22 23
BRANCH 22 34
ATOM     34  CB  VAL Q 641      27.696  54.911  71.257  1.00 42.38 LIG 0.01  C 
ATOM     35  CG2 VAL Q 641      27.192  56.267  71.630  1.00 42.63 LIG 0.01  C 
ATOM     36  CG1 VAL Q 641      27.591  53.935  72.433  1.00 42.36 LIG 0.01  C 
ENDBRANCH 22 34
ENDBRANCH 3 22
TORSDOF 16
ENDMDL
MODEL 46
USER: ADFR SOLUTION from run 193
USER: SCORE 13.624321 LL:  -3.115 LR: -11.822 RR:   0.000 FEB:  -7.049
USER: RMSD 8.796515
USER: SEED 192
USER: STATUS no improvement in best in 12 clusters for 5 generations
USER: GENES 18
USER: genes 0 Translation |==|  0.67603 0.44069 0.56714
USER: genes 1 Rotation |==|  0.32526 0.34920 0.91968 0.64350
USER: genes 2 Torsion [N]-C--CA-[N] |==|  0.19955
USER: genes 3 Torsion [C]-CA--CB-[CG] |==|  0.54238
USER: genes 4 Torsion [CA]-CB--CG-[CD] |==|  0.26068
USER: genes 5 Torsion [CB]-CG--CD-[OE2] |==|  0.19467
USER: genes 6 Torsion [C]-CA--N-[C] |==|  0.12997
USER: genes 7 Torsion [N]-C--CA-[N] |==|  0.88509
USER: genes 8 Torsion [C]-CA--CB-[CG] |==|  0.90107
USER: genes 9 Torsion [CA]-CB--CG-[CD] |==|  0.79117
USER: genes 10 Torsion [CB]-CG--CD-[OE2] |==|  0.52484
USER: genes 11 Torsion [C]-N--CA-[C] |==|  0.91667
USER: genes 12 Torsion [N]-CA--C-[N] |==|  0.35522
USER: genes 13 Torsion [C]-N--CA-[CB] |==|  0.41865
USER: genes 14 Torsion [N]-CA--CB-[CG] |==|  0.69000
USER: genes 15 Torsion [CA]-CB--CG-[OD1] |==|  0.86535
USER: genes 16 Torsion [N]-CA--C-[O] |==|  0.34135
USER: genes 17 Torsion [N]-CA--CB-[CG2] |==|  0.62150
ROOT
ATOM      1  C   GLU Q 640      34.570  55.250  72.463  1.00 42.49 LIG 0.24  C 
ATOM      2 O    GLU Q 640      34.100  55.650  71.400  1.00 42.42 LIG-0.27  OA
ATOM      3  N   VAL Q 641      33.921  55.322  73.621  1.00 42.52 LIG-0.35  N 
ATOM      4 H    VAL Q 641      34.270  55.099  74.375  1.00 42.52 LIG 0.16  HD
ENDROOT
BRANCH 1 5
ATOM      5  CA  GLU Q 640      35.970  54.651  72.538  1.00 42.54 LIG 0.18  C 
BRANCH 5 6
ATOM      6  CB  GLU Q 640      36.764  55.008  71.280  1.00 42.65 LIG 0.04  C 
BRANCH 6 7
ATOM      7  CG  GLU Q 640      38.022  54.172  71.081  1.00 42.42 LIG 0.12  C 
BRANCH 7 8
ATOM      8  CD  GLU Q 640      37.798  52.956  70.194  1.00 42.56 LIG 0.17  C 
ATOM      9 OE2  GLU Q 640      37.593  53.149  68.972  1.00 42.27 LIG-0.65  OA
ATOM     10 OE1  GLU Q 640      37.826  51.813  70.713  1.00 42.60 LIG-0.65  OA
ENDBRANCH 7 8
ENDBRANCH 6 7
ENDBRANCH 5 6
BRANCH 5 11
ATOM     11  N   GLU Q 640      35.993  53.207  72.779  1.00 42.67 LIG-0.35  N 
ATOM     12  C   GLU Q 639      35.212  52.375  72.092  1.00 42.69 LIG 0.26  C 
ATOM     13 O    GLU Q 639      34.524  52.737  71.136  1.00 42.71 LIG-0.27  OA
ATOM     14 H    GLU Q 640      36.544  52.955  73.389  1.00 42.67 LIG 0.16  HD
BRANCH 12 15
ATOM     15  CA  GLU Q 639      35.192  50.916  72.547  1.00 42.78 LIG 0.40  C 
ATOM     16  N   GLU Q 639      36.542  50.391  72.912  1.00 42.84 LIG 0.61  N 
BRANCH 15 17
ATOM     17  CB  GLU Q 639      34.214  50.761  73.716  1.00 42.78 LIG 0.06  C 
BRANCH 17 18
ATOM     18  CG  GLU Q 639      34.174  51.949  74.661  1.00 43.01 LIG 0.12  C 
BRANCH 18 19
ATOM     19  CD  GLU Q 639      35.386  52.021  75.578  1.00 43.16 LIG 0.17  C 
ATOM     20 OE1  GLU Q 639      36.351  51.251  75.375  1.00 43.27 LIG-0.65  OA
ATOM     21 OE2  GLU Q 639      35.374  52.856  76.506  1.00 43.17 LIG-0.65  OA
ENDBRANCH 18 19
ENDBRANCH 17 18
ENDBRANCH 15 17
ENDBRANCH 12 15
ENDBRANCH 5 11
ENDBRANCH 1 5
BRANCH 3 22
ATOM     22  CA  VAL Q 641      32.546  55.788  73.719  1.00 42.43 LIG 0.18  C 
BRANCH 22 23
ATOM     23  C   VAL Q 641      32.223  56.814  72.615  1.00 42.31 LIG 0.24  C 
ATOM     24 O    VAL Q 641      32.957  57.789  72.432  1.00 42.15 LIG-0.27  OA
ATOM     25  N   ASP Q 642      31.140  56.579  71.875  1.00 42.19 LIG-0.35  N 
ATOM     26 H    ASP Q 642      30.620  55.904  71.990  1.00 42.19 LIG 0.16  HD
BRANCH 25 27
ATOM     27  CA  ASP Q 642      30.740  57.470  70.780  1.00 42.17 LIG 0.17  C 
BRANCH 27 28
ATOM     28  CB  ASP Q 642      29.993  56.695  69.687  1.00 42.21 LIG 0.15  C 
BRANCH 28 29
ATOM     29  CG  ASP Q 642      30.779  56.595  68.388  1.00 42.38 LIG 0.17  C 
ATOM     30 OD1  ASP Q 642      31.295  57.627  67.902  1.00 42.36 LIG-0.65  OA
ATOM     31 OD2  ASP Q 642      30.873  55.471  67.847  1.00 42.41 LIG-0.65  OA
ENDBRANCH 28 29
ENDBRANCH 27 28
BRANCH 27 32
ATOM     32  C   ASP Q 642      29.892  58.653  71.257  1.00 42.05 LIG 0.22  C 
ATOM     33 O    ASP Q 642      30.241  59.812  71.036  1.00 41.78 LIG-0.29  OA
ENDBRANCH 27 32
ENDBRANCH 25 27
ENDBRANCH 22 23
BRANCH 22 34
ATOM     34  CB  VAL Q 641      32.273  56.332  75.152  1.00 42.38 LIG 0.01  C 
ATOM     35  CG2 VAL Q 641      30.952  55.852  75.659  1.00 42.63 LIG 0.01  C 
ATOM     36  CG1 VAL Q 641      32.375  57.858  75.218  1.00 42.36 LIG 0.01  C 
ENDBRANCH 22 34
ENDBRANCH 3 22
TORSDOF 16
ENDMDL
MODEL 47
USER: ADFR SOLUTION from run 117
USER: SCORE 15.111373 LL:  -4.268 LR: -11.812 RR:   0.000 FEB:  -7.039
USER: RMSD 8.121144
USER: SEED 116
USER: STATUS no improvement in best in 9 clusters for 5 generations
USER: GENES 18
USER: genes 0 Translation |==|  0.52153 0.47132 0.77111
USER: genes 1 Rotation |==|  0.55492 0.08121 0.50263 0.76757
USER: genes 2 Torsion [N]-C--CA-[N] |==|  0.84888
USER: genes 3 Torsion [C]-CA--CB-[CG] |==|  0.45371
USER: genes 4 Torsion [CA]-CB--CG-[CD] |==|  0.26993
USER: genes 5 Torsion [CB]-CG--CD-[OE2] |==|  0.07902
USER: genes 6 Torsion [C]-CA--N-[C] |==|  0.20105
USER: genes 7 Torsion [N]-C--CA-[N] |==|  0.47501
USER: genes 8 Torsion [C]-CA--CB-[CG] |==|  0.22105
USER: genes 9 Torsion [CA]-CB--CG-[CD] |==|  0.13316
USER: genes 10 Torsion [CB]-CG--CD-[OE2] |==|  0.21035
USER: genes 11 Torsion [C]-N--CA-[C] |==|  0.73239
USER: genes 12 Torsion [N]-CA--C-[N] |==|  0.85638
USER: genes 13 Torsion [C]-N--CA-[CB] |==|  0.50596
USER: genes 14 Torsion [N]-CA--CB-[CG] |==|  0.06031
USER: genes 15 Torsion [CA]-CB--CG-[OD1] |==|  0.82086
USER: genes 16 Torsion [N]-CA--C-[O] |==|  0.68533
USER: genes 17 Torsion [N]-CA--CB-[CG2] |==|  0.42191
ROOT
ATOM      1  C   GLU Q 640      31.325  55.756  76.135  1.00 42.49 LIG 0.24  C 
ATOM      2 O    GLU Q 640      31.143  56.229  77.255  1.00 42.42 LIG-0.27  OA
ATOM      3  N   VAL Q 641      30.458  54.948  75.534  1.00 42.52 LIG-0.35  N 
ATOM      4 H    VAL Q 641      30.609  54.568  74.778  1.00 42.52 LIG 0.16  HD
ENDROOT
BRANCH 1 5
ATOM      5  CA  GLU Q 640      32.597  56.049  75.345  1.00 42.54 LIG 0.18  C 
BRANCH 5 6
ATOM      6  CB  GLU Q 640      32.280  56.955  74.153  1.00 42.65 LIG 0.04  C 
BRANCH 6 7
ATOM      7  CG  GLU Q 640      33.502  57.628  73.542  1.00 42.42 LIG 0.12  C 
BRANCH 7 8
ATOM      8  CD  GLU Q 640      34.041  56.894  72.323  1.00 42.56 LIG 0.17  C 
ATOM      9 OE2  GLU Q 640      33.233  56.229  71.630  1.00 42.27 LIG-0.65  OA
ATOM     10 OE1  GLU Q 640      35.265  56.979  72.054  1.00 42.60 LIG-0.65  OA
ENDBRANCH 7 8
ENDBRANCH 6 7
ENDBRANCH 5 6
BRANCH 5 11
ATOM     11  N   GLU Q 640      33.324  54.854  74.913  1.00 42.67 LIG-0.35  N 
ATOM     12  C   GLU Q 639      32.864  54.073  73.938  1.00 42.69 LIG 0.26  C 
ATOM     13 O    GLU Q 639      31.881  54.365  73.254  1.00 42.71 LIG-0.27  OA
ATOM     14 H    GLU Q 640      34.056  54.709  75.340  1.00 42.67 LIG 0.16  HD
BRANCH 12 15
ATOM     15  CA  GLU Q 639      33.612  52.763  73.692  1.00 42.78 LIG 0.40  C 
ATOM     16  N   GLU Q 639      32.915  51.854  72.735  1.00 42.84 LIG 0.61  N 
BRANCH 15 17
ATOM     17  CB  GLU Q 639      35.034  53.073  73.210  1.00 42.78 LIG 0.06  C 
BRANCH 17 18
ATOM     18  CG  GLU Q 639      36.002  53.451  74.317  1.00 43.01 LIG 0.12  C 
BRANCH 18 19
ATOM     19  CD  GLU Q 639      35.954  52.496  75.501  1.00 43.16 LIG 0.17  C 
ATOM     20 OE1  GLU Q 639      35.373  52.854  76.549  1.00 43.27 LIG-0.65  OA
ATOM     21 OE2  GLU Q 639      36.498  51.379  75.380  1.00 43.17 LIG-0.65  OA
ENDBRANCH 18 19
ENDBRANCH 17 18
ENDBRANCH 15 17
ENDBRANCH 12 15
ENDBRANCH 5 11
ENDBRANCH 1 5
BRANCH 3 22
ATOM     22  CA  VAL Q 641      29.158  54.631  76.107  1.00 42.43 LIG 0.18  C 
BRANCH 22 23
ATOM     23  C   VAL Q 641      29.199  53.298  76.880  1.00 42.31 LIG 0.24  C 
ATOM     24 O    VAL Q 641      28.769  53.229  78.034  1.00 42.15 LIG-0.27  OA
ATOM     25  N   ASP Q 642      29.698  52.245  76.233  1.00 42.19 LIG-0.35  N 
ATOM     26 H    ASP Q 642      30.001  52.277  75.430  1.00 42.19 LIG 0.16  HD
BRANCH 25 27
ATOM     27  CA  ASP Q 642      29.771  50.917  76.854  1.00 42.17 LIG 0.17  C 
BRANCH 27 28
ATOM     28  CB  ASP Q 642      30.434  49.906  75.909  1.00 42.21 LIG 0.15  C 
BRANCH 28 29
ATOM     29  CG  ASP Q 642      31.300  50.565  74.846  1.00 42.38 LIG 0.17  C 
ATOM     30 OD1  ASP Q 642      30.764  51.305  73.990  1.00 42.36 LIG-0.65  OA
ATOM     31 OD2  ASP Q 642      32.529  50.332  74.867  1.00 42.41 LIG-0.65  OA
ENDBRANCH 28 29
ENDBRANCH 27 28
BRANCH 27 32
ATOM     32  C   ASP Q 642      30.498  50.930  78.201  1.00 42.05 LIG 0.22  C 
ATOM     33 O    ASP Q 642      31.579  50.360  78.344  1.00 41.78 LIG-0.29  OA
ENDBRANCH 27 32
ENDBRANCH 25 27
ENDBRANCH 22 23
BRANCH 22 34
ATOM     34  CB  VAL Q 641      28.071  54.654  74.993  1.00 42.38 LIG 0.01  C 
ATOM     35  CG2 VAL Q 641      26.946  53.730  75.331  1.00 42.63 LIG 0.01  C 
ATOM     36  CG1 VAL Q 641      28.653  54.340  73.612  1.00 42.36 LIG 0.01  C 
ENDBRANCH 22 34
ENDBRANCH 3 22
TORSDOF 16
ENDMDL
MODEL 48
USER: ADFR SOLUTION from run 67
USER: SCORE 13.383602 LL:  -2.262 LR: -11.796 RR:   0.000 FEB:  -7.023
USER: RMSD 5.170972
USER: SEED 66
USER: STATUS no improvement in best in 6 clusters for 5 generations
USER: GENES 18
USER: genes 0 Translation |==|  0.55765 0.43088 0.66280
USER: genes 1 Rotation |==|  0.78369 0.29903 0.74758 0.76045
USER: genes 2 Torsion [N]-C--CA-[N] |==|  0.32794
USER: genes 3 Torsion [C]-CA--CB-[CG] |==|  0.17329
USER: genes 4 Torsion [CA]-CB--CG-[CD] |==|  0.15326
USER: genes 5 Torsion [CB]-CG--CD-[OE2] |==|  0.97522
USER: genes 6 Torsion [C]-CA--N-[C] |==|  0.79746
USER: genes 7 Torsion [N]-C--CA-[N] |==|  0.91976
USER: genes 8 Torsion [C]-CA--CB-[CG] |==|  0.19745
USER: genes 9 Torsion [CA]-CB--CG-[CD] |==|  0.69030
USER: genes 10 Torsion [CB]-CG--CD-[OE2] |==|  0.92796
USER: genes 11 Torsion [C]-N--CA-[C] |==|  0.62433
USER: genes 12 Torsion [N]-CA--C-[N] |==|  0.88253
USER: genes 13 Torsion [C]-N--CA-[CB] |==|  0.26277
USER: genes 14 Torsion [N]-CA--CB-[CG] |==|  0.78051
USER: genes 15 Torsion [CA]-CB--CG-[OD1] |==|  0.72482
USER: genes 16 Torsion [N]-CA--C-[O] |==|  0.18800
USER: genes 17 Torsion [N]-CA--CB-[CG2] |==|  0.14336
ROOT
ATOM      1  C   GLU Q 640      32.084  55.088  74.185  1.00 42.49 LIG 0.24  C 
ATOM      2 O    GLU Q 640      31.615  55.436  75.267  1.00 42.42 LIG-0.27  OA
ATOM      3  N   VAL Q 641      32.907  54.055  74.045  1.00 42.52 LIG-0.35  N 
ATOM      4 H    VAL Q 641      33.284  53.847  73.300  1.00 42.52 LIG 0.16  HD
ENDROOT
BRANCH 1 5
ATOM      5  CA  GLU Q 640      31.766  55.847  72.900  1.00 42.54 LIG 0.18  C 
BRANCH 5 6
ATOM      6  CB  GLU Q 640      32.288  57.282  72.993  1.00 42.65 LIG 0.04  C 
BRANCH 6 7
ATOM      7  CG  GLU Q 640      33.800  57.385  73.144  1.00 42.42 LIG 0.12  C 
BRANCH 7 8
ATOM      8  CD  GLU Q 640      34.561  56.661  72.043  1.00 42.56 LIG 0.17  C 
ATOM      9 OE2  GLU Q 640      33.909  55.935  71.255  1.00 42.27 LIG-0.65  OA
ATOM     10 OE1  GLU Q 640      35.805  56.815  71.962  1.00 42.60 LIG-0.65  OA
ENDBRANCH 7 8
ENDBRANCH 6 7
ENDBRANCH 5 6
BRANCH 5 11
ATOM     11  N   GLU Q 640      30.350  55.829  72.528  1.00 42.67 LIG-0.35  N 
ATOM     12  C   GLU Q 639      29.771  54.731  72.045  1.00 42.69 LIG 0.26  C 
ATOM     13 O    GLU Q 639      30.340  53.638  72.001  1.00 42.71 LIG-0.27  OA
ATOM     14 H    GLU Q 640      29.940  56.575  72.647  1.00 42.67 LIG 0.16  HD
BRANCH 12 15
ATOM     15  CA  GLU Q 639      28.340  54.877  71.528  1.00 42.78 LIG 0.40  C 
ATOM     16  N   GLU Q 639      27.571  55.958  72.213  1.00 42.84 LIG 0.61  N 
BRANCH 15 17
ATOM     17  CB  GLU Q 639      28.368  55.106  70.013  1.00 42.78 LIG 0.06  C 
BRANCH 17 18
ATOM     18  CG  GLU Q 639      28.766  53.885  69.202  1.00 43.01 LIG 0.12  C 
BRANCH 18 19
ATOM     19  CD  GLU Q 639      30.123  54.036  68.529  1.00 43.16 LIG 0.17  C 
ATOM     20 OE1  GLU Q 639      30.785  53.011  68.255  1.00 43.27 LIG-0.65  OA
ATOM     21 OE2  GLU Q 639      30.527  55.188  68.268  1.00 43.17 LIG-0.65  OA
ENDBRANCH 18 19
ENDBRANCH 17 18
ENDBRANCH 15 17
ENDBRANCH 12 15
ENDBRANCH 5 11
ENDBRANCH 1 5
BRANCH 3 22
ATOM     22  CA  VAL Q 641      33.250  53.172  75.150  1.00 42.43 LIG 0.18  C 
BRANCH 22 23
ATOM     23  C   VAL Q 641      34.763  52.882  75.184  1.00 42.31 LIG 0.24  C 
ATOM     24 O    VAL Q 641      35.373  52.861  76.256  1.00 42.15 LIG-0.27  OA
ATOM     25  N   ASP Q 642      35.354  52.641  74.015  1.00 42.19 LIG-0.35  N 
ATOM     26 H    ASP Q 642      34.943  52.652  73.260  1.00 42.19 LIG 0.16  HD
BRANCH 25 27
ATOM     27  CA  ASP Q 642      36.785  52.331  73.918  1.00 42.17 LIG 0.17  C 
BRANCH 27 28
ATOM     28  CB  ASP Q 642      37.019  50.816  73.906  1.00 42.21 LIG 0.15  C 
BRANCH 28 29
ATOM     29  CG  ASP Q 642      36.940  50.191  75.291  1.00 42.38 LIG 0.17  C 
ATOM     30 OD1  ASP Q 642      37.998  49.946  75.914  1.00 42.36 LIG-0.65  OA
ATOM     31 OD2  ASP Q 642      35.806  49.939  75.755  1.00 42.41 LIG-0.65  OA
ENDBRANCH 28 29
ENDBRANCH 27 28
BRANCH 27 32
ATOM     32  C   ASP Q 642      37.451  52.974  72.698  1.00 42.05 LIG 0.22  C 
ATOM     33 O    ASP Q 642      37.584  54.194  72.618  1.00 41.78 LIG-0.29  OA
ENDBRANCH 27 32
ENDBRANCH 25 27
ENDBRANCH 22 23
BRANCH 22 34
ATOM     34  CB  VAL Q 641      32.384  51.880  75.081  1.00 42.38 LIG 0.01  C 
ATOM     35  CG2 VAL Q 641      32.464  51.261  73.723  1.00 42.63 LIG 0.01  C 
ATOM     36  CG1 VAL Q 641      30.932  52.137  75.492  1.00 42.36 LIG 0.01  C 
ENDBRANCH 22 34
ENDBRANCH 3 22
TORSDOF 16
ENDMDL
MODEL 49
USER: ADFR SOLUTION from run 76
USER: SCORE 14.465060 LL:  -2.728 LR: -11.786 RR:   0.000 FEB:  -7.013
USER: RMSD 6.123418
USER: SEED 75
USER: STATUS no improvement in best in 9 clusters for 5 generations
USER: GENES 18
USER: genes 0 Translation |==|  0.65381 0.37449 0.57661
USER: genes 1 Rotation |==|  0.25576 0.83782 0.42898 0.76679
USER: genes 2 Torsion [N]-C--CA-[N] |==|  0.42222
USER: genes 3 Torsion [C]-CA--CB-[CG] |==|  0.98253
USER: genes 4 Torsion [CA]-CB--CG-[CD] |==|  0.33564
USER: genes 5 Torsion [CB]-CG--CD-[OE2] |==|  0.48821
USER: genes 6 Torsion [C]-CA--N-[C] |==|  0.82762
USER: genes 7 Torsion [N]-C--CA-[N] |==|  0.44177
USER: genes 8 Torsion [C]-CA--CB-[CG] |==|  0.69098
USER: genes 9 Torsion [CA]-CB--CG-[CD] |==|  0.17416
USER: genes 10 Torsion [CB]-CG--CD-[OE2] |==|  0.23400
USER: genes 11 Torsion [C]-N--CA-[C] |==|  0.84001
USER: genes 12 Torsion [N]-CA--C-[N] |==|  0.38787
USER: genes 13 Torsion [C]-N--CA-[CB] |==|  0.43113
USER: genes 14 Torsion [N]-CA--CB-[CG] |==|  0.93779
USER: genes 15 Torsion [CA]-CB--CG-[OD1] |==|  0.22690
USER: genes 16 Torsion [N]-CA--C-[O] |==|  0.97283
USER: genes 17 Torsion [N]-CA--CB-[CG2] |==|  0.85909
ROOT
ATOM      1  C   GLU Q 640      34.103  54.158  72.634  1.00 42.49 LIG 0.24  C 
ATOM      2 O    GLU Q 640      33.513  53.526  71.761  1.00 42.42 LIG-0.27  OA
ATOM      3  N   VAL Q 641      35.427  54.237  72.709  1.00 42.52 LIG-0.35  N 
ATOM      4 H    VAL Q 641      35.844  54.627  73.352  1.00 42.52 LIG 0.16  HD
ENDROOT
BRANCH 1 5
ATOM      5  CA  GLU Q 640      33.344  54.896  73.732  1.00 42.54 LIG 0.18  C 
BRANCH 5 6
ATOM      6  CB  GLU Q 640      33.270  54.033  74.993  1.00 42.65 LIG 0.04  C 
BRANCH 6 7
ATOM      7  CG  GLU Q 640      33.817  52.623  74.814  1.00 42.42 LIG 0.12  C 
BRANCH 7 8
ATOM      8  CD  GLU Q 640      34.969  52.305  75.755  1.00 42.56 LIG 0.17  C 
ATOM      9 OE2  GLU Q 640      35.437  51.141  75.742  1.00 42.27 LIG-0.65  OA
ATOM     10 OE1  GLU Q 640      35.409  53.212  76.505  1.00 42.60 LIG-0.65  OA
ENDBRANCH 7 8
ENDBRANCH 6 7
ENDBRANCH 5 6
BRANCH 5 11
ATOM     11  N   GLU Q 640      32.012  55.357  73.335  1.00 42.67 LIG-0.35  N 
ATOM     12  C   GLU Q 639      31.845  56.237  72.350  1.00 42.69 LIG 0.26  C 
ATOM     13 O    GLU Q 639      32.770  56.621  71.631  1.00 42.71 LIG-0.27  OA
ATOM     14 H    GLU Q 640      31.367  55.014  73.787  1.00 42.67 LIG 0.16  HD
BRANCH 12 15
ATOM     15  CA  GLU Q 639      30.430  56.776  72.140  1.00 42.78 LIG 0.40  C 
ATOM     16  N   GLU Q 639      30.395  58.072  71.399  1.00 42.84 LIG 0.61  N 
BRANCH 15 17
ATOM     17  CB  GLU Q 639      29.583  55.718  71.426  1.00 42.78 LIG 0.06  C 
BRANCH 17 18
ATOM     18  CG  GLU Q 639      29.197  56.080  70.003  1.00 43.01 LIG 0.12  C 
BRANCH 18 19
ATOM     19  CD  GLU Q 639      30.398  56.232  69.081  1.00 43.16 LIG 0.17  C 
ATOM     20 OE1  GLU Q 639      30.874  57.372  68.884  1.00 43.27 LIG-0.65  OA
ATOM     21 OE2  GLU Q 639      30.871  55.204  68.554  1.00 43.17 LIG-0.65  OA
ENDBRANCH 18 19
ENDBRANCH 17 18
ENDBRANCH 15 17
ENDBRANCH 12 15
ENDBRANCH 5 11
ENDBRANCH 1 5
BRANCH 3 22
ATOM     22  CA  VAL Q 641      36.303  53.663  71.698  1.00 42.43 LIG 0.18  C 
BRANCH 22 23
ATOM     23  C   VAL Q 641      36.052  52.151  71.534  1.00 42.31 LIG 0.24  C 
ATOM     24 O    VAL Q 641      35.831  51.442  72.519  1.00 42.15 LIG-0.27  OA
ATOM     25  N   ASP Q 642      36.069  51.672  70.290  1.00 42.19 LIG-0.35  N 
ATOM     26 H    ASP Q 642      36.221  52.154  69.595  1.00 42.19 LIG 0.16  HD
BRANCH 25 27
ATOM     27  CA  ASP Q 642      35.823  50.255  70.002  1.00 42.17 LIG 0.17  C 
BRANCH 27 28
ATOM     28  CB  ASP Q 642      35.298  50.069  68.573  1.00 42.21 LIG 0.15  C 
BRANCH 28 29
ATOM     29  CG  ASP Q 642      34.656  51.327  68.006  1.00 42.38 LIG 0.17  C 
ATOM     30 OD1  ASP Q 642      35.385  52.222  67.521  1.00 42.36 LIG-0.65  OA
ATOM     31 OD2  ASP Q 642      33.409  51.420  68.054  1.00 42.41 LIG-0.65  OA
ENDBRANCH 28 29
ENDBRANCH 27 28
BRANCH 27 32
ATOM     32  C   ASP Q 642      37.059  49.380  70.224  1.00 42.05 LIG 0.22  C 
ATOM     33 O    ASP Q 642      38.163  49.883  70.431  1.00 41.78 LIG-0.29  OA
ENDBRANCH 27 32
ENDBRANCH 25 27
ENDBRANCH 22 23
BRANCH 22 34
ATOM     34  CB  VAL Q 641      37.786  54.000  72.032  1.00 42.38 LIG 0.01  C 
ATOM     35  CG2 VAL Q 641      37.954  55.463  72.287  1.00 42.63 LIG 0.01  C 
ATOM     36  CG1 VAL Q 641      38.747  53.510  70.946  1.00 42.36 LIG 0.01  C 
ENDBRANCH 22 34
ENDBRANCH 3 22
TORSDOF 16
ENDMDL
MODEL 50
USER: ADFR SOLUTION from run 112
USER: SCORE 13.680751 LL:  -2.666 LR: -11.769 RR:   0.000 FEB:  -6.996
USER: RMSD 9.122161
USER: SEED 111
USER: STATUS no improvement in best in 4 clusters for 5 generations
USER: GENES 18
USER: genes 0 Translation |==|  0.68239 0.33439 0.54794
USER: genes 1 Rotation |==|  0.34625 0.53490 0.96950 0.56864
USER: genes 2 Torsion [N]-C--CA-[N] |==|  0.63793
USER: genes 3 Torsion [C]-CA--CB-[CG] |==|  0.73142
USER: genes 4 Torsion [CA]-CB--CG-[CD] |==|  0.11530
USER: genes 5 Torsion [CB]-CG--CD-[OE2] |==|  0.20297
USER: genes 6 Torsion [C]-CA--N-[C] |==|  0.63889
USER: genes 7 Torsion [N]-C--CA-[N] |==|  0.39868
USER: genes 8 Torsion [C]-CA--CB-[CG] |==|  0.50343
USER: genes 9 Torsion [CA]-CB--CG-[CD] |==|  0.92320
USER: genes 10 Torsion [CB]-CG--CD-[OE2] |==|  0.35410
USER: genes 11 Torsion [C]-N--CA-[C] |==|  0.82064
USER: genes 12 Torsion [N]-CA--C-[N] |==|  0.41397
USER: genes 13 Torsion [C]-N--CA-[CB] |==|  0.38840
USER: genes 14 Torsion [N]-CA--CB-[CG] |==|  0.77327
USER: genes 15 Torsion [CA]-CB--CG-[OD1] |==|  0.19518
USER: genes 16 Torsion [N]-CA--C-[O] |==|  0.35211
USER: genes 17 Torsion [N]-CA--CB-[CG2] |==|  0.62748
ROOT
ATOM      1  C   GLU Q 640      34.703  53.496  72.118  1.00 42.49 LIG 0.24  C 
ATOM      2 O    GLU Q 640      33.958  53.041  71.253  1.00 42.42 LIG-0.27  OA
ATOM      3  N   VAL Q 641      34.312  54.388  73.022  1.00 42.52 LIG-0.35  N 
ATOM      4 H    VAL Q 641      34.845  54.753  73.590  1.00 42.52 LIG 0.16  HD
ENDROOT
BRANCH 1 5
ATOM      5  CA  GLU Q 640      36.168  53.081  72.205  1.00 42.54 LIG 0.18  C 
BRANCH 5 6
ATOM      6  CB  GLU Q 640      36.887  53.904  73.276  1.00 42.65 LIG 0.04  C 
BRANCH 6 7
ATOM      7  CG  GLU Q 640      37.642  55.109  72.731  1.00 42.42 LIG 0.12  C 
BRANCH 7 8
ATOM      8  CD  GLU Q 640      36.873  55.859  71.653  1.00 42.56 LIG 0.17  C 
ATOM      9 OE2  GLU Q 640      35.889  56.552  72.005  1.00 42.27 LIG-0.65  OA
ATOM     10 OE1  GLU Q 640      37.248  55.758  70.458  1.00 42.60 LIG-0.65  OA
ENDBRANCH 7 8
ENDBRANCH 6 7
ENDBRANCH 5 6
BRANCH 5 11
ATOM     11  N   GLU Q 640      36.886  53.143  70.930  1.00 42.67 LIG-0.35  N 
ATOM     12  C   GLU Q 639      37.611  52.117  70.489  1.00 42.69 LIG 0.26  C 
ATOM     13 O    GLU Q 639      37.625  51.018  71.047  1.00 42.71 LIG-0.27  OA
ATOM     14 H    GLU Q 640      36.796  53.885  70.506  1.00 42.67 LIG 0.16  HD
BRANCH 12 15
ATOM     15  CA  GLU Q 639      38.454  52.357  69.237  1.00 42.78 LIG 0.40  C 
ATOM     16  N   GLU Q 639      39.770  51.651  69.265  1.00 42.84 LIG 0.61  N 
BRANCH 15 17
ATOM     17  CB  GLU Q 639      37.649  51.955  67.997  1.00 42.78 LIG 0.06  C 
BRANCH 17 18
ATOM     18  CG  GLU Q 639      38.394  52.121  66.684  1.00 43.01 LIG 0.12  C 
BRANCH 18 19
ATOM     19  CD  GLU Q 639      39.454  53.212  66.736  1.00 43.16 LIG 0.17  C 
ATOM     20 OE1  GLU Q 639      39.135  54.353  67.134  1.00 43.27 LIG-0.65  OA
ATOM     21 OE2  GLU Q 639      40.615  52.922  66.380  1.00 43.17 LIG-0.65  OA
ENDBRANCH 18 19
ENDBRANCH 17 18
ENDBRANCH 15 17
ENDBRANCH 12 15
ENDBRANCH 5 11
ENDBRANCH 1 5
BRANCH 3 22
ATOM     22  CA  VAL Q 641      32.930  54.830  73.137  1.00 42.43 LIG 0.18  C 
BRANCH 22 23
ATOM     23  C   VAL Q 641      32.480  55.588  71.873  1.00 42.31 LIG 0.24  C 
ATOM     24 O    VAL Q 641      33.293  56.229  71.203  1.00 42.15 LIG-0.27  OA
ATOM     25  N   ASP Q 642      31.191  55.494  71.545  1.00 42.19 LIG-0.35  N 
ATOM     26 H    ASP Q 642      30.613  55.051  72.001  1.00 42.19 LIG 0.16  HD
BRANCH 25 27
ATOM     27  CA  ASP Q 642      30.645  56.152  70.353  1.00 42.17 LIG 0.17  C 
BRANCH 27 28
ATOM     28  CB  ASP Q 642      29.630  55.247  69.643  1.00 42.21 LIG 0.15  C 
BRANCH 28 29
ATOM     29  CG  ASP Q 642      30.286  54.210  68.742  1.00 42.38 LIG 0.17  C 
ATOM     30 OD1  ASP Q 642      30.921  53.263  69.259  1.00 42.36 LIG-0.65  OA
ATOM     31 OD2  ASP Q 642      30.167  54.352  67.505  1.00 42.41 LIG-0.65  OA
ENDBRANCH 28 29
ENDBRANCH 27 28
BRANCH 27 32
ATOM     32  C   ASP Q 642      30.008  57.510  70.662  1.00 42.05 LIG 0.22  C 
ATOM     33 O    ASP Q 642      30.344  58.522  70.048  1.00 41.78 LIG-0.29  OA
ENDBRANCH 27 32
ENDBRANCH 25 27
ENDBRANCH 22 23
BRANCH 22 34
ATOM     34  CB  VAL Q 641      32.750  55.662  74.441  1.00 42.38 LIG 0.01  C 
ATOM     35  CG2 VAL Q 641      31.521  55.236  75.176  1.00 42.63 LIG 0.01  C 
ATOM     36  CG1 VAL Q 641      32.739  57.169  74.166  1.00 42.36 LIG 0.01  C 
ENDBRANCH 22 34
ENDBRANCH 3 22
TORSDOF 16
ENDMDL
MODEL 51
USER: ADFR SOLUTION from run 6
USER: SCORE 13.818767 LL:  -2.649 LR: -11.760 RR:   0.000 FEB:  -6.987
USER: RMSD 7.114317
USER: SEED 160241
USER: STATUS no improvement in best in 9 clusters for 5 generations
USER: GENES 18
USER: genes 0 Translation |==|  0.67674 0.39787 0.54272
USER: genes 1 Rotation |==|  0.71195 0.77261 0.55485 0.85743
USER: genes 2 Torsion [N]-C--CA-[N] |==|  0.86311
USER: genes 3 Torsion [C]-CA--CB-[CG] |==|  0.81786
USER: genes 4 Torsion [CA]-CB--CG-[CD] |==|  0.50319
USER: genes 5 Torsion [CB]-CG--CD-[OE2] |==|  0.35543
USER: genes 6 Torsion [C]-CA--N-[C] |==|  0.68900
USER: genes 7 Torsion [N]-C--CA-[N] |==|  0.48386
USER: genes 8 Torsion [C]-CA--CB-[CG] |==|  0.67996
USER: genes 9 Torsion [CA]-CB--CG-[CD] |==|  0.20124
USER: genes 10 Torsion [CB]-CG--CD-[OE2] |==|  0.40874
USER: genes 11 Torsion [C]-N--CA-[C] |==|  0.58515
USER: genes 12 Torsion [N]-CA--C-[N] |==|  0.39913
USER: genes 13 Torsion [C]-N--CA-[CB] |==|  0.14085
USER: genes 14 Torsion [N]-CA--CB-[CG] |==|  0.13588
USER: genes 15 Torsion [CA]-CB--CG-[OD1] |==|  0.63616
USER: genes 16 Torsion [N]-CA--C-[O] |==|  0.05366
USER: genes 17 Torsion [N]-CA--CB-[CG2] |==|  0.11351
ROOT
ATOM      1  C   GLU Q 640      34.585  54.544  72.024  1.00 42.49 LIG 0.24  C 
ATOM      2 O    GLU Q 640      34.825  55.723  71.773  1.00 42.42 LIG-0.27  OA
ATOM      3  N   VAL Q 641      35.347  53.539  71.608  1.00 42.52 LIG-0.35  N 
ATOM      4 H    VAL Q 641      35.149  52.711  71.730  1.00 42.52 LIG 0.16  HD
ENDROOT
BRANCH 1 5
ATOM      5  CA  GLU Q 640      33.355  54.138  72.830  1.00 42.54 LIG 0.18  C 
BRANCH 5 6
ATOM      6  CB  GLU Q 640      33.763  53.748  74.253  1.00 42.65 LIG 0.04  C 
BRANCH 6 7
ATOM      7  CG  GLU Q 640      34.630  52.499  74.330  1.00 42.42 LIG 0.12  C 
BRANCH 7 8
ATOM      8  CD  GLU Q 640      35.000  52.114  75.755  1.00 42.56 LIG 0.17  C 
ATOM      9 OE2  GLU Q 640      34.777  50.936  76.125  1.00 42.27 LIG-0.65  OA
ATOM     10 OE1  GLU Q 640      35.511  52.983  76.505  1.00 42.60 LIG-0.65  OA
ENDBRANCH 7 8
ENDBRANCH 6 7
ENDBRANCH 5 6
BRANCH 5 11
ATOM     11  N   GLU Q 640      32.552  53.083  72.209  1.00 42.67 LIG-0.35  N 
ATOM     12  C   GLU Q 639      31.330  53.324  71.739  1.00 42.69 LIG 0.26  C 
ATOM     13 O    GLU Q 639      30.847  54.456  71.676  1.00 42.71 LIG-0.27  OA
ATOM     14 H    GLU Q 640      32.936  52.314  72.178  1.00 42.67 LIG 0.16  HD
BRANCH 12 15
ATOM     15  CA  GLU Q 639      30.520  52.114  71.273  1.00 42.78 LIG 0.40  C 
ATOM     16  N   GLU Q 639      29.117  52.453  70.891  1.00 42.84 LIG 0.61  N 
BRANCH 15 17
ATOM     17  CB  GLU Q 639      31.250  51.430  70.112  1.00 42.78 LIG 0.06  C 
BRANCH 17 18
ATOM     18  CG  GLU Q 639      30.503  51.473  68.790  1.00 43.01 LIG 0.12  C 
BRANCH 18 19
ATOM     19  CD  GLU Q 639      30.498  52.857  68.156  1.00 43.16 LIG 0.17  C 
ATOM     20 OE1  GLU Q 639      30.486  53.866  68.894  1.00 43.27 LIG-0.65  OA
ATOM     21 OE2  GLU Q 639      30.509  52.933  66.909  1.00 43.17 LIG-0.65  OA
ENDBRANCH 18 19
ENDBRANCH 17 18
ENDBRANCH 15 17
ENDBRANCH 12 15
ENDBRANCH 5 11
ENDBRANCH 1 5
BRANCH 3 22
ATOM     22  CA  VAL Q 641      36.601  53.749  70.900  1.00 42.43 LIG 0.18  C 
BRANCH 22 23
ATOM     23  C   VAL Q 641      36.886  52.599  69.914  1.00 42.31 LIG 0.24  C 
ATOM     24 O    VAL Q 641      36.564  51.441  70.191  1.00 42.15 LIG-0.27  OA
ATOM     25  N   ASP Q 642      37.469  52.928  68.761  1.00 42.19 LIG-0.35  N 
ATOM     26 H    ASP Q 642      37.699  53.729  68.554  1.00 42.19 LIG 0.16  HD
BRANCH 25 27
ATOM     27  CA  ASP Q 642      37.773  51.927  67.733  1.00 42.17 LIG 0.17  C 
BRANCH 27 28
ATOM     28  CB  ASP Q 642      36.540  51.071  67.419  1.00 42.21 LIG 0.15  C 
BRANCH 28 29
ATOM     29  CG  ASP Q 642      35.289  51.900  67.165  1.00 42.38 LIG 0.17  C 
ATOM     30 OD1  ASP Q 642      34.227  51.603  67.757  1.00 42.36 LIG-0.65  OA
ATOM     31 OD2  ASP Q 642      35.374  52.854  66.360  1.00 42.41 LIG-0.65  OA
ENDBRANCH 28 29
ENDBRANCH 27 28
BRANCH 27 32
ATOM     32  C   ASP Q 642      38.324  52.546  66.445  1.00 42.05 LIG 0.22  C 
ATOM     33 O    ASP Q 642      38.803  53.679  66.441  1.00 41.78 LIG-0.29  OA
ENDBRANCH 27 32
ENDBRANCH 25 27
ENDBRANCH 22 23
BRANCH 22 34
ATOM     34  CB  VAL Q 641      37.754  53.972  71.922  1.00 42.38 LIG 0.01  C 
ATOM     35  CG2 VAL Q 641      37.621  53.040  73.083  1.00 42.63 LIG 0.01  C 
ATOM     36  CG1 VAL Q 641      37.840  55.429  72.385  1.00 42.36 LIG 0.01  C 
ENDBRANCH 22 34
ENDBRANCH 3 22
TORSDOF 16
ENDMDL
MODEL 52
USER: ADFR SOLUTION from run 77
USER: SCORE 14.424449 LL:  -3.337 LR: -11.751 RR:   0.000 FEB:  -6.978
USER: RMSD 9.248827
USER: SEED 76
USER: STATUS no improvement in best in 11 clusters for 5 generations
USER: GENES 18
USER: genes 0 Translation |==|  0.79812 0.36787 0.49035
USER: genes 1 Rotation |==|  0.80043 0.76025 0.53255 0.80158
USER: genes 2 Torsion [N]-C--CA-[N] |==|  0.97702
USER: genes 3 Torsion [C]-CA--CB-[CG] |==|  0.66058
USER: genes 4 Torsion [CA]-CB--CG-[CD] |==|  0.66133
USER: genes 5 Torsion [CB]-CG--CD-[OE2] |==|  0.74993
USER: genes 6 Torsion [C]-CA--N-[C] |==|  0.65049
USER: genes 7 Torsion [N]-C--CA-[N] |==|  0.55629
USER: genes 8 Torsion [C]-CA--CB-[CG] |==|  0.73174
USER: genes 9 Torsion [CA]-CB--CG-[CD] |==|  0.14547
USER: genes 10 Torsion [CB]-CG--CD-[OE2] |==|  0.62944
USER: genes 11 Torsion [C]-N--CA-[C] |==|  0.68334
USER: genes 12 Torsion [N]-CA--C-[N] |==|  0.88169
USER: genes 13 Torsion [C]-N--CA-[CB] |==|  0.85072
USER: genes 14 Torsion [N]-CA--CB-[CG] |==|  0.63345
USER: genes 15 Torsion [CA]-CB--CG-[OD1] |==|  0.86094
USER: genes 16 Torsion [N]-CA--C-[O] |==|  0.99846
USER: genes 17 Torsion [N]-CA--CB-[CG2] |==|  0.43280
ROOT
ATOM      1  C   GLU Q 640      37.133  54.049  71.081  1.00 42.49 LIG 0.24  C 
ATOM      2 O    GLU Q 640      37.654  55.162  71.124  1.00 42.42 LIG-0.27  OA
ATOM      3  N   VAL Q 641      37.537  53.085  70.261  1.00 42.52 LIG-0.35  N 
ATOM      4 H    VAL Q 641      37.138  52.327  70.186  1.00 42.52 LIG 0.16  HD
ENDROOT
BRANCH 1 5
ATOM      5  CA  GLU Q 640      35.946  53.691  71.970  1.00 42.54 LIG 0.18  C 
BRANCH 5 6
ATOM      6  CB  GLU Q 640      36.357  53.741  73.443  1.00 42.65 LIG 0.04  C 
BRANCH 6 7
ATOM      7  CG  GLU Q 640      36.143  52.432  74.192  1.00 42.42 LIG 0.12  C 
BRANCH 7 8
ATOM      8  CD  GLU Q 640      35.227  52.576  75.398  1.00 42.56 LIG 0.17  C 
ATOM      9 OE2  GLU Q 640      35.748  52.854  76.505  1.00 42.27 LIG-0.65  OA
ATOM     10 OE1  GLU Q 640      33.991  52.413  75.244  1.00 42.60 LIG-0.65  OA
ENDBRANCH 7 8
ENDBRANCH 6 7
ENDBRANCH 5 6
BRANCH 5 11
ATOM     11  N   GLU Q 640      35.318  52.409  71.646  1.00 42.67 LIG-0.35  N 
ATOM     12  C   GLU Q 639      34.014  52.317  71.396  1.00 42.69 LIG 0.26  C 
ATOM     13 O    GLU Q 639      33.279  53.302  71.294  1.00 42.71 LIG-0.27  OA
ATOM     14 H    GLU Q 640      35.859  51.741  71.632  1.00 42.67 LIG 0.16  HD
BRANCH 12 15
ATOM     15  CA  GLU Q 639      33.440  50.908  71.242  1.00 42.78 LIG 0.40  C 
ATOM     16  N   GLU Q 639      32.138  50.876  70.511  1.00 42.84 LIG 0.61  N 
BRANCH 15 17
ATOM     17  CB  GLU Q 639      34.473  50.011  70.553  1.00 42.78 LIG 0.06  C 
BRANCH 17 18
ATOM     18  CG  GLU Q 639      34.277  49.866  69.054  1.00 43.01 LIG 0.12  C 
BRANCH 18 19
ATOM     19  CD  GLU Q 639      34.169  51.204  68.337  1.00 43.16 LIG 0.17  C 
ATOM     20 OE1  GLU Q 639      34.998  52.104  68.597  1.00 43.27 LIG-0.65  OA
ATOM     21 OE2  GLU Q 639      33.251  51.354  67.504  1.00 43.17 LIG-0.65  OA
ENDBRANCH 18 19
ENDBRANCH 17 18
ENDBRANCH 15 17
ENDBRANCH 12 15
ENDBRANCH 5 11
ENDBRANCH 1 5
BRANCH 3 22
ATOM     22  CA  VAL Q 641      38.706  53.225  69.405  1.00 42.43 LIG 0.18  C 
BRANCH 22 23
ATOM     23  C   VAL Q 641      38.310  53.234  67.916  1.00 42.31 LIG 0.24  C 
ATOM     24 O    VAL Q 641      38.844  54.021  67.129  1.00 42.15 LIG-0.27  OA
ATOM     25  N   ASP Q 642      37.391  52.348  67.534  1.00 42.19 LIG-0.35  N 
ATOM     26 H    ASP Q 642      37.010  51.794  68.069  1.00 42.19 LIG 0.16  HD
BRANCH 25 27
ATOM     27  CA  ASP Q 642      36.946  52.244  66.140  1.00 42.17 LIG 0.17  C 
BRANCH 27 28
ATOM     28  CB  ASP Q 642      36.475  53.604  65.611  1.00 42.21 LIG 0.15  C 
BRANCH 28 29
ATOM     29  CG  ASP Q 642      35.130  53.534  64.902  1.00 42.38 LIG 0.17  C 
ATOM     30 OD1  ASP Q 642      34.950  52.669  64.014  1.00 42.36 LIG-0.65  OA
ATOM     31 OD2  ASP Q 642      34.250  54.357  65.235  1.00 42.41 LIG-0.65  OA
ENDBRANCH 28 29
ENDBRANCH 27 28
BRANCH 27 32
ATOM     32  C   ASP Q 642      38.019  51.664  65.214  1.00 42.05 LIG 0.22  C 
ATOM     33 O    ASP Q 642      39.126  51.347  65.648  1.00 41.78 LIG-0.29  OA
ENDBRANCH 27 32
ENDBRANCH 25 27
ENDBRANCH 22 23
BRANCH 22 34
ATOM     34  CB  VAL Q 641      39.749  52.122  69.750  1.00 42.38 LIG 0.01  C 
ATOM     35  CG2 VAL Q 641      40.643  51.854  68.583  1.00 42.63 LIG 0.01  C 
ATOM     36  CG1 VAL Q 641      39.083  50.836  70.247  1.00 42.36 LIG 0.01  C 
ENDBRANCH 22 34
ENDBRANCH 3 22
TORSDOF 16
ENDMDL
MODEL 53
USER: ADFR SOLUTION from run 24
USER: SCORE 14.191522 LL:  -2.613 LR: -11.699 RR:   0.000 FEB:  -6.926
USER: RMSD 9.061942
USER: SEED 23
USER: STATUS no improvement in best in 5 clusters for 5 generations
USER: GENES 18
USER: genes 0 Translation |==|  0.59481 0.45062 0.54241
USER: genes 1 Rotation |==|  0.18247 0.22430 0.75332 0.59484
USER: genes 2 Torsion [N]-C--CA-[N] |==|  0.46984
USER: genes 3 Torsion [C]-CA--CB-[CG] |==|  0.39706
USER: genes 4 Torsion [CA]-CB--CG-[CD] |==|  0.16824
USER: genes 5 Torsion [CB]-CG--CD-[OE2] |==|  0.33617
USER: genes 6 Torsion [C]-CA--N-[C] |==|  0.76898
USER: genes 7 Torsion [N]-C--CA-[N] |==|  0.31687
USER: genes 8 Torsion [C]-CA--CB-[CG] |==|  0.75483
USER: genes 9 Torsion [CA]-CB--CG-[CD] |==|  0.58693
USER: genes 10 Torsion [CB]-CG--CD-[OE2] |==|  0.34467
USER: genes 11 Torsion [C]-N--CA-[C] |==|  0.83333
USER: genes 12 Torsion [N]-CA--C-[N] |==|  0.41539
USER: genes 13 Torsion [C]-N--CA-[CB] |==|  0.47852
USER: genes 14 Torsion [N]-CA--CB-[CG] |==|  0.84850
USER: genes 15 Torsion [CA]-CB--CG-[OD1] |==|  0.15554
USER: genes 16 Torsion [N]-CA--C-[O] |==|  0.46562
USER: genes 17 Torsion [N]-CA--CB-[CG2] |==|  0.45253
ROOT
ATOM      1  C   GLU Q 640      32.864  55.414  72.018  1.00 42.49 LIG 0.24  C 
ATOM      2 O    GLU Q 640      33.377  56.223  71.248  1.00 42.42 LIG-0.27  OA
ATOM      3  N   VAL Q 641      31.552  55.233  72.119  1.00 42.52 LIG-0.35  N 
ATOM      4 H    VAL Q 641      31.187  54.712  72.698  1.00 42.52 LIG 0.16  HD
ENDROOT
BRANCH 1 5
ATOM      5  CA  GLU Q 640      33.712  54.557  72.952  1.00 42.54 LIG 0.18  C 
BRANCH 5 6
ATOM      6  CB  GLU Q 640      33.448  54.943  74.409  1.00 42.65 LIG 0.04  C 
BRANCH 6 7
ATOM      7  CG  GLU Q 640      33.453  53.766  75.375  1.00 42.42 LIG 0.12  C 
BRANCH 7 8
ATOM      8  CD  GLU Q 640      34.782  53.026  75.409  1.00 42.56 LIG 0.17  C 
ATOM      9 OE2  GLU Q 640      35.386  52.950  76.506  1.00 42.27 LIG-0.65  OA
ATOM     10 OE1  GLU Q 640      35.224  52.522  74.347  1.00 42.60 LIG-0.65  OA
ENDBRANCH 7 8
ENDBRANCH 6 7
ENDBRANCH 5 6
BRANCH 5 11
ATOM     11  N   GLU Q 640      35.146  54.585  72.656  1.00 42.67 LIG-0.35  N 
ATOM     12  C   GLU Q 639      35.679  53.804  71.718  1.00 42.69 LIG 0.26  C 
ATOM     13 O    GLU Q 639      35.000  53.109  70.960  1.00 42.71 LIG-0.27  OA
ATOM     14 H    GLU Q 640      35.598  55.140  73.132  1.00 42.67 LIG 0.16  HD
BRANCH 12 15
ATOM     15  CA  GLU Q 639      37.204  53.791  71.617  1.00 42.78 LIG 0.40  C 
ATOM     16  N   GLU Q 639      37.809  52.473  71.972  1.00 42.84 LIG 0.61  N 
BRANCH 15 17
ATOM     17  CB  GLU Q 639      37.624  54.220  70.207  1.00 42.78 LIG 0.06  C 
BRANCH 17 18
ATOM     18  CG  GLU Q 639      37.716  53.081  69.207  1.00 43.01 LIG 0.12  C 
BRANCH 18 19
ATOM     19  CD  GLU Q 639      38.778  53.311  68.141  1.00 43.16 LIG 0.17  C 
ATOM     20 OE1  GLU Q 639      38.732  54.352  67.450  1.00 43.27 LIG-0.65  OA
ATOM     21 OE2  GLU Q 639      39.666  52.445  67.998  1.00 43.17 LIG-0.65  OA
ENDBRANCH 18 19
ENDBRANCH 17 18
ENDBRANCH 15 17
ENDBRANCH 12 15
ENDBRANCH 5 11
ENDBRANCH 1 5
BRANCH 3 22
ATOM     22  CA  VAL Q 641      30.601  55.906  71.246  1.00 42.43 LIG 0.18  C 
BRANCH 22 23
ATOM     23  C   VAL Q 641      30.709  57.438  71.378  1.00 42.31 LIG 0.24  C 
ATOM     24 O    VAL Q 641      31.069  57.952  72.440  1.00 42.15 LIG-0.27  OA
ATOM     25  N   ASP Q 642      30.415  58.155  70.294  1.00 42.19 LIG-0.35  N 
ATOM     26 H    ASP Q 642      30.162  57.812  69.548  1.00 42.19 LIG 0.16  HD
BRANCH 25 27
ATOM     27  CA  ASP Q 642      30.500  59.620  70.287  1.00 42.17 LIG 0.17  C 
BRANCH 27 28
ATOM     28  CB  ASP Q 642      30.295  60.174  68.872  1.00 42.21 LIG 0.15  C 
BRANCH 28 29
ATOM     29  CG  ASP Q 642      31.247  59.567  67.851  1.00 42.38 LIG 0.17  C 
ATOM     30 OD1  ASP Q 642      31.281  58.324  67.709  1.00 42.36 LIG-0.65  OA
ATOM     31 OD2  ASP Q 642      31.971  60.346  67.191  1.00 42.41 LIG-0.65  OA
ENDBRANCH 28 29
ENDBRANCH 27 28
BRANCH 27 32
ATOM     32  C   ASP Q 642      29.513  60.278  71.255  1.00 42.05 LIG 0.22  C 
ATOM     33 O    ASP Q 642      29.604  61.471  71.540  1.00 41.78 LIG-0.29  OA
ENDBRANCH 27 32
ENDBRANCH 25 27
ENDBRANCH 22 23
BRANCH 22 34
ATOM     34  CB  VAL Q 641      29.164  55.372  71.520  1.00 42.38 LIG 0.01  C 
ATOM     35  CG2 VAL Q 641      28.137  56.303  70.962  1.00 42.63 LIG 0.01  C 
ATOM     36  CG1 VAL Q 641      28.923  55.105  73.009  1.00 42.36 LIG 0.01  C 
ENDBRANCH 22 34
ENDBRANCH 3 22
TORSDOF 16
ENDMDL
MODEL 54
USER: ADFR SOLUTION from run 46
USER: SCORE 14.324380 LL:  -3.010 LR: -11.698 RR:   0.000 FEB:  -6.925
USER: RMSD 4.545253
USER: SEED 45
USER: STATUS no improvement in best in 4 clusters for 5 generations
USER: GENES 18
USER: genes 0 Translation |==|  0.46087 0.48042 0.59399
USER: genes 1 Rotation |==|  0.50661 0.44833 0.59655 0.98782
USER: genes 2 Torsion [N]-C--CA-[N] |==|  0.27897
USER: genes 3 Torsion [C]-CA--CB-[CG] |==|  0.76024
USER: genes 4 Torsion [CA]-CB--CG-[CD] |==|  0.46738
USER: genes 5 Torsion [CB]-CG--CD-[OE2] |==|  0.08901
USER: genes 6 Torsion [C]-CA--N-[C] |==|  0.78889
USER: genes 7 Torsion [N]-C--CA-[N] |==|  0.31748
USER: genes 8 Torsion [C]-CA--CB-[CG] |==|  0.73436
USER: genes 9 Torsion [CA]-CB--CG-[CD] |==|  0.74824
USER: genes 10 Torsion [CB]-CG--CD-[OE2] |==|  0.06079
USER: genes 11 Torsion [C]-N--CA-[C] |==|  0.83303
USER: genes 12 Torsion [N]-CA--C-[N] |==|  0.87885
USER: genes 13 Torsion [C]-N--CA-[CB] |==|  0.37595
USER: genes 14 Torsion [N]-CA--CB-[CG] |==|  0.81736
USER: genes 15 Torsion [CA]-CB--CG-[OD1] |==|  0.84223
USER: genes 16 Torsion [N]-CA--C-[O] |==|  0.07980
USER: genes 17 Torsion [N]-CA--CB-[CG2] |==|  0.16709
ROOT
ATOM      1  C   GLU Q 640      30.051  55.906  72.947  1.00 42.49 LIG 0.24  C 
ATOM      2 O    GLU Q 640      30.789  56.874  72.777  1.00 42.42 LIG-0.27  OA
ATOM      3  N   VAL Q 641      30.048  55.177  74.057  1.00 42.52 LIG-0.35  N 
ATOM      4 H    VAL Q 641      29.577  54.464  74.156  1.00 42.52 LIG 0.16  HD
ENDROOT
BRANCH 1 5
ATOM      5  CA  GLU Q 640      29.080  55.446  71.864  1.00 42.54 LIG 0.18  C 
BRANCH 5 6
ATOM      6  CB  GLU Q 640      29.779  55.425  70.503  1.00 42.65 LIG 0.04  C 
BRANCH 6 7
ATOM      7  CG  GLU Q 640      29.757  56.761  69.773  1.00 42.42 LIG 0.12  C 
BRANCH 7 8
ATOM      8  CD  GLU Q 640      30.688  56.800  68.570  1.00 42.56 LIG 0.17  C 
ATOM      9 OE2  GLU Q 640      30.874  55.735  67.934  1.00 42.27 LIG-0.65  OA
ATOM     10 OE1  GLU Q 640      31.234  57.888  68.259  1.00 42.60 LIG-0.65  OA
ENDBRANCH 7 8
ENDBRANCH 6 7
ENDBRANCH 5 6
BRANCH 5 11
ATOM     11  N   GLU Q 640      27.840  56.222  71.803  1.00 42.67 LIG-0.35  N 
ATOM     12  C   GLU Q 639      26.868  56.054  72.697  1.00 42.69 LIG 0.26  C 
ATOM     13 O    GLU Q 639      26.992  55.342  73.695  1.00 42.71 LIG-0.27  OA
ATOM     14 H    GLU Q 640      27.801  56.782  71.151  1.00 42.67 LIG 0.16  HD
BRANCH 12 15
ATOM     15  CA  GLU Q 639      25.554  56.789  72.433  1.00 42.78 LIG 0.40  C 
ATOM     16  N   GLU Q 639      24.407  55.871  72.161  1.00 42.84 LIG 0.61  N 
BRANCH 15 17
ATOM     17  CB  GLU Q 639      25.242  57.714  73.614  1.00 42.78 LIG 0.06  C 
BRANCH 17 18
ATOM     18  CG  GLU Q 639      24.307  57.114  74.650  1.00 43.01 LIG 0.12  C 
BRANCH 18 19
ATOM     19  CD  GLU Q 639      22.841  57.408  74.370  1.00 43.16 LIG 0.17  C 
ATOM     20 OE1  GLU Q 639      22.017  57.352  75.309  1.00 43.27 LIG-0.65  OA
ATOM     21 OE2  GLU Q 639      22.512  57.700  73.201  1.00 43.17 LIG-0.65  OA
ENDBRANCH 18 19
ENDBRANCH 17 18
ENDBRANCH 15 17
ENDBRANCH 12 15
ENDBRANCH 5 11
ENDBRANCH 1 5
BRANCH 3 22
ATOM     22  CA  VAL Q 641      30.850  55.522  75.222  1.00 42.43 LIG 0.18  C 
BRANCH 22 23
ATOM     23  C   VAL Q 641      32.352  55.546  74.879  1.00 42.31 LIG 0.24  C 
ATOM     24 O    VAL Q 641      33.079  56.448  75.305  1.00 42.15 LIG-0.27  OA
ATOM     25  N   ASP Q 642      32.812  54.546  74.127  1.00 42.19 LIG-0.35  N 
ATOM     26 H    ASP Q 642      32.319  53.911  73.823  1.00 42.19 LIG 0.16  HD
BRANCH 25 27
ATOM     27  CA  ASP Q 642      34.226  54.446  73.750  1.00 42.17 LIG 0.17  C 
BRANCH 27 28
ATOM     28  CB  ASP Q 642      34.740  53.011  73.925  1.00 42.21 LIG 0.15  C 
BRANCH 28 29
ATOM     29  CG  ASP Q 642      34.759  52.559  75.377  1.00 42.38 LIG 0.17  C 
ATOM     30 OD1  ASP Q 642      35.405  53.225  76.219  1.00 42.36 LIG-0.65  OA
ATOM     31 OD2  ASP Q 642      34.124  51.523  75.675  1.00 42.41 LIG-0.65  OA
ENDBRANCH 28 29
ENDBRANCH 27 28
BRANCH 27 32
ATOM     32  C   ASP Q 642      34.497  54.929  72.322  1.00 42.05 LIG 0.22  C 
ATOM     33 O    ASP Q 642      33.790  55.790  71.800  1.00 41.78 LIG-0.29  OA
ENDBRANCH 27 32
ENDBRANCH 25 27
ENDBRANCH 22 23
BRANCH 22 34
ATOM     34  CB  VAL Q 641      30.511  54.562  76.400  1.00 42.38 LIG 0.01  C 
ATOM     35  CG2 VAL Q 641      30.801  53.144  76.028  1.00 42.63 LIG 0.01  C 
ATOM     36  CG1 VAL Q 641      29.067  54.728  76.881  1.00 42.36 LIG 0.01  C 
ENDBRANCH 22 34
ENDBRANCH 3 22
TORSDOF 16
ENDMDL
MODEL 55
USER: ADFR SOLUTION from run 94
USER: SCORE 13.676645 LL:  -2.902 LR: -11.689 RR:   0.000 FEB:  -6.916
USER: RMSD 8.523706
USER: SEED 93
USER: STATUS no improvement in best in 5 clusters for 5 generations
USER: GENES 18
USER: genes 0 Translation |==|  0.78906 0.37252 0.52434
USER: genes 1 Rotation |==|  0.72795 0.87744 0.43187 0.72569
USER: genes 2 Torsion [N]-C--CA-[N] |==|  0.70967
USER: genes 3 Torsion [C]-CA--CB-[CG] |==|  0.66498
USER: genes 4 Torsion [CA]-CB--CG-[CD] |==|  0.79190
USER: genes 5 Torsion [CB]-CG--CD-[OE2] |==|  0.50405
USER: genes 6 Torsion [C]-CA--N-[C] |==|  0.13333
USER: genes 7 Torsion [N]-C--CA-[N] |==|  0.68834
USER: genes 8 Torsion [C]-CA--CB-[CG] |==|  0.23785
USER: genes 9 Torsion [CA]-CB--CG-[CD] |==|  0.92503
USER: genes 10 Torsion [CB]-CG--CD-[OE2] |==|  0.20638
USER: genes 11 Torsion [C]-N--CA-[C] |==|  0.62048
USER: genes 12 Torsion [N]-CA--C-[N] |==|  0.45641
USER: genes 13 Torsion [C]-N--CA-[CB] |==|  0.45631
USER: genes 14 Torsion [N]-CA--CB-[CG] |==|  0.89564
USER: genes 15 Torsion [CA]-CB--CG-[OD1] |==|  0.74694
USER: genes 16 Torsion [N]-CA--C-[O] |==|  0.93409
USER: genes 17 Torsion [N]-CA--CB-[CG2] |==|  0.53253
ROOT
ATOM      1  C   GLU Q 640      36.943  54.126  71.693  1.00 42.49 LIG 0.24  C 
ATOM      2 O    GLU Q 640      37.060  55.257  71.228  1.00 42.42 LIG-0.27  OA
ATOM      3  N   VAL Q 641      37.025  53.022  70.958  1.00 42.52 LIG-0.35  N 
ATOM      4 H    VAL Q 641      36.884  52.233  71.269  1.00 42.52 LIG 0.16  HD
ENDROOT
BRANCH 1 5
ATOM      5  CA  GLU Q 640      36.668  53.900  73.177  1.00 42.54 LIG 0.18  C 
BRANCH 5 6
ATOM      6  CB  GLU Q 640      37.057  52.475  73.574  1.00 42.65 LIG 0.04  C 
BRANCH 6 7
ATOM      7  CG  GLU Q 640      35.908  51.652  74.140  1.00 42.42 LIG 0.12  C 
BRANCH 7 8
ATOM      8  CD  GLU Q 640      35.536  52.042  75.562  1.00 42.56 LIG 0.17  C 
ATOM      9 OE2  GLU Q 640      34.617  51.402  76.128  1.00 42.27 LIG-0.65  OA
ATOM     10 OE1  GLU Q 640      36.157  52.983  76.116  1.00 42.60 LIG-0.65  OA
ENDBRANCH 7 8
ENDBRANCH 6 7
ENDBRANCH 5 6
BRANCH 5 11
ATOM     11  N   GLU Q 640      35.294  54.200  73.584  1.00 42.67 LIG-0.35  N 
ATOM     12  C   GLU Q 639      34.249  53.737  72.901  1.00 42.69 LIG 0.26  C 
ATOM     13 O    GLU Q 639      34.358  52.934  71.972  1.00 42.71 LIG-0.27  OA
ATOM     14 H    GLU Q 640      35.230  54.690  74.288  1.00 42.67 LIG 0.16  HD
BRANCH 12 15
ATOM     15  CA  GLU Q 639      32.872  54.256  73.315  1.00 42.78 LIG 0.40  C 
ATOM     16  N   GLU Q 639      32.005  53.208  73.930  1.00 42.84 LIG 0.61  N 
BRANCH 15 17
ATOM     17  CB  GLU Q 639      33.041  55.448  74.263  1.00 42.78 LIG 0.06  C 
BRANCH 17 18
ATOM     18  CG  GLU Q 639      33.215  56.785  73.565  1.00 43.01 LIG 0.12  C 
BRANCH 18 19
ATOM     19  CD  GLU Q 639      33.826  56.656  72.178  1.00 43.16 LIG 0.17  C 
ATOM     20 OE1  GLU Q 639      35.020  56.986  72.005  1.00 43.27 LIG-0.65  OA
ATOM     21 OE2  GLU Q 639      33.107  56.218  71.256  1.00 43.17 LIG-0.65  OA
ENDBRANCH 18 19
ENDBRANCH 17 18
ENDBRANCH 15 17
ENDBRANCH 12 15
ENDBRANCH 5 11
ENDBRANCH 1 5
BRANCH 3 22
ATOM     22  CA  VAL Q 641      37.365  53.048  69.543  1.00 42.43 LIG 0.18  C 
BRANCH 22 23
ATOM     23  C   VAL Q 641      36.459  52.099  68.733  1.00 42.31 LIG 0.24  C 
ATOM     24 O    VAL Q 641      35.776  51.246  69.304  1.00 42.15 LIG-0.27  OA
ATOM     25  N   ASP Q 642      36.446  52.266  67.411  1.00 42.19 LIG-0.35  N 
ATOM     26 H    ASP Q 642      36.916  52.856  66.999  1.00 42.19 LIG 0.16  HD
BRANCH 25 27
ATOM     27  CA  ASP Q 642      35.610  51.440  66.533  1.00 42.17 LIG 0.17  C 
BRANCH 27 28
ATOM     28  CB  ASP Q 642      35.480  52.073  65.143  1.00 42.21 LIG 0.15  C 
BRANCH 28 29
ATOM     29  CG  ASP Q 642      35.378  53.591  65.188  1.00 42.38 LIG 0.17  C 
ATOM     30 OD1  ASP Q 642      34.249  54.128  65.252  1.00 42.36 LIG-0.65  OA
ATOM     31 OD2  ASP Q 642      36.441  54.250  65.153  1.00 42.41 LIG-0.65  OA
ENDBRANCH 28 29
ENDBRANCH 27 28
BRANCH 27 32
ATOM     32  C   ASP Q 642      36.120  50.001  66.408  1.00 42.05 LIG 0.22  C 
ATOM     33 O    ASP Q 642      37.301  49.727  66.617  1.00 41.78 LIG-0.29  OA
ENDBRANCH 27 32
ENDBRANCH 25 27
ENDBRANCH 22 23
BRANCH 22 34
ATOM     34  CB  VAL Q 641      38.881  52.746  69.359  1.00 42.38 LIG 0.01  C 
ATOM     35  CG2 VAL Q 641      39.314  53.042  67.960  1.00 42.63 LIG 0.01  C 
ATOM     36  CG1 VAL Q 641      39.235  51.312  69.760  1.00 42.36 LIG 0.01  C 
ENDBRANCH 22 34
ENDBRANCH 3 22
TORSDOF 16
ENDMDL
MODEL 56
USER: ADFR SOLUTION from run 6
USER: SCORE 13.938426 LL:  -2.736 LR: -11.671 RR:   0.000 FEB:  -6.899
USER: RMSD 6.695455
USER: SEED 160241
USER: STATUS no improvement in best in 9 clusters for 5 generations
USER: GENES 18
USER: genes 0 Translation |==|  0.69450 0.43714 0.55214
USER: genes 1 Rotation |==|  0.75288 0.75625 0.50793 0.84688
USER: genes 2 Torsion [N]-C--CA-[N] |==|  0.85973
USER: genes 3 Torsion [C]-CA--CB-[CG] |==|  0.81426
USER: genes 4 Torsion [CA]-CB--CG-[CD] |==|  0.49587
USER: genes 5 Torsion [CB]-CG--CD-[OE2] |==|  0.37311
USER: genes 6 Torsion [C]-CA--N-[C] |==|  0.80002
USER: genes 7 Torsion [N]-C--CA-[N] |==|  0.04671
USER: genes 8 Torsion [C]-CA--CB-[CG] |==|  0.33213
USER: genes 9 Torsion [CA]-CB--CG-[CD] |==|  0.91472
USER: genes 10 Torsion [CB]-CG--CD-[OE2] |==|  0.21011
USER: genes 11 Torsion [C]-N--CA-[C] |==|  0.58465
USER: genes 12 Torsion [N]-CA--C-[N] |==|  0.48151
USER: genes 13 Torsion [C]-N--CA-[CB] |==|  0.38482
USER: genes 14 Torsion [N]-CA--CB-[CG] |==|  0.12557
USER: genes 15 Torsion [CA]-CB--CG-[OD1] |==|  0.30183
USER: genes 16 Torsion [N]-CA--C-[O] |==|  0.14223
USER: genes 17 Torsion [N]-CA--CB-[CG2] |==|  0.12171
ROOT
ATOM      1  C   GLU Q 640      34.957  55.192  72.193  1.00 42.49 LIG 0.24  C 
ATOM      2 O    GLU Q 640      35.463  56.288  71.960  1.00 42.42 LIG-0.27  OA
ATOM      3  N   VAL Q 641      35.419  54.053  71.689  1.00 42.52 LIG-0.35  N 
ATOM      4 H    VAL Q 641      35.033  53.293  71.801  1.00 42.52 LIG 0.16  HD
ENDROOT
BRANCH 1 5
ATOM      5  CA  GLU Q 640      33.724  55.058  73.081  1.00 42.54 LIG 0.18  C 
BRANCH 5 6
ATOM      6  CB  GLU Q 640      34.115  54.484  74.444  1.00 42.65 LIG 0.04  C 
BRANCH 6 7
ATOM      7  CG  GLU Q 640      34.604  53.043  74.394  1.00 42.42 LIG 0.12  C 
BRANCH 7 8
ATOM      8  CD  GLU Q 640      35.021  52.505  75.755  1.00 42.56 LIG 0.17  C 
ATOM      9 OE2  GLU Q 640      34.623  51.362  76.084  1.00 42.27 LIG-0.65  OA
ATOM     10 OE1  GLU Q 640      35.743  53.219  76.495  1.00 42.60 LIG-0.65  OA
ENDBRANCH 7 8
ENDBRANCH 6 7
ENDBRANCH 5 6
BRANCH 5 11
ATOM     11  N   GLU Q 640      32.635  54.284  72.481  1.00 42.67 LIG-0.35  N 
ATOM     12  C   GLU Q 639      31.905  54.771  71.479  1.00 42.69 LIG 0.26  C 
ATOM     13 O    GLU Q 639      32.171  55.832  70.910  1.00 42.71 LIG-0.27  OA
ATOM     14 H    GLU Q 640      32.516  53.507  72.828  1.00 42.67 LIG 0.16  HD
BRANCH 12 15
ATOM     15  CA  GLU Q 639      30.688  53.951  71.051  1.00 42.78 LIG 0.40  C 
ATOM     16  N   GLU Q 639      30.271  52.938  72.066  1.00 42.84 LIG 0.61  N 
BRANCH 15 17
ATOM     17  CB  GLU Q 639      29.529  54.896  70.718  1.00 42.78 LIG 0.06  C 
BRANCH 17 18
ATOM     18  CG  GLU Q 639      29.030  54.796  69.287  1.00 43.01 LIG 0.12  C 
BRANCH 18 19
ATOM     19  CD  GLU Q 639      30.123  54.408  68.302  1.00 43.16 LIG 0.17  C 
ATOM     20 OE1  GLU Q 639      30.611  55.285  67.556  1.00 43.27 LIG-0.65  OA
ATOM     21 OE2  GLU Q 639      30.498  53.217  68.277  1.00 43.17 LIG-0.65  OA
ENDBRANCH 18 19
ENDBRANCH 17 18
ENDBRANCH 15 17
ENDBRANCH 12 15
ENDBRANCH 5 11
ENDBRANCH 1 5
BRANCH 3 22
ATOM     22  CA  VAL Q 641      36.635  53.987  70.892  1.00 42.43 LIG 0.18  C 
BRANCH 22 23
ATOM     23  C   VAL Q 641      36.562  52.848  69.855  1.00 42.31 LIG 0.24  C 
ATOM     24 O    VAL Q 641      35.608  52.066  69.849  1.00 42.15 LIG-0.27  OA
ATOM     25  N   ASP Q 642      37.560  52.774  68.974  1.00 42.19 LIG-0.35  N 
ATOM     26 H    ASP Q 642      38.231  53.311  68.966  1.00 42.19 LIG 0.16  HD
BRANCH 25 27
ATOM     27  CA  ASP Q 642      37.594  51.748  67.926  1.00 42.17 LIG 0.17  C 
BRANCH 27 28
ATOM     28  CB  ASP Q 642      38.066  52.342  66.593  1.00 42.21 LIG 0.15  C 
BRANCH 28 29
ATOM     29  CG  ASP Q 642      39.282  53.245  66.741  1.00 42.38 LIG 0.17  C 
ATOM     30 OD1  ASP Q 642      40.392  52.854  66.314  1.00 42.36 LIG-0.65  OA
ATOM     31 OD2  ASP Q 642      39.121  54.355  67.296  1.00 42.41 LIG-0.65  OA
ENDBRANCH 28 29
ENDBRANCH 27 28
BRANCH 27 32
ATOM     32  C   ASP Q 642      38.463  50.544  68.300  1.00 42.05 LIG 0.22  C 
ATOM     33 O    ASP Q 642      38.309  49.961  69.373  1.00 41.78 LIG-0.29  OA
ENDBRANCH 27 32
ENDBRANCH 25 27
ENDBRANCH 22 23
BRANCH 22 34
ATOM     34  CB  VAL Q 641      37.874  53.877  71.827  1.00 42.38 LIG 0.01  C 
ATOM     35  CG2 VAL Q 641      37.623  52.899  72.928  1.00 42.63 LIG 0.01  C 
ATOM     36  CG1 VAL Q 641      38.301  55.240  72.380  1.00 42.36 LIG 0.01  C 
ENDBRANCH 22 34
ENDBRANCH 3 22
TORSDOF 16
ENDMDL
MODEL 57
USER: ADFR SOLUTION from run 109
USER: SCORE 13.897475 LL:  -2.640 LR: -11.670 RR:   0.000 FEB:  -6.897
USER: RMSD 7.627764
USER: SEED 108
USER: STATUS no improvement in best in 6 clusters for 5 generations
USER: GENES 18
USER: genes 0 Translation |==|  0.51245 0.28903 0.57607
USER: genes 1 Rotation |==|  0.71787 0.36247 0.08372 0.60165
USER: genes 2 Torsion [N]-C--CA-[N] |==|  0.01111
USER: genes 3 Torsion [C]-CA--CB-[CG] |==|  0.49461
USER: genes 4 Torsion [CA]-CB--CG-[CD] |==|  0.41629
USER: genes 5 Torsion [CB]-CG--CD-[OE2] |==|  0.61043
USER: genes 6 Torsion [C]-CA--N-[C] |==|  0.19055
USER: genes 7 Torsion [N]-C--CA-[N] |==|  0.69985
USER: genes 8 Torsion [C]-CA--CB-[CG] |==|  0.74029
USER: genes 9 Torsion [CA]-CB--CG-[CD] |==|  0.29461
USER: genes 10 Torsion [CB]-CG--CD-[OE2] |==|  0.53317
USER: genes 11 Torsion [C]-N--CA-[C] |==|  0.71038
USER: genes 12 Torsion [N]-CA--C-[N] |==|  0.00706
USER: genes 13 Torsion [C]-N--CA-[CB] |==|  0.33486
USER: genes 14 Torsion [N]-CA--CB-[CG] |==|  0.19609
USER: genes 15 Torsion [CA]-CB--CG-[OD1] |==|  0.88077
USER: genes 16 Torsion [N]-CA--C-[O] |==|  0.95387
USER: genes 17 Torsion [N]-CA--CB-[CG2] |==|  0.24552
ROOT
ATOM      1  C   GLU Q 640      31.134  52.748  72.624  1.00 42.49 LIG 0.24  C 
ATOM      2 O    GLU Q 640      30.975  51.594  72.231  1.00 42.42 LIG-0.27  OA
ATOM      3  N   VAL Q 641      30.141  53.621  72.747  1.00 42.52 LIG-0.35  N 
ATOM      4 H    VAL Q 641      30.257  54.445  72.964  1.00 42.52 LIG 0.16  HD
ENDROOT
BRANCH 1 5
ATOM      5  CA  GLU Q 640      32.517  53.281  72.987  1.00 42.54 LIG 0.18  C 
BRANCH 5 6
ATOM      6  CB  GLU Q 640      33.209  52.329  73.966  1.00 42.65 LIG 0.04  C 
BRANCH 6 7
ATOM      7  CG  GLU Q 640      34.619  52.753  74.353  1.00 42.42 LIG 0.12  C 
BRANCH 7 8
ATOM      8  CD  GLU Q 640      35.012  52.312  75.755  1.00 42.56 LIG 0.17  C 
ATOM      9 OE2  GLU Q 640      35.674  53.111  76.460  1.00 42.27 LIG-0.65  OA
ATOM     10 OE1  GLU Q 640      34.664  51.173  76.153  1.00 42.60 LIG-0.65  OA
ENDBRANCH 7 8
ENDBRANCH 6 7
ENDBRANCH 5 6
BRANCH 5 11
ATOM     11  N   GLU Q 640      32.516  54.651  73.504  1.00 42.67 LIG-0.35  N 
ATOM     12  C   GLU Q 639      31.988  54.947  74.690  1.00 42.69 LIG 0.26  C 
ATOM     13 O    GLU Q 639      31.588  54.088  75.478  1.00 42.71 LIG-0.27  OA
ATOM     14 H    GLU Q 640      32.878  55.229  72.981  1.00 42.67 LIG 0.16  HD
BRANCH 12 15
ATOM     15  CA  GLU Q 639      31.885  56.429  75.047  1.00 42.78 LIG 0.40  C 
ATOM     16  N   GLU Q 639      32.857  56.853  76.099  1.00 42.84 LIG 0.61  N 
BRANCH 15 17
ATOM     17  CB  GLU Q 639      32.056  57.272  73.779  1.00 42.78 LIG 0.06  C 
BRANCH 17 18
ATOM     18  CG  GLU Q 639      33.480  57.730  73.517  1.00 43.01 LIG 0.12  C 
BRANCH 18 19
ATOM     19  CD  GLU Q 639      34.149  56.971  72.380  1.00 43.16 LIG 0.17  C 
ATOM     20 OE1  GLU Q 639      33.451  56.247  71.637  1.00 43.27 LIG-0.65  OA
ATOM     21 OE2  GLU Q 639      35.381  57.103  72.229  1.00 43.17 LIG-0.65  OA
ENDBRANCH 18 19
ENDBRANCH 17 18
ENDBRANCH 15 17
ENDBRANCH 12 15
ENDBRANCH 5 11
ENDBRANCH 1 5
BRANCH 3 22
ATOM     22  CA  VAL Q 641      28.749  53.258  72.524  1.00 42.43 LIG 0.18  C 
BRANCH 22 23
ATOM     23  C   VAL Q 641      28.245  53.786  71.166  1.00 42.31 LIG 0.24  C 
ATOM     24 O    VAL Q 641      27.067  53.630  70.831  1.00 42.15 LIG-0.27  OA
ATOM     25  N   ASP Q 642      29.132  54.423  70.403  1.00 42.19 LIG-0.35  N 
ATOM     26 H    ASP Q 642      29.955  54.539  70.623  1.00 42.19 LIG 0.16  HD
BRANCH 25 27
ATOM     27  CA  ASP Q 642      28.770  54.989  69.099  1.00 42.17 LIG 0.17  C 
BRANCH 27 28
ATOM     28  CB  ASP Q 642      29.021  56.502  69.069  1.00 42.21 LIG 0.15  C 
BRANCH 28 29
ATOM     29  CG  ASP Q 642      30.500  56.859  69.062  1.00 42.38 LIG 0.17  C 
ATOM     30 OD1  ASP Q 642      31.284  56.241  69.818  1.00 42.36 LIG-0.65  OA
ATOM     31 OD2  ASP Q 642      30.878  57.771  68.294  1.00 42.41 LIG-0.65  OA
ENDBRANCH 28 29
ENDBRANCH 27 28
BRANCH 27 32
ATOM     32  C   ASP Q 642      29.498  54.313  67.934  1.00 42.05 LIG 0.22  C 
ATOM     33 O    ASP Q 642      30.497  53.621  68.127  1.00 41.78 LIG-0.29  OA
ENDBRANCH 27 32
ENDBRANCH 25 27
ENDBRANCH 22 23
BRANCH 22 34
ATOM     34  CB  VAL Q 641      27.880  53.738  73.723  1.00 42.38 LIG 0.01  C 
ATOM     35  CG2 VAL Q 641      27.400  55.136  73.505  1.00 42.63 LIG 0.01  C 
ATOM     36  CG1 VAL Q 641      28.616  53.604  75.059  1.00 42.36 LIG 0.01  C 
ENDBRANCH 22 34
ENDBRANCH 3 22
TORSDOF 16
ENDMDL
MODEL 58
USER: ADFR SOLUTION from run 198
USER: SCORE 14.359988 LL:  -2.928 LR: -11.662 RR:   0.000 FEB:  -6.889
USER: RMSD 3.853594
USER: SEED 197
USER: STATUS no improvement in best in 6 clusters for 5 generations
USER: GENES 18
USER: genes 0 Translation |==|  0.48557 0.56757 0.52669
USER: genes 1 Rotation |==|  0.62087 0.54612 0.59253 0.97403
USER: genes 2 Torsion [N]-C--CA-[N] |==|  0.43141
USER: genes 3 Torsion [C]-CA--CB-[CG] |==|  0.72757
USER: genes 4 Torsion [CA]-CB--CG-[CD] |==|  0.23761
USER: genes 5 Torsion [CB]-CG--CD-[OE2] |==|  0.67790
USER: genes 6 Torsion [C]-CA--N-[C] |==|  0.63183
USER: genes 7 Torsion [N]-C--CA-[N] |==|  0.41275
USER: genes 8 Torsion [C]-CA--CB-[CG] |==|  0.67476
USER: genes 9 Torsion [CA]-CB--CG-[CD] |==|  0.19227
USER: genes 10 Torsion [CB]-CG--CD-[OE2] |==|  0.72730
USER: genes 11 Torsion [C]-N--CA-[C] |==|  0.57163
USER: genes 12 Torsion [N]-CA--C-[N] |==|  0.45433
USER: genes 13 Torsion [C]-N--CA-[CB] |==|  0.84005
USER: genes 14 Torsion [N]-CA--CB-[CG] |==|  0.64366
USER: genes 15 Torsion [CA]-CB--CG-[OD1] |==|  0.17395
USER: genes 16 Torsion [N]-CA--C-[O] |==|  0.09660
USER: genes 17 Torsion [N]-CA--CB-[CG2] |==|  0.63613
ROOT
ATOM      1  C   GLU Q 640      30.570  57.344  71.735  1.00 42.49 LIG 0.24  C 
ATOM      2 O    GLU Q 640      31.190  58.400  71.630  1.00 42.42 LIG-0.27  OA
ATOM      3  N   VAL Q 641      31.039  56.283  72.383  1.00 42.52 LIG-0.35  N 
ATOM      4 H    VAL Q 641      30.634  55.524  72.407  1.00 42.52 LIG 0.16  HD
ENDROOT
BRANCH 1 5
ATOM      5  CA  GLU Q 640      29.196  57.162  71.098  1.00 42.54 LIG 0.18  C 
BRANCH 5 6
ATOM      6  CB  GLU Q 640      29.323  56.390  69.783  1.00 42.65 LIG 0.04  C 
BRANCH 6 7
ATOM      7  CG  GLU Q 640      29.340  57.274  68.543  1.00 42.42 LIG 0.12  C 
BRANCH 7 8
ATOM      8  CD  GLU Q 640      30.727  57.798  68.201  1.00 42.56 LIG 0.17  C 
ATOM      9 OE2  GLU Q 640      30.918  59.037  68.255  1.00 42.27 LIG-0.65  OA
ATOM     10 OE1  GLU Q 640      31.623  56.979  67.880  1.00 42.60 LIG-0.65  OA
ENDBRANCH 7 8
ENDBRANCH 6 7
ENDBRANCH 5 6
BRANCH 5 11
ATOM     11  N   GLU Q 640      28.456  58.410  70.902  1.00 42.67 LIG-0.35  N 
ATOM     12  C   GLU Q 639      27.179  58.526  71.263  1.00 42.69 LIG 0.26  C 
ATOM     13 O    GLU Q 639      26.579  57.653  71.893  1.00 42.71 LIG-0.27  OA
ATOM     14 H    GLU Q 640      28.913  59.043  70.542  1.00 42.67 LIG 0.16  HD
BRANCH 12 15
ATOM     15  CA  GLU Q 639      26.461  59.812  70.852  1.00 42.78 LIG 0.40  C 
ATOM     16  N   GLU Q 639      25.003  59.619  70.594  1.00 42.84 LIG 0.61  N 
BRANCH 15 17
ATOM     17  CB  GLU Q 639      26.687  60.885  71.923  1.00 42.78 LIG 0.06  C 
BRANCH 17 18
ATOM     18  CG  GLU Q 639      25.420  61.353  72.617  1.00 43.01 LIG 0.12  C 
BRANCH 18 19
ATOM     19  CD  GLU Q 639      24.807  60.289  73.516  1.00 43.16 LIG 0.17  C 
ATOM     20 OE1  GLU Q 639      25.262  60.130  74.670  1.00 43.27 LIG-0.65  OA
ATOM     21 OE2  GLU Q 639      23.860  59.612  73.065  1.00 43.17 LIG-0.65  OA
ENDBRANCH 18 19
ENDBRANCH 17 18
ENDBRANCH 15 17
ENDBRANCH 12 15
ENDBRANCH 5 11
ENDBRANCH 1 5
BRANCH 3 22
ATOM     22  CA  VAL Q 641      32.294  56.308  73.120  1.00 42.43 LIG 0.18  C 
BRANCH 22 23
ATOM     23  C   VAL Q 641      32.913  54.900  73.218  1.00 42.31 LIG 0.24  C 
ATOM     24 O    VAL Q 641      32.235  53.899  72.970  1.00 42.15 LIG-0.27  OA
ATOM     25  N   ASP Q 642      34.199  54.832  73.560  1.00 42.19 LIG-0.35  N 
ATOM     26 H    ASP Q 642      34.683  55.520  73.736  1.00 42.19 LIG 0.16  HD
BRANCH 25 27
ATOM     27  CA  ASP Q 642      34.907  53.552  73.668  1.00 42.17 LIG 0.17  C 
BRANCH 27 28
ATOM     28  CB  ASP Q 642      34.215  52.625  74.675  1.00 42.21 LIG 0.15  C 
BRANCH 28 29
ATOM     29  CG  ASP Q 642      35.168  52.067  75.722  1.00 42.38 LIG 0.17  C 
ATOM     30 OD1  ASP Q 642      35.748  52.854  76.505  1.00 42.36 LIG-0.65  OA
ATOM     31 OD2  ASP Q 642      35.340  50.828  75.755  1.00 42.41 LIG-0.65  OA
ENDBRANCH 28 29
ENDBRANCH 27 28
BRANCH 27 32
ATOM     32  C   ASP Q 642      35.058  52.841  72.320  1.00 42.05 LIG 0.22  C 
ATOM     33 O    ASP Q 642      35.226  53.480  71.282  1.00 41.78 LIG-0.29  OA
ENDBRANCH 27 32
ENDBRANCH 25 27
ENDBRANCH 22 23
BRANCH 22 34
ATOM     34  CB  VAL Q 641      32.077  56.975  74.510  1.00 42.38 LIG 0.01  C 
ATOM     35  CG2 VAL Q 641      33.115  58.020  74.765  1.00 42.63 LIG 0.01  C 
ATOM     36  CG1 VAL Q 641      32.034  55.945  75.642  1.00 42.36 LIG 0.01  C 
ENDBRANCH 22 34
ENDBRANCH 3 22
TORSDOF 16
ENDMDL
MODEL 59
USER: ADFR SOLUTION from run 35
USER: SCORE 14.427331 LL:  -2.968 LR: -11.653 RR:   0.000 FEB:  -6.880
USER: RMSD 5.229978
USER: SEED 34
USER: STATUS no improvement in best in 10 clusters for 5 generations
USER: GENES 18
USER: genes 0 Translation |==|  0.55470 0.49058 0.55277
USER: genes 1 Rotation |==|  0.40797 0.51104 0.44212 0.98791
USER: genes 2 Torsion [N]-C--CA-[N] |==|  0.97233
USER: genes 3 Torsion [C]-CA--CB-[CG] |==|  0.38168
USER: genes 4 Torsion [CA]-CB--CG-[CD] |==|  0.82794
USER: genes 5 Torsion [CB]-CG--CD-[OE2] |==|  0.73977
USER: genes 6 Torsion [C]-CA--N-[C] |==|  0.78916
USER: genes 7 Torsion [N]-C--CA-[N] |==|  0.51498
USER: genes 8 Torsion [C]-CA--CB-[CG] |==|  0.68305
USER: genes 9 Torsion [CA]-CB--CG-[CD] |==|  0.19668
USER: genes 10 Torsion [CB]-CG--CD-[OE2] |==|  0.86519
USER: genes 11 Torsion [C]-N--CA-[C] |==|  0.74015
USER: genes 12 Torsion [N]-CA--C-[N] |==|  0.29784
USER: genes 13 Torsion [C]-N--CA-[CB] |==|  0.46577
USER: genes 14 Torsion [N]-CA--CB-[CG] |==|  0.95673
USER: genes 15 Torsion [CA]-CB--CG-[OD1] |==|  0.32527
USER: genes 16 Torsion [N]-CA--C-[O] |==|  0.14626
USER: genes 17 Torsion [N]-CA--CB-[CG2] |==|  0.10667
ROOT
ATOM      1  C   GLU Q 640      32.022  56.074  72.205  1.00 42.49 LIG 0.24  C 
ATOM      2 O    GLU Q 640      33.091  56.268  71.630  1.00 42.42 LIG-0.27  OA
ATOM      3  N   VAL Q 641      31.924  55.862  73.513  1.00 42.52 LIG-0.35  N 
ATOM      4 H    VAL Q 641      31.186  55.667  73.909  1.00 42.52 LIG 0.16  HD
ENDROOT
BRANCH 1 5
ATOM      5  CA  GLU Q 640      30.702  56.038  71.440  1.00 42.54 LIG 0.18  C 
BRANCH 5 6
ATOM      6  CB  GLU Q 640      30.403  57.414  70.841  1.00 42.65 LIG 0.04  C 
BRANCH 6 7
ATOM      7  CG  GLU Q 640      29.873  57.369  69.414  1.00 42.42 LIG 0.12  C 
BRANCH 7 8
ATOM      8  CD  GLU Q 640      30.859  56.758  68.430  1.00 42.56 LIG 0.17  C 
ATOM      9 OE2  GLU Q 640      31.623  57.532  67.804  1.00 42.27 LIG-0.65  OA
ATOM     10 OE1  GLU Q 640      30.873  55.511  68.279  1.00 42.60 LIG-0.65  OA
ENDBRANCH 7 8
ENDBRANCH 6 7
ENDBRANCH 5 6
BRANCH 5 11
ATOM     11  N   GLU Q 640      29.567  55.551  72.225  1.00 42.67 LIG-0.35  N 
ATOM     12  C   GLU Q 639      29.409  54.257  72.492  1.00 42.69 LIG 0.26  C 
ATOM     13 O    GLU Q 639      30.257  53.407  72.215  1.00 42.71 LIG-0.27  OA
ATOM     14 H    GLU Q 640      29.027  56.166  72.490  1.00 42.67 LIG 0.16  HD
BRANCH 12 15
ATOM     15  CA  GLU Q 639      28.100  53.847  73.167  1.00 42.78 LIG 0.40  C 
ATOM     16  N   GLU Q 639      28.056  52.404  73.547  1.00 42.84 LIG 0.61  N 
BRANCH 15 17
ATOM     17  CB  GLU Q 639      27.857  54.738  74.390  1.00 42.78 LIG 0.06  C 
BRANCH 17 18
ATOM     18  CG  GLU Q 639      27.907  54.005  75.720  1.00 43.01 LIG 0.12  C 
BRANCH 18 19
ATOM     19  CD  GLU Q 639      29.312  53.562  76.102  1.00 43.16 LIG 0.17  C 
ATOM     20 OE1  GLU Q 639      29.734  53.803  77.254  1.00 43.27 LIG-0.65  OA
ATOM     21 OE2  GLU Q 639      29.996  52.966  75.244  1.00 43.17 LIG-0.65  OA
ENDBRANCH 18 19
ENDBRANCH 17 18
ENDBRANCH 15 17
ENDBRANCH 12 15
ENDBRANCH 5 11
ENDBRANCH 1 5
BRANCH 3 22
ATOM     22  CA  VAL Q 641      33.071  55.945  74.406  1.00 42.43 LIG 0.18  C 
BRANCH 22 23
ATOM     23  C   VAL Q 641      33.719  54.562  74.612  1.00 42.31 LIG 0.24  C 
ATOM     24 O    VAL Q 641      33.152  53.698  75.286  1.00 42.15 LIG-0.27  OA
ATOM     25  N   ASP Q 642      34.892  54.354  74.014  1.00 42.19 LIG-0.35  N 
ATOM     26 H    ASP Q 642      35.299  54.945  73.541  1.00 42.19 LIG 0.16  HD
BRANCH 25 27
ATOM     27  CA  ASP Q 642      35.599  53.072  74.117  1.00 42.17 LIG 0.17  C 
BRANCH 27 28
ATOM     28  CB  ASP Q 642      36.749  52.998  73.106  1.00 42.21 LIG 0.15  C 
BRANCH 28 29
ATOM     29  CG  ASP Q 642      36.654  54.056  72.017  1.00 42.38 LIG 0.17  C 
ATOM     30 OD1  ASP Q 642      37.555  54.920  71.921  1.00 42.36 LIG-0.65  OA
ATOM     31 OD2  ASP Q 642      35.662  54.023  71.254  1.00 42.41 LIG-0.65  OA
ENDBRANCH 28 29
ENDBRANCH 27 28
BRANCH 27 32
ATOM     32  C   ASP Q 642      36.123  52.794  75.529  1.00 42.05 LIG 0.22  C 
ATOM     33 O    ASP Q 642      35.376  52.854  76.505  1.00 41.78 LIG-0.29  OA
ENDBRANCH 27 32
ENDBRANCH 25 27
ENDBRANCH 22 23
BRANCH 22 34
ATOM     34  CB  VAL Q 641      32.651  56.624  75.742  1.00 42.38 LIG 0.01  C 
ATOM     35  CG2 VAL Q 641      31.283  56.185  76.154  1.00 42.63 LIG 0.01  C 
ATOM     36  CG1 VAL Q 641      32.748  58.150  75.668  1.00 42.36 LIG 0.01  C 
ENDBRANCH 22 34
ENDBRANCH 3 22
TORSDOF 16
ENDMDL
MODEL 60
USER: ADFR SOLUTION from run 84
USER: SCORE 13.839291 LL:  -2.925 LR: -11.607 RR:   0.000 FEB:  -6.834
USER: RMSD 9.835830
USER: SEED 83
USER: STATUS no improvement in best in 6 clusters for 5 generations
USER: GENES 18
USER: genes 0 Translation |==|  0.70210 0.33670 0.70323
USER: genes 1 Rotation |==|  0.45019 0.14968 0.26562 0.76431
USER: genes 2 Torsion [N]-C--CA-[N] |==|  0.65510
USER: genes 3 Torsion [C]-CA--CB-[CG] |==|  0.28987
USER: genes 4 Torsion [CA]-CB--CG-[CD] |==|  0.67358
USER: genes 5 Torsion [CB]-CG--CD-[OE2] |==|  0.86787
USER: genes 6 Torsion [C]-CA--N-[C] |==|  0.14544
USER: genes 7 Torsion [N]-C--CA-[N] |==|  0.58182
USER: genes 8 Torsion [C]-CA--CB-[CG] |==|  0.29402
USER: genes 9 Torsion [CA]-CB--CG-[CD] |==|  0.93206
USER: genes 10 Torsion [CB]-CG--CD-[OE2] |==|  0.23371
USER: genes 11 Torsion [C]-N--CA-[C] |==|  0.66619
USER: genes 12 Torsion [N]-CA--C-[N] |==|  0.42630
USER: genes 13 Torsion [C]-N--CA-[CB] |==|  0.37087
USER: genes 14 Torsion [N]-CA--CB-[CG] |==|  0.90826
USER: genes 15 Torsion [CA]-CB--CG-[OD1] |==|  0.36365
USER: genes 16 Torsion [N]-CA--C-[O] |==|  0.99070
USER: genes 17 Torsion [N]-CA--CB-[CG2] |==|  0.51277
ROOT
ATOM      1  C   GLU Q 640      35.117  53.535  74.913  1.00 42.49 LIG 0.24  C 
ATOM      2 O    GLU Q 640      35.334  53.229  76.084  1.00 42.42 LIG-0.27  OA
ATOM      3  N   VAL Q 641      33.964  54.043  74.493  1.00 42.52 LIG-0.35  N 
ATOM      4 H    VAL Q 641      33.788  54.202  73.666  1.00 42.52 LIG 0.16  HD
ENDROOT
BRANCH 1 5
ATOM      5  CA  GLU Q 640      36.170  53.327  73.829  1.00 42.54 LIG 0.18  C 
BRANCH 5 6
ATOM      6  CB  GLU Q 640      35.636  53.804  72.477  1.00 42.65 LIG 0.04  C 
BRANCH 6 7
ATOM      7  CG  GLU Q 640      36.207  55.140  72.019  1.00 42.42 LIG 0.12  C 
BRANCH 7 8
ATOM      8  CD  GLU Q 640      35.149  56.224  71.876  1.00 42.56 LIG 0.17  C 
ATOM      9 OE2  GLU Q 640      34.096  55.942  71.255  1.00 42.27 LIG-0.65  OA
ATOM     10 OE1  GLU Q 640      35.365  57.354  72.380  1.00 42.60 LIG-0.65  OA
ENDBRANCH 7 8
ENDBRANCH 6 7
ENDBRANCH 5 6
BRANCH 5 11
ATOM     11  N   GLU Q 640      36.675  51.956  73.737  1.00 42.67 LIG-0.35  N 
ATOM     12  C   GLU Q 639      35.850  50.917  73.623  1.00 42.69 LIG 0.26  C 
ATOM     13 O    GLU Q 639      34.635  51.041  73.459  1.00 42.71 LIG-0.27  OA
ATOM     14 H    GLU Q 640      37.532  51.888  73.764  1.00 42.67 LIG 0.16  HD
BRANCH 12 15
ATOM     15  CA  GLU Q 639      36.478  49.526  73.712  1.00 42.78 LIG 0.40  C 
ATOM     16  N   GLU Q 639      35.738  48.492  72.929  1.00 42.84 LIG 0.61  N 
BRANCH 15 17
ATOM     17  CB  GLU Q 639      37.942  49.599  73.268  1.00 42.78 LIG 0.06  C 
BRANCH 17 18
ATOM     18  CG  GLU Q 639      38.947  49.505  74.403  1.00 43.01 LIG 0.12  C 
BRANCH 18 19
ATOM     19  CD  GLU Q 639      38.373  49.942  75.743  1.00 43.16 LIG 0.17  C 
ATOM     20 OE1  GLU Q 639      38.555  51.117  76.130  1.00 43.27 LIG-0.65  OA
ATOM     21 OE2  GLU Q 639      37.732  49.104  76.410  1.00 43.17 LIG-0.65  OA
ENDBRANCH 18 19
ENDBRANCH 17 18
ENDBRANCH 15 17
ENDBRANCH 12 15
ENDBRANCH 5 11
ENDBRANCH 1 5
BRANCH 3 22
ATOM     22  CA  VAL Q 641      32.881  54.384  75.404  1.00 42.43 LIG 0.18  C 
BRANCH 22 23
ATOM     23  C   VAL Q 641      31.603  53.589  75.074  1.00 42.31 LIG 0.24  C 
ATOM     24 O    VAL Q 641      31.404  53.166  73.932  1.00 42.15 LIG-0.27  OA
ATOM     25  N   ASP Q 642      30.755  53.373  76.080  1.00 42.19 LIG-0.35  N 
ATOM     26 H    ASP Q 642      30.879  53.660  76.880  1.00 42.19 LIG 0.16  HD
BRANCH 25 27
ATOM     27  CA  ASP Q 642      29.514  52.612  75.898  1.00 42.17 LIG 0.17  C 
BRANCH 27 28
ATOM     28  CB  ASP Q 642      29.333  51.581  77.019  1.00 42.21 LIG 0.15  C 
BRANCH 28 29
ATOM     29  CG  ASP Q 642      30.652  51.014  77.524  1.00 42.38 LIG 0.17  C 
ATOM     30 OD1  ASP Q 642      30.873  50.979  78.755  1.00 42.36 LIG-0.65  OA
ATOM     31 OD2  ASP Q 642      31.475  50.604  76.675  1.00 42.41 LIG-0.65  OA
ENDBRANCH 28 29
ENDBRANCH 27 28
BRANCH 27 32
ATOM     32  C   ASP Q 642      28.275  53.507  75.805  1.00 42.05 LIG 0.22  C 
ATOM     33 O    ASP Q 642      28.363  54.727  75.942  1.00 41.78 LIG-0.29  OA
ENDBRANCH 27 32
ENDBRANCH 25 27
ENDBRANCH 22 23
BRANCH 22 34
ATOM     34  CB  VAL Q 641      32.655  55.924  75.403  1.00 42.38 LIG 0.01  C 
ATOM     35  CG2 VAL Q 641      31.624  56.310  76.413  1.00 42.63 LIG 0.01  C 
ATOM     36  CG1 VAL Q 641      32.297  56.453  74.012  1.00 42.36 LIG 0.01  C 
ENDBRANCH 22 34
ENDBRANCH 3 22
TORSDOF 16
ENDMDL
MODEL 61
USER: ADFR SOLUTION from run 142
USER: SCORE 13.715590 LL:  -2.836 LR: -11.615 RR:   0.000 FEB:  -6.842
USER: RMSD 8.364651
USER: SEED 141
USER: STATUS no improvement in best in 9 clusters for 5 generations
USER: GENES 18
USER: genes 0 Translation |==|  0.70088 0.32500 0.70176
USER: genes 1 Rotation |==|  0.43417 0.14757 0.27080 0.76254
USER: genes 2 Torsion [N]-C--CA-[N] |==|  0.82736
USER: genes 3 Torsion [C]-CA--CB-[CG] |==|  0.72421
USER: genes 4 Torsion [CA]-CB--CG-[CD] |==|  0.37178
USER: genes 5 Torsion [CB]-CG--CD-[OE2] |==|  0.63162
USER: genes 6 Torsion [C]-CA--N-[C] |==|  0.61675
USER: genes 7 Torsion [N]-C--CA-[N] |==|  0.92445
USER: genes 8 Torsion [C]-CA--CB-[CG] |==|  0.55593
USER: genes 9 Torsion [CA]-CB--CG-[CD] |==|  0.26070
USER: genes 10 Torsion [CB]-CG--CD-[OE2] |==|  0.35030
USER: genes 11 Torsion [C]-N--CA-[C] |==|  0.65267
USER: genes 12 Torsion [N]-CA--C-[N] |==|  0.36708
USER: genes 13 Torsion [C]-N--CA-[CB] |==|  0.35526
USER: genes 14 Torsion [N]-CA--CB-[CG] |==|  0.02208
USER: genes 15 Torsion [CA]-CB--CG-[OD1] |==|  0.25753
USER: genes 16 Torsion [N]-CA--C-[O] |==|  0.13584
USER: genes 17 Torsion [N]-CA--CB-[CG2] |==|  0.47792
ROOT
ATOM      1  C   GLU Q 640      35.091  53.341  74.887  1.00 42.49 LIG 0.24  C 
ATOM      2 O    GLU Q 640      35.324  53.090  76.067  1.00 42.42 LIG-0.27  OA
ATOM      3  N   VAL Q 641      33.948  53.870  74.465  1.00 42.52 LIG-0.35  N 
ATOM      4 H    VAL Q 641      33.758  53.991  73.635  1.00 42.52 LIG 0.16  HD
ENDROOT
BRANCH 1 5
ATOM      5  CA  GLU Q 640      36.111  53.039  73.793  1.00 42.54 LIG 0.18  C 
BRANCH 5 6
ATOM      6  CB  GLU Q 640      36.548  54.334  73.106  1.00 42.65 LIG 0.04  C 
BRANCH 6 7
ATOM      7  CG  GLU Q 640      35.844  54.605  71.783  1.00 42.42 LIG 0.12  C 
BRANCH 7 8
ATOM      8  CD  GLU Q 640      35.346  56.037  71.653  1.00 42.56 LIG 0.17  C 
ATOM      9 OE2  GLU Q 640      34.170  56.218  71.255  1.00 42.27 LIG-0.65  OA
ATOM     10 OE1  GLU Q 640      36.123  56.979  71.945  1.00 42.60 LIG-0.65  OA
ENDBRANCH 7 8
ENDBRANCH 6 7
ENDBRANCH 5 6
BRANCH 5 11
ATOM     11  N   GLU Q 640      35.659  52.053  72.809  1.00 42.67 LIG-0.35  N 
ATOM     12  C   GLU Q 639      36.470  51.097  72.359  1.00 42.69 LIG 0.26  C 
ATOM     13 O    GLU Q 639      37.594  50.898  72.823  1.00 42.71 LIG-0.27  OA
ATOM     14 H    GLU Q 640      34.843  52.148  72.557  1.00 42.67 LIG 0.16  HD
BRANCH 12 15
ATOM     15  CA  GLU Q 639      35.948  50.236  71.209  1.00 42.78 LIG 0.40  C 
ATOM     16  N   GLU Q 639      34.459  50.133  71.175  1.00 42.84 LIG 0.61  N 
BRANCH 15 17
ATOM     17  CB  GLU Q 639      36.485  50.780  69.881  1.00 42.78 LIG 0.06  C 
BRANCH 17 18
ATOM     18  CG  GLU Q 639      35.693  50.347  68.660  1.00 43.01 LIG 0.12  C 
BRANCH 18 19
ATOM     19  CD  GLU Q 639      34.624  51.353  68.257  1.00 43.16 LIG 0.17  C 
ATOM     20 OE1  GLU Q 639      33.790  51.729  69.109  1.00 43.27 LIG-0.65  OA
ATOM     21 OE2  GLU Q 639      34.623  51.772  67.081  1.00 43.17 LIG-0.65  OA
ENDBRANCH 18 19
ENDBRANCH 17 18
ENDBRANCH 15 17
ENDBRANCH 12 15
ENDBRANCH 5 11
ENDBRANCH 1 5
BRANCH 3 22
ATOM     22  CA  VAL Q 641      32.900  54.298  75.380  1.00 42.43 LIG 0.18  C 
BRANCH 22 23
ATOM     23  C   VAL Q 641      31.555  53.623  75.044  1.00 42.31 LIG 0.24  C 
ATOM     24 O    VAL Q 641      31.147  53.583  73.880  1.00 42.15 LIG-0.27  OA
ATOM     25  N   ASP Q 642      30.886  53.081  76.061  1.00 42.19 LIG-0.35  N 
ATOM     26 H    ASP Q 642      31.157  53.100  76.876  1.00 42.19 LIG 0.16  HD
BRANCH 25 27
ATOM     27  CA  ASP Q 642      29.605  52.392  75.867  1.00 42.17 LIG 0.17  C 
BRANCH 27 28
ATOM     28  CB  ASP Q 642      29.632  50.995  76.498  1.00 42.21 LIG 0.15  C 
BRANCH 28 29
ATOM     29  CG  ASP Q 642      30.884  50.740  77.325  1.00 42.38 LIG 0.17  C 
ATOM     30 OD1  ASP Q 642      30.866  50.979  78.554  1.00 42.36 LIG-0.65  OA
ATOM     31 OD2  ASP Q 642      31.895  50.299  76.734  1.00 42.41 LIG-0.65  OA
ENDBRANCH 28 29
ENDBRANCH 27 28
BRANCH 27 32
ATOM     32  C   ASP Q 642      28.414  53.188  76.407  1.00 42.05 LIG 0.22  C 
ATOM     33 O    ASP Q 642      28.267  54.377  76.127  1.00 41.78 LIG-0.29  OA
ENDBRANCH 27 32
ENDBRANCH 25 27
ENDBRANCH 22 23
BRANCH 22 34
ATOM     34  CB  VAL Q 641      32.813  55.852  75.393  1.00 42.38 LIG 0.01  C 
ATOM     35  CG2 VAL Q 641      31.624  56.310  76.174  1.00 42.63 LIG 0.01  C 
ATOM     36  CG1 VAL Q 641      32.812  56.441  73.980  1.00 42.36 LIG 0.01  C 
ENDBRANCH 22 34
ENDBRANCH 3 22
TORSDOF 16
ENDMDL
MODEL 62
USER: ADFR SOLUTION from run 73
USER: SCORE 14.534384 LL:  -3.227 LR: -11.606 RR:   0.000 FEB:  -6.833
USER: RMSD 5.664222
USER: SEED 72
USER: STATUS no improvement in best in 6 clusters for 5 generations
USER: GENES 18
USER: genes 0 Translation |==|  0.51025 0.48517 0.52195
USER: genes 1 Rotation |==|  0.29234 0.51594 0.50052 0.95456
USER: genes 2 Torsion [N]-C--CA-[N] |==|  0.95757
USER: genes 3 Torsion [C]-CA--CB-[CG] |==|  0.31098
USER: genes 4 Torsion [CA]-CB--CG-[CD] |==|  0.86607
USER: genes 5 Torsion [CB]-CG--CD-[OE2] |==|  0.79042
USER: genes 6 Torsion [C]-CA--N-[C] |==|  0.79485
USER: genes 7 Torsion [N]-C--CA-[N] |==|  0.44582
USER: genes 8 Torsion [C]-CA--CB-[CG] |==|  0.86301
USER: genes 9 Torsion [CA]-CB--CG-[CD] |==|  0.86572
USER: genes 10 Torsion [CB]-CG--CD-[OE2] |==|  0.34529
USER: genes 11 Torsion [C]-N--CA-[C] |==|  0.84767
USER: genes 12 Torsion [N]-CA--C-[N] |==|  0.85050
USER: genes 13 Torsion [C]-N--CA-[CB] |==|  0.48509
USER: genes 14 Torsion [N]-CA--CB-[CG] |==|  0.66069
USER: genes 15 Torsion [CA]-CB--CG-[OD1] |==|  0.71802
USER: genes 16 Torsion [N]-CA--C-[O] |==|  0.24795
USER: genes 17 Torsion [N]-CA--CB-[CG2] |==|  0.57934
ROOT
ATOM      1  C   GLU Q 640      31.088  55.984  71.650  1.00 42.49 LIG 0.24  C 
ATOM      2 O    GLU Q 640      32.041  56.082  70.880  1.00 42.42 LIG-0.27  OA
ATOM      3  N   VAL Q 641      31.127  56.391  72.914  1.00 42.52 LIG-0.35  N 
ATOM      4 H    VAL Q 641      30.483  56.270  73.472  1.00 42.52 LIG 0.16  HD
ENDROOT
BRANCH 1 5
ATOM      5  CA  GLU Q 640      29.770  55.356  71.209  1.00 42.54 LIG 0.18  C 
BRANCH 5 6
ATOM      6  CB  GLU Q 640      29.050  56.279  70.224  1.00 42.65 LIG 0.04  C 
BRANCH 6 7
ATOM      7  CG  GLU Q 640      28.973  55.734  68.804  1.00 42.42 LIG 0.12  C 
BRANCH 7 8
ATOM      8  CD  GLU Q 640      30.308  55.219  68.288  1.00 42.56 LIG 0.17  C 
ATOM      9 OE2  GLU Q 640      31.171  56.062  67.944  1.00 42.27 LIG-0.65  OA
ATOM     10 OE1  GLU Q 640      30.498  53.979  68.226  1.00 42.60 LIG-0.65  OA
ENDBRANCH 7 8
ENDBRANCH 6 7
ENDBRANCH 5 6
BRANCH 5 11
ATOM     11  N   GLU Q 640      28.886  54.978  72.313  1.00 42.67 LIG-0.35  N 
ATOM     12  C   GLU Q 639      29.140  53.917  73.076  1.00 42.69 LIG 0.26  C 
ATOM     13 O    GLU Q 639      30.183  53.266  72.993  1.00 42.71 LIG-0.27  OA
ATOM     14 H    GLU Q 640      28.206  55.494  72.418  1.00 42.67 LIG 0.16  HD
BRANCH 12 15
ATOM     15  CA  GLU Q 639      28.060  53.518  74.083  1.00 42.78 LIG 0.40  C 
ATOM     16  N   GLU Q 639      28.187  52.109  74.558  1.00 42.84 LIG 0.61  N 
BRANCH 15 17
ATOM     17  CB  GLU Q 639      28.081  54.495  75.264  1.00 42.78 LIG 0.06  C 
BRANCH 17 18
ATOM     18  CG  GLU Q 639      29.458  54.731  75.858  1.00 43.01 LIG 0.12  C 
BRANCH 18 19
ATOM     19  CD  GLU Q 639      30.218  53.440  76.130  1.00 43.16 LIG 0.17  C 
ATOM     20 OE1  GLU Q 639      29.692  52.563  76.850  1.00 43.27 LIG-0.65  OA
ATOM     21 OE2  GLU Q 639      31.347  53.301  75.615  1.00 43.17 LIG-0.65  OA
ENDBRANCH 18 19
ENDBRANCH 17 18
ENDBRANCH 15 17
ENDBRANCH 12 15
ENDBRANCH 5 11
ENDBRANCH 1 5
BRANCH 3 22
ATOM     22  CA  VAL Q 641      32.274  57.088  73.477  1.00 42.43 LIG 0.18  C 
BRANCH 22 23
ATOM     23  C   VAL Q 641      33.571  56.278  73.280  1.00 42.31 LIG 0.24  C 
ATOM     24 O    VAL Q 641      34.560  56.796  72.755  1.00 42.15 LIG-0.27  OA
ATOM     25  N   ASP Q 642      33.565  55.020  73.719  1.00 42.19 LIG-0.35  N 
ATOM     26 H    ASP Q 642      32.884  54.645  74.087  1.00 42.19 LIG 0.16  HD
BRANCH 25 27
ATOM     27  CA  ASP Q 642      34.744  54.154  73.609  1.00 42.17 LIG 0.17  C 
BRANCH 27 28
ATOM     28  CB  ASP Q 642      34.505  52.810  74.308  1.00 42.21 LIG 0.15  C 
BRANCH 28 29
ATOM     29  CG  ASP Q 642      35.524  52.518  75.400  1.00 42.38 LIG 0.17  C 
ATOM     30 OD1  ASP Q 642      36.464  51.726  75.165  1.00 42.36 LIG-0.65  OA
ATOM     31 OD2  ASP Q 642      35.375  53.085  76.505  1.00 42.41 LIG-0.65  OA
ENDBRANCH 28 29
ENDBRANCH 27 28
BRANCH 27 32
ATOM     32  C   ASP Q 642      35.176  53.920  72.158  1.00 42.05 LIG 0.22  C 
ATOM     33 O    ASP Q 642      35.972  54.678  71.605  1.00 41.78 LIG-0.29  OA
ENDBRANCH 27 32
ENDBRANCH 25 27
ENDBRANCH 22 23
BRANCH 22 34
ATOM     34  CB  VAL Q 641      31.999  57.441  74.968  1.00 42.38 LIG 0.01  C 
ATOM     35  CG2 VAL Q 641      32.748  58.670  75.369  1.00 42.63 LIG 0.01  C 
ATOM     36  CG1 VAL Q 641      32.308  56.269  75.904  1.00 42.36 LIG 0.01  C 
ENDBRANCH 22 34
ENDBRANCH 3 22
TORSDOF 16
ENDMDL
