MODEL 1
USER: ADFR SOLUTION from run 183
USER: SCORE 16.253208 LL:  -3.679 LR: -14.700 RR:   0.000 FEB:  -8.436
USER: RMSD 13.018263
USER: SEED 182
USER: STATUS no improvement in best in 9 clusters for 5 generations
USER: GENES 23
USER: genes 0 Translation |==|  0.70776 0.52311 0.47103
USER: genes 1 Rotation |==|  0.36884 0.72904 0.07547 0.51050
USER: genes 2 Torsion [C]-CA--CB-[CG2] |==|  0.42384
USER: genes 3 Torsion [N]-CA--C-[N] |==|  0.35181
USER: genes 4 Torsion [C]-N--CA-[CB] |==|  0.46689
USER: genes 5 Torsion [N]-CA--C-[N] |==|  0.44529
USER: genes 6 Torsion [C]-N--CA-[CB] |==|  0.84258
USER: genes 7 Torsion [N]-CA--C-[N] |==|  0.44944
USER: genes 8 Torsion [C]-N--CA-[CB] |==|  0.85828
USER: genes 9 Torsion [N]-CA--C-[O] |==|  0.97096
USER: genes 10 Torsion [N]-CA--CB-[CG2] |==|  0.84050
USER: genes 11 Torsion [N]-CA--CB-[OG] |==|  0.19399
USER: genes 12 Torsion [CA]-CB--OG-[HG] |==|  0.90718
USER: genes 13 Torsion [CB]-CA--N-[C] |==|  0.86594
USER: genes 14 Torsion [N]-C--CA-[N] |==|  0.44176
USER: genes 15 Torsion [C]-CA--CB-[CG] |==|  0.02143
USER: genes 16 Torsion [CA]-CB--CG-[CD] |==|  0.72050
USER: genes 17 Torsion [CB]-CG--CD-[OE1] |==|  0.33998
USER: genes 18 Torsion [C]-CA--N-[C] |==|  0.19027
USER: genes 19 Torsion [N]-C--CA-[N] |==|  0.30391
USER: genes 20 Torsion [C]-CA--CB-[CG] |==|  0.83614
USER: genes 21 Torsion [CA]-CB--CG-[CD] |==|  0.34693
USER: genes 22 Torsion [CB]-CG--CD-[OE1] |==|  0.22225
ROOT
ATOM      1  CA  VAL B   5      18.426 -22.548   3.856  1.00 23.44 LIG 0.18  C 
ENDROOT
BRANCH 1 2
ATOM      2  CB  VAL B   5      18.546 -21.296   4.725  1.00 27.20 LIG 0.01  C 
ATOM      3  CG2 VAL B   5      19.346 -21.564   5.965  1.00 32.91 LIG 0.01  C 
ATOM      4  CG1 VAL B   5      17.187 -20.724   5.067  1.00 27.01 LIG 0.01  C 
ENDBRANCH 1 2
BRANCH 1 5
ATOM      5  C   VAL B   5      17.143 -22.488   3.036  1.00 21.98 LIG 0.24  C 
ATOM      6 O    VAL B   5      17.002 -21.608   2.191  1.00 26.26 LIG-0.27  OA
ATOM      7  N   SER B   6      16.183 -23.374   3.311  1.00 19.41 LIG-0.34  N 
ATOM      8 H    SER B   6      16.249 -23.952   3.943  1.00 19.41 LIG 0.16  HD
BRANCH 7 9
ATOM      9  CA  SER B   6      14.938 -23.458   2.579  1.00 20.84 LIG 0.20  C 
BRANCH 9 10
ATOM     10  C   SER B   6      14.021 -22.288   2.861  1.00 18.76 LIG 0.24  C 
ATOM     11 O    SER B   6      14.092 -21.645   3.892  1.00 19.89 LIG-0.27  OA
ATOM     12  N   ALA B   7      13.089 -22.089   1.959  1.00 19.53 LIG-0.35  N 
ATOM     13 H    ALA B   7      13.029 -22.566   1.245  1.00 19.53 LIG 0.16  HD
BRANCH 12 14
ATOM     14  CA  ALA B   7      12.060 -21.061   2.045  1.00 19.70 LIG 0.17  C 
ATOM     15  CB  ALA B   7      11.271 -21.237   3.354  1.00 20.39 LIG 0.04  C 
BRANCH 14 16
ATOM     16  C   ALA B   7      12.647 -19.661   2.047  1.00 16.34 LIG 0.24  C 
ATOM     17  N   VAL B   8      11.845 -18.654   1.754  1.00 16.85 LIG-0.34  N 
ATOM     18 H    VAL B   8      11.033 -18.744   1.487  1.00 16.85 LIG 0.16  HD
ATOM     19 O    ALA B   7      13.805 -19.495   2.369  1.00 20.16 LIG-0.27  OA
BRANCH 17 20
ATOM     20  CA  VAL B   8      12.301 -17.262   1.869  1.00 17.28 LIG 0.19  C 
BRANCH 20 21
ATOM     21  C   VAL B   8      13.275 -16.972   0.732  1.00 17.19 LIG 0.20  C 
ATOM     22 O    VAL B   8      13.702 -17.914   0.026  1.00 24.30 LIG-0.65  OA
ATOM     23 OXT  VAL B   8      13.693 -15.812   0.514  1.00 16.53 LIG-0.65  OA
ENDBRANCH 20 21
BRANCH 20 24
ATOM     24  CB  VAL B   8      12.948 -16.957   3.256  1.00 17.38 LIG 0.01  C 
ATOM     25  CG2 VAL B   8      11.946 -17.269   4.363  1.00 18.61 LIG 0.01  C 
ATOM     26  CG1 VAL B   8      13.458 -15.541   3.308  1.00 19.61 LIG 0.01  C 
ENDBRANCH 20 24
ENDBRANCH 17 20
ENDBRANCH 14 16
ENDBRANCH 12 14
ENDBRANCH 9 10
BRANCH 9 27
ATOM     27  CB  SER B   6      14.193 -24.738   2.933  1.00 25.59 LIG 0.20  C 
BRANCH 27 28
ATOM     28 OG   SER B   6      13.705 -24.676   4.255  1.00 27.26 LIG-0.40  OA
ATOM     29 HG   SER B   6      14.240 -24.236   4.731  1.00 27.26 LIG 0.21  HD
ENDBRANCH 27 28
ENDBRANCH 9 27
ENDBRANCH 7 9
ENDBRANCH 1 5
BRANCH 1 30
ATOM     30  N   VAL B   5      19.524 -22.631   2.922  1.00 22.92 LIG-0.35  N 
ATOM     31 H    VAL B   5      19.902 -23.403   2.905  1.00 22.92 LIG 0.16  HD
ATOM     32  C   GLN B   4      19.918 -21.620   2.162  1.00 24.29 LIG 0.24  C 
ATOM     33 O    GLN B   4      19.381 -20.530   2.128  1.00 26.90 LIG-0.27  OA
BRANCH 32 34
ATOM     34  CA  GLN B   4      21.130 -21.912   1.275  1.00 30.52 LIG 0.18  C 
BRANCH 34 35
ATOM     35  CB  GLN B   4      22.390 -21.798   2.132  1.00 36.61 LIG 0.04  C 
BRANCH 35 36
ATOM     36  CG  GLN B   4      22.098 -21.624   3.613  1.00 50.94 LIG 0.10  C 
BRANCH 36 37
ATOM     37  CD  GLN B   4      22.238 -20.163   4.031  1.00 60.90 LIG 0.21  C 
ATOM     38  NE2 GLN B   4      23.411 -19.577   3.799  1.00 82.36 LIG-0.37  N 
ATOM     39 21HE GLN B   4      24.050 -20.023   3.435  1.00 82.36 LIG 0.16  HD
ATOM     40 22HE GLN B   4      23.530 -18.752   4.013  1.00 82.36 LIG 0.16  HD
ATOM     41 OE1  GLN B   4      21.293 -19.572   4.548  1.00 55.22 LIG-0.27  OA
ENDBRANCH 36 37
ENDBRANCH 35 36
ENDBRANCH 34 35
BRANCH 34 42
ATOM     42  N   GLN B   4      21.185 -20.981   0.165  1.00 37.98 LIG-0.35  N 
ATOM     43  C   GLU B   3      21.448 -19.689   0.337  1.00 56.89 LIG 0.26  C 
ATOM     44 O    GLU B   3      21.593 -19.184   1.441  1.00 56.58 LIG-0.27  OA
ATOM     45 H    GLN B   4      21.034 -21.339  -0.602  1.00 37.98 LIG 0.16  HD
BRANCH 43 46
ATOM     46  CA  GLU B   3      21.552 -18.844  -0.931  1.00 80.09 LIG 0.40  C 
ATOM     47  N   GLU B   3      20.412 -17.944  -1.044  1.00 75.44 LIG 0.61  N 
BRANCH 46 48
ATOM     48  CB  GLU B   3      22.848 -18.041  -0.921  1.00107.85 LIG 0.06  C 
BRANCH 48 49
ATOM     49  CG  GLU B   3      22.979 -17.113   0.263  1.00114.95 LIG 0.12  C 
BRANCH 49 50
ATOM     50  CD  GLU B   3      24.258 -17.352   1.041  1.00 96.82 LIG 0.17  C 
ATOM     51 OE1  GLU B   3      25.328 -16.865   0.606  1.00 91.15 LIG-0.65  OA
ATOM     52 OE2  GLU B   3      24.193 -18.020   2.100  1.00 91.13 LIG-0.65  OA
ENDBRANCH 49 50
ENDBRANCH 48 49
ENDBRANCH 46 48
ENDBRANCH 43 46
ENDBRANCH 34 42
ENDBRANCH 32 34
ENDBRANCH 1 30
TORSDOF 21
ENDMDL
MODEL 2
USER: ADFR SOLUTION from run 13
USER: SCORE 15.479013 LL:  -4.288 LR: -14.612 RR:   0.000 FEB:  -8.347
USER: RMSD 7.556370
USER: SEED 510703
USER: STATUS no improvement in best in 5 clusters for 5 generations
USER: GENES 23
USER: genes 0 Translation |==|  0.68658 0.45719 0.35165
USER: genes 1 Rotation |==|  0.75999 0.42197 0.48014 0.91943
USER: genes 2 Torsion [C]-CA--CB-[CG2] |==|  0.56560
USER: genes 3 Torsion [N]-CA--C-[N] |==|  0.41752
USER: genes 4 Torsion [C]-N--CA-[CB] |==|  0.40995
USER: genes 5 Torsion [N]-CA--C-[N] |==|  0.11842
USER: genes 6 Torsion [C]-N--CA-[CB] |==|  0.48168
USER: genes 7 Torsion [N]-CA--C-[N] |==|  0.47538
USER: genes 8 Torsion [C]-N--CA-[CB] |==|  0.86297
USER: genes 9 Torsion [N]-CA--C-[O] |==|  0.83551
USER: genes 10 Torsion [N]-CA--CB-[CG2] |==|  0.84023
USER: genes 11 Torsion [N]-CA--CB-[OG] |==|  0.13107
USER: genes 12 Torsion [CA]-CB--OG-[HG] |==|  0.84898
USER: genes 13 Torsion [CB]-CA--N-[C] |==|  0.46111
USER: genes 14 Torsion [N]-C--CA-[N] |==|  0.35517
USER: genes 15 Torsion [C]-CA--CB-[CG] |==|  0.30719
USER: genes 16 Torsion [CA]-CB--CG-[CD] |==|  0.18442
USER: genes 17 Torsion [CB]-CG--CD-[OE1] |==|  0.61625
USER: genes 18 Torsion [C]-CA--N-[C] |==|  0.63601
USER: genes 19 Torsion [N]-C--CA-[N] |==|  0.55046
USER: genes 20 Torsion [C]-CA--CB-[CG] |==|  0.82207
USER: genes 21 Torsion [CA]-CB--CG-[CD] |==|  0.71442
USER: genes 22 Torsion [CB]-CG--CD-[OE1] |==|  0.10445
ROOT
ATOM      1  CA  VAL B   5      17.790 -23.685   1.797  1.00 23.44 LIG 0.18  C 
ENDROOT
BRANCH 1 2
ATOM      2  CB  VAL B   5      18.010 -23.875   0.295  1.00 27.20 LIG 0.01  C 
ATOM      3  CG2 VAL B   5      16.806 -24.480  -0.363  1.00 32.91 LIG 0.01  C 
ATOM      4  CG1 VAL B   5      19.253 -24.692   0.014  1.00 27.01 LIG 0.01  C 
ENDBRANCH 1 2
BRANCH 1 5
ATOM      5  C   VAL B   5      18.712 -22.590   2.321  1.00 21.98 LIG 0.24  C 
ATOM      6 O    VAL B   5      18.344 -21.420   2.291  1.00 26.26 LIG-0.27  OA
ATOM      7  N   SER B   6      19.926 -22.947   2.747  1.00 19.41 LIG-0.34  N 
ATOM      8 H    SER B   6      20.215 -23.756   2.711  1.00 19.41 LIG 0.16  HD
BRANCH 7 9
ATOM      9  CA  SER B   6      20.881 -22.018   3.310  1.00 20.84 LIG 0.20  C 
BRANCH 9 10
ATOM     10  C   SER B   6      21.805 -21.431   2.266  1.00 18.76 LIG 0.24  C 
ATOM     11 O    SER B   6      22.982 -21.220   2.490  1.00 19.89 LIG-0.27  OA
ATOM     12  N   ALA B   7      21.218 -21.079   1.146  1.00 19.53 LIG-0.35  N 
ATOM     13 H    ALA B   7      20.379 -21.207   1.006  1.00 19.53 LIG 0.16  HD
BRANCH 12 14
ATOM     14  CA  ALA B   7      21.892 -20.442   0.023  1.00 19.70 LIG 0.17  C 
ATOM     15  CB  ALA B   7      20.918 -20.334  -1.164  1.00 20.39 LIG 0.04  C 
BRANCH 14 16
ATOM     16  C   ALA B   7      22.365 -19.039   0.359  1.00 16.34 LIG 0.24  C 
ATOM     17  N   VAL B   8      23.144 -18.423  -0.511  1.00 16.85 LIG-0.34  N 
ATOM     18 H    VAL B   8      23.465 -18.793  -1.218  1.00 16.85 LIG 0.16  HD
ATOM     19 O    ALA B   7      21.974 -18.500   1.374  1.00 20.16 LIG-0.27  OA
BRANCH 17 20
ATOM     20  CA  VAL B   8      23.529 -17.018  -0.324  1.00 17.28 LIG 0.19  C 
BRANCH 20 21
ATOM     21  C   VAL B   8      24.568 -16.940   0.789  1.00 17.19 LIG 0.20  C 
ATOM     22 O    VAL B   8      24.282 -17.357   1.934  1.00 24.30 LIG-0.65  OA
ATOM     23 OXT  VAL B   8      25.693 -16.426   0.593  1.00 16.53 LIG-0.65  OA
ENDBRANCH 20 21
BRANCH 20 24
ATOM     24  CB  VAL B   8      22.306 -16.098  -0.019  1.00 17.38 LIG 0.01  C 
ATOM     25  CG2 VAL B   8      21.290 -16.212  -1.150  1.00 18.61 LIG 0.01  C 
ATOM     26  CG1 VAL B   8      22.752 -14.682   0.231  1.00 19.61 LIG 0.01  C 
ENDBRANCH 20 24
ENDBRANCH 17 20
ENDBRANCH 14 16
ENDBRANCH 12 14
ENDBRANCH 9 10
BRANCH 9 27
ATOM     27  CB  SER B   6      21.738 -22.704   4.366  1.00 25.59 LIG 0.20  C 
BRANCH 27 28
ATOM     28 OG   SER B   6      22.215 -23.942   3.887  1.00 27.26 LIG-0.40  OA
ATOM     29 HG   SER B   6      21.568 -24.410   3.626  1.00 27.26 LIG 0.21  HD
ENDBRANCH 27 28
ENDBRANCH 9 27
ENDBRANCH 7 9
ENDBRANCH 1 5
BRANCH 1 30
ATOM     30  N   VAL B   5      16.435 -23.265   2.067  1.00 22.92 LIG-0.35  N 
ATOM     31 H    VAL B   5      16.013 -23.000   1.365  1.00 22.92 LIG 0.16  HD
ATOM     32  C   GLN B   4      15.888 -23.283   3.272  1.00 24.29 LIG 0.24  C 
ATOM     33 O    GLN B   4      16.439 -23.690   4.276  1.00 26.90 LIG-0.27  OA
BRANCH 32 34
ATOM     34  CA  GLN B   4      14.454 -22.753   3.340  1.00 30.52 LIG 0.18  C 
BRANCH 34 35
ATOM     35  CB  GLN B   4      14.467 -21.430   4.103  1.00 36.61 LIG 0.04  C 
BRANCH 35 36
ATOM     36  CG  GLN B   4      14.173 -20.224   3.227  1.00 50.94 LIG 0.10  C 
BRANCH 36 37
ATOM     37  CD  GLN B   4      12.739 -20.262   2.707  1.00 60.90 LIG 0.21  C 
ATOM     38  NE2 GLN B   4      11.791 -20.623   3.570  1.00 82.36 LIG-0.37  N 
ATOM     39 21HE GLN B   4      12.001 -20.829   4.378  1.00 82.36 LIG 0.16  HD
ATOM     40 22HE GLN B   4      10.968 -20.651   3.320  1.00 82.36 LIG 0.16  HD
ATOM     41 OE1  GLN B   4      12.493 -19.958   1.542  1.00 55.22 LIG-0.27  OA
ENDBRANCH 36 37
ENDBRANCH 35 36
ENDBRANCH 34 35
BRANCH 34 42
ATOM     42  N   GLN B   4      13.587 -23.711   3.998  1.00 37.98 LIG-0.35  N 
ATOM     43  C   GLU B   3      12.421 -24.084   3.480  1.00 56.89 LIG 0.26  C 
ATOM     44 O    GLU B   3      11.968 -23.598   2.453  1.00 56.58 LIG-0.27  OA
ATOM     45 H    GLN B   4      13.895 -24.009   4.744  1.00 37.98 LIG 0.16  HD
BRANCH 43 46
ATOM     46  CA  GLU B   3      11.652 -25.159   4.245  1.00 80.09 LIG 0.40  C 
ATOM     47  N   GLU B   3      10.646 -25.776   3.392  1.00 75.44 LIG 0.61  N 
BRANCH 46 48
ATOM     48  CB  GLU B   3      12.614 -26.221   4.766  1.00107.85 LIG 0.06  C 
BRANCH 48 49
ATOM     49  CG  GLU B   3      13.318 -26.991   3.675  1.00114.95 LIG 0.12  C 
BRANCH 49 50
ATOM     50  CD  GLU B   3      12.723 -28.371   3.470  1.00 96.82 LIG 0.17  C 
ATOM     51 OE1  GLU B   3      11.481 -28.512   3.569  1.00 91.15 LIG-0.65  OA
ATOM     52 OE2  GLU B   3      13.497 -29.318   3.196  1.00 91.13 LIG-0.65  OA
ENDBRANCH 49 50
ENDBRANCH 48 49
ENDBRANCH 46 48
ENDBRANCH 43 46
ENDBRANCH 34 42
ENDBRANCH 32 34
ENDBRANCH 1 30
TORSDOF 21
ENDMDL
MODEL 3
USER: ADFR SOLUTION from run 176
USER: SCORE 15.094053 LL:  -4.542 LR: -14.565 RR:   0.000 FEB:  -8.301
USER: RMSD 12.214023
USER: SEED 175
USER: STATUS no improvement in best in 2 clusters for 5 generations
USER: GENES 23
USER: genes 0 Translation |==|  0.64549 0.44939 0.34590
USER: genes 1 Rotation |==|  0.53927 0.96253 0.66625 0.58297
USER: genes 2 Torsion [C]-CA--CB-[CG2] |==|  0.60397
USER: genes 3 Torsion [N]-CA--C-[N] |==|  0.42735
USER: genes 4 Torsion [C]-N--CA-[CB] |==|  0.13401
USER: genes 5 Torsion [N]-CA--C-[N] |==|  0.56222
USER: genes 6 Torsion [C]-N--CA-[CB] |==|  0.41660
USER: genes 7 Torsion [N]-CA--C-[N] |==|  0.02275
USER: genes 8 Torsion [C]-N--CA-[CB] |==|  0.31755
USER: genes 9 Torsion [N]-CA--C-[O] |==|  0.97906
USER: genes 10 Torsion [N]-CA--CB-[CG2] |==|  0.90054
USER: genes 11 Torsion [N]-CA--CB-[OG] |==|  0.13254
USER: genes 12 Torsion [CA]-CB--OG-[HG] |==|  0.90641
USER: genes 13 Torsion [CB]-CA--N-[C] |==|  0.42238
USER: genes 14 Torsion [N]-C--CA-[N] |==|  0.43132
USER: genes 15 Torsion [C]-CA--CB-[CG] |==|  0.90694
USER: genes 16 Torsion [CA]-CB--CG-[CD] |==|  0.78991
USER: genes 17 Torsion [CB]-CG--CD-[OE1] |==|  0.18384
USER: genes 18 Torsion [C]-CA--N-[C] |==|  0.66889
USER: genes 19 Torsion [N]-C--CA-[N] |==|  0.94656
USER: genes 20 Torsion [C]-CA--CB-[CG] |==|  0.63139
USER: genes 21 Torsion [CA]-CB--CG-[CD] |==|  0.83238
USER: genes 22 Torsion [CB]-CG--CD-[OE1] |==|  0.29143
ROOT
ATOM      1  CA  VAL B   5      16.558 -23.820   1.698  1.00 23.44 LIG 0.18  C 
ENDROOT
BRANCH 1 2
ATOM      2  CB  VAL B   5      16.394 -25.247   1.173  1.00 27.20 LIG 0.01  C 
ATOM      3  CG2 VAL B   5      17.721 -25.868   0.852  1.00 32.91 LIG 0.01  C 
ATOM      4  CG1 VAL B   5      15.466 -25.298  -0.020  1.00 27.01 LIG 0.01  C 
ENDBRANCH 1 2
BRANCH 1 5
ATOM      5  C   VAL B   5      15.538 -23.553   2.799  1.00 21.98 LIG 0.24  C 
ATOM      6 O    VAL B   5      15.837 -23.770   3.970  1.00 26.26 LIG-0.27  OA
ATOM      7  N   SER B   6      14.321 -23.141   2.436  1.00 19.41 LIG-0.34  N 
ATOM      8 H    SER B   6      14.085 -23.048   1.615  1.00 19.41 LIG 0.16  HD
BRANCH 7 9
ATOM      9  CA  SER B   6      13.276 -22.807   3.378  1.00 20.84 LIG 0.20  C 
BRANCH 9 10
ATOM     10  C   SER B   6      12.096 -22.126   2.719  1.00 18.76 LIG 0.24  C 
ATOM     11 O    SER B   6      11.912 -22.176   1.516  1.00 19.89 LIG-0.27  OA
ATOM     12  N   ALA B   7      11.355 -21.405   3.525  1.00 19.53 LIG-0.35  N 
ATOM     13 H    ALA B   7      11.508 -21.354   4.370  1.00 19.53 LIG 0.16  HD
BRANCH 12 14
ATOM     14  CA  ALA B   7      10.203 -20.616   3.107  1.00 19.70 LIG 0.17  C 
ATOM     15  CB  ALA B   7       9.188 -20.541   4.261  1.00 20.39 LIG 0.04  C 
BRANCH 14 16
ATOM     16  C   ALA B   7      10.586 -19.194   2.739  1.00 16.34 LIG 0.24  C 
ATOM     17  N   VAL B   8      11.870 -18.895   2.675  1.00 16.85 LIG-0.34  N 
ATOM     18 H    VAL B   8      12.502 -19.431   2.904  1.00 16.85 LIG 0.16  HD
ATOM     19 O    ALA B   7       9.719 -18.391   2.458  1.00 20.16 LIG-0.27  OA
BRANCH 17 20
ATOM     20  CA  VAL B   8      12.322 -17.583   2.193  1.00 17.28 LIG 0.19  C 
BRANCH 20 21
ATOM     21  C   VAL B   8      13.247 -17.793   1.000  1.00 17.19 LIG 0.20  C 
ATOM     22 O    VAL B   8      13.607 -18.952   0.690  1.00 24.30 LIG-0.65  OA
ATOM     23 OXT  VAL B   8      13.693 -16.824   0.344  1.00 16.53 LIG-0.65  OA
ENDBRANCH 20 21
BRANCH 20 24
ATOM     24  CB  VAL B   8      13.023 -16.746   3.309  1.00 17.38 LIG 0.01  C 
ATOM     25  CG2 VAL B   8      12.338 -17.007   4.646  1.00 18.61 LIG 0.01  C 
ATOM     26  CG1 VAL B   8      13.056 -15.286   2.941  1.00 19.61 LIG 0.01  C 
ENDBRANCH 20 24
ENDBRANCH 17 20
ENDBRANCH 14 16
ENDBRANCH 12 14
ENDBRANCH 9 10
BRANCH 9 27
ATOM     27  CB  SER B   6      13.808 -21.882   4.465  1.00 25.59 LIG 0.20  C 
BRANCH 27 28
ATOM     28 OG   SER B   6      14.542 -20.821   3.894  1.00 27.26 LIG-0.40  OA
ATOM     29 HG   SER B   6      14.937 -21.093   3.204  1.00 27.26 LIG 0.21  HD
ENDBRANCH 27 28
ENDBRANCH 9 27
ENDBRANCH 7 9
ENDBRANCH 1 5
BRANCH 1 30
ATOM     30  N   VAL B   5      17.868 -23.634   2.278  1.00 22.92 LIG-0.35  N 
ATOM     31 H    VAL B   5      18.207 -24.359   2.595  1.00 22.92 LIG 0.16  HD
ATOM     32  C   GLN B   4      18.492 -22.467   2.321  1.00 24.29 LIG 0.24  C 
ATOM     33 O    GLN B   4      18.062 -21.435   1.846  1.00 26.90 LIG-0.27  OA
BRANCH 32 34
ATOM     34  CA  GLN B   4      19.853 -22.487   3.020  1.00 30.52 LIG 0.18  C 
BRANCH 34 35
ATOM     35  CB  GLN B   4      19.621 -22.358   4.525  1.00 36.61 LIG 0.04  C 
BRANCH 35 36
ATOM     36  CG  GLN B   4      18.424 -21.492   4.879  1.00 50.94 LIG 0.10  C 
BRANCH 36 37
ATOM     37  CD  GLN B   4      18.743 -20.012   4.693  1.00 60.90 LIG 0.21  C 
ATOM     38  NE2 GLN B   4      18.781 -19.258   5.790  1.00 82.36 LIG-0.37  N 
ATOM     39 21HE GLN B   4      18.622 -19.610   6.559  1.00 82.36 LIG 0.16  HD
ATOM     40 22HE GLN B   4      18.964 -18.420   5.731  1.00 82.36 LIG 0.16  HD
ATOM     41 OE1  GLN B   4      18.962 -19.560   3.571  1.00 55.22 LIG-0.27  OA
ENDBRANCH 36 37
ENDBRANCH 35 36
ENDBRANCH 34 35
BRANCH 34 42
ATOM     42  N   GLN B   4      20.688 -21.404   2.540  1.00 37.98 LIG-0.35  N 
ATOM     43  C   GLU B   3      21.852 -21.622   1.937  1.00 56.89 LIG 0.26  C 
ATOM     44 O    GLU B   3      22.331 -22.740   1.806  1.00 56.58 LIG-0.27  OA
ATOM     45 H    GLN B   4      20.363 -20.621   2.681  1.00 37.98 LIG 0.16  HD
BRANCH 43 46
ATOM     46  CA  GLU B   3      22.586 -20.389   1.414  1.00 80.09 LIG 0.40  C 
ATOM     47  N   GLU B   3      21.671 -19.265   1.277  1.00 75.44 LIG 0.61  N 
BRANCH 46 48
ATOM     48  CB  GLU B   3      23.727 -20.019   2.356  1.00107.85 LIG 0.06  C 
BRANCH 48 49
ATOM     49  CG  GLU B   3      23.775 -18.550   2.705  1.00114.95 LIG 0.12  C 
BRANCH 49 50
ATOM     50  CD  GLU B   3      23.962 -17.675   1.481  1.00 96.82 LIG 0.17  C 
ATOM     51 OE1  GLU B   3      22.977 -17.035   1.043  1.00 91.15 LIG-0.65  OA
ATOM     52 OE2  GLU B   3      25.101 -17.615   0.961  1.00 91.13 LIG-0.65  OA
ENDBRANCH 49 50
ENDBRANCH 48 49
ENDBRANCH 46 48
ENDBRANCH 43 46
ENDBRANCH 34 42
ENDBRANCH 32 34
ENDBRANCH 1 30
TORSDOF 21
ENDMDL
MODEL 4
USER: ADFR SOLUTION from run 57
USER: SCORE 16.001893 LL:  -4.359 LR: -14.440 RR:   0.000 FEB:  -8.176
USER: RMSD 4.511042
USER: SEED 56
USER: STATUS no improvement in best in 6 clusters for 5 generations
USER: GENES 23
USER: genes 0 Translation |==|  0.46245 0.42954 0.57752
USER: genes 1 Rotation |==|  0.51542 0.54004 0.47795 0.99767
USER: genes 2 Torsion [C]-CA--CB-[CG2] |==|  0.14388
USER: genes 3 Torsion [N]-CA--C-[N] |==|  0.42459
USER: genes 4 Torsion [C]-N--CA-[CB] |==|  0.18910
USER: genes 5 Torsion [N]-CA--C-[N] |==|  0.36187
USER: genes 6 Torsion [C]-N--CA-[CB] |==|  0.49745
USER: genes 7 Torsion [N]-CA--C-[N] |==|  0.40293
USER: genes 8 Torsion [C]-N--CA-[CB] |==|  0.24920
USER: genes 9 Torsion [N]-CA--C-[O] |==|  0.51207
USER: genes 10 Torsion [N]-CA--CB-[CG2] |==|  0.08910
USER: genes 11 Torsion [N]-CA--CB-[OG] |==|  0.79510
USER: genes 12 Torsion [CA]-CB--OG-[HG] |==|  0.20650
USER: genes 13 Torsion [CB]-CA--N-[C] |==|  0.23965
USER: genes 14 Torsion [N]-C--CA-[N] |==|  0.98429
USER: genes 15 Torsion [C]-CA--CB-[CG] |==|  0.33768
USER: genes 16 Torsion [CA]-CB--CG-[CD] |==|  0.65627
USER: genes 17 Torsion [CB]-CG--CD-[OE1] |==|  0.06248
USER: genes 18 Torsion [C]-CA--N-[C] |==|  0.65851
USER: genes 19 Torsion [N]-C--CA-[N] |==|  0.30607
USER: genes 20 Torsion [C]-CA--CB-[CG] |==|  0.70822
USER: genes 21 Torsion [CA]-CB--CG-[CD] |==|  0.20292
USER: genes 22 Torsion [CB]-CG--CD-[OE1] |==|  0.77206
ROOT
ATOM      1  CA  VAL B   5      11.067 -24.162   5.693  1.00 23.44 LIG 0.18  C 
ENDROOT
BRANCH 1 2
ATOM      2  CB  VAL B   5      10.774 -25.548   5.116  1.00 27.20 LIG 0.01  C 
ATOM      3  CG2 VAL B   5      11.992 -26.142   4.473  1.00 32.91 LIG 0.01  C 
ATOM      4  CG1 VAL B   5       9.611 -25.513   4.149  1.00 27.01 LIG 0.01  C 
ENDBRANCH 1 2
BRANCH 1 5
ATOM      5  C   VAL B   5      11.717 -23.285   4.630  1.00 21.98 LIG 0.24  C 
ATOM      6 O    VAL B   5      11.013 -22.595   3.897  1.00 26.26 LIG-0.27  OA
ATOM      7  N   SER B   6      13.044 -23.344   4.497  1.00 19.41 LIG-0.34  N 
ATOM      8 H    SER B   6      13.536 -23.872   4.963  1.00 19.41 LIG 0.16  HD
BRANCH 7 9
ATOM      9  CA  SER B   6      13.791 -22.532   3.562  1.00 20.84 LIG 0.20  C 
BRANCH 9 10
ATOM     10  C   SER B   6      15.242 -22.951   3.462  1.00 18.76 LIG 0.24  C 
ATOM     11 O    SER B   6      15.961 -23.029   4.441  1.00 19.89 LIG-0.27  OA
ATOM     12  N   ALA B   7      15.682 -23.123   2.238  1.00 19.53 LIG-0.35  N 
ATOM     13 H    ALA B   7      15.174 -23.039   1.549  1.00 19.53 LIG 0.16  HD
BRANCH 12 14
ATOM     14  CA  ALA B   7      17.055 -23.470   1.893  1.00 19.70 LIG 0.17  C 
ATOM     15  CB  ALA B   7      17.179 -23.607   0.366  1.00 20.39 LIG 0.04  C 
BRANCH 14 16
ATOM     16  C   ALA B   7      18.044 -22.408   2.341  1.00 16.34 LIG 0.24  C 
ATOM     17  N   VAL B   8      19.234 -22.805   2.751  1.00 16.85 LIG-0.34  N 
ATOM     18 H    VAL B   8      19.459 -23.628   2.856  1.00 16.85 LIG 0.16  HD
ATOM     19 O    ALA B   7      17.744 -21.234   2.257  1.00 20.16 LIG-0.27  OA
BRANCH 17 20
ATOM     20  CA  VAL B   8      20.290 -21.835   3.069  1.00 17.28 LIG 0.19  C 
BRANCH 20 21
ATOM     21  C   VAL B   8      21.639 -22.445   2.705  1.00 17.19 LIG 0.20  C 
ATOM     22 O    VAL B   8      22.693 -21.822   2.968  1.00 24.30 LIG-0.65  OA
ATOM     23 OXT  VAL B   8      21.716 -23.542   2.106  1.00 16.53 LIG-0.65  OA
ENDBRANCH 20 21
BRANCH 20 24
ATOM     24  CB  VAL B   8      20.261 -21.387   4.564  1.00 17.38 LIG 0.01  C 
ATOM     25  CG2 VAL B   8      19.764 -22.540   5.430  1.00 18.61 LIG 0.01  C 
ATOM     26  CG1 VAL B   8      19.444 -20.133   4.730  1.00 19.61 LIG 0.01  C 
ENDBRANCH 20 24
ENDBRANCH 17 20
ENDBRANCH 14 16
ENDBRANCH 12 14
ENDBRANCH 9 10
BRANCH 9 27
ATOM     27  CB  SER B   6      13.750 -21.066   3.972  1.00 25.59 LIG 0.20  C 
BRANCH 27 28
ATOM     28 OG   SER B   6      12.480 -20.514   3.702  1.00 27.26 LIG-0.40  OA
ATOM     29 HG   SER B   6      11.927 -20.793   4.269  1.00 27.26 LIG 0.21  HD
ENDBRANCH 27 28
ENDBRANCH 9 27
ENDBRANCH 7 9
ENDBRANCH 1 5
BRANCH 1 30
ATOM     30  N   VAL B   5       9.844 -23.507   6.096  1.00 22.92 LIG-0.35  N 
ATOM     31 H    VAL B   5       9.513 -22.997   5.487  1.00 22.92 LIG 0.16  HD
ATOM     32  C   GLN B   4       9.281 -23.671   7.283  1.00 24.29 LIG 0.24  C 
ATOM     33 O    GLN B   4       9.696 -24.415   8.149  1.00 26.90 LIG-0.27  OA
BRANCH 32 34
ATOM     34  CA  GLN B   4       8.012 -22.847   7.516  1.00 30.52 LIG 0.18  C 
BRANCH 34 35
ATOM     35  CB  GLN B   4       6.839 -23.811   7.686  1.00 36.61 LIG 0.04  C 
BRANCH 35 36
ATOM     36  CG  GLN B   4       6.119 -23.658   9.015  1.00 50.94 LIG 0.10  C 
BRANCH 36 37
ATOM     37  CD  GLN B   4       6.087 -24.979   9.777  1.00 60.90 LIG 0.21  C 
ATOM     38  NE2 GLN B   4       5.126 -25.129  10.688  1.00 82.36 LIG-0.37  N 
ATOM     39 21HE GLN B   4       4.565 -24.494  10.828  1.00 82.36 LIG 0.16  HD
ATOM     40 22HE GLN B   4       5.068 -25.862  11.135  1.00 82.36 LIG 0.16  HD
ATOM     41 OE1  GLN B   4       6.915 -25.855   9.537  1.00 55.22 LIG-0.27  OA
ENDBRANCH 36 37
ENDBRANCH 35 36
ENDBRANCH 34 35
BRANCH 34 42
ATOM     42  N   GLN B   4       7.775 -21.950   6.402  1.00 37.98 LIG-0.35  N 
ATOM     43  C   GLU B   3       7.667 -20.635   6.563  1.00 56.89 LIG 0.26  C 
ATOM     44 O    GLU B   3       7.691 -20.098   7.662  1.00 56.58 LIG-0.27  OA
ATOM     45 H    GLN B   4       7.712 -22.344   5.641  1.00 37.98 LIG 0.16  HD
BRANCH 43 46
ATOM     46  CA  GLU B   3       7.496 -19.808   5.290  1.00 80.09 LIG 0.40  C 
ATOM     47  N   GLU B   3       6.152 -19.252   5.214  1.00 75.44 LIG 0.61  N 
BRANCH 46 48
ATOM     48  CB  GLU B   3       8.526 -18.684   5.254  1.00107.85 LIG 0.06  C 
BRANCH 48 49
ATOM     49  CG  GLU B   3       7.950 -17.322   5.561  1.00114.95 LIG 0.12  C 
BRANCH 49 50
ATOM     50  CD  GLU B   3       7.612 -17.160   7.031  1.00 96.82 LIG 0.17  C 
ATOM     51 OE1  GLU B   3       6.524 -17.618   7.452  1.00 91.15 LIG-0.65  OA
ATOM     52 OE2  GLU B   3       8.443 -16.583   7.771  1.00 91.13 LIG-0.65  OA
ENDBRANCH 49 50
ENDBRANCH 48 49
ENDBRANCH 46 48
ENDBRANCH 43 46
ENDBRANCH 34 42
ENDBRANCH 32 34
ENDBRANCH 1 30
TORSDOF 21
ENDMDL
MODEL 5
USER: ADFR SOLUTION from run 41
USER: SCORE 14.633072 LL:  -4.362 LR: -14.376 RR:   0.000 FEB:  -8.112
USER: RMSD 12.174037
USER: SEED 40
USER: STATUS no improvement in best in 1 clusters for 5 generations
USER: GENES 23
USER: genes 0 Translation |==|  0.53121 0.42083 0.44764
USER: genes 1 Rotation |==|  0.53921 0.98339 0.51323 0.62093
USER: genes 2 Torsion [C]-CA--CB-[CG2] |==|  0.70410
USER: genes 3 Torsion [N]-CA--C-[N] |==|  0.65986
USER: genes 4 Torsion [C]-N--CA-[CB] |==|  0.17224
USER: genes 5 Torsion [N]-CA--C-[N] |==|  0.26215
USER: genes 6 Torsion [C]-N--CA-[CB] |==|  0.76960
USER: genes 7 Torsion [N]-CA--C-[N] |==|  0.24534
USER: genes 8 Torsion [C]-N--CA-[CB] |==|  0.25801
USER: genes 9 Torsion [N]-CA--C-[O] |==|  0.91740
USER: genes 10 Torsion [N]-CA--CB-[CG2] |==|  0.03668
USER: genes 11 Torsion [N]-CA--CB-[OG] |==|  0.75466
USER: genes 12 Torsion [CA]-CB--OG-[HG] |==|  0.04456
USER: genes 13 Torsion [CB]-CA--N-[C] |==|  0.38771
USER: genes 14 Torsion [N]-C--CA-[N] |==|  0.35179
USER: genes 15 Torsion [C]-CA--CB-[CG] |==|  0.50303
USER: genes 16 Torsion [CA]-CB--CG-[CD] |==|  0.35695
USER: genes 17 Torsion [CB]-CG--CD-[OE1] |==|  0.85038
USER: genes 18 Torsion [C]-CA--N-[C] |==|  0.19575
USER: genes 19 Torsion [N]-C--CA-[N] |==|  0.24941
USER: genes 20 Torsion [C]-CA--CB-[CG] |==|  0.22644
USER: genes 21 Torsion [CA]-CB--CG-[CD] |==|  0.19014
USER: genes 22 Torsion [CB]-CG--CD-[OE1] |==|  0.96312
ROOT
ATOM      1  CA  VAL B   5      13.129 -24.313   3.453  1.00 23.44 LIG 0.18  C 
ENDROOT
BRANCH 1 2
ATOM      2  CB  VAL B   5      12.753 -25.749   3.820  1.00 27.20 LIG 0.01  C 
ATOM      3  CG2 VAL B   5      13.693 -26.317   4.841  1.00 32.91 LIG 0.01  C 
ATOM      4  CG1 VAL B   5      12.680 -26.635   2.595  1.00 27.01 LIG 0.01  C 
ENDBRANCH 1 2
BRANCH 1 5
ATOM      5  C   VAL B   5      12.133 -23.341   4.075  1.00 21.98 LIG 0.24  C 
ATOM      6 O    VAL B   5      12.316 -22.132   3.970  1.00 26.26 LIG-0.27  OA
ATOM      7  N   SER B   6      11.113 -23.852   4.769  1.00 19.41 LIG-0.34  N 
ATOM      8 H    SER B   6      11.015 -24.696   4.902  1.00 19.41 LIG 0.16  HD
BRANCH 7 9
ATOM      9  CA  SER B   6      10.073 -23.048   5.371  1.00 20.84 LIG 0.20  C 
BRANCH 9 10
ATOM     10  C   SER B   6       9.082 -23.877   6.160  1.00 18.76 LIG 0.24  C 
ATOM     11 O    SER B   6       8.077 -24.339   5.651  1.00 19.89 LIG-0.27  OA
ATOM     12  N   ALA B   7       9.340 -23.972   7.442  1.00 19.53 LIG-0.35  N 
ATOM     13 H    ALA B   7      10.039 -23.619   7.799  1.00 19.53 LIG 0.16  HD
BRANCH 12 14
ATOM     14  CA  ALA B   7       8.499 -24.668   8.407  1.00 19.70 LIG 0.17  C 
ATOM     15  CB  ALA B   7       7.356 -23.739   8.852  1.00 20.39 LIG 0.04  C 
BRANCH 14 16
ATOM     16  C   ALA B   7       7.872 -25.921   7.821  1.00 16.34 LIG 0.24  C 
ATOM     17  N   VAL B   8       8.551 -27.049   7.904  1.00 16.85 LIG-0.34  N 
ATOM     18 H    VAL B   8       9.357 -27.108   8.197  1.00 16.85 LIG 0.16  HD
ATOM     19 O    ALA B   7       6.753 -25.869   7.351  1.00 20.16 LIG-0.27  OA
BRANCH 17 20
ATOM     20  CA  VAL B   8       7.956 -28.326   7.486  1.00 17.28 LIG 0.19  C 
BRANCH 20 21
ATOM     21  C   VAL B   8       8.443 -29.422   8.427  1.00 17.19 LIG 0.20  C 
ATOM     22 O    VAL B   8       9.569 -29.322   8.967  1.00 24.30 LIG-0.65  OA
ATOM     23 OXT  VAL B   8       7.757 -30.448   8.641  1.00 16.53 LIG-0.65  OA
ENDBRANCH 20 21
BRANCH 20 24
ATOM     24  CB  VAL B   8       8.276 -28.677   5.999  1.00 17.38 LIG 0.01  C 
ATOM     25  CG2 VAL B   8       9.384 -27.762   5.489  1.00 18.61 LIG 0.01  C 
ATOM     26  CG1 VAL B   8       7.030 -28.617   5.156  1.00 19.61 LIG 0.01  C 
ENDBRANCH 20 24
ENDBRANCH 17 20
ENDBRANCH 14 16
ENDBRANCH 12 14
ENDBRANCH 9 10
BRANCH 9 27
ATOM     27  CB  SER B   6       9.303 -22.281   4.304  1.00 25.59 LIG 0.20  C 
BRANCH 27 28
ATOM     28 OG   SER B   6       9.921 -21.040   4.046  1.00 27.26 LIG-0.40  OA
ATOM     29 HG   SER B   6      10.702 -21.045   4.356  1.00 27.26 LIG 0.21  HD
ENDBRANCH 27 28
ENDBRANCH 9 27
ENDBRANCH 7 9
ENDBRANCH 1 5
BRANCH 1 30
ATOM     30  N   VAL B   5      14.434 -23.976   3.974  1.00 22.92 LIG-0.35  N 
ATOM     31 H    VAL B   5      14.574 -24.279   4.767  1.00 22.92 LIG 0.16  HD
ATOM     32  C   GLN B   4      15.331 -23.269   3.304  1.00 24.29 LIG 0.24  C 
ATOM     33 O    GLN B   4      15.183 -22.863   2.169  1.00 26.90 LIG-0.27  OA
BRANCH 32 34
ATOM     34  CA  GLN B   4      16.631 -22.990   4.062  1.00 30.52 LIG 0.18  C 
BRANCH 34 35
ATOM     35  CB  GLN B   4      16.702 -21.492   4.356  1.00 36.61 LIG 0.04  C 
BRANCH 35 36
ATOM     36  CG  GLN B   4      17.968 -21.080   5.087  1.00 50.94 LIG 0.10  C 
BRANCH 36 37
ATOM     37  CD  GLN B   4      18.659 -19.920   4.375  1.00 60.90 LIG 0.21  C 
ATOM     38  NE2 GLN B   4      18.940 -18.843   5.106  1.00 82.36 LIG-0.37  N 
ATOM     39 21HE GLN B   4      18.726 -18.820   5.938  1.00 82.36 LIG 0.16  HD
ATOM     40 22HE GLN B   4      19.336 -18.169   4.745  1.00 82.36 LIG 0.16  HD
ATOM     41 OE1  GLN B   4      18.943 -20.005   3.182  1.00 55.22 LIG-0.27  OA
ENDBRANCH 36 37
ENDBRANCH 35 36
ENDBRANCH 34 35
BRANCH 34 42
ATOM     42  N   GLN B   4      17.777 -23.409   3.279  1.00 37.98 LIG-0.35  N 
ATOM     43  C   GLU B   3      18.157 -22.765   2.180  1.00 56.89 LIG 0.26  C 
ATOM     44 O    GLU B   3      17.532 -21.822   1.716  1.00 56.58 LIG-0.27  OA
ATOM     45 H    GLN B   4      18.180 -24.102   3.589  1.00 37.98 LIG 0.16  HD
BRANCH 43 46
ATOM     46  CA  GLU B   3      19.429 -23.273   1.503  1.00 80.09 LIG 0.40  C 
ATOM     47  N   GLU B   3      19.113 -24.300   0.520  1.00 75.44 LIG 0.61  N 
BRANCH 46 48
ATOM     48  CB  GLU B   3      20.160 -22.117   0.828  1.00107.85 LIG 0.06  C 
BRANCH 48 49
ATOM     49  CG  GLU B   3      21.010 -21.301   1.773  1.00114.95 LIG 0.12  C 
BRANCH 49 50
ATOM     50  CD  GLU B   3      22.208 -22.079   2.285  1.00 96.82 LIG 0.17  C 
ATOM     51 OE1  GLU B   3      22.240 -23.320   2.106  1.00 91.15 LIG-0.65  OA
ATOM     52 OE2  GLU B   3      23.127 -21.447   2.855  1.00 91.13 LIG-0.65  OA
ENDBRANCH 49 50
ENDBRANCH 48 49
ENDBRANCH 46 48
ENDBRANCH 43 46
ENDBRANCH 34 42
ENDBRANCH 32 34
ENDBRANCH 1 30
TORSDOF 21
ENDMDL
MODEL 6
USER: ADFR SOLUTION from run 57
USER: SCORE 16.993215 LL:  -4.696 LR: -14.342 RR:   0.000 FEB:  -8.077
USER: RMSD 2.895750
USER: SEED 56
USER: STATUS no improvement in best in 6 clusters for 5 generations
USER: GENES 23
USER: genes 0 Translation |==|  0.48798 0.34873 0.54334
USER: genes 1 Rotation |==|  0.47944 0.50747 0.54254 0.99771
USER: genes 2 Torsion [C]-CA--CB-[CG2] |==|  0.03661
USER: genes 3 Torsion [N]-CA--C-[N] |==|  0.37997
USER: genes 4 Torsion [C]-N--CA-[CB] |==|  0.26717
USER: genes 5 Torsion [N]-CA--C-[N] |==|  0.35114
USER: genes 6 Torsion [C]-N--CA-[CB] |==|  0.51341
USER: genes 7 Torsion [N]-CA--C-[N] |==|  0.38639
USER: genes 8 Torsion [C]-N--CA-[CB] |==|  0.26177
USER: genes 9 Torsion [N]-CA--C-[O] |==|  0.49845
USER: genes 10 Torsion [N]-CA--CB-[CG2] |==|  0.12747
USER: genes 11 Torsion [N]-CA--CB-[OG] |==|  0.82182
USER: genes 12 Torsion [CA]-CB--OG-[HG] |==|  0.28827
USER: genes 13 Torsion [CB]-CA--N-[C] |==|  0.55000
USER: genes 14 Torsion [N]-C--CA-[N] |==|  0.06666
USER: genes 15 Torsion [C]-CA--CB-[CG] |==|  0.66833
USER: genes 16 Torsion [CA]-CB--CG-[CD] |==|  0.21417
USER: genes 17 Torsion [CB]-CG--CD-[OE1] |==|  0.05022
USER: genes 18 Torsion [C]-CA--N-[C] |==|  0.70542
USER: genes 19 Torsion [N]-C--CA-[N] |==|  0.65861
USER: genes 20 Torsion [C]-CA--CB-[CG] |==|  0.55045
USER: genes 21 Torsion [CA]-CB--CG-[CD] |==|  0.25426
USER: genes 22 Torsion [CB]-CG--CD-[OE1] |==|  0.91430
ROOT
ATOM      1  CA  VAL B   5      11.832 -25.556   5.104  1.00 23.44 LIG 0.18  C 
ENDROOT
BRANCH 1 2
ATOM      2  CB  VAL B   5      11.988 -27.024   4.703  1.00 27.20 LIG 0.01  C 
ATOM      3  CG2 VAL B   5      12.907 -27.176   3.527  1.00 32.91 LIG 0.01  C 
ATOM      4  CG1 VAL B   5      10.647 -27.671   4.433  1.00 27.01 LIG 0.01  C 
ENDBRANCH 1 2
BRANCH 1 5
ATOM      5  C   VAL B   5      12.388 -24.658   4.005  1.00 21.98 LIG 0.24  C 
ATOM      6 O    VAL B   5      11.755 -24.507   2.964  1.00 26.26 LIG-0.27  OA
ATOM      7  N   SER B   6      13.588 -24.105   4.198  1.00 19.41 LIG-0.34  N 
ATOM      8 H    SER B   6      14.066 -24.257   4.896  1.00 19.41 LIG 0.16  HD
BRANCH 7 9
ATOM      9  CA  SER B   6      14.210 -23.197   3.259  1.00 20.84 LIG 0.20  C 
BRANCH 9 10
ATOM     10  C   SER B   6      15.708 -23.398   3.165  1.00 18.76 LIG 0.24  C 
ATOM     11 O    SER B   6      16.435 -23.295   4.135  1.00 19.89 LIG-0.27  OA
ATOM     12  N   ALA B   7      16.162 -23.590   1.949  1.00 19.53 LIG-0.35  N 
ATOM     13 H    ALA B   7      15.643 -23.634   1.265  1.00 19.53 LIG 0.16  HD
BRANCH 12 14
ATOM     14  CA  ALA B   7      17.569 -23.749   1.607  1.00 19.70 LIG 0.17  C 
ATOM     15  CB  ALA B   7      17.718 -23.832   0.078  1.00 20.39 LIG 0.04  C 
BRANCH 14 16
ATOM     16  C   ALA B   7      18.412 -22.581   2.088  1.00 16.34 LIG 0.24  C 
ATOM     17  N   VAL B   8      19.595 -22.844   2.609  1.00 16.85 LIG-0.34  N 
ATOM     18 H    VAL B   8      19.888 -23.637   2.766  1.00 16.85 LIG 0.16  HD
ATOM     19 O    ALA B   7      18.011 -21.446   1.930  1.00 20.16 LIG-0.27  OA
BRANCH 17 20
ATOM     20  CA  VAL B   8      20.524 -21.765   2.970  1.00 17.28 LIG 0.19  C 
BRANCH 20 21
ATOM     21  C   VAL B   8      21.943 -22.210   2.635  1.00 17.19 LIG 0.20  C 
ATOM     22 O    VAL B   8      22.904 -21.436   2.852  1.00 24.30 LIG-0.65  OA
ATOM     23 OXT  VAL B   8      22.168 -23.323   2.106  1.00 16.53 LIG-0.65  OA
ENDBRANCH 20 21
BRANCH 20 24
ATOM     24  CB  VAL B   8      20.403 -21.348   4.469  1.00 17.38 LIG 0.01  C 
ATOM     25  CG2 VAL B   8      20.362 -22.598   5.342  1.00 18.61 LIG 0.01  C 
ATOM     26  CG1 VAL B   8      19.217 -20.445   4.678  1.00 19.61 LIG 0.01  C 
ENDBRANCH 20 24
ENDBRANCH 17 20
ENDBRANCH 14 16
ENDBRANCH 12 14
ENDBRANCH 9 10
BRANCH 9 27
ATOM     27  CB  SER B   6      13.953 -21.751   3.660  1.00 25.59 LIG 0.20  C 
BRANCH 27 28
ATOM     28 OG   SER B   6      12.574 -21.458   3.592  1.00 27.26 LIG-0.40  OA
ATOM     29 HG   SER B   6      12.253 -21.441   4.368  1.00 27.26 LIG 0.21  HD
ENDBRANCH 27 28
ENDBRANCH 9 27
ENDBRANCH 7 9
ENDBRANCH 1 5
BRANCH 1 30
ATOM     30  N   VAL B   5      10.438 -25.215   5.267  1.00 22.92 LIG-0.35  N 
ATOM     31 H    VAL B   5       9.927 -25.901   5.363  1.00 22.92 LIG 0.16  HD
ATOM     32  C   GLN B   4       9.984 -23.972   5.271  1.00 24.29 LIG 0.24  C 
ATOM     33 O    GLN B   4      10.680 -22.980   5.181  1.00 26.90 LIG-0.27  OA
BRANCH 32 34
ATOM     34  CA  GLN B   4       8.466 -23.839   5.414  1.00 30.52 LIG 0.18  C 
BRANCH 34 35
ATOM     35  CB  GLN B   4       8.170 -22.583   6.234  1.00 36.61 LIG 0.04  C 
BRANCH 35 36
ATOM     36  CG  GLN B   4       7.421 -22.868   7.524  1.00 50.94 LIG 0.10  C 
BRANCH 36 37
ATOM     37  CD  GLN B   4       8.357 -23.432   8.589  1.00 60.90 LIG 0.21  C 
ATOM     38  NE2 GLN B   4       7.794 -24.072   9.612  1.00 82.36 LIG-0.37  N 
ATOM     39 21HE GLN B   4       6.938 -24.146   9.655  1.00 82.36 LIG 0.16  HD
ATOM     40 22HE GLN B   4       8.286 -24.411  10.231  1.00 82.36 LIG 0.16  HD
ATOM     41 OE1  GLN B   4       9.574 -23.298   8.480  1.00 55.22 LIG-0.27  OA
ENDBRANCH 36 37
ENDBRANCH 35 36
ENDBRANCH 34 35
BRANCH 34 42
ATOM     42  N   GLN B   4       7.910 -25.011   6.062  1.00 37.98 LIG-0.35  N 
ATOM     43  C   GLU B   3       7.222 -25.930   5.392  1.00 56.89 LIG 0.26  C 
ATOM     44 O    GLU B   3       6.950 -25.819   4.205  1.00 56.58 LIG-0.27  OA
ATOM     45 H    GLN B   4       8.066 -25.053   6.906  1.00 37.98 LIG 0.16  HD
BRANCH 43 46
ATOM     46  CA  GLU B   3       6.765 -27.149   6.190  1.00 80.09 LIG 0.40  C 
ATOM     47  N   GLU B   3       7.267 -28.376   5.588  1.00 75.44 LIG 0.61  N 
BRANCH 46 48
ATOM     48  CB  GLU B   3       7.248 -27.043   7.633  1.00107.85 LIG 0.06  C 
BRANCH 48 49
ATOM     49  CG  GLU B   3       7.233 -28.357   8.377  1.00114.95 LIG 0.12  C 
BRANCH 49 50
ATOM     50  CD  GLU B   3       8.555 -29.093   8.269  1.00 96.82 LIG 0.17  C 
ATOM     51 OE1  GLU B   3       9.242 -28.946   7.231  1.00 91.15 LIG-0.65  OA
ATOM     52 OE2  GLU B   3       8.915 -29.811   9.231  1.00 91.13 LIG-0.65  OA
ENDBRANCH 49 50
ENDBRANCH 48 49
ENDBRANCH 46 48
ENDBRANCH 43 46
ENDBRANCH 34 42
ENDBRANCH 32 34
ENDBRANCH 1 30
TORSDOF 21
ENDMDL
MODEL 7
USER: ADFR SOLUTION from run 116
USER: SCORE 16.363856 LL:  -4.192 LR: -14.293 RR:   0.000 FEB:  -8.029
USER: RMSD 12.573188
USER: SEED 115
USER: STATUS no improvement in best in 6 clusters for 5 generations
USER: GENES 23
USER: genes 0 Translation |==|  0.69822 0.50953 0.49737
USER: genes 1 Rotation |==|  0.74107 0.28020 0.87787 0.52805
USER: genes 2 Torsion [C]-CA--CB-[CG2] |==|  0.72981
USER: genes 3 Torsion [N]-CA--C-[N] |==|  0.72783
USER: genes 4 Torsion [C]-N--CA-[CB] |==|  0.60295
USER: genes 5 Torsion [N]-CA--C-[N] |==|  0.32947
USER: genes 6 Torsion [C]-N--CA-[CB] |==|  0.25538
USER: genes 7 Torsion [N]-CA--C-[N] |==|  0.02051
USER: genes 8 Torsion [C]-N--CA-[CB] |==|  0.33495
USER: genes 9 Torsion [N]-CA--C-[O] |==|  0.43415
USER: genes 10 Torsion [N]-CA--CB-[CG2] |==|  0.67113
USER: genes 11 Torsion [N]-CA--CB-[OG] |==|  0.57703
USER: genes 12 Torsion [CA]-CB--OG-[HG] |==|  0.95433
USER: genes 13 Torsion [CB]-CA--N-[C] |==|  0.77617
USER: genes 14 Torsion [N]-C--CA-[N] |==|  0.87256
USER: genes 15 Torsion [C]-CA--CB-[CG] |==|  0.82069
USER: genes 16 Torsion [CA]-CB--CG-[CD] |==|  0.73784
USER: genes 17 Torsion [CB]-CG--CD-[OE1] |==|  0.85553
USER: genes 18 Torsion [C]-CA--N-[C] |==|  0.81559
USER: genes 19 Torsion [N]-C--CA-[N] |==|  0.35212
USER: genes 20 Torsion [C]-CA--CB-[CG] |==|  0.15885
USER: genes 21 Torsion [CA]-CB--CG-[CD] |==|  0.12967
USER: genes 22 Torsion [CB]-CG--CD-[OE1] |==|  0.97223
ROOT
ATOM      1  CA  VAL B   5      18.140 -22.783   4.311  1.00 23.44 LIG 0.18  C 
ENDROOT
BRANCH 1 2
ATOM      2  CB  VAL B   5      18.558 -21.510   5.048  1.00 27.20 LIG 0.01  C 
ATOM      3  CG2 VAL B   5      18.938 -20.421   4.090  1.00 32.91 LIG 0.01  C 
ATOM      4  CG1 VAL B   5      19.674 -21.781   6.034  1.00 27.01 LIG 0.01  C 
ENDBRANCH 1 2
BRANCH 1 5
ATOM      5  C   VAL B   5      16.620 -22.842   4.202  1.00 21.98 LIG 0.24  C 
ATOM      6 O    VAL B   5      16.068 -23.916   3.980  1.00 26.26 LIG-0.27  OA
ATOM      7  N   SER B   6      15.942 -21.696   4.298  1.00 19.41 LIG-0.34  N 
ATOM      8 H    SER B   6      16.326 -20.932   4.389  1.00 19.41 LIG 0.16  HD
BRANCH 7 9
ATOM      9  CA  SER B   6      14.499 -21.615   4.259  1.00 20.84 LIG 0.20  C 
BRANCH 9 10
ATOM     10  C   SER B   6      13.868 -22.816   3.589  1.00 18.76 LIG 0.24  C 
ATOM     11 O    SER B   6      14.024 -23.051   2.405  1.00 19.89 LIG-0.27  OA
ATOM     12  N   ALA B   7      13.069 -23.519   4.356  1.00 19.53 LIG-0.35  N 
ATOM     13 H    ALA B   7      12.943 -23.330   5.186  1.00 19.53 LIG 0.16  HD
BRANCH 12 14
ATOM     14  CA  ALA B   7      12.309 -24.681   3.915  1.00 19.70 LIG 0.17  C 
ATOM     15  CB  ALA B   7      13.132 -25.957   4.170  1.00 20.39 LIG 0.04  C 
BRANCH 14 16
ATOM     16  C   ALA B   7      10.996 -24.825   4.663  1.00 16.34 LIG 0.24  C 
ATOM     17  N   VAL B   8      10.635 -23.849   5.474  1.00 16.85 LIG-0.34  N 
ATOM     18 H    VAL B   8      11.131 -23.173   5.667  1.00 16.85 LIG 0.16  HD
ATOM     19 O    ALA B   7      10.289 -25.791   4.457  1.00 20.16 LIG-0.27  OA
BRANCH 17 20
ATOM     20  CA  VAL B   8       9.319 -23.849   6.126  1.00 17.28 LIG 0.19  C 
BRANCH 20 21
ATOM     21  C   VAL B   8       8.523 -22.651   5.620  1.00 17.19 LIG 0.20  C 
ATOM     22 O    VAL B   8       7.272 -22.674   5.667  1.00 24.30 LIG-0.65  OA
ATOM     23 OXT  VAL B   8       9.094 -21.658   5.115  1.00 16.53 LIG-0.65  OA
ENDBRANCH 20 21
BRANCH 20 24
ATOM     24  CB  VAL B   8       9.423 -23.838   7.684  1.00 17.38 LIG 0.01  C 
ATOM     25  CG2 VAL B   8       8.779 -25.102   8.244  1.00 18.61 LIG 0.01  C 
ATOM     26  CG1 VAL B   8       8.830 -22.576   8.250  1.00 19.61 LIG 0.01  C 
ENDBRANCH 20 24
ENDBRANCH 17 20
ENDBRANCH 14 16
ENDBRANCH 12 14
ENDBRANCH 9 10
BRANCH 9 27
ATOM     27  CB  SER B   6      14.051 -20.367   3.510  1.00 25.59 LIG 0.20  C 
BRANCH 27 28
ATOM     28 OG   SER B   6      12.792 -19.936   3.977  1.00 27.26 LIG-0.40  OA
ATOM     29 HG   SER B   6      12.426 -20.557   4.409  1.00 27.26 LIG 0.21  HD
ENDBRANCH 27 28
ENDBRANCH 9 27
ENDBRANCH 7 9
ENDBRANCH 1 5
BRANCH 1 30
ATOM     30  N   VAL B   5      18.662 -22.789   2.964  1.00 22.92 LIG-0.35  N 
ATOM     31 H    VAL B   5      19.375 -23.264   2.876  1.00 22.92 LIG 0.16  HD
ATOM     32  C   GLN B   4      18.106 -22.132   1.958  1.00 24.29 LIG 0.24  C 
ATOM     33 O    GLN B   4      17.078 -21.489   2.037  1.00 26.90 LIG-0.27  OA
BRANCH 32 34
ATOM     34  CA  GLN B   4      18.849 -22.241   0.625  1.00 30.52 LIG 0.18  C 
BRANCH 34 35
ATOM     35  CB  GLN B   4      18.582 -23.626   0.039  1.00 36.61 LIG 0.04  C 
BRANCH 35 36
ATOM     36  CG  GLN B   4      19.147 -24.757   0.881  1.00 50.94 LIG 0.10  C 
BRANCH 36 37
ATOM     37  CD  GLN B   4      20.533 -25.166   0.390  1.00 60.90 LIG 0.21  C 
ATOM     38  NE2 GLN B   4      21.505 -25.222   1.299  1.00 82.36 LIG-0.37  N 
ATOM     39 21HE GLN B   4      21.338 -25.024   2.119  1.00 82.36 LIG 0.16  HD
ATOM     40 22HE GLN B   4      22.300 -25.455   1.066  1.00 82.36 LIG 0.16  HD
ATOM     41 OE1  GLN B   4      20.717 -25.438  -0.794  1.00 55.22 LIG-0.27  OA
ENDBRANCH 36 37
ENDBRANCH 35 36
ENDBRANCH 34 35
BRANCH 34 42
ATOM     42  N   GLN B   4      20.271 -22.035   0.816  1.00 37.98 LIG-0.35  N 
ATOM     43  C   GLU B   3      20.772 -20.865   1.198  1.00 56.89 LIG 0.26  C 
ATOM     44 O    GLU B   3      20.082 -19.866   1.349  1.00 56.58 LIG-0.27  OA
ATOM     45 H    GLN B   4      20.751 -22.731   0.660  1.00 37.98 LIG 0.16  HD
BRANCH 43 46
ATOM     46  CA  GLU B   3      22.280 -20.818   1.435  1.00 80.09 LIG 0.40  C 
ATOM     47  N   GLU B   3      22.888 -19.738   0.669  1.00 75.44 LIG 0.61  N 
BRANCH 46 48
ATOM     48  CB  GLU B   3      22.572 -20.629   2.920  1.00107.85 LIG 0.06  C 
BRANCH 48 49
ATOM     49  CG  GLU B   3      21.967 -21.698   3.799  1.00114.95 LIG 0.12  C 
BRANCH 49 50
ATOM     50  CD  GLU B   3      22.214 -23.094   3.259  1.00 96.82 LIG 0.17  C 
ATOM     51 OE1  GLU B   3      22.692 -23.217   2.106  1.00 91.15 LIG-0.65  OA
ATOM     52 OE2  GLU B   3      21.943 -24.072   3.994  1.00 91.13 LIG-0.65  OA
ENDBRANCH 49 50
ENDBRANCH 48 49
ENDBRANCH 46 48
ENDBRANCH 43 46
ENDBRANCH 34 42
ENDBRANCH 32 34
ENDBRANCH 1 30
TORSDOF 21
ENDMDL
MODEL 8
USER: ADFR SOLUTION from run 109
USER: SCORE 16.019683 LL:  -4.110 LR: -14.261 RR:   0.000 FEB:  -7.996
USER: RMSD 11.887556
USER: SEED 108
USER: STATUS no improvement in best in 12 clusters for 5 generations
USER: GENES 23
USER: genes 0 Translation |==|  0.70418 0.55432 0.51482
USER: genes 1 Rotation |==|  0.33112 0.62247 0.05168 0.57409
USER: genes 2 Torsion [C]-CA--CB-[CG2] |==|  0.70953
USER: genes 3 Torsion [N]-CA--C-[N] |==|  0.62925
USER: genes 4 Torsion [C]-N--CA-[CB] |==|  0.17954
USER: genes 5 Torsion [N]-CA--C-[N] |==|  0.46866
USER: genes 6 Torsion [C]-N--CA-[CB] |==|  0.77778
USER: genes 7 Torsion [N]-CA--C-[N] |==|  0.10001
USER: genes 8 Torsion [C]-N--CA-[CB] |==|  0.24510
USER: genes 9 Torsion [N]-CA--C-[O] |==|  0.48094
USER: genes 10 Torsion [N]-CA--CB-[CG2] |==|  0.82053
USER: genes 11 Torsion [N]-CA--CB-[OG] |==|  0.60443
USER: genes 12 Torsion [CA]-CB--OG-[HG] |==|  0.83335
USER: genes 13 Torsion [CB]-CA--N-[C] |==|  0.20408
USER: genes 14 Torsion [N]-C--CA-[N] |==|  0.95603
USER: genes 15 Torsion [C]-CA--CB-[CG] |==|  0.29368
USER: genes 16 Torsion [CA]-CB--CG-[CD] |==|  0.44486
USER: genes 17 Torsion [CB]-CG--CD-[OE1] |==|  0.33471
USER: genes 18 Torsion [C]-CA--N-[C] |==|  0.75713
USER: genes 19 Torsion [N]-C--CA-[N] |==|  0.52132
USER: genes 20 Torsion [C]-CA--CB-[CG] |==|  0.21567
USER: genes 21 Torsion [CA]-CB--CG-[CD] |==|  0.67361
USER: genes 22 Torsion [CB]-CG--CD-[OE1] |==|  0.30304
ROOT
ATOM      1  CA  VAL B   5      18.318 -22.010   4.612  1.00 23.44 LIG 0.18  C 
ENDROOT
BRANCH 1 2
ATOM      2  CB  VAL B   5      17.879 -20.599   5.005  1.00 27.20 LIG 0.01  C 
ATOM      3  CG2 VAL B   5      18.502 -19.564   4.116  1.00 32.91 LIG 0.01  C 
ATOM      4  CG1 VAL B   5      18.170 -20.312   6.462  1.00 27.01 LIG 0.01  C 
ENDBRANCH 1 2
BRANCH 1 5
ATOM      5  C   VAL B   5      17.186 -22.719   3.878  1.00 21.98 LIG 0.24  C 
ATOM      6 O    VAL B   5      17.424 -23.734   3.228  1.00 26.26 LIG-0.27  OA
ATOM      7  N   SER B   6      15.971 -22.169   3.925  1.00 19.41 LIG-0.34  N 
ATOM      8 H    SER B   6      15.810 -21.425   4.324  1.00 19.41 LIG 0.16  HD
BRANCH 7 9
ATOM      9  CA  SER B   6      14.801 -22.760   3.314  1.00 20.84 LIG 0.20  C 
BRANCH 9 10
ATOM     10  C   SER B   6      13.585 -21.864   3.402  1.00 18.76 LIG 0.24  C 
ATOM     11 O    SER B   6      13.533 -20.919   4.168  1.00 19.89 LIG-0.27  OA
ATOM     12  N   ALA B   7      12.566 -22.244   2.668  1.00 19.53 LIG-0.35  N 
ATOM     13 H    ALA B   7      12.601 -22.929   2.150  1.00 19.53 LIG 0.16  HD
BRANCH 12 14
ATOM     14  CA  ALA B   7      11.273 -21.572   2.636  1.00 19.70 LIG 0.17  C 
ATOM     15  CB  ALA B   7      10.444 -21.999   3.860  1.00 20.39 LIG 0.04  C 
BRANCH 14 16
ATOM     16  C   ALA B   7      11.411 -20.060   2.679  1.00 16.34 LIG 0.24  C 
ATOM     17  N   VAL B   8      12.432 -19.514   2.046  1.00 16.85 LIG-0.34  N 
ATOM     18 H    VAL B   8      13.067 -19.961   1.677  1.00 16.85 LIG 0.16  HD
ATOM     19 O    ALA B   7      10.562 -19.395   3.236  1.00 20.16 LIG-0.27  OA
BRANCH 17 20
ATOM     20  CA  VAL B   8      12.559 -18.056   1.925  1.00 17.28 LIG 0.19  C 
BRANCH 20 21
ATOM     21  C   VAL B   8      13.254 -17.733   0.607  1.00 17.19 LIG 0.20  C 
ATOM     22 O    VAL B   8      13.353 -16.542   0.234  1.00 24.30 LIG-0.65  OA
ATOM     23 OXT  VAL B   8      13.692 -18.641  -0.135  1.00 16.53 LIG-0.65  OA
ENDBRANCH 20 21
BRANCH 20 24
ATOM     24  CB  VAL B   8      13.318 -17.419   3.132  1.00 17.38 LIG 0.01  C 
ATOM     25  CG2 VAL B   8      12.505 -17.621   4.406  1.00 18.61 LIG 0.01  C 
ATOM     26  CG1 VAL B   8      13.636 -15.973   2.861  1.00 19.61 LIG 0.01  C 
ENDBRANCH 20 24
ENDBRANCH 17 20
ENDBRANCH 14 16
ENDBRANCH 12 14
ENDBRANCH 9 10
BRANCH 9 27
ATOM     27  CB  SER B   6      14.459 -24.086   3.980  1.00 25.59 LIG 0.20  C 
BRANCH 27 28
ATOM     28 OG   SER B   6      14.003 -25.017   3.023  1.00 27.26 LIG-0.40  OA
ATOM     29 HG   SER B   6      13.315 -24.716   2.645  1.00 27.26 LIG 0.21  HD
ENDBRANCH 27 28
ENDBRANCH 9 27
ENDBRANCH 7 9
ENDBRANCH 1 5
BRANCH 1 30
ATOM     30  N   VAL B   5      19.445 -21.963   3.709  1.00 22.92 LIG-0.35  N 
ATOM     31 H    VAL B   5      19.241 -22.158   2.897  1.00 22.92 LIG 0.16  HD
ATOM     32  C   GLN B   4      20.675 -21.649   4.088  1.00 24.29 LIG 0.24  C 
ATOM     33 O    GLN B   4      20.990 -21.326   5.216  1.00 26.90 LIG-0.27  OA
BRANCH 32 34
ATOM     34  CA  GLN B   4      21.727 -21.702   2.977  1.00 30.52 LIG 0.18  C 
BRANCH 34 35
ATOM     35  CB  GLN B   4      22.078 -20.269   2.580  1.00 36.61 LIG 0.04  C 
BRANCH 35 36
ATOM     36  CG  GLN B   4      23.435 -19.817   3.089  1.00 50.94 LIG 0.10  C 
BRANCH 36 37
ATOM     37  CD  GLN B   4      23.949 -18.620   2.294  1.00 60.90 LIG 0.21  C 
ATOM     38  NE2 GLN B   4      24.102 -18.787   0.981  1.00 82.36 LIG-0.37  N 
ATOM     39 21HE GLN B   4      23.920 -19.546   0.620  1.00 82.36 LIG 0.16  HD
ATOM     40 22HE GLN B   4      24.382 -18.136   0.494  1.00 82.36 LIG 0.16  HD
ATOM     41 OE1  GLN B   4      24.194 -17.557   2.859  1.00 55.22 LIG-0.27  OA
ENDBRANCH 36 37
ENDBRANCH 35 36
ENDBRANCH 34 35
BRANCH 34 42
ATOM     42  N   GLN B   4      21.224 -22.438   1.834  1.00 37.98 LIG-0.35  N 
ATOM     43  C   GLU B   3      21.344 -23.758   1.732  1.00 56.89 LIG 0.26  C 
ATOM     44 O    GLU B   3      21.943 -24.433   2.557  1.00 56.58 LIG-0.27  OA
ATOM     45 H    GLN B   4      20.847 -21.946   1.238  1.00 37.98 LIG 0.16  HD
BRANCH 43 46
ATOM     46  CA  GLU B   3      20.697 -24.406   0.510  1.00 80.09 LIG 0.40  C 
ATOM     47  N   GLU B   3      20.743 -25.857   0.612  1.00 75.44 LIG 0.61  N 
BRANCH 46 48
ATOM     48  CB  GLU B   3      19.251 -23.940   0.373  1.00107.85 LIG 0.06  C 
BRANCH 48 49
ATOM     49  CG  GLU B   3      19.112 -22.551  -0.203  1.00114.95 LIG 0.12  C 
BRANCH 49 50
ATOM     50  CD  GLU B   3      18.460 -21.589   0.771  1.00 96.82 LIG 0.17  C 
ATOM     51 OE1  GLU B   3      19.164 -20.692   1.293  1.00 91.15 LIG-0.65  OA
ATOM     52 OE2  GLU B   3      17.236 -21.720   1.007  1.00 91.13 LIG-0.65  OA
ENDBRANCH 49 50
ENDBRANCH 48 49
ENDBRANCH 46 48
ENDBRANCH 43 46
ENDBRANCH 34 42
ENDBRANCH 32 34
ENDBRANCH 1 30
TORSDOF 21
ENDMDL
MODEL 9
USER: ADFR SOLUTION from run 19
USER: SCORE 16.247163 LL:  -3.890 LR: -14.214 RR:   0.000 FEB:  -7.949
USER: RMSD 13.476694
USER: SEED 18
USER: STATUS no improvement in best in 20 clusters for 5 generations
USER: GENES 23
USER: genes 0 Translation |==|  0.70075 0.56645 0.48880
USER: genes 1 Rotation |==|  0.66951 0.32403 0.93002 0.57336
USER: genes 2 Torsion [C]-CA--CB-[CG2] |==|  0.55501
USER: genes 3 Torsion [N]-CA--C-[N] |==|  0.42183
USER: genes 4 Torsion [C]-N--CA-[CB] |==|  0.87087
USER: genes 5 Torsion [N]-CA--C-[N] |==|  0.33618
USER: genes 6 Torsion [C]-N--CA-[CB] |==|  0.18273
USER: genes 7 Torsion [N]-CA--C-[N] |==|  0.07441
USER: genes 8 Torsion [C]-N--CA-[CB] |==|  0.37421
USER: genes 9 Torsion [N]-CA--C-[O] |==|  0.48218
USER: genes 10 Torsion [N]-CA--CB-[CG2] |==|  0.59735
USER: genes 11 Torsion [N]-CA--CB-[OG] |==|  0.66151
USER: genes 12 Torsion [CA]-CB--OG-[HG] |==|  0.89728
USER: genes 13 Torsion [CB]-CA--N-[C] |==|  0.87006
USER: genes 14 Torsion [N]-C--CA-[N] |==|  0.64760
USER: genes 15 Torsion [C]-CA--CB-[CG] |==|  0.72470
USER: genes 16 Torsion [CA]-CB--CG-[CD] |==|  0.18800
USER: genes 17 Torsion [CB]-CG--CD-[OE1] |==|  0.68344
USER: genes 18 Torsion [C]-CA--N-[C] |==|  0.71111
USER: genes 19 Torsion [N]-C--CA-[N] |==|  0.41262
USER: genes 20 Torsion [C]-CA--CB-[CG] |==|  0.23833
USER: genes 21 Torsion [CA]-CB--CG-[CD] |==|  0.19294
USER: genes 22 Torsion [CB]-CG--CD-[OE1] |==|  0.71230
ROOT
ATOM      1  CA  VAL B   5      18.216 -21.801   4.163  1.00 23.44 LIG 0.18  C 
ENDROOT
BRANCH 1 2
ATOM      2  CB  VAL B   5      18.729 -20.417   4.563  1.00 27.20 LIG 0.01  C 
ATOM      3  CG2 VAL B   5      20.227 -20.366   4.561  1.00 32.91 LIG 0.01  C 
ATOM      4  CG1 VAL B   5      18.171 -19.983   5.902  1.00 27.01 LIG 0.01  C 
ENDBRANCH 1 2
BRANCH 1 5
ATOM      5  C   VAL B   5      16.766 -21.702   3.702  1.00 21.98 LIG 0.24  C 
ATOM      6 O    VAL B   5      16.518 -21.485   2.519  1.00 26.26 LIG-0.27  OA
ATOM      7  N   SER B   6      15.809 -21.802   4.627  1.00 19.41 LIG-0.34  N 
ATOM      8 H    SER B   6      15.977 -21.890   5.465  1.00 19.41 LIG 0.16  HD
BRANCH 7 9
ATOM      9  CA  SER B   6      14.395 -21.772   4.321  1.00 20.84 LIG 0.20  C 
BRANCH 9 10
ATOM     10  C   SER B   6      13.911 -23.062   3.694  1.00 18.76 LIG 0.24  C 
ATOM     11 O    SER B   6      14.314 -23.444   2.611  1.00 19.89 LIG-0.27  OA
ATOM     12  N   ALA B   7      12.958 -23.673   4.358  1.00 19.53 LIG-0.35  N 
ATOM     13 H    ALA B   7      12.660 -23.381   5.109  1.00 19.53 LIG 0.16  HD
BRANCH 12 14
ATOM     14  CA  ALA B   7      12.298 -24.896   3.919  1.00 19.70 LIG 0.17  C 
ATOM     15  CB  ALA B   7      13.314 -26.052   3.916  1.00 20.39 LIG 0.04  C 
BRANCH 14 16
ATOM     16  C   ALA B   7      11.155 -25.292   4.837  1.00 16.34 LIG 0.24  C 
ATOM     17  N   VAL B   8      10.546 -24.336   5.514  1.00 16.85 LIG-0.34  N 
ATOM     18 H    VAL B   8      10.804 -23.516   5.529  1.00 16.85 LIG 0.16  HD
ATOM     19 O    ALA B   7      10.794 -26.450   4.882  1.00 20.16 LIG-0.27  OA
BRANCH 17 20
ATOM     20  CA  VAL B   8       9.347 -24.618   6.314  1.00 17.28 LIG 0.19  C 
BRANCH 20 21
ATOM     21  C   VAL B   8       8.121 -24.152   5.537  1.00 17.19 LIG 0.20  C 
ATOM     22 O    VAL B   8       6.976 -24.403   5.977  1.00 24.30 LIG-0.65  OA
ATOM     23 OXT  VAL B   8       8.233 -23.559   4.440  1.00 16.53 LIG-0.65  OA
ENDBRANCH 20 21
BRANCH 20 24
ATOM     24  CB  VAL B   8       9.403 -23.957   7.727  1.00 17.38 LIG 0.01  C 
ATOM     25  CG2 VAL B   8       8.724 -24.871   8.742  1.00 18.61 LIG 0.01  C 
ATOM     26  CG1 VAL B   8       8.810 -22.574   7.694  1.00 19.61 LIG 0.01  C 
ENDBRANCH 20 24
ENDBRANCH 17 20
ENDBRANCH 14 16
ENDBRANCH 12 14
ENDBRANCH 9 10
BRANCH 9 27
ATOM     27  CB  SER B   6      14.077 -20.632   3.363  1.00 25.59 LIG 0.20  C 
BRANCH 27 28
ATOM     28 OG   SER B   6      13.126 -19.760   3.933  1.00 27.26 LIG-0.40  OA
ATOM     29 HG   SER B   6      12.567 -20.205   4.376  1.00 27.26 LIG 0.21  HD
ENDBRANCH 27 28
ENDBRANCH 9 27
ENDBRANCH 7 9
ENDBRANCH 1 5
BRANCH 1 30
ATOM     30  N   VAL B   5      18.979 -22.329   3.056  1.00 22.92 LIG-0.35  N 
ATOM     31 H    VAL B   5      19.225 -23.145   3.169  1.00 22.92 LIG 0.16  HD
ATOM     32  C   GLN B   4      19.274 -21.631   1.970  1.00 24.29 LIG 0.24  C 
ATOM     33 O    GLN B   4      18.907 -20.492   1.759  1.00 26.90 LIG-0.27  OA
BRANCH 32 34
ATOM     34  CA  GLN B   4      20.130 -22.370   0.939  1.00 30.52 LIG 0.18  C 
BRANCH 34 35
ATOM     35  CB  GLN B   4      20.537 -23.718   1.532  1.00 36.61 LIG 0.04  C 
BRANCH 35 36
ATOM     36  CG  GLN B   4      21.942 -23.724   2.110  1.00 50.94 LIG 0.10  C 
BRANCH 36 37
ATOM     37  CD  GLN B   4      22.029 -22.837   3.348  1.00 60.90 LIG 0.21  C 
ATOM     38  NE2 GLN B   4      21.344 -23.229   4.422  1.00 82.36 LIG-0.37  N 
ATOM     39 21HE GLN B   4      20.875 -23.948   4.393  1.00 82.36 LIG 0.16  HD
ATOM     40 22HE GLN B   4      21.371 -22.761   5.144  1.00 82.36 LIG 0.16  HD
ATOM     41 OE1  GLN B   4      22.714 -21.818   3.335  1.00 55.22 LIG-0.27  OA
ENDBRANCH 36 37
ENDBRANCH 35 36
ENDBRANCH 34 35
BRANCH 34 42
ATOM     42  N   GLN B   4      21.303 -21.590   0.597  1.00 37.98 LIG-0.35  N 
ATOM     43  C   GLU B   3      21.401 -20.923  -0.548  1.00 56.89 LIG 0.26  C 
ATOM     44 O    GLU B   3      20.543 -20.974  -1.419  1.00 56.58 LIG-0.27  OA
ATOM     45 H    GLN B   4      21.919 -21.602   1.197  1.00 37.98 LIG 0.16  HD
BRANCH 43 46
ATOM     46  CA  GLU B   3      22.661 -20.082  -0.738  1.00 80.09 LIG 0.40  C 
ATOM     47  N   GLU B   3      23.033 -20.021  -2.145  1.00 75.44 LIG 0.61  N 
BRANCH 46 48
ATOM     48  CB  GLU B   3      22.437 -18.673  -0.199  1.00107.85 LIG 0.06  C 
BRANCH 48 49
ATOM     49  CG  GLU B   3      22.707 -18.538   1.281  1.00114.95 LIG 0.12  C 
BRANCH 49 50
ATOM     50  CD  GLU B   3      24.183 -18.667   1.609  1.00 96.82 LIG 0.17  C 
ATOM     51 OE1  GLU B   3      24.596 -19.741   2.107  1.00 91.15 LIG-0.65  OA
ATOM     52 OE2  GLU B   3      24.935 -17.697   1.356  1.00 91.13 LIG-0.65  OA
ENDBRANCH 49 50
ENDBRANCH 48 49
ENDBRANCH 46 48
ENDBRANCH 43 46
ENDBRANCH 34 42
ENDBRANCH 32 34
ENDBRANCH 1 30
TORSDOF 21
ENDMDL
MODEL 10
USER: ADFR SOLUTION from run 8
USER: SCORE 15.754323 LL:  -4.739 LR: -14.196 RR:   0.000 FEB:  -7.931
USER: RMSD 13.274458
USER: SEED 254778
USER: STATUS no improvement in best in 7 clusters for 5 generations
USER: GENES 23
USER: genes 0 Translation |==|  0.73680 0.51939 0.50286
USER: genes 1 Rotation |==|  0.72647 0.25327 0.85582 0.60596
USER: genes 2 Torsion [C]-CA--CB-[CG2] |==|  0.61681
USER: genes 3 Torsion [N]-CA--C-[N] |==|  0.16941
USER: genes 4 Torsion [C]-N--CA-[CB] |==|  0.18383
USER: genes 5 Torsion [N]-CA--C-[N] |==|  0.36814
USER: genes 6 Torsion [C]-N--CA-[CB] |==|  0.23747
USER: genes 7 Torsion [N]-CA--C-[N] |==|  0.96083
USER: genes 8 Torsion [C]-N--CA-[CB] |==|  0.88316
USER: genes 9 Torsion [N]-CA--C-[O] |==|  0.79936
USER: genes 10 Torsion [N]-CA--CB-[CG2] |==|  0.81615
USER: genes 11 Torsion [N]-CA--CB-[OG] |==|  0.08769
USER: genes 12 Torsion [CA]-CB--OG-[HG] |==|  0.08904
USER: genes 13 Torsion [CB]-CA--N-[C] |==|  0.80000
USER: genes 14 Torsion [N]-C--CA-[N] |==|  0.66177
USER: genes 15 Torsion [C]-CA--CB-[CG] |==|  0.29172
USER: genes 16 Torsion [CA]-CB--CG-[CD] |==|  0.90363
USER: genes 17 Torsion [CB]-CG--CD-[OE1] |==|  0.28335
USER: genes 18 Torsion [C]-CA--N-[C] |==|  0.20800
USER: genes 19 Torsion [N]-C--CA-[N] |==|  0.84191
USER: genes 20 Torsion [C]-CA--CB-[CG] |==|  0.24955
USER: genes 21 Torsion [CA]-CB--CG-[CD] |==|  0.11325
USER: genes 22 Torsion [CB]-CG--CD-[OE1] |==|  0.26947
ROOT
ATOM      1  CA  VAL B   5      19.297 -22.612   4.405  1.00 23.44 LIG 0.18  C 
ENDROOT
BRANCH 1 2
ATOM      2  CB  VAL B   5      20.185 -21.528   5.017  1.00 27.20 LIG 0.01  C 
ATOM      3  CG2 VAL B   5      21.416 -21.298   4.192  1.00 32.91 LIG 0.01  C 
ATOM      4  CG1 VAL B   5      20.544 -21.848   6.452  1.00 27.01 LIG 0.01  C 
ENDBRANCH 1 2
BRANCH 1 5
ATOM      5  C   VAL B   5      17.834 -22.191   4.487  1.00 21.98 LIG 0.24  C 
ATOM      6 O    VAL B   5      17.538 -21.124   5.017  1.00 26.26 LIG-0.27  OA
ATOM      7  N   SER B   6      16.914 -23.037   4.020  1.00 19.41 LIG-0.34  N 
ATOM      8 H    SER B   6      17.109 -23.813   3.706  1.00 19.41 LIG 0.16  HD
BRANCH 7 9
ATOM      9  CA  SER B   6      15.498 -22.743   3.993  1.00 20.84 LIG 0.20  C 
BRANCH 9 10
ATOM     10  C   SER B   6      14.666 -23.937   3.577  1.00 18.76 LIG 0.24  C 
ATOM     11 O    SER B   6      14.898 -24.562   2.559  1.00 19.89 LIG-0.27  OA
ATOM     12  N   ALA B   7      13.626 -24.177   4.340  1.00 19.53 LIG-0.35  N 
ATOM     13 H    ALA B   7      13.454 -23.712   5.043  1.00 19.53 LIG 0.16  HD
BRANCH 12 14
ATOM     14  CA  ALA B   7      12.652 -25.235   4.103  1.00 19.70 LIG 0.17  C 
ATOM     15  CB  ALA B   7      13.163 -26.548   4.722  1.00 20.39 LIG 0.04  C 
BRANCH 14 16
ATOM     16  C   ALA B   7      11.305 -24.925   4.731  1.00 16.34 LIG 0.24  C 
ATOM     17  N   VAL B   8      11.245 -23.947   5.615  1.00 16.85 LIG-0.34  N 
ATOM     18 H    VAL B   8      11.930 -23.525   5.917  1.00 16.85 LIG 0.16  HD
ATOM     19 O    ALA B   7      10.319 -25.533   4.368  1.00 20.16 LIG-0.27  OA
BRANCH 17 20
ATOM     20  CA  VAL B   8       9.958 -23.496   6.163  1.00 17.28 LIG 0.19  C 
BRANCH 20 21
ATOM     21  C   VAL B   8       9.547 -24.442   7.285  1.00 17.19 LIG 0.20  C 
ATOM     22 O    VAL B   8       9.156 -25.599   7.009  1.00 24.30 LIG-0.65  OA
ATOM     23 OXT  VAL B   8       9.550 -24.072   8.481  1.00 16.53 LIG-0.65  OA
ENDBRANCH 20 21
BRANCH 20 24
ATOM     24  CB  VAL B   8       8.845 -23.398   5.072  1.00 17.38 LIG 0.01  C 
ATOM     25  CG2 VAL B   8       9.201 -22.294   4.082  1.00 18.61 LIG 0.01  C 
ATOM     26  CG1 VAL B   8       7.493 -23.206   5.705  1.00 19.61 LIG 0.01  C 
ENDBRANCH 20 24
ENDBRANCH 17 20
ENDBRANCH 14 16
ENDBRANCH 12 14
ENDBRANCH 9 10
BRANCH 9 27
ATOM     27  CB  SER B   6      15.204 -21.603   3.027  1.00 25.59 LIG 0.20  C 
BRANCH 27 28
ATOM     28 OG   SER B   6      16.120 -21.617   1.954  1.00 27.26 LIG-0.40  OA
ATOM     29 HG   SER B   6      16.345 -22.409   1.788  1.00 27.26 LIG 0.21  HD
ENDBRANCH 27 28
ENDBRANCH 9 27
ENDBRANCH 7 9
ENDBRANCH 1 5
BRANCH 1 30
ATOM     30  N   VAL B   5      19.608 -22.800   3.007  1.00 22.92 LIG-0.35  N 
ATOM     31 H    VAL B   5      20.020 -23.538   2.845  1.00 22.92 LIG 0.16  HD
ATOM     32  C   GLN B   4      19.294 -21.927   2.063  1.00 24.29 LIG 0.24  C 
ATOM     33 O    GLN B   4      18.677 -20.897   2.250  1.00 26.90 LIG-0.27  OA
BRANCH 32 34
ATOM     34  CA  GLN B   4      19.758 -22.304   0.654  1.00 30.52 LIG 0.18  C 
BRANCH 34 35
ATOM     35  CB  GLN B   4      20.498 -23.638   0.733  1.00 36.61 LIG 0.04  C 
BRANCH 35 36
ATOM     36  CG  GLN B   4      19.690 -24.810   0.203  1.00 50.94 LIG 0.10  C 
BRANCH 36 37
ATOM     37  CD  GLN B   4      18.205 -24.636   0.509  1.00 60.90 LIG 0.21  C 
ATOM     38  NE2 GLN B   4      17.809 -24.896   1.754  1.00 82.36 LIG-0.37  N 
ATOM     39 21HE GLN B   4      18.380 -25.157   2.341  1.00 82.36 LIG 0.16  HD
ATOM     40 22HE GLN B   4      16.982 -24.804   1.970  1.00 82.36 LIG 0.16  HD
ATOM     41 OE1  GLN B   4      17.431 -24.261  -0.368  1.00 55.22 LIG-0.27  OA
ENDBRANCH 36 37
ENDBRANCH 35 36
ENDBRANCH 34 35
BRANCH 34 42
ATOM     42  N   GLN B   4      20.621 -21.276   0.108  1.00 37.98 LIG-0.35  N 
ATOM     43  C   GLU B   3      21.879 -21.122   0.509  1.00 56.89 LIG 0.26  C 
ATOM     44 O    GLU B   3      22.374 -21.787   1.408  1.00 56.58 LIG-0.27  OA
ATOM     45 H    GLN B   4      20.247 -20.783  -0.489  1.00 37.98 LIG 0.16  HD
BRANCH 43 46
ATOM     46  CA  GLU B   3      22.693 -20.047  -0.210  1.00 80.09 LIG 0.40  C 
ATOM     47  N   GLU B   3      22.717 -20.294  -1.645  1.00 75.44 LIG 0.61  N 
BRANCH 46 48
ATOM     48  CB  GLU B   3      22.104 -18.669   0.071  1.00107.85 LIG 0.06  C 
BRANCH 48 49
ATOM     49  CG  GLU B   3      22.683 -17.998   1.293  1.00114.95 LIG 0.12  C 
BRANCH 49 50
ATOM     50  CD  GLU B   3      24.182 -18.201   1.404  1.00 96.82 LIG 0.17  C 
ATOM     51 OE1  GLU B   3      24.944 -17.299   0.983  1.00 91.15 LIG-0.65  OA
ATOM     52 OE2  GLU B   3      24.601 -19.261   1.927  1.00 91.13 LIG-0.65  OA
ENDBRANCH 49 50
ENDBRANCH 48 49
ENDBRANCH 46 48
ENDBRANCH 43 46
ENDBRANCH 34 42
ENDBRANCH 32 34
ENDBRANCH 1 30
TORSDOF 21
ENDMDL
MODEL 11
USER: ADFR SOLUTION from run 141
USER: SCORE 14.639799 LL:  -3.307 LR: -14.170 RR:   0.000 FEB:  -7.906
USER: RMSD 12.000015
USER: SEED 140
USER: STATUS no improvement in best in 12 clusters for 5 generations
USER: GENES 23
USER: genes 0 Translation |==|  0.71489 0.51277 0.52781
USER: genes 1 Rotation |==|  0.62814 0.17072 0.85331 0.51819
USER: genes 2 Torsion [C]-CA--CB-[CG2] |==|  0.93281
USER: genes 3 Torsion [N]-CA--C-[N] |==|  0.35059
USER: genes 4 Torsion [C]-N--CA-[CB] |==|  0.08889
USER: genes 5 Torsion [N]-CA--C-[N] |==|  0.15383
USER: genes 6 Torsion [C]-N--CA-[CB] |==|  0.44034
USER: genes 7 Torsion [N]-CA--C-[N] |==|  0.88275
USER: genes 8 Torsion [C]-N--CA-[CB] |==|  0.43811
USER: genes 9 Torsion [N]-CA--C-[O] |==|  0.42286
USER: genes 10 Torsion [N]-CA--CB-[CG2] |==|  0.72873
USER: genes 11 Torsion [N]-CA--CB-[OG] |==|  0.62007
USER: genes 12 Torsion [CA]-CB--OG-[HG] |==|  0.93982
USER: genes 13 Torsion [CB]-CA--N-[C] |==|  0.84738
USER: genes 14 Torsion [N]-C--CA-[N] |==|  0.11717
USER: genes 15 Torsion [C]-CA--CB-[CG] |==|  0.35554
USER: genes 16 Torsion [CA]-CB--CG-[CD] |==|  0.88309
USER: genes 17 Torsion [CB]-CG--CD-[OE1] |==|  0.17891
USER: genes 18 Torsion [C]-CA--N-[C] |==|  0.74599
USER: genes 19 Torsion [N]-C--CA-[N] |==|  0.47904
USER: genes 20 Torsion [C]-CA--CB-[CG] |==|  0.20989
USER: genes 21 Torsion [CA]-CB--CG-[CD] |==|  0.67035
USER: genes 22 Torsion [CB]-CG--CD-[OE1] |==|  0.89923
ROOT
ATOM      1  CA  VAL B   5      18.640 -22.727   4.836  1.00 23.44 LIG 0.18  C 
ENDROOT
BRANCH 1 2
ATOM      2  CB  VAL B   5      19.103 -22.024   6.112  1.00 27.20 LIG 0.01  C 
ATOM      3  CG2 VAL B   5      18.558 -20.630   6.199  1.00 32.91 LIG 0.01  C 
ATOM      4  CG1 VAL B   5      20.612 -22.027   6.232  1.00 27.01 LIG 0.01  C 
ENDBRANCH 1 2
BRANCH 1 5
ATOM      5  C   VAL B   5      17.343 -22.097   4.339  1.00 21.98 LIG 0.24  C 
ATOM      6 O    VAL B   5      17.337 -20.923   3.979  1.00 26.26 LIG-0.27  OA
ATOM      7  N   SER B   6      16.236 -22.842   4.369  1.00 19.41 LIG-0.34  N 
ATOM      8 H    SER B   6      16.220 -23.643   4.680  1.00 19.41 LIG 0.16  HD
BRANCH 7 9
ATOM      9  CA  SER B   6      14.952 -22.385   3.886  1.00 20.84 LIG 0.20  C 
BRANCH 9 10
ATOM     10  C   SER B   6      14.068 -23.523   3.424  1.00 18.76 LIG 0.24  C 
ATOM     11 O    SER B   6      13.519 -23.515   2.337  1.00 19.89 LIG-0.27  OA
ATOM     12  N   ALA B   7      13.863 -24.460   4.319  1.00 19.53 LIG-0.35  N 
ATOM     13 H    ALA B   7      14.234 -24.445   5.095  1.00 19.53 LIG 0.16  HD
BRANCH 12 14
ATOM     14  CA  ALA B   7      13.004 -25.620   4.121  1.00 19.70 LIG 0.17  C 
ATOM     15  CB  ALA B   7      13.410 -26.731   5.106  1.00 20.39 LIG 0.04  C 
BRANCH 14 16
ATOM     16  C   ALA B   7      11.541 -25.299   4.369  1.00 16.34 LIG 0.24  C 
ATOM     17  N   VAL B   8      11.241 -24.543   5.408  1.00 16.85 LIG-0.34  N 
ATOM     18 H    VAL B   8      11.810 -24.285   5.998  1.00 16.85 LIG 0.16  HD
ATOM     19 O    ALA B   7      10.699 -25.689   3.585  1.00 20.16 LIG-0.27  OA
BRANCH 17 20
ATOM     20  CA  VAL B   8       9.867 -24.076   5.636  1.00 17.28 LIG 0.19  C 
BRANCH 20 21
ATOM     21  C   VAL B   8       9.594 -22.894   4.712  1.00 17.19 LIG 0.20  C 
ATOM     22 O    VAL B   8       8.423 -22.660   4.334  1.00 24.30 LIG-0.65  OA
ATOM     23 OXT  VAL B   8      10.525 -22.173   4.286  1.00 16.53 LIG-0.65  OA
ENDBRANCH 20 21
BRANCH 20 24
ATOM     24  CB  VAL B   8       9.604 -23.697   7.127  1.00 17.38 LIG 0.01  C 
ATOM     25  CG2 VAL B   8       8.926 -24.865   7.835  1.00 18.61 LIG 0.01  C 
ATOM     26  CG1 VAL B   8       8.818 -22.416   7.223  1.00 19.61 LIG 0.01  C 
ENDBRANCH 20 24
ENDBRANCH 17 20
ENDBRANCH 14 16
ENDBRANCH 12 14
ENDBRANCH 9 10
BRANCH 9 27
ATOM     27  CB  SER B   6      15.129 -21.422   2.719  1.00 25.59 LIG 0.20  C 
BRANCH 27 28
ATOM     28 OG   SER B   6      14.259 -20.319   2.854  1.00 27.26 LIG-0.40  OA
ATOM     29 HG   SER B   6      13.620 -20.525   3.359  1.00 27.26 LIG 0.21  HD
ENDBRANCH 27 28
ENDBRANCH 9 27
ENDBRANCH 7 9
ENDBRANCH 1 5
BRANCH 1 30
ATOM     30  N   VAL B   5      19.617 -22.573   3.783  1.00 22.92 LIG-0.35  N 
ATOM     31 H    VAL B   5      19.878 -23.321   3.447  1.00 22.92 LIG 0.16  HD
ATOM     32  C   GLN B   4      20.072 -21.400   3.370  1.00 24.29 LIG 0.24  C 
ATOM     33 O    GLN B   4      19.695 -20.325   3.792  1.00 26.90 LIG-0.27  OA
BRANCH 32 34
ATOM     34  CA  GLN B   4      21.136 -21.469   2.273  1.00 30.52 LIG 0.18  C 
BRANCH 34 35
ATOM     35  CB  GLN B   4      21.249 -20.089   1.627  1.00 36.61 LIG 0.04  C 
BRANCH 35 36
ATOM     36  CG  GLN B   4      22.672 -19.561   1.575  1.00 50.94 LIG 0.10  C 
BRANCH 36 37
ATOM     37  CD  GLN B   4      23.410 -19.842   2.881  1.00 60.90 LIG 0.21  C 
ATOM     38  NE2 GLN B   4      23.779 -18.788   3.606  1.00 82.36 LIG-0.37  N 
ATOM     39 21HE GLN B   4      23.605 -17.993   3.329  1.00 82.36 LIG 0.16  HD
ATOM     40 22HE GLN B   4      24.191 -18.902   4.353  1.00 82.36 LIG 0.16  HD
ATOM     41 OE1  GLN B   4      23.634 -20.998   3.231  1.00 55.22 LIG-0.27  OA
ENDBRANCH 36 37
ENDBRANCH 35 36
ENDBRANCH 34 35
BRANCH 34 42
ATOM     42  N   GLN B   4      20.783 -22.466   1.282  1.00 37.98 LIG-0.35  N 
ATOM     43  C   GLU B   3      21.190 -23.728   1.372  1.00 56.89 LIG 0.26  C 
ATOM     44 O    GLU B   3      21.943 -24.120   2.253  1.00 56.58 LIG-0.27  OA
ATOM     45 H    GLN B   4      20.294 -22.167   0.642  1.00 37.98 LIG 0.16  HD
BRANCH 43 46
ATOM     46  CA  GLU B   3      20.676 -24.685   0.298  1.00 80.09 LIG 0.40  C 
ATOM     47  N   GLU B   3      21.331 -25.980   0.406  1.00 75.44 LIG 0.61  N 
BRANCH 46 48
ATOM     48  CB  GLU B   3      19.166 -24.854   0.426  1.00107.85 LIG 0.06  C 
BRANCH 48 49
ATOM     49  CG  GLU B   3      18.376 -23.672  -0.084  1.00114.95 LIG 0.12  C 
BRANCH 49 50
ATOM     50  CD  GLU B   3      17.541 -23.026   1.004  1.00 96.82 LIG 0.17  C 
ATOM     51 OE1  GLU B   3      17.014 -23.761   1.873  1.00 91.15 LIG-0.65  OA
ATOM     52 OE2  GLU B   3      17.420 -21.779   0.999  1.00 91.13 LIG-0.65  OA
ENDBRANCH 49 50
ENDBRANCH 48 49
ENDBRANCH 46 48
ENDBRANCH 43 46
ENDBRANCH 34 42
ENDBRANCH 32 34
ENDBRANCH 1 30
TORSDOF 21
ENDMDL
MODEL 12
USER: ADFR SOLUTION from run 79
USER: SCORE 16.278835 LL:  -3.667 LR: -14.110 RR:   0.000 FEB:  -7.846
USER: RMSD 12.590570
USER: SEED 78
USER: STATUS searching
USER: GENES 23
USER: genes 0 Translation |==|  0.70047 0.53202 0.47369
USER: genes 1 Rotation |==|  0.72540 0.37927 0.92699 0.54798
USER: genes 2 Torsion [C]-CA--CB-[CG2] |==|  0.53005
USER: genes 3 Torsion [N]-CA--C-[N] |==|  0.91579
USER: genes 4 Torsion [C]-N--CA-[CB] |==|  0.86057
USER: genes 5 Torsion [N]-CA--C-[N] |==|  0.38819
USER: genes 6 Torsion [C]-N--CA-[CB] |==|  0.83796
USER: genes 7 Torsion [N]-CA--C-[N] |==|  0.45752
USER: genes 8 Torsion [C]-N--CA-[CB] |==|  0.85412
USER: genes 9 Torsion [N]-CA--C-[O] |==|  0.98121
USER: genes 10 Torsion [N]-CA--CB-[CG2] |==|  0.84737
USER: genes 11 Torsion [N]-CA--CB-[OG] |==|  0.28094
USER: genes 12 Torsion [CA]-CB--OG-[HG] |==|  0.76413
USER: genes 13 Torsion [CB]-CA--N-[C] |==|  0.86667
USER: genes 14 Torsion [N]-C--CA-[N] |==|  0.65855
USER: genes 15 Torsion [C]-CA--CB-[CG] |==|  0.32132
USER: genes 16 Torsion [CA]-CB--CG-[CD] |==|  0.84558
USER: genes 17 Torsion [CB]-CG--CD-[OE1] |==|  0.90729
USER: genes 18 Torsion [C]-CA--N-[C] |==|  0.21486
USER: genes 19 Torsion [N]-C--CA-[N] |==|  0.93559
USER: genes 20 Torsion [C]-CA--CB-[CG] |==|  0.14288
USER: genes 21 Torsion [CA]-CB--CG-[CD] |==|  0.20637
USER: genes 22 Torsion [CB]-CG--CD-[OE1] |==|  0.22783
ROOT
ATOM      1  CA  VAL B   5      18.207 -22.395   3.902  1.00 23.44 LIG 0.18  C 
ENDROOT
BRANCH 1 2
ATOM      2  CB  VAL B   5      18.424 -20.889   4.058  1.00 27.20 LIG 0.01  C 
ATOM      3  CG2 VAL B   5      19.877 -20.532   3.958  1.00 32.91 LIG 0.01  C 
ATOM      4  CG1 VAL B   5      17.824 -20.371   5.346  1.00 27.01 LIG 0.01  C 
ENDBRANCH 1 2
BRANCH 1 5
ATOM      5  C   VAL B   5      16.720 -22.689   3.740  1.00 21.98 LIG 0.24  C 
ATOM      6 O    VAL B   5      16.041 -22.952   4.729  1.00 26.26 LIG-0.27  OA
ATOM      7  N   SER B   6      16.218 -22.705   2.504  1.00 19.41 LIG-0.34  N 
ATOM      8 H    SER B   6      16.700 -22.586   1.802  1.00 19.41 LIG 0.16  HD
BRANCH 7 9
ATOM      9  CA  SER B   6      14.818 -22.925   2.212  1.00 20.84 LIG 0.20  C 
BRANCH 9 10
ATOM     10  C   SER B   6      13.951 -21.753   2.617  1.00 18.76 LIG 0.24  C 
ATOM     11 O    SER B   6      14.079 -21.195   3.691  1.00 19.89 LIG-0.27  OA
ATOM     12  N   ALA B   7      12.996 -21.455   1.768  1.00 19.53 LIG-0.35  N 
ATOM     13 H    ALA B   7      12.895 -21.873   1.023  1.00 19.53 LIG 0.16  HD
BRANCH 12 14
ATOM     14  CA  ALA B   7      12.005 -20.406   1.972  1.00 19.70 LIG 0.17  C 
ATOM     15  CB  ALA B   7      11.228 -20.682   3.271  1.00 20.39 LIG 0.04  C 
BRANCH 14 16
ATOM     16  C   ALA B   7      12.641 -19.034   2.100  1.00 16.34 LIG 0.24  C 
ATOM     17  N   VAL B   8      11.861 -17.976   1.979  1.00 16.85 LIG-0.34  N 
ATOM     18 H    VAL B   8      11.032 -18.011   1.755  1.00 16.85 LIG 0.16  HD
ATOM     19 O    ALA B   7      13.823 -18.941   2.365  1.00 20.16 LIG-0.27  OA
BRANCH 17 20
ATOM     20  CA  VAL B   8      12.374 -16.622   2.226  1.00 17.28 LIG 0.19  C 
BRANCH 20 21
ATOM     21  C   VAL B   8      13.317 -16.242   1.090  1.00 17.19 LIG 0.20  C 
ATOM     22 O    VAL B   8      13.628 -17.097   0.230  1.00 24.30 LIG-0.65  OA
ATOM     23 OXT  VAL B   8      13.825 -15.099   1.022  1.00 16.53 LIG-0.65  OA
ENDBRANCH 20 21
BRANCH 20 24
ATOM     24  CB  VAL B   8      13.080 -16.493   3.612  1.00 17.38 LIG 0.01  C 
ATOM     25  CG2 VAL B   8      12.127 -16.950   4.711  1.00 18.61 LIG 0.01  C 
ATOM     26  CG1 VAL B   8      13.592 -15.093   3.823  1.00 19.61 LIG 0.01  C 
ENDBRANCH 20 24
ENDBRANCH 17 20
ENDBRANCH 14 16
ENDBRANCH 12 14
ENDBRANCH 9 10
BRANCH 9 27
ATOM     27  CB  SER B   6      14.306 -24.163   2.936  1.00 25.59 LIG 0.20  C 
BRANCH 27 28
ATOM     28 OG   SER B   6      13.582 -23.796   4.089  1.00 27.26 LIG-0.40  OA
ATOM     29 HG   SER B   6      14.113 -23.681   4.730  1.00 27.26 LIG 0.21  HD
ENDBRANCH 27 28
ENDBRANCH 9 27
ENDBRANCH 7 9
ENDBRANCH 1 5
BRANCH 1 30
ATOM     30  N   VAL B   5      18.869 -22.888   2.717  1.00 22.92 LIG-0.35  N 
ATOM     31 H    VAL B   5      19.339 -23.594   2.857  1.00 22.92 LIG 0.16  HD
ATOM     32  C   GLN B   4      18.768 -22.314   1.528  1.00 24.29 LIG 0.24  C 
ATOM     33 O    GLN B   4      18.081 -21.341   1.286  1.00 26.90 LIG-0.27  OA
BRANCH 32 34
ATOM     34  CA  GLN B   4      19.588 -22.976   0.418  1.00 30.52 LIG 0.18  C 
BRANCH 34 35
ATOM     35  CB  GLN B   4      20.363 -24.144   1.026  1.00 36.61 LIG 0.04  C 
BRANCH 35 36
ATOM     36  CG  GLN B   4      19.947 -25.496   0.474  1.00 50.94 LIG 0.10  C 
BRANCH 36 37
ATOM     37  CD  GLN B   4      18.447 -25.721   0.645  1.00 60.90 LIG 0.21  C 
ATOM     38  NE2 GLN B   4      17.832 -26.437  -0.295  1.00 82.36 LIG-0.37  N 
ATOM     39 21HE GLN B   4      18.278 -26.743  -0.963  1.00 82.36 LIG 0.16  HD
ATOM     40 22HE GLN B   4      16.988 -26.593  -0.233  1.00 82.36 LIG 0.16  HD
ATOM     41 OE1  GLN B   4      17.858 -25.260   1.619  1.00 55.22 LIG-0.27  OA
ENDBRANCH 36 37
ENDBRANCH 35 36
ENDBRANCH 34 35
BRANCH 34 42
ATOM     42  N   GLN B   4      20.498 -22.020  -0.182  1.00 37.98 LIG-0.35  N 
ATOM     43  C   GLU B   3      21.630 -21.652   0.409  1.00 56.89 LIG 0.26  C 
ATOM     44 O    GLU B   3      21.949 -22.037   1.525  1.00 56.58 LIG-0.27  OA
ATOM     45 H    GLN B   4      20.239 -21.719  -0.945  1.00 37.98 LIG 0.16  HD
BRANCH 43 46
ATOM     46  CA  GLU B   3      22.527 -20.698  -0.377  1.00 80.09 LIG 0.40  C 
ATOM     47  N   GLU B   3      22.255 -20.794  -1.804  1.00 75.44 LIG 0.61  N 
BRANCH 46 48
ATOM     48  CB  GLU B   3      22.310 -19.264   0.098  1.00107.85 LIG 0.06  C 
BRANCH 48 49
ATOM     49  CG  GLU B   3      22.420 -19.097   1.594  1.00114.95 LIG 0.12  C 
BRANCH 49 50
ATOM     50  CD  GLU B   3      23.857 -19.163   2.075  1.00 96.82 LIG 0.17  C 
ATOM     51 OE1  GLU B   3      24.567 -18.132   1.995  1.00 91.15 LIG-0.65  OA
ATOM     52 OE2  GLU B   3      24.276 -20.245   2.549  1.00 91.13 LIG-0.65  OA
ENDBRANCH 49 50
ENDBRANCH 48 49
ENDBRANCH 46 48
ENDBRANCH 43 46
ENDBRANCH 34 42
ENDBRANCH 32 34
ENDBRANCH 1 30
TORSDOF 21
ENDMDL
MODEL 13
USER: ADFR SOLUTION from run 184
USER: SCORE 17.168492 LL:  -5.126 LR: -14.046 RR:   0.000 FEB:  -7.782
USER: RMSD 12.442601
USER: SEED 183
USER: STATUS no improvement in best in 7 clusters for 5 generations
USER: GENES 23
USER: genes 0 Translation |==|  0.73708 0.51208 0.52243
USER: genes 1 Rotation |==|  0.32890 0.78888 0.13526 0.56510
USER: genes 2 Torsion [C]-CA--CB-[CG2] |==|  0.80097
USER: genes 3 Torsion [N]-CA--C-[N] |==|  0.18672
USER: genes 4 Torsion [C]-N--CA-[CB] |==|  0.54444
USER: genes 5 Torsion [N]-CA--C-[N] |==|  0.32904
USER: genes 6 Torsion [C]-N--CA-[CB] |==|  0.51467
USER: genes 7 Torsion [N]-CA--C-[N] |==|  0.32748
USER: genes 8 Torsion [C]-N--CA-[CB] |==|  0.28851
USER: genes 9 Torsion [N]-CA--C-[O] |==|  0.33451
USER: genes 10 Torsion [N]-CA--CB-[CG2] |==|  0.96121
USER: genes 11 Torsion [N]-CA--CB-[OG] |==|  0.95716
USER: genes 12 Torsion [CA]-CB--OG-[HG] |==|  0.42546
USER: genes 13 Torsion [CB]-CA--N-[C] |==|  0.20863
USER: genes 14 Torsion [N]-C--CA-[N] |==|  0.90283
USER: genes 15 Torsion [C]-CA--CB-[CG] |==|  0.52606
USER: genes 16 Torsion [CA]-CB--CG-[CD] |==|  0.56198
USER: genes 17 Torsion [CB]-CG--CD-[OE1] |==|  0.51710
USER: genes 18 Torsion [C]-CA--N-[C] |==|  0.85252
USER: genes 19 Torsion [N]-C--CA-[N] |==|  0.68108
USER: genes 20 Torsion [C]-CA--CB-[CG] |==|  0.71580
USER: genes 21 Torsion [CA]-CB--CG-[CD] |==|  0.16269
USER: genes 22 Torsion [CB]-CG--CD-[OE1] |==|  0.17852
ROOT
ATOM      1  CA  VAL B   5      19.305 -22.739   4.743  1.00 23.44 LIG 0.18  C 
ENDROOT
BRANCH 1 2
ATOM      2  CB  VAL B   5      19.320 -21.872   6.003  1.00 27.20 LIG 0.01  C 
ATOM      3  CG2 VAL B   5      19.299 -20.411   5.663  1.00 32.91 LIG 0.01  C 
ATOM      4  CG1 VAL B   5      20.497 -22.206   6.894  1.00 27.01 LIG 0.01  C 
ENDBRANCH 1 2
BRANCH 1 5
ATOM      5  C   VAL B   5      17.931 -22.674   4.086  1.00 21.98 LIG 0.24  C 
ATOM      6 O    VAL B   5      17.075 -21.922   4.542  1.00 26.26 LIG-0.27  OA
ATOM      7  N   SER B   6      17.691 -23.493   3.060  1.00 19.41 LIG-0.34  N 
ATOM      8 H    SER B   6      18.264 -24.067   2.776  1.00 19.41 LIG 0.16  HD
BRANCH 7 9
ATOM      9  CA  SER B   6      16.449 -23.502   2.318  1.00 20.84 LIG 0.20  C 
BRANCH 9 10
ATOM     10  C   SER B   6      15.236 -23.408   3.218  1.00 18.76 LIG 0.24  C 
ATOM     11 O    SER B   6      14.936 -24.297   3.993  1.00 19.89 LIG-0.27  OA
ATOM     12  N   ALA B   7      14.487 -22.348   3.024  1.00 19.53 LIG-0.35  N 
ATOM     13 H    ALA B   7      14.692 -21.737   2.454  1.00 19.53 LIG 0.16  HD
BRANCH 12 14
ATOM     14  CA  ALA B   7      13.242 -22.074   3.730  1.00 19.70 LIG 0.17  C 
ATOM     15  CB  ALA B   7      12.587 -20.812   3.141  1.00 20.39 LIG 0.04  C 
BRANCH 14 16
ATOM     16  C   ALA B   7      12.246 -23.212   3.599  1.00 16.34 LIG 0.24  C 
ATOM     17  N   VAL B   8      11.869 -23.834   4.701  1.00 16.85 LIG-0.34  N 
ATOM     18 H    VAL B   8      12.209 -23.690   5.477  1.00 16.85 LIG 0.16  HD
ATOM     19 O    ALA B   7      11.781 -23.482   2.511  1.00 20.16 LIG-0.27  OA
BRANCH 17 20
ATOM     20  CA  VAL B   8      10.809 -24.851   4.674  1.00 17.28 LIG 0.19  C 
BRANCH 20 21
ATOM     21  C   VAL B   8       9.829 -24.564   5.806  1.00 17.19 LIG 0.20  C 
ATOM     22 O    VAL B   8       8.625 -24.343   5.543  1.00 24.30 LIG-0.65  OA
ATOM     23 OXT  VAL B   8      10.211 -24.502   6.997  1.00 16.53 LIG-0.65  OA
ENDBRANCH 20 21
BRANCH 20 24
ATOM     24  CB  VAL B   8      11.371 -26.304   4.771  1.00 17.38 LIG 0.01  C 
ATOM     25  CG2 VAL B   8      12.875 -26.284   4.519  1.00 18.61 LIG 0.01  C 
ATOM     26  CG1 VAL B   8      10.632 -27.226   3.838  1.00 19.61 LIG 0.01  C 
ENDBRANCH 20 24
ENDBRANCH 17 20
ENDBRANCH 14 16
ENDBRANCH 12 14
ENDBRANCH 9 10
BRANCH 9 27
ATOM     27  CB  SER B   6      16.327 -24.775   1.492  1.00 25.59 LIG 0.20  C 
BRANCH 27 28
ATOM     28 OG   SER B   6      17.577 -25.421   1.392  1.00 27.26 LIG-0.40  OA
ATOM     29 HG   SER B   6      17.458 -26.245   1.279  1.00 27.26 LIG 0.21  HD
ENDBRANCH 27 28
ENDBRANCH 9 27
ENDBRANCH 7 9
ENDBRANCH 1 5
BRANCH 1 30
ATOM     30  N   VAL B   5      20.262 -22.253   3.776  1.00 22.92 LIG-0.35  N 
ATOM     31 H    VAL B   5      19.899 -21.836   3.116  1.00 22.92 LIG 0.16  HD
ATOM     32  C   GLN B   4      21.570 -22.427   3.886  1.00 24.29 LIG 0.24  C 
ATOM     33 O    GLN B   4      22.118 -22.972   4.824  1.00 26.90 LIG-0.27  OA
BRANCH 32 34
ATOM     34  CA  GLN B   4      22.397 -21.869   2.726  1.00 30.52 LIG 0.18  C 
BRANCH 34 35
ATOM     35  CB  GLN B   4      22.687 -20.396   3.009  1.00 36.61 LIG 0.04  C 
BRANCH 35 36
ATOM     36  CG  GLN B   4      23.308 -19.666   1.831  1.00 50.94 LIG 0.10  C 
BRANCH 36 37
ATOM     37  CD  GLN B   4      24.065 -18.423   2.292  1.00 60.90 LIG 0.21  C 
ATOM     38  NE2 GLN B   4      24.189 -18.244   3.606  1.00 82.36 LIG-0.37  N 
ATOM     39 21HE GLN B   4      23.844 -18.812   4.152  1.00 82.36 LIG 0.16  HD
ATOM     40 22HE GLN B   4      24.614 -17.560   3.909  1.00 82.36 LIG 0.16  HD
ATOM     41 OE1  GLN B   4      24.538 -17.643   1.469  1.00 55.22 LIG-0.27  OA
ENDBRANCH 36 37
ENDBRANCH 35 36
ENDBRANCH 34 35
BRANCH 34 42
ATOM     42  N   GLN B   4      21.682 -22.014   1.474  1.00 37.98 LIG-0.35  N 
ATOM     43  C   GLU B   3      21.192 -23.182   1.069  1.00 56.89 LIG 0.26  C 
ATOM     44 O    GLU B   3      21.369 -24.223   1.686  1.00 56.58 LIG-0.27  OA
ATOM     45 H    GLN B   4      21.606 -21.284   1.026  1.00 37.98 LIG 0.16  HD
BRANCH 43 46
ATOM     46  CA  GLU B   3      20.394 -23.169  -0.233  1.00 80.09 LIG 0.40  C 
ATOM     47  N   GLU B   3      19.001 -23.514   0.014  1.00 75.44 LIG 0.61  N 
BRANCH 46 48
ATOM     48  CB  GLU B   3      20.480 -21.793  -0.886  1.00107.85 LIG 0.06  C 
BRANCH 48 49
ATOM     49  CG  GLU B   3      19.244 -20.948  -0.689  1.00114.95 LIG 0.12  C 
BRANCH 49 50
ATOM     50  CD  GLU B   3      18.933 -20.719   0.778  1.00 96.82 LIG 0.17  C 
ATOM     51 OE1  GLU B   3      19.751 -20.068   1.471  1.00 91.15 LIG-0.65  OA
ATOM     52 OE2  GLU B   3      17.862 -21.179   1.237  1.00 91.13 LIG-0.65  OA
ENDBRANCH 49 50
ENDBRANCH 48 49
ENDBRANCH 46 48
ENDBRANCH 43 46
ENDBRANCH 34 42
ENDBRANCH 32 34
ENDBRANCH 1 30
TORSDOF 21
ENDMDL
MODEL 14
USER: ADFR SOLUTION from run 136
USER: SCORE 15.148639 LL:  -4.715 LR: -13.997 RR:   0.000 FEB:  -7.732
USER: RMSD 12.558978
USER: SEED 135
USER: STATUS no improvement in best in 13 clusters for 5 generations
USER: GENES 23
USER: genes 0 Translation |==|  0.73658 0.51271 0.50803
USER: genes 1 Rotation |==|  0.33428 0.79653 0.13854 0.56290
USER: genes 2 Torsion [C]-CA--CB-[CG2] |==|  0.80528
USER: genes 3 Torsion [N]-CA--C-[N] |==|  0.26771
USER: genes 4 Torsion [C]-N--CA-[CB] |==|  0.41380
USER: genes 5 Torsion [N]-CA--C-[N] |==|  0.61356
USER: genes 6 Torsion [C]-N--CA-[CB] |==|  0.81653
USER: genes 7 Torsion [N]-CA--C-[N] |==|  0.51664
USER: genes 8 Torsion [C]-N--CA-[CB] |==|  0.23929
USER: genes 9 Torsion [N]-CA--C-[O] |==|  0.37326
USER: genes 10 Torsion [N]-CA--CB-[CG2] |==|  0.77095
USER: genes 11 Torsion [N]-CA--CB-[OG] |==|  0.99773
USER: genes 12 Torsion [CA]-CB--OG-[HG] |==|  0.41452
USER: genes 13 Torsion [CB]-CA--N-[C] |==|  0.27091
USER: genes 14 Torsion [N]-C--CA-[N] |==|  0.87235
USER: genes 15 Torsion [C]-CA--CB-[CG] |==|  0.56502
USER: genes 16 Torsion [CA]-CB--CG-[CD] |==|  0.52408
USER: genes 17 Torsion [CB]-CG--CD-[OE1] |==|  0.47062
USER: genes 18 Torsion [C]-CA--N-[C] |==|  0.83234
USER: genes 19 Torsion [N]-C--CA-[N] |==|  0.34910
USER: genes 20 Torsion [C]-CA--CB-[CG] |==|  0.19995
USER: genes 21 Torsion [CA]-CB--CG-[CD] |==|  0.04564
USER: genes 22 Torsion [CB]-CG--CD-[OE1] |==|  0.66739
ROOT
ATOM      1  CA  VAL B   5      19.291 -22.728   4.495  1.00 23.44 LIG 0.18  C 
ENDROOT
BRANCH 1 2
ATOM      2  CB  VAL B   5      19.326 -21.899   5.780  1.00 27.20 LIG 0.01  C 
ATOM      3  CG2 VAL B   5      19.308 -20.429   5.484  1.00 32.91 LIG 0.01  C 
ATOM      4  CG1 VAL B   5      20.512 -22.266   6.645  1.00 27.01 LIG 0.01  C 
ENDBRANCH 1 2
BRANCH 1 5
ATOM      5  C   VAL B   5      17.920 -22.606   3.838  1.00 21.98 LIG 0.24  C 
ATOM      6 O    VAL B   5      17.299 -21.550   3.920  1.00 26.26 LIG-0.27  OA
ATOM      7  N   SER B   6      17.417 -23.687   3.238  1.00 19.41 LIG-0.34  N 
ATOM      8 H    SER B   6      17.818 -24.447   3.232  1.00 19.41 LIG 0.16  HD
BRANCH 7 9
ATOM      9  CA  SER B   6      16.152 -23.697   2.538  1.00 20.84 LIG 0.20  C 
BRANCH 9 10
ATOM     10  C   SER B   6      14.992 -24.055   3.441  1.00 18.76 LIG 0.24  C 
ATOM     11 O    SER B   6      14.944 -23.696   4.603  1.00 19.89 LIG-0.27  OA
ATOM     12  N   ALA B   7      14.103 -24.858   2.905  1.00 19.53 LIG-0.35  N 
ATOM     13 H    ALA B   7      14.159 -25.128   2.090  1.00 19.53 LIG 0.16  HD
BRANCH 12 14
ATOM     14  CA  ALA B   7      12.935 -25.382   3.600  1.00 19.70 LIG 0.17  C 
ATOM     15  CB  ALA B   7      13.392 -26.324   4.728  1.00 20.39 LIG 0.04  C 
BRANCH 14 16
ATOM     16  C   ALA B   7      12.101 -24.281   4.231  1.00 16.34 LIG 0.24  C 
ATOM     17  N   VAL B   8      11.082 -24.635   4.991  1.00 16.85 LIG-0.34  N 
ATOM     18 H    VAL B   8      10.812 -25.446   5.091  1.00 16.85 LIG 0.16  HD
ATOM     19 O    ALA B   7      12.419 -23.120   4.072  1.00 20.16 LIG-0.27  OA
BRANCH 17 20
ATOM     20  CA  VAL B   8      10.313 -23.636   5.745  1.00 17.28 LIG 0.19  C 
BRANCH 20 21
ATOM     21  C   VAL B   8       9.766 -24.292   7.008  1.00 17.19 LIG 0.20  C 
ATOM     22 O    VAL B   8       9.859 -23.697   8.106  1.00 24.30 LIG-0.65  OA
ATOM     23 OXT  VAL B   8       9.261 -25.437   6.979  1.00 16.53 LIG-0.65  OA
ENDBRANCH 20 21
BRANCH 20 24
ATOM     24  CB  VAL B   8       9.166 -23.000   4.898  1.00 17.38 LIG 0.01  C 
ATOM     25  CG2 VAL B   8       9.735 -21.881   4.033  1.00 18.61 LIG 0.01  C 
ATOM     26  CG1 VAL B   8       8.038 -22.543   5.784  1.00 19.61 LIG 0.01  C 
ENDBRANCH 20 24
ENDBRANCH 17 20
ENDBRANCH 14 16
ENDBRANCH 12 14
ENDBRANCH 9 10
BRANCH 9 27
ATOM     27  CB  SER B   6      16.181 -24.696   1.389  1.00 25.59 LIG 0.20  C 
BRANCH 27 28
ATOM     28 OG   SER B   6      17.443 -25.323   1.313  1.00 27.26 LIG-0.40  OA
ATOM     29 HG   SER B   6      17.350 -26.103   1.014  1.00 27.26 LIG 0.21  HD
ENDBRANCH 27 28
ENDBRANCH 9 27
ENDBRANCH 7 9
ENDBRANCH 1 5
BRANCH 1 30
ATOM     30  N   VAL B   5      20.263 -22.240   3.544  1.00 22.92 LIG-0.35  N 
ATOM     31 H    VAL B   5      19.986 -21.565   3.087  1.00 22.92 LIG 0.16  HD
ATOM     32  C   GLN B   4      21.464 -22.773   3.384  1.00 24.29 LIG 0.24  C 
ATOM     33 O    GLN B   4      21.903 -23.697   4.040  1.00 26.90 LIG-0.27  OA
BRANCH 32 34
ATOM     34  CA  GLN B   4      22.318 -22.128   2.291  1.00 30.52 LIG 0.18  C 
BRANCH 34 35
ATOM     35  CB  GLN B   4      22.837 -20.790   2.815  1.00 36.61 LIG 0.04  C 
BRANCH 35 36
ATOM     36  CG  GLN B   4      23.201 -19.810   1.712  1.00 50.94 LIG 0.10  C 
BRANCH 36 37
ATOM     37  CD  GLN B   4      23.907 -18.582   2.281  1.00 60.90 LIG 0.21  C 
ATOM     38  NE2 GLN B   4      23.912 -18.447   3.606  1.00 82.36 LIG-0.37  N 
ATOM     39 21HE GLN B   4      23.522 -19.033   4.099  1.00 82.36 LIG 0.16  HD
ATOM     40 22HE GLN B   4      24.305 -17.773   3.968  1.00 82.36 LIG 0.16  HD
ATOM     41 OE1  GLN B   4      24.448 -17.774   1.530  1.00 55.22 LIG-0.27  OA
ENDBRANCH 36 37
ENDBRANCH 35 36
ENDBRANCH 34 35
BRANCH 34 42
ATOM     42  N   GLN B   4      21.539 -21.933   1.084  1.00 37.98 LIG-0.35  N 
ATOM     43  C   GLU B   3      20.981 -22.947   0.430  1.00 56.89 LIG 0.26  C 
ATOM     44 O    GLU B   3      21.141 -24.115   0.758  1.00 56.58 LIG-0.27  OA
ATOM     45 H    GLN B   4      21.474 -21.113   0.836  1.00 37.98 LIG 0.16  HD
BRANCH 43 46
ATOM     46  CA  GLU B   3      20.124 -22.584  -0.781  1.00 80.09 LIG 0.40  C 
ATOM     47  N   GLU B   3      20.576 -23.302  -1.965  1.00 75.44 LIG 0.61  N 
BRANCH 46 48
ATOM     48  CB  GLU B   3      18.660 -22.910  -0.503  1.00107.85 LIG 0.06  C 
BRANCH 48 49
ATOM     49  CG  GLU B   3      18.006 -21.972   0.484  1.00114.95 LIG 0.12  C 
BRANCH 49 50
ATOM     50  CD  GLU B   3      18.804 -20.697   0.680  1.00 96.82 LIG 0.17  C 
ATOM     51 OE1  GLU B   3      19.232 -20.425   1.827  1.00 91.15 LIG-0.65  OA
ATOM     52 OE2  GLU B   3      19.015 -19.969  -0.318  1.00 91.13 LIG-0.65  OA
ENDBRANCH 49 50
ENDBRANCH 48 49
ENDBRANCH 46 48
ENDBRANCH 43 46
ENDBRANCH 34 42
ENDBRANCH 32 34
ENDBRANCH 1 30
TORSDOF 21
ENDMDL
MODEL 15
USER: ADFR SOLUTION from run 34
USER: SCORE 16.506184 LL:  -4.396 LR: -13.968 RR:   0.000 FEB:  -7.703
USER: RMSD 12.227077
USER: SEED 33
USER: STATUS searching
USER: GENES 23
USER: genes 0 Translation |==|  0.73478 0.51623 0.50711
USER: genes 1 Rotation |==|  0.33504 0.79036 0.13314 0.56241
USER: genes 2 Torsion [C]-CA--CB-[CG2] |==|  0.79617
USER: genes 3 Torsion [N]-CA--C-[N] |==|  0.26105
USER: genes 4 Torsion [C]-N--CA-[CB] |==|  0.84257
USER: genes 5 Torsion [N]-CA--C-[N] |==|  0.38039
USER: genes 6 Torsion [C]-N--CA-[CB] |==|  0.48555
USER: genes 7 Torsion [N]-CA--C-[N] |==|  0.46330
USER: genes 8 Torsion [C]-N--CA-[CB] |==|  0.85181
USER: genes 9 Torsion [N]-CA--C-[O] |==|  0.25121
USER: genes 10 Torsion [N]-CA--CB-[CG2] |==|  0.83939
USER: genes 11 Torsion [N]-CA--CB-[OG] |==|  0.95414
USER: genes 12 Torsion [CA]-CB--OG-[HG] |==|  0.62874
USER: genes 13 Torsion [CB]-CA--N-[C] |==|  0.25066
USER: genes 14 Torsion [N]-C--CA-[N] |==|  0.86717
USER: genes 15 Torsion [C]-CA--CB-[CG] |==|  0.49062
USER: genes 16 Torsion [CA]-CB--CG-[CD] |==|  0.53360
USER: genes 17 Torsion [CB]-CG--CD-[OE1] |==|  0.55906
USER: genes 18 Torsion [C]-CA--N-[C] |==|  0.85367
USER: genes 19 Torsion [N]-C--CA-[N] |==|  0.43679
USER: genes 20 Torsion [C]-CA--CB-[CG] |==|  0.26894
USER: genes 21 Torsion [CA]-CB--CG-[CD] |==|  0.79673
USER: genes 22 Torsion [CB]-CG--CD-[OE1] |==|  0.83791
ROOT
ATOM      1  CA  VAL B   5      19.237 -22.667   4.479  1.00 23.44 LIG 0.18  C 
ENDROOT
BRANCH 1 2
ATOM      2  CB  VAL B   5      19.256 -21.799   5.738  1.00 27.20 LIG 0.01  C 
ATOM      3  CG2 VAL B   5      19.318 -20.340   5.397  1.00 32.91 LIG 0.01  C 
ATOM      4  CG1 VAL B   5      20.386 -22.190   6.665  1.00 27.01 LIG 0.01  C 
ENDBRANCH 1 2
BRANCH 1 5
ATOM      5  C   VAL B   5      17.874 -22.569   3.803  1.00 21.98 LIG 0.24  C 
ATOM      6 O    VAL B   5      17.229 -21.526   3.883  1.00 26.26 LIG-0.27  OA
ATOM      7  N   SER B   6      17.401 -23.656   3.189  1.00 19.41 LIG-0.34  N 
ATOM      8 H    SER B   6      17.818 -24.408   3.184  1.00 19.41 LIG 0.16  HD
BRANCH 7 9
ATOM      9  CA  SER B   6      16.146 -23.687   2.471  1.00 20.84 LIG 0.20  C 
BRANCH 9 10
ATOM     10  C   SER B   6      16.148 -22.778   1.261  1.00 18.76 LIG 0.24  C 
ATOM     11 O    SER B   6      16.538 -21.626   1.319  1.00 19.89 LIG-0.27  OA
ATOM     12  N   ALA B   7      15.609 -23.295   0.182  1.00 19.53 LIG-0.35  N 
ATOM     13 H    ALA B   7      15.311 -24.101   0.158  1.00 19.53 LIG 0.16  HD
BRANCH 12 14
ATOM     14  CA  ALA B   7      15.448 -22.589  -1.082  1.00 19.70 LIG 0.17  C 
ATOM     15  CB  ALA B   7      14.898 -23.559  -2.143  1.00 20.39 LIG 0.04  C 
BRANCH 14 16
ATOM     16  C   ALA B   7      14.475 -21.429  -0.972  1.00 16.34 LIG 0.24  C 
ATOM     17  N   VAL B   8      14.440 -20.554  -1.959  1.00 16.85 LIG-0.34  N 
ATOM     18 H    VAL B   8      14.986 -20.553  -2.623  1.00 16.85 LIG 0.16  HD
ATOM     19 O    ALA B   7      13.720 -21.366  -0.022  1.00 20.16 LIG-0.27  OA
BRANCH 17 20
ATOM     20  CA  VAL B   8      13.433 -19.485  -1.992  1.00 17.28 LIG 0.19  C 
BRANCH 20 21
ATOM     21  C   VAL B   8      13.752 -18.480  -0.890  1.00 17.19 LIG 0.20  C 
ATOM     22 O    VAL B   8      14.495 -17.503  -1.138  1.00 24.30 LIG-0.65  OA
ATOM     23 OXT  VAL B   8      13.318 -18.633   0.274  1.00 16.53 LIG-0.65  OA
ENDBRANCH 20 21
BRANCH 20 24
ATOM     24  CB  VAL B   8      11.977 -20.030  -1.854  1.00 17.38 LIG 0.01  C 
ATOM     25  CG2 VAL B   8      11.701 -21.029  -2.972  1.00 18.61 LIG 0.01  C 
ATOM     26  CG1 VAL B   8      10.984 -18.899  -1.818  1.00 19.61 LIG 0.01  C 
ENDBRANCH 20 24
ENDBRANCH 17 20
ENDBRANCH 14 16
ENDBRANCH 12 14
ENDBRANCH 9 10
BRANCH 9 27
ATOM     27  CB  SER B   6      14.998 -23.263   3.377  1.00 25.59 LIG 0.20  C 
BRANCH 27 28
ATOM     28 OG   SER B   6      15.390 -23.322   4.731  1.00 27.26 LIG-0.40  OA
ATOM     29 HG   SER B   6      14.793 -23.707   5.179  1.00 27.26 LIG 0.21  HD
ENDBRANCH 27 28
ENDBRANCH 9 27
ENDBRANCH 7 9
ENDBRANCH 1 5
BRANCH 1 30
ATOM     30  N   VAL B   5      20.218 -22.206   3.524  1.00 22.92 LIG-0.35  N 
ATOM     31 H    VAL B   5      19.913 -21.616   2.978  1.00 22.92 LIG 0.16  HD
ATOM     32  C   GLN B   4      21.467 -22.646   3.487  1.00 24.29 LIG 0.24  C 
ATOM     33 O    GLN B   4      21.942 -23.446   4.268  1.00 26.90 LIG-0.27  OA
BRANCH 32 34
ATOM     34  CA  GLN B   4      22.327 -22.056   2.366  1.00 30.52 LIG 0.18  C 
BRANCH 34 35
ATOM     35  CB  GLN B   4      22.662 -20.611   2.730  1.00 36.61 LIG 0.04  C 
BRANCH 35 36
ATOM     36  CG  GLN B   4      23.585 -19.935   1.730  1.00 50.94 LIG 0.10  C 
BRANCH 36 37
ATOM     37  CD  GLN B   4      24.122 -18.618   2.283  1.00 60.90 LIG 0.21  C 
ATOM     38  NE2 GLN B   4      24.111 -18.468   3.606  1.00 82.36 LIG-0.37  N 
ATOM     39 21HE GLN B   4      23.804 -19.095   4.107  1.00 82.36 LIG 0.16  HD
ATOM     40 22HE GLN B   4      24.412 -17.743   3.959  1.00 82.36 LIG 0.16  HD
ATOM     41 OE1  GLN B   4      24.550 -17.754   1.521  1.00 55.22 LIG-0.27  OA
ENDBRANCH 36 37
ENDBRANCH 35 36
ENDBRANCH 34 35
BRANCH 34 42
ATOM     42  N   GLN B   4      21.622 -22.111   1.101  1.00 37.98 LIG-0.35  N 
ATOM     43  C   GLU B   3      21.092 -23.237   0.634  1.00 56.89 LIG 0.26  C 
ATOM     44 O    GLU B   3      21.219 -24.313   1.200  1.00 56.58 LIG-0.27  OA
ATOM     45 H    GLN B   4      21.581 -21.357   0.689  1.00 37.98 LIG 0.16  HD
BRANCH 43 46
ATOM     46  CA  GLU B   3      20.311 -23.127  -0.675  1.00 80.09 LIG 0.40  C 
ATOM     47  N   GLU B   3      20.249 -24.418  -1.346  1.00 75.44 LIG 0.61  N 
BRANCH 46 48
ATOM     48  CB  GLU B   3      18.901 -22.615  -0.402  1.00107.85 LIG 0.06  C 
BRANCH 48 49
ATOM     49  CG  GLU B   3      18.745 -21.127  -0.608  1.00114.95 LIG 0.12  C 
BRANCH 49 50
ATOM     50  CD  GLU B   3      19.403 -20.322   0.496  1.00 96.82 LIG 0.17  C 
ATOM     51 OE1  GLU B   3      19.032 -20.508   1.679  1.00 91.15 LIG-0.65  OA
ATOM     52 OE2  GLU B   3      20.304 -19.509   0.183  1.00 91.13 LIG-0.65  OA
ENDBRANCH 49 50
ENDBRANCH 48 49
ENDBRANCH 46 48
ENDBRANCH 43 46
ENDBRANCH 34 42
ENDBRANCH 32 34
ENDBRANCH 1 30
TORSDOF 21
ENDMDL
MODEL 16
USER: ADFR SOLUTION from run 60
USER: SCORE 17.212497 LL:  -5.047 LR: -13.939 RR:   0.000 FEB:  -7.675
USER: RMSD 12.258192
USER: SEED 59
USER: STATUS no improvement in best in 5 clusters for 5 generations
USER: GENES 23
USER: genes 0 Translation |==|  0.69636 0.56376 0.53483
USER: genes 1 Rotation |==|  0.36246 0.61201 0.03355 0.53097
USER: genes 2 Torsion [C]-CA--CB-[CG2] |==|  0.72226
USER: genes 3 Torsion [N]-CA--C-[N] |==|  0.65559
USER: genes 4 Torsion [C]-N--CA-[CB] |==|  0.18650
USER: genes 5 Torsion [N]-CA--C-[N] |==|  0.64233
USER: genes 6 Torsion [C]-N--CA-[CB] |==|  0.51497
USER: genes 7 Torsion [N]-CA--C-[N] |==|  0.46166
USER: genes 8 Torsion [C]-N--CA-[CB] |==|  0.24212
USER: genes 9 Torsion [N]-CA--C-[O] |==|  0.71199
USER: genes 10 Torsion [N]-CA--CB-[CG2] |==|  0.03032
USER: genes 11 Torsion [N]-CA--CB-[OG] |==|  0.82486
USER: genes 12 Torsion [CA]-CB--OG-[HG] |==|  0.35617
USER: genes 13 Torsion [CB]-CA--N-[C] |==|  0.18889
USER: genes 14 Torsion [N]-C--CA-[N] |==|  0.04549
USER: genes 15 Torsion [C]-CA--CB-[CG] |==|  0.80334
USER: genes 16 Torsion [CA]-CB--CG-[CD] |==|  0.64632
USER: genes 17 Torsion [CB]-CG--CD-[OE1] |==|  0.73921
USER: genes 18 Torsion [C]-CA--N-[C] |==|  0.66697
USER: genes 19 Torsion [N]-C--CA-[N] |==|  0.75760
USER: genes 20 Torsion [C]-CA--CB-[CG] |==|  0.69572
USER: genes 21 Torsion [CA]-CB--CG-[CD] |==|  0.19014
USER: genes 22 Torsion [CB]-CG--CD-[OE1] |==|  0.65993
ROOT
ATOM      1  CA  VAL B   5      18.084 -21.847   4.957  1.00 23.44 LIG 0.18  C 
ENDROOT
BRANCH 1 2
ATOM      2  CB  VAL B   5      17.880 -20.348   5.178  1.00 27.20 LIG 0.01  C 
ATOM      3  CG2 VAL B   5      18.679 -19.536   4.203  1.00 32.91 LIG 0.01  C 
ATOM      4  CG1 VAL B   5      18.193 -19.949   6.604  1.00 27.01 LIG 0.01  C 
ENDBRANCH 1 2
BRANCH 1 5
ATOM      5  C   VAL B   5      16.911 -22.418   4.167  1.00 21.98 LIG 0.24  C 
ATOM      6 O    VAL B   5      16.946 -23.584   3.785  1.00 26.26 LIG-0.27  OA
ATOM      7  N   SER B   6      15.901 -21.598   3.869  1.00 19.41 LIG-0.34  N 
ATOM      8 H    SER B   6      15.899 -20.764   4.077  1.00 19.41 LIG 0.16  HD
BRANCH 7 9
ATOM      9  CA  SER B   6      14.709 -22.020   3.167  1.00 20.84 LIG 0.20  C 
BRANCH 9 10
ATOM     10  C   SER B   6      13.817 -20.857   2.788  1.00 18.76 LIG 0.24  C 
ATOM     11 O    SER B   6      14.259 -19.845   2.274  1.00 19.89 LIG-0.27  OA
ATOM     12  N   ALA B   7      12.562 -20.986   3.145  1.00 19.53 LIG-0.35  N 
ATOM     13 H    ALA B   7      12.263 -21.694   3.533  1.00 19.53 LIG 0.16  HD
BRANCH 12 14
ATOM     14  CA  ALA B   7      11.534 -19.974   2.938  1.00 19.70 LIG 0.17  C 
ATOM     15  CB  ALA B   7      10.225 -20.431   3.606  1.00 20.39 LIG 0.04  C 
BRANCH 14 16
ATOM     16  C   ALA B   7      11.917 -18.636   3.544  1.00 16.34 LIG 0.24  C 
ATOM     17  N   VAL B   8      11.215 -17.575   3.193  1.00 16.85 LIG-0.34  N 
ATOM     18 H    VAL B   8      10.606 -17.577   2.586  1.00 16.85 LIG 0.16  HD
ATOM     19 O    ALA B   7      12.807 -18.582   4.368  1.00 20.16 LIG-0.27  OA
BRANCH 17 20
ATOM     20  CA  VAL B   8      11.434 -16.273   3.837  1.00 17.28 LIG 0.19  C 
BRANCH 20 21
ATOM     21  C   VAL B   8      10.116 -15.505   3.847  1.00 17.19 LIG 0.20  C 
ATOM     22 O    VAL B   8       9.937 -14.572   3.031  1.00 24.30 LIG-0.65  OA
ATOM     23 OXT  VAL B   8       9.222 -15.760   4.684  1.00 16.53 LIG-0.65  OA
ENDBRANCH 20 21
BRANCH 20 24
ATOM     24  CB  VAL B   8      12.563 -15.446   3.146  1.00 17.38 LIG 0.01  C 
ATOM     25  CG2 VAL B   8      12.942 -16.108   1.826  1.00 18.61 LIG 0.01  C 
ATOM     26  CG1 VAL B   8      13.736 -15.266   4.072  1.00 19.61 LIG 0.01  C 
ENDBRANCH 20 24
ENDBRANCH 17 20
ENDBRANCH 14 16
ENDBRANCH 12 14
ENDBRANCH 9 10
BRANCH 9 27
ATOM     27  CB  SER B   6      13.894 -22.980   4.023  1.00 25.59 LIG 0.20  C 
BRANCH 27 28
ATOM     28 OG   SER B   6      14.628 -24.157   4.280  1.00 27.26 LIG-0.40  OA
ATOM     29 HG   SER B   6      14.634 -24.309   5.106  1.00 27.26 LIG 0.21  HD
ENDBRANCH 27 28
ENDBRANCH 9 27
ENDBRANCH 7 9
ENDBRANCH 1 5
BRANCH 1 30
ATOM     30  N   VAL B   5      19.278 -22.092   4.181  1.00 22.92 LIG-0.35  N 
ATOM     31 H    VAL B   5      19.117 -22.404   3.396  1.00 22.92 LIG 0.16  HD
ATOM     32  C   GLN B   4      20.502 -21.863   4.629  1.00 24.29 LIG 0.24  C 
ATOM     33 O    GLN B   4      20.764 -21.385   5.715  1.00 26.90 LIG-0.27  OA
BRANCH 32 34
ATOM     34  CA  GLN B   4      21.626 -22.235   3.659  1.00 30.52 LIG 0.18  C 
BRANCH 34 35
ATOM     35  CB  GLN B   4      22.675 -21.124   3.692  1.00 36.61 LIG 0.04  C 
BRANCH 35 36
ATOM     36  CG  GLN B   4      22.207 -19.833   3.043  1.00 50.94 LIG 0.10  C 
BRANCH 36 37
ATOM     37  CD  GLN B   4      23.205 -19.354   1.993  1.00 60.90 LIG 0.21  C 
ATOM     38  NE2 GLN B   4      23.068 -19.843   0.761  1.00 82.36 LIG-0.37  N 
ATOM     39 21HE GLN B   4      22.443 -20.408   0.590  1.00 82.36 LIG 0.16  HD
ATOM     40 22HE GLN B   4      23.606 -19.594   0.137  1.00 82.36 LIG 0.16  HD
ATOM     41 OE1  GLN B   4      24.080 -18.545   2.291  1.00 55.22 LIG-0.27  OA
ENDBRANCH 36 37
ENDBRANCH 35 36
ENDBRANCH 34 35
BRANCH 34 42
ATOM     42  N   GLN B   4      21.106 -22.402   2.317  1.00 37.98 LIG-0.35  N 
ATOM     43  C   GLU B   3      21.209 -23.551   1.656  1.00 56.89 LIG 0.26  C 
ATOM     44 O    GLU B   3      21.806 -24.520   2.102  1.00 56.58 LIG-0.27  OA
ATOM     45 H    GLN B   4      20.730 -21.699   1.995  1.00 37.98 LIG 0.16  HD
BRANCH 43 46
ATOM     46  CA  GLU B   3      20.545 -23.604   0.281  1.00 80.09 LIG 0.40  C 
ATOM     47  N   GLU B   3      19.147 -23.995   0.399  1.00 75.44 LIG 0.61  N 
BRANCH 46 48
ATOM     48  CB  GLU B   3      20.648 -22.245  -0.404  1.00107.85 LIG 0.06  C 
BRANCH 48 49
ATOM     49  CG  GLU B   3      19.330 -21.516  -0.510  1.00114.95 LIG 0.12  C 
BRANCH 49 50
ATOM     50  CD  GLU B   3      18.813 -21.066   0.842  1.00 96.82 LIG 0.17  C 
ATOM     51 OE1  GLU B   3      17.681 -21.456   1.214  1.00 91.15 LIG-0.65  OA
ATOM     52 OE2  GLU B   3      19.545 -20.329   1.543  1.00 91.13 LIG-0.65  OA
ENDBRANCH 49 50
ENDBRANCH 48 49
ENDBRANCH 46 48
ENDBRANCH 43 46
ENDBRANCH 34 42
ENDBRANCH 32 34
ENDBRANCH 1 30
TORSDOF 21
ENDMDL
MODEL 17
USER: ADFR SOLUTION from run 126
USER: SCORE 15.204822 LL:  -3.717 LR: -13.933 RR:   0.000 FEB:  -7.668
USER: RMSD 13.032490
USER: SEED 125
USER: STATUS no improvement in best in 17 clusters for 5 generations
USER: GENES 23
USER: genes 0 Translation |==|  0.68802 0.50494 0.49305
USER: genes 1 Rotation |==|  0.73672 0.29477 0.88724 0.54341
USER: genes 2 Torsion [C]-CA--CB-[CG2] |==|  0.75997
USER: genes 3 Torsion [N]-CA--C-[N] |==|  0.72343
USER: genes 4 Torsion [C]-N--CA-[CB] |==|  0.59955
USER: genes 5 Torsion [N]-CA--C-[N] |==|  0.29768
USER: genes 6 Torsion [C]-N--CA-[CB] |==|  0.23583
USER: genes 7 Torsion [N]-CA--C-[N] |==|  0.51678
USER: genes 8 Torsion [C]-N--CA-[CB] |==|  0.23973
USER: genes 9 Torsion [N]-CA--C-[O] |==|  0.48408
USER: genes 10 Torsion [N]-CA--CB-[CG2] |==|  0.07240
USER: genes 11 Torsion [N]-CA--CB-[OG] |==|  0.64175
USER: genes 12 Torsion [CA]-CB--OG-[HG] |==|  0.86728
USER: genes 13 Torsion [CB]-CA--N-[C] |==|  0.77033
USER: genes 14 Torsion [N]-C--CA-[N] |==|  0.87461
USER: genes 15 Torsion [C]-CA--CB-[CG] |==|  0.80662
USER: genes 16 Torsion [CA]-CB--CG-[CD] |==|  0.75881
USER: genes 17 Torsion [CB]-CG--CD-[OE1] |==|  0.82407
USER: genes 18 Torsion [C]-CA--N-[C] |==|  0.83133
USER: genes 19 Torsion [N]-C--CA-[N] |==|  0.32090
USER: genes 20 Torsion [C]-CA--CB-[CG] |==|  0.71015
USER: genes 21 Torsion [CA]-CB--CG-[CD] |==|  0.79233
USER: genes 22 Torsion [CB]-CG--CD-[OE1] |==|  0.95973
ROOT
ATOM      1  CA  VAL B   5      17.834 -22.862   4.236  1.00 23.44 LIG 0.18  C 
ENDROOT
BRANCH 1 2
ATOM      2  CB  VAL B   5      18.283 -21.538   4.856  1.00 27.20 LIG 0.01  C 
ATOM      3  CG2 VAL B   5      18.437 -20.470   3.814  1.00 32.91 LIG 0.01  C 
ATOM      4  CG1 VAL B   5      19.555 -21.703   5.658  1.00 27.01 LIG 0.01  C 
ENDBRANCH 1 2
BRANCH 1 5
ATOM      5  C   VAL B   5      16.313 -22.894   4.130  1.00 21.98 LIG 0.24  C 
ATOM      6 O    VAL B   5      15.737 -23.968   3.977  1.00 26.26 LIG-0.27  OA
ATOM      7  N   SER B   6      15.661 -21.730   4.153  1.00 19.41 LIG-0.34  N 
ATOM      8 H    SER B   6      16.062 -20.971   4.195  1.00 19.41 LIG 0.16  HD
BRANCH 7 9
ATOM      9  CA  SER B   6      14.219 -21.620   4.108  1.00 20.84 LIG 0.20  C 
BRANCH 9 10
ATOM     10  C   SER B   6      13.564 -22.835   3.488  1.00 18.76 LIG 0.24  C 
ATOM     11 O    SER B   6      13.544 -23.014   2.284  1.00 19.89 LIG-0.27  OA
ATOM     12  N   ALA B   7      12.940 -23.618   4.336  1.00 19.53 LIG-0.35  N 
ATOM     13 H    ALA B   7      12.936 -23.469   5.183  1.00 19.53 LIG 0.16  HD
BRANCH 12 14
ATOM     14  CA  ALA B   7      12.191 -24.811   3.964  1.00 19.70 LIG 0.17  C 
ATOM     15  CB  ALA B   7      13.155 -26.006   3.854  1.00 20.39 LIG 0.04  C 
BRANCH 14 16
ATOM     16  C   ALA B   7      11.133 -25.167   4.992  1.00 16.34 LIG 0.24  C 
ATOM     17  N   VAL B   8      10.469 -26.296   4.831  1.00 16.85 LIG-0.34  N 
ATOM     18 H    VAL B   8      10.541 -26.805   4.141  1.00 16.85 LIG 0.16  HD
ATOM     19 O    ALA B   7      10.964 -24.447   5.955  1.00 20.16 LIG-0.27  OA
BRANCH 17 20
ATOM     20  CA  VAL B   8       9.529 -26.778   5.852  1.00 17.28 LIG 0.19  C 
BRANCH 20 21
ATOM     21  C   VAL B   8       9.498 -28.301   5.808  1.00 17.19 LIG 0.20  C 
ATOM     22 O    VAL B   8       8.842 -28.934   6.667  1.00 24.30 LIG-0.65  OA
ATOM     23 OXT  VAL B   8      10.151 -28.940   4.952  1.00 16.53 LIG-0.65  OA
ENDBRANCH 20 21
BRANCH 20 24
ATOM     24  CB  VAL B   8       8.098 -26.180   5.677  1.00 17.38 LIG 0.01  C 
ATOM     25  CG2 VAL B   8       7.879 -25.807   4.215  1.00 18.61 LIG 0.01  C 
ATOM     26  CG1 VAL B   8       7.883 -25.024   6.617  1.00 19.61 LIG 0.01  C 
ENDBRANCH 20 24
ENDBRANCH 17 20
ENDBRANCH 14 16
ENDBRANCH 12 14
ENDBRANCH 9 10
BRANCH 9 27
ATOM     27  CB  SER B   6      13.799 -20.396   3.305  1.00 25.59 LIG 0.20  C 
BRANCH 27 28
ATOM     28 OG   SER B   6      12.881 -19.616   4.039  1.00 27.26 LIG-0.40  OA
ATOM     29 HG   SER B   6      12.281 -20.112   4.356  1.00 27.26 LIG 0.21  HD
ENDBRANCH 27 28
ENDBRANCH 9 27
ENDBRANCH 7 9
ENDBRANCH 1 5
BRANCH 1 30
ATOM     30  N   VAL B   5      18.356 -23.004   2.897  1.00 22.92 LIG-0.35  N 
ATOM     31 H    VAL B   5      19.073 -23.477   2.858  1.00 22.92 LIG 0.16  HD
ATOM     32  C   GLN B   4      17.792 -22.461   1.829  1.00 24.29 LIG 0.24  C 
ATOM     33 O    GLN B   4      16.758 -21.823   1.841  1.00 26.90 LIG-0.27  OA
BRANCH 32 34
ATOM     34  CA  GLN B   4      18.536 -22.700   0.513  1.00 30.52 LIG 0.18  C 
BRANCH 34 35
ATOM     35  CB  GLN B   4      18.268 -24.136   0.065  1.00 36.61 LIG 0.04  C 
BRANCH 35 36
ATOM     36  CG  GLN B   4      18.935 -25.177   0.947  1.00 50.94 LIG 0.10  C 
BRANCH 36 37
ATOM     37  CD  GLN B   4      20.363 -25.455   0.485  1.00 60.90 LIG 0.21  C 
ATOM     38  NE2 GLN B   4      21.342 -25.160   1.338  1.00 82.36 LIG-0.37  N 
ATOM     39 21HE GLN B   4      21.156 -24.823   2.106  1.00 82.36 LIG 0.16  HD
ATOM     40 22HE GLN B   4      22.161 -25.307   1.119  1.00 82.36 LIG 0.16  HD
ATOM     41 OE1  GLN B   4      20.573 -25.938  -0.625  1.00 55.22 LIG-0.27  OA
ENDBRANCH 36 37
ENDBRANCH 35 36
ENDBRANCH 34 35
BRANCH 34 42
ATOM     42  N   GLN B   4      19.958 -22.478   0.683  1.00 37.98 LIG-0.35  N 
ATOM     43  C   GLU B   3      20.451 -21.302   1.058  1.00 56.89 LIG 0.26  C 
ATOM     44 O    GLU B   3      19.752 -20.311   1.217  1.00 56.58 LIG-0.27  OA
ATOM     45 H    GLN B   4      20.443 -23.169   0.522  1.00 37.98 LIG 0.16  HD
BRANCH 43 46
ATOM     46  CA  GLU B   3      21.962 -21.237   1.273  1.00 80.09 LIG 0.40  C 
ATOM     47  N   GLU B   3      22.581 -20.337   0.310  1.00 75.44 LIG 0.61  N 
BRANCH 46 48
ATOM     48  CB  GLU B   3      22.270 -20.770   2.692  1.00107.85 LIG 0.06  C 
BRANCH 48 49
ATOM     49  CG  GLU B   3      22.733 -19.335   2.772  1.00114.95 LIG 0.12  C 
BRANCH 49 50
ATOM     50  CD  GLU B   3      24.162 -19.165   2.292  1.00 96.82 LIG 0.17  C 
ATOM     51 OE1  GLU B   3      24.877 -20.186   2.159  1.00 91.15 LIG-0.65  OA
ATOM     52 OE2  GLU B   3      24.568 -18.008   2.034  1.00 91.13 LIG-0.65  OA
ENDBRANCH 49 50
ENDBRANCH 48 49
ENDBRANCH 46 48
ENDBRANCH 43 46
ENDBRANCH 34 42
ENDBRANCH 32 34
ENDBRANCH 1 30
TORSDOF 21
ENDMDL
MODEL 18
USER: ADFR SOLUTION from run 113
USER: SCORE 16.134476 LL:  -4.409 LR: -13.931 RR:   0.000 FEB:  -7.667
USER: RMSD 12.343132
USER: SEED 112
USER: STATUS no improvement in best in 10 clusters for 5 generations
USER: GENES 23
USER: genes 0 Translation |==|  0.76630 0.52258 0.49222
USER: genes 1 Rotation |==|  0.31737 0.78100 0.12968 0.52340
USER: genes 2 Torsion [C]-CA--CB-[CG2] |==|  0.63463
USER: genes 3 Torsion [N]-CA--C-[N] |==|  0.16111
USER: genes 4 Torsion [C]-N--CA-[CB] |==|  0.54256
USER: genes 5 Torsion [N]-CA--C-[N] |==|  0.40949
USER: genes 6 Torsion [C]-N--CA-[CB] |==|  0.14108
USER: genes 7 Torsion [N]-CA--C-[N] |==|  0.87554
USER: genes 8 Torsion [C]-N--CA-[CB] |==|  0.25175
USER: genes 9 Torsion [N]-CA--C-[O] |==|  0.19391
USER: genes 10 Torsion [N]-CA--CB-[CG2] |==|  0.08449
USER: genes 11 Torsion [N]-CA--CB-[OG] |==|  0.02695
USER: genes 12 Torsion [CA]-CB--OG-[HG] |==|  0.10594
USER: genes 13 Torsion [CB]-CA--N-[C] |==|  0.78821
USER: genes 14 Torsion [N]-C--CA-[N] |==|  0.31163
USER: genes 15 Torsion [C]-CA--CB-[CG] |==|  0.31380
USER: genes 16 Torsion [CA]-CB--CG-[CD] |==|  0.56675
USER: genes 17 Torsion [CB]-CG--CD-[OE1] |==|  0.77872
USER: genes 18 Torsion [C]-CA--N-[C] |==|  0.82206
USER: genes 19 Torsion [N]-C--CA-[N] |==|  0.63706
USER: genes 20 Torsion [C]-CA--CB-[CG] |==|  0.73567
USER: genes 21 Torsion [CA]-CB--CG-[CD] |==|  0.16284
USER: genes 22 Torsion [CB]-CG--CD-[OE1] |==|  0.70568
ROOT
ATOM      1  CA  VAL B   5      20.182 -22.557   4.222  1.00 23.44 LIG 0.18  C 
ENDROOT
BRANCH 1 2
ATOM      2  CB  VAL B   5      20.421 -21.582   5.375  1.00 27.20 LIG 0.01  C 
ATOM      3  CG2 VAL B   5      21.684 -20.798   5.177  1.00 32.91 LIG 0.01  C 
ATOM      4  CG1 VAL B   5      20.425 -22.291   6.712  1.00 27.01 LIG 0.01  C 
ENDBRANCH 1 2
BRANCH 1 5
ATOM      5  C   VAL B   5      18.748 -22.427   3.722  1.00 21.98 LIG 0.24  C 
ATOM      6 O    VAL B   5      17.967 -21.679   4.304  1.00 26.26 LIG-0.27  OA
ATOM      7  N   SER B   6      18.375 -23.187   2.690  1.00 19.41 LIG-0.34  N 
ATOM      8 H    SER B   6      18.897 -23.760   2.319  1.00 19.41 LIG 0.16  HD
BRANCH 7 9
ATOM      9  CA  SER B   6      17.061 -23.129   2.088  1.00 20.84 LIG 0.20  C 
BRANCH 9 10
ATOM     10  C   SER B   6      15.953 -23.069   3.118  1.00 18.76 LIG 0.24  C 
ATOM     11 O    SER B   6      16.009 -23.692   4.162  1.00 19.89 LIG-0.27  OA
ATOM     12  N   ALA B   7      14.898 -22.380   2.753  1.00 19.53 LIG-0.35  N 
ATOM     13 H    ALA B   7      14.857 -21.965   2.000  1.00 19.53 LIG 0.16  HD
BRANCH 12 14
ATOM     14  CA  ALA B   7      13.690 -22.231   3.553  1.00 19.70 LIG 0.17  C 
ATOM     15  CB  ALA B   7      14.071 -21.781   4.974  1.00 20.39 LIG 0.04  C 
BRANCH 14 16
ATOM     16  C   ALA B   7      12.746 -21.190   2.978  1.00 16.34 LIG 0.24  C 
ATOM     17  N   VAL B   8      13.262 -20.044   2.574  1.00 16.85 LIG-0.34  N 
ATOM     18 H    VAL B   8      14.083 -19.817   2.686  1.00 16.85 LIG 0.16  HD
ATOM     19 O    ALA B   7      11.568 -21.452   2.851  1.00 20.16 LIG-0.27  OA
BRANCH 17 20
ATOM     20  CA  VAL B   8      12.439 -19.042   1.883  1.00 17.28 LIG 0.19  C 
BRANCH 20 21
ATOM     21  C   VAL B   8      13.304 -18.326   0.852  1.00 17.19 LIG 0.20  C 
ATOM     22 O    VAL B   8      13.692 -18.942  -0.167  1.00 24.30 LIG-0.65  OA
ATOM     23 OXT  VAL B   8      13.674 -17.143   1.024  1.00 16.53 LIG-0.65  OA
ENDBRANCH 20 21
BRANCH 20 24
ATOM     24  CB  VAL B   8      11.779 -18.027   2.868  1.00 17.38 LIG 0.01  C 
ATOM     25  CG2 VAL B   8      12.680 -17.842   4.084  1.00 18.61 LIG 0.01  C 
ATOM     26  CG1 VAL B   8      10.385 -18.462   3.230  1.00 19.61 LIG 0.01  C 
ENDBRANCH 20 24
ENDBRANCH 17 20
ENDBRANCH 14 16
ENDBRANCH 12 14
ENDBRANCH 9 10
BRANCH 9 27
ATOM     27  CB  SER B   6      16.820 -24.348   1.207  1.00 25.59 LIG 0.20  C 
BRANCH 27 28
ATOM     28 OG   SER B   6      17.844 -25.300   1.391  1.00 27.26 LIG-0.40  OA
ATOM     29 HG   SER B   6      18.063 -25.323   2.201  1.00 27.26 LIG 0.21  HD
ENDBRANCH 27 28
ENDBRANCH 9 27
ENDBRANCH 7 9
ENDBRANCH 1 5
BRANCH 1 30
ATOM     30  N   VAL B   5      21.049 -22.255   3.107  1.00 22.92 LIG-0.35  N 
ATOM     31 H    VAL B   5      21.714 -22.796   3.034  1.00 22.92 LIG 0.16  HD
ATOM     32  C   GLN B   4      20.848 -21.245   2.275  1.00 24.29 LIG 0.24  C 
ATOM     33 O    GLN B   4      19.898 -20.488   2.323  1.00 26.90 LIG-0.27  OA
BRANCH 32 34
ATOM     34  CA  GLN B   4      21.914 -21.079   1.189  1.00 30.52 LIG 0.18  C 
BRANCH 34 35
ATOM     35  CB  GLN B   4      22.429 -19.641   1.239  1.00 36.61 LIG 0.04  C 
BRANCH 35 36
ATOM     36  CG  GLN B   4      23.878 -19.535   1.683  1.00 50.94 LIG 0.10  C 
BRANCH 36 37
ATOM     37  CD  GLN B   4      24.170 -18.160   2.277  1.00 60.90 LIG 0.21  C 
ATOM     38  NE2 GLN B   4      24.203 -18.070   3.606  1.00 82.36 LIG-0.37  N 
ATOM     39 21HE GLN B   4      24.057 -18.767   4.088  1.00 82.36 LIG 0.16  HD
ATOM     40 22HE GLN B   4      24.371 -17.315   3.982  1.00 82.36 LIG 0.16  HD
ATOM     41 OE1  GLN B   4      24.372 -17.196   1.543  1.00 55.22 LIG-0.27  OA
ENDBRANCH 36 37
ENDBRANCH 35 36
ENDBRANCH 34 35
BRANCH 34 42
ATOM     42  N   GLN B   4      21.360 -21.374  -0.118  1.00 37.98 LIG-0.35  N 
ATOM     43  C   GLU B   3      20.915 -22.585  -0.441  1.00 56.89 LIG 0.26  C 
ATOM     44 O    GLU B   3      21.004 -23.545   0.311  1.00 56.58 LIG-0.27  OA
ATOM     45 H    GLN B   4      21.348 -20.703  -0.654  1.00 37.98 LIG 0.16  HD
BRANCH 43 46
ATOM     46  CA  GLU B   3      20.287 -22.729  -1.826  1.00 80.09 LIG 0.40  C 
ATOM     47  N   GLU B   3      19.000 -23.403  -1.739  1.00 75.44 LIG 0.61  N 
BRANCH 46 48
ATOM     48  CB  GLU B   3      20.113 -21.356  -2.468  1.00107.85 LIG 0.06  C 
BRANCH 48 49
ATOM     49  CG  GLU B   3      18.740 -20.761  -2.266  1.00114.95 LIG 0.12  C 
BRANCH 49 50
ATOM     50  CD  GLU B   3      18.391 -20.606  -0.798  1.00 96.82 LIG 0.17  C 
ATOM     51 OE1  GLU B   3      17.564 -21.399  -0.289  1.00 91.15 LIG-0.65  OA
ATOM     52 OE2  GLU B   3      18.956 -19.696  -0.146  1.00 91.13 LIG-0.65  OA
ENDBRANCH 49 50
ENDBRANCH 48 49
ENDBRANCH 46 48
ENDBRANCH 43 46
ENDBRANCH 34 42
ENDBRANCH 32 34
ENDBRANCH 1 30
TORSDOF 21
ENDMDL
MODEL 19
USER: ADFR SOLUTION from run 94
USER: SCORE 17.010713 LL:  -4.838 LR: -13.921 RR:   0.000 FEB:  -7.657
USER: RMSD 12.550700
USER: SEED 93
USER: STATUS searching
USER: GENES 23
USER: genes 0 Translation |==|  0.59217 0.47863 0.45596
USER: genes 1 Rotation |==|  0.33220 0.44268 0.03486 0.54696
USER: genes 2 Torsion [C]-CA--CB-[CG2] |==|  0.34035
USER: genes 3 Torsion [N]-CA--C-[N] |==|  0.43245
USER: genes 4 Torsion [C]-N--CA-[CB] |==|  0.23452
USER: genes 5 Torsion [N]-CA--C-[N] |==|  0.92230
USER: genes 6 Torsion [C]-N--CA-[CB] |==|  0.87206
USER: genes 7 Torsion [N]-CA--C-[N] |==|  0.83889
USER: genes 8 Torsion [C]-N--CA-[CB] |==|  0.25845
USER: genes 9 Torsion [N]-CA--C-[O] |==|  0.88215
USER: genes 10 Torsion [N]-CA--CB-[CG2] |==|  0.11693
USER: genes 11 Torsion [N]-CA--CB-[OG] |==|  0.96176
USER: genes 12 Torsion [CA]-CB--OG-[HG] |==|  0.54680
USER: genes 13 Torsion [CB]-CA--N-[C] |==|  0.86078
USER: genes 14 Torsion [N]-C--CA-[N] |==|  0.89707
USER: genes 15 Torsion [C]-CA--CB-[CG] |==|  0.42779
USER: genes 16 Torsion [CA]-CB--CG-[CD] |==|  0.08845
USER: genes 17 Torsion [CB]-CG--CD-[OE1] |==|  0.70444
USER: genes 18 Torsion [C]-CA--N-[C] |==|  0.86028
USER: genes 19 Torsion [N]-C--CA-[N] |==|  0.55667
USER: genes 20 Torsion [C]-CA--CB-[CG] |==|  0.34529
USER: genes 21 Torsion [CA]-CB--CG-[CD] |==|  0.97718
USER: genes 22 Torsion [CB]-CG--CD-[OE1] |==|  0.79598
ROOT
ATOM      1  CA  VAL B   5      14.958 -23.316   3.596  1.00 23.44 LIG 0.18  C 
ENDROOT
BRANCH 1 2
ATOM      2  CB  VAL B   5      14.343 -22.079   2.940  1.00 27.20 LIG 0.01  C 
ATOM      3  CG2 VAL B   5      14.213 -20.948   3.917  1.00 32.91 LIG 0.01  C 
ATOM      4  CG1 VAL B   5      13.012 -22.396   2.295  1.00 27.01 LIG 0.01  C 
ENDBRANCH 1 2
BRANCH 1 5
ATOM      5  C   VAL B   5      14.012 -24.502   3.452  1.00 21.98 LIG 0.24  C 
ATOM      6 O    VAL B   5      14.139 -25.269   2.501  1.00 26.26 LIG-0.27  OA
ATOM      7  N   SER B   6      13.032 -24.632   4.349  1.00 19.41 LIG-0.34  N 
ATOM      8 H    SER B   6      12.898 -24.064   4.980  1.00 19.41 LIG 0.16  HD
BRANCH 7 9
ATOM      9  CA  SER B   6      12.096 -25.734   4.356  1.00 20.84 LIG 0.20  C 
BRANCH 9 10
ATOM     10  C   SER B   6      10.782 -25.375   5.016  1.00 18.76 LIG 0.24  C 
ATOM     11 O    SER B   6       9.724 -25.855   4.651  1.00 19.89 LIG-0.27  OA
ATOM     12  N   ALA B   7      10.863 -24.440   5.933  1.00 19.53 LIG-0.35  N 
ATOM     13 H    ALA B   7      11.612 -24.086   6.165  1.00 19.53 LIG 0.16  HD
BRANCH 12 14
ATOM     14  CA  ALA B   7       9.725 -23.892   6.659  1.00 19.70 LIG 0.17  C 
ATOM     15  CB  ALA B   7       8.590 -23.578   5.668  1.00 20.39 LIG 0.04  C 
BRANCH 14 16
ATOM     16  C   ALA B   7       9.179 -24.865   7.689  1.00 16.34 LIG 0.24  C 
ATOM     17  N   VAL B   8       8.775 -26.049   7.268  1.00 16.85 LIG-0.34  N 
ATOM     18 H    VAL B   8       8.726 -26.277   6.440  1.00 16.85 LIG 0.16  HD
ATOM     19 O    ALA B   7       9.183 -24.561   8.864  1.00 20.16 LIG-0.27  OA
BRANCH 17 20
ATOM     20  CA  VAL B   8       8.364 -27.093   8.217  1.00 17.28 LIG 0.19  C 
BRANCH 20 21
ATOM     21  C   VAL B   8       8.818 -28.446   7.680  1.00 17.19 LIG 0.20  C 
ATOM     22 O    VAL B   8       8.683 -28.708   6.463  1.00 24.30 LIG-0.65  OA
ATOM     23 OXT  VAL B   8       9.287 -29.323   8.441  1.00 16.53 LIG-0.65  OA
ENDBRANCH 20 21
BRANCH 20 24
ATOM     24  CB  VAL B   8       6.827 -27.082   8.489  1.00 17.38 LIG 0.01  C 
ATOM     25  CG2 VAL B   8       6.080 -26.867   7.178  1.00 18.61 LIG 0.01  C 
ATOM     26  CG1 VAL B   8       6.478 -26.061   9.539  1.00 19.61 LIG 0.01  C 
ENDBRANCH 20 24
ENDBRANCH 17 20
ENDBRANCH 14 16
ENDBRANCH 12 14
ENDBRANCH 9 10
BRANCH 9 27
ATOM     27  CB  SER B   6      12.681 -26.931   5.094  1.00 25.59 LIG 0.20  C 
BRANCH 27 28
ATOM     28 OG   SER B   6      14.068 -26.760   5.290  1.00 27.26 LIG-0.40  OA
ATOM     29 HG   SER B   6      14.418 -27.500   5.481  1.00 27.26 LIG 0.21  HD
ENDBRANCH 27 28
ENDBRANCH 9 27
ENDBRANCH 7 9
ENDBRANCH 1 5
BRANCH 1 30
ATOM     30  N   VAL B   5      16.196 -23.677   2.946  1.00 22.92 LIG-0.35  N 
ATOM     31 H    VAL B   5      16.848 -23.797   3.495  1.00 22.92 LIG 0.16  HD
ATOM     32  C   GLN B   4      16.324 -23.813   1.635  1.00 24.29 LIG 0.24  C 
ATOM     33 O    GLN B   4      15.416 -23.694   0.836  1.00 26.90 LIG-0.27  OA
BRANCH 32 34
ATOM     34  CA  GLN B   4      17.735 -24.159   1.155  1.00 30.52 LIG 0.18  C 
BRANCH 34 35
ATOM     35  CB  GLN B   4      17.920 -25.672   1.260  1.00 36.61 LIG 0.04  C 
BRANCH 35 36
ATOM     36  CG  GLN B   4      18.950 -26.223   0.289  1.00 50.94 LIG 0.10  C 
BRANCH 36 37
ATOM     37  CD  GLN B   4      20.056 -25.205   0.026  1.00 60.90 LIG 0.21  C 
ATOM     38  NE2 GLN B   4      20.947 -25.016   0.998  1.00 82.36 LIG-0.37  N 
ATOM     39 21HE GLN B   4      20.879 -25.453   1.735  1.00 82.36 LIG 0.16  HD
ATOM     40 22HE GLN B   4      21.591 -24.456   0.889  1.00 82.36 LIG 0.16  HD
ATOM     41 OE1  GLN B   4      20.107 -24.606  -1.045  1.00 55.22 LIG-0.27  OA
ENDBRANCH 36 37
ENDBRANCH 35 36
ENDBRANCH 34 35
BRANCH 34 42
ATOM     42  N   GLN B   4      18.729 -23.469   1.954  1.00 37.98 LIG-0.35  N 
ATOM     43  C   GLU B   3      18.668 -22.161   2.185  1.00 56.89 LIG 0.26  C 
ATOM     44 O    GLU B   3      17.815 -21.440   1.687  1.00 56.58 LIG-0.27  OA
ATOM     45 H    GLN B   4      19.350 -23.979   2.259  1.00 37.98 LIG 0.16  HD
BRANCH 43 46
ATOM     46  CA  GLU B   3      19.739 -21.586   3.109  1.00 80.09 LIG 0.40  C 
ATOM     47  N   GLU B   3      19.311 -20.308   3.660  1.00 75.44 LIG 0.61  N 
BRANCH 46 48
ATOM     48  CB  GLU B   3      20.038 -22.565   4.240  1.00107.85 LIG 0.06  C 
BRANCH 48 49
ATOM     49  CG  GLU B   3      21.495 -22.947   4.343  1.00114.95 LIG 0.12  C 
BRANCH 49 50
ATOM     50  CD  GLU B   3      22.310 -22.427   3.174  1.00 96.82 LIG 0.17  C 
ATOM     51 OE1  GLU B   3      22.180 -22.980   2.057  1.00 91.15 LIG-0.65  OA
ATOM     52 OE2  GLU B   3      23.074 -21.453   3.370  1.00 91.13 LIG-0.65  OA
ENDBRANCH 49 50
ENDBRANCH 48 49
ENDBRANCH 46 48
ENDBRANCH 43 46
ENDBRANCH 34 42
ENDBRANCH 32 34
ENDBRANCH 1 30
TORSDOF 21
ENDMDL
MODEL 20
USER: ADFR SOLUTION from run 183
USER: SCORE 15.920651 LL:  -3.476 LR: -13.877 RR:   0.000 FEB:  -7.613
USER: RMSD 12.487481
USER: SEED 182
USER: STATUS no improvement in best in 9 clusters for 5 generations
USER: GENES 23
USER: genes 0 Translation |==|  0.71609 0.52933 0.47611
USER: genes 1 Rotation |==|  0.36875 0.73541 0.07907 0.51320
USER: genes 2 Torsion [C]-CA--CB-[CG2] |==|  0.41427
USER: genes 3 Torsion [N]-CA--C-[N] |==|  0.35556
USER: genes 4 Torsion [C]-N--CA-[CB] |==|  0.45884
USER: genes 5 Torsion [N]-CA--C-[N] |==|  0.44836
USER: genes 6 Torsion [C]-N--CA-[CB] |==|  0.84515
USER: genes 7 Torsion [N]-CA--C-[N] |==|  0.44551
USER: genes 8 Torsion [C]-N--CA-[CB] |==|  0.86710
USER: genes 9 Torsion [N]-CA--C-[O] |==|  0.97344
USER: genes 10 Torsion [N]-CA--CB-[CG2] |==|  0.83994
USER: genes 11 Torsion [N]-CA--CB-[OG] |==|  0.19838
USER: genes 12 Torsion [CA]-CB--OG-[HG] |==|  0.92339
USER: genes 13 Torsion [CB]-CA--N-[C] |==|  0.87078
USER: genes 14 Torsion [N]-C--CA-[N] |==|  0.44489
USER: genes 15 Torsion [C]-CA--CB-[CG] |==|  0.86390
USER: genes 16 Torsion [CA]-CB--CG-[CD] |==|  0.73161
USER: genes 17 Torsion [CB]-CG--CD-[OE1] |==|  0.50309
USER: genes 18 Torsion [C]-CA--N-[C] |==|  0.62660
USER: genes 19 Torsion [N]-C--CA-[N] |==|  0.34893
USER: genes 20 Torsion [C]-CA--CB-[CG] |==|  0.07853
USER: genes 21 Torsion [CA]-CB--CG-[CD] |==|  0.16736
USER: genes 22 Torsion [CB]-CG--CD-[OE1] |==|  0.06715
ROOT
ATOM      1  CA  VAL B   5      18.676 -22.441   3.944  1.00 23.44 LIG 0.18  C 
ENDROOT
BRANCH 1 2
ATOM      2  CB  VAL B   5      18.792 -21.216   4.851  1.00 27.20 LIG 0.01  C 
ATOM      3  CG2 VAL B   5      19.521 -21.541   6.121  1.00 32.91 LIG 0.01  C 
ATOM      4  CG1 VAL B   5      17.437 -20.609   5.142  1.00 27.01 LIG 0.01  C 
ENDBRANCH 1 2
BRANCH 1 5
ATOM      5  C   VAL B   5      17.392 -22.359   3.125  1.00 21.98 LIG 0.24  C 
ATOM      6 O    VAL B   5      17.260 -21.468   2.291  1.00 26.26 LIG-0.27  OA
ATOM      7  N   SER B   6      16.425 -23.239   3.391  1.00 19.41 LIG-0.34  N 
ATOM      8 H    SER B   6      16.485 -23.825   4.017  1.00 19.41 LIG 0.16  HD
BRANCH 7 9
ATOM      9  CA  SER B   6      15.179 -23.303   2.660  1.00 20.84 LIG 0.20  C 
BRANCH 9 10
ATOM     10  C   SER B   6      14.244 -22.164   3.008  1.00 18.76 LIG 0.24  C 
ATOM     11 O    SER B   6      14.321 -21.565   4.064  1.00 19.89 LIG-0.27  OA
ATOM     12  N   ALA B   7      13.292 -21.946   2.132  1.00 19.53 LIG-0.35  N 
ATOM     13 H    ALA B   7      13.228 -22.393   1.400  1.00 19.53 LIG 0.16  HD
BRANCH 12 14
ATOM     14  CA  ALA B   7      12.244 -20.944   2.281  1.00 19.70 LIG 0.17  C 
ATOM     15  CB  ALA B   7      11.498 -21.177   3.606  1.00 20.39 LIG 0.04  C 
BRANCH 14 16
ATOM     16  C   ALA B   7      12.802 -19.532   2.310  1.00 16.34 LIG 0.24  C 
ATOM     17  N   VAL B   8      11.978 -18.536   2.045  1.00 16.85 LIG-0.34  N 
ATOM     18 H    VAL B   8      11.166 -18.637   1.781  1.00 16.85 LIG 0.16  HD
ATOM     19 O    ALA B   7      13.959 -19.349   2.629  1.00 20.16 LIG-0.27  OA
BRANCH 17 20
ATOM     20  CA  VAL B   8      12.405 -17.137   2.187  1.00 17.28 LIG 0.19  C 
BRANCH 20 21
ATOM     21  C   VAL B   8      13.302 -16.778   1.008  1.00 17.19 LIG 0.20  C 
ATOM     22 O    VAL B   8      13.696 -17.679   0.232  1.00 24.30 LIG-0.65  OA
ATOM     23 OXT  VAL B   8      13.691 -15.603   0.822  1.00 16.53 LIG-0.65  OA
ENDBRANCH 20 21
BRANCH 20 24
ATOM     24  CB  VAL B   8      13.126 -16.868   3.546  1.00 17.38 LIG 0.01  C 
ATOM     25  CG2 VAL B   8      12.198 -17.244   4.696  1.00 18.61 LIG 0.01  C 
ATOM     26  CG1 VAL B   8      13.607 -15.443   3.621  1.00 19.61 LIG 0.01  C 
ENDBRANCH 20 24
ENDBRANCH 17 20
ENDBRANCH 14 16
ENDBRANCH 12 14
ENDBRANCH 9 10
BRANCH 9 27
ATOM     27  CB  SER B   6      14.455 -24.612   2.945  1.00 25.59 LIG 0.20  C 
BRANCH 27 28
ATOM     28 OG   SER B   6      13.940 -24.615   4.258  1.00 27.26 LIG-0.40  OA
ATOM     29 HG   SER B   6      14.411 -24.119   4.746  1.00 27.26 LIG 0.21  HD
ENDBRANCH 27 28
ENDBRANCH 9 27
ENDBRANCH 7 9
ENDBRANCH 1 5
BRANCH 1 30
ATOM     30  N   VAL B   5      19.775 -22.491   3.008  1.00 22.92 LIG-0.35  N 
ATOM     31 H    VAL B   5      20.140 -23.268   2.950  1.00 22.92 LIG 0.16  HD
ATOM     32  C   GLN B   4      20.186 -21.448   2.304  1.00 24.29 LIG 0.24  C 
ATOM     33 O    GLN B   4      19.668 -20.349   2.329  1.00 26.90 LIG-0.27  OA
BRANCH 32 34
ATOM     34  CA  GLN B   4      21.396 -21.711   1.404  1.00 30.52 LIG 0.18  C 
BRANCH 34 35
ATOM     35  CB  GLN B   4      22.652 -21.693   2.273  1.00 36.61 LIG 0.04  C 
BRANCH 35 36
ATOM     36  CG  GLN B   4      22.737 -20.483   3.187  1.00 50.94 LIG 0.10  C 
BRANCH 36 37
ATOM     37  CD  GLN B   4      23.598 -19.386   2.567  1.00 60.90 LIG 0.21  C 
ATOM     38  NE2 GLN B   4      24.099 -19.623   1.356  1.00 82.36 LIG-0.37  N 
ATOM     39 21HE GLN B   4      23.938 -20.370   0.963  1.00 82.36 LIG 0.16  HD
ATOM     40 22HE GLN B   4      24.585 -19.028   0.967  1.00 82.36 LIG 0.16  HD
ATOM     41 OE1  GLN B   4      23.798 -18.337   3.174  1.00 55.22 LIG-0.27  OA
ENDBRANCH 36 37
ENDBRANCH 35 36
ENDBRANCH 34 35
BRANCH 34 42
ATOM     42  N   GLN B   4      21.484 -20.707   0.362  1.00 37.98 LIG-0.35  N 
ATOM     43  C   GLU B   3      21.718 -21.023  -0.907  1.00 56.89 LIG 0.26  C 
ATOM     44 O    GLU B   3      21.943 -22.168  -1.274  1.00 56.58 LIG-0.27  OA
ATOM     45 H    GLN B   4      21.372 -19.901   0.641  1.00 37.98 LIG 0.16  HD
BRANCH 43 46
ATOM     46  CA  GLU B   3      21.706 -19.868  -1.907  1.00 80.09 LIG 0.40  C 
ATOM     47  N   GLU B   3      22.946 -19.835  -2.670  1.00 75.44 LIG 0.61  N 
BRANCH 46 48
ATOM     48  CB  GLU B   3      20.518 -20.006  -2.853  1.00107.85 LIG 0.06  C 
BRANCH 48 49
ATOM     49  CG  GLU B   3      19.339 -20.730  -2.246  1.00114.95 LIG 0.12  C 
BRANCH 49 50
ATOM     50  CD  GLU B   3      18.801 -20.022  -1.018  1.00 96.82 LIG 0.17  C 
ATOM     51 OE1  GLU B   3      19.007 -18.791  -0.894  1.00 91.15 LIG-0.65  OA
ATOM     52 OE2  GLU B   3      18.157 -20.694  -0.179  1.00 91.13 LIG-0.65  OA
ENDBRANCH 49 50
ENDBRANCH 48 49
ENDBRANCH 46 48
ENDBRANCH 43 46
ENDBRANCH 34 42
ENDBRANCH 32 34
ENDBRANCH 1 30
TORSDOF 21
ENDMDL
MODEL 21
USER: ADFR SOLUTION from run 66
USER: SCORE 15.625843 LL:  -5.373 LR: -13.814 RR:   0.000 FEB:  -7.549
USER: RMSD 12.273183
USER: SEED 65
USER: STATUS no improvement in best in 6 clusters for 5 generations
USER: GENES 23
USER: genes 0 Translation |==|  0.74291 0.57178 0.55209
USER: genes 1 Rotation |==|  0.30580 0.59106 0.05263 0.56208
USER: genes 2 Torsion [C]-CA--CB-[CG2] |==|  0.14906
USER: genes 3 Torsion [N]-CA--C-[N] |==|  0.81368
USER: genes 4 Torsion [C]-N--CA-[CB] |==|  0.21110
USER: genes 5 Torsion [N]-CA--C-[N] |==|  0.55518
USER: genes 6 Torsion [C]-N--CA-[CB] |==|  0.40741
USER: genes 7 Torsion [N]-CA--C-[N] |==|  0.86216
USER: genes 8 Torsion [C]-N--CA-[CB] |==|  0.49306
USER: genes 9 Torsion [N]-CA--C-[O] |==|  0.32765
USER: genes 10 Torsion [N]-CA--CB-[CG2] |==|  0.06933
USER: genes 11 Torsion [N]-CA--CB-[OG] |==|  0.66073
USER: genes 12 Torsion [CA]-CB--OG-[HG] |==|  0.35811
USER: genes 13 Torsion [CB]-CA--N-[C] |==|  0.19574
USER: genes 14 Torsion [N]-C--CA-[N] |==|  0.03889
USER: genes 15 Torsion [C]-CA--CB-[CG] |==|  0.78478
USER: genes 16 Torsion [CA]-CB--CG-[CD] |==|  0.64510
USER: genes 17 Torsion [CB]-CG--CD-[OE1] |==|  0.79413
USER: genes 18 Torsion [C]-CA--N-[C] |==|  0.76496
USER: genes 19 Torsion [N]-C--CA-[N] |==|  0.74163
USER: genes 20 Torsion [C]-CA--CB-[CG] |==|  0.69794
USER: genes 21 Torsion [CA]-CB--CG-[CD] |==|  0.20361
USER: genes 22 Torsion [CB]-CG--CD-[OE1] |==|  0.77875
ROOT
ATOM      1  CA  VAL B   5      19.480 -21.709   5.255  1.00 23.44 LIG 0.18  C 
ENDROOT
BRANCH 1 2
ATOM      2  CB  VAL B   5      19.032 -20.264   5.481  1.00 27.20 LIG 0.01  C 
ATOM      3  CG2 VAL B   5      17.818 -20.199   6.359  1.00 32.91 LIG 0.01  C 
ATOM      4  CG1 VAL B   5      18.797 -19.543   4.172  1.00 27.01 LIG 0.01  C 
ENDBRANCH 1 2
BRANCH 1 5
ATOM      5  C   VAL B   5      18.313 -22.537   4.729  1.00 21.98 LIG 0.24  C 
ATOM      6 O    VAL B   5      18.032 -23.603   5.270  1.00 26.26 LIG-0.27  OA
ATOM      7  N   SER B   6      17.666 -22.090   3.650  1.00 19.41 LIG-0.34  N 
ATOM      8 H    SER B   6      17.898 -21.378   3.229  1.00 19.41 LIG 0.16  HD
BRANCH 7 9
ATOM      9  CA  SER B   6      16.515 -22.752   3.077  1.00 20.84 LIG 0.20  C 
BRANCH 9 10
ATOM     10  C   SER B   6      16.229 -22.295   1.663  1.00 18.76 LIG 0.24  C 
ATOM     11 O    SER B   6      17.046 -21.677   1.006  1.00 19.89 LIG-0.27  OA
ATOM     12  N   ALA B   7      15.007 -22.531   1.245  1.00 19.53 LIG-0.35  N 
ATOM     13 H    ALA B   7      14.427 -22.945   1.726  1.00 19.53 LIG 0.16  HD
BRANCH 12 14
ATOM     14  CA  ALA B   7      14.487 -22.131  -0.056  1.00 19.70 LIG 0.17  C 
ATOM     15  CB  ALA B   7      13.472 -23.180  -0.544  1.00 20.39 LIG 0.04  C 
BRANCH 14 16
ATOM     16  C   ALA B   7      13.774 -20.792  -0.002  1.00 16.34 LIG 0.24  C 
ATOM     17  N   VAL B   8      12.865 -20.612   0.938  1.00 16.85 LIG-0.34  N 
ATOM     18 H    VAL B   8      12.595 -21.229   1.472  1.00 16.85 LIG 0.16  HD
ATOM     19 O    ALA B   7      14.092 -19.910  -0.774  1.00 20.16 LIG-0.27  OA
BRANCH 17 20
ATOM     20  CA  VAL B   8      12.232 -19.303   1.142  1.00 17.28 LIG 0.19  C 
BRANCH 20 21
ATOM     21  C   VAL B   8      13.318 -18.279   1.455  1.00 17.19 LIG 0.20  C 
ATOM     22 O    VAL B   8      13.495 -17.308   0.685  1.00 24.30 LIG-0.65  OA
ATOM     23 OXT  VAL B   8      14.068 -18.411   2.449  1.00 16.53 LIG-0.65  OA
ENDBRANCH 20 21
BRANCH 20 24
ATOM     24  CB  VAL B   8      11.145 -19.332   2.262  1.00 17.38 LIG 0.01  C 
ATOM     25  CG2 VAL B   8      11.446 -20.471   3.231  1.00 18.61 LIG 0.01  C 
ATOM     26  CG1 VAL B   8       9.766 -19.417   1.666  1.00 19.61 LIG 0.01  C 
ENDBRANCH 20 24
ENDBRANCH 17 20
ENDBRANCH 14 16
ENDBRANCH 12 14
ENDBRANCH 9 10
BRANCH 9 27
ATOM     27  CB  SER B   6      15.272 -22.491   3.918  1.00 25.59 LIG 0.20  C 
BRANCH 27 28
ATOM     28 OG   SER B   6      14.708 -23.708   4.356  1.00 27.26 LIG-0.40  OA
ATOM     29 HG   SER B   6      14.585 -23.677   5.187  1.00 27.26 LIG 0.21  HD
ENDBRANCH 27 28
ENDBRANCH 9 27
ENDBRANCH 7 9
ENDBRANCH 1 5
BRANCH 1 30
ATOM     30  N   VAL B   5      20.526 -21.770   4.260  1.00 22.92 LIG-0.35  N 
ATOM     31 H    VAL B   5      20.272 -22.122   3.518  1.00 22.92 LIG 0.16  HD
ATOM     32  C   GLN B   4      21.758 -21.330   4.464  1.00 24.29 LIG 0.24  C 
ATOM     33 O    GLN B   4      22.140 -20.790   5.483  1.00 26.90 LIG-0.27  OA
BRANCH 32 34
ATOM     34  CA  GLN B   4      22.720 -21.533   3.291  1.00 30.52 LIG 0.18  C 
BRANCH 34 35
ATOM     35  CB  GLN B   4      23.512 -20.242   3.092  1.00 36.61 LIG 0.04  C 
BRANCH 35 36
ATOM     36  CG  GLN B   4      22.724 -19.152   2.385  1.00 50.94 LIG 0.10  C 
BRANCH 36 37
ATOM     37  CD  GLN B   4      23.496 -18.606   1.188  1.00 60.90 LIG 0.21  C 
ATOM     38  NE2 GLN B   4      23.068 -18.962  -0.022  1.00 82.36 LIG-0.37  N 
ATOM     39 21HE GLN B   4      22.389 -19.483  -0.102  1.00 82.36 LIG 0.16  HD
ATOM     40 22HE GLN B   4      23.471 -18.670  -0.724  1.00 82.36 LIG 0.16  HD
ATOM     41 OE1  GLN B   4      24.461 -17.864   1.357  1.00 55.22 LIG-0.27  OA
ENDBRANCH 36 37
ENDBRANCH 35 36
ENDBRANCH 34 35
BRANCH 34 42
ATOM     42  N   GLN B   4      21.989 -21.871   2.085  1.00 37.98 LIG-0.35  N 
ATOM     43  C   GLU B   3      21.624 -23.118   1.805  1.00 56.89 LIG 0.26  C 
ATOM     44 O    GLU B   3      21.935 -24.072   2.504  1.00 56.58 LIG-0.27  OA
ATOM     45 H    GLN B   4      21.818 -21.198   1.578  1.00 37.98 LIG 0.16  HD
BRANCH 43 46
ATOM     46  CA  GLU B   3      20.791 -23.313   0.540  1.00 80.09 LIG 0.40  C 
ATOM     47  N   GLU B   3      19.368 -23.277   0.849  1.00 75.44 LIG 0.61  N 
BRANCH 46 48
ATOM     48  CB  GLU B   3      21.127 -22.230  -0.481  1.00107.85 LIG 0.06  C 
BRANCH 48 49
ATOM     49  CG  GLU B   3      20.029 -21.211  -0.670  1.00114.95 LIG 0.12  C 
BRANCH 49 50
ATOM     50  CD  GLU B   3      19.918 -20.262   0.507  1.00 96.82 LIG 0.17  C 
ATOM     51 OE1  GLU B   3      19.319 -20.649   1.538  1.00 91.15 LIG-0.65  OA
ATOM     52 OE2  GLU B   3      20.443 -19.128   0.407  1.00 91.13 LIG-0.65  OA
ENDBRANCH 49 50
ENDBRANCH 48 49
ENDBRANCH 46 48
ENDBRANCH 43 46
ENDBRANCH 34 42
ENDBRANCH 32 34
ENDBRANCH 1 30
TORSDOF 21
ENDMDL
MODEL 22
USER: ADFR SOLUTION from run 57
USER: SCORE 15.378745 LL:  -4.254 LR: -13.808 RR:   0.000 FEB:  -7.543
USER: RMSD 1.963474
USER: SEED 56
USER: STATUS no improvement in best in 6 clusters for 5 generations
USER: GENES 23
USER: genes 0 Translation |==|  0.46279 0.43459 0.56829
USER: genes 1 Rotation |==|  0.46445 0.52370 0.48412 0.99792
USER: genes 2 Torsion [C]-CA--CB-[CG2] |==|  0.10503
USER: genes 3 Torsion [N]-CA--C-[N] |==|  0.40576
USER: genes 4 Torsion [C]-N--CA-[CB] |==|  0.21905
USER: genes 5 Torsion [N]-CA--C-[N] |==|  0.38584
USER: genes 6 Torsion [C]-N--CA-[CB] |==|  0.48490
USER: genes 7 Torsion [N]-CA--C-[N] |==|  0.40651
USER: genes 8 Torsion [C]-N--CA-[CB] |==|  0.26187
USER: genes 9 Torsion [N]-CA--C-[O] |==|  0.50507
USER: genes 10 Torsion [N]-CA--CB-[CG2] |==|  0.10166
USER: genes 11 Torsion [N]-CA--CB-[OG] |==|  0.85393
USER: genes 12 Torsion [CA]-CB--OG-[HG] |==|  0.20338
USER: genes 13 Torsion [CB]-CA--N-[C] |==|  0.24441
USER: genes 14 Torsion [N]-C--CA-[N] |==|  0.33941
USER: genes 15 Torsion [C]-CA--CB-[CG] |==|  0.46936
USER: genes 16 Torsion [CA]-CB--CG-[CD] |==|  0.68685
USER: genes 17 Torsion [CB]-CG--CD-[OE1] |==|  0.72410
USER: genes 18 Torsion [C]-CA--N-[C] |==|  0.73647
USER: genes 19 Torsion [N]-C--CA-[N] |==|  0.87526
USER: genes 20 Torsion [C]-CA--CB-[CG] |==|  0.61271
USER: genes 21 Torsion [CA]-CB--CG-[CD] |==|  0.23855
USER: genes 22 Torsion [CB]-CG--CD-[OE1] |==|  0.77185
ROOT
ATOM      1  CA  VAL B   5      11.077 -24.075   5.534  1.00 23.44 LIG 0.18  C 
ENDROOT
BRANCH 1 2
ATOM      2  CB  VAL B   5      10.866 -25.560   5.236  1.00 27.20 LIG 0.01  C 
ATOM      3  CG2 VAL B   5      12.026 -26.138   4.482  1.00 32.91 LIG 0.01  C 
ATOM      4  CG1 VAL B   5       9.565 -25.801   4.501  1.00 27.01 LIG 0.01  C 
ENDBRANCH 1 2
BRANCH 1 5
ATOM      5  C   VAL B   5      11.761 -23.402   4.350  1.00 21.98 LIG 0.24  C 
ATOM      6 O    VAL B   5      11.088 -23.018   3.397  1.00 26.26 LIG-0.27  OA
ATOM      7  N   SER B   6      13.092 -23.306   4.370  1.00 19.41 LIG-0.34  N 
ATOM      8 H    SER B   6      13.574 -23.630   5.003  1.00 19.41 LIG 0.16  HD
BRANCH 7 9
ATOM      9  CA  SER B   6      13.862 -22.651   3.336  1.00 20.84 LIG 0.20  C 
BRANCH 9 10
ATOM     10  C   SER B   6      15.314 -23.080   3.333  1.00 18.76 LIG 0.24  C 
ATOM     11 O    SER B   6      15.968 -23.150   4.358  1.00 19.89 LIG-0.27  OA
ATOM     12  N   ALA B   7      15.830 -23.271   2.143  1.00 19.53 LIG-0.35  N 
ATOM     13 H    ALA B   7      15.367 -23.193   1.422  1.00 19.53 LIG 0.16  HD
BRANCH 12 14
ATOM     14  CA  ALA B   7      17.219 -23.632   1.891  1.00 19.70 LIG 0.17  C 
ATOM     15  CB  ALA B   7      17.413 -23.901   0.388  1.00 20.39 LIG 0.04  C 
BRANCH 14 16
ATOM     16  C   ALA B   7      18.179 -22.525   2.288  1.00 16.34 LIG 0.24  C 
ATOM     17  N   VAL B   8      19.362 -22.871   2.759  1.00 16.85 LIG-0.34  N 
ATOM     18 H    VAL B   8      19.596 -23.680   2.930  1.00 16.85 LIG 0.16  HD
ATOM     19 O    ALA B   7      17.866 -21.365   2.110  1.00 20.16 LIG-0.27  OA
BRANCH 17 20
ATOM     20  CA  VAL B   8      20.395 -21.863   3.035  1.00 17.28 LIG 0.19  C 
BRANCH 20 21
ATOM     21  C   VAL B   8      21.753 -22.437   2.646  1.00 17.19 LIG 0.20  C 
ATOM     22 O    VAL B   8      22.789 -21.757   2.829  1.00 24.30 LIG-0.65  OA
ATOM     23 OXT  VAL B   8      21.853 -23.562   2.106  1.00 16.53 LIG-0.65  OA
ENDBRANCH 20 21
BRANCH 20 24
ATOM     24  CB  VAL B   8      20.388 -21.391   4.523  1.00 17.38 LIG 0.01  C 
ATOM     25  CG2 VAL B   8      20.059 -22.572   5.429  1.00 18.61 LIG 0.01  C 
ATOM     26  CG1 VAL B   8      19.451 -20.228   4.709  1.00 19.61 LIG 0.01  C 
ENDBRANCH 20 24
ENDBRANCH 17 20
ENDBRANCH 14 16
ENDBRANCH 12 14
ENDBRANCH 9 10
BRANCH 9 27
ATOM     27  CB  SER B   6      13.818 -21.138   3.509  1.00 25.59 LIG 0.20  C 
BRANCH 27 28
ATOM     28 OG   SER B   6      12.483 -20.692   3.606  1.00 27.26 LIG-0.40  OA
ATOM     29 HG   SER B   6      12.170 -20.904   4.356  1.00 27.26 LIG 0.21  HD
ENDBRANCH 27 28
ENDBRANCH 9 27
ENDBRANCH 7 9
ENDBRANCH 1 5
BRANCH 1 30
ATOM     30  N   VAL B   5       9.811 -23.407   5.729  1.00 22.92 LIG-0.35  N 
ATOM     31 H    VAL B   5       9.490 -23.066   5.008  1.00 22.92 LIG 0.16  HD
ATOM     32  C   GLN B   4       9.199 -23.325   6.901  1.00 24.29 LIG 0.24  C 
ATOM     33 O    GLN B   4       9.602 -23.831   7.929  1.00 26.90 LIG-0.27  OA
BRANCH 32 34
ATOM     34  CA  GLN B   4       7.889 -22.534   6.891  1.00 30.52 LIG 0.18  C 
BRANCH 34 35
ATOM     35  CB  GLN B   4       8.061 -21.310   7.790  1.00 36.61 LIG 0.04  C 
BRANCH 35 36
ATOM     36  CG  GLN B   4       6.931 -20.303   7.661  1.00 50.94 LIG 0.10  C 
BRANCH 36 37
ATOM     37  CD  GLN B   4       7.423 -19.005   7.028  1.00 60.90 LIG 0.21  C 
ATOM     38  NE2 GLN B   4       7.530 -18.982   5.700  1.00 82.36 LIG-0.37  N 
ATOM     39 21HE GLN B   4       7.333 -19.681   5.241  1.00 82.36 LIG 0.16  HD
ATOM     40 22HE GLN B   4       7.798 -18.268   5.302  1.00 82.36 LIG 0.16  HD
ATOM     41 OE1  GLN B   4       7.693 -18.034   7.731  1.00 55.22 LIG-0.27  OA
ENDBRANCH 36 37
ENDBRANCH 35 36
ENDBRANCH 34 35
BRANCH 34 42
ATOM     42  N   GLN B   4       6.792 -23.358   7.361  1.00 37.98 LIG-0.35  N 
ATOM     43  C   GLU B   3       6.001 -24.025   6.527  1.00 56.89 LIG 0.26  C 
ATOM     44 O    GLU B   3       6.096 -23.937   5.311  1.00 56.58 LIG-0.27  OA
ATOM     45 H    GLN B   4       6.706 -23.374   8.216  1.00 37.98 LIG 0.16  HD
BRANCH 43 46
ATOM     46  CA  GLU B   3       4.937 -24.915   7.168  1.00 80.09 LIG 0.40  C 
ATOM     47  N   GLU B   3       5.506 -25.690   8.262  1.00 75.44 LIG 0.61  N 
BRANCH 46 48
ATOM     48  CB  GLU B   3       3.781 -24.063   7.680  1.00107.85 LIG 0.06  C 
BRANCH 48 49
ATOM     49  CG  GLU B   3       3.244 -24.509   9.020  1.00114.95 LIG 0.12  C 
BRANCH 49 50
ATOM     50  CD  GLU B   3       4.018 -23.907  10.177  1.00 96.82 LIG 0.17  C 
ATOM     51 OE1  GLU B   3       5.093 -24.448  10.528  1.00 91.15 LIG-0.65  OA
ATOM     52 OE2  GLU B   3       3.556 -22.882  10.731  1.00 91.13 LIG-0.65  OA
ENDBRANCH 49 50
ENDBRANCH 48 49
ENDBRANCH 46 48
ENDBRANCH 43 46
ENDBRANCH 34 42
ENDBRANCH 32 34
ENDBRANCH 1 30
TORSDOF 21
ENDMDL
MODEL 23
USER: ADFR SOLUTION from run 71
USER: SCORE 15.845303 LL:  -4.528 LR: -13.761 RR:   0.000 FEB:  -7.496
USER: RMSD 8.249479
USER: SEED 70
USER: STATUS no improvement in best in 6 clusters for 5 generations
USER: GENES 23
USER: genes 0 Translation |==|  0.65430 0.42022 0.35449
USER: genes 1 Rotation |==|  0.74245 0.44957 0.50552 0.93433
USER: genes 2 Torsion [C]-CA--CB-[CG2] |==|  0.19807
USER: genes 3 Torsion [N]-CA--C-[N] |==|  0.40286
USER: genes 4 Torsion [C]-N--CA-[CB] |==|  0.49335
USER: genes 5 Torsion [N]-CA--C-[N] |==|  0.87892
USER: genes 6 Torsion [C]-N--CA-[CB] |==|  0.86159
USER: genes 7 Torsion [N]-CA--C-[N] |==|  0.87521
USER: genes 8 Torsion [C]-N--CA-[CB] |==|  0.30487
USER: genes 9 Torsion [N]-CA--C-[O] |==|  0.12619
USER: genes 10 Torsion [N]-CA--CB-[CG2] |==|  0.93732
USER: genes 11 Torsion [N]-CA--CB-[OG] |==|  0.12857
USER: genes 12 Torsion [CA]-CB--OG-[HG] |==|  0.81353
USER: genes 13 Torsion [CB]-CA--N-[C] |==|  0.50197
USER: genes 14 Torsion [N]-C--CA-[N] |==|  0.84499
USER: genes 15 Torsion [C]-CA--CB-[CG] |==|  0.29077
USER: genes 16 Torsion [CA]-CB--CG-[CD] |==|  0.68681
USER: genes 17 Torsion [CB]-CG--CD-[OE1] |==|  0.71994
USER: genes 18 Torsion [C]-CA--N-[C] |==|  0.82078
USER: genes 19 Torsion [N]-C--CA-[N] |==|  0.00138
USER: genes 20 Torsion [C]-CA--CB-[CG] |==|  0.48314
USER: genes 21 Torsion [CA]-CB--CG-[CD] |==|  0.88287
USER: genes 22 Torsion [CB]-CG--CD-[OE1] |==|  0.65730
ROOT
ATOM      1  CA  VAL B   5      16.822 -24.323   1.846  1.00 23.44 LIG 0.18  C 
ENDROOT
BRANCH 1 2
ATOM      2  CB  VAL B   5      16.998 -24.638   0.360  1.00 27.20 LIG 0.01  C 
ATOM      3  CG2 VAL B   5      18.382 -25.136   0.066  1.00 32.91 LIG 0.01  C 
ATOM      4  CG1 VAL B   5      16.653 -23.446  -0.506  1.00 27.01 LIG 0.01  C 
ENDBRANCH 1 2
BRANCH 1 5
ATOM      5  C   VAL B   5      17.609 -23.068   2.206  1.00 21.98 LIG 0.24  C 
ATOM      6 O    VAL B   5      17.120 -21.962   1.993  1.00 26.26 LIG-0.27  OA
ATOM      7  N   SER B   6      18.841 -23.223   2.695  1.00 19.41 LIG-0.34  N 
ATOM      8 H    SER B   6      19.214 -23.992   2.786  1.00 19.41 LIG 0.16  HD
BRANCH 7 9
ATOM      9  CA  SER B   6      19.677 -22.122   3.120  1.00 20.84 LIG 0.20  C 
BRANCH 9 10
ATOM     10  C   SER B   6      19.989 -21.162   1.992  1.00 18.76 LIG 0.24  C 
ATOM     11 O    SER B   6      19.862 -19.957   2.117  1.00 19.89 LIG-0.27  OA
ATOM     12  N   ALA B   7      20.306 -21.732   0.854  1.00 19.53 LIG-0.35  N 
ATOM     13 H    ALA B   7      20.366 -22.586   0.768  1.00 19.53 LIG 0.16  HD
BRANCH 12 14
ATOM     14  CA  ALA B   7      20.589 -21.013  -0.381  1.00 19.70 LIG 0.17  C 
ATOM     15  CB  ALA B   7      19.465 -19.997  -0.650  1.00 20.39 LIG 0.04  C 
BRANCH 14 16
ATOM     16  C   ALA B   7      21.897 -20.245  -0.310  1.00 16.34 LIG 0.24  C 
ATOM     17  N   VAL B   8      22.144 -19.544   0.780  1.00 16.85 LIG-0.34  N 
ATOM     18 H    VAL B   8      21.581 -19.430   1.420  1.00 16.85 LIG 0.16  HD
ATOM     19 O    ALA B   7      22.698 -20.338  -1.218  1.00 20.16 LIG-0.27  OA
BRANCH 17 20
ATOM     20  CA  VAL B   8      23.442 -18.887   0.983  1.00 17.28 LIG 0.19  C 
BRANCH 20 21
ATOM     21  C   VAL B   8      24.003 -19.319   2.333  1.00 17.19 LIG 0.20  C 
ATOM     22 O    VAL B   8      23.970 -20.527   2.660  1.00 24.30 LIG-0.65  OA
ATOM     23 OXT  VAL B   8      24.460 -18.482   3.145  1.00 16.53 LIG-0.65  OA
ENDBRANCH 20 21
BRANCH 20 24
ATOM     24  CB  VAL B   8      23.347 -17.332   0.884  1.00 17.38 LIG 0.01  C 
ATOM     25  CG2 VAL B   8      22.111 -16.949   0.077  1.00 18.61 LIG 0.01  C 
ATOM     26  CG1 VAL B   8      24.618 -16.753   0.322  1.00 19.61 LIG 0.01  C 
ENDBRANCH 20 24
ENDBRANCH 17 20
ENDBRANCH 14 16
ENDBRANCH 12 14
ENDBRANCH 9 10
BRANCH 9 27
ATOM     27  CB  SER B   6      20.997 -22.635   3.681  1.00 25.59 LIG 0.20  C 
BRANCH 27 28
ATOM     28 OG   SER B   6      21.546 -23.618   2.831  1.00 27.26 LIG-0.40  OA
ATOM     29 HG   SER B   6      21.057 -24.301   2.839  1.00 27.26 LIG 0.21  HD
ENDBRANCH 27 28
ENDBRANCH 9 27
ENDBRANCH 7 9
ENDBRANCH 1 5
BRANCH 1 30
ATOM     30  N   VAL B   5      15.435 -24.058   2.152  1.00 22.92 LIG-0.35  N 
ATOM     31 H    VAL B   5      14.916 -24.123   1.470  1.00 22.92 LIG 0.16  HD
ATOM     32  C   GLN B   4      14.999 -23.744   3.362  1.00 24.29 LIG 0.24  C 
ATOM     33 O    GLN B   4      15.697 -23.685   4.355  1.00 26.90 LIG-0.27  OA
BRANCH 32 34
ATOM     34  CA  GLN B   4      13.498 -23.460   3.455  1.00 30.52 LIG 0.18  C 
BRANCH 34 35
ATOM     35  CB  GLN B   4      12.746 -24.752   3.142  1.00 36.61 LIG 0.04  C 
BRANCH 35 36
ATOM     36  CG  GLN B   4      12.160 -25.423   4.373  1.00 50.94 LIG 0.10  C 
BRANCH 36 37
ATOM     37  CD  GLN B   4      12.855 -26.751   4.657  1.00 60.90 LIG 0.21  C 
ATOM     38  NE2 GLN B   4      14.035 -26.697   5.272  1.00 82.36 LIG-0.37  N 
ATOM     39 21HE GLN B   4      14.375 -25.936   5.484  1.00 82.36 LIG 0.16  HD
ATOM     40 22HE GLN B   4      14.458 -27.424   5.457  1.00 82.36 LIG 0.16  HD
ATOM     41 OE1  GLN B   4      12.325 -27.811   4.332  1.00 55.22 LIG-0.27  OA
ENDBRANCH 36 37
ENDBRANCH 35 36
ENDBRANCH 34 35
BRANCH 34 42
ATOM     42  N   GLN B   4      13.119 -22.414   2.526  1.00 37.98 LIG-0.35  N 
ATOM     43  C   GLU B   3      13.570 -21.168   2.639  1.00 56.89 LIG 0.26  C 
ATOM     44 O    GLU B   3      14.276 -20.802   3.569  1.00 56.58 LIG-0.27  OA
ATOM     45 H    GLN B   4      12.583 -22.672   1.905  1.00 37.98 LIG 0.16  HD
BRANCH 43 46
ATOM     46  CA  GLU B   3      13.148 -20.192   1.543  1.00 80.09 LIG 0.40  C 
ATOM     47  N   GLU B   3      12.295 -20.853   0.566  1.00 75.44 LIG 0.61  N 
BRANCH 46 48
ATOM     48  CB  GLU B   3      12.414 -19.003   2.155  1.00107.85 LIG 0.06  C 
BRANCH 48 49
ATOM     49  CG  GLU B   3      12.086 -17.915   1.160  1.00114.95 LIG 0.12  C 
BRANCH 49 50
ATOM     50  CD  GLU B   3      13.236 -17.641   0.209  1.00 96.82 LIG 0.17  C 
ATOM     51 OE1  GLU B   3      13.693 -16.476   0.138  1.00 91.15 LIG-0.65  OA
ATOM     52 OE2  GLU B   3      13.693 -18.597  -0.460  1.00 91.13 LIG-0.65  OA
ENDBRANCH 49 50
ENDBRANCH 48 49
ENDBRANCH 46 48
ENDBRANCH 43 46
ENDBRANCH 34 42
ENDBRANCH 32 34
ENDBRANCH 1 30
TORSDOF 21
ENDMDL
MODEL 24
USER: ADFR SOLUTION from run 94
USER: SCORE 16.382803 LL:  -4.949 LR: -13.750 RR:   0.000 FEB:  -7.485
USER: RMSD 12.451429
USER: SEED 93
USER: STATUS searching
USER: GENES 23
USER: genes 0 Translation |==|  0.58626 0.51121 0.48812
USER: genes 1 Rotation |==|  0.39644 0.41885 0.01928 0.53994
USER: genes 2 Torsion [C]-CA--CB-[CG2] |==|  0.15284
USER: genes 3 Torsion [N]-CA--C-[N] |==|  0.41837
USER: genes 4 Torsion [C]-N--CA-[CB] |==|  0.19443
USER: genes 5 Torsion [N]-CA--C-[N] |==|  0.95061
USER: genes 6 Torsion [C]-N--CA-[CB] |==|  0.87722
USER: genes 7 Torsion [N]-CA--C-[N] |==|  0.82222
USER: genes 8 Torsion [C]-N--CA-[CB] |==|  0.24240
USER: genes 9 Torsion [N]-CA--C-[O] |==|  0.91936
USER: genes 10 Torsion [N]-CA--CB-[CG2] |==|  0.49315
USER: genes 11 Torsion [N]-CA--CB-[OG] |==|  0.74867
USER: genes 12 Torsion [CA]-CB--OG-[HG] |==|  0.11277
USER: genes 13 Torsion [CB]-CA--N-[C] |==|  0.19794
USER: genes 14 Torsion [N]-C--CA-[N] |==|  0.14415
USER: genes 15 Torsion [C]-CA--CB-[CG] |==|  0.41535
USER: genes 16 Torsion [CA]-CB--CG-[CD] |==|  0.26091
USER: genes 17 Torsion [CB]-CG--CD-[OE1] |==|  0.27065
USER: genes 18 Torsion [C]-CA--N-[C] |==|  0.13515
USER: genes 19 Torsion [N]-C--CA-[N] |==|  0.46719
USER: genes 20 Torsion [C]-CA--CB-[CG] |==|  0.91390
USER: genes 21 Torsion [CA]-CB--CG-[CD] |==|  0.86009
USER: genes 22 Torsion [CB]-CG--CD-[OE1] |==|  0.88135
ROOT
ATOM      1  CA  VAL B   5      14.781 -22.754   4.151  1.00 23.44 LIG 0.18  C 
ENDROOT
BRANCH 1 2
ATOM      2  CB  VAL B   5      14.341 -21.584   3.269  1.00 27.20 LIG 0.01  C 
ATOM      3  CG2 VAL B   5      12.874 -21.311   3.413  1.00 32.91 LIG 0.01  C 
ATOM      4  CG1 VAL B   5      14.714 -21.810   1.820  1.00 27.01 LIG 0.01  C 
ENDBRANCH 1 2
BRANCH 1 5
ATOM      5  C   VAL B   5      13.933 -23.982   3.842  1.00 21.98 LIG 0.24  C 
ATOM      6 O    VAL B   5      14.281 -24.752   2.951  1.00 26.26 LIG-0.27  OA
ATOM      7  N   SER B   6      12.799 -24.146   4.525  1.00 19.41 LIG-0.34  N 
ATOM      8 H    SER B   6      12.516 -23.578   5.105  1.00 19.41 LIG 0.16  HD
BRANCH 7 9
ATOM      9  CA  SER B   6      11.926 -25.288   4.365  1.00 20.84 LIG 0.20  C 
BRANCH 9 10
ATOM     10  C   SER B   6      10.592 -25.100   5.054  1.00 18.76 LIG 0.24  C 
ATOM     11 O    SER B   6       9.600 -25.724   4.723  1.00 19.89 LIG-0.27  OA
ATOM     12  N   ALA B   7      10.568 -24.150   5.959  1.00 19.53 LIG-0.35  N 
ATOM     13 H    ALA B   7      11.267 -23.695   6.168  1.00 19.53 LIG 0.16  HD
BRANCH 12 14
ATOM     14  CA  ALA B   7       9.384 -23.751   6.708  1.00 19.70 LIG 0.17  C 
ATOM     15  CB  ALA B   7       8.182 -23.653   5.752  1.00 20.39 LIG 0.04  C 
BRANCH 14 16
ATOM     16  C   ALA B   7       9.027 -24.753   7.792  1.00 16.34 LIG 0.24  C 
ATOM     17  N   VAL B   8       8.676 -25.969   7.420  1.00 16.85 LIG-0.34  N 
ATOM     18 H    VAL B   8       8.561 -26.210   6.602  1.00 16.85 LIG 0.16  HD
ATOM     19 O    ALA B   7       9.128 -24.436   8.960  1.00 20.16 LIG-0.27  OA
BRANCH 17 20
ATOM     20  CA  VAL B   8       8.450 -27.031   8.409  1.00 17.28 LIG 0.19  C 
BRANCH 20 21
ATOM     21  C   VAL B   8       8.818 -28.371   7.780  1.00 17.19 LIG 0.20  C 
ATOM     22 O    VAL B   8       8.703 -28.527   6.543  1.00 24.30 LIG-0.65  OA
ATOM     23 OXT  VAL B   8       9.193 -29.337   8.482  1.00 16.53 LIG-0.65  OA
ENDBRANCH 20 21
BRANCH 20 24
ATOM     24  CB  VAL B   8       6.985 -27.045   8.948  1.00 17.38 LIG 0.01  C 
ATOM     25  CG2 VAL B   8       6.812 -28.208   9.919  1.00 18.61 LIG 0.01  C 
ATOM     26  CG1 VAL B   8       5.998 -27.077   7.811  1.00 19.61 LIG 0.01  C 
ENDBRANCH 20 24
ENDBRANCH 17 20
ENDBRANCH 14 16
ENDBRANCH 12 14
ENDBRANCH 9 10
BRANCH 9 27
ATOM     27  CB  SER B   6      12.576 -26.544   4.931  1.00 25.59 LIG 0.20  C 
BRANCH 27 28
ATOM     28 OG   SER B   6      13.321 -27.207   3.933  1.00 27.26 LIG-0.40  OA
ATOM     29 HG   SER B   6      13.731 -26.640   3.466  1.00 27.26 LIG 0.21  HD
ENDBRANCH 27 28
ENDBRANCH 9 27
ENDBRANCH 7 9
ENDBRANCH 1 5
BRANCH 1 30
ATOM     30  N   VAL B   5      16.156 -23.108   3.884  1.00 22.92 LIG-0.35  N 
ATOM     31 H    VAL B   5      16.242 -23.856   3.470  1.00 22.92 LIG 0.16  HD
ATOM     32  C   GLN B   4      17.188 -22.358   4.240  1.00 24.29 LIG 0.24  C 
ATOM     33 O    GLN B   4      17.102 -21.277   4.787  1.00 26.90 LIG-0.27  OA
BRANCH 32 34
ATOM     34  CA  GLN B   4      18.560 -22.943   3.898  1.00 30.52 LIG 0.18  C 
BRANCH 34 35
ATOM     35  CB  GLN B   4      19.622 -21.890   4.213  1.00 36.61 LIG 0.04  C 
BRANCH 35 36
ATOM     36  CG  GLN B   4      20.956 -22.485   4.630  1.00 50.94 LIG 0.10  C 
BRANCH 36 37
ATOM     37  CD  GLN B   4      21.893 -22.625   3.434  1.00 60.90 LIG 0.21  C 
ATOM     38  NE2 GLN B   4      21.730 -23.697   2.661  1.00 82.36 LIG-0.37  N 
ATOM     39 21HE GLN B   4      21.123 -24.276   2.850  1.00 82.36 LIG 0.16  HD
ATOM     40 22HE GLN B   4      22.233 -23.811   1.972  1.00 82.36 LIG 0.16  HD
ATOM     41 OE1  GLN B   4      22.744 -21.768   3.208  1.00 55.22 LIG-0.27  OA
ENDBRANCH 36 37
ENDBRANCH 35 36
ENDBRANCH 34 35
BRANCH 34 42
ATOM     42  N   GLN B   4      18.619 -23.321   2.500  1.00 37.98 LIG-0.35  N 
ATOM     43  C   GLU B   3      18.227 -22.504   1.528  1.00 56.89 LIG 0.26  C 
ATOM     44 O    GLU B   3      17.728 -21.408   1.745  1.00 56.58 LIG-0.27  OA
ATOM     45 H    GLN B   4      18.926 -24.112   2.362  1.00 37.98 LIG 0.16  HD
BRANCH 43 46
ATOM     46  CA  GLU B   3      18.420 -23.007   0.099  1.00 80.09 LIG 0.40  C 
ATOM     47  N   GLU B   3      17.708 -22.158  -0.846  1.00 75.44 LIG 0.61  N 
BRANCH 46 48
ATOM     48  CB  GLU B   3      19.904 -23.041  -0.249  1.00107.85 LIG 0.06  C 
BRANCH 48 49
ATOM     49  CG  GLU B   3      20.717 -21.980   0.453  1.00114.95 LIG 0.12  C 
BRANCH 49 50
ATOM     50  CD  GLU B   3      20.110 -20.598   0.304  1.00 96.82 LIG 0.17  C 
ATOM     51 OE1  GLU B   3      19.663 -20.255  -0.816  1.00 91.15 LIG-0.65  OA
ATOM     52 OE2  GLU B   3      20.065 -19.857   1.313  1.00 91.13 LIG-0.65  OA
ENDBRANCH 49 50
ENDBRANCH 48 49
ENDBRANCH 46 48
ENDBRANCH 43 46
ENDBRANCH 34 42
ENDBRANCH 32 34
ENDBRANCH 1 30
TORSDOF 21
ENDMDL
MODEL 25
USER: ADFR SOLUTION from run 97
USER: SCORE 15.506863 LL:  -4.149 LR: -13.668 RR:   0.000 FEB:  -7.404
USER: RMSD 11.923717
USER: SEED 96
USER: STATUS no improvement in best in 9 clusters for 5 generations
USER: GENES 23
USER: genes 0 Translation |==|  0.56009 0.55674 0.45742
USER: genes 1 Rotation |==|  0.57962 0.62449 0.97694 0.52624
USER: genes 2 Torsion [C]-CA--CB-[CG2] |==|  0.18378
USER: genes 3 Torsion [N]-CA--C-[N] |==|  0.16656
USER: genes 4 Torsion [C]-N--CA-[CB] |==|  0.40419
USER: genes 5 Torsion [N]-CA--C-[N] |==|  0.91687
USER: genes 6 Torsion [C]-N--CA-[CB] |==|  0.87496
USER: genes 7 Torsion [N]-CA--C-[N] |==|  0.84749
USER: genes 8 Torsion [C]-N--CA-[CB] |==|  0.24746
USER: genes 9 Torsion [N]-CA--C-[O] |==|  0.43036
USER: genes 10 Torsion [N]-CA--CB-[CG2] |==|  0.60026
USER: genes 11 Torsion [N]-CA--CB-[OG] |==|  0.93410
USER: genes 12 Torsion [CA]-CB--OG-[HG] |==|  0.13082
USER: genes 13 Torsion [CB]-CA--N-[C] |==|  0.16423
USER: genes 14 Torsion [N]-C--CA-[N] |==|  0.17431
USER: genes 15 Torsion [C]-CA--CB-[CG] |==|  0.22800
USER: genes 16 Torsion [CA]-CB--CG-[CD] |==|  0.71185
USER: genes 17 Torsion [CB]-CG--CD-[OE1] |==|  0.35187
USER: genes 18 Torsion [C]-CA--N-[C] |==|  0.13383
USER: genes 19 Torsion [N]-C--CA-[N] |==|  0.40553
USER: genes 20 Torsion [C]-CA--CB-[CG] |==|  0.16195
USER: genes 21 Torsion [CA]-CB--CG-[CD] |==|  0.70196
USER: genes 22 Torsion [CB]-CG--CD-[OE1] |==|  0.57204
ROOT
ATOM      1  CA  VAL B   5      13.996 -21.968   3.622  1.00 23.44 LIG 0.18  C 
ENDROOT
BRANCH 1 2
ATOM      2  CB  VAL B   5      13.929 -20.971   2.464  1.00 27.20 LIG 0.01  C 
ATOM      3  CG2 VAL B   5      12.636 -20.211   2.470  1.00 32.91 LIG 0.01  C 
ATOM      4  CG1 VAL B   5      14.155 -21.650   1.131  1.00 27.01 LIG 0.01  C 
ENDBRANCH 1 2
BRANCH 1 5
ATOM      5  C   VAL B   5      12.948 -23.058   3.427  1.00 21.98 LIG 0.24  C 
ATOM      6 O    VAL B   5      12.186 -23.004   2.466  1.00 26.26 LIG-0.27  OA
ATOM      7  N   SER B   6      12.863 -24.015   4.354  1.00 19.41 LIG-0.34  N 
ATOM      8 H    SER B   6      13.350 -24.024   5.062  1.00 19.41 LIG 0.16  HD
BRANCH 7 9
ATOM      9  CA  SER B   6      11.947 -25.131   4.269  1.00 20.84 LIG 0.20  C 
BRANCH 9 10
ATOM     10  C   SER B   6      10.641 -24.866   4.986  1.00 18.76 LIG 0.24  C 
ATOM     11 O    SER B   6       9.580 -25.300   4.576  1.00 19.89 LIG-0.27  OA
ATOM     12  N   ALA B   7      10.732 -24.058   6.015  1.00 19.53 LIG-0.35  N 
ATOM     13 H    ALA B   7      11.483 -23.734   6.282  1.00 19.53 LIG 0.16  HD
BRANCH 12 14
ATOM     14  CA  ALA B   7       9.602 -23.614   6.821  1.00 19.70 LIG 0.17  C 
ATOM     15  CB  ALA B   7       8.443 -23.205   5.895  1.00 20.39 LIG 0.04  C 
BRANCH 14 16
ATOM     16  C   ALA B   7       9.089 -24.708   7.742  1.00 16.34 LIG 0.24  C 
ATOM     17  N   VAL B   8       8.750 -25.863   7.201  1.00 16.85 LIG-0.34  N 
ATOM     18 H    VAL B   8       8.725 -26.011   6.355  1.00 16.85 LIG 0.16  HD
ATOM     19 O    ALA B   7       9.060 -24.519   8.941  1.00 20.16 LIG-0.27  OA
BRANCH 17 20
ATOM     20  CA  VAL B   8       8.377 -27.012   8.037  1.00 17.28 LIG 0.19  C 
BRANCH 20 21
ATOM     21  C   VAL B   8       8.818 -28.291   7.333  1.00 17.19 LIG 0.20  C 
ATOM     22 O    VAL B   8       9.045 -29.322   8.006  1.00 24.30 LIG-0.65  OA
ATOM     23 OXT  VAL B   8       9.001 -28.321   6.095  1.00 16.53 LIG-0.65  OA
ENDBRANCH 20 21
BRANCH 20 24
ATOM     24  CB  VAL B   8       6.850 -27.046   8.361  1.00 17.38 LIG 0.01  C 
ATOM     25  CG2 VAL B   8       6.644 -27.569   9.778  1.00 18.61 LIG 0.01  C 
ATOM     26  CG1 VAL B   8       6.101 -27.842   7.326  1.00 19.61 LIG 0.01  C 
ENDBRANCH 20 24
ENDBRANCH 17 20
ENDBRANCH 14 16
ENDBRANCH 12 14
ENDBRANCH 9 10
BRANCH 9 27
ATOM     27  CB  SER B   6      12.570 -26.384   4.871  1.00 25.59 LIG 0.20  C 
BRANCH 27 28
ATOM     28 OG   SER B   6      13.978 -26.295   4.847  1.00 27.26 LIG-0.40  OA
ATOM     29 HG   SER B   6      14.217 -25.543   5.136  1.00 27.26 LIG 0.21  HD
ENDBRANCH 27 28
ENDBRANCH 9 27
ENDBRANCH 7 9
ENDBRANCH 1 5
BRANCH 1 30
ATOM     30  N   VAL B   5      15.285 -22.620   3.662  1.00 22.92 LIG-0.35  N 
ATOM     31 H    VAL B   5      15.238 -23.475   3.588  1.00 22.92 LIG 0.16  HD
ATOM     32  C   GLN B   4      16.430 -21.970   3.799  1.00 24.29 LIG 0.24  C 
ATOM     33 O    GLN B   4      16.537 -20.762   3.864  1.00 26.90 LIG-0.27  OA
BRANCH 32 34
ATOM     34  CA  GLN B   4      17.674 -22.859   3.862  1.00 30.52 LIG 0.18  C 
BRANCH 34 35
ATOM     35  CB  GLN B   4      18.888 -21.968   4.119  1.00 36.61 LIG 0.04  C 
BRANCH 35 36
ATOM     36  CG  GLN B   4      19.076 -21.613   5.585  1.00 50.94 LIG 0.10  C 
BRANCH 36 37
ATOM     37  CD  GLN B   4      18.630 -20.181   5.864  1.00 60.90 LIG 0.21  C 
ATOM     38  NE2 GLN B   4      19.151 -19.225   5.097  1.00 82.36 LIG-0.37  N 
ATOM     39 21HE GLN B   4      19.717 -19.427   4.483  1.00 82.36 LIG 0.16  HD
ATOM     40 22HE GLN B   4      18.921 -18.404   5.217  1.00 82.36 LIG 0.16  HD
ATOM     41 OE1  GLN B   4      17.818 -19.947   6.756  1.00 55.22 LIG-0.27  OA
ENDBRANCH 36 37
ENDBRANCH 35 36
ENDBRANCH 34 35
BRANCH 34 42
ATOM     42  N   GLN B   4      17.838 -23.595   2.623  1.00 37.98 LIG-0.35  N 
ATOM     43  C   GLU B   3      17.761 -23.005   1.434  1.00 56.89 LIG 0.26  C 
ATOM     44 O    GLU B   3      17.481 -21.822   1.299  1.00 56.58 LIG-0.27  OA
ATOM     45 H    GLN B   4      17.987 -24.435   2.730  1.00 37.98 LIG 0.16  HD
BRANCH 43 46
ATOM     46  CA  GLU B   3      18.032 -23.890   0.219  1.00 80.09 LIG 0.40  C 
ATOM     47  N   GLU B   3      17.210 -23.479  -0.910  1.00 75.44 LIG 0.61  N 
BRANCH 46 48
ATOM     48  CB  GLU B   3      19.508 -23.823  -0.160  1.00107.85 LIG 0.06  C 
BRANCH 48 49
ATOM     49  CG  GLU B   3      20.440 -24.244   0.951  1.00114.95 LIG 0.12  C 
BRANCH 49 50
ATOM     50  CD  GLU B   3      21.176 -23.067   1.561  1.00 96.82 LIG 0.17  C 
ATOM     51 OE1  GLU B   3      22.287 -23.269   2.106  1.00 91.15 LIG-0.65  OA
ATOM     52 OE2  GLU B   3      20.650 -21.932   1.483  1.00 91.13 LIG-0.65  OA
ENDBRANCH 49 50
ENDBRANCH 48 49
ENDBRANCH 46 48
ENDBRANCH 43 46
ENDBRANCH 34 42
ENDBRANCH 32 34
ENDBRANCH 1 30
TORSDOF 21
ENDMDL
MODEL 26
USER: ADFR SOLUTION from run 79
USER: SCORE 16.614994 LL:  -4.459 LR: -13.656 RR:   0.000 FEB:  -7.391
USER: RMSD 11.923325
USER: SEED 78
USER: STATUS searching
USER: GENES 23
USER: genes 0 Translation |==|  0.68666 0.50296 0.48397
USER: genes 1 Rotation |==|  0.74882 0.31492 0.89178 0.51844
USER: genes 2 Torsion [C]-CA--CB-[CG2] |==|  0.68718
USER: genes 3 Torsion [N]-CA--C-[N] |==|  0.05616
USER: genes 4 Torsion [C]-N--CA-[CB] |==|  0.81301
USER: genes 5 Torsion [N]-CA--C-[N] |==|  0.36833
USER: genes 6 Torsion [C]-N--CA-[CB] |==|  0.83631
USER: genes 7 Torsion [N]-CA--C-[N] |==|  0.49160
USER: genes 8 Torsion [C]-N--CA-[CB] |==|  0.84540
USER: genes 9 Torsion [N]-CA--C-[O] |==|  0.95172
USER: genes 10 Torsion [N]-CA--CB-[CG2] |==|  0.88501
USER: genes 11 Torsion [N]-CA--CB-[OG] |==|  0.33701
USER: genes 12 Torsion [CA]-CB--OG-[HG] |==|  0.78557
USER: genes 13 Torsion [CB]-CA--N-[C] |==|  0.80213
USER: genes 14 Torsion [N]-C--CA-[N] |==|  0.85617
USER: genes 15 Torsion [C]-CA--CB-[CG] |==|  0.81507
USER: genes 16 Torsion [CA]-CB--CG-[CD] |==|  0.72586
USER: genes 17 Torsion [CB]-CG--CD-[OE1] |==|  0.83471
USER: genes 18 Torsion [C]-CA--N-[C] |==|  0.81937
USER: genes 19 Torsion [N]-C--CA-[N] |==|  0.32356
USER: genes 20 Torsion [C]-CA--CB-[CG] |==|  0.28499
USER: genes 21 Torsion [CA]-CB--CG-[CD] |==|  0.93188
USER: genes 22 Torsion [CB]-CG--CD-[OE1] |==|  0.19260
ROOT
ATOM      1  CA  VAL B   5      17.793 -22.896   4.079  1.00 23.44 LIG 0.18  C 
ENDROOT
BRANCH 1 2
ATOM      2  CB  VAL B   5      18.053 -21.512   4.676  1.00 27.20 LIG 0.01  C 
ATOM      3  CG2 VAL B   5      18.681 -20.592   3.672  1.00 32.91 LIG 0.01  C 
ATOM      4  CG1 VAL B   5      18.890 -21.597   5.934  1.00 27.01 LIG 0.01  C 
ENDBRANCH 1 2
BRANCH 1 5
ATOM      5  C   VAL B   5      16.292 -23.138   3.968  1.00 21.98 LIG 0.24  C 
ATOM      6 O    VAL B   5      15.552 -22.803   4.890  1.00 26.26 LIG-0.27  OA
ATOM      7  N   SER B   6      15.840 -23.765   2.881  1.00 19.41 LIG-0.34  N 
ATOM      8 H    SER B   6      16.358 -24.060   2.262  1.00 19.41 LIG 0.16  HD
BRANCH 7 9
ATOM      9  CA  SER B   6      14.438 -24.016   2.627  1.00 20.84 LIG 0.20  C 
BRANCH 9 10
ATOM     10  C   SER B   6      13.600 -22.758   2.703  1.00 18.76 LIG 0.24  C 
ATOM     11 O    SER B   6      13.640 -22.013   3.665  1.00 19.89 LIG-0.27  OA
ATOM     12  N   ALA B   7      12.765 -22.592   1.705  1.00 19.53 LIG-0.35  N 
ATOM     13 H    ALA B   7      12.724 -23.138   1.042  1.00 19.53 LIG 0.16  HD
BRANCH 12 14
ATOM     14  CA  ALA B   7      11.820 -21.488   1.592  1.00 19.70 LIG 0.17  C 
ATOM     15  CB  ALA B   7      10.878 -21.495   2.809  1.00 20.39 LIG 0.04  C 
BRANCH 14 16
ATOM     16  C   ALA B   7      12.517 -20.139   1.558  1.00 16.34 LIG 0.24  C 
ATOM     17  N   VAL B   8      11.771 -19.062   1.396  1.00 16.85 LIG-0.34  N 
ATOM     18 H    VAL B   8      10.928 -19.078   1.231  1.00 16.85 LIG 0.16  HD
ATOM     19 O    ALA B   7      13.716 -20.077   1.736  1.00 20.16 LIG-0.27  OA
BRANCH 17 20
ATOM     20  CA  VAL B   8      12.351 -17.715   1.489  1.00 17.28 LIG 0.19  C 
BRANCH 20 21
ATOM     21  C   VAL B   8      13.289 -17.504   0.306  1.00 17.19 LIG 0.20  C 
ATOM     22 O    VAL B   8      13.701 -18.493  -0.343  1.00 24.30 LIG-0.65  OA
ATOM     23 OXT  VAL B   8      13.693 -16.362  -0.007  1.00 16.53 LIG-0.65  OA
ENDBRANCH 20 21
BRANCH 20 24
ATOM     24  CB  VAL B   8      13.089 -17.475   2.843  1.00 17.38 LIG 0.01  C 
ATOM     25  CG2 VAL B   8      12.272 -18.076   3.981  1.00 18.61 LIG 0.01  C 
ATOM     26  CG1 VAL B   8      13.382 -16.011   3.040  1.00 19.61 LIG 0.01  C 
ENDBRANCH 20 24
ENDBRANCH 17 20
ENDBRANCH 14 16
ENDBRANCH 12 14
ENDBRANCH 9 10
BRANCH 9 27
ATOM     27  CB  SER B   6      13.881 -25.016   3.633  1.00 25.59 LIG 0.20  C 
BRANCH 27 28
ATOM     28 OG   SER B   6      12.807 -24.448   4.349  1.00 27.26 LIG-0.40  OA
ATOM     29 HG   SER B   6      13.105 -23.924   4.934  1.00 27.26 LIG 0.21  HD
ENDBRANCH 27 28
ENDBRANCH 9 27
ENDBRANCH 7 9
ENDBRANCH 1 5
BRANCH 1 30
ATOM     30  N   VAL B   5      18.338 -22.989   2.745  1.00 22.92 LIG-0.35  N 
ATOM     31 H    VAL B   5      19.033 -23.494   2.694  1.00 22.92 LIG 0.16  HD
ATOM     32  C   GLN B   4      17.825 -22.362   1.698  1.00 24.29 LIG 0.24  C 
ATOM     33 O    GLN B   4      16.822 -21.676   1.725  1.00 26.90 LIG-0.27  OA
BRANCH 32 34
ATOM     34  CA  GLN B   4      18.586 -22.564   0.386  1.00 30.52 LIG 0.18  C 
BRANCH 34 35
ATOM     35  CB  GLN B   4      18.395 -24.012  -0.061  1.00 36.61 LIG 0.04  C 
BRANCH 35 36
ATOM     36  CG  GLN B   4      19.049 -25.022   0.867  1.00 50.94 LIG 0.10  C 
BRANCH 36 37
ATOM     37  CD  GLN B   4      20.403 -25.470   0.323  1.00 60.90 LIG 0.21  C 
ATOM     38  NE2 GLN B   4      21.466 -25.256   1.095  1.00 82.36 LIG-0.37  N 
ATOM     39 21HE GLN B   4      21.373 -24.874   1.859  1.00 82.36 LIG 0.16  HD
ATOM     40 22HE GLN B   4      22.247 -25.500   0.829  1.00 82.36 LIG 0.16  HD
ATOM     41 OE1  GLN B   4      20.480 -26.012  -0.778  1.00 55.22 LIG-0.27  OA
ENDBRANCH 36 37
ENDBRANCH 35 36
ENDBRANCH 34 35
BRANCH 34 42
ATOM     42  N   GLN B   4      19.994 -22.268   0.563  1.00 37.98 LIG-0.35  N 
ATOM     43  C   GLU B   3      20.430 -21.047   0.856  1.00 56.89 LIG 0.26  C 
ATOM     44 O    GLU B   3      19.687 -20.079   0.928  1.00 56.58 LIG-0.27  OA
ATOM     45 H    GLN B   4      20.511 -22.948   0.461  1.00 37.98 LIG 0.16  HD
BRANCH 43 46
ATOM     46  CA  GLU B   3      21.933 -20.902   1.090  1.00 80.09 LIG 0.40  C 
ATOM     47  N   GLU B   3      22.528 -20.032   0.086  1.00 75.44 LIG 0.61  N 
BRANCH 46 48
ATOM     48  CB  GLU B   3      22.193 -20.340   2.484  1.00107.85 LIG 0.06  C 
BRANCH 48 49
ATOM     49  CG  GLU B   3      22.638 -21.379   3.485  1.00114.95 LIG 0.12  C 
BRANCH 49 50
ATOM     50  CD  GLU B   3      22.178 -22.774   3.107  1.00 96.82 LIG 0.17  C 
ATOM     51 OE1  GLU B   3      22.693 -23.327   2.106  1.00 91.15 LIG-0.65  OA
ATOM     52 OE2  GLU B   3      21.308 -23.327   3.820  1.00 91.13 LIG-0.65  OA
ENDBRANCH 49 50
ENDBRANCH 48 49
ENDBRANCH 46 48
ENDBRANCH 43 46
ENDBRANCH 34 42
ENDBRANCH 32 34
ENDBRANCH 1 30
TORSDOF 21
ENDMDL
MODEL 27
USER: ADFR SOLUTION from run 145
USER: SCORE 17.103533 LL:  -4.214 LR: -13.609 RR:   0.000 FEB:  -7.345
USER: RMSD 13.610362
USER: SEED 144
USER: STATUS no improvement in best in 5 clusters for 5 generations
USER: GENES 23
USER: genes 0 Translation |==|  0.72286 0.54113 0.47195
USER: genes 1 Rotation |==|  0.36448 0.77585 0.10561 0.50055
USER: genes 2 Torsion [C]-CA--CB-[CG2] |==|  0.39251
USER: genes 3 Torsion [N]-CA--C-[N] |==|  0.39331
USER: genes 4 Torsion [C]-N--CA-[CB] |==|  0.53889
USER: genes 5 Torsion [N]-CA--C-[N] |==|  0.46564
USER: genes 6 Torsion [C]-N--CA-[CB] |==|  0.54539
USER: genes 7 Torsion [N]-CA--C-[N] |==|  0.42978
USER: genes 8 Torsion [C]-N--CA-[CB] |==|  0.44097
USER: genes 9 Torsion [N]-CA--C-[O] |==|  0.20547
USER: genes 10 Torsion [N]-CA--CB-[CG2] |==|  0.07249
USER: genes 11 Torsion [N]-CA--CB-[OG] |==|  0.88373
USER: genes 12 Torsion [CA]-CB--OG-[HG] |==|  0.28167
USER: genes 13 Torsion [CB]-CA--N-[C] |==|  0.85725
USER: genes 14 Torsion [N]-C--CA-[N] |==|  0.48659
USER: genes 15 Torsion [C]-CA--CB-[CG] |==|  0.85453
USER: genes 16 Torsion [CA]-CB--CG-[CD] |==|  0.76893
USER: genes 17 Torsion [CB]-CG--CD-[OE1] |==|  0.46537
USER: genes 18 Torsion [C]-CA--N-[C] |==|  0.57891
USER: genes 19 Torsion [N]-C--CA-[N] |==|  0.63328
USER: genes 20 Torsion [C]-CA--CB-[CG] |==|  0.24280
USER: genes 21 Torsion [CA]-CB--CG-[CD] |==|  0.10274
USER: genes 22 Torsion [CB]-CG--CD-[OE1] |==|  0.64218
ROOT
ATOM      1  CA  VAL B   5      18.879 -22.237   3.872  1.00 23.44 LIG 0.18  C 
ENDROOT
BRANCH 1 2
ATOM      2  CB  VAL B   5      19.150 -21.200   4.962  1.00 27.20 LIG 0.01  C 
ATOM      3  CG2 VAL B   5      19.761 -21.829   6.178  1.00 32.91 LIG 0.01  C 
ATOM      4  CG1 VAL B   5      17.898 -20.428   5.319  1.00 27.01 LIG 0.01  C 
ENDBRANCH 1 2
BRANCH 1 5
ATOM      5  C   VAL B   5      17.557 -21.927   3.179  1.00 21.98 LIG 0.24  C 
ATOM      6 O    VAL B   5      17.510 -21.045   2.327  1.00 26.26 LIG-0.27  OA
ATOM      7  N   SER B   6      16.473 -22.599   3.573  1.00 19.41 LIG-0.34  N 
ATOM      8 H    SER B   6      16.486 -23.172   4.214  1.00 19.41 LIG 0.16  HD
BRANCH 7 9
ATOM      9  CA  SER B   6      15.168 -22.437   2.970  1.00 20.84 LIG 0.20  C 
BRANCH 9 10
ATOM     10  C   SER B   6      14.807 -20.983   2.752  1.00 18.76 LIG 0.24  C 
ATOM     11 O    SER B   6      15.391 -20.080   3.322  1.00 19.89 LIG-0.27  OA
ATOM     12  N   ALA B   7      13.761 -20.785   1.985  1.00 19.53 LIG-0.35  N 
ATOM     13 H    ALA B   7      13.337 -21.431   1.608  1.00 19.53 LIG 0.16  HD
BRANCH 12 14
ATOM     14  CA  ALA B   7      13.195 -19.477   1.680  1.00 19.70 LIG 0.17  C 
ATOM     15  CB  ALA B   7      11.776 -19.655   1.111  1.00 20.39 LIG 0.04  C 
BRANCH 14 16
ATOM     16  C   ALA B   7      13.089 -18.597   2.913  1.00 16.34 LIG 0.24  C 
ATOM     17  N   VAL B   8      13.090 -17.288   2.740  1.00 16.85 LIG-0.34  N 
ATOM     18 H    VAL B   8      13.225 -16.901   1.985  1.00 16.85 LIG 0.16  HD
ATOM     19 O    ALA B   7      12.948 -19.107   4.005  1.00 20.16 LIG-0.27  OA
BRANCH 17 20
ATOM     20  CA  VAL B   8      12.853 -16.374   3.865  1.00 17.28 LIG 0.19  C 
BRANCH 20 21
ATOM     21  C   VAL B   8      11.359 -16.344   4.164  1.00 17.19 LIG 0.20  C 
ATOM     22 O    VAL B   8      10.820 -17.321   4.733  1.00 24.30 LIG-0.65  OA
ATOM     23 OXT  VAL B   8      10.645 -15.377   3.813  1.00 16.53 LIG-0.65  OA
ENDBRANCH 20 21
BRANCH 20 24
ATOM     24  CB  VAL B   8      13.402 -14.938   3.594  1.00 17.38 LIG 0.01  C 
ATOM     25  CG2 VAL B   8      13.438 -14.684   2.091  1.00 18.61 LIG 0.01  C 
ATOM     26  CG1 VAL B   8      14.741 -14.744   4.255  1.00 19.61 LIG 0.01  C 
ENDBRANCH 20 24
ENDBRANCH 17 20
ENDBRANCH 14 16
ENDBRANCH 12 14
ENDBRANCH 9 10
BRANCH 9 27
ATOM     27  CB  SER B   6      14.091 -23.064   3.844  1.00 25.59 LIG 0.20  C 
BRANCH 27 28
ATOM     28 OG   SER B   6      14.529 -24.305   4.354  1.00 27.26 LIG-0.40  OA
ATOM     29 HG   SER B   6      14.775 -24.209   5.152  1.00 27.26 LIG 0.21  HD
ENDBRANCH 27 28
ENDBRANCH 9 27
ENDBRANCH 7 9
ENDBRANCH 1 5
BRANCH 1 30
ATOM     30  N   VAL B   5      19.909 -22.198   2.860  1.00 22.92 LIG-0.35  N 
ATOM     31 H    VAL B   5      20.253 -22.968   2.692  1.00 22.92 LIG 0.16  HD
ATOM     32  C   GLN B   4      20.292 -21.089   2.247  1.00 24.29 LIG 0.24  C 
ATOM     33 O    GLN B   4      19.799 -19.993   2.428  1.00 26.90 LIG-0.27  OA
BRANCH 32 34
ATOM     34  CA  GLN B   4      21.430 -21.267   1.239  1.00 30.52 LIG 0.18  C 
BRANCH 34 35
ATOM     35  CB  GLN B   4      22.672 -21.733   1.996  1.00 36.61 LIG 0.04  C 
BRANCH 35 36
ATOM     36  CG  GLN B   4      23.025 -20.847   3.179  1.00 50.94 LIG 0.10  C 
BRANCH 36 37
ATOM     37  CD  GLN B   4      23.832 -19.631   2.732  1.00 60.90 LIG 0.21  C 
ATOM     38  NE2 GLN B   4      24.306 -19.644   1.488  1.00 82.36 LIG-0.37  N 
ATOM     39 21HE GLN B   4      24.159 -20.321   0.979  1.00 82.36 LIG 0.16  HD
ATOM     40 22HE GLN B   4      24.760 -18.975   1.193  1.00 82.36 LIG 0.16  HD
ATOM     41 OE1  GLN B   4      24.013 -18.690   3.501  1.00 55.22 LIG-0.27  OA
ENDBRANCH 36 37
ENDBRANCH 35 36
ENDBRANCH 34 35
BRANCH 34 42
ATOM     42  N   GLN B   4      21.695 -20.022   0.545  1.00 37.98 LIG-0.35  N 
ATOM     43  C   GLU B   3      22.188 -19.991  -0.689  1.00 56.89 LIG 0.26  C 
ATOM     44 O    GLU B   3      22.515 -21.000  -1.297  1.00 56.58 LIG-0.27  OA
ATOM     45 H    GLN B   4      21.506 -19.318   1.001  1.00 37.98 LIG 0.16  HD
BRANCH 43 46
ATOM     46  CA  GLU B   3      22.342 -18.610  -1.323  1.00 80.09 LIG 0.40  C 
ATOM     47  N   GLU B   3      21.788 -18.597  -2.670  1.00 75.44 LIG 0.61  N 
BRANCH 46 48
ATOM     48  CB  GLU B   3      21.645 -17.559  -0.465  1.00107.85 LIG 0.06  C 
BRANCH 48 49
ATOM     49  CG  GLU B   3      22.519 -16.989   0.627  1.00114.95 LIG 0.12  C 
BRANCH 49 50
ATOM     50  CD  GLU B   3      23.960 -16.826   0.182  1.00 96.82 LIG 0.17  C 
ATOM     51 OE1  GLU B   3      24.869 -17.303   0.901  1.00 91.15 LIG-0.65  OA
ATOM     52 OE2  GLU B   3      24.185 -16.229  -0.897  1.00 91.13 LIG-0.65  OA
ENDBRANCH 49 50
ENDBRANCH 48 49
ENDBRANCH 46 48
ENDBRANCH 43 46
ENDBRANCH 34 42
ENDBRANCH 32 34
ENDBRANCH 1 30
TORSDOF 21
ENDMDL
MODEL 28
USER: ADFR SOLUTION from run 110
USER: SCORE 14.878881 LL:  -4.802 LR: -13.582 RR:   0.000 FEB:  -7.318
USER: RMSD 7.768101
USER: SEED 109
USER: STATUS no improvement in best in 11 clusters for 5 generations
USER: GENES 23
USER: genes 0 Translation |==|  0.69641 0.52995 0.33955
USER: genes 1 Rotation |==|  0.88409 0.43095 0.49120 0.81245
USER: genes 2 Torsion [C]-CA--CB-[CG2] |==|  0.47901
USER: genes 3 Torsion [N]-CA--C-[N] |==|  0.34744
USER: genes 4 Torsion [C]-N--CA-[CB] |==|  0.53611
USER: genes 5 Torsion [N]-CA--C-[N] |==|  0.76562
USER: genes 6 Torsion [C]-N--CA-[CB] |==|  0.33670
USER: genes 7 Torsion [N]-CA--C-[N] |==|  0.45318
USER: genes 8 Torsion [C]-N--CA-[CB] |==|  0.26792
USER: genes 9 Torsion [N]-CA--C-[O] |==|  0.63273
USER: genes 10 Torsion [N]-CA--CB-[CG2] |==|  0.15884
USER: genes 11 Torsion [N]-CA--CB-[OG] |==|  0.03788
USER: genes 12 Torsion [CA]-CB--OG-[HG] |==|  0.85020
USER: genes 13 Torsion [CB]-CA--N-[C] |==|  0.52477
USER: genes 14 Torsion [N]-C--CA-[N] |==|  0.41114
USER: genes 15 Torsion [C]-CA--CB-[CG] |==|  0.38648
USER: genes 16 Torsion [CA]-CB--CG-[CD] |==|  0.88613
USER: genes 17 Torsion [CB]-CG--CD-[OE1] |==|  0.72477
USER: genes 18 Torsion [C]-CA--N-[C] |==|  0.66789
USER: genes 19 Torsion [N]-C--CA-[N] |==|  0.32679
USER: genes 20 Torsion [C]-CA--CB-[CG] |==|  0.71204
USER: genes 21 Torsion [CA]-CB--CG-[CD] |==|  0.74362
USER: genes 22 Torsion [CB]-CG--CD-[OE1] |==|  0.69159
ROOT
ATOM      1  CA  VAL B   5      18.085 -22.430   1.588  1.00 23.44 LIG 0.18  C 
ENDROOT
BRANCH 1 2
ATOM      2  CB  VAL B   5      18.386 -21.655   0.305  1.00 27.20 LIG 0.01  C 
ATOM      3  CG2 VAL B   5      17.821 -22.348  -0.899  1.00 32.91 LIG 0.01  C 
ATOM      4  CG1 VAL B   5      19.870 -21.405   0.141  1.00 27.01 LIG 0.01  C 
ENDBRANCH 1 2
BRANCH 1 5
ATOM      5  C   VAL B   5      18.830 -21.801   2.760  1.00 21.98 LIG 0.24  C 
ATOM      6 O    VAL B   5      18.575 -20.647   3.093  1.00 26.26 LIG-0.27  OA
ATOM      7  N   SER B   6      19.786 -22.521   3.351  1.00 19.41 LIG-0.34  N 
ATOM      8 H    SER B   6      20.014 -23.304   3.083  1.00 19.41 LIG 0.16  HD
BRANCH 7 9
ATOM      9  CA  SER B   6      20.536 -22.063   4.500  1.00 20.84 LIG 0.20  C 
BRANCH 9 10
ATOM     10  C   SER B   6      21.023 -20.639   4.345  1.00 18.76 LIG 0.24  C 
ATOM     11 O    SER B   6      20.366 -19.687   4.724  1.00 19.89 LIG-0.27  OA
ATOM     12  N   ALA B   7      22.151 -20.511   3.688  1.00 19.53 LIG-0.35  N 
ATOM     13 H    ALA B   7      22.596 -21.188   3.400  1.00 19.53 LIG 0.16  HD
BRANCH 12 14
ATOM     14  CA  ALA B   7      22.782 -19.237   3.367  1.00 19.70 LIG 0.17  C 
ATOM     15  CB  ALA B   7      24.193 -19.197   3.981  1.00 20.39 LIG 0.04  C 
BRANCH 14 16
ATOM     16  C   ALA B   7      22.926 -19.029   1.870  1.00 16.34 LIG 0.24  C 
ATOM     17  N   VAL B   8      23.160 -17.805   1.435  1.00 16.85 LIG-0.34  N 
ATOM     18 H    VAL B   8      23.159 -17.106   1.936  1.00 16.85 LIG 0.16  HD
ATOM     19 O    ALA B   7      22.883 -19.986   1.124  1.00 20.16 LIG-0.27  OA
BRANCH 17 20
ATOM     20  CA  VAL B   8      23.448 -17.544   0.018  1.00 17.28 LIG 0.19  C 
BRANCH 20 21
ATOM     21  C   VAL B   8      24.548 -16.493  -0.071  1.00 17.19 LIG 0.20  C 
ATOM     22 O    VAL B   8      24.411 -15.517  -0.843  1.00 24.30 LIG-0.65  OA
ATOM     23 OXT  VAL B   8      25.610 -16.607   0.582  1.00 16.53 LIG-0.65  OA
ENDBRANCH 20 21
BRANCH 20 24
ATOM     24  CB  VAL B   8      22.180 -17.102  -0.778  1.00 17.38 LIG 0.01  C 
ATOM     25  CG2 VAL B   8      21.579 -15.861  -0.126  1.00 18.61 LIG 0.01  C 
ATOM     26  CG1 VAL B   8      21.199 -18.238  -0.894  1.00 19.61 LIG 0.01  C 
ENDBRANCH 20 24
ENDBRANCH 17 20
ENDBRANCH 14 16
ENDBRANCH 12 14
ENDBRANCH 9 10
BRANCH 9 27
ATOM     27  CB  SER B   6      21.748 -22.953   4.739  1.00 25.59 LIG 0.20  C 
BRANCH 27 28
ATOM     28 OG   SER B   6      21.986 -23.775   3.617  1.00 27.26 LIG-0.40  OA
ATOM     29 HG   SER B   6      21.286 -24.200   3.427  1.00 27.26 LIG 0.21  HD
ENDBRANCH 27 28
ENDBRANCH 9 27
ENDBRANCH 7 9
ENDBRANCH 1 5
BRANCH 1 30
ATOM     30  N   VAL B   5      16.676 -22.375   1.901  1.00 22.92 LIG-0.35  N 
ATOM     31 H    VAL B   5      16.200 -22.029   1.274  1.00 22.92 LIG 0.16  HD
ATOM     32  C   GLN B   4      16.160 -22.811   3.040  1.00 24.29 LIG 0.24  C 
ATOM     33 O    GLN B   4      16.796 -23.342   3.929  1.00 26.90 LIG-0.27  OA
BRANCH 32 34
ATOM     34  CA  GLN B   4      14.649 -22.616   3.182  1.00 30.52 LIG 0.18  C 
BRANCH 34 35
ATOM     35  CB  GLN B   4      14.401 -21.262   3.844  1.00 36.61 LIG 0.04  C 
BRANCH 35 36
ATOM     36  CG  GLN B   4      13.237 -20.497   3.237  1.00 50.94 LIG 0.10  C 
BRANCH 36 37
ATOM     37  CD  GLN B   4      13.233 -20.621   1.716  1.00 60.90 LIG 0.21  C 
ATOM     38  NE2 GLN B   4      12.705 -21.730   1.201  1.00 82.36 LIG-0.37  N 
ATOM     39 21HE GLN B   4      12.392 -22.339   1.722  1.00 82.36 LIG 0.16  HD
ATOM     40 22HE GLN B   4      12.676 -21.837   0.348  1.00 82.36 LIG 0.16  HD
ATOM     41 OE1  GLN B   4      13.693 -19.721   1.019  1.00 55.22 LIG-0.27  OA
ENDBRANCH 36 37
ENDBRANCH 35 36
ENDBRANCH 34 35
BRANCH 34 42
ATOM     42  N   GLN B   4      14.070 -23.683   3.975  1.00 37.98 LIG-0.35  N 
ATOM     43  C   GLU B   3      13.141 -24.501   3.491  1.00 56.89 LIG 0.26  C 
ATOM     44 O    GLU B   3      12.661 -24.370   2.373  1.00 56.58 LIG-0.27  OA
ATOM     45 H    GLN B   4      14.381 -23.734   4.775  1.00 37.98 LIG 0.16  HD
BRANCH 43 46
ATOM     46  CA  GLU B   3      12.680 -25.626   4.414  1.00 80.09 LIG 0.40  C 
ATOM     47  N   GLU B   3      11.263 -25.491   4.723  1.00 75.44 LIG 0.61  N 
BRANCH 46 48
ATOM     48  CB  GLU B   3      12.943 -26.980   3.762  1.00107.85 LIG 0.06  C 
BRANCH 48 49
ATOM     49  CG  GLU B   3      11.704 -27.634   3.199  1.00114.95 LIG 0.12  C 
BRANCH 49 50
ATOM     50  CD  GLU B   3      11.040 -28.562   4.198  1.00 96.82 LIG 0.17  C 
ATOM     51 OE1  GLU B   3      11.067 -29.797   3.981  1.00 91.15 LIG-0.65  OA
ATOM     52 OE2  GLU B   3      10.501 -28.058   5.210  1.00 91.13 LIG-0.65  OA
ENDBRANCH 49 50
ENDBRANCH 48 49
ENDBRANCH 46 48
ENDBRANCH 43 46
ENDBRANCH 34 42
ENDBRANCH 32 34
ENDBRANCH 1 30
TORSDOF 21
ENDMDL
MODEL 29
USER: ADFR SOLUTION from run 71
USER: SCORE 16.122697 LL:  -5.106 LR: -13.538 RR:   0.000 FEB:  -7.273
USER: RMSD 6.439470
USER: SEED 70
USER: STATUS no improvement in best in 6 clusters for 5 generations
USER: GENES 23
USER: genes 0 Translation |==|  0.65391 0.44006 0.36671
USER: genes 1 Rotation |==|  0.70888 0.41656 0.48006 0.94610
USER: genes 2 Torsion [C]-CA--CB-[CG2] |==|  0.19733
USER: genes 3 Torsion [N]-CA--C-[N] |==|  0.42783
USER: genes 4 Torsion [C]-N--CA-[CB] |==|  0.51830
USER: genes 5 Torsion [N]-CA--C-[N] |==|  0.84444
USER: genes 6 Torsion [C]-N--CA-[CB] |==|  0.85831
USER: genes 7 Torsion [N]-CA--C-[N] |==|  0.88955
USER: genes 8 Torsion [C]-N--CA-[CB] |==|  0.29311
USER: genes 9 Torsion [N]-CA--C-[O] |==|  0.12493
USER: genes 10 Torsion [N]-CA--CB-[CG2] |==|  0.91181
USER: genes 11 Torsion [N]-CA--CB-[OG] |==|  0.11271
USER: genes 12 Torsion [CA]-CB--OG-[HG] |==|  0.83941
USER: genes 13 Torsion [CB]-CA--N-[C] |==|  0.47259
USER: genes 14 Torsion [N]-C--CA-[N] |==|  0.33346
USER: genes 15 Torsion [C]-CA--CB-[CG] |==|  0.39295
USER: genes 16 Torsion [CA]-CB--CG-[CD] |==|  0.88307
USER: genes 17 Torsion [CB]-CG--CD-[OE1] |==|  0.72307
USER: genes 18 Torsion [C]-CA--N-[C] |==|  0.57407
USER: genes 19 Torsion [N]-C--CA-[N] |==|  0.03484
USER: genes 20 Torsion [C]-CA--CB-[CG] |==|  0.74384
USER: genes 21 Torsion [CA]-CB--CG-[CD] |==|  0.76936
USER: genes 22 Torsion [CB]-CG--CD-[OE1] |==|  0.53423
ROOT
ATOM      1  CA  VAL B   5      16.810 -23.981   2.057  1.00 23.44 LIG 0.18  C 
ENDROOT
BRANCH 1 2
ATOM      2  CB  VAL B   5      17.006 -24.514   0.637  1.00 27.20 LIG 0.01  C 
ATOM      3  CG2 VAL B   5      18.302 -25.258   0.505  1.00 32.91 LIG 0.01  C 
ATOM      4  CG1 VAL B   5      16.907 -23.407  -0.391  1.00 27.01 LIG 0.01  C 
ENDBRANCH 1 2
BRANCH 1 5
ATOM      5  C   VAL B   5      17.779 -22.833   2.317  1.00 21.98 LIG 0.24  C 
ATOM      6 O    VAL B   5      17.430 -21.679   2.088  1.00 26.26 LIG-0.27  OA
ATOM      7  N   SER B   6      19.009 -23.138   2.738  1.00 19.41 LIG-0.34  N 
ATOM      8 H    SER B   6      19.281 -23.947   2.839  1.00 19.41 LIG 0.16  HD
BRANCH 7 9
ATOM      9  CA  SER B   6      20.010 -22.147   3.067  1.00 20.84 LIG 0.20  C 
BRANCH 9 10
ATOM     10  C   SER B   6      20.217 -21.140   1.956  1.00 18.76 LIG 0.24  C 
ATOM     11 O    SER B   6      20.015 -19.951   2.116  1.00 19.89 LIG-0.27  OA
ATOM     12  N   ALA B   7      20.530 -21.661   0.793  1.00 19.53 LIG-0.35  N 
ATOM     13 H    ALA B   7      20.644 -22.506   0.682  1.00 19.53 LIG 0.16  HD
BRANCH 12 14
ATOM     14  CA  ALA B   7      20.720 -20.894  -0.432  1.00 19.70 LIG 0.17  C 
ATOM     15  CB  ALA B   7      19.509 -19.970  -0.651  1.00 20.39 LIG 0.04  C 
BRANCH 14 16
ATOM     16  C   ALA B   7      21.960 -20.020  -0.374  1.00 16.34 LIG 0.24  C 
ATOM     17  N   VAL B   8      22.232 -19.406   0.762  1.00 16.85 LIG-0.34  N 
ATOM     18 H    VAL B   8      21.712 -19.405   1.447  1.00 16.85 LIG 0.16  HD
ATOM     19 O    ALA B   7      22.694 -19.954  -1.339  1.00 20.16 LIG-0.27  OA
BRANCH 17 20
ATOM     20  CA  VAL B   8      23.482 -18.655   0.940  1.00 17.28 LIG 0.19  C 
BRANCH 20 21
ATOM     21  C   VAL B   8      24.127 -19.085   2.252  1.00 17.19 LIG 0.20  C 
ATOM     22 O    VAL B   8      24.193 -20.302   2.542  1.00 24.30 LIG-0.65  OA
ATOM     23 OXT  VAL B   8      24.557 -18.242   3.072  1.00 16.53 LIG-0.65  OA
ENDBRANCH 20 21
BRANCH 20 24
ATOM     24  CB  VAL B   8      23.263 -17.110   0.899  1.00 17.38 LIG 0.01  C 
ATOM     25  CG2 VAL B   8      22.103 -16.786  -0.036  1.00 18.61 LIG 0.01  C 
ATOM     26  CG1 VAL B   8      24.536 -16.399   0.525  1.00 19.61 LIG 0.01  C 
ENDBRANCH 20 24
ENDBRANCH 17 20
ENDBRANCH 14 16
ENDBRANCH 12 14
ENDBRANCH 9 10
BRANCH 9 27
ATOM     27  CB  SER B   6      21.349 -22.812   3.357  1.00 25.59 LIG 0.20  C 
BRANCH 27 28
ATOM     28 OG   SER B   6      21.584 -23.865   2.447  1.00 27.26 LIG-0.40  OA
ATOM     29 HG   SER B   6      20.958 -24.423   2.497  1.00 27.26 LIG 0.21  HD
ENDBRANCH 27 28
ENDBRANCH 9 27
ENDBRANCH 7 9
ENDBRANCH 1 5
BRANCH 1 30
ATOM     30  N   VAL B   5      15.475 -23.457   2.227  1.00 22.92 LIG-0.35  N 
ATOM     31 H    VAL B   5      15.036 -23.394   1.490  1.00 22.92 LIG 0.16  HD
ATOM     32  C   GLN B   4      14.970 -23.106   3.400  1.00 24.29 LIG 0.24  C 
ATOM     33 O    GLN B   4      15.545 -23.222   4.464  1.00 26.90 LIG-0.27  OA
BRANCH 32 34
ATOM     34  CA  GLN B   4      13.551 -22.534   3.347  1.00 30.52 LIG 0.18  C 
BRANCH 34 35
ATOM     35  CB  GLN B   4      13.592 -21.102   3.879  1.00 36.61 LIG 0.04  C 
BRANCH 35 36
ATOM     36  CG  GLN B   4      12.683 -20.150   3.121  1.00 50.94 LIG 0.10  C 
BRANCH 36 37
ATOM     37  CD  GLN B   4      12.763 -20.396   1.617  1.00 60.90 LIG 0.21  C 
ATOM     38  NE2 GLN B   4      12.044 -21.406   1.130  1.00 82.36 LIG-0.37  N 
ATOM     39 21HE GLN B   4      11.569 -21.889   1.658  1.00 82.36 LIG 0.16  HD
ATOM     40 22HE GLN B   4      12.056 -21.575   0.286  1.00 82.36 LIG 0.16  HD
ATOM     41 OE1  GLN B   4      13.460 -19.675   0.906  1.00 55.22 LIG-0.27  OA
ENDBRANCH 36 37
ENDBRANCH 35 36
ENDBRANCH 34 35
BRANCH 34 42
ATOM     42  N   GLN B   4      12.645 -23.343   4.138  1.00 37.98 LIG-0.35  N 
ATOM     43  C   GLU B   3      11.344 -23.411   3.876  1.00 56.89 LIG 0.26  C 
ATOM     44 O    GLU B   3      10.810 -22.745   2.999  1.00 56.58 LIG-0.27  OA
ATOM     45 H    GLN B   4      13.025 -23.769   4.781  1.00 37.98 LIG 0.16  HD
BRANCH 43 46
ATOM     46  CA  GLU B   3      10.526 -24.365   4.743  1.00 80.09 LIG 0.40  C 
ATOM     47  N   GLU B   3      11.300 -24.805   5.895  1.00 75.44 LIG 0.61  N 
BRANCH 46 48
ATOM     48  CB  GLU B   3       9.244 -23.682   5.209  1.00107.85 LIG 0.06  C 
BRANCH 48 49
ATOM     49  CG  GLU B   3       9.375 -22.993   6.547  1.00114.95 LIG 0.12  C 
BRANCH 49 50
ATOM     50  CD  GLU B   3       9.196 -23.952   7.707  1.00 96.82 LIG 0.17  C 
ATOM     51 OE1  GLU B   3       9.046 -23.482   8.860  1.00 91.15 LIG-0.65  OA
ATOM     52 OE2  GLU B   3       9.191 -25.182   7.466  1.00 91.13 LIG-0.65  OA
ENDBRANCH 49 50
ENDBRANCH 48 49
ENDBRANCH 46 48
ENDBRANCH 43 46
ENDBRANCH 34 42
ENDBRANCH 32 34
ENDBRANCH 1 30
TORSDOF 21
ENDMDL
MODEL 30
USER: ADFR SOLUTION from run 75
USER: SCORE 14.741572 LL:  -4.436 LR: -13.518 RR:   0.000 FEB:  -7.254
USER: RMSD 13.116692
USER: SEED 74
USER: STATUS searching
USER: GENES 23
USER: genes 0 Translation |==|  0.71881 0.55229 0.49246
USER: genes 1 Rotation |==|  0.27624 0.63647 0.07420 0.50118
USER: genes 2 Torsion [C]-CA--CB-[CG2] |==|  0.53051
USER: genes 3 Torsion [N]-CA--C-[N] |==|  0.73899
USER: genes 4 Torsion [C]-N--CA-[CB] |==|  0.15007
USER: genes 5 Torsion [N]-CA--C-[N] |==|  0.51024
USER: genes 6 Torsion [C]-N--CA-[CB] |==|  0.54432
USER: genes 7 Torsion [N]-CA--C-[N] |==|  0.43785
USER: genes 8 Torsion [C]-N--CA-[CB] |==|  0.29883
USER: genes 9 Torsion [N]-CA--C-[O] |==|  0.27200
USER: genes 10 Torsion [N]-CA--CB-[CG2] |==|  0.03467
USER: genes 11 Torsion [N]-CA--CB-[OG] |==|  0.74862
USER: genes 12 Torsion [CA]-CB--OG-[HG] |==|  0.52419
USER: genes 13 Torsion [CB]-CA--N-[C] |==|  0.86124
USER: genes 14 Torsion [N]-C--CA-[N] |==|  0.74239
USER: genes 15 Torsion [C]-CA--CB-[CG] |==|  0.21769
USER: genes 16 Torsion [CA]-CB--CG-[CD] |==|  0.49423
USER: genes 17 Torsion [CB]-CG--CD-[OE1] |==|  0.38861
USER: genes 18 Torsion [C]-CA--N-[C] |==|  0.76106
USER: genes 19 Torsion [N]-C--CA-[N] |==|  0.42547
USER: genes 20 Torsion [C]-CA--CB-[CG] |==|  0.18501
USER: genes 21 Torsion [CA]-CB--CG-[CD] |==|  0.09447
USER: genes 22 Torsion [CB]-CG--CD-[OE1] |==|  0.16199
ROOT
ATOM      1  CA  VAL B   5      18.757 -22.045   4.226  1.00 23.44 LIG 0.18  C 
ENDROOT
BRANCH 1 2
ATOM      2  CB  VAL B   5      18.753 -20.563   4.602  1.00 27.20 LIG 0.01  C 
ATOM      3  CG2 VAL B   5      20.144 -20.004   4.646  1.00 32.91 LIG 0.01  C 
ATOM      4  CG1 VAL B   5      18.029 -20.323   5.909  1.00 27.01 LIG 0.01  C 
ENDBRANCH 1 2
BRANCH 1 5
ATOM      5  C   VAL B   5      17.336 -22.508   3.926  1.00 21.98 LIG 0.24  C 
ATOM      6 O    VAL B   5      17.049 -23.697   4.031  1.00 26.26 LIG-0.27  OA
ATOM      7  N   SER B   6      16.459 -21.596   3.501  1.00 19.41 LIG-0.34  N 
ATOM      8 H    SER B   6      16.670 -20.774   3.363  1.00 19.41 LIG 0.16  HD
BRANCH 7 9
ATOM      9  CA  SER B   6      15.070 -21.889   3.226  1.00 20.84 LIG 0.20  C 
BRANCH 9 10
ATOM     10  C   SER B   6      14.275 -20.650   2.874  1.00 18.76 LIG 0.24  C 
ATOM     11 O    SER B   6      14.779 -19.543   2.856  1.00 19.89 LIG-0.27  OA
ATOM     12  N   ALA B   7      12.992 -20.854   2.689  1.00 19.53 LIG-0.35  N 
ATOM     13 H    ALA B   7      12.639 -21.637   2.731  1.00 19.53 LIG 0.16  HD
BRANCH 12 14
ATOM     14  CA  ALA B   7      12.021 -19.806   2.399  1.00 19.70 LIG 0.17  C 
ATOM     15  CB  ALA B   7      10.600 -20.344   2.642  1.00 20.39 LIG 0.04  C 
BRANCH 14 16
ATOM     16  C   ALA B   7      12.209 -18.588   3.286  1.00 16.34 LIG 0.24  C 
ATOM     17  N   VAL B   8      11.734 -17.433   2.860  1.00 16.85 LIG-0.34  N 
ATOM     18 H    VAL B   8      11.395 -17.309   2.079  1.00 16.85 LIG 0.16  HD
ATOM     19 O    ALA B   7      12.731 -18.713   4.375  1.00 20.16 LIG-0.27  OA
BRANCH 17 20
ATOM     20  CA  VAL B   8      11.754 -16.240   3.717  1.00 17.28 LIG 0.19  C 
BRANCH 20 21
ATOM     21  C   VAL B   8      10.356 -15.632   3.740  1.00 17.19 LIG 0.20  C 
ATOM     22 O    VAL B   8       9.585 -15.885   4.693  1.00 24.30 LIG-0.65  OA
ATOM     23 OXT  VAL B   8       9.944 -14.915   2.800  1.00 16.53 LIG-0.65  OA
ENDBRANCH 20 21
BRANCH 20 24
ATOM     24  CB  VAL B   8      12.817 -15.193   3.260  1.00 17.38 LIG 0.01  C 
ATOM     25  CG2 VAL B   8      13.327 -15.560   1.870  1.00 18.61 LIG 0.01  C 
ATOM     26  CG1 VAL B   8      13.920 -15.071   4.277  1.00 19.61 LIG 0.01  C 
ENDBRANCH 20 24
ENDBRANCH 17 20
ENDBRANCH 14 16
ENDBRANCH 12 14
ENDBRANCH 9 10
BRANCH 9 27
ATOM     27  CB  SER B   6      14.411 -22.546   4.432  1.00 25.59 LIG 0.20  C 
BRANCH 27 28
ATOM     28 OG   SER B   6      14.530 -23.950   4.355  1.00 27.26 LIG-0.40  OA
ATOM     29 HG   SER B   6      14.064 -24.304   4.958  1.00 27.26 LIG 0.21  HD
ENDBRANCH 27 28
ENDBRANCH 9 27
ENDBRANCH 7 9
ENDBRANCH 1 5
BRANCH 1 30
ATOM     30  N   VAL B   5      19.537 -22.267   3.031  1.00 22.92 LIG-0.35  N 
ATOM     31 H    VAL B   5      20.114 -22.901   3.111  1.00 22.92 LIG 0.16  HD
ATOM     32  C   GLN B   4      19.386 -21.569   1.916  1.00 24.29 LIG 0.24  C 
ATOM     33 O    GLN B   4      18.555 -20.697   1.753  1.00 26.90 LIG-0.27  OA
BRANCH 32 34
ATOM     34  CA  GLN B   4      20.347 -21.940   0.784  1.00 30.52 LIG 0.18  C 
BRANCH 34 35
ATOM     35  CB  GLN B   4      20.728 -23.412   0.943  1.00 36.61 LIG 0.04  C 
BRANCH 35 36
ATOM     36  CG  GLN B   4      19.655 -24.369   0.451  1.00 50.94 LIG 0.10  C 
BRANCH 36 37
ATOM     37  CD  GLN B   4      20.111 -25.819   0.587  1.00 60.90 LIG 0.21  C 
ATOM     38  NE2 GLN B   4      21.382 -26.084   0.293  1.00 82.36 LIG-0.37  N 
ATOM     39 21HE GLN B   4      21.904 -25.451   0.033  1.00 82.36 LIG 0.16  HD
ATOM     40 22HE GLN B   4      21.682 -26.887   0.362  1.00 82.36 LIG 0.16  HD
ATOM     41 OE1  GLN B   4      19.323 -26.684   0.962  1.00 55.22 LIG-0.27  OA
ENDBRANCH 36 37
ENDBRANCH 35 36
ENDBRANCH 34 35
BRANCH 34 42
ATOM     42  N   GLN B   4      21.529 -21.103   0.824  1.00 37.98 LIG-0.35  N 
ATOM     43  C   GLU B   3      21.574 -19.913   0.233  1.00 56.89 LIG 0.26  C 
ATOM     44 O    GLU B   3      20.652 -19.473  -0.439  1.00 56.58 LIG-0.27  OA
ATOM     45 H    GLN B   4      22.188 -21.445   1.259  1.00 37.98 LIG 0.16  HD
BRANCH 43 46
ATOM     46  CA  GLU B   3      22.858 -19.108   0.424  1.00 80.09 LIG 0.40  C 
ATOM     47  N   GLU B   3      23.068 -18.200  -0.694  1.00 75.44 LIG 0.61  N 
BRANCH 46 48
ATOM     48  CB  GLU B   3      22.794 -18.321   1.729  1.00107.85 LIG 0.06  C 
BRANCH 48 49
ATOM     49  CG  GLU B   3      22.789 -19.190   2.964  1.00114.95 LIG 0.12  C 
BRANCH 49 50
ATOM     50  CD  GLU B   3      23.624 -20.444   2.787  1.00 96.82 LIG 0.17  C 
ATOM     51 OE1  GLU B   3      24.839 -20.322   2.501  1.00 91.15 LIG-0.65  OA
ATOM     52 OE2  GLU B   3      23.068 -21.555   2.946  1.00 91.13 LIG-0.65  OA
ENDBRANCH 49 50
ENDBRANCH 48 49
ENDBRANCH 46 48
ENDBRANCH 43 46
ENDBRANCH 34 42
ENDBRANCH 32 34
ENDBRANCH 1 30
TORSDOF 21
ENDMDL
MODEL 31
USER: ADFR SOLUTION from run 3
USER: SCORE 14.507225 LL:  -4.037 LR: -13.507 RR:   0.000 FEB:  -7.243
USER: RMSD 12.337616
USER: SEED 653190
USER: STATUS no improvement in best in 32 clusters for 5 generations
USER: GENES 23
USER: genes 0 Translation |==|  0.70562 0.52368 0.50894
USER: genes 1 Rotation |==|  0.62744 0.19767 0.87624 0.52837
USER: genes 2 Torsion [C]-CA--CB-[CG2] |==|  0.93861
USER: genes 3 Torsion [N]-CA--C-[N] |==|  0.37242
USER: genes 4 Torsion [C]-N--CA-[CB] |==|  0.11304
USER: genes 5 Torsion [N]-CA--C-[N] |==|  0.36336
USER: genes 6 Torsion [C]-N--CA-[CB] |==|  0.13646
USER: genes 7 Torsion [N]-CA--C-[N] |==|  0.67070
USER: genes 8 Torsion [C]-N--CA-[CB] |==|  0.14750
USER: genes 9 Torsion [N]-CA--C-[O] |==|  0.91234
USER: genes 10 Torsion [N]-CA--CB-[CG2] |==|  0.66849
USER: genes 11 Torsion [N]-CA--CB-[OG] |==|  0.23938
USER: genes 12 Torsion [CA]-CB--OG-[HG] |==|  0.75168
USER: genes 13 Torsion [CB]-CA--N-[C] |==|  0.84159
USER: genes 14 Torsion [N]-C--CA-[N] |==|  0.14414
USER: genes 15 Torsion [C]-CA--CB-[CG] |==|  0.22070
USER: genes 16 Torsion [CA]-CB--CG-[CD] |==|  0.16202
USER: genes 17 Torsion [CB]-CG--CD-[OE1] |==|  0.78998
USER: genes 18 Torsion [C]-CA--N-[C] |==|  0.72778
USER: genes 19 Torsion [N]-C--CA-[N] |==|  0.32461
USER: genes 20 Torsion [C]-CA--CB-[CG] |==|  0.30291
USER: genes 21 Torsion [CA]-CB--CG-[CD] |==|  0.85288
USER: genes 22 Torsion [CB]-CG--CD-[OE1] |==|  0.71344
ROOT
ATOM      1  CA  VAL B   5      18.361 -22.539   4.510  1.00 23.44 LIG 0.18  C 
ENDROOT
BRANCH 1 2
ATOM      2  CB  VAL B   5      18.831 -21.656   5.668  1.00 27.20 LIG 0.01  C 
ATOM      3  CG2 VAL B   5      18.245 -20.279   5.579  1.00 32.91 LIG 0.01  C 
ATOM      4  CG1 VAL B   5      20.341 -21.601   5.747  1.00 27.01 LIG 0.01  C 
ENDBRANCH 1 2
BRANCH 1 5
ATOM      5  C   VAL B   5      17.062 -21.988   3.934  1.00 21.98 LIG 0.24  C 
ATOM      6 O    VAL B   5      17.079 -20.949   3.280  1.00 26.26 LIG-0.27  OA
ATOM      7  N   SER B   6      15.930 -22.638   4.215  1.00 19.41 LIG-0.34  N 
ATOM      8 H    SER B   6      15.902 -23.329   4.725  1.00 19.41 LIG 0.16  HD
BRANCH 7 9
ATOM      9  CA  SER B   6      14.637 -22.252   3.695  1.00 20.84 LIG 0.20  C 
BRANCH 9 10
ATOM     10  C   SER B   6      13.618 -23.367   3.789  1.00 18.76 LIG 0.24  C 
ATOM     11 O    SER B   6      13.825 -24.472   3.323  1.00 19.89 LIG-0.27  OA
ATOM     12  N   ALA B   7      12.469 -23.020   4.319  1.00 19.53 LIG-0.35  N 
ATOM     13 H    ALA B   7      12.321 -22.228   4.622  1.00 19.53 LIG 0.16  HD
BRANCH 12 14
ATOM     14  CA  ALA B   7      11.321 -23.907   4.460  1.00 19.70 LIG 0.17  C 
ATOM     15  CB  ALA B   7      11.775 -25.233   5.096  1.00 20.39 LIG 0.04  C 
BRANCH 14 16
ATOM     16  C   ALA B   7      10.245 -23.314   5.353  1.00 16.34 LIG 0.24  C 
ATOM     17  N   VAL B   8       9.931 -23.964   6.458  1.00 16.85 LIG-0.34  N 
ATOM     18 H    VAL B   8      10.239 -24.739   6.667  1.00 16.85 LIG 0.16  HD
ATOM     19 O    ALA B   7       9.747 -22.245   5.065  1.00 20.16 LIG-0.27  OA
BRANCH 17 20
ATOM     20  CA  VAL B   8       9.002 -23.389   7.440  1.00 17.28 LIG 0.19  C 
BRANCH 20 21
ATOM     21  C   VAL B   8       8.779 -24.404   8.554  1.00 17.19 LIG 0.20  C 
ATOM     22 O    VAL B   8       8.821 -25.629   8.295  1.00 24.30 LIG-0.65  OA
ATOM     23 OXT  VAL B   8       8.510 -24.040   9.722  1.00 16.53 LIG-0.65  OA
ENDBRANCH 20 21
BRANCH 20 24
ATOM     24  CB  VAL B   8       7.648 -22.951   6.797  1.00 17.38 LIG 0.01  C 
ATOM     25  CG2 VAL B   8       7.452 -21.452   6.998  1.00 18.61 LIG 0.01  C 
ATOM     26  CG1 VAL B   8       6.509 -23.771   7.341  1.00 19.61 LIG 0.01  C 
ENDBRANCH 20 24
ENDBRANCH 17 20
ENDBRANCH 14 16
ENDBRANCH 12 14
ENDBRANCH 9 10
BRANCH 9 27
ATOM     27  CB  SER B   6      14.747 -21.835   2.234  1.00 25.59 LIG 0.20  C 
BRANCH 27 28
ATOM     28 OG   SER B   6      14.647 -22.962   1.391  1.00 27.26 LIG-0.40  OA
ATOM     29 HG   SER B   6      15.412 -23.285   1.263  1.00 27.26 LIG 0.21  HD
ENDBRANCH 27 28
ENDBRANCH 9 27
ENDBRANCH 7 9
ENDBRANCH 1 5
BRANCH 1 30
ATOM     30  N   VAL B   5      19.333 -22.541   3.441  1.00 22.92 LIG-0.35  N 
ATOM     31 H    VAL B   5      19.614 -23.328   3.236  1.00 22.92 LIG 0.16  HD
ATOM     32  C   GLN B   4      19.755 -21.444   2.832  1.00 24.29 LIG 0.24  C 
ATOM     33 O    GLN B   4      19.349 -20.323   3.066  1.00 26.90 LIG-0.27  OA
BRANCH 32 34
ATOM     34  CA  GLN B   4      20.820 -21.671   1.756  1.00 30.52 LIG 0.18  C 
BRANCH 34 35
ATOM     35  CB  GLN B   4      21.068 -20.344   1.040  1.00 36.61 LIG 0.04  C 
BRANCH 35 36
ATOM     36  CG  GLN B   4      21.973 -19.401   1.813  1.00 50.94 LIG 0.10  C 
BRANCH 36 37
ATOM     37  CD  GLN B   4      23.329 -20.044   2.089  1.00 60.90 LIG 0.21  C 
ATOM     38  NE2 GLN B   4      24.359 -19.623   1.356  1.00 82.36 LIG-0.37  N 
ATOM     39 21HE GLN B   4      24.241 -19.020   0.755  1.00 82.36 LIG 0.16  HD
ATOM     40 22HE GLN B   4      25.142 -19.955   1.484  1.00 82.36 LIG 0.16  HD
ATOM     41 OE1  GLN B   4      23.443 -20.904   2.960  1.00 55.22 LIG-0.27  OA
ENDBRANCH 36 37
ENDBRANCH 35 36
ENDBRANCH 34 35
BRANCH 34 42
ATOM     42  N   GLN B   4      20.386 -22.683   0.814  1.00 37.98 LIG-0.35  N 
ATOM     43  C   GLU B   3      20.777 -23.950   0.906  1.00 56.89 LIG 0.26  C 
ATOM     44 O    GLU B   3      21.580 -24.336   1.744  1.00 56.58 LIG-0.27  OA
ATOM     45 H    GLN B   4      19.860 -22.390   0.201  1.00 37.98 LIG 0.16  HD
BRANCH 43 46
ATOM     46  CA  GLU B   3      20.177 -24.921  -0.109  1.00 80.09 LIG 0.40  C 
ATOM     47  N   GLU B   3      21.216 -25.480  -0.962  1.00 75.44 LIG 0.61  N 
BRANCH 46 48
ATOM     48  CB  GLU B   3      19.438 -26.043   0.612  1.00107.85 LIG 0.06  C 
BRANCH 48 49
ATOM     49  CG  GLU B   3      17.936 -25.967   0.476  1.00114.95 LIG 0.12  C 
BRANCH 49 50
ATOM     50  CD  GLU B   3      17.391 -24.610   0.879  1.00 96.82 LIG 0.17  C 
ATOM     51 OE1  GLU B   3      16.833 -24.494   1.995  1.00 91.15 LIG-0.65  OA
ATOM     52 OE2  GLU B   3      17.531 -23.653   0.082  1.00 91.13 LIG-0.65  OA
ENDBRANCH 49 50
ENDBRANCH 48 49
ENDBRANCH 46 48
ENDBRANCH 43 46
ENDBRANCH 34 42
ENDBRANCH 32 34
ENDBRANCH 1 30
TORSDOF 21
ENDMDL
MODEL 32
USER: ADFR SOLUTION from run 138
USER: SCORE 16.435190 LL:  -4.914 LR: -13.485 RR:   0.000 FEB:  -7.221
USER: RMSD 9.643857
USER: SEED 137
USER: STATUS 1 or 2 clusters left
USER: GENES 23
USER: genes 0 Translation |==|  0.70710 0.63046 0.46533
USER: genes 1 Rotation |==|  0.17498 0.36880 0.64101 0.82752
USER: genes 2 Torsion [C]-CA--CB-[CG2] |==|  0.41121
USER: genes 3 Torsion [N]-CA--C-[N] |==|  0.80318
USER: genes 4 Torsion [C]-N--CA-[CB] |==|  0.51672
USER: genes 5 Torsion [N]-CA--C-[N] |==|  0.27228
USER: genes 6 Torsion [C]-N--CA-[CB] |==|  0.15510
USER: genes 7 Torsion [N]-CA--C-[N] |==|  0.07784
USER: genes 8 Torsion [C]-N--CA-[CB] |==|  0.14893
USER: genes 9 Torsion [N]-CA--C-[O] |==|  0.43431
USER: genes 10 Torsion [N]-CA--CB-[CG2] |==|  0.66020
USER: genes 11 Torsion [N]-CA--CB-[OG] |==|  0.81991
USER: genes 12 Torsion [CA]-CB--OG-[HG] |==|  0.27943
USER: genes 13 Torsion [CB]-CA--N-[C] |==|  0.89862
USER: genes 14 Torsion [N]-C--CA-[N] |==|  0.95000
USER: genes 15 Torsion [C]-CA--CB-[CG] |==|  0.98289
USER: genes 16 Torsion [CA]-CB--CG-[CD] |==|  0.38449
USER: genes 17 Torsion [CB]-CG--CD-[OE1] |==|  0.95658
USER: genes 18 Torsion [C]-CA--N-[C] |==|  0.76274
USER: genes 19 Torsion [N]-C--CA-[N] |==|  0.39073
USER: genes 20 Torsion [C]-CA--CB-[CG] |==|  0.48563
USER: genes 21 Torsion [CA]-CB--CG-[CD] |==|  0.77869
USER: genes 22 Torsion [CB]-CG--CD-[OE1] |==|  0.59751
ROOT
ATOM      1  CA  VAL B   5      18.406 -20.697   3.758  1.00 23.44 LIG 0.18  C 
ENDROOT
BRANCH 1 2
ATOM      2  CB  VAL B   5      18.760 -21.113   5.186  1.00 27.20 LIG 0.01  C 
ATOM      3  CG2 VAL B   5      18.006 -20.300   6.196  1.00 32.91 LIG 0.01  C 
ATOM      4  CG1 VAL B   5      20.252 -21.039   5.433  1.00 27.01 LIG 0.01  C 
ENDBRANCH 1 2
BRANCH 1 5
ATOM      5  C   VAL B   5      19.615 -20.883   2.849  1.00 21.98 LIG 0.24  C 
ATOM      6 O    VAL B   5      19.936 -19.987   2.073  1.00 26.26 LIG-0.27  OA
ATOM      7  N   SER B   6      20.256 -22.053   2.894  1.00 19.41 LIG-0.34  N 
ATOM      8 H    SER B   6      19.998 -22.708   3.388  1.00 19.41 LIG 0.16  HD
BRANCH 7 9
ATOM      9  CA  SER B   6      21.442 -22.346   2.121  1.00 20.84 LIG 0.20  C 
BRANCH 9 10
ATOM     10  C   SER B   6      21.255 -22.071   0.644  1.00 18.76 LIG 0.24  C 
ATOM     11 O    SER B   6      20.793 -22.903  -0.114  1.00 19.89 LIG-0.27  OA
ATOM     12  N   ALA B   7      21.719 -20.913   0.237  1.00 19.53 LIG-0.35  N 
ATOM     13 H    ALA B   7      22.070 -20.342   0.775  1.00 19.53 LIG 0.16  HD
BRANCH 12 14
ATOM     14  CA  ALA B   7      21.703 -20.457  -1.147  1.00 19.70 LIG 0.17  C 
ATOM     15  CB  ALA B   7      20.260 -20.499  -1.682  1.00 20.39 LIG 0.04  C 
BRANCH 14 16
ATOM     16  C   ALA B   7      22.203 -19.030  -1.286  1.00 16.34 LIG 0.24  C 
ATOM     17  N   VAL B   8      23.068 -18.588  -0.393  1.00 16.85 LIG-0.34  N 
ATOM     18 H    VAL B   8      23.308 -19.027   0.306  1.00 16.85 LIG 0.16  HD
ATOM     19 O    ALA B   7      21.847 -18.358  -2.233  1.00 20.16 LIG-0.27  OA
BRANCH 17 20
ATOM     20  CA  VAL B   8      23.702 -17.270  -0.536  1.00 17.28 LIG 0.19  C 
BRANCH 20 21
ATOM     21  C   VAL B   8      24.588 -17.020   0.678  1.00 17.19 LIG 0.20  C 
ATOM     22 O    VAL B   8      25.543 -16.214   0.594  1.00 24.30 LIG-0.65  OA
ATOM     23 OXT  VAL B   8      24.408 -17.637   1.753  1.00 16.53 LIG-0.65  OA
ENDBRANCH 20 21
BRANCH 20 24
ATOM     24  CB  VAL B   8      22.660 -16.122  -0.719  1.00 17.38 LIG 0.01  C 
ATOM     25  CG2 VAL B   8      22.937 -15.389  -2.027  1.00 18.61 LIG 0.01  C 
ATOM     26  CG1 VAL B   8      22.655 -15.208   0.477  1.00 19.61 LIG 0.01  C 
ENDBRANCH 20 24
ENDBRANCH 17 20
ENDBRANCH 14 16
ENDBRANCH 12 14
ENDBRANCH 9 10
BRANCH 9 27
ATOM     27  CB  SER B   6      21.842 -23.807   2.282  1.00 25.59 LIG 0.20  C 
BRANCH 27 28
ATOM     28 OG   SER B   6      22.216 -24.072   3.616  1.00 27.26 LIG-0.40  OA
ATOM     29 HG   SER B   6      21.580 -24.446   4.017  1.00 27.26 LIG 0.21  HD
ENDBRANCH 27 28
ENDBRANCH 9 27
ENDBRANCH 7 9
ENDBRANCH 1 5
BRANCH 1 30
ATOM     30  N   VAL B   5      17.347 -21.526   3.231  1.00 22.92 LIG-0.35  N 
ATOM     31 H    VAL B   5      16.796 -21.098   2.727  1.00 22.92 LIG 0.16  HD
ATOM     32  C   GLN B   4      17.228 -22.818   3.494  1.00 24.29 LIG 0.24  C 
ATOM     33 O    GLN B   4      18.010 -23.462   4.165  1.00 26.90 LIG-0.27  OA
BRANCH 32 34
ATOM     34  CA  GLN B   4      16.007 -23.496   2.868  1.00 30.52 LIG 0.18  C 
BRANCH 34 35
ATOM     35  CB  GLN B   4      16.474 -24.300   1.656  1.00 36.61 LIG 0.04  C 
BRANCH 35 36
ATOM     36  CG  GLN B   4      17.942 -24.093   1.323  1.00 50.94 LIG 0.10  C 
BRANCH 36 37
ATOM     37  CD  GLN B   4      18.611 -25.413   0.950  1.00 60.90 LIG 0.21  C 
ATOM     38  NE2 GLN B   4      19.795 -25.341   0.344  1.00 82.36 LIG-0.37  N 
ATOM     39 21HE GLN B   4      20.144 -24.574   0.173  1.00 82.36 LIG 0.16  HD
ATOM     40 22HE GLN B   4      20.209 -26.062   0.122  1.00 82.36 LIG 0.16  HD
ATOM     41 OE1  GLN B   4      18.066 -26.482   1.215  1.00 55.22 LIG-0.27  OA
ENDBRANCH 36 37
ENDBRANCH 35 36
ENDBRANCH 34 35
BRANCH 34 42
ATOM     42  N   GLN B   4      15.022 -22.508   2.473  1.00 37.98 LIG-0.35  N 
ATOM     43  C   GLU B   3      14.117 -22.032   3.322  1.00 56.89 LIG 0.26  C 
ATOM     44 O    GLU B   3      14.006 -22.441   4.469  1.00 56.58 LIG-0.27  OA
ATOM     45 H    GLN B   4      15.080 -22.264   1.651  1.00 37.98 LIG 0.16  HD
BRANCH 43 46
ATOM     46  CA  GLU B   3      13.194 -20.939   2.787  1.00 80.09 LIG 0.40  C 
ATOM     47  N   GLU B   3      11.837 -21.125   3.279  1.00 75.44 LIG 0.61  N 
BRANCH 46 48
ATOM     48  CB  GLU B   3      13.713 -19.566   3.202  1.00107.85 LIG 0.06  C 
BRANCH 48 49
ATOM     49  CG  GLU B   3      12.931 -18.417   2.613  1.00114.95 LIG 0.12  C 
BRANCH 49 50
ATOM     50  CD  GLU B   3      13.324 -18.131   1.177  1.00 96.82 LIG 0.17  C 
ATOM     51 OE1  GLU B   3      13.323 -16.942   0.778  1.00 91.15 LIG-0.65  OA
ATOM     52 OE2  GLU B   3      13.649 -19.096   0.446  1.00 91.13 LIG-0.65  OA
ENDBRANCH 49 50
ENDBRANCH 48 49
ENDBRANCH 46 48
ENDBRANCH 43 46
ENDBRANCH 34 42
ENDBRANCH 32 34
ENDBRANCH 1 30
TORSDOF 21
ENDMDL
MODEL 33
USER: ADFR SOLUTION from run 185
USER: SCORE 16.646593 LL:  -4.009 LR: -13.477 RR:   0.000 FEB:  -7.213
USER: RMSD 11.828351
USER: SEED 184
USER: STATUS searching
USER: GENES 23
USER: genes 0 Translation |==|  0.71596 0.54088 0.48798
USER: genes 1 Rotation |==|  0.61383 0.25624 0.92089 0.52169
USER: genes 2 Torsion [C]-CA--CB-[CG2] |==|  0.43349
USER: genes 3 Torsion [N]-CA--C-[N] |==|  0.37263
USER: genes 4 Torsion [C]-N--CA-[CB] |==|  0.52104
USER: genes 5 Torsion [N]-CA--C-[N] |==|  0.47656
USER: genes 6 Torsion [C]-N--CA-[CB] |==|  0.55000
USER: genes 7 Torsion [N]-CA--C-[N] |==|  0.41351
USER: genes 8 Torsion [C]-N--CA-[CB] |==|  0.45437
USER: genes 9 Torsion [N]-CA--C-[O] |==|  0.69869
USER: genes 10 Torsion [N]-CA--CB-[CG2] |==|  0.10622
USER: genes 11 Torsion [N]-CA--CB-[OG] |==|  0.88329
USER: genes 12 Torsion [CA]-CB--OG-[HG] |==|  0.32451
USER: genes 13 Torsion [CB]-CA--N-[C] |==|  0.85777
USER: genes 14 Torsion [N]-C--CA-[N] |==|  0.19540
USER: genes 15 Torsion [C]-CA--CB-[CG] |==|  0.12896
USER: genes 16 Torsion [CA]-CB--CG-[CD] |==|  0.15681
USER: genes 17 Torsion [CB]-CG--CD-[OE1] |==|  0.97922
USER: genes 18 Torsion [C]-CA--N-[C] |==|  0.75609
USER: genes 19 Torsion [N]-C--CA-[N] |==|  0.29603
USER: genes 20 Torsion [C]-CA--CB-[CG] |==|  0.12730
USER: genes 21 Torsion [CA]-CB--CG-[CD] |==|  0.16596
USER: genes 22 Torsion [CB]-CG--CD-[OE1] |==|  0.81702
ROOT
ATOM      1  CA  VAL B   5      18.672 -22.242   4.149  1.00 23.44 LIG 0.18  C 
ENDROOT
BRANCH 1 2
ATOM      2  CB  VAL B   5      18.989 -21.045   5.046  1.00 27.20 LIG 0.01  C 
ATOM      3  CG2 VAL B   5      19.813 -21.452   6.231  1.00 32.91 LIG 0.01  C 
ATOM      4  CG1 VAL B   5      17.729 -20.327   5.481  1.00 27.01 LIG 0.01  C 
ENDBRANCH 1 2
BRANCH 1 5
ATOM      5  C   VAL B   5      17.411 -21.962   3.339  1.00 21.98 LIG 0.24  C 
ATOM      6 O    VAL B   5      17.446 -21.145   2.423  1.00 26.26 LIG-0.27  OA
ATOM      7  N   SER B   6      16.287 -22.584   3.699  1.00 19.41 LIG-0.34  N 
ATOM      8 H    SER B   6      16.240 -23.108   4.379  1.00 19.41 LIG 0.16  HD
BRANCH 7 9
ATOM      9  CA  SER B   6      15.033 -22.446   2.991  1.00 20.84 LIG 0.20  C 
BRANCH 9 10
ATOM     10  C   SER B   6      14.645 -20.999   2.777  1.00 18.76 LIG 0.24  C 
ATOM     11 O    SER B   6      15.198 -20.088   3.366  1.00 19.89 LIG-0.27  OA
ATOM     12  N   ALA B   7      13.610 -20.817   1.991  1.00 19.53 LIG-0.35  N 
ATOM     13 H    ALA B   7      13.208 -21.469   1.600  1.00 19.53 LIG 0.16  HD
BRANCH 12 14
ATOM     14  CA  ALA B   7      13.022 -19.519   1.686  1.00 19.70 LIG 0.17  C 
ATOM     15  CB  ALA B   7      11.602 -19.721   1.126  1.00 20.39 LIG 0.04  C 
BRANCH 14 16
ATOM     16  C   ALA B   7      12.909 -18.637   2.916  1.00 16.34 LIG 0.24  C 
ATOM     17  N   VAL B   8      13.007 -17.331   2.752  1.00 16.85 LIG-0.34  N 
ATOM     18 H    VAL B   8      13.208 -16.951   2.007  1.00 16.85 LIG 0.16  HD
ATOM     19 O    ALA B   7      12.676 -19.139   3.997  1.00 20.16 LIG-0.27  OA
BRANCH 17 20
ATOM     20  CA  VAL B   8      12.773 -16.405   3.868  1.00 17.28 LIG 0.19  C 
BRANCH 20 21
ATOM     21  C   VAL B   8      11.278 -16.368   4.166  1.00 17.19 LIG 0.20  C 
ATOM     22 O    VAL B   8      10.612 -15.348   3.872  1.00 24.30 LIG-0.65  OA
ATOM     23 OXT  VAL B   8      10.706 -17.322   4.740  1.00 16.53 LIG-0.65  OA
ENDBRANCH 20 21
BRANCH 20 24
ATOM     24  CB  VAL B   8      13.327 -14.973   3.584  1.00 17.38 LIG 0.01  C 
ATOM     25  CG2 VAL B   8      13.086 -14.617   2.121  1.00 18.61 LIG 0.01  C 
ATOM     26  CG1 VAL B   8      14.775 -14.871   3.983  1.00 19.61 LIG 0.01  C 
ENDBRANCH 20 24
ENDBRANCH 17 20
ENDBRANCH 14 16
ENDBRANCH 12 14
ENDBRANCH 9 10
BRANCH 9 27
ATOM     27  CB  SER B   6      13.906 -23.129   3.754  1.00 25.59 LIG 0.20  C 
BRANCH 27 28
ATOM     28 OG   SER B   6      14.339 -24.370   4.266  1.00 27.26 LIG-0.40  OA
ATOM     29 HG   SER B   6      14.311 -24.352   5.106  1.00 27.26 LIG 0.21  HD
ENDBRANCH 27 28
ENDBRANCH 9 27
ENDBRANCH 7 9
ENDBRANCH 1 5
BRANCH 1 30
ATOM     30  N   VAL B   5      19.741 -22.471   3.205  1.00 22.92 LIG-0.35  N 
ATOM     31 H    VAL B   5      20.021 -23.284   3.196  1.00 22.92 LIG 0.16  HD
ATOM     32  C   GLN B   4      20.246 -21.527   2.426  1.00 24.29 LIG 0.24  C 
ATOM     33 O    GLN B   4      19.847 -20.380   2.381  1.00 26.90 LIG-0.27  OA
BRANCH 32 34
ATOM     34  CA  GLN B   4      21.404 -21.977   1.532  1.00 30.52 LIG 0.18  C 
BRANCH 34 35
ATOM     35  CB  GLN B   4      22.053 -20.734   0.925  1.00 36.61 LIG 0.04  C 
BRANCH 35 36
ATOM     36  CG  GLN B   4      22.309 -19.632   1.939  1.00 50.94 LIG 0.10  C 
BRANCH 36 37
ATOM     37  CD  GLN B   4      23.169 -20.137   3.094  1.00 60.90 LIG 0.21  C 
ATOM     38  NE2 GLN B   4      23.585 -19.233   3.978  1.00 82.36 LIG-0.37  N 
ATOM     39 21HE GLN B   4      23.374 -18.406   3.880  1.00 82.36 LIG 0.16  HD
ATOM     40 22HE GLN B   4      24.067 -19.477   4.648  1.00 82.36 LIG 0.16  HD
ATOM     41 OE1  GLN B   4      23.443 -21.331   3.187  1.00 55.22 LIG-0.27  OA
ENDBRANCH 36 37
ENDBRANCH 35 36
ENDBRANCH 34 35
BRANCH 34 42
ATOM     42  N   GLN B   4      20.926 -22.862   0.487  1.00 37.98 LIG-0.35  N 
ATOM     43  C   GLU B   3      20.827 -24.175   0.662  1.00 56.89 LIG 0.26  C 
ATOM     44 O    GLU B   3      21.193 -24.736   1.686  1.00 56.58 LIG-0.27  OA
ATOM     45 H    GLN B   4      20.718 -22.461  -0.245  1.00 37.98 LIG 0.16  HD
BRANCH 43 46
ATOM     46  CA  GLU B   3      20.234 -24.972  -0.499  1.00 80.09 LIG 0.40  C 
ATOM     47  N   GLU B   3      21.272 -25.725  -1.188  1.00 75.44 LIG 0.61  N 
BRANCH 46 48
ATOM     48  CB  GLU B   3      19.155 -25.921   0.013  1.00107.85 LIG 0.06  C 
BRANCH 48 49
ATOM     49  CG  GLU B   3      18.190 -25.278   0.981  1.00114.95 LIG 0.12  C 
BRANCH 49 50
ATOM     50  CD  GLU B   3      17.454 -24.105   0.364  1.00 96.82 LIG 0.17  C 
ATOM     51 OE1  GLU B   3      18.108 -23.084   0.045  1.00 91.15 LIG-0.65  OA
ATOM     52 OE2  GLU B   3      16.218 -24.208   0.184  1.00 91.13 LIG-0.65  OA
ENDBRANCH 49 50
ENDBRANCH 48 49
ENDBRANCH 46 48
ENDBRANCH 43 46
ENDBRANCH 34 42
ENDBRANCH 32 34
ENDBRANCH 1 30
TORSDOF 21
ENDMDL
MODEL 34
USER: ADFR SOLUTION from run 7
USER: SCORE 15.351667 LL:  -4.675 LR: -13.453 RR:   0.000 FEB:  -7.189
USER: RMSD 12.207807
USER: SEED 366655
USER: STATUS no improvement in best in 5 clusters for 5 generations
USER: GENES 23
USER: genes 0 Translation |==|  0.72018 0.57161 0.52362
USER: genes 1 Rotation |==|  0.31331 0.60004 0.05266 0.57090
USER: genes 2 Torsion [C]-CA--CB-[CG2] |==|  0.64681
USER: genes 3 Torsion [N]-CA--C-[N] |==|  0.78333
USER: genes 4 Torsion [C]-N--CA-[CB] |==|  0.84157
USER: genes 5 Torsion [N]-CA--C-[N] |==|  0.39773
USER: genes 6 Torsion [C]-N--CA-[CB] |==|  0.47735
USER: genes 7 Torsion [N]-CA--C-[N] |==|  0.90324
USER: genes 8 Torsion [C]-N--CA-[CB] |==|  0.20546
USER: genes 9 Torsion [N]-CA--C-[O] |==|  0.45124
USER: genes 10 Torsion [N]-CA--CB-[CG2] |==|  0.64538
USER: genes 11 Torsion [N]-CA--CB-[OG] |==|  0.38192
USER: genes 12 Torsion [CA]-CB--OG-[HG] |==|  0.28964
USER: genes 13 Torsion [CB]-CA--N-[C] |==|  0.22711
USER: genes 14 Torsion [N]-C--CA-[N] |==|  0.94120
USER: genes 15 Torsion [C]-CA--CB-[CG] |==|  0.37404
USER: genes 16 Torsion [CA]-CB--CG-[CD] |==|  0.54193
USER: genes 17 Torsion [CB]-CG--CD-[OE1] |==|  0.70708
USER: genes 18 Torsion [C]-CA--N-[C] |==|  0.78612
USER: genes 19 Torsion [N]-C--CA-[N] |==|  0.51754
USER: genes 20 Torsion [C]-CA--CB-[CG] |==|  0.20624
USER: genes 21 Torsion [CA]-CB--CG-[CD] |==|  0.64577
USER: genes 22 Torsion [CB]-CG--CD-[OE1] |==|  0.79253
ROOT
ATOM      1  CA  VAL B   5      18.798 -21.712   4.764  1.00 23.44 LIG 0.18  C 
ENDROOT
BRANCH 1 2
ATOM      2  CB  VAL B   5      18.326 -20.286   5.048  1.00 27.20 LIG 0.01  C 
ATOM      3  CG2 VAL B   5      19.237 -19.271   4.424  1.00 32.91 LIG 0.01  C 
ATOM      4  CG1 VAL B   5      18.170 -20.037   6.533  1.00 27.01 LIG 0.01  C 
ENDBRANCH 1 2
BRANCH 1 5
ATOM      5  C   VAL B   5      17.657 -22.526   4.164  1.00 21.98 LIG 0.24  C 
ATOM      6 O    VAL B   5      17.502 -23.696   4.503  1.00 26.26 LIG-0.27  OA
ATOM      7  N   SER B   6      16.893 -21.942   3.238  1.00 19.41 LIG-0.34  N 
ATOM      8 H    SER B   6      17.036 -21.145   2.949  1.00 19.41 LIG 0.16  HD
BRANCH 7 9
ATOM      9  CA  SER B   6      15.752 -22.583   2.624  1.00 20.84 LIG 0.20  C 
BRANCH 9 10
ATOM     10  C   SER B   6      14.651 -22.883   3.618  1.00 18.76 LIG 0.24  C 
ATOM     11 O    SER B   6      14.886 -23.320   4.730  1.00 19.89 LIG-0.27  OA
ATOM     12  N   ALA B   7      13.433 -22.732   3.153  1.00 19.53 LIG-0.35  N 
ATOM     13 H    ALA B   7      13.276 -22.449   2.356  1.00 19.53 LIG 0.16  HD
BRANCH 12 14
ATOM     14  CA  ALA B   7      12.219 -23.017   3.907  1.00 19.70 LIG 0.17  C 
ATOM     15  CB  ALA B   7      10.996 -22.528   3.110  1.00 20.39 LIG 0.04  C 
BRANCH 14 16
ATOM     16  C   ALA B   7      12.037 -24.502   4.162  1.00 16.34 LIG 0.24  C 
ATOM     17  N   VAL B   8      12.437 -25.344   3.227  1.00 16.85 LIG-0.34  N 
ATOM     18 H    VAL B   8      12.721 -25.105   2.452  1.00 16.85 LIG 0.16  HD
ATOM     19 O    ALA B   7      11.590 -24.879   5.226  1.00 20.16 LIG-0.27  OA
BRANCH 17 20
ATOM     20  CA  VAL B   8      12.422 -26.795   3.454  1.00 17.28 LIG 0.19  C 
BRANCH 20 21
ATOM     21  C   VAL B   8      13.319 -27.461   2.417  1.00 17.19 LIG 0.20  C 
ATOM     22 O    VAL B   8      13.722 -28.632   2.606  1.00 24.30 LIG-0.65  OA
ATOM     23 OXT  VAL B   8      13.697 -26.846   1.394  1.00 16.53 LIG-0.65  OA
ENDBRANCH 20 21
BRANCH 20 24
ATOM     24  CB  VAL B   8      10.980 -27.391   3.419  1.00 17.38 LIG 0.01  C 
ATOM     25  CG2 VAL B   8      10.737 -28.209   4.683  1.00 18.61 LIG 0.01  C 
ATOM     26  CG1 VAL B   8      10.759 -28.181   2.156  1.00 19.61 LIG 0.01  C 
ENDBRANCH 20 24
ENDBRANCH 17 20
ENDBRANCH 14 16
ENDBRANCH 12 14
ENDBRANCH 9 10
BRANCH 9 27
ATOM     27  CB  SER B   6      16.162 -23.893   1.964  1.00 25.59 LIG 0.20  C 
BRANCH 27 28
ATOM     28 OG   SER B   6      15.208 -24.899   2.228  1.00 27.26 LIG-0.40  OA
ATOM     29 HG   SER B   6      14.739 -25.027   1.543  1.00 27.26 LIG 0.21  HD
ENDBRANCH 27 28
ENDBRANCH 9 27
ENDBRANCH 7 9
ENDBRANCH 1 5
BRANCH 1 30
ATOM     30  N   VAL B   5      19.873 -21.712   3.798  1.00 22.92 LIG-0.35  N 
ATOM     31 H    VAL B   5      19.612 -21.882   2.996  1.00 22.92 LIG 0.16  HD
ATOM     32  C   GLN B   4      21.138 -21.475   4.109  1.00 24.29 LIG 0.24  C 
ATOM     33 O    GLN B   4      21.535 -21.190   5.222  1.00 26.90 LIG-0.27  OA
BRANCH 32 34
ATOM     34  CA  GLN B   4      22.120 -21.567   2.939  1.00 30.52 LIG 0.18  C 
BRANCH 34 35
ATOM     35  CB  GLN B   4      22.426 -20.151   2.456  1.00 36.61 LIG 0.04  C 
BRANCH 35 36
ATOM     36  CG  GLN B   4      23.904 -19.901   2.213  1.00 50.94 LIG 0.10  C 
BRANCH 36 37
ATOM     37  CD  GLN B   4      24.197 -18.408   2.098  1.00 60.90 LIG 0.21  C 
ATOM     38  NE2 GLN B   4      24.193 -17.702   3.228  1.00 82.36 LIG-0.37  N 
ATOM     39 21HE GLN B   4      24.024 -18.090   3.976  1.00 82.36 LIG 0.16  HD
ATOM     40 22HE GLN B   4      24.360 -16.858   3.209  1.00 82.36 LIG 0.16  HD
ATOM     41 OE1  GLN B   4      24.432 -17.904   1.003  1.00 55.22 LIG-0.27  OA
ENDBRANCH 36 37
ENDBRANCH 35 36
ENDBRANCH 34 35
BRANCH 34 42
ATOM     42  N   GLN B   4      21.558 -22.361   1.864  1.00 37.98 LIG-0.35  N 
ATOM     43  C   GLU B   3      21.511 -23.688   1.914  1.00 56.89 LIG 0.26  C 
ATOM     44 O    GLU B   3      21.996 -24.334   2.832  1.00 56.58 LIG-0.27  OA
ATOM     45 H    GLN B   4      21.264 -21.897   1.202  1.00 37.98 LIG 0.16  HD
BRANCH 43 46
ATOM     46  CA  GLU B   3      20.820 -24.386   0.744  1.00 80.09 LIG 0.40  C 
ATOM     47  N   GLU B   3      20.706 -25.817   0.993  1.00 75.44 LIG 0.61  N 
BRANCH 46 48
ATOM     48  CB  GLU B   3      19.436 -23.786   0.519  1.00107.85 LIG 0.06  C 
BRANCH 48 49
ATOM     49  CG  GLU B   3      19.463 -22.421  -0.125  1.00114.95 LIG 0.12  C 
BRANCH 49 50
ATOM     50  CD  GLU B   3      18.661 -21.400   0.659  1.00 96.82 LIG 0.17  C 
ATOM     51 OE1  GLU B   3      17.409 -21.447   0.603  1.00 91.15 LIG-0.65  OA
ATOM     52 OE2  GLU B   3      19.283 -20.556   1.345  1.00 91.13 LIG-0.65  OA
ENDBRANCH 49 50
ENDBRANCH 48 49
ENDBRANCH 46 48
ENDBRANCH 43 46
ENDBRANCH 34 42
ENDBRANCH 32 34
ENDBRANCH 1 30
TORSDOF 21
ENDMDL
MODEL 35
USER: ADFR SOLUTION from run 52
USER: SCORE 15.817025 LL:  -4.229 LR: -13.442 RR:   0.000 FEB:  -7.178
USER: RMSD 9.436900
USER: SEED 51
USER: STATUS no improvement in best in 9 clusters for 5 generations
USER: GENES 23
USER: genes 0 Translation |==|  0.70717 0.61737 0.45905
USER: genes 1 Rotation |==|  0.10631 0.37090 0.56046 0.77328
USER: genes 2 Torsion [C]-CA--CB-[CG2] |==|  0.27447
USER: genes 3 Torsion [N]-CA--C-[N] |==|  0.53244
USER: genes 4 Torsion [C]-N--CA-[CB] |==|  0.87137
USER: genes 5 Torsion [N]-CA--C-[N] |==|  0.89391
USER: genes 6 Torsion [C]-N--CA-[CB] |==|  0.48926
USER: genes 7 Torsion [N]-CA--C-[N] |==|  0.44984
USER: genes 8 Torsion [C]-N--CA-[CB] |==|  0.84923
USER: genes 9 Torsion [N]-CA--C-[O] |==|  0.37643
USER: genes 10 Torsion [N]-CA--CB-[CG2] |==|  0.81586
USER: genes 11 Torsion [N]-CA--CB-[OG] |==|  0.24523
USER: genes 12 Torsion [CA]-CB--OG-[HG] |==|  0.68142
USER: genes 13 Torsion [CB]-CA--N-[C] |==|  0.82625
USER: genes 14 Torsion [N]-C--CA-[N] |==|  0.86230
USER: genes 15 Torsion [C]-CA--CB-[CG] |==|  0.05605
USER: genes 16 Torsion [CA]-CB--CG-[CD] |==|  0.67295
USER: genes 17 Torsion [CB]-CG--CD-[OE1] |==|  0.19790
USER: genes 18 Torsion [C]-CA--N-[C] |==|  0.85262
USER: genes 19 Torsion [N]-C--CA-[N] |==|  0.74598
USER: genes 20 Torsion [C]-CA--CB-[CG] |==|  0.66246
USER: genes 21 Torsion [CA]-CB--CG-[CD] |==|  0.19174
USER: genes 22 Torsion [CB]-CG--CD-[OE1] |==|  0.11210
ROOT
ATOM      1  CA  VAL B   5      18.408 -20.922   3.650  1.00 23.44 LIG 0.18  C 
ENDROOT
BRANCH 1 2
ATOM      2  CB  VAL B   5      18.194 -20.993   5.162  1.00 27.20 LIG 0.01  C 
ATOM      3  CG2 VAL B   5      18.555 -19.699   5.828  1.00 32.91 LIG 0.01  C 
ATOM      4  CG1 VAL B   5      18.950 -22.151   5.777  1.00 27.01 LIG 0.01  C 
ENDBRANCH 1 2
BRANCH 1 5
ATOM      5  C   VAL B   5      19.743 -21.563   3.285  1.00 21.98 LIG 0.24  C 
ATOM      6 O    VAL B   5      19.787 -22.414   2.401  1.00 26.26 LIG-0.27  OA
ATOM      7  N   SER B   6      20.819 -21.209   3.991  1.00 19.41 LIG-0.34  N 
ATOM      8 H    SER B   6      20.783 -20.662   4.654  1.00 19.41 LIG 0.16  HD
BRANCH 7 9
ATOM      9  CA  SER B   6      22.151 -21.703   3.721  1.00 20.84 LIG 0.20  C 
BRANCH 9 10
ATOM     10  C   SER B   6      22.766 -21.071   2.491  1.00 18.76 LIG 0.24  C 
ATOM     11 O    SER B   6      23.924 -20.698   2.468  1.00 19.89 LIG-0.27  OA
ATOM     12  N   ALA B   7      21.931 -20.868   1.500  1.00 19.53 LIG-0.35  N 
ATOM     13 H    ALA B   7      21.106 -21.110   1.535  1.00 19.53 LIG 0.16  HD
BRANCH 12 14
ATOM     14  CA  ALA B   7      22.282 -20.223   0.241  1.00 19.70 LIG 0.17  C 
ATOM     15  CB  ALA B   7      21.068 -20.255  -0.705  1.00 20.39 LIG 0.04  C 
BRANCH 14 16
ATOM     16  C   ALA B   7      22.677 -18.770   0.432  1.00 16.34 LIG 0.24  C 
ATOM     17  N   VAL B   8      23.354 -18.181  -0.536  1.00 16.85 LIG-0.34  N 
ATOM     18 H    VAL B   8      23.652 -18.586  -1.233  1.00 16.85 LIG 0.16  HD
ATOM     19 O    ALA B   7      22.318 -18.175   1.428  1.00 20.16 LIG-0.27  OA
BRANCH 17 20
ATOM     20  CA  VAL B   8      23.653 -16.743  -0.487  1.00 17.28 LIG 0.19  C 
BRANCH 20 21
ATOM     21  C   VAL B   8      24.666 -16.493   0.624  1.00 17.19 LIG 0.20  C 
ATOM     22 O    VAL B   8      25.640 -15.734   0.416  1.00 24.30 LIG-0.65  OA
ATOM     23 OXT  VAL B   8      24.568 -17.065   1.734  1.00 16.53 LIG-0.65  OA
ENDBRANCH 20 21
BRANCH 20 24
ATOM     24  CB  VAL B   8      22.373 -15.872  -0.290  1.00 17.38 LIG 0.01  C 
ATOM     25  CG2 VAL B   8      21.483 -15.992  -1.522  1.00 18.61 LIG 0.01  C 
ATOM     26  CG1 VAL B   8      22.740 -14.448   0.033  1.00 19.61 LIG 0.01  C 
ENDBRANCH 20 24
ENDBRANCH 17 20
ENDBRANCH 14 16
ENDBRANCH 12 14
ENDBRANCH 9 10
BRANCH 9 27
ATOM     27  CB  SER B   6      22.132 -23.212   3.517  1.00 25.59 LIG 0.20  C 
BRANCH 27 28
ATOM     28 OG   SER B   6      21.891 -23.524   2.163  1.00 27.26 LIG-0.40  OA
ATOM     29 HG   SER B   6      21.152 -23.917   2.093  1.00 27.26 LIG 0.21  HD
ENDBRANCH 27 28
ENDBRANCH 9 27
ENDBRANCH 7 9
ENDBRANCH 1 5
BRANCH 1 30
ATOM     30  N   VAL B   5      17.379 -21.658   2.951  1.00 22.92 LIG-0.35  N 
ATOM     31 H    VAL B   5      16.894 -21.165   2.439  1.00 22.92 LIG 0.16  HD
ATOM     32  C   GLN B   4      17.194 -22.962   3.082  1.00 24.29 LIG 0.24  C 
ATOM     33 O    GLN B   4      17.885 -23.695   3.762  1.00 26.90 LIG-0.27  OA
BRANCH 32 34
ATOM     34  CA  GLN B   4      16.018 -23.531   2.284  1.00 30.52 LIG 0.18  C 
BRANCH 34 35
ATOM     35  CB  GLN B   4      16.393 -23.518   0.803  1.00 36.61 LIG 0.04  C 
BRANCH 35 36
ATOM     36  CG  GLN B   4      17.890 -23.438   0.560  1.00 50.94 LIG 0.10  C 
BRANCH 36 37
ATOM     37  CD  GLN B   4      18.257 -22.160  -0.188  1.00 60.90 LIG 0.21  C 
ATOM     38  NE2 GLN B   4      18.629 -22.289  -1.461  1.00 82.36 LIG-0.37  N 
ATOM     39 21HE GLN B   4      18.662 -23.068  -1.822  1.00 82.36 LIG 0.16  HD
ATOM     40 22HE GLN B   4      18.838 -21.592  -1.921  1.00 82.36 LIG 0.16  HD
ATOM     41 OE1  GLN B   4      18.194 -21.070   0.377  1.00 55.22 LIG-0.27  OA
ENDBRANCH 36 37
ENDBRANCH 35 36
ENDBRANCH 34 35
BRANCH 34 42
ATOM     42  N   GLN B   4      14.821 -22.748   2.512  1.00 37.98 LIG-0.35  N 
ATOM     43  C   GLU B   3      14.366 -22.489   3.734  1.00 56.89 LIG 0.26  C 
ATOM     44 O    GLU B   3      14.882 -22.947   4.744  1.00 56.58 LIG-0.27  OA
ATOM     45 H    GLN B   4      14.439 -22.471   1.793  1.00 37.98 LIG 0.16  HD
BRANCH 43 46
ATOM     46  CA  GLU B   3      13.138 -21.585   3.824  1.00 80.09 LIG 0.40  C 
ATOM     47  N   GLU B   3      13.535 -20.190   3.958  1.00 75.44 LIG 0.61  N 
BRANCH 46 48
ATOM     48  CB  GLU B   3      12.267 -21.760   2.584  1.00107.85 LIG 0.06  C 
BRANCH 48 49
ATOM     49  CG  GLU B   3      12.047 -20.482   1.810  1.00114.95 LIG 0.12  C 
BRANCH 49 50
ATOM     50  CD  GLU B   3      13.314 -19.997   1.132  1.00 96.82 LIG 0.17  C 
ATOM     51 OE1  GLU B   3      14.070 -20.840   0.595  1.00 91.15 LIG-0.65  OA
ATOM     52 OE2  GLU B   3      13.549 -18.766   1.124  1.00 91.13 LIG-0.65  OA
ENDBRANCH 49 50
ENDBRANCH 48 49
ENDBRANCH 46 48
ENDBRANCH 43 46
ENDBRANCH 34 42
ENDBRANCH 32 34
ENDBRANCH 1 30
TORSDOF 21
ENDMDL
MODEL 36
USER: ADFR SOLUTION from run 19
USER: SCORE 15.698505 LL:  -3.854 LR: -13.421 RR:   0.000 FEB:  -7.157
USER: RMSD 12.880531
USER: SEED 18
USER: STATUS no improvement in best in 20 clusters for 5 generations
USER: GENES 23
USER: genes 0 Translation |==|  0.69439 0.56158 0.48654
USER: genes 1 Rotation |==|  0.66736 0.30678 0.92099 0.58613
USER: genes 2 Torsion [C]-CA--CB-[CG2] |==|  0.55874
USER: genes 3 Torsion [N]-CA--C-[N] |==|  0.43127
USER: genes 4 Torsion [C]-N--CA-[CB] |==|  0.86664
USER: genes 5 Torsion [N]-CA--C-[N] |==|  0.87082
USER: genes 6 Torsion [C]-N--CA-[CB] |==|  0.52932
USER: genes 7 Torsion [N]-CA--C-[N] |==|  0.45316
USER: genes 8 Torsion [C]-N--CA-[CB] |==|  0.31701
USER: genes 9 Torsion [N]-CA--C-[O] |==|  0.87182
USER: genes 10 Torsion [N]-CA--CB-[CG2] |==|  0.77210
USER: genes 11 Torsion [N]-CA--CB-[OG] |==|  0.59438
USER: genes 12 Torsion [CA]-CB--OG-[HG] |==|  0.99441
USER: genes 13 Torsion [CB]-CA--N-[C] |==|  0.86052
USER: genes 14 Torsion [N]-C--CA-[N] |==|  0.65774
USER: genes 15 Torsion [C]-CA--CB-[CG] |==|  0.70572
USER: genes 16 Torsion [CA]-CB--CG-[CD] |==|  0.17053
USER: genes 17 Torsion [CB]-CG--CD-[OE1] |==|  0.69800
USER: genes 18 Torsion [C]-CA--N-[C] |==|  0.68677
USER: genes 19 Torsion [N]-C--CA-[N] |==|  0.45554
USER: genes 20 Torsion [C]-CA--CB-[CG] |==|  0.19980
USER: genes 21 Torsion [CA]-CB--CG-[CD] |==|  0.24773
USER: genes 22 Torsion [CB]-CG--CD-[OE1] |==|  0.68919
ROOT
ATOM      1  CA  VAL B   5      18.025 -21.885   4.124  1.00 23.44 LIG 0.18  C 
ENDROOT
BRANCH 1 2
ATOM      2  CB  VAL B   5      18.645 -20.567   4.589  1.00 27.20 LIG 0.01  C 
ATOM      3  CG2 VAL B   5      20.143 -20.618   4.537  1.00 32.91 LIG 0.01  C 
ATOM      4  CG1 VAL B   5      18.162 -20.182   5.971  1.00 27.01 LIG 0.01  C 
ENDBRANCH 1 2
BRANCH 1 5
ATOM      5  C   VAL B   5      16.582 -21.653   3.690  1.00 21.98 LIG 0.24  C 
ATOM      6 O    VAL B   5      16.332 -21.415   2.512  1.00 26.26 LIG-0.27  OA
ATOM      7  N   SER B   6      15.637 -21.661   4.633  1.00 19.41 LIG-0.34  N 
ATOM      8 H    SER B   6      15.813 -21.762   5.469  1.00 19.41 LIG 0.16  HD
BRANCH 7 9
ATOM      9  CA  SER B   6      14.227 -21.501   4.355  1.00 20.84 LIG 0.20  C 
BRANCH 9 10
ATOM     10  C   SER B   6      13.621 -22.727   3.708  1.00 18.76 LIG 0.24  C 
ATOM     11 O    SER B   6      12.611 -23.253   4.140  1.00 19.89 LIG-0.27  OA
ATOM     12  N   ALA B   7      14.319 -23.230   2.718  1.00 19.53 LIG-0.35  N 
ATOM     13 H    ALA B   7      15.047 -22.868   2.436  1.00 19.53 LIG 0.16  HD
BRANCH 12 14
ATOM     14  CA  ALA B   7      13.964 -24.438   1.984  1.00 19.70 LIG 0.17  C 
ATOM     15  CB  ALA B   7      15.142 -24.856   1.086  1.00 20.39 LIG 0.04  C 
BRANCH 14 16
ATOM     16  C   ALA B   7      13.655 -25.601   2.909  1.00 16.34 LIG 0.24  C 
ATOM     17  N   VAL B   8      13.003 -26.634   2.409  1.00 16.85 LIG-0.34  N 
ATOM     18 H    VAL B   8      12.672 -26.658   1.615  1.00 16.85 LIG 0.16  HD
ATOM     19 O    ALA B   7      14.061 -25.583   4.053  1.00 20.16 LIG-0.27  OA
BRANCH 17 20
ATOM     20  CA  VAL B   8      12.788 -27.853   3.200  1.00 17.28 LIG 0.19  C 
BRANCH 20 21
ATOM     21  C   VAL B   8      13.387 -29.035   2.448  1.00 17.19 LIG 0.20  C 
ATOM     22 O    VAL B   8      13.163 -29.169   1.223  1.00 24.30 LIG-0.65  OA
ATOM     23 OXT  VAL B   8      14.068 -29.904   3.039  1.00 16.53 LIG-0.65  OA
ENDBRANCH 20 21
BRANCH 20 24
ATOM     24  CB  VAL B   8      11.281 -28.097   3.524  1.00 17.38 LIG 0.01  C 
ATOM     25  CG2 VAL B   8      10.878 -27.256   4.731  1.00 18.61 LIG 0.01  C 
ATOM     26  CG1 VAL B   8      11.006 -29.565   3.714  1.00 19.61 LIG 0.01  C 
ENDBRANCH 20 24
ENDBRANCH 17 20
ENDBRANCH 14 16
ENDBRANCH 12 14
ENDBRANCH 9 10
BRANCH 9 27
ATOM     27  CB  SER B   6      13.994 -20.315   3.428  1.00 25.59 LIG 0.20  C 
BRANCH 27 28
ATOM     28 OG   SER B   6      12.775 -19.678   3.739  1.00 27.26 LIG-0.40  OA
ATOM     29 HG   SER B   6      12.393 -20.092   4.363  1.00 27.26 LIG 0.21  HD
ENDBRANCH 27 28
ENDBRANCH 9 27
ENDBRANCH 7 9
ENDBRANCH 1 5
BRANCH 1 30
ATOM     30  N   VAL B   5      18.734 -22.408   2.979  1.00 22.92 LIG-0.35  N 
ATOM     31 H    VAL B   5      18.960 -23.234   3.065  1.00 22.92 LIG 0.16  HD
ATOM     32  C   GLN B   4      19.012 -21.694   1.900  1.00 24.29 LIG 0.24  C 
ATOM     33 O    GLN B   4      18.672 -20.540   1.727  1.00 26.90 LIG-0.27  OA
BRANCH 32 34
ATOM     34  CA  GLN B   4      19.810 -22.433   0.823  1.00 30.52 LIG 0.18  C 
BRANCH 34 35
ATOM     35  CB  GLN B   4      20.119 -23.839   1.335  1.00 36.61 LIG 0.04  C 
BRANCH 35 36
ATOM     36  CG  GLN B   4      21.568 -24.025   1.751  1.00 50.94 LIG 0.10  C 
BRANCH 36 37
ATOM     37  CD  GLN B   4      21.936 -23.084   2.895  1.00 60.90 LIG 0.21  C 
ATOM     38  NE2 GLN B   4      21.422 -23.358   4.093  1.00 82.36 LIG-0.37  N 
ATOM     39 21HE GLN B   4      20.903 -24.036   4.193  1.00 82.36 LIG 0.16  HD
ATOM     40 22HE GLN B   4      21.609 -22.857   4.766  1.00 82.36 LIG 0.16  HD
ATOM     41 OE1  GLN B   4      22.682 -22.128   2.697  1.00 55.22 LIG-0.27  OA
ENDBRANCH 36 37
ENDBRANCH 35 36
ENDBRANCH 34 35
BRANCH 34 42
ATOM     42  N   GLN B   4      21.036 -21.722   0.519  1.00 37.98 LIG-0.35  N 
ATOM     43  C   GLU B   3      21.245 -21.141  -0.658  1.00 56.89 LIG 0.26  C 
ATOM     44 O    GLU B   3      20.453 -21.223  -1.586  1.00 56.58 LIG-0.27  OA
ATOM     45 H    GLN B   4      21.606 -21.713   1.164  1.00 37.98 LIG 0.16  HD
BRANCH 43 46
ATOM     46  CA  GLU B   3      22.550 -20.361  -0.807  1.00 80.09 LIG 0.40  C 
ATOM     47  N   GLU B   3      22.836 -20.102  -2.211  1.00 75.44 LIG 0.61  N 
BRANCH 46 48
ATOM     48  CB  GLU B   3      22.464 -19.044  -0.043  1.00107.85 LIG 0.06  C 
BRANCH 48 49
ATOM     49  CG  GLU B   3      22.508 -19.209   1.458  1.00114.95 LIG 0.12  C 
BRANCH 49 50
ATOM     50  CD  GLU B   3      23.925 -19.184   1.998  1.00 96.82 LIG 0.17  C 
ATOM     51 OE1  GLU B   3      24.404 -20.238   2.479  1.00 91.15 LIG-0.65  OA
ATOM     52 OE2  GLU B   3      24.568 -18.111   1.928  1.00 91.13 LIG-0.65  OA
ENDBRANCH 49 50
ENDBRANCH 48 49
ENDBRANCH 46 48
ENDBRANCH 43 46
ENDBRANCH 34 42
ENDBRANCH 32 34
ENDBRANCH 1 30
TORSDOF 21
ENDMDL
MODEL 37
USER: ADFR SOLUTION from run 21
USER: SCORE 15.309170 LL:  -3.952 LR: -13.414 RR:   0.000 FEB:  -7.150
USER: RMSD 12.068008
USER: SEED 20
USER: STATUS no improvement in best in 9 clusters for 5 generations
USER: GENES 23
USER: genes 0 Translation |==|  0.71464 0.53149 0.51282
USER: genes 1 Rotation |==|  0.62836 0.19695 0.87575 0.52233
USER: genes 2 Torsion [C]-CA--CB-[CG2] |==|  0.93639
USER: genes 3 Torsion [N]-CA--C-[N] |==|  0.38553
USER: genes 4 Torsion [C]-N--CA-[CB] |==|  0.14520
USER: genes 5 Torsion [N]-CA--C-[N] |==|  0.41481
USER: genes 6 Torsion [C]-N--CA-[CB] |==|  0.56009
USER: genes 7 Torsion [N]-CA--C-[N] |==|  0.36111
USER: genes 8 Torsion [C]-N--CA-[CB] |==|  0.23979
USER: genes 9 Torsion [N]-CA--C-[O] |==|  0.54143
USER: genes 10 Torsion [N]-CA--CB-[CG2] |==|  0.05315
USER: genes 11 Torsion [N]-CA--CB-[OG] |==|  0.60312
USER: genes 12 Torsion [CA]-CB--OG-[HG] |==|  0.61467
USER: genes 13 Torsion [CB]-CA--N-[C] |==|  0.84728
USER: genes 14 Torsion [N]-C--CA-[N] |==|  0.14981
USER: genes 15 Torsion [C]-CA--CB-[CG] |==|  0.33163
USER: genes 16 Torsion [CA]-CB--CG-[CD] |==|  0.87799
USER: genes 17 Torsion [CB]-CG--CD-[OE1] |==|  0.18605
USER: genes 18 Torsion [C]-CA--N-[C] |==|  0.76080
USER: genes 19 Torsion [N]-C--CA-[N] |==|  0.39410
USER: genes 20 Torsion [C]-CA--CB-[CG] |==|  0.10829
USER: genes 21 Torsion [CA]-CB--CG-[CD] |==|  0.16905
USER: genes 22 Torsion [CB]-CG--CD-[OE1] |==|  0.55339
ROOT
ATOM      1  CA  VAL B   5      18.632 -22.404   4.577  1.00 23.44 LIG 0.18  C 
ENDROOT
BRANCH 1 2
ATOM      2  CB  VAL B   5      19.071 -21.524   5.748  1.00 27.20 LIG 0.01  C 
ATOM      3  CG2 VAL B   5      18.475 -20.151   5.656  1.00 32.91 LIG 0.01  C 
ATOM      4  CG1 VAL B   5      20.579 -21.455   5.858  1.00 27.01 LIG 0.01  C 
ENDBRANCH 1 2
BRANCH 1 5
ATOM      5  C   VAL B   5      17.329 -21.873   3.991  1.00 21.98 LIG 0.24  C 
ATOM      6 O    VAL B   5      17.346 -20.876   3.275  1.00 26.26 LIG-0.27  OA
ATOM      7  N   SER B   6      16.195 -22.490   4.330  1.00 19.41 LIG-0.34  N 
ATOM      8 H    SER B   6      16.169 -23.149   4.882  1.00 19.41 LIG 0.16  HD
BRANCH 7 9
ATOM      9  CA  SER B   6      14.897 -22.121   3.811  1.00 20.84 LIG 0.20  C 
BRANCH 9 10
ATOM     10  C   SER B   6      13.808 -23.083   4.232  1.00 18.76 LIG 0.24  C 
ATOM     11 O    SER B   6      14.011 -24.278   4.346  1.00 19.89 LIG-0.27  OA
ATOM     12  N   ALA B   7      12.618 -22.546   4.366  1.00 19.53 LIG-0.35  N 
ATOM     13 H    ALA B   7      12.478 -21.704   4.257  1.00 19.53 LIG 0.16  HD
BRANCH 12 14
ATOM     14  CA  ALA B   7      11.410 -23.285   4.707  1.00 19.70 LIG 0.17  C 
ATOM     15  CB  ALA B   7      10.176 -22.483   4.256  1.00 20.39 LIG 0.04  C 
BRANCH 14 16
ATOM     16  C   ALA B   7      11.353 -24.639   4.023  1.00 16.34 LIG 0.24  C 
ATOM     17  N   VAL B   8      11.093 -25.697   4.766  1.00 16.85 LIG-0.34  N 
ATOM     18 H    VAL B   8      11.029 -25.682   5.624  1.00 16.85 LIG 0.16  HD
ATOM     19 O    ALA B   7      11.489 -24.710   2.818  1.00 20.16 LIG-0.27  OA
BRANCH 17 20
ATOM     20  CA  VAL B   8      10.885 -27.020   4.160  1.00 17.28 LIG 0.19  C 
BRANCH 20 21
ATOM     21  C   VAL B   8       9.930 -27.816   5.041  1.00 17.19 LIG 0.20  C 
ATOM     22 O    VAL B   8       9.825 -29.054   4.881  1.00 24.30 LIG-0.65  OA
ATOM     23 OXT  VAL B   8       9.211 -27.252   5.897  1.00 16.53 LIG-0.65  OA
ENDBRANCH 20 21
BRANCH 20 24
ATOM     24  CB  VAL B   8      12.224 -27.792   3.939  1.00 17.38 LIG 0.01  C 
ATOM     25  CG2 VAL B   8      13.310 -27.189   4.823  1.00 18.61 LIG 0.01  C 
ATOM     26  CG1 VAL B   8      12.596 -27.809   2.480  1.00 19.61 LIG 0.01  C 
ENDBRANCH 20 24
ENDBRANCH 17 20
ENDBRANCH 14 16
ENDBRANCH 12 14
ENDBRANCH 9 10
BRANCH 9 27
ATOM     27  CB  SER B   6      14.921 -22.072   2.289  1.00 25.59 LIG 0.20  C 
BRANCH 27 28
ATOM     28 OG   SER B   6      14.120 -21.012   1.816  1.00 27.26 LIG-0.40  OA
ATOM     29 HG   SER B   6      13.684 -21.268   1.145  1.00 27.26 LIG 0.21  HD
ENDBRANCH 27 28
ENDBRANCH 9 27
ENDBRANCH 7 9
ENDBRANCH 1 5
BRANCH 1 30
ATOM     30  N   VAL B   5      19.616 -22.377   3.520  1.00 22.92 LIG-0.35  N 
ATOM     31 H    VAL B   5      19.894 -23.158   3.291  1.00 22.92 LIG 0.16  HD
ATOM     32  C   GLN B   4      20.052 -21.263   2.952  1.00 24.29 LIG 0.24  C 
ATOM     33 O    GLN B   4      19.651 -20.148   3.220  1.00 26.90 LIG-0.27  OA
BRANCH 32 34
ATOM     34  CA  GLN B   4      21.128 -21.460   1.882  1.00 30.52 LIG 0.18  C 
BRANCH 34 35
ATOM     35  CB  GLN B   4      21.429 -20.103   1.249  1.00 36.61 LIG 0.04  C 
BRANCH 35 36
ATOM     36  CG  GLN B   4      22.873 -19.664   1.420  1.00 50.94 LIG 0.10  C 
BRANCH 36 37
ATOM     37  CD  GLN B   4      23.360 -19.923   2.843  1.00 60.90 LIG 0.21  C 
ATOM     38  NE2 GLN B   4      23.621 -18.856   3.596  1.00 82.36 LIG-0.37  N 
ATOM     39 21HE GLN B   4      23.520 -18.066   3.272  1.00 82.36 LIG 0.16  HD
ATOM     40 22HE GLN B   4      23.892 -18.957   4.406  1.00 82.36 LIG 0.16  HD
ATOM     41 OE1  GLN B   4      23.488 -21.073   3.256  1.00 55.22 LIG-0.27  OA
ENDBRANCH 36 37
ENDBRANCH 35 36
ENDBRANCH 34 35
BRANCH 34 42
ATOM     42  N   GLN B   4      20.678 -22.402   0.875  1.00 37.98 LIG-0.35  N 
ATOM     43  C   GLU B   3      20.829 -23.715   1.015  1.00 56.89 LIG 0.26  C 
ATOM     44 O    GLU B   3      21.416 -24.216   1.965  1.00 56.58 LIG-0.27  OA
ATOM     45 H    GLN B   4      20.310 -22.034   0.190  1.00 37.98 LIG 0.16  HD
BRANCH 43 46
ATOM     46  CA  GLU B   3      20.237 -24.588  -0.089  1.00 80.09 LIG 0.40  C 
ATOM     47  N   GLU B   3      21.107 -25.721  -0.371  1.00 75.44 LIG 0.61  N 
BRANCH 46 48
ATOM     48  CB  GLU B   3      18.854 -25.084   0.320  1.00107.85 LIG 0.06  C 
BRANCH 48 49
ATOM     49  CG  GLU B   3      18.030 -24.052   1.053  1.00114.95 LIG 0.12  C 
BRANCH 49 50
ATOM     50  CD  GLU B   3      17.774 -22.818   0.209  1.00 96.82 LIG 0.17  C 
ATOM     51 OE1  GLU B   3      17.435 -21.756   0.784  1.00 91.15 LIG-0.65  OA
ATOM     52 OE2  GLU B   3      17.924 -22.905  -1.032  1.00 91.13 LIG-0.65  OA
ENDBRANCH 49 50
ENDBRANCH 48 49
ENDBRANCH 46 48
ENDBRANCH 43 46
ENDBRANCH 34 42
ENDBRANCH 32 34
ENDBRANCH 1 30
TORSDOF 21
ENDMDL
MODEL 38
USER: ADFR SOLUTION from run 141
USER: SCORE 14.504064 LL:  -3.733 LR: -13.396 RR:   0.000 FEB:  -7.132
USER: RMSD 11.823129
USER: SEED 140
USER: STATUS no improvement in best in 12 clusters for 5 generations
USER: GENES 23
USER: genes 0 Translation |==|  0.71469 0.51594 0.52295
USER: genes 1 Rotation |==|  0.62051 0.16178 0.84675 0.52905
USER: genes 2 Torsion [C]-CA--CB-[CG2] |==|  0.93995
USER: genes 3 Torsion [N]-CA--C-[N] |==|  0.37071
USER: genes 4 Torsion [C]-N--CA-[CB] |==|  0.06742
USER: genes 5 Torsion [N]-CA--C-[N] |==|  0.85655
USER: genes 6 Torsion [C]-N--CA-[CB] |==|  0.50558
USER: genes 7 Torsion [N]-CA--C-[N] |==|  0.48843
USER: genes 8 Torsion [C]-N--CA-[CB] |==|  0.34520
USER: genes 9 Torsion [N]-CA--C-[O] |==|  0.08517
USER: genes 10 Torsion [N]-CA--CB-[CG2] |==|  0.98503
USER: genes 11 Torsion [N]-CA--CB-[OG] |==|  0.59588
USER: genes 12 Torsion [CA]-CB--OG-[HG] |==|  0.80817
USER: genes 13 Torsion [CB]-CA--N-[C] |==|  0.84782
USER: genes 14 Torsion [N]-C--CA-[N] |==|  0.10345
USER: genes 15 Torsion [C]-CA--CB-[CG] |==|  0.34504
USER: genes 16 Torsion [CA]-CB--CG-[CD] |==|  0.89313
USER: genes 17 Torsion [CB]-CG--CD-[OE1] |==|  0.18845
USER: genes 18 Torsion [C]-CA--N-[C] |==|  0.74928
USER: genes 19 Torsion [N]-C--CA-[N] |==|  0.47509
USER: genes 20 Torsion [C]-CA--CB-[CG] |==|  0.21048
USER: genes 21 Torsion [CA]-CB--CG-[CD] |==|  0.67526
USER: genes 22 Torsion [CB]-CG--CD-[OE1] |==|  0.90227
ROOT
ATOM      1  CA  VAL B   5      18.634 -22.672   4.752  1.00 23.44 LIG 0.18  C 
ENDROOT
BRANCH 1 2
ATOM      2  CB  VAL B   5      19.154 -22.038   6.043  1.00 27.20 LIG 0.01  C 
ATOM      3  CG2 VAL B   5      18.645 -20.637   6.209  1.00 32.91 LIG 0.01  C 
ATOM      4  CG1 VAL B   5      20.665 -22.080   6.113  1.00 27.01 LIG 0.01  C 
ENDBRANCH 1 2
BRANCH 1 5
ATOM      5  C   VAL B   5      17.373 -21.950   4.292  1.00 21.98 LIG 0.24  C 
ATOM      6 O    VAL B   5      17.455 -20.810   3.842  1.00 26.26 LIG-0.27  OA
ATOM      7  N   SER B   6      16.203 -22.573   4.452  1.00 19.41 LIG-0.34  N 
ATOM      8 H    SER B   6      16.132 -23.344   4.825  1.00 19.41 LIG 0.16  HD
BRANCH 7 9
ATOM      9  CA  SER B   6      14.938 -22.023   4.018  1.00 20.84 LIG 0.20  C 
BRANCH 9 10
ATOM     10  C   SER B   6      13.980 -23.087   3.528  1.00 18.76 LIG 0.24  C 
ATOM     11 O    SER B   6      12.870 -23.226   4.008  1.00 19.89 LIG-0.27  OA
ATOM     12  N   ALA B   7      14.474 -23.901   2.626  1.00 19.53 LIG-0.35  N 
ATOM     13 H    ALA B   7      15.270 -23.811   2.312  1.00 19.53 LIG 0.16  HD
BRANCH 12 14
ATOM     14  CA  ALA B   7      13.759 -25.033   2.052  1.00 19.70 LIG 0.17  C 
ATOM     15  CB  ALA B   7      14.682 -25.775   1.069  1.00 20.39 LIG 0.04  C 
BRANCH 14 16
ATOM     16  C   ALA B   7      13.319 -26.029   3.110  1.00 16.34 LIG 0.24  C 
ATOM     17  N   VAL B   8      12.587 -27.058   2.725  1.00 16.85 LIG-0.34  N 
ATOM     18 H    VAL B   8      12.278 -27.160   1.929  1.00 16.85 LIG 0.16  HD
ATOM     19 O    ALA B   7      13.692 -25.891   4.257  1.00 20.16 LIG-0.27  OA
BRANCH 17 20
ATOM     20  CA  VAL B   8      12.239 -28.135   3.661  1.00 17.28 LIG 0.19  C 
BRANCH 20 21
ATOM     21  C   VAL B   8      12.958 -29.408   3.231  1.00 17.19 LIG 0.20  C 
ATOM     22 O    VAL B   8      14.068 -29.329   2.656  1.00 24.30 LIG-0.65  OA
ATOM     23 OXT  VAL B   8      12.442 -30.536   3.402  1.00 16.53 LIG-0.65  OA
ENDBRANCH 20 21
BRANCH 20 24
ATOM     24  CB  VAL B   8      10.698 -28.365   3.761  1.00 17.38 LIG 0.01  C 
ATOM     25  CG2 VAL B   8       9.972 -27.301   2.944  1.00 18.61 LIG 0.01  C 
ATOM     26  CG1 VAL B   8      10.255 -28.405   5.199  1.00 19.61 LIG 0.01  C 
ENDBRANCH 20 24
ENDBRANCH 17 20
ENDBRANCH 14 16
ENDBRANCH 12 14
ENDBRANCH 9 10
BRANCH 9 27
ATOM     27  CB  SER B   6      15.147 -21.021   2.890  1.00 25.59 LIG 0.20  C 
BRANCH 27 28
ATOM     28 OG   SER B   6      14.208 -19.972   2.981  1.00 27.26 LIG-0.40  OA
ATOM     29 HG   SER B   6      13.441 -20.266   2.804  1.00 27.26 LIG 0.21  HD
ENDBRANCH 27 28
ENDBRANCH 9 27
ENDBRANCH 7 9
ENDBRANCH 1 5
BRANCH 1 30
ATOM     30  N   VAL B   5      19.606 -22.546   3.691  1.00 22.92 LIG-0.35  N 
ATOM     31 H    VAL B   5      19.816 -23.297   3.328  1.00 22.92 LIG 0.16  HD
ATOM     32  C   GLN B   4      20.129 -21.391   3.310  1.00 24.29 LIG 0.24  C 
ATOM     33 O    GLN B   4      19.826 -20.308   3.771  1.00 26.90 LIG-0.27  OA
BRANCH 32 34
ATOM     34  CA  GLN B   4      21.175 -21.490   2.196  1.00 30.52 LIG 0.18  C 
BRANCH 34 35
ATOM     35  CB  GLN B   4      21.276 -20.128   1.511  1.00 36.61 LIG 0.04  C 
BRANCH 35 36
ATOM     36  CG  GLN B   4      22.686 -19.562   1.501  1.00 50.94 LIG 0.10  C 
BRANCH 36 37
ATOM     37  CD  GLN B   4      23.406 -19.859   2.813  1.00 60.90 LIG 0.21  C 
ATOM     38  NE2 GLN B   4      23.670 -18.822   3.606  1.00 82.36 LIG-0.37  N 
ATOM     39 21HE GLN B   4      23.442 -18.029   3.366  1.00 82.36 LIG 0.16  HD
ATOM     40 22HE GLN B   4      24.069 -18.946   4.358  1.00 82.36 LIG 0.16  HD
ATOM     41 OE1  GLN B   4      23.711 -21.012   3.106  1.00 55.22 LIG-0.27  OA
ENDBRANCH 36 37
ENDBRANCH 35 36
ENDBRANCH 34 35
BRANCH 34 42
ATOM     42  N   GLN B   4      20.804 -22.514   1.239  1.00 37.98 LIG-0.35  N 
ATOM     43  C   GLU B   3      21.193 -23.778   1.369  1.00 56.89 LIG 0.26  C 
ATOM     44 O    GLU B   3      21.943 -24.152   2.260  1.00 56.58 LIG-0.27  OA
ATOM     45 H    GLN B   4      20.317 -22.229   0.591  1.00 37.98 LIG 0.16  HD
BRANCH 43 46
ATOM     46  CA  GLU B   3      20.661 -24.762   0.328  1.00 80.09 LIG 0.40  C 
ATOM     47  N   GLU B   3      21.322 -26.053   0.455  1.00 75.44 LIG 0.61  N 
BRANCH 46 48
ATOM     48  CB  GLU B   3      19.154 -24.931   0.489  1.00107.85 LIG 0.06  C 
BRANCH 48 49
ATOM     49  CG  GLU B   3      18.352 -23.767  -0.040  1.00114.95 LIG 0.12  C 
BRANCH 49 50
ATOM     50  CD  GLU B   3      17.567 -23.067   1.054  1.00 96.82 LIG 0.17  C 
ATOM     51 OE1  GLU B   3      17.091 -23.755   1.987  1.00 91.15 LIG-0.65  OA
ATOM     52 OE2  GLU B   3      17.437 -21.822   0.988  1.00 91.13 LIG-0.65  OA
ENDBRANCH 49 50
ENDBRANCH 48 49
ENDBRANCH 46 48
ENDBRANCH 43 46
ENDBRANCH 34 42
ENDBRANCH 32 34
ENDBRANCH 1 30
TORSDOF 21
ENDMDL
MODEL 39
USER: ADFR SOLUTION from run 180
USER: SCORE 14.654442 LL:  -4.764 LR: -13.405 RR:   0.000 FEB:  -7.141
USER: RMSD 12.873910
USER: SEED 179
USER: STATUS no improvement in best in 3 clusters for 5 generations
USER: GENES 23
USER: genes 0 Translation |==|  0.69384 0.53391 0.48885
USER: genes 1 Rotation |==|  0.75641 0.37953 0.90547 0.57304
USER: genes 2 Torsion [C]-CA--CB-[CG2] |==|  0.53920
USER: genes 3 Torsion [N]-CA--C-[N] |==|  0.69564
USER: genes 4 Torsion [C]-N--CA-[CB] |==|  0.56188
USER: genes 5 Torsion [N]-CA--C-[N] |==|  0.35445
USER: genes 6 Torsion [C]-N--CA-[CB] |==|  0.28808
USER: genes 7 Torsion [N]-CA--C-[N] |==|  0.82778
USER: genes 8 Torsion [C]-N--CA-[CB] |==|  0.20372
USER: genes 9 Torsion [N]-CA--C-[O] |==|  0.21800
USER: genes 10 Torsion [N]-CA--CB-[CG2] |==|  0.03720
USER: genes 11 Torsion [N]-CA--CB-[OG] |==|  0.10016
USER: genes 12 Torsion [CA]-CB--OG-[HG] |==|  0.05757
USER: genes 13 Torsion [CB]-CA--N-[C] |==|  0.82869
USER: genes 14 Torsion [N]-C--CA-[N] |==|  0.79940
USER: genes 15 Torsion [C]-CA--CB-[CG] |==|  0.51080
USER: genes 16 Torsion [CA]-CB--CG-[CD] |==|  0.23599
USER: genes 17 Torsion [CB]-CG--CD-[OE1] |==|  0.11149
USER: genes 18 Torsion [C]-CA--N-[C] |==|  0.69881
USER: genes 19 Torsion [N]-C--CA-[N] |==|  0.41631
USER: genes 20 Torsion [C]-CA--CB-[CG] |==|  0.18356
USER: genes 21 Torsion [CA]-CB--CG-[CD] |==|  0.15589
USER: genes 22 Torsion [CB]-CG--CD-[OE1] |==|  0.79685
ROOT
ATOM      1  CA  VAL B   5      18.008 -22.362   4.164  1.00 23.44 LIG 0.18  C 
ENDROOT
BRANCH 1 2
ATOM      2  CB  VAL B   5      18.341 -20.872   4.252  1.00 27.20 LIG 0.01  C 
ATOM      3  CG2 VAL B   5      19.754 -20.600   3.827  1.00 32.91 LIG 0.01  C 
ATOM      4  CG1 VAL B   5      18.075 -20.324   5.638  1.00 27.01 LIG 0.01  C 
ENDBRANCH 1 2
BRANCH 1 5
ATOM      5  C   VAL B   5      16.500 -22.562   4.259  1.00 21.98 LIG 0.24  C 
ATOM      6 O    VAL B   5      16.042 -23.697   4.356  1.00 26.26 LIG-0.27  OA
ATOM      7  N   SER B   6      15.721 -21.481   4.177  1.00 19.41 LIG-0.34  N 
ATOM      8 H    SER B   6      16.031 -20.691   4.045  1.00 19.41 LIG 0.16  HD
BRANCH 7 9
ATOM      9  CA  SER B   6      14.280 -21.523   4.299  1.00 20.84 LIG 0.20  C 
BRANCH 9 10
ATOM     10  C   SER B   6      13.680 -22.761   3.668  1.00 18.76 LIG 0.24  C 
ATOM     11 O    SER B   6      13.859 -23.040   2.496  1.00 19.89 LIG-0.27  OA
ATOM     12  N   ALA B   7      12.881 -23.446   4.451  1.00 19.53 LIG-0.35  N 
ATOM     13 H    ALA B   7      12.739 -23.226   5.270  1.00 19.53 LIG 0.16  HD
BRANCH 12 14
ATOM     14  CA  ALA B   7      12.147 -24.638   4.045  1.00 19.70 LIG 0.17  C 
ATOM     15  CB  ALA B   7      12.840 -25.885   4.621  1.00 20.39 LIG 0.04  C 
BRANCH 14 16
ATOM     16  C   ALA B   7      10.716 -24.631   4.552  1.00 16.34 LIG 0.24  C 
ATOM     17  N   VAL B   8      10.523 -24.623   5.858  1.00 16.85 LIG-0.34  N 
ATOM     18 H    VAL B   8      11.151 -24.699   6.440  1.00 16.85 LIG 0.16  HD
ATOM     19 O    ALA B   7       9.798 -24.574   3.760  1.00 20.16 LIG-0.27  OA
BRANCH 17 20
ATOM     20  CA  VAL B   8       9.176 -24.477   6.426  1.00 17.28 LIG 0.19  C 
BRANCH 20 21
ATOM     21  C   VAL B   8       9.304 -24.084   7.893  1.00 17.19 LIG 0.20  C 
ATOM     22 O    VAL B   8       9.568 -22.898   8.197  1.00 24.30 LIG-0.65  OA
ATOM     23 OXT  VAL B   8       9.193 -24.934   8.805  1.00 16.53 LIG-0.65  OA
ENDBRANCH 20 21
BRANCH 20 24
ATOM     24  CB  VAL B   8       8.315 -25.769   6.262  1.00 17.38 LIG 0.01  C 
ATOM     25  CG2 VAL B   8       9.215 -26.931   5.855  1.00 18.61 LIG 0.01  C 
ATOM     26  CG1 VAL B   8       7.183 -25.538   5.297  1.00 19.61 LIG 0.01  C 
ENDBRANCH 20 24
ENDBRANCH 17 20
ENDBRANCH 14 16
ENDBRANCH 12 14
ENDBRANCH 9 10
BRANCH 9 27
ATOM     27  CB  SER B   6      13.650 -20.304   3.639  1.00 25.59 LIG 0.20  C 
BRANCH 27 28
ATOM     28 OG   SER B   6      14.370 -19.942   2.481  1.00 27.26 LIG-0.40  OA
ATOM     29 HG   SER B   6      14.819 -20.600   2.213  1.00 27.26 LIG 0.21  HD
ENDBRANCH 27 28
ENDBRANCH 9 27
ENDBRANCH 7 9
ENDBRANCH 1 5
BRANCH 1 30
ATOM     30  N   VAL B   5      18.429 -22.906   2.893  1.00 22.92 LIG-0.35  N 
ATOM     31 H    VAL B   5      19.021 -23.527   2.966  1.00 22.92 LIG 0.16  HD
ATOM     32  C   GLN B   4      17.956 -22.495   1.727  1.00 24.29 LIG 0.24  C 
ATOM     33 O    GLN B   4      17.091 -21.653   1.589  1.00 26.90 LIG-0.27  OA
BRANCH 32 34
ATOM     34  CA  GLN B   4      18.572 -23.177   0.503  1.00 30.52 LIG 0.18  C 
BRANCH 34 35
ATOM     35  CB  GLN B   4      18.545 -24.687   0.731  1.00 36.61 LIG 0.04  C 
BRANCH 35 36
ATOM     36  CG  GLN B   4      19.217 -25.478  -0.379  1.00 50.94 LIG 0.10  C 
BRANCH 36 37
ATOM     37  CD  GLN B   4      20.722 -25.574  -0.149  1.00 60.90 LIG 0.21  C 
ATOM     38  NE2 GLN B   4      21.507 -25.441  -1.217  1.00 82.36 LIG-0.37  N 
ATOM     39 21HE GLN B   4      21.159 -25.313  -1.992  1.00 82.36 LIG 0.16  HD
ATOM     40 22HE GLN B   4      22.362 -25.482  -1.130  1.00 82.36 LIG 0.16  HD
ATOM     41 OE1  GLN B   4      21.167 -25.758   0.982  1.00 55.22 LIG-0.27  OA
ENDBRANCH 36 37
ENDBRANCH 35 36
ENDBRANCH 34 35
BRANCH 34 42
ATOM     42  N   GLN B   4      19.931 -22.719   0.295  1.00 37.98 LIG-0.35  N 
ATOM     43  C   GLU B   3      20.262 -21.917  -0.713  1.00 56.89 LIG 0.26  C 
ATOM     44 O    GLU B   3      19.463 -21.567  -1.570  1.00 56.58 LIG-0.27  OA
ATOM     45 H    GLN B   4      20.493 -23.011   0.876  1.00 37.98 LIG 0.16  HD
BRANCH 43 46
ATOM     46  CA  GLU B   3      21.717 -21.453  -0.761  1.00 80.09 LIG 0.40  C 
ATOM     47  N   GLU B   3      22.139 -21.226  -2.136  1.00 75.44 LIG 0.61  N 
BRANCH 46 48
ATOM     48  CB  GLU B   3      21.886 -20.174   0.052  1.00107.85 LIG 0.06  C 
BRANCH 48 49
ATOM     49  CG  GLU B   3      21.661 -20.362   1.534  1.00114.95 LIG 0.12  C 
BRANCH 49 50
ATOM     50  CD  GLU B   3      22.562 -21.433   2.120  1.00 96.82 LIG 0.17  C 
ATOM     51 OE1  GLU B   3      22.315 -22.634   1.861  1.00 91.15 LIG-0.65  OA
ATOM     52 OE2  GLU B   3      23.529 -21.072   2.831  1.00 91.13 LIG-0.65  OA
ENDBRANCH 49 50
ENDBRANCH 48 49
ENDBRANCH 46 48
ENDBRANCH 43 46
ENDBRANCH 34 42
ENDBRANCH 32 34
ENDBRANCH 1 30
TORSDOF 21
ENDMDL
MODEL 40
USER: ADFR SOLUTION from run 165
USER: SCORE 15.282976 LL:  -3.739 LR: -13.369 RR:   0.000 FEB:  -7.104
USER: RMSD 12.468707
USER: SEED 164
USER: STATUS no improvement in best in 7 clusters for 5 generations
USER: GENES 23
USER: genes 0 Translation |==|  0.65130 0.48784 0.40217
USER: genes 1 Rotation |==|  0.53653 0.80663 0.11675 0.58812
USER: genes 2 Torsion [C]-CA--CB-[CG2] |==|  0.26452
USER: genes 3 Torsion [N]-CA--C-[N] |==|  0.46105
USER: genes 4 Torsion [C]-N--CA-[CB] |==|  0.36667
USER: genes 5 Torsion [N]-CA--C-[N] |==|  0.85784
USER: genes 6 Torsion [C]-N--CA-[CB] |==|  0.53259
USER: genes 7 Torsion [N]-CA--C-[N] |==|  0.42851
USER: genes 8 Torsion [C]-N--CA-[CB] |==|  0.87345
USER: genes 9 Torsion [N]-CA--C-[O] |==|  0.96380
USER: genes 10 Torsion [N]-CA--CB-[CG2] |==|  0.84347
USER: genes 11 Torsion [N]-CA--CB-[OG] |==|  0.06207
USER: genes 12 Torsion [CA]-CB--OG-[HG] |==|  0.61255
USER: genes 13 Torsion [CB]-CA--N-[C] |==|  0.83247
USER: genes 14 Torsion [N]-C--CA-[N] |==|  0.41339
USER: genes 15 Torsion [C]-CA--CB-[CG] |==|  0.93256
USER: genes 16 Torsion [CA]-CB--CG-[CD] |==|  0.78930
USER: genes 17 Torsion [CB]-CG--CD-[OE1] |==|  0.95047
USER: genes 18 Torsion [C]-CA--N-[C] |==|  0.78658
USER: genes 19 Torsion [N]-C--CA-[N] |==|  0.74683
USER: genes 20 Torsion [C]-CA--CB-[CG] |==|  0.65439
USER: genes 21 Torsion [CA]-CB--CG-[CD] |==|  0.52293
USER: genes 22 Torsion [CB]-CG--CD-[OE1] |==|  0.27452
ROOT
ATOM      1  CA  VAL B   5      16.732 -23.157   2.668  1.00 23.44 LIG 0.18  C 
ENDROOT
BRANCH 1 2
ATOM      2  CB  VAL B   5      16.234 -22.373   3.884  1.00 27.20 LIG 0.01  C 
ATOM      3  CG2 VAL B   5      14.956 -22.947   4.419  1.00 32.91 LIG 0.01  C 
ATOM      4  CG1 VAL B   5      16.082 -20.901   3.572  1.00 27.01 LIG 0.01  C 
ENDBRANCH 1 2
BRANCH 1 5
ATOM      5  C   VAL B   5      16.257 -22.481   1.387  1.00 21.98 LIG 0.24  C 
ATOM      6 O    VAL B   5      17.045 -21.813   0.724  1.00 26.26 LIG-0.27  OA
ATOM      7  N   SER B   6      14.968 -22.598   1.061  1.00 19.41 LIG-0.34  N 
ATOM      8 H    SER B   6      14.397 -23.010   1.554  1.00 19.41 LIG 0.16  HD
BRANCH 7 9
ATOM      9  CA  SER B   6      14.396 -22.047  -0.148  1.00 20.84 LIG 0.20  C 
BRANCH 9 10
ATOM     10  C   SER B   6      13.533 -20.833   0.119  1.00 18.76 LIG 0.24  C 
ATOM     11 O    SER B   6      13.738 -19.763  -0.424  1.00 19.89 LIG-0.27  OA
ATOM     12  N   ALA B   7      12.621 -20.999   1.048  1.00 19.53 LIG-0.35  N 
ATOM     13 H    ALA B   7      12.501 -21.751   1.447  1.00 19.53 LIG 0.16  HD
BRANCH 12 14
ATOM     14  CA  ALA B   7      11.715 -19.957   1.513  1.00 19.70 LIG 0.17  C 
ATOM     15  CB  ALA B   7      11.002 -20.433   2.792  1.00 20.39 LIG 0.04  C 
BRANCH 14 16
ATOM     16  C   ALA B   7      12.446 -18.669   1.848  1.00 16.34 LIG 0.24  C 
ATOM     17  N   VAL B   8      11.771 -17.537   1.775  1.00 16.85 LIG-0.34  N 
ATOM     18 H    VAL B   8      10.967 -17.472   1.477  1.00 16.85 LIG 0.16  HD
ATOM     19 O    ALA B   7      13.600 -18.713   2.225  1.00 20.16 LIG-0.27  OA
BRANCH 17 20
ATOM     20  CA  VAL B   8      12.366 -16.268   2.214  1.00 17.28 LIG 0.19  C 
BRANCH 20 21
ATOM     21  C   VAL B   8      13.318 -15.774   1.130  1.00 17.19 LIG 0.20  C 
ATOM     22 O    VAL B   8      13.660 -16.547   0.206  1.00 24.30 LIG-0.65  OA
ATOM     23 OXT  VAL B   8      13.802 -14.620   1.167  1.00 16.53 LIG-0.65  OA
ENDBRANCH 20 21
BRANCH 20 24
ATOM     24  CB  VAL B   8      13.094 -16.392   3.589  1.00 17.38 LIG 0.01  C 
ATOM     25  CG2 VAL B   8      12.118 -16.923   4.634  1.00 18.61 LIG 0.01  C 
ATOM     26  CG1 VAL B   8      13.721 -15.081   3.983  1.00 19.61 LIG 0.01  C 
ENDBRANCH 20 24
ENDBRANCH 17 20
ENDBRANCH 14 16
ENDBRANCH 12 14
ENDBRANCH 9 10
BRANCH 9 27
ATOM     27  CB  SER B   6      13.540 -23.087  -0.859  1.00 25.59 LIG 0.20  C 
BRANCH 27 28
ATOM     28 OG   SER B   6      13.118 -24.083   0.047  1.00 27.26 LIG-0.40  OA
ATOM     29 HG   SER B   6      13.162 -24.836  -0.323  1.00 27.26 LIG 0.21  HD
ENDBRANCH 27 28
ENDBRANCH 9 27
ENDBRANCH 7 9
ENDBRANCH 1 5
BRANCH 1 30
ATOM     30  N   VAL B   5      18.176 -23.177   2.628  1.00 22.92 LIG-0.35  N 
ATOM     31 H    VAL B   5      18.508 -23.969   2.663  1.00 22.92 LIG 0.16  HD
ATOM     32  C   GLN B   4      18.922 -22.086   2.546  1.00 24.29 LIG 0.24  C 
ATOM     33 O    GLN B   4      18.486 -20.955   2.453  1.00 26.90 LIG-0.27  OA
BRANCH 32 34
ATOM     34  CA  GLN B   4      20.432 -22.333   2.562  1.00 30.52 LIG 0.18  C 
BRANCH 34 35
ATOM     35  CB  GLN B   4      20.908 -22.304   4.013  1.00 36.61 LIG 0.04  C 
BRANCH 35 36
ATOM     36  CG  GLN B   4      19.999 -21.506   4.931  1.00 50.94 LIG 0.10  C 
BRANCH 36 37
ATOM     37  CD  GLN B   4      20.197 -20.006   4.730  1.00 60.90 LIG 0.21  C 
ATOM     38  NE2 GLN B   4      19.241 -19.202   5.193  1.00 82.36 LIG-0.37  N 
ATOM     39 21HE GLN B   4      18.548 -19.535   5.578  1.00 82.36 LIG 0.16  HD
ATOM     40 22HE GLN B   4      19.317 -18.349   5.106  1.00 82.36 LIG 0.16  HD
ATOM     41 OE1  GLN B   4      21.206 -19.582   4.172  1.00 55.22 LIG-0.27  OA
ENDBRANCH 36 37
ENDBRANCH 35 36
ENDBRANCH 34 35
BRANCH 34 42
ATOM     42  N   GLN B   4      21.121 -21.324   1.781  1.00 37.98 LIG-0.35  N 
ATOM     43  C   GLU B   3      21.140 -21.346   0.453  1.00 56.89 LIG 0.26  C 
ATOM     44 O    GLU B   3      20.640 -22.251  -0.201  1.00 56.58 LIG-0.27  OA
ATOM     45 H    GLN B   4      21.510 -20.719   2.254  1.00 37.98 LIG 0.16  HD
BRANCH 43 46
ATOM     46  CA  GLU B   3      21.839 -20.176  -0.236  1.00 80.09 LIG 0.40  C 
ATOM     47  N   GLU B   3      20.891 -19.107  -0.521  1.00 75.44 LIG 0.61  N 
BRANCH 46 48
ATOM     48  CB  GLU B   3      22.968 -19.648   0.643  1.00107.85 LIG 0.06  C 
BRANCH 48 49
ATOM     49  CG  GLU B   3      22.861 -18.174   0.950  1.00114.95 LIG 0.12  C 
BRANCH 49 50
ATOM     50  CD  GLU B   3      24.095 -17.643   1.653  1.00 96.82 LIG 0.17  C 
ATOM     51 OE1  GLU B   3      24.963 -17.045   0.974  1.00 91.15 LIG-0.65  OA
ATOM     52 OE2  GLU B   3      24.193 -17.811   2.891  1.00 91.13 LIG-0.65  OA
ENDBRANCH 49 50
ENDBRANCH 48 49
ENDBRANCH 46 48
ENDBRANCH 43 46
ENDBRANCH 34 42
ENDBRANCH 32 34
ENDBRANCH 1 30
TORSDOF 21
ENDMDL
MODEL 41
USER: ADFR SOLUTION from run 71
USER: SCORE 15.333915 LL:  -4.784 LR: -13.347 RR:   0.000 FEB:  -7.082
USER: RMSD 6.944488
USER: SEED 70
USER: STATUS no improvement in best in 6 clusters for 5 generations
USER: GENES 23
USER: genes 0 Translation |==|  0.66519 0.47975 0.36788
USER: genes 1 Rotation |==|  0.81949 0.38491 0.48178 0.86654
USER: genes 2 Torsion [C]-CA--CB-[CG2] |==|  0.27206
USER: genes 3 Torsion [N]-CA--C-[N] |==|  0.45426
USER: genes 4 Torsion [C]-N--CA-[CB] |==|  0.46174
USER: genes 5 Torsion [N]-CA--C-[N] |==|  0.60527
USER: genes 6 Torsion [C]-N--CA-[CB] |==|  0.50144
USER: genes 7 Torsion [N]-CA--C-[N] |==|  0.41667
USER: genes 8 Torsion [C]-N--CA-[CB] |==|  0.26889
USER: genes 9 Torsion [N]-CA--C-[O] |==|  0.11939
USER: genes 10 Torsion [N]-CA--CB-[CG2] |==|  0.87752
USER: genes 11 Torsion [N]-CA--CB-[OG] |==|  0.12724
USER: genes 12 Torsion [CA]-CB--OG-[HG] |==|  0.78443
USER: genes 13 Torsion [CB]-CA--N-[C] |==|  0.51774
USER: genes 14 Torsion [N]-C--CA-[N] |==|  0.36885
USER: genes 15 Torsion [C]-CA--CB-[CG] |==|  0.38705
USER: genes 16 Torsion [CA]-CB--CG-[CD] |==|  0.89160
USER: genes 17 Torsion [CB]-CG--CD-[OE1] |==|  0.72348
USER: genes 18 Torsion [C]-CA--N-[C] |==|  0.57585
USER: genes 19 Torsion [N]-C--CA-[N] |==|  0.03968
USER: genes 20 Torsion [C]-CA--CB-[CG] |==|  0.74453
USER: genes 21 Torsion [CA]-CB--CG-[CD] |==|  0.76630
USER: genes 22 Torsion [CB]-CG--CD-[OE1] |==|  0.51793
ROOT
ATOM      1  CA  VAL B   5      17.149 -23.296   2.077  1.00 23.44 LIG 0.18  C 
ENDROOT
BRANCH 1 2
ATOM      2  CB  VAL B   5      17.624 -23.050   0.644  1.00 27.20 LIG 0.01  C 
ATOM      3  CG2 VAL B   5      18.558 -24.129   0.184  1.00 32.91 LIG 0.01  C 
ATOM      4  CG1 VAL B   5      18.255 -21.683   0.495  1.00 27.01 LIG 0.01  C 
ENDBRANCH 1 2
BRANCH 1 5
ATOM      5  C   VAL B   5      17.983 -22.469   3.048  1.00 21.98 LIG 0.24  C 
ATOM      6 O    VAL B   5      17.528 -21.424   3.504  1.00 26.26 LIG-0.27  OA
ATOM      7  N   SER B   6      19.218 -22.892   3.327  1.00 19.41 LIG-0.34  N 
ATOM      8 H    SER B   6      19.567 -23.588   2.963  1.00 19.41 LIG 0.16  HD
BRANCH 7 9
ATOM      9  CA  SER B   6      20.098 -22.230   4.265  1.00 20.84 LIG 0.20  C 
BRANCH 9 10
ATOM     10  C   SER B   6      20.640 -20.923   3.728  1.00 18.76 LIG 0.24  C 
ATOM     11 O    SER B   6      19.991 -20.211   2.984  1.00 19.89 LIG-0.27  OA
ATOM     12  N   ALA B   7      21.889 -20.673   4.045  1.00 19.53 LIG-0.35  N 
ATOM     13 H    ALA B   7      22.349 -21.196   4.549  1.00 19.53 LIG 0.16  HD
BRANCH 12 14
ATOM     14  CA  ALA B   7      22.639 -19.508   3.595  1.00 19.70 LIG 0.17  C 
ATOM     15  CB  ALA B   7      24.068 -19.571   4.162  1.00 20.39 LIG 0.04  C 
BRANCH 14 16
ATOM     16  C   ALA B   7      22.747 -19.444   2.082  1.00 16.34 LIG 0.24  C 
ATOM     17  N   VAL B   8      22.829 -18.254   1.518  1.00 16.85 LIG-0.34  N 
ATOM     18 H    VAL B   8      22.748 -17.511   1.942  1.00 16.85 LIG 0.16  HD
ATOM     19 O    ALA B   7      22.813 -20.473   1.441  1.00 20.16 LIG-0.27  OA
BRANCH 17 20
ATOM     20  CA  VAL B   8      23.074 -18.112   0.076  1.00 17.28 LIG 0.19  C 
BRANCH 20 21
ATOM     21  C   VAL B   8      24.047 -16.959  -0.143  1.00 17.19 LIG 0.20  C 
ATOM     22 O    VAL B   8      25.045 -16.839   0.604  1.00 24.30 LIG-0.65  OA
ATOM     23 OXT  VAL B   8      23.846 -16.100  -1.032  1.00 16.53 LIG-0.65  OA
ENDBRANCH 20 21
BRANCH 20 24
ATOM     24  CB  VAL B   8      21.758 -17.901  -0.736  1.00 17.38 LIG 0.01  C 
ATOM     25  CG2 VAL B   8      20.693 -18.873  -0.238  1.00 18.61 LIG 0.01  C 
ATOM     26  CG1 VAL B   8      22.017 -18.020  -2.214  1.00 19.61 LIG 0.01  C 
ENDBRANCH 20 24
ENDBRANCH 17 20
ENDBRANCH 14 16
ENDBRANCH 12 14
ENDBRANCH 9 10
BRANCH 9 27
ATOM     27  CB  SER B   6      21.280 -23.124   4.615  1.00 25.59 LIG 0.20  C 
BRANCH 27 28
ATOM     28 OG   SER B   6      21.826 -23.699   3.449  1.00 27.26 LIG-0.40  OA
ATOM     29 HG   SER B   6      21.340 -24.337   3.197  1.00 27.26 LIG 0.21  HD
ENDBRANCH 27 28
ENDBRANCH 9 27
ENDBRANCH 7 9
ENDBRANCH 1 5
BRANCH 1 30
ATOM     30  N   VAL B   5      15.774 -22.883   2.239  1.00 22.92 LIG-0.35  N 
ATOM     31 H    VAL B   5      15.399 -22.645   1.502  1.00 22.92 LIG 0.16  HD
ATOM     32  C   GLN B   4      15.145 -22.868   3.404  1.00 24.29 LIG 0.24  C 
ATOM     33 O    GLN B   4      15.629 -23.237   4.456  1.00 26.90 LIG-0.27  OA
BRANCH 32 34
ATOM     34  CA  GLN B   4      13.705 -22.353   3.355  1.00 30.52 LIG 0.18  C 
BRANCH 34 35
ATOM     35  CB  GLN B   4      13.677 -20.952   3.964  1.00 36.61 LIG 0.04  C 
BRANCH 35 36
ATOM     36  CG  GLN B   4      12.780 -19.984   3.211  1.00 50.94 LIG 0.10  C 
BRANCH 36 37
ATOM     37  CD  GLN B   4      12.889 -20.196   1.703  1.00 60.90 LIG 0.21  C 
ATOM     38  NE2 GLN B   4      12.178 -21.194   1.180  1.00 82.36 LIG-0.37  N 
ATOM     39 21HE GLN B   4      11.692 -21.688   1.689  1.00 82.36 LIG 0.16  HD
ATOM     40 22HE GLN B   4      12.205 -21.343   0.333  1.00 82.36 LIG 0.16  HD
ATOM     41 OE1  GLN B   4      13.599 -19.460   1.023  1.00 55.22 LIG-0.27  OA
ENDBRANCH 36 37
ENDBRANCH 35 36
ENDBRANCH 34 35
BRANCH 34 42
ATOM     42  N   GLN B   4      12.821 -23.241   4.083  1.00 37.98 LIG-0.35  N 
ATOM     43  C   GLU B   3      11.531 -23.357   3.786  1.00 56.89 LIG 0.26  C 
ATOM     44 O    GLU B   3      10.986 -22.676   2.928  1.00 56.58 LIG-0.27  OA
ATOM     45 H    GLN B   4      13.206 -23.679   4.716  1.00 37.98 LIG 0.16  HD
BRANCH 43 46
ATOM     46  CA  GLU B   3      10.740 -24.389   4.586  1.00 80.09 LIG 0.40  C 
ATOM     47  N   GLU B   3      11.490 -24.817   5.758  1.00 75.44 LIG 0.61  N 
BRANCH 46 48
ATOM     48  CB  GLU B   3       9.397 -23.804   5.014  1.00107.85 LIG 0.06  C 
BRANCH 48 49
ATOM     49  CG  GLU B   3       9.427 -23.147   6.373  1.00114.95 LIG 0.12  C 
BRANCH 49 50
ATOM     50  CD  GLU B   3       9.236 -24.147   7.498  1.00 96.82 LIG 0.17  C 
ATOM     51 OE1  GLU B   3       9.117 -23.717   8.670  1.00 91.15 LIG-0.65  OA
ATOM     52 OE2  GLU B   3       9.192 -25.365   7.209  1.00 91.13 LIG-0.65  OA
ENDBRANCH 49 50
ENDBRANCH 48 49
ENDBRANCH 46 48
ENDBRANCH 43 46
ENDBRANCH 34 42
ENDBRANCH 32 34
ENDBRANCH 1 30
TORSDOF 21
ENDMDL
MODEL 42
USER: ADFR SOLUTION from run 71
USER: SCORE 15.233661 LL:  -3.862 LR: -13.336 RR:   0.000 FEB:  -7.071
USER: RMSD 8.900005
USER: SEED 70
USER: STATUS no improvement in best in 6 clusters for 5 generations
USER: GENES 23
USER: genes 0 Translation |==|  0.67617 0.48767 0.32973
USER: genes 1 Rotation |==|  0.86873 0.46463 0.47589 0.83497
USER: genes 2 Torsion [C]-CA--CB-[CG2] |==|  0.37798
USER: genes 3 Torsion [N]-CA--C-[N] |==|  0.38333
USER: genes 4 Torsion [C]-N--CA-[CB] |==|  0.48341
USER: genes 5 Torsion [N]-CA--C-[N] |==|  0.57427
USER: genes 6 Torsion [C]-N--CA-[CB] |==|  0.51938
USER: genes 7 Torsion [N]-CA--C-[N] |==|  0.42749
USER: genes 8 Torsion [C]-N--CA-[CB] |==|  0.28258
USER: genes 9 Torsion [N]-CA--C-[O] |==|  0.12870
USER: genes 10 Torsion [N]-CA--CB-[CG2] |==|  0.86326
USER: genes 11 Torsion [N]-CA--CB-[OG] |==|  0.06558
USER: genes 12 Torsion [CA]-CB--OG-[HG] |==|  0.79196
USER: genes 13 Torsion [CB]-CA--N-[C] |==|  0.54001
USER: genes 14 Torsion [N]-C--CA-[N] |==|  0.90546
USER: genes 15 Torsion [C]-CA--CB-[CG] |==|  0.41954
USER: genes 16 Torsion [CA]-CB--CG-[CD] |==|  0.59709
USER: genes 17 Torsion [CB]-CG--CD-[OE1] |==|  0.68683
USER: genes 18 Torsion [C]-CA--N-[C] |==|  0.81894
USER: genes 19 Torsion [N]-C--CA-[N] |==|  0.04897
USER: genes 20 Torsion [C]-CA--CB-[CG] |==|  0.47862
USER: genes 21 Torsion [CA]-CB--CG-[CD] |==|  0.87153
USER: genes 22 Torsion [CB]-CG--CD-[OE1] |==|  0.63958
ROOT
ATOM      1  CA  VAL B   5      17.478 -23.160   1.419  1.00 23.44 LIG 0.18  C 
ENDROOT
BRANCH 1 2
ATOM      2  CB  VAL B   5      17.543 -22.503   0.039  1.00 27.20 LIG 0.01  C 
ATOM      3  CG2 VAL B   5      17.710 -23.525  -1.046  1.00 32.91 LIG 0.01  C 
ATOM      4  CG1 VAL B   5      18.634 -21.456  -0.027  1.00 27.01 LIG 0.01  C 
ENDBRANCH 1 2
BRANCH 1 5
ATOM      5  C   VAL B   5      18.338 -22.378   2.405  1.00 21.98 LIG 0.24  C 
ATOM      6 O    VAL B   5      17.935 -21.306   2.847  1.00 26.26 LIG-0.27  OA
ATOM      7  N   SER B   6      19.541 -22.871   2.711  1.00 19.41 LIG-0.34  N 
ATOM      8 H    SER B   6      19.856 -23.587   2.356  1.00 19.41 LIG 0.16  HD
BRANCH 7 9
ATOM      9  CA  SER B   6      20.437 -22.256   3.666  1.00 20.84 LIG 0.20  C 
BRANCH 9 10
ATOM     10  C   SER B   6      20.919 -20.894   3.215  1.00 18.76 LIG 0.24  C 
ATOM     11 O    SER B   6      20.308 -20.231   2.397  1.00 19.89 LIG-0.27  OA
ATOM     12  N   ALA B   7      22.085 -20.535   3.697  1.00 19.53 LIG-0.35  N 
ATOM     13 H    ALA B   7      22.523 -21.022   4.254  1.00 19.53 LIG 0.16  HD
BRANCH 12 14
ATOM     14  CA  ALA B   7      22.773 -19.296   3.360  1.00 19.70 LIG 0.17  C 
ATOM     15  CB  ALA B   7      24.182 -19.308   3.981  1.00 20.39 LIG 0.04  C 
BRANCH 14 16
ATOM     16  C   ALA B   7      22.934 -19.118   1.861  1.00 16.34 LIG 0.24  C 
ATOM     17  N   VAL B   8      23.038 -17.889   1.391  1.00 16.85 LIG-0.34  N 
ATOM     18 H    VAL B   8      22.943 -17.180   1.868  1.00 16.85 LIG 0.16  HD
ATOM     19 O    ALA B   7      23.020 -20.096   1.146  1.00 20.16 LIG-0.27  OA
BRANCH 17 20
ATOM     20  CA  VAL B   8      23.332 -17.640  -0.027  1.00 17.28 LIG 0.19  C 
BRANCH 20 21
ATOM     21  C   VAL B   8      24.406 -16.562  -0.120  1.00 17.19 LIG 0.20  C 
ATOM     22 O    VAL B   8      25.421 -16.632   0.610  1.00 24.30 LIG-0.65  OA
ATOM     23 OXT  VAL B   8      24.274 -15.579  -0.885  1.00 16.53 LIG-0.65  OA
ENDBRANCH 20 21
BRANCH 20 24
ATOM     24  CB  VAL B   8      22.061 -17.242  -0.840  1.00 17.38 LIG 0.01  C 
ATOM     25  CG2 VAL B   8      20.941 -18.235  -0.550  1.00 18.61 LIG 0.01  C 
ATOM     26  CG1 VAL B   8      22.380 -17.128  -2.307  1.00 19.61 LIG 0.01  C 
ENDBRANCH 20 24
ENDBRANCH 17 20
ENDBRANCH 14 16
ENDBRANCH 12 14
ENDBRANCH 9 10
BRANCH 9 27
ATOM     27  CB  SER B   6      21.659 -23.136   3.898  1.00 25.59 LIG 0.20  C 
BRANCH 27 28
ATOM     28 OG   SER B   6      21.871 -23.988   2.794  1.00 27.26 LIG-0.40  OA
ATOM     29 HG   SER B   6      21.303 -24.608   2.806  1.00 27.26 LIG 0.21  HD
ENDBRANCH 27 28
ENDBRANCH 9 27
ENDBRANCH 7 9
ENDBRANCH 1 5
BRANCH 1 30
ATOM     30  N   VAL B   5      16.127 -23.145   1.929  1.00 22.92 LIG-0.35  N 
ATOM     31 H    VAL B   5      15.537 -22.962   1.330  1.00 22.92 LIG 0.16  HD
ATOM     32  C   GLN B   4      15.818 -23.389   3.193  1.00 24.29 LIG 0.24  C 
ATOM     33 O    GLN B   4      16.619 -23.692   4.055  1.00 26.90 LIG-0.27  OA
BRANCH 32 34
ATOM     34  CA  GLN B   4      14.328 -23.278   3.528  1.00 30.52 LIG 0.18  C 
BRANCH 34 35
ATOM     35  CB  GLN B   4      13.673 -24.630   3.252  1.00 36.61 LIG 0.04  C 
BRANCH 35 36
ATOM     36  CG  GLN B   4      12.466 -24.906   4.131  1.00 50.94 LIG 0.10  C 
BRANCH 36 37
ATOM     37  CD  GLN B   4      12.371 -26.389   4.482  1.00 60.90 LIG 0.21  C 
ATOM     38  NE2 GLN B   4      13.317 -26.884   5.278  1.00 82.36 LIG-0.37  N 
ATOM     39 21HE GLN B   4      13.948 -26.374   5.564  1.00 82.36 LIG 0.16  HD
ATOM     40 22HE GLN B   4      13.297 -27.713   5.506  1.00 82.36 LIG 0.16  HD
ATOM     41 OE1  GLN B   4      11.447 -27.072   4.046  1.00 55.22 LIG-0.27  OA
ENDBRANCH 36 37
ENDBRANCH 35 36
ENDBRANCH 34 35
BRANCH 34 42
ATOM     42  N   GLN B   4      13.704 -22.239   2.734  1.00 37.98 LIG-0.35  N 
ATOM     43  C   GLU B   3      14.027 -20.956   2.865  1.00 56.89 LIG 0.26  C 
ATOM     44 O    GLU B   3      14.819 -20.556   3.707  1.00 56.58 LIG-0.27  OA
ATOM     45 H    GLN B   4      13.113 -22.528   2.179  1.00 37.98 LIG 0.16  HD
BRANCH 43 46
ATOM     46  CA  GLU B   3      13.343 -19.983   1.907  1.00 80.09 LIG 0.40  C 
ATOM     47  N   GLU B   3      12.165 -20.593   1.308  1.00 75.44 LIG 0.61  N 
BRANCH 46 48
ATOM     48  CB  GLU B   3      12.949 -18.709   2.647  1.00107.85 LIG 0.06  C 
BRANCH 48 49
ATOM     49  CG  GLU B   3      12.433 -17.616   1.742  1.00114.95 LIG 0.12  C 
BRANCH 49 50
ATOM     50  CD  GLU B   3      13.308 -17.421   0.519  1.00 96.82 LIG 0.17  C 
ATOM     51 OE1  GLU B   3      13.693 -16.263   0.233  1.00 91.15 LIG-0.65  OA
ATOM     52 OE2  GLU B   3      13.624 -18.432  -0.152  1.00 91.13 LIG-0.65  OA
ENDBRANCH 49 50
ENDBRANCH 48 49
ENDBRANCH 46 48
ENDBRANCH 43 46
ENDBRANCH 34 42
ENDBRANCH 32 34
ENDBRANCH 1 30
TORSDOF 21
ENDMDL
MODEL 43
USER: ADFR SOLUTION from run 13
USER: SCORE 15.096146 LL:  -4.697 LR: -13.335 RR:   0.000 FEB:  -7.070
USER: RMSD 8.921180
USER: SEED 510703
USER: STATUS no improvement in best in 5 clusters for 5 generations
USER: GENES 23
USER: genes 0 Translation |==|  0.67797 0.46932 0.35791
USER: genes 1 Rotation |==|  0.74350 0.39717 0.46107 0.92263
USER: genes 2 Torsion [C]-CA--CB-[CG2] |==|  0.60989
USER: genes 3 Torsion [N]-CA--C-[N] |==|  0.43348
USER: genes 4 Torsion [C]-N--CA-[CB] |==|  0.42575
USER: genes 5 Torsion [N]-CA--C-[N] |==|  0.07557
USER: genes 6 Torsion [C]-N--CA-[CB] |==|  0.51111
USER: genes 7 Torsion [N]-CA--C-[N] |==|  0.44714
USER: genes 8 Torsion [C]-N--CA-[CB] |==|  0.87853
USER: genes 9 Torsion [N]-CA--C-[O] |==|  0.85421
USER: genes 10 Torsion [N]-CA--CB-[CG2] |==|  0.82023
USER: genes 11 Torsion [N]-CA--CB-[OG] |==|  0.15238
USER: genes 12 Torsion [CA]-CB--OG-[HG] |==|  0.85093
USER: genes 13 Torsion [CB]-CA--N-[C] |==|  0.47341
USER: genes 14 Torsion [N]-C--CA-[N] |==|  0.06059
USER: genes 15 Torsion [C]-CA--CB-[CG] |==|  0.71401
USER: genes 16 Torsion [CA]-CB--CG-[CD] |==|  0.23716
USER: genes 17 Torsion [CB]-CG--CD-[OE1] |==|  0.74504
USER: genes 18 Torsion [C]-CA--N-[C] |==|  0.67778
USER: genes 19 Torsion [N]-C--CA-[N] |==|  0.44459
USER: genes 20 Torsion [C]-CA--CB-[CG] |==|  0.86722
USER: genes 21 Torsion [CA]-CB--CG-[CD] |==|  0.81691
USER: genes 22 Torsion [CB]-CG--CD-[OE1] |==|  0.72268
ROOT
ATOM      1  CA  VAL B   5      17.532 -23.476   1.905  1.00 23.44 LIG 0.18  C 
ENDROOT
BRANCH 1 2
ATOM      2  CB  VAL B   5      17.780 -23.776   0.426  1.00 27.20 LIG 0.01  C 
ATOM      3  CG2 VAL B   5      16.491 -23.887  -0.333  1.00 32.91 LIG 0.01  C 
ATOM      4  CG1 VAL B   5      18.628 -25.016   0.244  1.00 27.01 LIG 0.01  C 
ENDBRANCH 1 2
BRANCH 1 5
ATOM      5  C   VAL B   5      18.566 -22.476   2.411  1.00 21.98 LIG 0.24  C 
ATOM      6 O    VAL B   5      18.305 -21.276   2.403  1.00 26.26 LIG-0.27  OA
ATOM      7  N   SER B   6      19.754 -22.947   2.796  1.00 19.41 LIG-0.34  N 
ATOM      8 H    SER B   6      19.966 -23.778   2.744  1.00 19.41 LIG 0.16  HD
BRANCH 7 9
ATOM      9  CA  SER B   6      20.806 -22.116   3.338  1.00 20.84 LIG 0.20  C 
BRANCH 9 10
ATOM     10  C   SER B   6      21.666 -21.492   2.261  1.00 18.76 LIG 0.24  C 
ATOM     11 O    SER B   6      22.799 -21.106   2.482  1.00 19.89 LIG-0.27  OA
ATOM     12  N   ALA B   7      21.062 -21.312   1.110  1.00 19.53 LIG-0.35  N 
ATOM     13 H    ALA B   7      20.252 -21.562   0.971  1.00 19.53 LIG 0.16  HD
BRANCH 12 14
ATOM     14  CA  ALA B   7      21.671 -20.678  -0.053  1.00 19.70 LIG 0.17  C 
ATOM     15  CB  ALA B   7      20.625 -20.558  -1.175  1.00 20.39 LIG 0.04  C 
BRANCH 14 16
ATOM     16  C   ALA B   7      22.177 -19.280   0.255  1.00 16.34 LIG 0.24  C 
ATOM     17  N   VAL B   8      23.068 -18.751  -0.562  1.00 16.85 LIG-0.34  N 
ATOM     18 H    VAL B   8      23.439 -19.174  -1.213  1.00 16.85 LIG 0.16  HD
ATOM     19 O    ALA B   7      21.715 -18.668   1.196  1.00 20.16 LIG-0.27  OA
BRANCH 17 20
ATOM     20  CA  VAL B   8      23.503 -17.356  -0.412  1.00 17.28 LIG 0.19  C 
BRANCH 20 21
ATOM     21  C   VAL B   8      24.537 -17.285   0.706  1.00 17.19 LIG 0.20  C 
ATOM     22 O    VAL B   8      24.272 -17.775   1.828  1.00 24.30 LIG-0.65  OA
ATOM     23 OXT  VAL B   8      25.635 -16.706   0.540  1.00 16.53 LIG-0.65  OA
ENDBRANCH 20 21
BRANCH 20 24
ATOM     24  CB  VAL B   8      22.312 -16.384  -0.141  1.00 17.38 LIG 0.01  C 
ATOM     25  CG2 VAL B   8      21.391 -16.359  -1.356  1.00 18.61 LIG 0.01  C 
ATOM     26  CG1 VAL B   8      22.814 -15.018   0.244  1.00 19.61 LIG 0.01  C 
ENDBRANCH 20 24
ENDBRANCH 17 20
ENDBRANCH 14 16
ENDBRANCH 12 14
ENDBRANCH 9 10
BRANCH 9 27
ATOM     27  CB  SER B   6      21.712 -22.927   4.255  1.00 25.59 LIG 0.20  C 
BRANCH 27 28
ATOM     28 OG   SER B   6      22.215 -24.057   3.577  1.00 27.26 LIG-0.40  OA
ATOM     29 HG   SER B   6      21.577 -24.497   3.252  1.00 27.26 LIG 0.21  HD
ENDBRANCH 27 28
ENDBRANCH 9 27
ENDBRANCH 7 9
ENDBRANCH 1 5
BRANCH 1 30
ATOM     30  N   VAL B   5      16.232 -22.876   2.095  1.00 22.92 LIG-0.35  N 
ATOM     31 H    VAL B   5      15.846 -22.656   1.359  1.00 22.92 LIG 0.16  HD
ATOM     32  C   GLN B   4      15.681 -22.682   3.283  1.00 24.29 LIG 0.24  C 
ATOM     33 O    GLN B   4      16.178 -23.019   4.340  1.00 26.90 LIG-0.27  OA
BRANCH 32 34
ATOM     34  CA  GLN B   4      14.316 -21.991   3.258  1.00 30.52 LIG 0.18  C 
BRANCH 34 35
ATOM     35  CB  GLN B   4      13.446 -22.607   4.352  1.00 36.61 LIG 0.04  C 
BRANCH 35 36
ATOM     36  CG  GLN B   4      12.414 -23.588   3.822  1.00 50.94 LIG 0.10  C 
BRANCH 36 37
ATOM     37  CD  GLN B   4      13.012 -24.984   3.668  1.00 60.90 LIG 0.21  C 
ATOM     38  NE2 GLN B   4      12.950 -25.789   4.727  1.00 82.36 LIG-0.37  N 
ATOM     39 21HE GLN B   4      12.590 -25.511   5.457  1.00 82.36 LIG 0.16  HD
ATOM     40 22HE GLN B   4      13.269 -26.586   4.681  1.00 82.36 LIG 0.16  HD
ATOM     41 OE1  GLN B   4      13.515 -25.329   2.602  1.00 55.22 LIG-0.27  OA
ENDBRANCH 36 37
ENDBRANCH 35 36
ENDBRANCH 34 35
BRANCH 34 42
ATOM     42  N   GLN B   4      13.689 -22.149   1.961  1.00 37.98 LIG-0.35  N 
ATOM     43  C   GLU B   3      13.431 -21.114   1.168  1.00 56.89 LIG 0.26  C 
ATOM     44 O    GLU B   3      13.640 -19.956   1.502  1.00 56.58 LIG-0.27  OA
ATOM     45 H    GLN B   4      13.502 -22.963   1.758  1.00 37.98 LIG 0.16  HD
BRANCH 43 46
ATOM     46  CA  GLU B   3      12.839 -21.439  -0.202  1.00 80.09 LIG 0.40  C 
ATOM     47  N   GLU B   3      12.181 -20.271  -0.769  1.00 75.44 LIG 0.61  N 
BRANCH 46 48
ATOM     48  CB  GLU B   3      13.936 -21.925  -1.144  1.00107.85 LIG 0.06  C 
BRANCH 48 49
ATOM     49  CG  GLU B   3      15.168 -21.052  -1.144  1.00114.95 LIG 0.12  C 
BRANCH 49 50
ATOM     50  CD  GLU B   3      14.892 -19.670  -1.704  1.00 96.82 LIG 0.17  C 
ATOM     51 OE1  GLU B   3      15.212 -19.427  -2.891  1.00 91.15 LIG-0.65  OA
ATOM     52 OE2  GLU B   3      14.341 -18.826  -0.958  1.00 91.13 LIG-0.65  OA
ENDBRANCH 49 50
ENDBRANCH 48 49
ENDBRANCH 46 48
ENDBRANCH 43 46
ENDBRANCH 34 42
ENDBRANCH 32 34
ENDBRANCH 1 30
TORSDOF 21
ENDMDL
MODEL 44
USER: ADFR SOLUTION from run 158
USER: SCORE 15.842875 LL:  -4.666 LR: -13.312 RR:   0.000 FEB:  -7.048
USER: RMSD 12.263907
USER: SEED 157
USER: STATUS searching
USER: GENES 23
USER: genes 0 Translation |==|  0.76591 0.53742 0.47067
USER: genes 1 Rotation |==|  0.29478 0.77164 0.13381 0.50065
USER: genes 2 Torsion [C]-CA--CB-[CG2] |==|  0.60152
USER: genes 3 Torsion [N]-CA--C-[N] |==|  0.25707
USER: genes 4 Torsion [C]-N--CA-[CB] |==|  0.83882
USER: genes 5 Torsion [N]-CA--C-[N] |==|  0.42097
USER: genes 6 Torsion [C]-N--CA-[CB] |==|  0.41116
USER: genes 7 Torsion [N]-CA--C-[N] |==|  0.09351
USER: genes 8 Torsion [C]-N--CA-[CB] |==|  0.43709
USER: genes 9 Torsion [N]-CA--C-[O] |==|  0.11223
USER: genes 10 Torsion [N]-CA--CB-[CG2] |==|  0.94783
USER: genes 11 Torsion [N]-CA--CB-[OG] |==|  0.65992
USER: genes 12 Torsion [CA]-CB--OG-[HG] |==|  0.44044
USER: genes 13 Torsion [CB]-CA--N-[C] |==|  0.78889
USER: genes 14 Torsion [N]-C--CA-[N] |==|  0.37035
USER: genes 15 Torsion [C]-CA--CB-[CG] |==|  0.19986
USER: genes 16 Torsion [CA]-CB--CG-[CD] |==|  0.55337
USER: genes 17 Torsion [CB]-CG--CD-[OE1] |==|  0.84995
USER: genes 18 Torsion [C]-CA--N-[C] |==|  0.83345
USER: genes 19 Torsion [N]-C--CA-[N] |==|  0.36763
USER: genes 20 Torsion [C]-CA--CB-[CG] |==|  0.28551
USER: genes 21 Torsion [CA]-CB--CG-[CD] |==|  0.95184
USER: genes 22 Torsion [CB]-CG--CD-[OE1] |==|  0.74382
ROOT
ATOM      1  CA  VAL B   5      20.170 -22.301   3.850  1.00 23.44 LIG 0.18  C 
ENDROOT
BRANCH 1 2
ATOM      2  CB  VAL B   5      20.547 -21.265   4.909  1.00 27.20 LIG 0.01  C 
ATOM      3  CG2 VAL B   5      21.916 -20.704   4.665  1.00 32.91 LIG 0.01  C 
ATOM      4  CG1 VAL B   5      20.433 -21.831   6.308  1.00 27.01 LIG 0.01  C 
ENDBRANCH 1 2
BRANCH 1 5
ATOM      5  C   VAL B   5      18.686 -22.191   3.523  1.00 21.98 LIG 0.24  C 
ATOM      6 O    VAL B   5      18.122 -21.104   3.615  1.00 26.26 LIG-0.27  OA
ATOM      7  N   SER B   6      18.033 -23.310   3.199  1.00 19.41 LIG-0.34  N 
ATOM      8 H    SER B   6      18.407 -24.084   3.195  1.00 19.41 LIG 0.16  HD
BRANCH 7 9
ATOM      9  CA  SER B   6      16.637 -23.341   2.821  1.00 20.84 LIG 0.20  C 
BRANCH 9 10
ATOM     10  C   SER B   6      16.362 -22.563   1.553  1.00 18.76 LIG 0.24  C 
ATOM     11 O    SER B   6      16.988 -21.560   1.261  1.00 19.89 LIG-0.27  OA
ATOM     12  N   ALA B   7      15.340 -22.995   0.852  1.00 19.53 LIG-0.35  N 
ATOM     13 H    ALA B   7      14.886 -23.689   1.080  1.00 19.53 LIG 0.16  HD
BRANCH 12 14
ATOM     14  CA  ALA B   7      14.853 -22.372  -0.372  1.00 19.70 LIG 0.17  C 
ATOM     15  CB  ALA B   7      14.273 -23.453  -1.300  1.00 20.39 LIG 0.04  C 
BRANCH 14 16
ATOM     16  C   ALA B   7      13.754 -21.360  -0.102  1.00 16.34 LIG 0.24  C 
ATOM     17  N   VAL B   8      13.813 -20.666   1.019  1.00 16.85 LIG-0.34  N 
ATOM     18 H    VAL B   8      14.389 -20.804   1.643  1.00 16.85 LIG 0.16  HD
ATOM     19 O    ALA B   7      12.892 -21.172  -0.936  1.00 20.16 LIG-0.27  OA
BRANCH 17 20
ATOM     20  CA  VAL B   8      12.868 -19.575   1.289  1.00 17.28 LIG 0.19  C 
BRANCH 20 21
ATOM     21  C   VAL B   8      13.318 -18.337   0.521  1.00 17.19 LIG 0.20  C 
ATOM     22 O    VAL B   8      13.758 -18.457  -0.645  1.00 24.30 LIG-0.65  OA
ATOM     23 OXT  VAL B   8      13.298 -17.202   1.049  1.00 16.53 LIG-0.65  OA
ENDBRANCH 20 21
BRANCH 20 24
ATOM     24  CB  VAL B   8      12.724 -19.271   2.813  1.00 17.38 LIG 0.01  C 
ATOM     25  CG2 VAL B   8      13.228 -20.464   3.618  1.00 18.61 LIG 0.01  C 
ATOM     26  CG1 VAL B   8      11.306 -18.891   3.151  1.00 19.61 LIG 0.01  C 
ENDBRANCH 20 24
ENDBRANCH 17 20
ENDBRANCH 14 16
ENDBRANCH 12 14
ENDBRANCH 9 10
BRANCH 9 27
ATOM     27  CB  SER B   6      15.769 -22.759   3.929  1.00 25.59 LIG 0.20  C 
BRANCH 27 28
ATOM     28 OG   SER B   6      14.808 -23.703   4.350  1.00 27.26 LIG-0.40  OA
ATOM     29 HG   SER B   6      14.542 -23.507   5.122  1.00 27.26 LIG 0.21  HD
ENDBRANCH 27 28
ENDBRANCH 9 27
ENDBRANCH 7 9
ENDBRANCH 1 5
BRANCH 1 30
ATOM     30  N   VAL B   5      20.895 -22.066   2.623  1.00 22.92 LIG-0.35  N 
ATOM     31 H    VAL B   5      21.544 -22.616   2.498  1.00 22.92 LIG 0.16  HD
ATOM     32  C   GLN B   4      20.595 -21.100   1.768  1.00 24.29 LIG 0.24  C 
ATOM     33 O    GLN B   4      19.660 -20.333   1.892  1.00 26.90 LIG-0.27  OA
BRANCH 32 34
ATOM     34  CA  GLN B   4      21.519 -21.001   0.553  1.00 30.52 LIG 0.18  C 
BRANCH 34 35
ATOM     35  CB  GLN B   4      22.434 -19.792   0.743  1.00 36.61 LIG 0.04  C 
BRANCH 35 36
ATOM     36  CG  GLN B   4      23.494 -19.999   1.811  1.00 50.94 LIG 0.10  C 
BRANCH 36 37
ATOM     37  CD  GLN B   4      24.054 -18.664   2.293  1.00 60.90 LIG 0.21  C 
ATOM     38  NE2 GLN B   4      24.032 -18.437   3.605  1.00 82.36 LIG-0.37  N 
ATOM     39 21HE GLN B   4      23.705 -19.027   4.138  1.00 82.36 LIG 0.16  HD
ATOM     40 22HE GLN B   4      24.345 -17.699   3.919  1.00 82.36 LIG 0.16  HD
ATOM     41 OE1  GLN B   4      24.509 -17.854   1.488  1.00 55.22 LIG-0.27  OA
ENDBRANCH 36 37
ENDBRANCH 35 36
ENDBRANCH 34 35
BRANCH 34 42
ATOM     42  N   GLN B   4      20.746 -20.867  -0.666  1.00 37.98 LIG-0.35  N 
ATOM     43  C   GLU B   3      19.872 -21.790  -1.055  1.00 56.89 LIG 0.26  C 
ATOM     44 O    GLU B   3      19.709 -22.842  -0.454  1.00 56.58 LIG-0.27  OA
ATOM     45 H    GLN B   4      20.905 -20.145  -1.105  1.00 37.98 LIG 0.16  HD
BRANCH 43 46
ATOM     46  CA  GLU B   3      19.073 -21.477  -2.319  1.00 80.09 LIG 0.40  C 
ATOM     47  N   GLU B   3      19.081 -22.615  -3.227  1.00 75.44 LIG 0.61  N 
BRANCH 46 48
ATOM     48  CB  GLU B   3      17.637 -21.113  -1.954  1.00107.85 LIG 0.06  C 
BRANCH 48 49
ATOM     49  CG  GLU B   3      17.354 -19.631  -2.008  1.00114.95 LIG 0.12  C 
BRANCH 49 50
ATOM     50  CD  GLU B   3      18.624 -18.803  -1.997  1.00 96.82 LIG 0.17  C 
ATOM     51 OE1  GLU B   3      19.073 -18.405  -0.896  1.00 91.15 LIG-0.65  OA
ATOM     52 OE2  GLU B   3      19.184 -18.559  -3.091  1.00 91.13 LIG-0.65  OA
ENDBRANCH 49 50
ENDBRANCH 48 49
ENDBRANCH 46 48
ENDBRANCH 43 46
ENDBRANCH 34 42
ENDBRANCH 32 34
ENDBRANCH 1 30
TORSDOF 21
ENDMDL
MODEL 45
USER: ADFR SOLUTION from run 118
USER: SCORE 14.721777 LL:  -4.791 LR: -13.272 RR:   0.000 FEB:  -7.008
USER: RMSD 13.234834
USER: SEED 117
USER: STATUS no improvement in best in 5 clusters for 5 generations
USER: GENES 23
USER: genes 0 Translation |==|  0.83149 0.57261 0.47039
USER: genes 1 Rotation |==|  0.86068 0.33187 0.77470 0.62722
USER: genes 2 Torsion [C]-CA--CB-[CG2] |==|  0.85670
USER: genes 3 Torsion [N]-CA--C-[N] |==|  0.93513
USER: genes 4 Torsion [C]-N--CA-[CB] |==|  0.21979
USER: genes 5 Torsion [N]-CA--C-[N] |==|  0.24566
USER: genes 6 Torsion [C]-N--CA-[CB] |==|  0.81981
USER: genes 7 Torsion [N]-CA--C-[N] |==|  0.53116
USER: genes 8 Torsion [C]-N--CA-[CB] |==|  0.40033
USER: genes 9 Torsion [N]-CA--C-[O] |==|  0.95283
USER: genes 10 Torsion [N]-CA--CB-[CG2] |==|  0.26091
USER: genes 11 Torsion [N]-CA--CB-[OG] |==|  0.11145
USER: genes 12 Torsion [CA]-CB--OG-[HG] |==|  0.58621
USER: genes 13 Torsion [CB]-CA--N-[C] |==|  0.40580
USER: genes 14 Torsion [N]-C--CA-[N] |==|  0.15506
USER: genes 15 Torsion [C]-CA--CB-[CG] |==|  0.21903
USER: genes 16 Torsion [CA]-CB--CG-[CD] |==|  0.10508
USER: genes 17 Torsion [CB]-CG--CD-[OE1] |==|  0.25117
USER: genes 18 Torsion [C]-CA--N-[C] |==|  0.78074
USER: genes 19 Torsion [N]-C--CA-[N] |==|  0.21446
USER: genes 20 Torsion [C]-CA--CB-[CG] |==|  0.18296
USER: genes 21 Torsion [CA]-CB--CG-[CD] |==|  0.36253
USER: genes 22 Torsion [CB]-CG--CD-[OE1] |==|  0.05648
ROOT
ATOM      1  CA  VAL B   5      22.138 -21.695   3.845  1.00 23.44 LIG 0.18  C 
ENDROOT
BRANCH 1 2
ATOM      2  CB  VAL B   5      22.899 -20.370   3.911  1.00 27.20 LIG 0.01  C 
ATOM      3  CG2 VAL B   5      21.975 -19.199   3.759  1.00 32.91 LIG 0.01  C 
ATOM      4  CG1 VAL B   5      24.016 -20.319   2.891  1.00 27.01 LIG 0.01  C 
ENDBRANCH 1 2
BRANCH 1 5
ATOM      5  C   VAL B   5      20.969 -21.669   4.824  1.00 21.98 LIG 0.24  C 
ATOM      6 O    VAL B   5      21.151 -21.986   5.996  1.00 26.26 LIG-0.27  OA
ATOM      7  N   SER B   6      19.763 -21.353   4.348  1.00 19.41 LIG-0.34  N 
ATOM      8 H    SER B   6      19.616 -21.193   3.516  1.00 19.41 LIG 0.16  HD
BRANCH 7 9
ATOM      9  CA  SER B   6      18.580 -21.247   5.173  1.00 20.84 LIG 0.20  C 
BRANCH 9 10
ATOM     10  C   SER B   6      17.301 -21.361   4.371  1.00 18.76 LIG 0.24  C 
ATOM     11 O    SER B   6      16.690 -20.380   3.988  1.00 19.89 LIG-0.27  OA
ATOM     12  N   ALA B   7      16.858 -22.585   4.212  1.00 19.53 LIG-0.35  N 
ATOM     13 H    ALA B   7      17.283 -23.271   4.510  1.00 19.53 LIG 0.16  HD
BRANCH 12 14
ATOM     14  CA  ALA B   7      15.621 -22.935   3.527  1.00 19.70 LIG 0.17  C 
ATOM     15  CB  ALA B   7      14.424 -22.372   4.315  1.00 20.39 LIG 0.04  C 
BRANCH 14 16
ATOM     16  C   ALA B   7      15.559 -22.358   2.124  1.00 16.34 LIG 0.24  C 
ATOM     17  N   VAL B   8      14.406 -22.409   1.484  1.00 16.85 LIG-0.34  N 
ATOM     18 H    VAL B   8      13.708 -22.816   1.778  1.00 16.85 LIG 0.16  HD
ATOM     19 O    ALA B   7      16.540 -21.819   1.652  1.00 20.16 LIG-0.27  OA
BRANCH 17 20
ATOM     20  CA  VAL B   8      14.230 -21.752   0.182  1.00 17.28 LIG 0.19  C 
BRANCH 20 21
ATOM     21  C   VAL B   8      13.693 -20.344   0.414  1.00 17.19 LIG 0.20  C 
ATOM     22 O    VAL B   8      13.185 -20.048   1.520  1.00 24.30 LIG-0.65  OA
ATOM     23 OXT  VAL B   8      13.709 -19.484  -0.496  1.00 16.53 LIG-0.65  OA
ENDBRANCH 20 21
BRANCH 20 24
ATOM     24  CB  VAL B   8      13.298 -22.560  -0.774  1.00 17.38 LIG 0.01  C 
ATOM     25  CG2 VAL B   8      11.868 -22.046  -0.644  1.00 18.61 LIG 0.01  C 
ATOM     26  CG1 VAL B   8      13.417 -24.038  -0.514  1.00 19.61 LIG 0.01  C 
ENDBRANCH 20 24
ENDBRANCH 17 20
ENDBRANCH 14 16
ENDBRANCH 12 14
ENDBRANCH 9 10
BRANCH 9 27
ATOM     27  CB  SER B   6      18.558 -19.914   5.910  1.00 25.59 LIG 0.20  C 
BRANCH 27 28
ATOM     28 OG   SER B   6      19.006 -18.876   5.067  1.00 27.26 LIG-0.40  OA
ATOM     29 HG   SER B   6      19.387 -18.285   5.527  1.00 27.26 LIG 0.21  HD
ENDBRANCH 27 28
ENDBRANCH 9 27
ENDBRANCH 7 9
ENDBRANCH 1 5
BRANCH 1 30
ATOM     30  N   VAL B   5      21.584 -21.902   2.527  1.00 22.92 LIG-0.35  N 
ATOM     31 H    VAL B   5      21.337 -21.173   2.142  1.00 22.92 LIG 0.16  HD
ATOM     32  C   GLN B   4      21.465 -23.092   1.961  1.00 24.29 LIG 0.24  C 
ATOM     33 O    GLN B   4      21.841 -24.135   2.458  1.00 26.90 LIG-0.27  OA
BRANCH 32 34
ATOM     34  CA  GLN B   4      20.810 -23.088   0.577  1.00 30.52 LIG 0.18  C 
BRANCH 34 35
ATOM     35  CB  GLN B   4      20.817 -24.518   0.040  1.00 36.61 LIG 0.04  C 
BRANCH 35 36
ATOM     36  CG  GLN B   4      19.721 -25.390   0.628  1.00 50.94 LIG 0.10  C 
BRANCH 36 37
ATOM     37  CD  GLN B   4      18.431 -24.597   0.816  1.00 60.90 LIG 0.21  C 
ATOM     38  NE2 GLN B   4      18.274 -23.963   1.977  1.00 82.36 LIG-0.37  N 
ATOM     39 21HE GLN B   4      18.883 -24.018   2.582  1.00 82.36 LIG 0.16  HD
ATOM     40 22HE GLN B   4      17.564 -23.499   2.121  1.00 82.36 LIG 0.16  HD
ATOM     41 OE1  GLN B   4      17.594 -24.552  -0.082  1.00 55.22 LIG-0.27  OA
ENDBRANCH 36 37
ENDBRANCH 35 36
ENDBRANCH 34 35
BRANCH 34 42
ATOM     42  N   GLN B   4      21.525 -22.204  -0.322  1.00 37.98 LIG-0.35  N 
ATOM     43  C   GLU B   3      21.365 -20.885  -0.293  1.00 56.89 LIG 0.26  C 
ATOM     44 O    GLU B   3      20.557 -20.332   0.440  1.00 56.58 LIG-0.27  OA
ATOM     45 H    GLN B   4      22.054 -22.609  -0.866  1.00 37.98 LIG 0.16  HD
BRANCH 43 46
ATOM     46  CA  GLU B   3      22.242 -20.074  -1.245  1.00 80.09 LIG 0.40  C 
ATOM     47  N   GLU B   3      21.731 -20.149  -2.606  1.00 75.44 LIG 0.61  N 
BRANCH 46 48
ATOM     48  CB  GLU B   3      22.302 -18.619  -0.792  1.00107.85 LIG 0.06  C 
BRANCH 48 49
ATOM     49  CG  GLU B   3      22.998 -18.423   0.533  1.00114.95 LIG 0.12  C 
BRANCH 49 50
ATOM     50  CD  GLU B   3      24.048 -17.330   0.474  1.00 96.82 LIG 0.17  C 
ATOM     51 OE1  GLU B   3      23.980 -16.479  -0.444  1.00 91.15 LIG-0.65  OA
ATOM     52 OE2  GLU B   3      24.938 -17.314   1.356  1.00 91.13 LIG-0.65  OA
ENDBRANCH 49 50
ENDBRANCH 48 49
ENDBRANCH 46 48
ENDBRANCH 43 46
ENDBRANCH 34 42
ENDBRANCH 32 34
ENDBRANCH 1 30
TORSDOF 21
ENDMDL
MODEL 46
USER: ADFR SOLUTION from run 8
USER: SCORE 15.406030 LL:  -4.445 LR: -13.209 RR:   0.000 FEB:  -6.945
USER: RMSD 12.953969
USER: SEED 254778
USER: STATUS no improvement in best in 7 clusters for 5 generations
USER: GENES 23
USER: genes 0 Translation |==|  0.73506 0.53975 0.51699
USER: genes 1 Rotation |==|  0.70576 0.24653 0.85209 0.63945
USER: genes 2 Torsion [C]-CA--CB-[CG2] |==|  0.79347
USER: genes 3 Torsion [N]-CA--C-[N] |==|  0.16907
USER: genes 4 Torsion [C]-N--CA-[CB] |==|  0.23628
USER: genes 5 Torsion [N]-CA--C-[N] |==|  0.48028
USER: genes 6 Torsion [C]-N--CA-[CB] |==|  0.56599
USER: genes 7 Torsion [N]-CA--C-[N] |==|  0.38889
USER: genes 8 Torsion [C]-N--CA-[CB] |==|  0.19124
USER: genes 9 Torsion [N]-CA--C-[O] |==|  0.43137
USER: genes 10 Torsion [N]-CA--CB-[CG2] |==|  0.69724
USER: genes 11 Torsion [N]-CA--CB-[OG] |==|  0.07742
USER: genes 12 Torsion [CA]-CB--OG-[HG] |==|  0.09010
USER: genes 13 Torsion [CB]-CA--N-[C] |==|  0.77947
USER: genes 14 Torsion [N]-C--CA-[N] |==|  0.67449
USER: genes 15 Torsion [C]-CA--CB-[CG] |==|  0.28425
USER: genes 16 Torsion [CA]-CB--CG-[CD] |==|  0.90520
USER: genes 17 Torsion [CB]-CG--CD-[OE1] |==|  0.29523
USER: genes 18 Torsion [C]-CA--N-[C] |==|  0.17946
USER: genes 19 Torsion [N]-C--CA-[N] |==|  0.85948
USER: genes 20 Torsion [C]-CA--CB-[CG] |==|  0.23244
USER: genes 21 Torsion [CA]-CB--CG-[CD] |==|  0.13758
USER: genes 22 Torsion [CB]-CG--CD-[OE1] |==|  0.26947
ROOT
ATOM      1  CA  VAL B   5      19.245 -22.261   4.649  1.00 23.44 LIG 0.18  C 
ENDROOT
BRANCH 1 2
ATOM      2  CB  VAL B   5      20.294 -21.294   5.200  1.00 27.20 LIG 0.01  C 
ATOM      3  CG2 VAL B   5      20.578 -20.185   4.232  1.00 32.91 LIG 0.01  C 
ATOM      4  CG1 VAL B   5      21.565 -22.016   5.589  1.00 27.01 LIG 0.01  C 
ENDBRANCH 1 2
BRANCH 1 5
ATOM      5  C   VAL B   5      17.864 -21.619   4.714  1.00 21.98 LIG 0.24  C 
ATOM      6 O    VAL B   5      17.738 -20.495   5.192  1.00 26.26 LIG-0.27  OA
ATOM      7  N   SER B   6      16.821 -22.338   4.294  1.00 19.41 LIG-0.34  N 
ATOM      8 H    SER B   6      16.893 -23.149   4.018  1.00 19.41 LIG 0.16  HD
BRANCH 7 9
ATOM      9  CA  SER B   6      15.465 -21.835   4.258  1.00 20.84 LIG 0.20  C 
BRANCH 9 10
ATOM     10  C   SER B   6      14.434 -22.938   4.362  1.00 18.76 LIG 0.24  C 
ATOM     11 O    SER B   6      14.732 -24.114   4.250  1.00 19.89 LIG-0.27  OA
ATOM     12  N   ALA B   7      13.195 -22.525   4.480  1.00 19.53 LIG-0.35  N 
ATOM     13 H    ALA B   7      12.990 -21.691   4.531  1.00 19.53 LIG 0.16  HD
BRANCH 12 14
ATOM     14  CA  ALA B   7      12.032 -23.401   4.539  1.00 19.70 LIG 0.17  C 
ATOM     15  CB  ALA B   7      10.783 -22.625   4.086  1.00 20.39 LIG 0.04  C 
BRANCH 14 16
ATOM     16  C   ALA B   7      12.177 -24.608   3.630  1.00 16.34 LIG 0.24  C 
ATOM     17  N   VAL B   8      11.749 -25.774   4.076  1.00 16.85 LIG-0.34  N 
ATOM     18 H    VAL B   8      11.466 -25.911   4.877  1.00 16.85 LIG 0.16  HD
ATOM     19 O    ALA B   7      12.621 -24.466   2.509  1.00 20.16 LIG-0.27  OA
BRANCH 17 20
ATOM     20  CA  VAL B   8      11.728 -26.959   3.208  1.00 17.28 LIG 0.19  C 
BRANCH 20 21
ATOM     21  C   VAL B   8      10.911 -28.050   3.891  1.00 17.19 LIG 0.20  C 
ATOM     22 O    VAL B   8      10.367 -28.942   3.200  1.00 24.30 LIG-0.65  OA
ATOM     23 OXT  VAL B   8      10.737 -28.052   5.131  1.00 16.53 LIG-0.65  OA
ENDBRANCH 20 21
BRANCH 20 24
ATOM     24  CB  VAL B   8      13.161 -27.467   2.854  1.00 17.38 LIG 0.01  C 
ATOM     25  CG2 VAL B   8      13.455 -27.174   1.386  1.00 18.61 LIG 0.01  C 
ATOM     26  CG1 VAL B   8      13.315 -28.923   3.205  1.00 19.61 LIG 0.01  C 
ENDBRANCH 20 24
ENDBRANCH 17 20
ENDBRANCH 14 16
ENDBRANCH 12 14
ENDBRANCH 9 10
BRANCH 9 27
ATOM     27  CB  SER B   6      15.210 -21.072   2.965  1.00 25.59 LIG 0.20  C 
BRANCH 27 28
ATOM     28 OG   SER B   6      16.037 -21.560   1.932  1.00 27.26 LIG-0.40  OA
ATOM     29 HG   SER B   6      16.168 -22.383   2.042  1.00 27.26 LIG 0.21  HD
ENDBRANCH 27 28
ENDBRANCH 9 27
ENDBRANCH 7 9
ENDBRANCH 1 5
BRANCH 1 30
ATOM     30  N   VAL B   5      19.507 -22.565   3.261  1.00 22.92 LIG-0.35  N 
ATOM     31 H    VAL B   5      19.894 -23.325   3.145  1.00 22.92 LIG 0.16  HD
ATOM     32  C   GLN B   4      19.187 -21.759   2.261  1.00 24.29 LIG 0.24  C 
ATOM     33 O    GLN B   4      18.603 -20.700   2.386  1.00 26.90 LIG-0.27  OA
BRANCH 32 34
ATOM     34  CA  GLN B   4      19.596 -22.256   0.873  1.00 30.52 LIG 0.18  C 
BRANCH 34 35
ATOM     35  CB  GLN B   4      20.200 -23.651   1.023  1.00 36.61 LIG 0.04  C 
BRANCH 35 36
ATOM     36  CG  GLN B   4      19.250 -24.767   0.622  1.00 50.94 LIG 0.10  C 
BRANCH 36 37
ATOM     37  CD  GLN B   4      17.807 -24.409   0.968  1.00 60.90 LIG 0.21  C 
ATOM     38  NE2 GLN B   4      17.468 -24.442   2.255  1.00 82.36 LIG-0.37  N 
ATOM     39 21HE GLN B   4      18.049 -24.665   2.848  1.00 82.36 LIG 0.16  HD
ATOM     40 22HE GLN B   4      16.666 -24.241   2.494  1.00 82.36 LIG 0.16  HD
ATOM     41 OE1  GLN B   4      17.016 -24.098   0.081  1.00 55.22 LIG-0.27  OA
ENDBRANCH 36 37
ENDBRANCH 35 36
ENDBRANCH 34 35
BRANCH 34 42
ATOM     42  N   GLN B   4      20.552 -21.350   0.268  1.00 37.98 LIG-0.35  N 
ATOM     43  C   GLU B   3      21.764 -21.156   0.779  1.00 56.89 LIG 0.26  C 
ATOM     44 O    GLU B   3      22.131 -21.670   1.826  1.00 56.58 LIG-0.27  OA
ATOM     45 H    GLN B   4      20.264 -20.958  -0.441  1.00 37.98 LIG 0.16  HD
BRANCH 43 46
ATOM     46  CA  GLU B   3      22.692 -20.233  -0.009  1.00 80.09 LIG 0.40  C 
ATOM     47  N   GLU B   3      22.746 -20.631  -1.409  1.00 75.44 LIG 0.61  N 
BRANCH 46 48
ATOM     48  CB  GLU B   3      22.213 -18.789   0.102  1.00107.85 LIG 0.06  C 
BRANCH 48 49
ATOM     49  CG  GLU B   3      22.686 -18.087   1.353  1.00114.95 LIG 0.12  C 
BRANCH 49 50
ATOM     50  CD  GLU B   3      24.178 -18.247   1.572  1.00 96.82 LIG 0.17  C 
ATOM     51 OE1  GLU B   3      24.943 -17.329   1.193  1.00 91.15 LIG-0.65  OA
ATOM     52 OE2  GLU B   3      24.588 -19.287   2.137  1.00 91.13 LIG-0.65  OA
ENDBRANCH 49 50
ENDBRANCH 48 49
ENDBRANCH 46 48
ENDBRANCH 43 46
ENDBRANCH 34 42
ENDBRANCH 32 34
ENDBRANCH 1 30
TORSDOF 21
ENDMDL
MODEL 47
USER: ADFR SOLUTION from run 168
USER: SCORE 16.192719 LL:  -4.145 LR: -13.176 RR:   0.000 FEB:  -6.911
USER: RMSD 12.561943
USER: SEED 167
USER: STATUS no improvement in best in 21 clusters for 5 generations
USER: GENES 23
USER: genes 0 Translation |==|  0.72293 0.53396 0.47989
USER: genes 1 Rotation |==|  0.62078 0.24588 0.91314 0.51234
USER: genes 2 Torsion [C]-CA--CB-[CG2] |==|  0.41409
USER: genes 3 Torsion [N]-CA--C-[N] |==|  0.41092
USER: genes 4 Torsion [C]-N--CA-[CB] |==|  0.50369
USER: genes 5 Torsion [N]-CA--C-[N] |==|  0.49058
USER: genes 6 Torsion [C]-N--CA-[CB] |==|  0.53127
USER: genes 7 Torsion [N]-CA--C-[N] |==|  0.41732
USER: genes 8 Torsion [C]-N--CA-[CB] |==|  0.45689
USER: genes 9 Torsion [N]-CA--C-[O] |==|  0.26410
USER: genes 10 Torsion [N]-CA--CB-[CG2] |==|  0.10001
USER: genes 11 Torsion [N]-CA--CB-[OG] |==|  0.86786
USER: genes 12 Torsion [CA]-CB--OG-[HG] |==|  0.42411
USER: genes 13 Torsion [CB]-CA--N-[C] |==|  0.86111
USER: genes 14 Torsion [N]-C--CA-[N] |==|  0.33351
USER: genes 15 Torsion [C]-CA--CB-[CG] |==|  0.79834
USER: genes 16 Torsion [CA]-CB--CG-[CD] |==|  0.45141
USER: genes 17 Torsion [CB]-CG--CD-[OE1] |==|  0.33804
USER: genes 18 Torsion [C]-CA--N-[C] |==|  0.76117
USER: genes 19 Torsion [N]-C--CA-[N] |==|  0.68450
USER: genes 20 Torsion [C]-CA--CB-[CG] |==|  0.69935
USER: genes 21 Torsion [CA]-CB--CG-[CD] |==|  0.20256
USER: genes 22 Torsion [CB]-CG--CD-[OE1] |==|  0.82594
ROOT
ATOM      1  CA  VAL B   5      18.881 -22.361   4.009  1.00 23.44 LIG 0.18  C 
ENDROOT
BRANCH 1 2
ATOM      2  CB  VAL B   5      19.167 -21.210   4.974  1.00 27.20 LIG 0.01  C 
ATOM      3  CG2 VAL B   5      19.873 -21.690   6.206  1.00 32.91 LIG 0.01  C 
ATOM      4  CG1 VAL B   5      17.904 -20.455   5.329  1.00 27.01 LIG 0.01  C 
ENDBRANCH 1 2
BRANCH 1 5
ATOM      5  C   VAL B   5      17.602 -22.078   3.229  1.00 21.98 LIG 0.24  C 
ATOM      6 O    VAL B   5      17.652 -21.402   2.205  1.00 26.26 LIG-0.27  OA
ATOM      7  N   SER B   6      16.452 -22.535   3.728  1.00 19.41 LIG-0.34  N 
ATOM      8 H    SER B   6      16.401 -22.954   4.478  1.00 19.41 LIG 0.16  HD
BRANCH 7 9
ATOM      9  CA  SER B   6      15.175 -22.378   3.069  1.00 20.84 LIG 0.20  C 
BRANCH 9 10
ATOM     10  C   SER B   6      14.833 -20.927   2.805  1.00 18.76 LIG 0.24  C 
ATOM     11 O    SER B   6      15.502 -20.014   3.255  1.00 19.89 LIG-0.27  OA
ATOM     12  N   ALA B   7      13.716 -20.735   2.145  1.00 19.53 LIG-0.35  N 
ATOM     13 H    ALA B   7      13.235 -21.386   1.855  1.00 19.53 LIG 0.16  HD
BRANCH 12 14
ATOM     14  CA  ALA B   7      13.157 -19.428   1.827  1.00 19.70 LIG 0.17  C 
ATOM     15  CB  ALA B   7      11.720 -19.600   1.303  1.00 20.39 LIG 0.04  C 
BRANCH 14 16
ATOM     16  C   ALA B   7      13.098 -18.518   3.041  1.00 16.34 LIG 0.24  C 
ATOM     17  N   VAL B   8      13.201 -17.217   2.845  1.00 16.85 LIG-0.34  N 
ATOM     18 H    VAL B   8      13.377 -16.855   2.085  1.00 16.85 LIG 0.16  HD
ATOM     19 O    ALA B   7      12.901 -18.995   4.140  1.00 20.16 LIG-0.27  OA
BRANCH 17 20
ATOM     20  CA  VAL B   8      13.016 -16.265   3.949  1.00 17.28 LIG 0.19  C 
BRANCH 20 21
ATOM     21  C   VAL B   8      11.537 -16.225   4.316  1.00 17.19 LIG 0.20  C 
ATOM     22 O    VAL B   8      11.110 -16.942   5.249  1.00 24.30 LIG-0.65  OA
ATOM     23 OXT  VAL B   8      10.727 -15.517   3.674  1.00 16.53 LIG-0.65  OA
ENDBRANCH 20 21
BRANCH 20 24
ATOM     24  CB  VAL B   8      13.551 -14.840   3.605  1.00 17.38 LIG 0.01  C 
ATOM     25  CG2 VAL B   8      13.290 -14.541   2.132  1.00 18.61 LIG 0.01  C 
ATOM     26  CG1 VAL B   8      15.002 -14.708   3.983  1.00 19.61 LIG 0.01  C 
ENDBRANCH 20 24
ENDBRANCH 17 20
ENDBRANCH 14 16
ENDBRANCH 12 14
ENDBRANCH 9 10
BRANCH 9 27
ATOM     27  CB  SER B   6      14.057 -22.980   3.910  1.00 25.59 LIG 0.20  C 
BRANCH 27 28
ATOM     28 OG   SER B   6      14.416 -24.270   4.356  1.00 27.26 LIG-0.40  OA
ATOM     29 HG   SER B   6      14.017 -24.439   5.076  1.00 27.26 LIG 0.21  HD
ENDBRANCH 27 28
ENDBRANCH 9 27
ENDBRANCH 7 9
ENDBRANCH 1 5
BRANCH 1 30
ATOM     30  N   VAL B   5      19.946 -22.497   3.043  1.00 22.92 LIG-0.35  N 
ATOM     31 H    VAL B   5      20.243 -23.301   2.971  1.00 22.92 LIG 0.16  HD
ATOM     32  C   GLN B   4      20.426 -21.487   2.334  1.00 24.29 LIG 0.24  C 
ATOM     33 O    GLN B   4      20.004 -20.348   2.379  1.00 26.90 LIG-0.27  OA
BRANCH 32 34
ATOM     34  CA  GLN B   4      21.584 -21.845   1.400  1.00 30.52 LIG 0.18  C 
BRANCH 34 35
ATOM     35  CB  GLN B   4      22.809 -21.035   1.824  1.00 36.61 LIG 0.04  C 
BRANCH 35 36
ATOM     36  CG  GLN B   4      22.709 -19.560   1.473  1.00 50.94 LIG 0.10  C 
BRANCH 36 37
ATOM     37  CD  GLN B   4      23.715 -18.737   2.272  1.00 60.90 LIG 0.21  C 
ATOM     38  NE2 GLN B   4      23.638 -18.810   3.599  1.00 82.36 LIG-0.37  N 
ATOM     39 21HE GLN B   4      23.036 -19.300   3.969  1.00 82.36 LIG 0.16  HD
ATOM     40 22HE GLN B   4      24.191 -18.367   4.087  1.00 82.36 LIG 0.16  HD
ATOM     41 OE1  GLN B   4      24.555 -18.052   1.693  1.00 55.22 LIG-0.27  OA
ENDBRANCH 36 37
ENDBRANCH 35 36
ENDBRANCH 34 35
BRANCH 34 42
ATOM     42  N   GLN B   4      21.236 -21.556   0.023  1.00 37.98 LIG-0.35  N 
ATOM     43  C   GLU B   3      20.584 -22.428  -0.740  1.00 56.89 LIG 0.26  C 
ATOM     44 O    GLU B   3      20.293 -23.553  -0.359  1.00 56.58 LIG-0.27  OA
ATOM     45 H    GLN B   4      21.489 -20.780  -0.248  1.00 37.98 LIG 0.16  HD
BRANCH 43 46
ATOM     46  CA  GLU B   3      20.216 -21.957  -2.145  1.00 80.09 LIG 0.40  C 
ATOM     47  N   GLU B   3      18.771 -21.843  -2.288  1.00 75.44 LIG 0.61  N 
BRANCH 46 48
ATOM     48  CB  GLU B   3      20.874 -20.612  -2.436  1.00107.85 LIG 0.06  C 
BRANCH 48 49
ATOM     49  CG  GLU B   3      19.905 -19.454  -2.463  1.00114.95 LIG 0.12  C 
BRANCH 49 50
ATOM     50  CD  GLU B   3      19.417 -19.081  -1.076  1.00 96.82 LIG 0.17  C 
ATOM     51 OE1  GLU B   3      18.763 -19.927  -0.421  1.00 91.15 LIG-0.65  OA
ATOM     52 OE2  GLU B   3      19.700 -17.944  -0.633  1.00 91.13 LIG-0.65  OA
ENDBRANCH 49 50
ENDBRANCH 48 49
ENDBRANCH 46 48
ENDBRANCH 43 46
ENDBRANCH 34 42
ENDBRANCH 32 34
ENDBRANCH 1 30
TORSDOF 21
ENDMDL
MODEL 48
USER: ADFR SOLUTION from run 169
USER: SCORE 15.124658 LL:  -4.029 LR: -13.182 RR:   0.000 FEB:  -6.918
USER: RMSD 11.733840
USER: SEED 168
USER: STATUS no improvement in best in 9 clusters for 5 generations
USER: GENES 23
USER: genes 0 Translation |==|  0.73714 0.52572 0.52102
USER: genes 1 Rotation |==|  0.71304 0.23346 0.85391 0.59121
USER: genes 2 Torsion [C]-CA--CB-[CG2] |==|  0.80765
USER: genes 3 Torsion [N]-CA--C-[N] |==|  0.19283
USER: genes 4 Torsion [C]-N--CA-[CB] |==|  0.17237
USER: genes 5 Torsion [N]-CA--C-[N] |==|  0.37948
USER: genes 6 Torsion [C]-N--CA-[CB] |==|  0.21163
USER: genes 7 Torsion [N]-CA--C-[N] |==|  0.96201
USER: genes 8 Torsion [C]-N--CA-[CB] |==|  0.87767
USER: genes 9 Torsion [N]-CA--C-[O] |==|  0.31122
USER: genes 10 Torsion [N]-CA--CB-[CG2] |==|  0.83718
USER: genes 11 Torsion [N]-CA--CB-[OG] |==|  0.08293
USER: genes 12 Torsion [CA]-CB--OG-[HG] |==|  0.78862
USER: genes 13 Torsion [CB]-CA--N-[C] |==|  0.78216
USER: genes 14 Torsion [N]-C--CA-[N] |==|  0.38827
USER: genes 15 Torsion [C]-CA--CB-[CG] |==|  0.16480
USER: genes 16 Torsion [CA]-CB--CG-[CD] |==|  0.56668
USER: genes 17 Torsion [CB]-CG--CD-[OE1] |==|  0.34133
USER: genes 18 Torsion [C]-CA--N-[C] |==|  0.82761
USER: genes 19 Torsion [N]-C--CA-[N] |==|  0.20614
USER: genes 20 Torsion [C]-CA--CB-[CG] |==|  0.43114
USER: genes 21 Torsion [CA]-CB--CG-[CD] |==|  0.87117
USER: genes 22 Torsion [CB]-CG--CD-[OE1] |==|  0.69742
ROOT
ATOM      1  CA  VAL B   5      19.307 -22.503   4.719  1.00 23.44 LIG 0.18  C 
ENDROOT
BRANCH 1 2
ATOM      2  CB  VAL B   5      20.163 -21.490   5.480  1.00 27.20 LIG 0.01  C 
ATOM      3  CG2 VAL B   5      20.274 -20.195   4.733  1.00 32.91 LIG 0.01  C 
ATOM      4  CG1 VAL B   5      21.531 -22.050   5.805  1.00 27.01 LIG 0.01  C 
ENDBRANCH 1 2
BRANCH 1 5
ATOM      5  C   VAL B   5      17.851 -22.052   4.715  1.00 21.98 LIG 0.24  C 
ATOM      6 O    VAL B   5      17.556 -20.948   5.163  1.00 26.26 LIG-0.27  OA
ATOM      7  N   SER B   6      16.932 -22.912   4.269  1.00 19.41 LIG-0.34  N 
ATOM      8 H    SER B   6      17.124 -23.710   4.013  1.00 19.41 LIG 0.16  HD
BRANCH 7 9
ATOM      9  CA  SER B   6      15.525 -22.596   4.167  1.00 20.84 LIG 0.20  C 
BRANCH 9 10
ATOM     10  C   SER B   6      14.698 -23.775   3.701  1.00 18.76 LIG 0.24  C 
ATOM     11 O    SER B   6      15.016 -24.444   2.735  1.00 19.89 LIG-0.27  OA
ATOM     12  N   ALA B   7      13.574 -23.952   4.353  1.00 19.53 LIG-0.35  N 
ATOM     13 H    ALA B   7      13.343 -23.457   5.017  1.00 19.53 LIG 0.16  HD
BRANCH 12 14
ATOM     14  CA  ALA B   7      12.592 -24.984   4.044  1.00 19.70 LIG 0.17  C 
ATOM     15  CB  ALA B   7      13.099 -26.342   4.560  1.00 20.39 LIG 0.04  C 
BRANCH 14 16
ATOM     16  C   ALA B   7      11.251 -24.715   4.702  1.00 16.34 LIG 0.24  C 
ATOM     17  N   VAL B   8      11.200 -23.799   5.652  1.00 16.85 LIG-0.34  N 
ATOM     18 H    VAL B   8      11.889 -23.401   5.976  1.00 16.85 LIG 0.16  HD
ATOM     19 O    ALA B   7      10.260 -25.295   4.307  1.00 20.16 LIG-0.27  OA
BRANCH 17 20
ATOM     20  CA  VAL B   8       9.919 -23.384   6.240  1.00 17.28 LIG 0.19  C 
BRANCH 20 21
ATOM     21  C   VAL B   8       9.490 -24.430   7.263  1.00 17.19 LIG 0.20  C 
ATOM     22 O    VAL B   8       9.473 -24.135   8.480  1.00 24.30 LIG-0.65  OA
ATOM     23 OXT  VAL B   8       9.194 -25.595   6.916  1.00 16.53 LIG-0.65  OA
ENDBRANCH 20 21
BRANCH 20 24
ATOM     24  CB  VAL B   8       8.811 -23.162   5.163  1.00 17.38 LIG 0.01  C 
ATOM     25  CG2 VAL B   8       9.272 -22.098   4.173  1.00 18.61 LIG 0.01  C 
ATOM     26  CG1 VAL B   8       7.494 -22.830   5.812  1.00 19.61 LIG 0.01  C 
ENDBRANCH 20 24
ENDBRANCH 17 20
ENDBRANCH 14 16
ENDBRANCH 12 14
ENDBRANCH 9 10
BRANCH 9 27
ATOM     27  CB  SER B   6      15.300 -21.447   3.193  1.00 25.59 LIG 0.20  C 
BRANCH 27 28
ATOM     28 OG   SER B   6      16.295 -21.447   2.193  1.00 27.26 LIG-0.40  OA
ATOM     29 HG   SER B   6      17.012 -21.144   2.510  1.00 27.26 LIG 0.21  HD
ENDBRANCH 27 28
ENDBRANCH 9 27
ENDBRANCH 7 9
ENDBRANCH 1 5
BRANCH 1 30
ATOM     30  N   VAL B   5      19.727 -22.594   3.340  1.00 22.92 LIG-0.35  N 
ATOM     31 H    VAL B   5      20.212 -23.286   3.175  1.00 22.92 LIG 0.16  HD
ATOM     32  C   GLN B   4      19.403 -21.704   2.414  1.00 24.29 LIG 0.24  C 
ATOM     33 O    GLN B   4      18.687 -20.741   2.602  1.00 26.90 LIG-0.27  OA
BRANCH 32 34
ATOM     34  CA  GLN B   4      19.992 -21.970   1.027  1.00 30.52 LIG 0.18  C 
BRANCH 34 35
ATOM     35  CB  GLN B   4      21.229 -21.091   0.855  1.00 36.61 LIG 0.04  C 
BRANCH 35 36
ATOM     36  CG  GLN B   4      22.304 -21.351   1.896  1.00 50.94 LIG 0.10  C 
BRANCH 36 37
ATOM     37  CD  GLN B   4      23.205 -20.132   2.070  1.00 60.90 LIG 0.21  C 
ATOM     38  NE2 GLN B   4      23.818 -19.672   0.981  1.00 82.36 LIG-0.37  N 
ATOM     39 21HE GLN B   4      23.703 -20.064   0.225  1.00 82.36 LIG 0.16  HD
ATOM     40 22HE GLN B   4      24.330 -18.982   1.034  1.00 82.36 LIG 0.16  HD
ATOM     41 OE1  GLN B   4      23.336 -19.609   3.175  1.00 55.22 LIG-0.27  OA
ENDBRANCH 36 37
ENDBRANCH 35 36
ENDBRANCH 34 35
BRANCH 34 42
ATOM     42  N   GLN B   4      19.016 -21.681  -0.005  1.00 37.98 LIG-0.35  N 
ATOM     43  C   GLU B   3      17.865 -22.341  -0.097  1.00 56.89 LIG 0.26  C 
ATOM     44 O    GLU B   3      17.580 -23.279   0.635  1.00 56.58 LIG-0.27  OA
ATOM     45 H    GLN B   4      19.249 -21.052  -0.543  1.00 37.98 LIG 0.16  HD
BRANCH 43 46
ATOM     46  CA  GLU B   3      16.901 -21.875  -1.185  1.00 80.09 LIG 0.40  C 
ATOM     47  N   GLU B   3      17.366 -22.295  -2.499  1.00 75.44 LIG 0.61  N 
BRANCH 46 48
ATOM     48  CB  GLU B   3      15.506 -22.435  -0.925  1.00107.85 LIG 0.06  C 
BRANCH 48 49
ATOM     49  CG  GLU B   3      14.397 -21.613  -1.536  1.00114.95 LIG 0.12  C 
BRANCH 49 50
ATOM     50  CD  GLU B   3      14.568 -20.129  -1.270  1.00 96.82 LIG 0.17  C 
ATOM     51 OE1  GLU B   3      13.784 -19.567  -0.470  1.00 91.15 LIG-0.65  OA
ATOM     52 OE2  GLU B   3      15.499 -19.525  -1.853  1.00 91.13 LIG-0.65  OA
ENDBRANCH 49 50
ENDBRANCH 48 49
ENDBRANCH 46 48
ENDBRANCH 43 46
ENDBRANCH 34 42
ENDBRANCH 32 34
ENDBRANCH 1 30
TORSDOF 21
ENDMDL
MODEL 49
USER: ADFR SOLUTION from run 112
USER: SCORE 17.482814 LL:  -5.920 LR: -13.166 RR:   0.000 FEB:  -6.902
USER: RMSD 11.809455
USER: SEED 111
USER: STATUS no improvement in best in 5 clusters for 5 generations
USER: GENES 23
USER: genes 0 Translation |==|  0.68749 0.53138 0.51152
USER: genes 1 Rotation |==|  0.39462 0.60690 0.03329 0.59823
USER: genes 2 Torsion [C]-CA--CB-[CG2] |==|  0.98188
USER: genes 3 Torsion [N]-CA--C-[N] |==|  0.89542
USER: genes 4 Torsion [C]-N--CA-[CB] |==|  0.82395
USER: genes 5 Torsion [N]-CA--C-[N] |==|  0.42153
USER: genes 6 Torsion [C]-N--CA-[CB] |==|  0.81107
USER: genes 7 Torsion [N]-CA--C-[N] |==|  0.09402
USER: genes 8 Torsion [C]-N--CA-[CB] |==|  0.26627
USER: genes 9 Torsion [N]-CA--C-[O] |==|  0.53915
USER: genes 10 Torsion [N]-CA--CB-[CG2] |==|  0.88912
USER: genes 11 Torsion [N]-CA--CB-[OG] |==|  0.87681
USER: genes 12 Torsion [CA]-CB--OG-[HG] |==|  0.19618
USER: genes 13 Torsion [CB]-CA--N-[C] |==|  0.23889
USER: genes 14 Torsion [N]-C--CA-[N] |==|  0.01073
USER: genes 15 Torsion [C]-CA--CB-[CG] |==|  0.71370
USER: genes 16 Torsion [CA]-CB--CG-[CD] |==|  0.74473
USER: genes 17 Torsion [CB]-CG--CD-[OE1] |==|  0.92138
USER: genes 18 Torsion [C]-CA--N-[C] |==|  0.71312
USER: genes 19 Torsion [N]-C--CA-[N] |==|  0.75429
USER: genes 20 Torsion [C]-CA--CB-[CG] |==|  0.68917
USER: genes 21 Torsion [CA]-CB--CG-[CD] |==|  0.17928
USER: genes 22 Torsion [CB]-CG--CD-[OE1] |==|  0.15815
ROOT
ATOM      1  CA  VAL B   5      17.818 -22.406   4.555  1.00 23.44 LIG 0.18  C 
ENDROOT
BRANCH 1 2
ATOM      2  CB  VAL B   5      17.238 -21.011   4.796  1.00 27.20 LIG 0.01  C 
ATOM      3  CG2 VAL B   5      16.104 -20.720   3.860  1.00 32.91 LIG 0.01  C 
ATOM      4  CG1 VAL B   5      18.306 -19.942   4.707  1.00 27.01 LIG 0.01  C 
ENDBRANCH 1 2
BRANCH 1 5
ATOM      5  C   VAL B   5      16.963 -23.153   3.537  1.00 21.98 LIG 0.24  C 
ATOM      6 O    VAL B   5      16.142 -23.980   3.923  1.00 26.26 LIG-0.27  OA
ATOM      7  N   SER B   6      17.184 -22.915   2.242  1.00 19.41 LIG-0.34  N 
ATOM      8 H    SER B   6      17.800 -22.385   1.963  1.00 19.41 LIG 0.16  HD
BRANCH 7 9
ATOM      9  CA  SER B   6      16.415 -23.519   1.176  1.00 20.84 LIG 0.20  C 
BRANCH 9 10
ATOM     10  C   SER B   6      14.935 -23.226   1.290  1.00 18.76 LIG 0.24  C 
ATOM     11 O    SER B   6      14.382 -23.104   2.368  1.00 19.89 LIG-0.27  OA
ATOM     12  N   ALA B   7      14.286 -23.213   0.150  1.00 19.53 LIG-0.35  N 
ATOM     13 H    ALA B   7      14.681 -23.326  -0.606  1.00 19.53 LIG 0.16  HD
BRANCH 12 14
ATOM     14  CA  ALA B   7      12.849 -23.010   0.018  1.00 19.70 LIG 0.17  C 
ATOM     15  CB  ALA B   7      12.106 -24.221   0.608  1.00 20.39 LIG 0.04  C 
BRANCH 14 16
ATOM     16  C   ALA B   7      12.374 -21.773   0.760  1.00 16.34 LIG 0.24  C 
ATOM     17  N   VAL B   8      13.188 -20.735   0.817  1.00 16.85 LIG-0.34  N 
ATOM     18 H    VAL B   8      13.998 -20.740   0.530  1.00 16.85 LIG 0.16  HD
ATOM     19 O    ALA B   7      11.253 -21.745   1.225  1.00 20.16 LIG-0.27  OA
BRANCH 17 20
ATOM     20  CA  VAL B   8      12.750 -19.457   1.395  1.00 17.28 LIG 0.19  C 
BRANCH 20 21
ATOM     21  C   VAL B   8      13.318 -18.321   0.553  1.00 17.19 LIG 0.20  C 
ATOM     22 O    VAL B   8      13.301 -17.150   0.998  1.00 24.30 LIG-0.65  OA
ATOM     23 OXT  VAL B   8      13.765 -18.525  -0.598  1.00 16.53 LIG-0.65  OA
ENDBRANCH 20 21
BRANCH 20 24
ATOM     24  CB  VAL B   8      13.160 -19.308   2.893  1.00 17.38 LIG 0.01  C 
ATOM     25  CG2 VAL B   8      12.972 -20.642   3.607  1.00 18.61 LIG 0.01  C 
ATOM     26  CG1 VAL B   8      12.402 -18.182   3.545  1.00 19.61 LIG 0.01  C 
ENDBRANCH 20 24
ENDBRANCH 17 20
ENDBRANCH 14 16
ENDBRANCH 12 14
ENDBRANCH 9 10
BRANCH 9 27
ATOM     27  CB  SER B   6      16.598 -25.031   1.172  1.00 25.59 LIG 0.20  C 
BRANCH 27 28
ATOM     28 OG   SER B   6      17.958 -25.364   1.344  1.00 27.26 LIG-0.40  OA
ATOM     29 HG   SER B   6      18.192 -25.188   2.132  1.00 27.26 LIG 0.21  HD
ENDBRANCH 27 28
ENDBRANCH 9 27
ENDBRANCH 7 9
ENDBRANCH 1 5
BRANCH 1 30
ATOM     30  N   VAL B   5      19.152 -22.318   4.007  1.00 22.92 LIG-0.35  N 
ATOM     31 H    VAL B   5      19.171 -22.350   3.147  1.00 22.92 LIG 0.16  HD
ATOM     32  C   GLN B   4      20.242 -22.199   4.748  1.00 24.29 LIG 0.24  C 
ATOM     33 O    GLN B   4      20.248 -22.107   5.960  1.00 26.90 LIG-0.27  OA
BRANCH 32 34
ATOM     34  CA  GLN B   4      21.557 -22.167   3.965  1.00 30.52 LIG 0.18  C 
BRANCH 34 35
ATOM     35  CB  GLN B   4      22.316 -20.900   4.355  1.00 36.61 LIG 0.04  C 
BRANCH 35 36
ATOM     36  CG  GLN B   4      22.235 -19.801   3.309  1.00 50.94 LIG 0.10  C 
BRANCH 36 37
ATOM     37  CD  GLN B   4      23.405 -19.886   2.332  1.00 60.90 LIG 0.21  C 
ATOM     38  NE2 GLN B   4      23.201 -19.417   1.103  1.00 82.36 LIG-0.37  N 
ATOM     39 21HE GLN B   4      22.435 -19.091   0.889  1.00 82.36 LIG 0.16  HD
ATOM     40 22HE GLN B   4      23.836 -19.440   0.523  1.00 82.36 LIG 0.16  HD
ATOM     41 OE1  GLN B   4      24.479 -20.363   2.690  1.00 55.22 LIG-0.27  OA
ENDBRANCH 36 37
ENDBRANCH 35 36
ENDBRANCH 34 35
BRANCH 34 42
ATOM     42  N   GLN B   4      21.300 -22.186   2.538  1.00 37.98 LIG-0.35  N 
ATOM     43  C   GLU B   3      21.461 -23.283   1.805  1.00 56.89 LIG 0.26  C 
ATOM     44 O    GLU B   3      21.900 -24.328   2.264  1.00 56.58 LIG-0.27  OA
ATOM     45 H    GLN B   4      21.038 -21.432   2.218  1.00 37.98 LIG 0.16  HD
BRANCH 43 46
ATOM     46  CA  GLU B   3      21.077 -23.175   0.330  1.00 80.09 LIG 0.40  C 
ATOM     47  N   GLU B   3      19.669 -23.492   0.140  1.00 75.44 LIG 0.61  N 
BRANCH 46 48
ATOM     48  CB  GLU B   3      21.368 -21.769  -0.185  1.00107.85 LIG 0.06  C 
BRANCH 48 49
ATOM     49  CG  GLU B   3      20.127 -20.977  -0.523  1.00114.95 LIG 0.12  C 
BRANCH 49 50
ATOM     50  CD  GLU B   3      19.272 -20.701   0.700  1.00 96.82 LIG 0.17  C 
ATOM     51 OE1  GLU B   3      19.789 -20.102   1.672  1.00 91.15 LIG-0.65  OA
ATOM     52 OE2  GLU B   3      18.075 -21.072   0.683  1.00 91.13 LIG-0.65  OA
ENDBRANCH 49 50
ENDBRANCH 48 49
ENDBRANCH 46 48
ENDBRANCH 43 46
ENDBRANCH 34 42
ENDBRANCH 32 34
ENDBRANCH 1 30
TORSDOF 21
ENDMDL
MODEL 50
USER: ADFR SOLUTION from run 24
USER: SCORE 16.109516 LL:  -4.225 LR: -13.169 RR:   0.000 FEB:  -6.905
USER: RMSD 12.332186
USER: SEED 23
USER: STATUS searching
USER: GENES 23
USER: genes 0 Translation |==|  0.68939 0.52556 0.51257
USER: genes 1 Rotation |==|  0.67146 0.26428 0.89040 0.61236
USER: genes 2 Torsion [C]-CA--CB-[CG2] |==|  0.79881
USER: genes 3 Torsion [N]-CA--C-[N] |==|  0.20506
USER: genes 4 Torsion [C]-N--CA-[CB] |==|  0.17154
USER: genes 5 Torsion [N]-CA--C-[N] |==|  0.09758
USER: genes 6 Torsion [C]-N--CA-[CB] |==|  0.85963
USER: genes 7 Torsion [N]-CA--C-[N] |==|  0.35840
USER: genes 8 Torsion [C]-N--CA-[CB] |==|  0.19360
USER: genes 9 Torsion [N]-CA--C-[O] |==|  0.90667
USER: genes 10 Torsion [N]-CA--CB-[CG2] |==|  0.63058
USER: genes 11 Torsion [N]-CA--CB-[OG] |==|  0.10914
USER: genes 12 Torsion [CA]-CB--OG-[HG] |==|  0.84369
USER: genes 13 Torsion [CB]-CA--N-[C] |==|  0.76051
USER: genes 14 Torsion [N]-C--CA-[N] |==|  0.78478
USER: genes 15 Torsion [C]-CA--CB-[CG] |==|  0.46769
USER: genes 16 Torsion [CA]-CB--CG-[CD] |==|  0.25614
USER: genes 17 Torsion [CB]-CG--CD-[OE1] |==|  0.13562
USER: genes 18 Torsion [C]-CA--N-[C] |==|  0.86428
USER: genes 19 Torsion [N]-C--CA-[N] |==|  0.37128
USER: genes 20 Torsion [C]-CA--CB-[CG] |==|  0.11637
USER: genes 21 Torsion [CA]-CB--CG-[CD] |==|  0.15631
USER: genes 22 Torsion [CB]-CG--CD-[OE1] |==|  0.96551
ROOT
ATOM      1  CA  VAL B   5      17.875 -22.506   4.573  1.00 23.44 LIG 0.18  C 
ENDROOT
BRANCH 1 2
ATOM      2  CB  VAL B   5      18.727 -21.393   5.183  1.00 27.20 LIG 0.01  C 
ATOM      3  CG2 VAL B   5      19.085 -20.354   4.162  1.00 32.91 LIG 0.01  C 
ATOM      4  CG1 VAL B   5      19.966 -21.945   5.854  1.00 27.01 LIG 0.01  C 
ENDBRANCH 1 2
BRANCH 1 5
ATOM      5  C   VAL B   5      16.469 -21.988   4.294  1.00 21.98 LIG 0.24  C 
ATOM      6 O    VAL B   5      16.240 -20.783   4.364  1.00 26.26 LIG-0.27  OA
ATOM      7  N   SER B   6      15.513 -22.883   4.034  1.00 19.41 LIG-0.34  N 
ATOM      8 H    SER B   6      15.652 -23.731   4.047  1.00 19.41 LIG 0.16  HD
BRANCH 7 9
ATOM      9  CA  SER B   6      14.150 -22.526   3.707  1.00 20.84 LIG 0.20  C 
BRANCH 9 10
ATOM     10  C   SER B   6      13.262 -23.738   3.525  1.00 18.76 LIG 0.24  C 
ATOM     11 O    SER B   6      12.309 -23.731   2.766  1.00 19.89 LIG-0.27  OA
ATOM     12  N   ALA B   7      13.538 -24.748   4.315  1.00 19.53 LIG-0.35  N 
ATOM     13 H    ALA B   7      14.197 -24.734   4.868  1.00 19.53 LIG 0.16  HD
BRANCH 12 14
ATOM     14  CA  ALA B   7      12.784 -25.994   4.359  1.00 19.70 LIG 0.17  C 
ATOM     15  CB  ALA B   7      11.285 -25.680   4.505  1.00 20.39 LIG 0.04  C 
BRANCH 14 16
ATOM     16  C   ALA B   7      12.960 -26.815   3.094  1.00 16.34 LIG 0.24  C 
ATOM     17  N   VAL B   8      13.300 -28.084   3.222  1.00 16.85 LIG-0.34  N 
ATOM     18 H    VAL B   8      13.504 -28.456   3.969  1.00 16.85 LIG 0.16  HD
ATOM     19 O    ALA B   7      12.730 -26.311   2.013  1.00 20.16 LIG-0.27  OA
BRANCH 17 20
ATOM     20  CA  VAL B   8      13.354 -28.977   2.057  1.00 17.28 LIG 0.19  C 
BRANCH 20 21
ATOM     21  C   VAL B   8      13.446 -30.417   2.549  1.00 17.19 LIG 0.20  C 
ATOM     22 O    VAL B   8      14.068 -30.673   3.606  1.00 24.30 LIG-0.65  OA
ATOM     23 OXT  VAL B   8      12.948 -31.361   1.894  1.00 16.53 LIG-0.65  OA
ENDBRANCH 20 21
BRANCH 20 24
ATOM     24  CB  VAL B   8      14.535 -28.634   1.095  1.00 17.38 LIG 0.01  C 
ATOM     25  CG2 VAL B   8      14.026 -28.601  -0.342  1.00 18.61 LIG 0.01  C 
ATOM     26  CG1 VAL B   8      15.679 -29.593   1.291  1.00 19.61 LIG 0.01  C 
ENDBRANCH 20 24
ENDBRANCH 17 20
ENDBRANCH 14 16
ENDBRANCH 12 14
ENDBRANCH 9 10
BRANCH 9 27
ATOM     27  CB  SER B   6      14.102 -21.708   2.423  1.00 25.59 LIG 0.20  C 
BRANCH 27 28
ATOM     28 OG   SER B   6      15.028 -22.210   1.484  1.00 27.26 LIG-0.40  OA
ATOM     29 HG   SER B   6      15.796 -22.217   1.823  1.00 27.26 LIG 0.21  HD
ENDBRANCH 27 28
ENDBRANCH 9 27
ENDBRANCH 7 9
ENDBRANCH 1 5
BRANCH 1 30
ATOM     30  N   VAL B   5      18.426 -22.940   3.310  1.00 22.92 LIG-0.35  N 
ATOM     31 H    VAL B   5      18.954 -23.616   3.381  1.00 22.92 LIG 0.16  HD
ATOM     32  C   GLN B   4      18.152 -22.359   2.152  1.00 24.29 LIG 0.24  C 
ATOM     33 O    GLN B   4      17.381 -21.431   2.010  1.00 26.90 LIG-0.27  OA
BRANCH 32 34
ATOM     34  CA  GLN B   4      18.880 -22.951   0.943  1.00 30.52 LIG 0.18  C 
BRANCH 34 35
ATOM     35  CB  GLN B   4      18.821 -24.474   1.047  1.00 36.61 LIG 0.04  C 
BRANCH 35 36
ATOM     36  CG  GLN B   4      19.257 -25.184  -0.223  1.00 50.94 LIG 0.10  C 
BRANCH 36 37
ATOM     37  CD  GLN B   4      20.748 -25.508  -0.185  1.00 60.90 LIG 0.21  C 
ATOM     38  NE2 GLN B   4      21.469 -25.165  -1.252  1.00 82.36 LIG-0.37  N 
ATOM     39 21HE GLN B   4      21.089 -24.786  -1.923  1.00 82.36 LIG 0.16  HD
ATOM     40 22HE GLN B   4      22.314 -25.324  -1.269  1.00 82.36 LIG 0.16  HD
ATOM     41 OE1  GLN B   4      21.240 -26.052   0.800  1.00 55.22 LIG-0.27  OA
ENDBRANCH 36 37
ENDBRANCH 35 36
ENDBRANCH 34 35
BRANCH 34 42
ATOM     42  N   GLN B   4      20.256 -22.497   0.904  1.00 37.98 LIG-0.35  N 
ATOM     43  C   GLU B   3      20.583 -21.216   1.034  1.00 56.89 LIG 0.26  C 
ATOM     44 O    GLU B   3      19.749 -20.326   1.127  1.00 56.58 LIG-0.27  OA
ATOM     45 H    GLN B   4      20.830 -23.127   0.789  1.00 37.98 LIG 0.16  HD
BRANCH 43 46
ATOM     46  CA  GLU B   3      22.076 -20.895   1.051  1.00 80.09 LIG 0.40  C 
ATOM     47  N   GLU B   3      22.371 -19.770   0.175  1.00 75.44 LIG 0.61  N 
BRANCH 46 48
ATOM     48  CB  GLU B   3      22.528 -20.578   2.473  1.00107.85 LIG 0.06  C 
BRANCH 48 49
ATOM     49  CG  GLU B   3      21.938 -21.496   3.517  1.00114.95 LIG 0.12  C 
BRANCH 49 50
ATOM     50  CD  GLU B   3      22.234 -22.956   3.231  1.00 96.82 LIG 0.17  C 
ATOM     51 OE1  GLU B   3      22.691 -23.268   2.106  1.00 91.15 LIG-0.65  OA
ATOM     52 OE2  GLU B   3      22.021 -23.794   4.138  1.00 91.13 LIG-0.65  OA
ENDBRANCH 49 50
ENDBRANCH 48 49
ENDBRANCH 46 48
ENDBRANCH 43 46
ENDBRANCH 34 42
ENDBRANCH 32 34
ENDBRANCH 1 30
TORSDOF 21
ENDMDL
MODEL 51
USER: ADFR SOLUTION from run 178
USER: SCORE 14.828367 LL:  -4.370 LR: -13.157 RR:   0.000 FEB:  -6.893
USER: RMSD 12.482870
USER: SEED 177
USER: STATUS no improvement in best in 11 clusters for 5 generations
USER: GENES 23
USER: genes 0 Translation |==|  0.69163 0.53761 0.49948
USER: genes 1 Rotation |==|  0.73546 0.36785 0.91675 0.55843
USER: genes 2 Torsion [C]-CA--CB-[CG2] |==|  0.57272
USER: genes 3 Torsion [N]-CA--C-[N] |==|  0.71020
USER: genes 4 Torsion [C]-N--CA-[CB] |==|  0.56951
USER: genes 5 Torsion [N]-CA--C-[N] |==|  0.29737
USER: genes 6 Torsion [C]-N--CA-[CB] |==|  0.69573
USER: genes 7 Torsion [N]-CA--C-[N] |==|  0.27660
USER: genes 8 Torsion [C]-N--CA-[CB] |==|  0.30359
USER: genes 9 Torsion [N]-CA--C-[O] |==|  0.95325
USER: genes 10 Torsion [N]-CA--CB-[CG2] |==|  0.28012
USER: genes 11 Torsion [N]-CA--CB-[OG] |==|  0.64014
USER: genes 12 Torsion [CA]-CB--OG-[HG] |==|  0.91750
USER: genes 13 Torsion [CB]-CA--N-[C] |==|  0.80550
USER: genes 14 Torsion [N]-C--CA-[N] |==|  0.82232
USER: genes 15 Torsion [C]-CA--CB-[CG] |==|  0.51881
USER: genes 16 Torsion [CA]-CB--CG-[CD] |==|  0.24911
USER: genes 17 Torsion [CB]-CG--CD-[OE1] |==|  0.97728
USER: genes 18 Torsion [C]-CA--N-[C] |==|  0.85807
USER: genes 19 Torsion [N]-C--CA-[N] |==|  0.39025
USER: genes 20 Torsion [C]-CA--CB-[CG] |==|  0.67985
USER: genes 21 Torsion [CA]-CB--CG-[CD] |==|  0.78624
USER: genes 22 Torsion [CB]-CG--CD-[OE1] |==|  0.95559
ROOT
ATOM      1  CA  VAL B   5      17.942 -22.298   4.347  1.00 23.44 LIG 0.18  C 
ENDROOT
BRANCH 1 2
ATOM      2  CB  VAL B   5      18.245 -20.812   4.538  1.00 27.20 LIG 0.01  C 
ATOM      3  CG2 VAL B   5      19.603 -20.457   4.011  1.00 32.91 LIG 0.01  C 
ATOM      4  CG1 VAL B   5      18.097 -20.395   5.985  1.00 27.01 LIG 0.01  C 
ENDBRANCH 1 2
BRANCH 1 5
ATOM      5  C   VAL B   5      16.435 -22.513   4.264  1.00 21.98 LIG 0.24  C 
ATOM      6 O    VAL B   5      15.977 -23.649   4.356  1.00 26.26 LIG-0.27  OA
ATOM      7  N   SER B   6      15.664 -21.448   4.036  1.00 19.41 LIG-0.34  N 
ATOM      8 H    SER B   6      15.983 -20.660   3.906  1.00 19.41 LIG 0.16  HD
BRANCH 7 9
ATOM      9  CA  SER B   6      14.220 -21.503   3.980  1.00 20.84 LIG 0.20  C 
BRANCH 9 10
ATOM     10  C   SER B   6      13.711 -22.804   3.399  1.00 18.76 LIG 0.24  C 
ATOM     11 O    SER B   6      13.720 -23.023   2.201  1.00 19.89 LIG-0.27  OA
ATOM     12  N   ALA B   7      13.174 -23.624   4.270  1.00 19.53 LIG-0.35  N 
ATOM     13 H    ALA B   7      13.148 -23.449   5.112  1.00 19.53 LIG 0.16  HD
BRANCH 12 14
ATOM     14  CA  ALA B   7      12.568 -24.906   3.935  1.00 19.70 LIG 0.17  C 
ATOM     15  CB  ALA B   7      11.043 -24.815   4.121  1.00 20.39 LIG 0.04  C 
BRANCH 14 16
ATOM     16  C   ALA B   7      12.832 -25.307   2.495  1.00 16.34 LIG 0.24  C 
ATOM     17  N   VAL B   8      13.800 -26.173   2.261  1.00 16.85 LIG-0.34  N 
ATOM     18 H    VAL B   8      14.341 -26.466   2.861  1.00 16.85 LIG 0.16  HD
ATOM     19 O    ALA B   7      12.121 -24.874   1.611  1.00 20.16 LIG-0.27  OA
BRANCH 17 20
ATOM     20  CA  VAL B   8      14.027 -26.714   0.914  1.00 17.28 LIG 0.19  C 
BRANCH 20 21
ATOM     21  C   VAL B   8      14.047 -28.236   0.996  1.00 17.19 LIG 0.20  C 
ATOM     22 O    VAL B   8      14.200 -28.796   2.106  1.00 24.30 LIG-0.65  OA
ATOM     23 OXT  VAL B   8      13.955 -28.944  -0.033  1.00 16.53 LIG-0.65  OA
ENDBRANCH 20 21
BRANCH 20 24
ATOM     24  CB  VAL B   8      15.336 -26.168   0.263  1.00 17.38 LIG 0.01  C 
ATOM     25  CG2 VAL B   8      16.438 -27.215   0.385  1.00 18.61 LIG 0.01  C 
ATOM     26  CG1 VAL B   8      15.718 -24.841   0.863  1.00 19.61 LIG 0.01  C 
ENDBRANCH 20 24
ENDBRANCH 17 20
ENDBRANCH 14 16
ENDBRANCH 12 14
ENDBRANCH 9 10
BRANCH 9 27
ATOM     27  CB  SER B   6      13.671 -20.361   3.135  1.00 25.59 LIG 0.20  C 
BRANCH 27 28
ATOM     28 OG   SER B   6      12.655 -19.674   3.832  1.00 27.26 LIG-0.40  OA
ATOM     29 HG   SER B   6      12.265 -20.205   4.353  1.00 27.26 LIG 0.21  HD
ENDBRANCH 27 28
ENDBRANCH 9 27
ENDBRANCH 7 9
ENDBRANCH 1 5
BRANCH 1 30
ATOM     30  N   VAL B   5      18.509 -22.781   3.109  1.00 22.92 LIG-0.35  N 
ATOM     31 H    VAL B   5      19.173 -23.315   3.223  1.00 22.92 LIG 0.16  HD
ATOM     32  C   GLN B   4      18.055 -22.440   1.913  1.00 24.29 LIG 0.24  C 
ATOM     33 O    GLN B   4      17.094 -21.724   1.716  1.00 26.90 LIG-0.27  OA
BRANCH 32 34
ATOM     34  CA  GLN B   4      18.830 -23.033   0.734  1.00 30.52 LIG 0.18  C 
BRANCH 34 35
ATOM     35  CB  GLN B   4      18.817 -24.555   0.868  1.00 36.61 LIG 0.04  C 
BRANCH 35 36
ATOM     36  CG  GLN B   4      19.693 -25.259  -0.154  1.00 50.94 LIG 0.10  C 
BRANCH 36 37
ATOM     37  CD  GLN B   4      21.114 -25.437   0.371  1.00 60.90 LIG 0.21  C 
ATOM     38  NE2 GLN B   4      21.942 -26.178  -0.362  1.00 82.36 LIG-0.37  N 
ATOM     39 21HE GLN B   4      21.665 -26.537  -1.093  1.00 82.36 LIG 0.16  HD
ATOM     40 22HE GLN B   4      22.754 -26.298  -0.106  1.00 82.36 LIG 0.16  HD
ATOM     41 OE1  GLN B   4      21.459 -24.901   1.422  1.00 55.22 LIG-0.27  OA
ENDBRANCH 36 37
ENDBRANCH 35 36
ENDBRANCH 34 35
BRANCH 34 42
ATOM     42  N   GLN B   4      20.192 -22.536   0.718  1.00 37.98 LIG-0.35  N 
ATOM     43  C   GLU B   3      20.474 -21.239   0.787  1.00 56.89 LIG 0.26  C 
ATOM     44 O    GLU B   3      19.610 -20.374   0.798  1.00 56.58 LIG-0.27  OA
ATOM     45 H    GLN B   4      20.790 -23.152   0.662  1.00 37.98 LIG 0.16  HD
BRANCH 43 46
ATOM     46  CA  GLU B   3      21.955 -20.868   0.840  1.00 80.09 LIG 0.40  C 
ATOM     47  N   GLU B   3      22.218 -19.684   0.035  1.00 75.44 LIG 0.61  N 
BRANCH 46 48
ATOM     48  CB  GLU B   3      22.382 -20.621   2.283  1.00107.85 LIG 0.06  C 
BRANCH 48 49
ATOM     49  CG  GLU B   3      22.802 -19.196   2.556  1.00114.95 LIG 0.12  C 
BRANCH 49 50
ATOM     50  CD  GLU B   3      24.193 -18.897   2.031  1.00 96.82 LIG 0.17  C 
ATOM     51 OE1  GLU B   3      24.942 -19.857   1.731  1.00 91.15 LIG-0.65  OA
ATOM     52 OE2  GLU B   3      24.535 -17.698   1.904  1.00 91.13 LIG-0.65  OA
ENDBRANCH 49 50
ENDBRANCH 48 49
ENDBRANCH 46 48
ENDBRANCH 43 46
ENDBRANCH 34 42
ENDBRANCH 32 34
ENDBRANCH 1 30
TORSDOF 21
ENDMDL
MODEL 52
USER: ADFR SOLUTION from run 91
USER: SCORE 15.201589 LL:  -4.527 LR: -13.137 RR:   0.000 FEB:  -6.872
USER: RMSD 11.579110
USER: SEED 90
USER: STATUS no improvement in best in 14 clusters for 5 generations
USER: GENES 23
USER: genes 0 Translation |==|  0.73178 0.52734 0.51278
USER: genes 1 Rotation |==|  0.65782 0.23046 0.88891 0.53446
USER: genes 2 Torsion [C]-CA--CB-[CG2] |==|  0.41625
USER: genes 3 Torsion [N]-CA--C-[N] |==|  0.31111
USER: genes 4 Torsion [C]-N--CA-[CB] |==|  0.81663
USER: genes 5 Torsion [N]-CA--C-[N] |==|  0.43082
USER: genes 6 Torsion [C]-N--CA-[CB] |==|  0.39563
USER: genes 7 Torsion [N]-CA--C-[N] |==|  0.05535
USER: genes 8 Torsion [C]-N--CA-[CB] |==|  0.43620
USER: genes 9 Torsion [N]-CA--C-[O] |==|  0.59644
USER: genes 10 Torsion [N]-CA--CB-[CG2] |==|  0.09901
USER: genes 11 Torsion [N]-CA--CB-[OG] |==|  0.53810
USER: genes 12 Torsion [CA]-CB--OG-[HG] |==|  0.43876
USER: genes 13 Torsion [CB]-CA--N-[C] |==|  0.84968
USER: genes 14 Torsion [N]-C--CA-[N] |==|  0.16942
USER: genes 15 Torsion [C]-CA--CB-[CG] |==|  0.30062
USER: genes 16 Torsion [CA]-CB--CG-[CD] |==|  0.86841
USER: genes 17 Torsion [CB]-CG--CD-[OE1] |==|  0.19131
USER: genes 18 Torsion [C]-CA--N-[C] |==|  0.76364
USER: genes 19 Torsion [N]-C--CA-[N] |==|  0.36189
USER: genes 20 Torsion [C]-CA--CB-[CG] |==|  0.21489
USER: genes 21 Torsion [CA]-CB--CG-[CD] |==|  0.07044
USER: genes 22 Torsion [CB]-CG--CD-[OE1] |==|  0.22189
ROOT
ATOM      1  CA  VAL B   5      19.146 -22.475   4.576  1.00 23.44 LIG 0.18  C 
ENDROOT
BRANCH 1 2
ATOM      2  CB  VAL B   5      19.635 -21.411   5.559  1.00 27.20 LIG 0.01  C 
ATOM      3  CG2 VAL B   5      20.563 -21.994   6.582  1.00 32.91 LIG 0.01  C 
ATOM      4  CG1 VAL B   5      18.479 -20.692   6.221  1.00 27.01 LIG 0.01  C 
ENDBRANCH 1 2
BRANCH 1 5
ATOM      5  C   VAL B   5      17.751 -22.118   4.078  1.00 21.98 LIG 0.24  C 
ATOM      6 O    VAL B   5      17.527 -20.987   3.655  1.00 26.26 LIG-0.27  OA
ATOM      7  N   SER B   6      16.797 -23.047   4.174  1.00 19.41 LIG-0.34  N 
ATOM      8 H    SER B   6      16.931 -23.819   4.527  1.00 19.41 LIG 0.16  HD
BRANCH 7 9
ATOM      9  CA  SER B   6      15.445 -22.857   3.697  1.00 20.84 LIG 0.20  C 
BRANCH 9 10
ATOM     10  C   SER B   6      15.395 -22.457   2.238  1.00 18.76 LIG 0.24  C 
ATOM     11 O    SER B   6      16.291 -21.822   1.712  1.00 19.89 LIG-0.27  OA
ATOM     12  N   ALA B   7      14.277 -22.759   1.621  1.00 19.53 LIG-0.35  N 
ATOM     13 H    ALA B   7      13.638 -23.184   2.009  1.00 19.53 LIG 0.16  HD
BRANCH 12 14
ATOM     14  CA  ALA B   7      13.980 -22.423   0.235  1.00 19.70 LIG 0.17  C 
ATOM     15  CB  ALA B   7      13.199 -23.579  -0.415  1.00 20.39 LIG 0.04  C 
BRANCH 14 16
ATOM     16  C   ALA B   7      13.129 -21.171   0.119  1.00 16.34 LIG 0.24  C 
ATOM     17  N   VAL B   8      13.102 -20.343   1.146  1.00 16.85 LIG-0.34  N 
ATOM     18 H    VAL B   8      13.472 -20.504   1.906  1.00 16.85 LIG 0.16  HD
ATOM     19 O    ALA B   7      12.549 -20.933  -0.921  1.00 20.16 LIG-0.27  OA
BRANCH 17 20
ATOM     20  CA  VAL B   8      12.415 -19.048   1.061  1.00 17.28 LIG 0.19  C 
BRANCH 20 21
ATOM     21  C   VAL B   8      13.318 -18.064   0.325  1.00 17.19 LIG 0.20  C 
ATOM     22 O    VAL B   8      13.319 -16.856   0.656  1.00 24.30 LIG-0.65  OA
ATOM     23 OXT  VAL B   8      14.031 -18.431  -0.636  1.00 16.53 LIG-0.65  OA
ENDBRANCH 20 21
BRANCH 20 24
ATOM     24  CB  VAL B   8      12.004 -18.495   2.462  1.00 17.38 LIG 0.01  C 
ATOM     25  CG2 VAL B   8      13.070 -18.866   3.487  1.00 18.61 LIG 0.01  C 
ATOM     26  CG1 VAL B   8      10.630 -18.977   2.844  1.00 19.61 LIG 0.01  C 
ENDBRANCH 20 24
ENDBRANCH 17 20
ENDBRANCH 14 16
ENDBRANCH 12 14
ENDBRANCH 9 10
BRANCH 9 27
ATOM     27  CB  SER B   6      14.736 -21.779   4.506  1.00 25.59 LIG 0.20  C 
BRANCH 27 28
ATOM     28 OG   SER B   6      13.348 -21.810   4.260  1.00 27.26 LIG-0.40  OA
ATOM     29 HG   SER B   6      12.941 -21.447   4.900  1.00 27.26 LIG 0.21  HD
ENDBRANCH 27 28
ENDBRANCH 9 27
ENDBRANCH 7 9
ENDBRANCH 1 5
BRANCH 1 30
ATOM     30  N   VAL B   5      20.008 -22.538   3.419  1.00 22.92 LIG-0.35  N 
ATOM     31 H    VAL B   5      20.313 -23.327   3.261  1.00 22.92 LIG 0.16  HD
ATOM     32  C   GLN B   4      20.306 -21.487   2.669  1.00 24.29 LIG 0.24  C 
ATOM     33 O    GLN B   4      19.862 -20.369   2.838  1.00 26.90 LIG-0.27  OA
BRANCH 32 34
ATOM     34  CA  GLN B   4      21.273 -21.769   1.517  1.00 30.52 LIG 0.18  C 
BRANCH 34 35
ATOM     35  CB  GLN B   4      21.552 -20.452   0.793  1.00 36.61 LIG 0.04  C 
BRANCH 35 36
ATOM     36  CG  GLN B   4      22.952 -19.915   1.036  1.00 50.94 LIG 0.10  C 
BRANCH 36 37
ATOM     37  CD  GLN B   4      23.302 -19.947   2.521  1.00 60.90 LIG 0.21  C 
ATOM     38  NE2 GLN B   4      23.403 -18.774   3.144  1.00 82.36 LIG-0.37  N 
ATOM     39 21HE GLN B   4      23.279 -18.043   2.708  1.00 82.36 LIG 0.16  HD
ATOM     40 22HE GLN B   4      23.592 -18.747   3.983  1.00 82.36 LIG 0.16  HD
ATOM     41 OE1  GLN B   4      23.469 -21.019   3.096  1.00 55.22 LIG-0.27  OA
ENDBRANCH 36 37
ENDBRANCH 35 36
ENDBRANCH 34 35
BRANCH 34 42
ATOM     42  N   GLN B   4      20.708 -22.741   0.603  1.00 37.98 LIG-0.35  N 
ATOM     43  C   GLU B   3      20.818 -24.050   0.804  1.00 56.89 LIG 0.26  C 
ATOM     44 O    GLU B   3      21.459 -24.526   1.731  1.00 56.58 LIG-0.27  OA
ATOM     45 H    GLN B   4      20.301 -22.395  -0.071  1.00 37.98 LIG 0.16  HD
BRANCH 43 46
ATOM     46  CA  GLU B   3      20.105 -24.954  -0.200  1.00 80.09 LIG 0.40  C 
ATOM     47  N   GLU B   3      21.005 -25.986  -0.693  1.00 75.44 LIG 0.61  N 
BRANCH 46 48
ATOM     48  CB  GLU B   3      18.883 -25.596   0.449  1.00107.85 LIG 0.06  C 
BRANCH 48 49
ATOM     49  CG  GLU B   3      17.699 -24.666   0.568  1.00114.95 LIG 0.12  C 
BRANCH 49 50
ATOM     50  CD  GLU B   3      17.728 -23.563  -0.473  1.00 96.82 LIG 0.17  C 
ATOM     51 OE1  GLU B   3      17.344 -23.825  -1.637  1.00 91.15 LIG-0.65  OA
ATOM     52 OE2  GLU B   3      18.124 -22.427  -0.124  1.00 91.13 LIG-0.65  OA
ENDBRANCH 49 50
ENDBRANCH 48 49
ENDBRANCH 46 48
ENDBRANCH 43 46
ENDBRANCH 34 42
ENDBRANCH 32 34
ENDBRANCH 1 30
TORSDOF 21
ENDMDL
MODEL 53
USER: ADFR SOLUTION from run 27
USER: SCORE 15.121069 LL:  -4.613 LR: -13.102 RR:   0.000 FEB:  -6.837
USER: RMSD 12.423542
USER: SEED 26
USER: STATUS no improvement in best in 21 clusters for 5 generations
USER: GENES 23
USER: genes 0 Translation |==|  0.68966 0.51372 0.51174
USER: genes 1 Rotation |==|  0.65620 0.24295 0.87584 0.63518
USER: genes 2 Torsion [C]-CA--CB-[CG2] |==|  0.79731
USER: genes 3 Torsion [N]-CA--C-[N] |==|  0.21643
USER: genes 4 Torsion [C]-N--CA-[CB] |==|  0.16586
USER: genes 5 Torsion [N]-CA--C-[N] |==|  0.08392
USER: genes 6 Torsion [C]-N--CA-[CB] |==|  0.48239
USER: genes 7 Torsion [N]-CA--C-[N] |==|  0.92237
USER: genes 8 Torsion [C]-N--CA-[CB] |==|  0.86884
USER: genes 9 Torsion [N]-CA--C-[O] |==|  0.82100
USER: genes 10 Torsion [N]-CA--CB-[CG2] |==|  0.81861
USER: genes 11 Torsion [N]-CA--CB-[OG] |==|  0.72855
USER: genes 12 Torsion [CA]-CB--OG-[HG] |==|  0.16758
USER: genes 13 Torsion [CB]-CA--N-[C] |==|  0.76140
USER: genes 14 Torsion [N]-C--CA-[N] |==|  0.53812
USER: genes 15 Torsion [C]-CA--CB-[CG] |==|  0.80015
USER: genes 16 Torsion [CA]-CB--CG-[CD] |==|  0.38124
USER: genes 17 Torsion [CB]-CG--CD-[OE1] |==|  0.48665
USER: genes 18 Torsion [C]-CA--N-[C] |==|  0.53108
USER: genes 19 Torsion [N]-C--CA-[N] |==|  0.89500
USER: genes 20 Torsion [C]-CA--CB-[CG] |==|  0.88995
USER: genes 21 Torsion [CA]-CB--CG-[CD] |==|  0.82180
USER: genes 22 Torsion [CB]-CG--CD-[OE1] |==|  0.42399
ROOT
ATOM      1  CA  VAL B   5      17.883 -22.710   4.558  1.00 23.44 LIG 0.18  C 
ENDROOT
BRANCH 1 2
ATOM      2  CB  VAL B   5      18.880 -21.760   5.223  1.00 27.20 LIG 0.01  C 
ATOM      3  CG2 VAL B   5      19.399 -20.743   4.251  1.00 32.91 LIG 0.01  C 
ATOM      4  CG1 VAL B   5      20.016 -22.516   5.878  1.00 27.01 LIG 0.01  C 
ENDBRANCH 1 2
BRANCH 1 5
ATOM      5  C   VAL B   5      16.567 -21.984   4.305  1.00 21.98 LIG 0.24  C 
ATOM      6 O    VAL B   5      16.528 -20.758   4.360  1.00 26.26 LIG-0.27  OA
ATOM      7  N   SER B   6      15.478 -22.725   4.084  1.00 19.41 LIG-0.34  N 
ATOM      8 H    SER B   6      15.485 -23.584   4.107  1.00 19.41 LIG 0.16  HD
BRANCH 7 9
ATOM      9  CA  SER B   6      14.178 -22.166   3.784  1.00 20.84 LIG 0.20  C 
BRANCH 9 10
ATOM     10  C   SER B   6      13.119 -23.230   3.594  1.00 18.76 LIG 0.24  C 
ATOM     11 O    SER B   6      12.124 -23.038   2.920  1.00 19.89 LIG-0.27  OA
ATOM     12  N   ALA B   7      13.310 -24.327   4.288  1.00 19.53 LIG-0.35  N 
ATOM     13 H    ALA B   7      14.003 -24.444   4.784  1.00 19.53 LIG 0.16  HD
BRANCH 12 14
ATOM     14  CA  ALA B   7      12.396 -25.462   4.310  1.00 19.70 LIG 0.17  C 
ATOM     15  CB  ALA B   7      13.032 -26.615   5.106  1.00 20.39 LIG 0.04  C 
BRANCH 14 16
ATOM     16  C   ALA B   7      11.074 -25.120   4.974  1.00 16.34 LIG 0.24  C 
ATOM     17  N   VAL B   8      11.070 -24.175   5.895  1.00 16.85 LIG-0.34  N 
ATOM     18 H    VAL B   8      11.778 -23.794   6.199  1.00 16.85 LIG 0.16  HD
ATOM     19 O    ALA B   7      10.057 -25.673   4.608  1.00 20.16 LIG-0.27  OA
BRANCH 17 20
ATOM     20  CA  VAL B   8       9.813 -23.692   6.483  1.00 17.28 LIG 0.19  C 
BRANCH 20 21
ATOM     21  C   VAL B   8       9.315 -24.726   7.487  1.00 17.19 LIG 0.20  C 
ATOM     22 O    VAL B   8       8.979 -25.865   7.089  1.00 24.30 LIG-0.65  OA
ATOM     23 OXT  VAL B   8       9.193 -24.447   8.701  1.00 16.53 LIG-0.65  OA
ENDBRANCH 20 21
BRANCH 20 24
ATOM     24  CB  VAL B   8       8.727 -23.385   5.405  1.00 17.38 LIG 0.01  C 
ATOM     25  CG2 VAL B   8       9.189 -22.220   4.537  1.00 18.61 LIG 0.01  C 
ATOM     26  CG1 VAL B   8       7.388 -23.143   6.049  1.00 19.61 LIG 0.01  C 
ENDBRANCH 20 24
ENDBRANCH 17 20
ENDBRANCH 14 16
ENDBRANCH 12 14
ENDBRANCH 9 10
BRANCH 9 27
ATOM     27  CB  SER B   6      14.235 -21.325   2.515  1.00 25.59 LIG 0.20  C 
BRANCH 27 28
ATOM     28 OG   SER B   6      14.371 -19.958   2.834  1.00 27.26 LIG-0.40  OA
ATOM     29 HG   SER B   6      15.081 -19.840   3.267  1.00 27.26 LIG 0.21  HD
ENDBRANCH 27 28
ENDBRANCH 9 27
ENDBRANCH 7 9
ENDBRANCH 1 5
BRANCH 1 30
ATOM     30  N   VAL B   5      18.377 -23.156   3.276  1.00 22.92 LIG-0.35  N 
ATOM     31 H    VAL B   5      18.798 -23.905   3.313  1.00 22.92 LIG 0.16  HD
ATOM     32  C   GLN B   4      18.202 -22.483   2.149  1.00 24.29 LIG 0.24  C 
ATOM     33 O    GLN B   4      17.576 -21.446   2.053  1.00 26.90 LIG-0.27  OA
BRANCH 32 34
ATOM     34  CA  GLN B   4      18.845 -23.114   0.912  1.00 30.52 LIG 0.18  C 
BRANCH 34 35
ATOM     35  CB  GLN B   4      20.260 -23.557   1.282  1.00 36.61 LIG 0.04  C 
BRANCH 35 36
ATOM     36  CG  GLN B   4      21.226 -22.399   1.467  1.00 50.94 LIG 0.10  C 
BRANCH 36 37
ATOM     37  CD  GLN B   4      22.111 -22.613   2.691  1.00 60.90 LIG 0.21  C 
ATOM     38  NE2 GLN B   4      21.860 -23.687   3.439  1.00 82.36 LIG-0.37  N 
ATOM     39 21HE GLN B   4      21.218 -24.218   3.226  1.00 82.36 LIG 0.16  HD
ATOM     40 22HE GLN B   4      22.339 -23.849   4.134  1.00 82.36 LIG 0.16  HD
ATOM     41 OE1  GLN B   4      23.015 -21.822   2.950  1.00 55.22 LIG-0.27  OA
ENDBRANCH 36 37
ENDBRANCH 35 36
ENDBRANCH 34 35
BRANCH 34 42
ATOM     42  N   GLN B   4      18.879 -22.167  -0.184  1.00 37.98 LIG-0.35  N 
ATOM     43  C   GLU B   3      19.186 -22.530  -1.425  1.00 56.89 LIG 0.26  C 
ATOM     44 O    GLU B   3      19.526 -23.669  -1.716  1.00 56.58 LIG-0.27  OA
ATOM     45 H    GLN B   4      18.685 -21.360   0.043  1.00 37.98 LIG 0.16  HD
BRANCH 43 46
ATOM     46  CA  GLU B   3      19.105 -21.440  -2.491  1.00 80.09 LIG 0.40  C 
ATOM     47  N   GLU B   3      17.973 -20.559  -2.241  1.00 75.44 LIG 0.61  N 
BRANCH 46 48
ATOM     48  CB  GLU B   3      20.398 -20.631  -2.513  1.00107.85 LIG 0.06  C 
BRANCH 48 49
ATOM     49  CG  GLU B   3      20.965 -20.355  -1.141  1.00114.95 LIG 0.12  C 
BRANCH 49 50
ATOM     50  CD  GLU B   3      20.046 -19.486  -0.303  1.00 96.82 LIG 0.17  C 
ATOM     51 OE1  GLU B   3      20.091 -19.592   0.945  1.00 91.15 LIG-0.65  OA
ATOM     52 OE2  GLU B   3      19.286 -18.684  -0.894  1.00 91.13 LIG-0.65  OA
ENDBRANCH 49 50
ENDBRANCH 48 49
ENDBRANCH 46 48
ENDBRANCH 43 46
ENDBRANCH 34 42
ENDBRANCH 32 34
ENDBRANCH 1 30
TORSDOF 21
ENDMDL
MODEL 54
USER: ADFR SOLUTION from run 94
USER: SCORE 16.398230 LL:  -4.850 LR: -13.085 RR:   0.000 FEB:  -6.820
USER: RMSD 12.174382
USER: SEED 93
USER: STATUS searching
USER: GENES 23
USER: genes 0 Translation |==|  0.58604 0.56319 0.49382
USER: genes 1 Rotation |==|  0.59583 0.59206 0.98201 0.50249
USER: genes 2 Torsion [C]-CA--CB-[CG2] |==|  0.21694
USER: genes 3 Torsion [N]-CA--C-[N] |==|  0.47285
USER: genes 4 Torsion [C]-N--CA-[CB] |==|  0.18551
USER: genes 5 Torsion [N]-CA--C-[N] |==|  0.02697
USER: genes 6 Torsion [C]-N--CA-[CB] |==|  0.86958
USER: genes 7 Torsion [N]-CA--C-[N] |==|  0.91189
USER: genes 8 Torsion [C]-N--CA-[CB] |==|  0.24801
USER: genes 9 Torsion [N]-CA--C-[O] |==|  0.04992
USER: genes 10 Torsion [N]-CA--CB-[CG2] |==|  0.09334
USER: genes 11 Torsion [N]-CA--CB-[OG] |==|  0.81012
USER: genes 12 Torsion [CA]-CB--OG-[HG] |==|  0.21507
USER: genes 13 Torsion [CB]-CA--N-[C] |==|  0.18658
USER: genes 14 Torsion [N]-C--CA-[N] |==|  0.13471
USER: genes 15 Torsion [C]-CA--CB-[CG] |==|  0.43213
USER: genes 16 Torsion [CA]-CB--CG-[CD] |==|  0.28194
USER: genes 17 Torsion [CB]-CG--CD-[OE1] |==|  0.24496
USER: genes 18 Torsion [C]-CA--N-[C] |==|  0.12778
USER: genes 19 Torsion [N]-C--CA-[N] |==|  0.44380
USER: genes 20 Torsion [C]-CA--CB-[CG] |==|  0.90158
USER: genes 21 Torsion [CA]-CB--CG-[CD] |==|  0.85859
USER: genes 22 Torsion [CB]-CG--CD-[OE1] |==|  0.86854
ROOT
ATOM      1  CA  VAL B   5      14.774 -21.857   4.249  1.00 23.44 LIG 0.18  C 
ENDROOT
BRANCH 1 2
ATOM      2  CB  VAL B   5      14.567 -20.708   3.261  1.00 27.20 LIG 0.01  C 
ATOM      3  CG2 VAL B   5      13.392 -19.860   3.647  1.00 32.91 LIG 0.01  C 
ATOM      4  CG1 VAL B   5      14.430 -21.214   1.842  1.00 27.01 LIG 0.01  C 
ENDBRANCH 1 2
BRANCH 1 5
ATOM      5  C   VAL B   5      13.769 -22.968   3.970  1.00 21.98 LIG 0.24  C 
ATOM      6 O    VAL B   5      14.151 -24.019   3.462  1.00 26.26 LIG-0.27  OA
ATOM      7  N   SER B   6      12.484 -22.731   4.240  1.00 19.41 LIG-0.34  N 
ATOM      8 H    SER B   6      12.201 -21.975   4.535  1.00 19.41 LIG 0.16  HD
BRANCH 7 9
ATOM      9  CA  SER B   6      11.435 -23.712   4.067  1.00 20.84 LIG 0.20  C 
BRANCH 9 10
ATOM     10  C   SER B   6      10.054 -23.126   4.267  1.00 18.76 LIG 0.24  C 
ATOM     11 O    SER B   6       9.051 -23.816   4.248  1.00 19.89 LIG-0.27  OA
ATOM     12  N   ALA B   7      10.019 -21.818   4.361  1.00 19.53 LIG-0.35  N 
ATOM     13 H    ALA B   7      10.731 -21.336   4.346  1.00 19.53 LIG 0.16  HD
BRANCH 12 14
ATOM     14  CA  ALA B   7       8.800 -21.031   4.500  1.00 19.70 LIG 0.17  C 
ATOM     15  CB  ALA B   7       7.762 -21.512   3.471  1.00 20.39 LIG 0.04  C 
BRANCH 14 16
ATOM     16  C   ALA B   7       8.180 -21.172   5.878  1.00 16.34 LIG 0.24  C 
ATOM     17  N   VAL B   8       8.328 -22.322   6.508  1.00 16.85 LIG-0.34  N 
ATOM     18 H    VAL B   8       8.684 -23.022   6.159  1.00 16.85 LIG 0.16  HD
ATOM     19 O    ALA B   7       7.623 -20.220   6.387  1.00 20.16 LIG-0.27  OA
BRANCH 17 20
ATOM     20  CA  VAL B   8       7.878 -22.491   7.897  1.00 17.28 LIG 0.19  C 
BRANCH 20 21
ATOM     21  C   VAL B   8       8.814 -23.468   8.598  1.00 17.19 LIG 0.20  C 
ATOM     22 O    VAL B   8       9.941 -23.709   8.107  1.00 24.30 LIG-0.65  OA
ATOM     23 OXT  VAL B   8       8.464 -24.071   9.638  1.00 16.53 LIG-0.65  OA
ENDBRANCH 20 21
BRANCH 20 24
ATOM     24  CB  VAL B   8       6.394 -22.967   7.991  1.00 17.38 LIG 0.01  C 
ATOM     25  CG2 VAL B   8       6.079 -23.881   6.812  1.00 18.61 LIG 0.01  C 
ATOM     26  CG1 VAL B   8       5.461 -21.789   8.087  1.00 19.61 LIG 0.01  C 
ENDBRANCH 20 24
ENDBRANCH 17 20
ENDBRANCH 14 16
ENDBRANCH 12 14
ENDBRANCH 9 10
BRANCH 9 27
ATOM     27  CB  SER B   6      11.608 -24.862   5.050  1.00 25.59 LIG 0.20  C 
BRANCH 27 28
ATOM     28 OG   SER B   6      12.756 -25.616   4.731  1.00 27.26 LIG-0.40  OA
ATOM     29 HG   SER B   6      13.442 -25.207   4.991  1.00 27.26 LIG 0.21  HD
ENDBRANCH 27 28
ENDBRANCH 9 27
ENDBRANCH 7 9
ENDBRANCH 1 5
BRANCH 1 30
ATOM     30  N   VAL B   5      16.092 -22.428   4.101  1.00 22.92 LIG-0.35  N 
ATOM     31 H    VAL B   5      16.084 -23.233   3.797  1.00 22.92 LIG 0.16  HD
ATOM     32  C   GLN B   4      17.209 -21.783   4.399  1.00 24.29 LIG 0.24  C 
ATOM     33 O    GLN B   4      17.261 -20.633   4.788  1.00 26.90 LIG-0.27  OA
BRANCH 32 34
ATOM     34  CA  GLN B   4      18.495 -22.591   4.207  1.00 30.52 LIG 0.18  C 
BRANCH 34 35
ATOM     35  CB  GLN B   4      19.683 -21.641   4.342  1.00 36.61 LIG 0.04  C 
BRANCH 35 36
ATOM     36  CG  GLN B   4      20.968 -22.336   4.757  1.00 50.94 LIG 0.10  C 
BRANCH 36 37
ATOM     37  CD  GLN B   4      21.889 -22.549   3.559  1.00 60.90 LIG 0.21  C 
ATOM     38  NE2 GLN B   4      21.767 -23.699   2.899  1.00 82.36 LIG-0.37  N 
ATOM     39 21HE GLN B   4      21.193 -24.284   3.159  1.00 82.36 LIG 0.16  HD
ATOM     40 22HE GLN B   4      22.262 -23.856   2.213  1.00 82.36 LIG 0.16  HD
ATOM     41 OE1  GLN B   4      22.692 -21.678   3.231  1.00 55.22 LIG-0.27  OA
ENDBRANCH 36 37
ENDBRANCH 35 36
ENDBRANCH 34 35
BRANCH 34 42
ATOM     42  N   GLN B   4      18.503 -23.235   2.909  1.00 37.98 LIG-0.35  N 
ATOM     43  C   GLU B   3      18.169 -22.588   1.796  1.00 56.89 LIG 0.26  C 
ATOM     44 O    GLU B   3      17.767 -21.433   1.797  1.00 56.58 LIG-0.27  OA
ATOM     45 H    GLN B   4      18.741 -24.061   2.927  1.00 37.98 LIG 0.16  HD
BRANCH 43 46
ATOM     46  CA  GLU B   3      18.300 -23.372   0.491  1.00 80.09 LIG 0.40  C 
ATOM     47  N   GLU B   3      17.487 -22.768  -0.555  1.00 75.44 LIG 0.61  N 
BRANCH 46 48
ATOM     48  CB  GLU B   3      19.760 -23.419   0.053  1.00107.85 LIG 0.06  C 
BRANCH 48 49
ATOM     49  CG  GLU B   3      20.530 -22.158   0.367  1.00114.95 LIG 0.12  C 
BRANCH 49 50
ATOM     50  CD  GLU B   3      19.817 -20.913  -0.123  1.00 96.82 LIG 0.17  C 
ATOM     51 OE1  GLU B   3      19.366 -20.899  -1.293  1.00 91.15 LIG-0.65  OA
ATOM     52 OE2  GLU B   3      19.695 -19.948   0.667  1.00 91.13 LIG-0.65  OA
ENDBRANCH 49 50
ENDBRANCH 48 49
ENDBRANCH 46 48
ENDBRANCH 43 46
ENDBRANCH 34 42
ENDBRANCH 32 34
ENDBRANCH 1 30
TORSDOF 21
ENDMDL
MODEL 55
USER: ADFR SOLUTION from run 139
USER: SCORE 15.095444 LL:  -4.210 LR: -13.049 RR:   0.000 FEB:  -6.785
USER: RMSD 12.237407
USER: SEED 138
USER: STATUS no improvement in best in 3 clusters for 5 generations
USER: GENES 23
USER: genes 0 Translation |==|  0.62507 0.50073 0.49088
USER: genes 1 Rotation |==|  0.36504 0.63619 0.03844 0.51411
USER: genes 2 Torsion [C]-CA--CB-[CG2] |==|  0.93746
USER: genes 3 Torsion [N]-CA--C-[N] |==|  0.44961
USER: genes 4 Torsion [C]-N--CA-[CB] |==|  0.44818
USER: genes 5 Torsion [N]-CA--C-[N] |==|  0.90519
USER: genes 6 Torsion [C]-N--CA-[CB] |==|  0.49491
USER: genes 7 Torsion [N]-CA--C-[N] |==|  0.47043
USER: genes 8 Torsion [C]-N--CA-[CB] |==|  0.47329
USER: genes 9 Torsion [N]-CA--C-[O] |==|  0.34840
USER: genes 10 Torsion [N]-CA--CB-[CG2] |==|  0.16098
USER: genes 11 Torsion [N]-CA--CB-[OG] |==|  0.10654
USER: genes 12 Torsion [CA]-CB--OG-[HG] |==|  0.73582
USER: genes 13 Torsion [CB]-CA--N-[C] |==|  0.83325
USER: genes 14 Torsion [N]-C--CA-[N] |==|  0.85000
USER: genes 15 Torsion [C]-CA--CB-[CG] |==|  0.41689
USER: genes 16 Torsion [CA]-CB--CG-[CD] |==|  0.23217
USER: genes 17 Torsion [CB]-CG--CD-[OE1] |==|  0.96174
USER: genes 18 Torsion [C]-CA--N-[C] |==|  0.82467
USER: genes 19 Torsion [N]-C--CA-[N] |==|  0.13267
USER: genes 20 Torsion [C]-CA--CB-[CG] |==|  0.60793
USER: genes 21 Torsion [CA]-CB--CG-[CD] |==|  0.24448
USER: genes 22 Torsion [CB]-CG--CD-[OE1] |==|  0.81737
ROOT
ATOM      1  CA  VAL B   5      15.945 -22.934   4.199  1.00 23.44 LIG 0.18  C 
ENDROOT
BRANCH 1 2
ATOM      2  CB  VAL B   5      15.882 -21.444   4.537  1.00 27.20 LIG 0.01  C 
ATOM      3  CG2 VAL B   5      14.993 -20.703   3.584  1.00 32.91 LIG 0.01  C 
ATOM      4  CG1 VAL B   5      17.262 -20.826   4.588  1.00 27.01 LIG 0.01  C 
ENDBRANCH 1 2
BRANCH 1 5
ATOM      5  C   VAL B   5      14.715 -23.335   3.392  1.00 21.98 LIG 0.24  C 
ATOM      6 O    VAL B   5      14.795 -23.434   2.171  1.00 26.26 LIG-0.27  OA
ATOM      7  N   SER B   6      13.567 -23.510   4.050  1.00 19.41 LIG-0.34  N 
ATOM      8 H    SER B   6      13.489 -23.379   4.896  1.00 19.41 LIG 0.16  HD
BRANCH 7 9
ATOM      9  CA  SER B   6      12.339 -23.934   3.416  1.00 20.84 LIG 0.20  C 
BRANCH 9 10
ATOM     10  C   SER B   6      11.654 -22.811   2.667  1.00 18.76 LIG 0.24  C 
ATOM     11 O    SER B   6      11.106 -22.990   1.595  1.00 19.89 LIG-0.27  OA
ATOM     12  N   ALA B   7      11.786 -21.625   3.212  1.00 19.53 LIG-0.35  N 
ATOM     13 H    ALA B   7      12.200 -21.503   3.956  1.00 19.53 LIG 0.16  HD
BRANCH 12 14
ATOM     14  CA  ALA B   7      11.264 -20.390   2.641  1.00 19.70 LIG 0.17  C 
ATOM     15  CB  ALA B   7      11.577 -19.218   3.588  1.00 20.39 LIG 0.04  C 
BRANCH 14 16
ATOM     16  C   ALA B   7      11.888 -20.072   1.294  1.00 16.34 LIG 0.24  C 
ATOM     17  N   VAL B   8      11.350 -19.102   0.577  1.00 16.85 LIG-0.34  N 
ATOM     18 H    VAL B   8      10.624 -18.692   0.787  1.00 16.85 LIG 0.16  HD
ATOM     19 O    ALA B   7      12.885 -20.665   0.938  1.00 20.16 LIG-0.27  OA
BRANCH 17 20
ATOM     20  CA  VAL B   8      11.976 -18.643  -0.670  1.00 17.28 LIG 0.19  C 
BRANCH 20 21
ATOM     21  C   VAL B   8      13.314 -17.993  -0.334  1.00 17.19 LIG 0.20  C 
ATOM     22 O    VAL B   8      14.357 -18.396  -0.897  1.00 24.30 LIG-0.65  OA
ATOM     23 OXT  VAL B   8      13.398 -17.088   0.527  1.00 16.53 LIG-0.65  OA
ENDBRANCH 20 21
BRANCH 20 24
ATOM     24  CB  VAL B   8      11.061 -17.667  -1.474  1.00 17.38 LIG 0.01  C 
ATOM     25  CG2 VAL B   8      10.714 -16.464  -0.604  1.00 18.61 LIG 0.01  C 
ATOM     26  CG1 VAL B   8       9.845 -18.384  -1.998  1.00 19.61 LIG 0.01  C 
ENDBRANCH 20 24
ENDBRANCH 17 20
ENDBRANCH 14 16
ENDBRANCH 12 14
ENDBRANCH 9 10
BRANCH 9 27
ATOM     27  CB  SER B   6      11.360 -24.477   4.449  1.00 25.59 LIG 0.20  C 
BRANCH 27 28
ATOM     28 OG   SER B   6      11.422 -23.715   5.635  1.00 27.26 LIG-0.40  OA
ATOM     29 HG   SER B   6      11.945 -24.084   6.178  1.00 27.26 LIG 0.21  HD
ENDBRANCH 27 28
ENDBRANCH 9 27
ENDBRANCH 7 9
ENDBRANCH 1 5
BRANCH 1 30
ATOM     30  N   VAL B   5      17.101 -23.225   3.383  1.00 22.92 LIG-0.35  N 
ATOM     31 H    VAL B   5      17.643 -23.787   3.745  1.00 22.92 LIG 0.16  HD
ATOM     32  C   GLN B   4      17.314 -22.684   2.194  1.00 24.29 LIG 0.24  C 
ATOM     33 O    GLN B   4      16.552 -21.921   1.634  1.00 26.90 LIG-0.27  OA
BRANCH 32 34
ATOM     34  CA  GLN B   4      18.625 -23.097   1.520  1.00 30.52 LIG 0.18  C 
BRANCH 34 35
ATOM     35  CB  GLN B   4      18.536 -24.582   1.169  1.00 36.61 LIG 0.04  C 
BRANCH 35 36
ATOM     36  CG  GLN B   4      19.345 -24.962  -0.059  1.00 50.94 LIG 0.10  C 
BRANCH 36 37
ATOM     37  CD  GLN B   4      20.807 -25.209   0.304  1.00 60.90 LIG 0.21  C 
ATOM     38  NE2 GLN B   4      21.565 -25.807  -0.614  1.00 82.36 LIG-0.37  N 
ATOM     39 21HE GLN B   4      21.223 -26.042  -1.367  1.00 82.36 LIG 0.16  HD
ATOM     40 22HE GLN B   4      22.396 -25.960  -0.453  1.00 82.36 LIG 0.16  HD
ATOM     41 OE1  GLN B   4      21.245 -24.854   1.395  1.00 55.22 LIG-0.27  OA
ENDBRANCH 36 37
ENDBRANCH 35 36
ENDBRANCH 34 35
BRANCH 34 42
ATOM     42  N   GLN B   4      19.750 -22.850   2.399  1.00 37.98 LIG-0.35  N 
ATOM     43  C   GLU B   3      20.079 -21.626   2.802  1.00 56.89 LIG 0.26  C 
ATOM     44 O    GLU B   3      19.501 -20.623   2.408  1.00 56.58 LIG-0.27  OA
ATOM     45 H    GLN B   4      20.178 -23.559   2.631  1.00 37.98 LIG 0.16  HD
BRANCH 43 46
ATOM     46  CA  GLU B   3      21.239 -21.526   3.790  1.00 80.09 LIG 0.40  C 
ATOM     47  N   GLU B   3      22.370 -22.323   3.337  1.00 75.44 LIG 0.61  N 
BRANCH 46 48
ATOM     48  CB  GLU B   3      21.663 -20.070   3.954  1.00107.85 LIG 0.06  C 
BRANCH 48 49
ATOM     49  CG  GLU B   3      23.157 -19.881   4.066  1.00114.95 LIG 0.12  C 
BRANCH 49 50
ATOM     50  CD  GLU B   3      23.818 -19.725   2.710  1.00 96.82 LIG 0.17  C 
ATOM     51 OE1  GLU B   3      23.808 -20.698   1.920  1.00 91.15 LIG-0.65  OA
ATOM     52 OE2  GLU B   3      24.339 -18.620   2.427  1.00 91.13 LIG-0.65  OA
ENDBRANCH 49 50
ENDBRANCH 48 49
ENDBRANCH 46 48
ENDBRANCH 43 46
ENDBRANCH 34 42
ENDBRANCH 32 34
ENDBRANCH 1 30
TORSDOF 21
ENDMDL
MODEL 56
USER: ADFR SOLUTION from run 110
USER: SCORE 13.768126 LL:  -4.534 LR: -13.022 RR:   0.000 FEB:  -6.758
USER: RMSD 8.428215
USER: SEED 109
USER: STATUS no improvement in best in 11 clusters for 5 generations
USER: GENES 23
USER: genes 0 Translation |==|  0.67817 0.48455 0.32860
USER: genes 1 Rotation |==|  0.86513 0.47173 0.53061 0.83903
USER: genes 2 Torsion [C]-CA--CB-[CG2] |==|  0.72491
USER: genes 3 Torsion [N]-CA--C-[N] |==|  0.31654
USER: genes 4 Torsion [C]-N--CA-[CB] |==|  0.51667
USER: genes 5 Torsion [N]-CA--C-[N] |==|  0.73537
USER: genes 6 Torsion [C]-N--CA-[CB] |==|  0.41775
USER: genes 7 Torsion [N]-CA--C-[N] |==|  0.12266
USER: genes 8 Torsion [C]-N--CA-[CB] |==|  0.26071
USER: genes 9 Torsion [N]-CA--C-[O] |==|  0.83045
USER: genes 10 Torsion [N]-CA--CB-[CG2] |==|  0.03784
USER: genes 11 Torsion [N]-CA--CB-[OG] |==|  0.11558
USER: genes 12 Torsion [CA]-CB--OG-[HG] |==|  0.82496
USER: genes 13 Torsion [CB]-CA--N-[C] |==|  0.54903
USER: genes 14 Torsion [N]-C--CA-[N] |==|  0.84515
USER: genes 15 Torsion [C]-CA--CB-[CG] |==|  0.41185
USER: genes 16 Torsion [CA]-CB--CG-[CD] |==|  0.89538
USER: genes 17 Torsion [CB]-CG--CD-[OE1] |==|  0.77444
USER: genes 18 Torsion [C]-CA--N-[C] |==|  0.82726
USER: genes 19 Torsion [N]-C--CA-[N] |==|  0.14486
USER: genes 20 Torsion [C]-CA--CB-[CG] |==|  0.48146
USER: genes 21 Torsion [CA]-CB--CG-[CD] |==|  0.82939
USER: genes 22 Torsion [CB]-CG--CD-[OE1] |==|  0.61817
ROOT
ATOM      1  CA  VAL B   5      17.538 -23.213   1.399  1.00 23.44 LIG 0.18  C 
ENDROOT
BRANCH 1 2
ATOM      2  CB  VAL B   5      17.691 -22.589   0.012  1.00 27.20 LIG 0.01  C 
ATOM      3  CG2 VAL B   5      16.417 -21.941  -0.441  1.00 32.91 LIG 0.01  C 
ATOM      4  CG1 VAL B   5      18.178 -23.600  -1.003  1.00 27.01 LIG 0.01  C 
ENDBRANCH 1 2
BRANCH 1 5
ATOM      5  C   VAL B   5      18.109 -22.275   2.456  1.00 21.98 LIG 0.24  C 
ATOM      6 O    VAL B   5      17.750 -21.101   2.484  1.00 26.26 LIG-0.27  OA
ATOM      7  N   SER B   6      19.034 -22.759   3.287  1.00 19.41 LIG-0.34  N 
ATOM      8 H    SER B   6      19.337 -23.562   3.232  1.00 19.41 LIG 0.16  HD
BRANCH 7 9
ATOM      9  CA  SER B   6      19.623 -21.993   4.363  1.00 20.84 LIG 0.20  C 
BRANCH 9 10
ATOM     10  C   SER B   6      20.192 -20.672   3.890  1.00 18.76 LIG 0.24  C 
ATOM     11 O    SER B   6      19.487 -19.700   3.691  1.00 19.89 LIG-0.27  OA
ATOM     12  N   ALA B   7      21.475 -20.690   3.619  1.00 19.53 LIG-0.35  N 
ATOM     13 H    ALA B   7      21.961 -21.390   3.736  1.00 19.53 LIG 0.16  HD
BRANCH 12 14
ATOM     14  CA  ALA B   7      22.227 -19.556   3.096  1.00 19.70 LIG 0.17  C 
ATOM     15  CB  ALA B   7      23.686 -19.644   3.578  1.00 20.39 LIG 0.04  C 
BRANCH 14 16
ATOM     16  C   ALA B   7      22.245 -19.531   1.579  1.00 16.34 LIG 0.24  C 
ATOM     17  N   VAL B   8      21.114 -19.769   0.942  1.00 16.85 LIG-0.34  N 
ATOM     18 H    VAL B   8      20.385 -20.015   1.327  1.00 16.85 LIG 0.16  HD
ATOM     19 O    ALA B   7      23.269 -19.238   0.995  1.00 20.16 LIG-0.27  OA
BRANCH 17 20
ATOM     20  CA  VAL B   8      21.019 -19.628  -0.517  1.00 17.28 LIG 0.19  C 
BRANCH 20 21
ATOM     21  C   VAL B   8      19.651 -19.049  -0.864  1.00 17.19 LIG 0.20  C 
ATOM     22 O    VAL B   8      18.615 -19.680  -0.555  1.00 24.30 LIG-0.65  OA
ATOM     23 OXT  VAL B   8      19.542 -17.972  -1.492  1.00 16.53 LIG-0.65  OA
ENDBRANCH 20 21
BRANCH 20 24
ATOM     24  CB  VAL B   8      21.266 -20.975  -1.266  1.00 17.38 LIG 0.01  C 
ATOM     25  CG2 VAL B   8      21.206 -22.128  -0.270  1.00 18.61 LIG 0.01  C 
ATOM     26  CG1 VAL B   8      22.561 -20.929  -2.034  1.00 19.61 LIG 0.01  C 
ENDBRANCH 20 24
ENDBRANCH 17 20
ENDBRANCH 14 16
ENDBRANCH 12 14
ENDBRANCH 9 10
BRANCH 9 27
ATOM     27  CB  SER B   6      20.745 -22.777   5.030  1.00 25.59 LIG 0.20  C 
BRANCH 27 28
ATOM     28 OG   SER B   6      21.530 -23.437   4.061  1.00 27.26 LIG-0.40  OA
ATOM     29 HG   SER B   6      21.057 -23.998   3.651  1.00 27.26 LIG 0.21  HD
ENDBRANCH 27 28
ENDBRANCH 9 27
ENDBRANCH 7 9
ENDBRANCH 1 5
BRANCH 1 30
ATOM     30  N   VAL B   5      16.144 -23.415   1.719  1.00 22.92 LIG-0.35  N 
ATOM     31 H    VAL B   5      15.628 -23.392   1.030  1.00 22.92 LIG 0.16  HD
ATOM     32  C   GLN B   4      15.695 -23.616   2.948  1.00 24.29 LIG 0.24  C 
ATOM     33 O    GLN B   4      16.397 -23.696   3.936  1.00 26.90 LIG-0.27  OA
BRANCH 32 34
ATOM     34  CA  GLN B   4      14.176 -23.762   3.067  1.00 30.52 LIG 0.18  C 
BRANCH 34 35
ATOM     35  CB  GLN B   4      13.759 -25.038   2.337  1.00 36.61 LIG 0.04  C 
BRANCH 35 36
ATOM     36  CG  GLN B   4      12.548 -25.717   2.952  1.00 50.94 LIG 0.10  C 
BRANCH 36 37
ATOM     37  CD  GLN B   4      12.579 -25.621   4.474  1.00 60.90 LIG 0.21  C 
ATOM     38  NE2 GLN B   4      11.834 -24.670   5.036  1.00 82.36 LIG-0.37  N 
ATOM     39 21HE GLN B   4      11.369 -24.141   4.542  1.00 82.36 LIG 0.16  HD
ATOM     40 22HE GLN B   4      11.817 -24.586   5.892  1.00 82.36 LIG 0.16  HD
ATOM     41 OE1  GLN B   4      13.261 -26.403   5.132  1.00 55.22 LIG-0.27  OA
ENDBRANCH 36 37
ENDBRANCH 35 36
ENDBRANCH 34 35
BRANCH 34 42
ATOM     42  N   GLN B   4      13.507 -22.610   2.497  1.00 37.98 LIG-0.35  N 
ATOM     43  C   GLU B   3      13.671 -21.384   2.983  1.00 56.89 LIG 0.26  C 
ATOM     44 O    GLU B   3      14.338 -21.151   3.982  1.00 56.58 LIG-0.27  OA
ATOM     45 H    GLN B   4      13.002 -22.793   1.825  1.00 37.98 LIG 0.16  HD
BRANCH 43 46
ATOM     46  CA  GLU B   3      12.965 -20.256   2.233  1.00 80.09 LIG 0.40  C 
ATOM     47  N   GLU B   3      11.552 -20.561   2.056  1.00 75.44 LIG 0.61  N 
BRANCH 46 48
ATOM     48  CB  GLU B   3      13.121 -18.943   2.993  1.00107.85 LIG 0.06  C 
BRANCH 48 49
ATOM     49  CG  GLU B   3      12.592 -17.742   2.246  1.00114.95 LIG 0.12  C 
BRANCH 49 50
ATOM     50  CD  GLU B   3      13.318 -17.515   0.934  1.00 96.82 LIG 0.17  C 
ATOM     51 OE1  GLU B   3      13.633 -16.345   0.615  1.00 91.15 LIG-0.65  OA
ATOM     52 OE2  GLU B   3      13.587 -18.512   0.224  1.00 91.13 LIG-0.65  OA
ENDBRANCH 49 50
ENDBRANCH 48 49
ENDBRANCH 46 48
ENDBRANCH 43 46
ENDBRANCH 34 42
ENDBRANCH 32 34
ENDBRANCH 1 30
TORSDOF 21
ENDMDL
MODEL 57
USER: ADFR SOLUTION from run 184
USER: SCORE 16.283444 LL:  -4.684 LR: -13.020 RR:   0.000 FEB:  -6.756
USER: RMSD 12.323393
USER: SEED 183
USER: STATUS no improvement in best in 7 clusters for 5 generations
USER: GENES 23
USER: genes 0 Translation |==|  0.73195 0.51009 0.51450
USER: genes 1 Rotation |==|  0.33564 0.77913 0.12598 0.57201
USER: genes 2 Torsion [C]-CA--CB-[CG2] |==|  0.79213
USER: genes 3 Torsion [N]-CA--C-[N] |==|  0.19215
USER: genes 4 Torsion [C]-N--CA-[CB] |==|  0.54532
USER: genes 5 Torsion [N]-CA--C-[N] |==|  0.46232
USER: genes 6 Torsion [C]-N--CA-[CB] |==|  0.88782
USER: genes 7 Torsion [N]-CA--C-[N] |==|  0.33590
USER: genes 8 Torsion [C]-N--CA-[CB] |==|  0.25374
USER: genes 9 Torsion [N]-CA--C-[O] |==|  0.32915
USER: genes 10 Torsion [N]-CA--CB-[CG2] |==|  0.96426
USER: genes 11 Torsion [N]-CA--CB-[OG] |==|  0.93683
USER: genes 12 Torsion [CA]-CB--OG-[HG] |==|  0.42549
USER: genes 13 Torsion [CB]-CA--N-[C] |==|  0.21006
USER: genes 14 Torsion [N]-C--CA-[N] |==|  0.90638
USER: genes 15 Torsion [C]-CA--CB-[CG] |==|  0.52739
USER: genes 16 Torsion [CA]-CB--CG-[CD] |==|  0.56441
USER: genes 17 Torsion [CB]-CG--CD-[OE1] |==|  0.51852
USER: genes 18 Torsion [C]-CA--N-[C] |==|  0.85190
USER: genes 19 Torsion [N]-C--CA-[N] |==|  0.68027
USER: genes 20 Torsion [C]-CA--CB-[CG] |==|  0.71421
USER: genes 21 Torsion [CA]-CB--CG-[CD] |==|  0.16291
USER: genes 22 Torsion [CB]-CG--CD-[OE1] |==|  0.17887
ROOT
ATOM      1  CA  VAL B   5      19.151 -22.773   4.606  1.00 23.44 LIG 0.18  C 
ENDROOT
BRANCH 1 2
ATOM      2  CB  VAL B   5      19.088 -21.860   5.832  1.00 27.20 LIG 0.01  C 
ATOM      3  CG2 VAL B   5      19.145 -20.414   5.441  1.00 32.91 LIG 0.01  C 
ATOM      4  CG1 VAL B   5      20.173 -22.197   6.832  1.00 27.01 LIG 0.01  C 
ENDBRANCH 1 2
BRANCH 1 5
ATOM      5  C   VAL B   5      17.814 -22.752   3.876  1.00 21.98 LIG 0.24  C 
ATOM      6 O    VAL B   5      16.938 -21.970   4.234  1.00 26.26 LIG-0.27  OA
ATOM      7  N   SER B   6      17.624 -23.637   2.895  1.00 19.41 LIG-0.34  N 
ATOM      8 H    SER B   6      18.208 -24.230   2.681  1.00 19.41 LIG 0.16  HD
BRANCH 7 9
ATOM      9  CA  SER B   6      16.423 -23.696   2.092  1.00 20.84 LIG 0.20  C 
BRANCH 9 10
ATOM     10  C   SER B   6      15.165 -23.533   2.917  1.00 18.76 LIG 0.24  C 
ATOM     11 O    SER B   6      15.157 -23.699   4.123  1.00 19.89 LIG-0.27  OA
ATOM     12  N   ALA B   7      14.076 -23.299   2.222  1.00 19.53 LIG-0.35  N 
ATOM     13 H    ALA B   7      14.086 -23.210   1.367  1.00 19.53 LIG 0.16  HD
BRANCH 12 14
ATOM     14  CA  ALA B   7      12.743 -23.164   2.794  1.00 19.70 LIG 0.17  C 
ATOM     15  CB  ALA B   7      12.555 -24.211   3.906  1.00 20.39 LIG 0.04  C 
BRANCH 14 16
ATOM     16  C   ALA B   7      12.519 -21.794   3.409  1.00 16.34 LIG 0.24  C 
ATOM     17  N   VAL B   8      11.530 -21.059   2.938  1.00 16.85 LIG-0.34  N 
ATOM     18 H    VAL B   8      11.053 -21.270   2.254  1.00 16.85 LIG 0.16  HD
ATOM     19 O    ALA B   7      13.205 -21.436   4.345  1.00 20.16 LIG-0.27  OA
BRANCH 17 20
ATOM     20  CA  VAL B   8      11.162 -19.784   3.570  1.00 17.28 LIG 0.19  C 
BRANCH 20 21
ATOM     21  C   VAL B   8       9.651 -19.608   3.471  1.00 17.19 LIG 0.20  C 
ATOM     22 O    VAL B   8       8.967 -19.528   4.516  1.00 24.30 LIG-0.65  OA
ATOM     23 OXT  VAL B   8       9.071 -19.583   2.362  1.00 16.53 LIG-0.65  OA
ENDBRANCH 20 21
BRANCH 20 24
ATOM     24  CB  VAL B   8      11.914 -18.568   2.944  1.00 17.38 LIG 0.01  C 
ATOM     25  CG2 VAL B   8      13.055 -19.073   2.067  1.00 18.61 LIG 0.01  C 
ATOM     26  CG1 VAL B   8      12.374 -17.615   4.015  1.00 19.61 LIG 0.01  C 
ENDBRANCH 20 24
ENDBRANCH 17 20
ENDBRANCH 14 16
ENDBRANCH 12 14
ENDBRANCH 9 10
BRANCH 9 27
ATOM     27  CB  SER B   6      16.334 -25.025   1.353  1.00 25.59 LIG 0.20  C 
BRANCH 27 28
ATOM     28 OG   SER B   6      17.615 -25.602   1.221  1.00 27.26 LIG-0.40  OA
ATOM     29 HG   SER B   6      17.541 -26.437   1.165  1.00 27.26 LIG 0.21  HD
ENDBRANCH 27 28
ENDBRANCH 9 27
ENDBRANCH 7 9
ENDBRANCH 1 5
BRANCH 1 30
ATOM     30  N   VAL B   5      20.152 -22.309   3.674  1.00 22.92 LIG-0.35  N 
ATOM     31 H    VAL B   5      19.821 -21.916   2.984  1.00 22.92 LIG 0.16  HD
ATOM     32  C   GLN B   4      21.454 -22.470   3.855  1.00 24.29 LIG 0.24  C 
ATOM     33 O    GLN B   4      21.958 -22.981   4.836  1.00 26.90 LIG-0.27  OA
BRANCH 32 34
ATOM     34  CA  GLN B   4      22.336 -21.941   2.721  1.00 30.52 LIG 0.18  C 
BRANCH 34 35
ATOM     35  CB  GLN B   4      22.628 -20.466   2.990  1.00 36.61 LIG 0.04  C 
BRANCH 35 36
ATOM     36  CG  GLN B   4      23.295 -19.760   1.821  1.00 50.94 LIG 0.10  C 
BRANCH 36 37
ATOM     37  CD  GLN B   4      24.064 -18.528   2.291  1.00 60.90 LIG 0.21  C 
ATOM     38  NE2 GLN B   4      24.164 -18.343   3.606  1.00 82.36 LIG-0.37  N 
ATOM     39 21HE GLN B   4      23.799 -18.901   4.148  1.00 82.36 LIG 0.16  HD
ATOM     40 22HE GLN B   4      24.595 -17.665   3.913  1.00 82.36 LIG 0.16  HD
ATOM     41 OE1  GLN B   4      24.567 -17.761   1.473  1.00 55.22 LIG-0.27  OA
ENDBRANCH 36 37
ENDBRANCH 35 36
ENDBRANCH 34 35
BRANCH 34 42
ATOM     42  N   GLN B   4      21.672 -22.103   1.443  1.00 37.98 LIG-0.35  N 
ATOM     43  C   GLU B   3      21.193 -23.274   1.037  1.00 56.89 LIG 0.26  C 
ATOM     44 O    GLU B   3      21.337 -24.306   1.678  1.00 56.58 LIG-0.27  OA
ATOM     45 H    GLN B   4      21.620 -21.380   0.980  1.00 37.98 LIG 0.16  HD
BRANCH 43 46
ATOM     46  CA  GLU B   3      20.450 -23.278  -0.298  1.00 80.09 LIG 0.40  C 
ATOM     47  N   GLU B   3      19.047 -23.617  -0.105  1.00 75.44 LIG 0.61  N 
BRANCH 46 48
ATOM     48  CB  GLU B   3      20.567 -21.912  -0.966  1.00107.85 LIG 0.06  C 
BRANCH 48 49
ATOM     49  CG  GLU B   3      19.321 -21.067  -0.845  1.00114.95 LIG 0.12  C 
BRANCH 49 50
ATOM     50  CD  GLU B   3      18.936 -20.816   0.601  1.00 96.82 LIG 0.17  C 
ATOM     51 OE1  GLU B   3      19.714 -20.151   1.324  1.00 91.15 LIG-0.65  OA
ATOM     52 OE2  GLU B   3      17.844 -21.274   1.013  1.00 91.13 LIG-0.65  OA
ENDBRANCH 49 50
ENDBRANCH 48 49
ENDBRANCH 46 48
ENDBRANCH 43 46
ENDBRANCH 34 42
ENDBRANCH 32 34
ENDBRANCH 1 30
TORSDOF 21
ENDMDL
MODEL 58
USER: ADFR SOLUTION from run 75
USER: SCORE 15.251217 LL:  -4.158 LR: -12.990 RR:   0.000 FEB:  -6.726
USER: RMSD 12.707297
USER: SEED 74
USER: STATUS searching
USER: GENES 23
USER: genes 0 Translation |==|  0.72040 0.55816 0.48580
USER: genes 1 Rotation |==|  0.70196 0.32981 0.92455 0.50190
USER: genes 2 Torsion [C]-CA--CB-[CG2] |==|  0.54979
USER: genes 3 Torsion [N]-CA--C-[N] |==|  0.13615
USER: genes 4 Torsion [C]-N--CA-[CB] |==|  0.80462
USER: genes 5 Torsion [N]-CA--C-[N] |==|  0.42378
USER: genes 6 Torsion [C]-N--CA-[CB] |==|  0.52778
USER: genes 7 Torsion [N]-CA--C-[N] |==|  0.28318
USER: genes 8 Torsion [C]-N--CA-[CB] |==|  0.26824
USER: genes 9 Torsion [N]-CA--C-[O] |==|  0.92117
USER: genes 10 Torsion [N]-CA--CB-[CG2] |==|  0.87884
USER: genes 11 Torsion [N]-CA--CB-[OG] |==|  0.09872
USER: genes 12 Torsion [CA]-CB--OG-[HG] |==|  0.42612
USER: genes 13 Torsion [CB]-CA--N-[C] |==|  0.79960
USER: genes 14 Torsion [N]-C--CA-[N] |==|  0.78950
USER: genes 15 Torsion [C]-CA--CB-[CG] |==|  0.12572
USER: genes 16 Torsion [CA]-CB--CG-[CD] |==|  0.45123
USER: genes 17 Torsion [CB]-CG--CD-[OE1] |==|  0.47783
USER: genes 18 Torsion [C]-CA--N-[C] |==|  0.74498
USER: genes 19 Torsion [N]-C--CA-[N] |==|  0.43326
USER: genes 20 Torsion [C]-CA--CB-[CG] |==|  0.20518
USER: genes 21 Torsion [CA]-CB--CG-[CD] |==|  0.06744
USER: genes 22 Torsion [CB]-CG--CD-[OE1] |==|  0.14855
ROOT
ATOM      1  CA  VAL B   5      18.805 -21.944   4.111  1.00 23.44 LIG 0.18  C 
ENDROOT
BRANCH 1 2
ATOM      2  CB  VAL B   5      18.907 -20.517   4.653  1.00 27.20 LIG 0.01  C 
ATOM      3  CG2 VAL B   5      20.330 -20.045   4.689  1.00 32.91 LIG 0.01  C 
ATOM      4  CG1 VAL B   5      18.257 -20.391   6.013  1.00 27.01 LIG 0.01  C 
ENDBRANCH 1 2
BRANCH 1 5
ATOM      5  C   VAL B   5      17.374 -22.230   3.672  1.00 21.98 LIG 0.24  C 
ATOM      6 O    VAL B   5      16.471 -21.468   4.007  1.00 26.26 LIG-0.27  OA
ATOM      7  N   SER B   6      17.145 -23.346   2.977  1.00 19.41 LIG-0.34  N 
ATOM      8 H    SER B   6      17.761 -23.917   2.794  1.00 19.41 LIG 0.16  HD
BRANCH 7 9
ATOM      9  CA  SER B   6      15.846 -23.714   2.460  1.00 20.84 LIG 0.20  C 
BRANCH 9 10
ATOM     10  C   SER B   6      15.194 -22.594   1.678  1.00 18.76 LIG 0.24  C 
ATOM     11 O    SER B   6      15.372 -21.423   1.958  1.00 19.89 LIG-0.27  OA
ATOM     12  N   ALA B   7      14.352 -22.986   0.751  1.00 19.53 LIG-0.35  N 
ATOM     13 H    ALA B   7      14.211 -23.817   0.578  1.00 19.53 LIG 0.16  HD
BRANCH 12 14
ATOM     14  CA  ALA B   7      13.567 -22.089  -0.086  1.00 19.70 LIG 0.17  C 
ATOM     15  CB  ALA B   7      12.523 -22.905  -0.870  1.00 20.39 LIG 0.04  C 
BRANCH 14 16
ATOM     16  C   ALA B   7      12.819 -21.051   0.731  1.00 16.34 LIG 0.24  C 
ATOM     17  N   VAL B   8      13.314 -19.828   0.780  1.00 16.85 LIG-0.34  N 
ATOM     18 H    VAL B   8      14.072 -19.600   0.446  1.00 16.85 LIG 0.16  HD
ATOM     19 O    ALA B   7      11.768 -21.347   1.263  1.00 20.16 LIG-0.27  OA
BRANCH 17 20
ATOM     20  CA  VAL B   8      12.579 -18.737   1.434  1.00 17.28 LIG 0.19  C 
BRANCH 20 21
ATOM     21  C   VAL B   8      12.735 -17.473   0.596  1.00 17.19 LIG 0.20  C 
ATOM     22 O    VAL B   8      13.761 -17.316  -0.104  1.00 24.30 LIG-0.65  OA
ATOM     23 OXT  VAL B   8      11.875 -16.563   0.625  1.00 16.53 LIG-0.65  OA
ENDBRANCH 20 21
BRANCH 20 24
ATOM     24  CB  VAL B   8      13.044 -18.499   2.904  1.00 17.38 LIG 0.01  C 
ATOM     25  CG2 VAL B   8      13.209 -19.841   3.608  1.00 18.61 LIG 0.01  C 
ATOM     26  CG1 VAL B   8      12.098 -17.572   3.621  1.00 19.61 LIG 0.01  C 
ENDBRANCH 20 24
ENDBRANCH 17 20
ENDBRANCH 14 16
ENDBRANCH 12 14
ENDBRANCH 9 10
BRANCH 9 27
ATOM     27  CB  SER B   6      14.908 -24.106   3.594  1.00 25.59 LIG 0.20  C 
BRANCH 27 28
ATOM     28 OG   SER B   6      15.156 -23.315   4.735  1.00 27.26 LIG-0.40  OA
ATOM     29 HG   SER B   6      14.456 -23.262   5.198  1.00 27.26 LIG 0.21  HD
ENDBRANCH 27 28
ENDBRANCH 9 27
ENDBRANCH 7 9
ENDBRANCH 1 5
BRANCH 1 30
ATOM     30  N   VAL B   5      19.647 -22.112   2.950  1.00 22.92 LIG-0.35  N 
ATOM     31 H    VAL B   5      20.346 -22.591   3.100  1.00 22.92 LIG 0.16  HD
ATOM     32  C   GLN B   4      19.378 -21.583   1.766  1.00 24.29 LIG 0.24  C 
ATOM     33 O    GLN B   4      18.382 -20.938   1.507  1.00 26.90 LIG-0.27  OA
BRANCH 32 34
ATOM     34  CA  GLN B   4      20.428 -21.850   0.684  1.00 30.52 LIG 0.18  C 
BRANCH 34 35
ATOM     35  CB  GLN B   4      20.810 -23.328   0.742  1.00 36.61 LIG 0.04  C 
BRANCH 35 36
ATOM     36  CG  GLN B   4      19.614 -24.257   0.862  1.00 50.94 LIG 0.10  C 
BRANCH 36 37
ATOM     37  CD  GLN B   4      19.992 -25.687   0.486  1.00 60.90 LIG 0.21  C 
ATOM     38  NE2 GLN B   4      21.209 -25.879  -0.020  1.00 82.36 LIG-0.37  N 
ATOM     39 21HE GLN B   4      21.739 -25.211  -0.128  1.00 82.36 LIG 0.16  HD
ATOM     40 22HE GLN B   4      21.464 -26.671  -0.238  1.00 82.36 LIG 0.16  HD
ATOM     41 OE1  GLN B   4      19.195 -26.606   0.662  1.00 55.22 LIG-0.27  OA
ENDBRANCH 36 37
ENDBRANCH 35 36
ENDBRANCH 34 35
BRANCH 34 42
ATOM     42  N   GLN B   4      21.594 -21.015   0.889  1.00 37.98 LIG-0.35  N 
ATOM     43  C   GLU B   3      21.720 -19.821   0.318  1.00 56.89 LIG 0.26  C 
ATOM     44 O    GLU B   3      20.898 -19.375  -0.471  1.00 56.58 LIG-0.27  OA
ATOM     45 H    GLN B   4      22.187 -21.360   1.408  1.00 37.98 LIG 0.16  HD
BRANCH 43 46
ATOM     46  CA  GLU B   3      22.967 -19.020   0.687  1.00 80.09 LIG 0.40  C 
ATOM     47  N   GLU B   3      23.289 -18.059  -0.358  1.00 75.44 LIG 0.61  N 
BRANCH 46 48
ATOM     48  CB  GLU B   3      22.751 -18.295   2.011  1.00107.85 LIG 0.06  C 
BRANCH 48 49
ATOM     49  CG  GLU B   3      22.793 -19.205   3.216  1.00114.95 LIG 0.12  C 
BRANCH 49 50
ATOM     50  CD  GLU B   3      23.591 -20.468   2.954  1.00 96.82 LIG 0.17  C 
ATOM     51 OE1  GLU B   3      24.762 -20.360   2.521  1.00 91.15 LIG-0.65  OA
ATOM     52 OE2  GLU B   3      23.050 -21.573   3.195  1.00 91.13 LIG-0.65  OA
ENDBRANCH 49 50
ENDBRANCH 48 49
ENDBRANCH 46 48
ENDBRANCH 43 46
ENDBRANCH 34 42
ENDBRANCH 32 34
ENDBRANCH 1 30
TORSDOF 21
ENDMDL
MODEL 59
USER: ADFR SOLUTION from run 63
USER: SCORE 14.405192 LL:  -3.507 LR: -12.967 RR:   0.000 FEB:  -6.703
USER: RMSD 13.736597
USER: SEED 62
USER: STATUS no improvement in best in 6 clusters for 5 generations
USER: GENES 23
USER: genes 0 Translation |==|  0.71381 0.52073 0.49614
USER: genes 1 Rotation |==|  0.64954 0.20569 0.87521 0.51545
USER: genes 2 Torsion [C]-CA--CB-[CG2] |==|  0.92531
USER: genes 3 Torsion [N]-CA--C-[N] |==|  0.49891
USER: genes 4 Torsion [C]-N--CA-[CB] |==|  0.89529
USER: genes 5 Torsion [N]-CA--C-[N] |==|  0.31153
USER: genes 6 Torsion [C]-N--CA-[CB] |==|  0.19861
USER: genes 7 Torsion [N]-CA--C-[N] |==|  0.14020
USER: genes 8 Torsion [C]-N--CA-[CB] |==|  0.83393
USER: genes 9 Torsion [N]-CA--C-[O] |==|  0.63889
USER: genes 10 Torsion [N]-CA--CB-[CG2] |==|  0.88287
USER: genes 11 Torsion [N]-CA--CB-[OG] |==|  0.58884
USER: genes 12 Torsion [CA]-CB--OG-[HG] |==|  0.13703
USER: genes 13 Torsion [CB]-CA--N-[C] |==|  0.84147
USER: genes 14 Torsion [N]-C--CA-[N] |==|  0.47763
USER: genes 15 Torsion [C]-CA--CB-[CG] |==|  0.85573
USER: genes 16 Torsion [CA]-CB--CG-[CD] |==|  0.68720
USER: genes 17 Torsion [CB]-CG--CD-[OE1] |==|  0.53642
USER: genes 18 Torsion [C]-CA--N-[C] |==|  0.54862
USER: genes 19 Torsion [N]-C--CA-[N] |==|  0.00215
USER: genes 20 Torsion [C]-CA--CB-[CG] |==|  0.67564
USER: genes 21 Torsion [CA]-CB--CG-[CD] |==|  0.21330
USER: genes 22 Torsion [CB]-CG--CD-[OE1] |==|  0.30898
ROOT
ATOM      1  CA  VAL B   5      18.607 -22.589   4.289  1.00 23.44 LIG 0.18  C 
ENDROOT
BRANCH 1 2
ATOM      2  CB  VAL B   5      19.030 -21.658   5.426  1.00 27.20 LIG 0.01  C 
ATOM      3  CG2 VAL B   5      18.394 -20.307   5.293  1.00 32.91 LIG 0.01  C 
ATOM      4  CG1 VAL B   5      20.536 -21.544   5.521  1.00 27.01 LIG 0.01  C 
ENDBRANCH 1 2
BRANCH 1 5
ATOM      5  C   VAL B   5      17.238 -22.175   3.762  1.00 21.98 LIG 0.24  C 
ATOM      6 O    VAL B   5      17.124 -21.795   2.600  1.00 26.26 LIG-0.27  OA
ATOM      7  N   SER B   6      16.211 -22.188   4.615  1.00 19.41 LIG-0.34  N 
ATOM      8 H    SER B   6      16.296 -22.390   5.446  1.00 19.41 LIG 0.16  HD
BRANCH 7 9
ATOM      9  CA  SER B   6      14.854 -21.864   4.236  1.00 20.84 LIG 0.20  C 
BRANCH 9 10
ATOM     10  C   SER B   6      14.124 -23.042   3.628  1.00 18.76 LIG 0.24  C 
ATOM     11 O    SER B   6      14.377 -23.451   2.510  1.00 19.89 LIG-0.27  OA
ATOM     12  N   ALA B   7      13.141 -23.516   4.356  1.00 19.53 LIG-0.35  N 
ATOM     13 H    ALA B   7      12.951 -23.203   5.134  1.00 19.53 LIG 0.16  HD
BRANCH 12 14
ATOM     14  CA  ALA B   7      12.264 -24.608   3.951  1.00 19.70 LIG 0.17  C 
ATOM     15  CB  ALA B   7      13.047 -25.932   3.986  1.00 20.39 LIG 0.04  C 
BRANCH 14 16
ATOM     16  C   ALA B   7      11.070 -24.756   4.877  1.00 16.34 LIG 0.24  C 
ATOM     17  N   VAL B   8      10.357 -23.678   5.146  1.00 16.85 LIG-0.34  N 
ATOM     18 H    VAL B   8      10.570 -22.884   4.895  1.00 16.85 LIG 0.16  HD
ATOM     19 O    ALA B   7      10.766 -25.855   5.294  1.00 20.16 LIG-0.27  OA
BRANCH 17 20
ATOM     20  CA  VAL B   8       9.111 -23.764   5.919  1.00 17.28 LIG 0.19  C 
BRANCH 20 21
ATOM     21  C   VAL B   8       9.440 -24.257   7.323  1.00 17.19 LIG 0.20  C 
ATOM     22 O    VAL B   8       8.795 -25.212   7.813  1.00 24.30 LIG-0.65  OA
ATOM     23 OXT  VAL B   8      10.318 -23.697   8.019  1.00 16.53 LIG-0.65  OA
ENDBRANCH 20 21
BRANCH 20 24
ATOM     24  CB  VAL B   8       8.046 -24.679   5.236  1.00 17.38 LIG 0.01  C 
ATOM     25  CG2 VAL B   8       8.028 -24.406   3.736  1.00 18.61 LIG 0.01  C 
ATOM     26  CG1 VAL B   8       6.698 -24.503   5.882  1.00 19.61 LIG 0.01  C 
ENDBRANCH 20 24
ENDBRANCH 17 20
ENDBRANCH 14 16
ENDBRANCH 12 14
ENDBRANCH 9 10
BRANCH 9 27
ATOM     27  CB  SER B   6      14.836 -20.725   3.225  1.00 25.59 LIG 0.20  C 
BRANCH 27 28
ATOM     28 OG   SER B   6      13.675 -19.939   3.387  1.00 27.26 LIG-0.40  OA
ATOM     29 HG   SER B   6      13.584 -19.737   4.197  1.00 27.26 LIG 0.21  HD
ENDBRANCH 27 28
ENDBRANCH 9 27
ENDBRANCH 7 9
ENDBRANCH 1 5
BRANCH 1 30
ATOM     30  N   VAL B   5      19.533 -22.500   3.184  1.00 22.92 LIG-0.35  N 
ATOM     31 H    VAL B   5      19.884 -23.256   2.970  1.00 22.92 LIG 0.16  HD
ATOM     32  C   GLN B   4      19.819 -21.370   2.557  1.00 24.29 LIG 0.24  C 
ATOM     33 O    GLN B   4      19.311 -20.294   2.804  1.00 26.90 LIG-0.27  OA
BRANCH 32 34
ATOM     34  CA  GLN B   4      20.860 -21.495   1.442  1.00 30.52 LIG 0.18  C 
BRANCH 34 35
ATOM     35  CB  GLN B   4      22.203 -21.850   2.077  1.00 36.61 LIG 0.04  C 
BRANCH 35 36
ATOM     36  CG  GLN B   4      22.603 -20.916   3.206  1.00 50.94 LIG 0.10  C 
BRANCH 36 37
ATOM     37  CD  GLN B   4      23.824 -20.084   2.824  1.00 60.90 LIG 0.21  C 
ATOM     38  NE2 GLN B   4      24.170 -20.075   1.538  1.00 82.36 LIG-0.37  N 
ATOM     39 21HE GLN B   4      23.716 -20.530   0.967  1.00 82.36 LIG 0.16  HD
ATOM     40 22HE GLN B   4      24.848 -19.613   1.278  1.00 82.36 LIG 0.16  HD
ATOM     41 OE1  GLN B   4      24.437 -19.452   3.680  1.00 55.22 LIG-0.27  OA
ENDBRANCH 36 37
ENDBRANCH 35 36
ENDBRANCH 34 35
BRANCH 34 42
ATOM     42  N   GLN B   4      20.962 -20.254   0.699  1.00 37.98 LIG-0.35  N 
ATOM     43  C   GLU B   3      21.523 -20.194  -0.505  1.00 56.89 LIG 0.26  C 
ATOM     44 O    GLU B   3      22.051 -21.159  -1.039  1.00 56.58 LIG-0.27  OA
ATOM     45 H    GLN B   4      20.631 -19.573   1.105  1.00 37.98 LIG 0.16  HD
BRANCH 43 46
ATOM     46  CA  GLU B   3      21.489 -18.835  -1.201  1.00 80.09 LIG 0.40  C 
ATOM     47  N   GLU B   3      20.838 -17.841  -0.359  1.00 75.44 LIG 0.61  N 
BRANCH 46 48
ATOM     48  CB  GLU B   3      22.906 -18.382  -1.537  1.00107.85 LIG 0.06  C 
BRANCH 48 49
ATOM     49  CG  GLU B   3      23.324 -17.117  -0.827  1.00114.95 LIG 0.12  C 
BRANCH 49 50
ATOM     50  CD  GLU B   3      23.680 -17.364   0.626  1.00 96.82 LIG 0.17  C 
ATOM     51 OE1  GLU B   3      24.876 -17.246   0.981  1.00 91.15 LIG-0.65  OA
ATOM     52 OE2  GLU B   3      22.758 -17.663   1.420  1.00 91.13 LIG-0.65  OA
ENDBRANCH 49 50
ENDBRANCH 48 49
ENDBRANCH 46 48
ENDBRANCH 43 46
ENDBRANCH 34 42
ENDBRANCH 32 34
ENDBRANCH 1 30
TORSDOF 21
ENDMDL
MODEL 60
USER: ADFR SOLUTION from run 99
USER: SCORE 13.709780 LL:  -4.636 LR: -12.948 RR:   0.000 FEB:  -6.684
USER: RMSD 8.431754
USER: SEED 98
USER: STATUS no improvement in best in 10 clusters for 5 generations
USER: GENES 23
USER: genes 0 Translation |==|  0.72507 0.57104 0.50513
USER: genes 1 Rotation |==|  0.27798 0.51423 0.66296 0.91707
USER: genes 2 Torsion [C]-CA--CB-[CG2] |==|  0.42239
USER: genes 3 Torsion [N]-CA--C-[N] |==|  0.82423
USER: genes 4 Torsion [C]-N--CA-[CB] |==|  0.77339
USER: genes 5 Torsion [N]-CA--C-[N] |==|  0.68259
USER: genes 6 Torsion [C]-N--CA-[CB] |==|  0.54749
USER: genes 7 Torsion [N]-CA--C-[N] |==|  0.75455
USER: genes 8 Torsion [C]-N--CA-[CB] |==|  0.84947
USER: genes 9 Torsion [N]-CA--C-[O] |==|  0.27007
USER: genes 10 Torsion [N]-CA--CB-[CG2] |==|  0.77230
USER: genes 11 Torsion [N]-CA--CB-[OG] |==|  0.11603
USER: genes 12 Torsion [CA]-CB--OG-[HG] |==|  0.19217
USER: genes 13 Torsion [CB]-CA--N-[C] |==|  0.51605
USER: genes 14 Torsion [N]-C--CA-[N] |==|  0.49556
USER: genes 15 Torsion [C]-CA--CB-[CG] |==|  0.89940
USER: genes 16 Torsion [CA]-CB--CG-[CD] |==|  0.67578
USER: genes 17 Torsion [CB]-CG--CD-[OE1] |==|  0.58071
USER: genes 18 Torsion [C]-CA--N-[C] |==|  0.51136
USER: genes 19 Torsion [N]-C--CA-[N] |==|  0.49963
USER: genes 20 Torsion [C]-CA--CB-[CG] |==|  0.22008
USER: genes 21 Torsion [CA]-CB--CG-[CD] |==|  0.16062
USER: genes 22 Torsion [CB]-CG--CD-[OE1] |==|  0.82118
ROOT
ATOM      1  CA  VAL B   5      18.945 -21.722   4.445  1.00 23.44 LIG 0.18  C 
ENDROOT
BRANCH 1 2
ATOM      2  CB  VAL B   5      19.826 -22.722   5.194  1.00 27.20 LIG 0.01  C 
ATOM      3  CG2 VAL B   5      20.057 -22.293   6.612  1.00 32.91 LIG 0.01  C 
ATOM      4  CG1 VAL B   5      21.137 -22.956   4.476  1.00 27.01 LIG 0.01  C 
ENDBRANCH 1 2
BRANCH 1 5
ATOM      5  C   VAL B   5      19.271 -21.758   2.956  1.00 21.98 LIG 0.24  C 
ATOM      6 O    VAL B   5      19.571 -20.720   2.374  1.00 26.26 LIG-0.27  OA
ATOM      7  N   SER B   6      19.162 -22.928   2.321  1.00 19.41 LIG-0.34  N 
ATOM      8 H    SER B   6      18.891 -23.645   2.709  1.00 19.41 LIG 0.16  HD
BRANCH 7 9
ATOM      9  CA  SER B   6      19.485 -23.112   0.924  1.00 20.84 LIG 0.20  C 
BRANCH 9 10
ATOM     10  C   SER B   6      20.718 -22.340   0.507  1.00 18.76 LIG 0.24  C 
ATOM     11 O    SER B   6      21.808 -22.543   1.009  1.00 19.89 LIG-0.27  OA
ATOM     12  N   ALA B   7      20.499 -21.377  -0.358  1.00 19.53 LIG-0.35  N 
ATOM     13 H    ALA B   7      19.720 -21.223  -0.687  1.00 19.53 LIG 0.16  HD
BRANCH 12 14
ATOM     14  CA  ALA B   7      21.520 -20.467  -0.859  1.00 19.70 LIG 0.17  C 
ATOM     15  CB  ALA B   7      20.843 -19.240  -1.495  1.00 20.39 LIG 0.04  C 
BRANCH 14 16
ATOM     16  C   ALA B   7      22.434 -19.967   0.245  1.00 16.34 LIG 0.24  C 
ATOM     17  N   VAL B   8      22.075 -18.879   0.900  1.00 16.85 LIG-0.34  N 
ATOM     18 H    VAL B   8      21.399 -18.390   0.692  1.00 16.85 LIG 0.16  HD
ATOM     19 O    ALA B   7      23.428 -20.601   0.536  1.00 20.16 LIG-0.27  OA
BRANCH 17 20
ATOM     20  CA  VAL B   8      22.832 -18.410   2.069  1.00 17.28 LIG 0.19  C 
BRANCH 20 21
ATOM     21  C   VAL B   8      24.190 -17.901   1.599  1.00 17.19 LIG 0.20  C 
ATOM     22 O    VAL B   8      24.361 -16.675   1.410  1.00 24.30 LIG-0.65  OA
ATOM     23 OXT  VAL B   8      25.131 -18.690   1.356  1.00 16.53 LIG-0.65  OA
ENDBRANCH 20 21
BRANCH 20 24
ATOM     24  CB  VAL B   8      22.991 -19.515   3.160  1.00 17.38 LIG 0.01  C 
ATOM     25  CG2 VAL B   8      21.728 -19.572   4.012  1.00 18.61 LIG 0.01  C 
ATOM     26  CG1 VAL B   8      24.238 -19.288   3.972  1.00 19.61 LIG 0.01  C 
ENDBRANCH 20 24
ENDBRANCH 17 20
ENDBRANCH 14 16
ENDBRANCH 12 14
ENDBRANCH 9 10
BRANCH 9 27
ATOM     27  CB  SER B   6      18.327 -22.666   0.041  1.00 25.59 LIG 0.20  C 
BRANCH 27 28
ATOM     28 OG   SER B   6      17.771 -21.464   0.528  1.00 27.26 LIG-0.40  OA
ATOM     29 HG   SER B   6      18.317 -20.836   0.415  1.00 27.26 LIG 0.21  HD
ENDBRANCH 27 28
ENDBRANCH 9 27
ENDBRANCH 7 9
ENDBRANCH 1 5
BRANCH 1 30
ATOM     30  N   VAL B   5      17.549 -22.065   4.582  1.00 22.92 LIG-0.35  N 
ATOM     31 H    VAL B   5      17.410 -22.722   5.120  1.00 22.92 LIG 0.16  HD
ATOM     32  C   GLN B   4      16.573 -21.436   3.946  1.00 24.29 LIG 0.24  C 
ATOM     33 O    GLN B   4      16.729 -20.479   3.214  1.00 26.90 LIG-0.27  OA
BRANCH 32 34
ATOM     34  CA  GLN B   4      15.170 -21.991   4.203  1.00 30.52 LIG 0.18  C 
BRANCH 34 35
ATOM     35  CB  GLN B   4      15.139 -23.447   3.741  1.00 36.61 LIG 0.04  C 
BRANCH 35 36
ATOM     36  CG  GLN B   4      15.971 -23.704   2.496  1.00 50.94 LIG 0.10  C 
BRANCH 36 37
ATOM     37  CD  GLN B   4      15.094 -24.162   1.335  1.00 60.90 LIG 0.21  C 
ATOM     38  NE2 GLN B   4      13.838 -23.719   1.314  1.00 82.36 LIG-0.37  N 
ATOM     39 21HE GLN B   4      13.553 -23.205   1.941  1.00 82.36 LIG 0.16  HD
ATOM     40 22HE GLN B   4      13.312 -23.948   0.673  1.00 82.36 LIG 0.16  HD
ATOM     41 OE1  GLN B   4      15.551 -24.899   0.464  1.00 55.22 LIG-0.27  OA
ENDBRANCH 36 37
ENDBRANCH 35 36
ENDBRANCH 34 35
BRANCH 34 42
ATOM     42  N   GLN B   4      14.175 -21.212   3.492  1.00 37.98 LIG-0.35  N 
ATOM     43  C   GLU B   3      12.873 -21.444   3.616  1.00 56.89 LIG 0.26  C 
ATOM     44 O    GLU B   3      12.425 -22.369   4.279  1.00 56.58 LIG-0.27  OA
ATOM     45 H    GLN B   4      14.505 -20.595   2.991  1.00 37.98 LIG 0.16  HD
BRANCH 43 46
ATOM     46  CA  GLU B   3      11.940 -20.493   2.869  1.00 80.09 LIG 0.40  C 
ATOM     47  N   GLU B   3      10.548 -20.861   3.087  1.00 75.44 LIG 0.61  N 
BRANCH 46 48
ATOM     48  CB  GLU B   3      12.176 -19.058   3.329  1.00107.85 LIG 0.06  C 
BRANCH 48 49
ATOM     49  CG  GLU B   3      13.390 -18.412   2.705  1.00114.95 LIG 0.12  C 
BRANCH 49 50
ATOM     50  CD  GLU B   3      13.318 -18.396   1.190  1.00 96.82 LIG 0.17  C 
ATOM     51 OE1  GLU B   3      13.319 -19.490   0.576  1.00 91.15 LIG-0.65  OA
ATOM     52 OE2  GLU B   3      13.245 -17.288   0.610  1.00 91.13 LIG-0.65  OA
ENDBRANCH 49 50
ENDBRANCH 48 49
ENDBRANCH 46 48
ENDBRANCH 43 46
ENDBRANCH 34 42
ENDBRANCH 32 34
ENDBRANCH 1 30
TORSDOF 21
ENDMDL
MODEL 61
USER: ADFR SOLUTION from run 10
USER: SCORE 15.044923 LL:  -4.646 LR: -12.926 RR:   0.000 FEB:  -6.662
USER: RMSD 12.720527
USER: SEED 913082
USER: STATUS no improvement in best in 10 clusters for 5 generations
USER: GENES 23
USER: genes 0 Translation |==|  0.55773 0.53305 0.44505
USER: genes 1 Rotation |==|  0.36155 0.46004 0.03598 0.61800
USER: genes 2 Torsion [C]-CA--CB-[CG2] |==|  0.48365
USER: genes 3 Torsion [N]-CA--C-[N] |==|  0.37680
USER: genes 4 Torsion [C]-N--CA-[CB] |==|  0.26176
USER: genes 5 Torsion [N]-CA--C-[N] |==|  0.45131
USER: genes 6 Torsion [C]-N--CA-[CB] |==|  0.50685
USER: genes 7 Torsion [N]-CA--C-[N] |==|  0.37580
USER: genes 8 Torsion [C]-N--CA-[CB] |==|  0.49555
USER: genes 9 Torsion [N]-CA--C-[O] |==|  0.38958
USER: genes 10 Torsion [N]-CA--CB-[CG2] |==|  0.24226
USER: genes 11 Torsion [N]-CA--CB-[OG] |==|  0.09695
USER: genes 12 Torsion [CA]-CB--OG-[HG] |==|  0.88863
USER: genes 13 Torsion [CB]-CA--N-[C] |==|  0.48912
USER: genes 14 Torsion [N]-C--CA-[N] |==|  0.34062
USER: genes 15 Torsion [C]-CA--CB-[CG] |==|  0.47391
USER: genes 16 Torsion [CA]-CB--CG-[CD] |==|  0.37333
USER: genes 17 Torsion [CB]-CG--CD-[OE1] |==|  0.08782
USER: genes 18 Torsion [C]-CA--N-[C] |==|  0.74783
USER: genes 19 Torsion [N]-C--CA-[N] |==|  0.99553
USER: genes 20 Torsion [C]-CA--CB-[CG] |==|  0.88090
USER: genes 21 Torsion [CA]-CB--CG-[CD] |==|  0.81701
USER: genes 22 Torsion [CB]-CG--CD-[OE1] |==|  0.92670
ROOT
ATOM      1  CA  VAL B   5      13.925 -22.377   3.408  1.00 23.44 LIG 0.18  C 
ENDROOT
BRANCH 1 2
ATOM      2  CB  VAL B   5      13.043 -21.233   2.906  1.00 27.20 LIG 0.01  C 
ATOM      3  CG2 VAL B   5      13.523 -19.907   3.415  1.00 32.91 LIG 0.01  C 
ATOM      4  CG1 VAL B   5      11.588 -21.457   3.257  1.00 27.01 LIG 0.01  C 
ENDBRANCH 1 2
BRANCH 1 5
ATOM      5  C   VAL B   5      13.325 -23.715   2.992  1.00 21.98 LIG 0.24  C 
ATOM      6 O    VAL B   5      13.387 -24.071   1.819  1.00 26.26 LIG-0.27  OA
ATOM      7  N   SER B   6      12.695 -24.433   3.925  1.00 19.41 LIG-0.34  N 
ATOM      8 H    SER B   6      12.591 -24.161   4.733  1.00 19.41 LIG 0.16  HD
BRANCH 7 9
ATOM      9  CA  SER B   6      12.122 -25.738   3.677  1.00 20.84 LIG 0.20  C 
BRANCH 9 10
ATOM     10  C   SER B   6      10.847 -25.969   4.460  1.00 18.76 LIG 0.24  C 
ATOM     11 O    SER B   6      10.589 -25.345   5.472  1.00 19.89 LIG-0.27  OA
ATOM     12  N   ALA B   7      10.102 -26.955   4.019  1.00 19.53 LIG-0.35  N 
ATOM     13 H    ALA B   7      10.306 -27.410   3.319  1.00 19.53 LIG 0.16  HD
BRANCH 12 14
ATOM     14  CA  ALA B   7       8.862 -27.398   4.644  1.00 19.70 LIG 0.17  C 
ATOM     15  CB  ALA B   7       8.310 -28.613   3.879  1.00 20.39 LIG 0.04  C 
BRANCH 14 16
ATOM     16  C   ALA B   7       9.067 -27.819   6.088  1.00 16.34 LIG 0.24  C 
ATOM     17  N   VAL B   8       8.193 -27.401   6.985  1.00 16.85 LIG-0.34  N 
ATOM     18 H    VAL B   8       7.560 -26.843   6.819  1.00 16.85 LIG 0.16  HD
ATOM     19 O    ALA B   7       9.980 -28.567   6.373  1.00 20.16 LIG-0.27  OA
BRANCH 17 20
ATOM     20  CA  VAL B   8       8.242 -27.876   8.374  1.00 17.28 LIG 0.19  C 
BRANCH 20 21
ATOM     21  C   VAL B   8       8.122 -29.396   8.375  1.00 17.19 LIG 0.20  C 
ATOM     22 O    VAL B   8       8.818 -30.072   9.167  1.00 24.30 LIG-0.65  OA
ATOM     23 OXT  VAL B   8       7.371 -29.989   7.568  1.00 16.53 LIG-0.65  OA
ENDBRANCH 20 21
BRANCH 20 24
ATOM     24  CB  VAL B   8       7.142 -27.223   9.268  1.00 17.38 LIG 0.01  C 
ATOM     25  CG2 VAL B   8       5.858 -28.041   9.172  1.00 18.61 LIG 0.01  C 
ATOM     26  CG1 VAL B   8       6.945 -25.776   8.904  1.00 19.61 LIG 0.01  C 
ENDBRANCH 20 24
ENDBRANCH 17 20
ENDBRANCH 14 16
ENDBRANCH 12 14
ENDBRANCH 9 10
BRANCH 9 27
ATOM     27  CB  SER B   6      13.109 -26.837   4.048  1.00 25.59 LIG 0.20  C 
BRANCH 27 28
ATOM     28 OG   SER B   6      13.876 -26.455   5.169  1.00 27.26 LIG-0.40  OA
ATOM     29 HG   SER B   6      14.080 -25.642   5.105  1.00 27.26 LIG 0.21  HD
ENDBRANCH 27 28
ENDBRANCH 9 27
ENDBRANCH 7 9
ENDBRANCH 1 5
BRANCH 1 30
ATOM     30  N   VAL B   5      15.243 -22.302   2.822  1.00 22.92 LIG-0.35  N 
ATOM     31 H    VAL B   5      15.325 -21.670   2.245  1.00 22.92 LIG 0.16  HD
ATOM     32  C   GLN B   4      16.233 -23.123   3.138  1.00 24.29 LIG 0.24  C 
ATOM     33 O    GLN B   4      16.166 -23.997   3.978  1.00 26.90 LIG-0.27  OA
BRANCH 32 34
ATOM     34  CA  GLN B   4      17.534 -22.894   2.365  1.00 30.52 LIG 0.18  C 
BRANCH 34 35
ATOM     35  CB  GLN B   4      17.817 -24.138   1.524  1.00 36.61 LIG 0.04  C 
BRANCH 35 36
ATOM     36  CG  GLN B   4      18.958 -23.954   0.538  1.00 50.94 LIG 0.10  C 
BRANCH 36 37
ATOM     37  CD  GLN B   4      19.907 -25.149   0.567  1.00 60.90 LIG 0.21  C 
ATOM     38  NE2 GLN B   4      21.193 -24.906   0.321  1.00 82.36 LIG-0.37  N 
ATOM     39 21HE GLN B   4      21.454 -24.105   0.148  1.00 82.36 LIG 0.16  HD
ATOM     40 22HE GLN B   4      21.763 -25.550   0.334  1.00 82.36 LIG 0.16  HD
ATOM     41 OE1  GLN B   4      19.481 -26.273   0.820  1.00 55.22 LIG-0.27  OA
ENDBRANCH 36 37
ENDBRANCH 35 36
ENDBRANCH 34 35
BRANCH 34 42
ATOM     42  N   GLN B   4      18.631 -22.637   3.277  1.00 37.98 LIG-0.35  N 
ATOM     43  C   GLU B   3      18.956 -21.408   3.666  1.00 56.89 LIG 0.26  C 
ATOM     44 O    GLU B   3      18.402 -20.408   3.231  1.00 56.58 LIG-0.27  OA
ATOM     45 H    GLN B   4      19.044 -23.345   3.538  1.00 37.98 LIG 0.16  HD
BRANCH 43 46
ATOM     46  CA  GLU B   3      20.083 -21.296   4.690  1.00 80.09 LIG 0.40  C 
ATOM     47  N   GLU B   3      20.564 -22.617   5.072  1.00 75.44 LIG 0.61  N 
BRANCH 46 48
ATOM     48  CB  GLU B   3      21.231 -20.471   4.119  1.00107.85 LIG 0.06  C 
BRANCH 48 49
ATOM     49  CG  GLU B   3      21.563 -20.803   2.683  1.00114.95 LIG 0.12  C 
BRANCH 49 50
ATOM     50  CD  GLU B   3      22.108 -22.211   2.531  1.00 96.82 LIG 0.17  C 
ATOM     51 OE1  GLU B   3      22.689 -22.740   3.508  1.00 91.15 LIG-0.65  OA
ATOM     52 OE2  GLU B   3      21.943 -22.796   1.435  1.00 91.13 LIG-0.65  OA
ENDBRANCH 49 50
ENDBRANCH 48 49
ENDBRANCH 46 48
ENDBRANCH 43 46
ENDBRANCH 34 42
ENDBRANCH 32 34
ENDBRANCH 1 30
TORSDOF 21
ENDMDL
MODEL 62
USER: ADFR SOLUTION from run 75
USER: SCORE 15.253206 LL:  -4.720 LR: -12.918 RR:   0.000 FEB:  -6.654
USER: RMSD 13.274643
USER: SEED 74
USER: STATUS searching
USER: GENES 23
USER: genes 0 Translation |==|  0.73505 0.55759 0.47987
USER: genes 1 Rotation |==|  0.26271 0.61751 0.07711 0.53241
USER: genes 2 Torsion [C]-CA--CB-[CG2] |==|  0.50143
USER: genes 3 Torsion [N]-CA--C-[N] |==|  0.89871
USER: genes 4 Torsion [C]-N--CA-[CB] |==|  0.77778
USER: genes 5 Torsion [N]-CA--C-[N] |==|  0.27898
USER: genes 6 Torsion [C]-N--CA-[CB] |==|  0.47941
USER: genes 7 Torsion [N]-CA--C-[N] |==|  0.31122
USER: genes 8 Torsion [C]-N--CA-[CB] |==|  0.31383
USER: genes 9 Torsion [N]-CA--C-[O] |==|  0.31448
USER: genes 10 Torsion [N]-CA--CB-[CG2] |==|  0.93655
USER: genes 11 Torsion [N]-CA--CB-[OG] |==|  0.96774
USER: genes 12 Torsion [CA]-CB--OG-[HG] |==|  0.19269
USER: genes 13 Torsion [CB]-CA--N-[C] |==|  0.87773
USER: genes 14 Torsion [N]-C--CA-[N] |==|  0.75912
USER: genes 15 Torsion [C]-CA--CB-[CG] |==|  0.19383
USER: genes 16 Torsion [CA]-CB--CG-[CD] |==|  0.52437
USER: genes 17 Torsion [CB]-CG--CD-[OE1] |==|  0.35835
USER: genes 18 Torsion [C]-CA--N-[C] |==|  0.77723
USER: genes 19 Torsion [N]-C--CA-[N] |==|  0.40885
USER: genes 20 Torsion [C]-CA--CB-[CG] |==|  0.16690
USER: genes 21 Torsion [CA]-CB--CG-[CD] |==|  0.10068
USER: genes 22 Torsion [CB]-CG--CD-[OE1] |==|  0.11520
ROOT
ATOM      1  CA  VAL B   5      19.245 -21.954   4.009  1.00 23.44 LIG 0.18  C 
ENDROOT
BRANCH 1 2
ATOM      2  CB  VAL B   5      19.017 -20.487   4.379  1.00 27.20 LIG 0.01  C 
ATOM      3  CG2 VAL B   5      20.313 -19.781   4.643  1.00 32.91 LIG 0.01  C 
ATOM      4  CG1 VAL B   5      18.073 -20.350   5.554  1.00 27.01 LIG 0.01  C 
ENDBRANCH 1 2
BRANCH 1 5
ATOM      5  C   VAL B   5      17.907 -22.632   3.736  1.00 21.98 LIG 0.24  C 
ATOM      6 O    VAL B   5      17.381 -23.313   4.613  1.00 26.26 LIG-0.27  OA
ATOM      7  N   SER B   6      17.379 -22.505   2.517  1.00 19.41 LIG-0.34  N 
ATOM      8 H    SER B   6      17.773 -22.084   1.879  1.00 19.41 LIG 0.16  HD
BRANCH 7 9
ATOM      9  CA  SER B   6      16.097 -23.057   2.138  1.00 20.84 LIG 0.20  C 
BRANCH 9 10
ATOM     10  C   SER B   6      15.052 -22.890   3.220  1.00 18.76 LIG 0.24  C 
ATOM     11 O    SER B   6      14.945 -23.678   4.142  1.00 19.89 LIG-0.27  OA
ATOM     12  N   ALA B   7      14.217 -21.896   3.030  1.00 19.53 LIG-0.35  N 
ATOM     13 H    ALA B   7      14.283 -21.360   2.360  1.00 19.53 LIG 0.16  HD
BRANCH 12 14
ATOM     14  CA  ALA B   7      13.096 -21.578   3.906  1.00 19.70 LIG 0.17  C 
ATOM     15  CB  ALA B   7      12.465 -20.246   3.464  1.00 20.39 LIG 0.04  C 
BRANCH 14 16
ATOM     16  C   ALA B   7      12.012 -22.639   3.857  1.00 16.34 LIG 0.24  C 
ATOM     17  N   VAL B   8      11.816 -23.373   4.937  1.00 16.85 LIG-0.34  N 
ATOM     18 H    VAL B   8      12.313 -23.344   5.638  1.00 16.85 LIG 0.16  HD
ATOM     19 O    ALA B   7      11.321 -22.747   2.865  1.00 20.16 LIG-0.27  OA
BRANCH 17 20
ATOM     20  CA  VAL B   8      10.699 -24.323   5.017  1.00 17.28 LIG 0.19  C 
BRANCH 20 21
ATOM     21  C   VAL B   8       9.854 -23.982   6.239  1.00 17.19 LIG 0.20  C 
ATOM     22 O    VAL B   8       8.686 -23.557   6.086  1.00 24.30 LIG-0.65  OA
ATOM     23 OXT  VAL B   8      10.318 -24.077   7.397  1.00 16.53 LIG-0.65  OA
ENDBRANCH 20 21
BRANCH 20 24
ATOM     24  CB  VAL B   8      11.179 -25.808   5.061  1.00 17.38 LIG 0.01  C 
ATOM     25  CG2 VAL B   8      12.574 -25.909   4.455  1.00 18.61 LIG 0.01  C 
ATOM     26  CG1 VAL B   8      10.180 -26.713   4.390  1.00 19.61 LIG 0.01  C 
ENDBRANCH 20 24
ENDBRANCH 17 20
ENDBRANCH 14 16
ENDBRANCH 12 14
ENDBRANCH 9 10
BRANCH 9 27
ATOM     27  CB  SER B   6      16.223 -24.543   1.829  1.00 25.59 LIG 0.20  C 
BRANCH 27 28
ATOM     28 OG   SER B   6      17.581 -24.915   1.737  1.00 27.26 LIG-0.40  OA
ATOM     29 HG   SER B   6      17.934 -24.876   2.498  1.00 27.26 LIG 0.21  HD
ENDBRANCH 27 28
ENDBRANCH 9 27
ENDBRANCH 7 9
ENDBRANCH 1 5
BRANCH 1 30
ATOM     30  N   VAL B   5      20.030 -22.061   2.801  1.00 22.92 LIG-0.35  N 
ATOM     31 H    VAL B   5      20.649 -22.656   2.847  1.00 22.92 LIG 0.16  HD
ATOM     32  C   GLN B   4      19.823 -21.319   1.724  1.00 24.29 LIG 0.24  C 
ATOM     33 O    GLN B   4      18.933 -20.500   1.609  1.00 26.90 LIG-0.27  OA
BRANCH 32 34
ATOM     34  CA  GLN B   4      20.799 -21.566   0.571  1.00 30.52 LIG 0.18  C 
BRANCH 34 35
ATOM     35  CB  GLN B   4      21.165 -23.049   0.562  1.00 36.61 LIG 0.04  C 
BRANCH 35 36
ATOM     36  CG  GLN B   4      20.017 -23.951   0.140  1.00 50.94 LIG 0.10  C 
BRANCH 36 37
ATOM     37  CD  GLN B   4      20.367 -25.421   0.355  1.00 60.90 LIG 0.21  C 
ATOM     38  NE2 GLN B   4      21.528 -25.845  -0.141  1.00 82.36 LIG-0.37  N 
ATOM     39 21HE GLN B   4      22.039 -25.300  -0.566  1.00 82.36 LIG 0.16  HD
ATOM     40 22HE GLN B   4      21.767 -26.665  -0.036  1.00 82.36 LIG 0.16  HD
ATOM     41 OE1  GLN B   4      19.600 -26.158   0.970  1.00 55.22 LIG-0.27  OA
ENDBRANCH 36 37
ENDBRANCH 35 36
ENDBRANCH 34 35
BRANCH 34 42
ATOM     42  N   GLN B   4      21.988 -20.751   0.727  1.00 37.98 LIG-0.35  N 
ATOM     43  C   GLU B   3      22.016 -19.467   0.383  1.00 56.89 LIG 0.26  C 
ATOM     44 O    GLU B   3      21.070 -18.904  -0.149  1.00 56.58 LIG-0.27  OA
ATOM     45 H    GLN B   4      22.661 -21.171   1.057  1.00 37.98 LIG 0.16  HD
BRANCH 43 46
ATOM     46  CA  GLU B   3      23.313 -18.715   0.677  1.00 80.09 LIG 0.40  C 
ATOM     47  N   GLU B   3      23.553 -17.691  -0.331  1.00 75.44 LIG 0.61  N 
BRANCH 46 48
ATOM     48  CB  GLU B   3      23.247 -18.077   2.060  1.00107.85 LIG 0.06  C 
BRANCH 48 49
ATOM     49  CG  GLU B   3      23.054 -19.072   3.180  1.00114.95 LIG 0.12  C 
BRANCH 49 50
ATOM     50  CD  GLU B   3      23.794 -20.371   2.927  1.00 96.82 LIG 0.17  C 
ATOM     51 OE1  GLU B   3      24.952 -20.321   2.449  1.00 91.15 LIG-0.65  OA
ATOM     52 OE2  GLU B   3      23.221 -21.447   3.218  1.00 91.13 LIG-0.65  OA
ENDBRANCH 49 50
ENDBRANCH 48 49
ENDBRANCH 46 48
ENDBRANCH 43 46
ENDBRANCH 34 42
ENDBRANCH 32 34
ENDBRANCH 1 30
TORSDOF 21
ENDMDL
MODEL 63
USER: ADFR SOLUTION from run 94
USER: SCORE 15.891672 LL:  -4.907 LR: -12.901 RR:   0.000 FEB:  -6.637
USER: RMSD 11.305629
USER: SEED 93
USER: STATUS searching
USER: GENES 23
USER: genes 0 Translation |==|  0.58875 0.57272 0.49382
USER: genes 1 Rotation |==|  0.60735 0.60014 0.97779 0.51290
USER: genes 2 Torsion [C]-CA--CB-[CG2] |==|  0.21716
USER: genes 3 Torsion [N]-CA--C-[N] |==|  0.51604
USER: genes 4 Torsion [C]-N--CA-[CB] |==|  0.23859
USER: genes 5 Torsion [N]-CA--C-[N] |==|  0.00364
USER: genes 6 Torsion [C]-N--CA-[CB] |==|  0.16187
USER: genes 7 Torsion [N]-CA--C-[N] |==|  0.08120
USER: genes 8 Torsion [C]-N--CA-[CB] |==|  0.24601
USER: genes 9 Torsion [N]-CA--C-[O] |==|  0.97261
USER: genes 10 Torsion [N]-CA--CB-[CG2] |==|  0.31634
USER: genes 11 Torsion [N]-CA--CB-[OG] |==|  0.72990
USER: genes 12 Torsion [CA]-CB--OG-[HG] |==|  0.21805
USER: genes 13 Torsion [CB]-CA--N-[C] |==|  0.22022
USER: genes 14 Torsion [N]-C--CA-[N] |==|  0.11729
USER: genes 15 Torsion [C]-CA--CB-[CG] |==|  0.43723
USER: genes 16 Torsion [CA]-CB--CG-[CD] |==|  0.28541
USER: genes 17 Torsion [CB]-CG--CD-[OE1] |==|  0.23652
USER: genes 18 Torsion [C]-CA--N-[C] |==|  0.12778
USER: genes 19 Torsion [N]-C--CA-[N] |==|  0.44906
USER: genes 20 Torsion [C]-CA--CB-[CG] |==|  0.90674
USER: genes 21 Torsion [CA]-CB--CG-[CD] |==|  0.86099
USER: genes 22 Torsion [CB]-CG--CD-[OE1] |==|  0.87963
ROOT
ATOM      1  CA  VAL B   5      14.855 -21.693   4.249  1.00 23.44 LIG 0.18  C 
ENDROOT
BRANCH 1 2
ATOM      2  CB  VAL B   5      14.656 -20.578   3.222  1.00 27.20 LIG 0.01  C 
ATOM      3  CG2 VAL B   5      13.535 -19.663   3.617  1.00 32.91 LIG 0.01  C 
ATOM      4  CG1 VAL B   5      14.438 -21.135   1.832  1.00 27.01 LIG 0.01  C 
ENDBRANCH 1 2
BRANCH 1 5
ATOM      5  C   VAL B   5      13.794 -22.770   4.057  1.00 21.98 LIG 0.24  C 
ATOM      6 O    VAL B   5      14.137 -23.932   3.857  1.00 26.26 LIG-0.27  OA
ATOM      7  N   SER B   6      12.514 -22.393   4.057  1.00 19.41 LIG-0.34  N 
ATOM      8 H    SER B   6      12.269 -21.572   4.132  1.00 19.41 LIG 0.16  HD
BRANCH 7 9
ATOM      9  CA  SER B   6      11.408 -23.316   3.932  1.00 20.84 LIG 0.20  C 
BRANCH 9 10
ATOM     10  C   SER B   6      10.180 -22.672   3.325  1.00 18.76 LIG 0.24  C 
ATOM     11 O    SER B   6       9.171 -23.307   3.083  1.00 19.89 LIG-0.27  OA
ATOM     12  N   ALA B   7      10.327 -21.411   2.993  1.00 19.53 LIG-0.35  N 
ATOM     13 H    ALA B   7      11.054 -20.977   3.143  1.00 19.53 LIG 0.16  HD
BRANCH 12 14
ATOM     14  CA  ALA B   7       9.304 -20.602   2.343  1.00 19.70 LIG 0.17  C 
ATOM     15  CB  ALA B   7       8.040 -20.576   3.220  1.00 20.39 LIG 0.04  C 
BRANCH 14 16
ATOM     16  C   ALA B   7       9.752 -19.166   2.140  1.00 16.34 LIG 0.24  C 
ATOM     17  N   VAL B   8      11.042 -18.936   1.983  1.00 16.85 LIG-0.34  N 
ATOM     18 H    VAL B   8      11.653 -19.536   2.065  1.00 16.85 LIG 0.16  HD
ATOM     19 O    ALA B   7       8.922 -18.282   2.069  1.00 20.16 LIG-0.27  OA
BRANCH 17 20
ATOM     20  CA  VAL B   8      11.540 -17.596   1.645  1.00 17.28 LIG 0.19  C 
BRANCH 20 21
ATOM     21  C   VAL B   8      12.790 -17.742   0.785  1.00 17.19 LIG 0.20  C 
ATOM     22 O    VAL B   8      13.318 -18.869   0.644  1.00 24.30 LIG-0.65  OA
ATOM     23 OXT  VAL B   8      13.329 -16.748   0.247  1.00 16.53 LIG-0.65  OA
ENDBRANCH 20 21
BRANCH 20 24
ATOM     24  CB  VAL B   8      11.824 -16.728   2.910  1.00 17.38 LIG 0.01  C 
ATOM     25  CG2 VAL B   8      13.321 -16.455   3.013  1.00 18.61 LIG 0.01  C 
ATOM     26  CG1 VAL B   8      11.260 -17.380   4.144  1.00 19.61 LIG 0.01  C 
ENDBRANCH 20 24
ENDBRANCH 17 20
ENDBRANCH 14 16
ENDBRANCH 12 14
ENDBRANCH 9 10
BRANCH 9 27
ATOM     27  CB  SER B   6      11.022 -23.879   5.293  1.00 25.59 LIG 0.20  C 
BRANCH 27 28
ATOM     28 OG   SER B   6      11.621 -25.140   5.494  1.00 27.26 LIG-0.40  OA
ATOM     29 HG   SER B   6      12.426 -25.037   5.710  1.00 27.26 LIG 0.21  HD
ENDBRANCH 27 28
ENDBRANCH 9 27
ENDBRANCH 7 9
ENDBRANCH 1 5
BRANCH 1 30
ATOM     30  N   VAL B   5      16.142 -22.326   4.074  1.00 22.92 LIG-0.35  N 
ATOM     31 H    VAL B   5      16.099 -23.076   3.653  1.00 22.92 LIG 0.16  HD
ATOM     32  C   GLN B   4      17.279 -21.811   4.513  1.00 24.29 LIG 0.24  C 
ATOM     33 O    GLN B   4      17.381 -20.736   5.071  1.00 26.90 LIG-0.27  OA
BRANCH 32 34
ATOM     34  CA  GLN B   4      18.520 -22.669   4.258  1.00 30.52 LIG 0.18  C 
BRANCH 34 35
ATOM     35  CB  GLN B   4      19.756 -21.789   4.432  1.00 36.61 LIG 0.04  C 
BRANCH 35 36
ATOM     36  CG  GLN B   4      21.018 -22.575   4.746  1.00 50.94 LIG 0.10  C 
BRANCH 36 37
ATOM     37  CD  GLN B   4      21.907 -22.701   3.512  1.00 60.90 LIG 0.21  C 
ATOM     38  NE2 GLN B   4      21.767 -23.802   2.776  1.00 82.36 LIG-0.37  N 
ATOM     39 21HE GLN B   4      21.200 -24.405   3.008  1.00 82.36 LIG 0.16  HD
ATOM     40 22HE GLN B   4      22.244 -23.910   2.068  1.00 82.36 LIG 0.16  HD
ATOM     41 OE1  GLN B   4      22.702 -21.809   3.226  1.00 55.22 LIG-0.27  OA
ENDBRANCH 36 37
ENDBRANCH 35 36
ENDBRANCH 34 35
BRANCH 34 42
ATOM     42  N   GLN B   4      18.483 -23.235   2.924  1.00 37.98 LIG-0.35  N 
ATOM     43  C   GLU B   3      18.170 -22.509   1.855  1.00 56.89 LIG 0.26  C 
ATOM     44 O    GLU B   3      17.827 -21.338   1.928  1.00 56.58 LIG-0.27  OA
ATOM     45 H    GLN B   4      18.679 -24.072   2.892  1.00 37.98 LIG 0.16  HD
BRANCH 43 46
ATOM     46  CA  GLU B   3      18.248 -23.220   0.506  1.00 80.09 LIG 0.40  C 
ATOM     47  N   GLU B   3      17.492 -22.492  -0.504  1.00 75.44 LIG 0.61  N 
BRANCH 46 48
ATOM     48  CB  GLU B   3      19.703 -23.356   0.068  1.00107.85 LIG 0.06  C 
BRANCH 48 49
ATOM     49  CG  GLU B   3      20.577 -22.203   0.499  1.00114.95 LIG 0.12  C 
BRANCH 49 50
ATOM     50  CD  GLU B   3      19.972 -20.859   0.141  1.00 96.82 LIG 0.17  C 
ATOM     51 OE1  GLU B   3      19.454 -20.715  -0.991  1.00 91.15 LIG-0.65  OA
ATOM     52 OE2  GLU B   3      20.002 -19.947   1.000  1.00 91.13 LIG-0.65  OA
ENDBRANCH 49 50
ENDBRANCH 48 49
ENDBRANCH 46 48
ENDBRANCH 43 46
ENDBRANCH 34 42
ENDBRANCH 32 34
ENDBRANCH 1 30
TORSDOF 21
ENDMDL
MODEL 64
USER: ADFR SOLUTION from run 7
USER: SCORE 15.520268 LL:  -4.919 LR: -12.870 RR:   0.000 FEB:  -6.606
USER: RMSD 11.969610
USER: SEED 366655
USER: STATUS no improvement in best in 5 clusters for 5 generations
USER: GENES 23
USER: genes 0 Translation |==|  0.71445 0.55736 0.52146
USER: genes 1 Rotation |==|  0.31934 0.60474 0.05294 0.58080
USER: genes 2 Torsion [C]-CA--CB-[CG2] |==|  0.67978
USER: genes 3 Torsion [N]-CA--C-[N] |==|  0.59077
USER: genes 4 Torsion [C]-N--CA-[CB] |==|  0.49522
USER: genes 5 Torsion [N]-CA--C-[N] |==|  0.34238
USER: genes 6 Torsion [C]-N--CA-[CB] |==|  0.16689
USER: genes 7 Torsion [N]-CA--C-[N] |==|  0.04422
USER: genes 8 Torsion [C]-N--CA-[CB] |==|  0.23035
USER: genes 9 Torsion [N]-CA--C-[O] |==|  0.41681
USER: genes 10 Torsion [N]-CA--CB-[CG2] |==|  0.71792
USER: genes 11 Torsion [N]-CA--CB-[OG] |==|  0.07157
USER: genes 12 Torsion [CA]-CB--OG-[HG] |==|  0.43947
USER: genes 13 Torsion [CB]-CA--N-[C] |==|  0.21310
USER: genes 14 Torsion [N]-C--CA-[N] |==|  0.96731
USER: genes 15 Torsion [C]-CA--CB-[CG] |==|  0.39389
USER: genes 16 Torsion [CA]-CB--CG-[CD] |==|  0.52273
USER: genes 17 Torsion [CB]-CG--CD-[OE1] |==|  0.69053
USER: genes 18 Torsion [C]-CA--N-[C] |==|  0.77037
USER: genes 19 Torsion [N]-C--CA-[N] |==|  0.50554
USER: genes 20 Torsion [C]-CA--CB-[CG] |==|  0.22782
USER: genes 21 Torsion [CA]-CB--CG-[CD] |==|  0.68086
USER: genes 22 Torsion [CB]-CG--CD-[OE1] |==|  0.81822
ROOT
ATOM      1  CA  VAL B   5      18.627 -21.958   4.726  1.00 23.44 LIG 0.18  C 
ENDROOT
BRANCH 1 2
ATOM      2  CB  VAL B   5      18.112 -20.554   5.048  1.00 27.20 LIG 0.01  C 
ATOM      3  CG2 VAL B   5      18.840 -19.509   4.255  1.00 32.91 LIG 0.01  C 
ATOM      4  CG1 VAL B   5      18.185 -20.261   6.530  1.00 27.01 LIG 0.01  C 
ENDBRANCH 1 2
BRANCH 1 5
ATOM      5  C   VAL B   5      17.521 -22.776   4.069  1.00 21.98 LIG 0.24  C 
ATOM      6 O    VAL B   5      17.814 -23.659   3.267  1.00 26.26 LIG-0.27  OA
ATOM      7  N   SER B   6      16.256 -22.458   4.352  1.00 19.41 LIG-0.34  N 
ATOM      8 H    SER B   6      16.043 -21.800   4.862  1.00 19.41 LIG 0.16  HD
BRANCH 7 9
ATOM      9  CA  SER B   6      15.115 -23.181   3.835  1.00 20.84 LIG 0.20  C 
BRANCH 9 10
ATOM     10  C   SER B   6      15.046 -23.152   2.323  1.00 18.76 LIG 0.24  C 
ATOM     11 O    SER B   6      14.931 -22.111   1.702  1.00 19.89 LIG-0.27  OA
ATOM     12  N   ALA B   7      15.021 -24.332   1.750  1.00 19.53 LIG-0.35  N 
ATOM     13 H    ALA B   7      15.076 -25.063   2.199  1.00 19.53 LIG 0.16  HD
BRANCH 12 14
ATOM     14  CA  ALA B   7      14.900 -24.552   0.315  1.00 19.70 LIG 0.17  C 
ATOM     15  CB  ALA B   7      16.085 -23.887  -0.406  1.00 20.39 LIG 0.04  C 
BRANCH 14 16
ATOM     16  C   ALA B   7      14.914 -26.028  -0.042  1.00 16.34 LIG 0.24  C 
ATOM     17  N   VAL B   8      14.707 -26.900   0.926  1.00 16.85 LIG-0.34  N 
ATOM     18 H    VAL B   8      14.642 -26.693   1.758  1.00 16.85 LIG 0.16  HD
ATOM     19 O    ALA B   7      15.054 -26.364  -1.200  1.00 20.16 LIG-0.27  OA
BRANCH 17 20
ATOM     20  CA  VAL B   8      14.569 -28.335   0.639  1.00 17.28 LIG 0.19  C 
BRANCH 20 21
ATOM     21  C   VAL B   8      13.724 -28.973   1.736  1.00 17.19 LIG 0.20  C 
ATOM     22 O    VAL B   8      13.014 -29.970   1.471  1.00 24.30 LIG-0.65  OA
ATOM     23 OXT  VAL B   8      13.691 -28.494   2.892  1.00 16.53 LIG-0.65  OA
ENDBRANCH 20 21
BRANCH 20 24
ATOM     24  CB  VAL B   8      15.949 -29.052   0.502  1.00 17.38 LIG 0.01  C 
ATOM     25  CG2 VAL B   8      16.268 -29.259  -0.975  1.00 18.61 LIG 0.01  C 
ATOM     26  CG1 VAL B   8      15.966 -30.333   1.292  1.00 19.61 LIG 0.01  C 
ENDBRANCH 20 24
ENDBRANCH 17 20
ENDBRANCH 14 16
ENDBRANCH 12 14
ENDBRANCH 9 10
BRANCH 9 27
ATOM     27  CB  SER B   6      13.818 -22.595   4.378  1.00 25.59 LIG 0.20  C 
BRANCH 27 28
ATOM     28 OG   SER B   6      13.994 -21.238   4.720  1.00 27.26 LIG-0.40  OA
ATOM     29 HG   SER B   6      13.248 -20.852   4.729  1.00 27.26 LIG 0.21  HD
ENDBRANCH 27 28
ENDBRANCH 9 27
ENDBRANCH 7 9
ENDBRANCH 1 5
BRANCH 1 30
ATOM     30  N   VAL B   5      19.726 -21.898   3.791  1.00 22.92 LIG-0.35  N 
ATOM     31 H    VAL B   5      19.503 -22.113   2.988  1.00 22.92 LIG 0.16  HD
ATOM     32  C   GLN B   4      20.957 -21.549   4.128  1.00 24.29 LIG 0.24  C 
ATOM     33 O    GLN B   4      21.297 -21.199   5.241  1.00 26.90 LIG-0.27  OA
BRANCH 32 34
ATOM     34  CA  GLN B   4      21.978 -21.596   2.988  1.00 30.52 LIG 0.18  C 
BRANCH 34 35
ATOM     35  CB  GLN B   4      22.358 -20.161   2.626  1.00 36.61 LIG 0.04  C 
BRANCH 35 36
ATOM     36  CG  GLN B   4      23.829 -19.994   2.285  1.00 50.94 LIG 0.10  C 
BRANCH 36 37
ATOM     37  CD  GLN B   4      24.193 -18.520   2.130  1.00 60.90 LIG 0.21  C 
ATOM     38  NE2 GLN B   4      24.180 -17.775   3.234  1.00 82.36 LIG-0.37  N 
ATOM     39 21HE GLN B   4      23.967 -18.128   3.988  1.00 82.36 LIG 0.16  HD
ATOM     40 22HE GLN B   4      24.386 -16.940   3.192  1.00 82.36 LIG 0.16  HD
ATOM     41 OE1  GLN B   4      24.489 -18.067   1.027  1.00 55.22 LIG-0.27  OA
ENDBRANCH 36 37
ENDBRANCH 35 36
ENDBRANCH 34 35
BRANCH 34 42
ATOM     42  N   GLN B   4      21.425 -22.281   1.837  1.00 37.98 LIG-0.35  N 
ATOM     43  C   GLU B   3      21.422 -23.606   1.735  1.00 56.89 LIG 0.26  C 
ATOM     44 O    GLU B   3      21.944 -24.335   2.567  1.00 56.58 LIG-0.27  OA
ATOM     45 H    GLN B   4      21.104 -21.755   1.236  1.00 37.98 LIG 0.16  HD
BRANCH 43 46
ATOM     46  CA  GLU B   3      20.735 -24.190   0.502  1.00 80.09 LIG 0.40  C 
ATOM     47  N   GLU B   3      20.763 -25.645   0.539  1.00 75.44 LIG 0.61  N 
BRANCH 46 48
ATOM     48  CB  GLU B   3      19.293 -23.700   0.424  1.00107.85 LIG 0.06  C 
BRANCH 48 49
ATOM     49  CG  GLU B   3      19.150 -22.325  -0.184  1.00114.95 LIG 0.12  C 
BRANCH 49 50
ATOM     50  CD  GLU B   3      18.626 -21.308   0.813  1.00 96.82 LIG 0.17  C 
ATOM     51 OE1  GLU B   3      17.462 -21.447   1.257  1.00 91.15 LIG-0.65  OA
ATOM     52 OE2  GLU B   3      19.384 -20.374   1.164  1.00 91.13 LIG-0.65  OA
ENDBRANCH 49 50
ENDBRANCH 48 49
ENDBRANCH 46 48
ENDBRANCH 43 46
ENDBRANCH 34 42
ENDBRANCH 32 34
ENDBRANCH 1 30
TORSDOF 21
ENDMDL
MODEL 65
USER: ADFR SOLUTION from run 19
USER: SCORE 15.326470 LL:  -4.402 LR: -12.851 RR:   0.000 FEB:  -6.587
USER: RMSD 11.267927
USER: SEED 18
USER: STATUS no improvement in best in 20 clusters for 5 generations
USER: GENES 23
USER: genes 0 Translation |==|  0.68624 0.54196 0.49490
USER: genes 1 Rotation |==|  0.74312 0.39084 0.91049 0.60235
USER: genes 2 Torsion [C]-CA--CB-[CG2] |==|  0.56898
USER: genes 3 Torsion [N]-CA--C-[N] |==|  0.72222
USER: genes 4 Torsion [C]-N--CA-[CB] |==|  0.54567
USER: genes 5 Torsion [N]-CA--C-[N] |==|  0.38346
USER: genes 6 Torsion [C]-N--CA-[CB] |==|  0.17267
USER: genes 7 Torsion [N]-CA--C-[N] |==|  0.08566
USER: genes 8 Torsion [C]-N--CA-[CB] |==|  0.85789
USER: genes 9 Torsion [N]-CA--C-[O] |==|  0.30224
USER: genes 10 Torsion [N]-CA--CB-[CG2] |==|  0.82858
USER: genes 11 Torsion [N]-CA--CB-[OG] |==|  0.58342
USER: genes 12 Torsion [CA]-CB--OG-[HG] |==|  0.98151
USER: genes 13 Torsion [CB]-CA--N-[C] |==|  0.83537
USER: genes 14 Torsion [N]-C--CA-[N] |==|  0.44984
USER: genes 15 Torsion [C]-CA--CB-[CG] |==|  0.27237
USER: genes 16 Torsion [CA]-CB--CG-[CD] |==|  0.66355
USER: genes 17 Torsion [CB]-CG--CD-[OE1] |==|  0.79456
USER: genes 18 Torsion [C]-CA--N-[C] |==|  0.79537
USER: genes 19 Torsion [N]-C--CA-[N] |==|  0.28600
USER: genes 20 Torsion [C]-CA--CB-[CG] |==|  0.13575
USER: genes 21 Torsion [CA]-CB--CG-[CD] |==|  0.18167
USER: genes 22 Torsion [CB]-CG--CD-[OE1] |==|  0.40287
ROOT
ATOM      1  CA  VAL B   5      17.780 -22.223   4.268  1.00 23.44 LIG 0.18  C 
ENDROOT
BRANCH 1 2
ATOM      2  CB  VAL B   5      18.234 -20.764   4.202  1.00 27.20 LIG 0.01  C 
ATOM      3  CG2 VAL B   5      19.574 -20.637   3.541  1.00 32.91 LIG 0.01  C 
ATOM      4  CG1 VAL B   5      18.240 -20.122   5.572  1.00 27.01 LIG 0.01  C 
ENDBRANCH 1 2
BRANCH 1 5
ATOM      5  C   VAL B   5      16.259 -22.289   4.350  1.00 21.98 LIG 0.24  C 
ATOM      6 O    VAL B   5      15.715 -23.322   4.731  1.00 26.26 LIG-0.27  OA
ATOM      7  N   SER B   6      15.565 -21.223   3.945  1.00 19.41 LIG-0.34  N 
ATOM      8 H    SER B   6      15.937 -20.521   3.617  1.00 19.41 LIG 0.16  HD
BRANCH 7 9
ATOM      9  CA  SER B   6      14.124 -21.135   4.013  1.00 20.84 LIG 0.20  C 
BRANCH 9 10
ATOM     10  C   SER B   6      13.443 -22.415   3.579  1.00 18.76 LIG 0.24  C 
ATOM     11 O    SER B   6      13.766 -23.006   2.565  1.00 19.89 LIG-0.27  OA
ATOM     12  N   ALA B   7      12.423 -22.776   4.322  1.00 19.53 LIG-0.35  N 
ATOM     13 H    ALA B   7      12.185 -22.337   5.022  1.00 19.53 LIG 0.16  HD
BRANCH 12 14
ATOM     14  CA  ALA B   7      11.583 -23.938   4.065  1.00 19.70 LIG 0.17  C 
ATOM     15  CB  ALA B   7      12.438 -25.215   4.145  1.00 20.39 LIG 0.04  C 
BRANCH 14 16
ATOM     16  C   ALA B   7      10.462 -24.071   5.081  1.00 16.34 LIG 0.24  C 
ATOM     17  N   VAL B   8       9.974 -22.966   5.611  1.00 16.85 LIG-0.34  N 
ATOM     18 H    VAL B   8      10.299 -22.182   5.479  1.00 16.85 LIG 0.16  HD
ATOM     19 O    ALA B   7      10.008 -25.169   5.334  1.00 20.16 LIG-0.27  OA
BRANCH 17 20
ATOM     20  CA  VAL B   8       8.800 -23.002   6.495  1.00 17.28 LIG 0.19  C 
BRANCH 20 21
ATOM     21  C   VAL B   8       9.214 -23.605   7.832  1.00 17.19 LIG 0.20  C 
ATOM     22 O    VAL B   8       9.290 -22.874   8.846  1.00 24.30 LIG-0.65  OA
ATOM     23 OXT  VAL B   8       9.522 -24.815   7.932  1.00 16.53 LIG-0.65  OA
ENDBRANCH 20 21
BRANCH 20 24
ATOM     24  CB  VAL B   8       7.604 -23.785   5.869  1.00 17.38 LIG 0.01  C 
ATOM     25  CG2 VAL B   8       7.161 -23.093   4.584  1.00 18.61 LIG 0.01  C 
ATOM     26  CG1 VAL B   8       6.488 -23.943   6.867  1.00 19.61 LIG 0.01  C 
ENDBRANCH 20 24
ENDBRANCH 17 20
ENDBRANCH 14 16
ENDBRANCH 12 14
ENDBRANCH 9 10
BRANCH 9 27
ATOM     27  CB  SER B   6      13.613 -20.006   3.128  1.00 25.59 LIG 0.20  C 
BRANCH 27 28
ATOM     28 OG   SER B   6      12.422 -19.464   3.657  1.00 27.26 LIG-0.40  OA
ATOM     29 HG   SER B   6      12.170 -19.926   4.311  1.00 27.26 LIG 0.21  HD
ENDBRANCH 27 28
ENDBRANCH 9 27
ENDBRANCH 7 9
ENDBRANCH 1 5
BRANCH 1 30
ATOM     30  N   VAL B   5      18.172 -22.936   3.074  1.00 22.92 LIG-0.35  N 
ATOM     31 H    VAL B   5      18.683 -23.610   3.231  1.00 22.92 LIG 0.16  HD
ATOM     32  C   GLN B   4      17.788 -22.591   1.855  1.00 24.29 LIG 0.24  C 
ATOM     33 O    GLN B   4      17.034 -21.672   1.601  1.00 26.90 LIG-0.27  OA
BRANCH 32 34
ATOM     34  CA  GLN B   4      18.356 -23.457   0.729  1.00 30.52 LIG 0.18  C 
BRANCH 34 35
ATOM     35  CB  GLN B   4      19.808 -23.045   0.492  1.00 36.61 LIG 0.04  C 
BRANCH 35 36
ATOM     36  CG  GLN B   4      20.813 -23.950   1.185  1.00 50.94 LIG 0.10  C 
BRANCH 36 37
ATOM     37  CD  GLN B   4      21.686 -23.158   2.155  1.00 60.90 LIG 0.21  C 
ATOM     38  NE2 GLN B   4      21.447 -23.322   3.455  1.00 82.36 LIG-0.37  N 
ATOM     39 21HE GLN B   4      20.820 -23.849   3.714  1.00 82.36 LIG 0.16  HD
ATOM     40 22HE GLN B   4      21.921 -22.899   4.036  1.00 82.36 LIG 0.16  HD
ATOM     41 OE1  GLN B   4      22.569 -22.417   1.731  1.00 55.22 LIG-0.27  OA
ENDBRANCH 36 37
ENDBRANCH 35 36
ENDBRANCH 34 35
BRANCH 34 42
ATOM     42  N   GLN B   4      17.577 -23.293  -0.483  1.00 37.98 LIG-0.35  N 
ATOM     43  C   GLU B   3      16.366 -23.821  -0.624  1.00 56.89 LIG 0.26  C 
ATOM     44 O    GLU B   3      15.853 -24.536   0.226  1.00 56.58 LIG-0.27  OA
ATOM     45 H    GLN B   4      17.969 -22.828  -1.092  1.00 37.98 LIG 0.16  HD
BRANCH 43 46
ATOM     46  CA  GLU B   3      15.632 -23.498  -1.924  1.00 80.09 LIG 0.40  C 
ATOM     47  N   GLU B   3      15.681 -24.632  -2.837  1.00 75.44 LIG 0.61  N 
BRANCH 46 48
ATOM     48  CB  GLU B   3      14.181 -23.130  -1.630  1.00107.85 LIG 0.06  C 
BRANCH 48 49
ATOM     49  CG  GLU B   3      14.025 -22.108  -0.530  1.00114.95 LIG 0.12  C 
BRANCH 49 50
ATOM     50  CD  GLU B   3      14.608 -20.761  -0.911  1.00 96.82 LIG 0.17  C 
ATOM     51 OE1  GLU B   3      14.041 -19.721  -0.501  1.00 91.15 LIG-0.65  OA
ATOM     52 OE2  GLU B   3      15.647 -20.740  -1.613  1.00 91.13 LIG-0.65  OA
ENDBRANCH 49 50
ENDBRANCH 48 49
ENDBRANCH 46 48
ENDBRANCH 43 46
ENDBRANCH 34 42
ENDBRANCH 32 34
ENDBRANCH 1 30
TORSDOF 21
ENDMDL
MODEL 66
USER: ADFR SOLUTION from run 166
USER: SCORE 15.403446 LL:  -4.582 LR: -12.841 RR:   0.000 FEB:  -6.577
USER: RMSD 12.650446
USER: SEED 165
USER: STATUS no improvement in best in 9 clusters for 5 generations
USER: GENES 23
USER: genes 0 Translation |==|  0.56807 0.60854 0.44968
USER: genes 1 Rotation |==|  0.32735 0.47220 0.03291 0.53524
USER: genes 2 Torsion [C]-CA--CB-[CG2] |==|  0.22690
USER: genes 3 Torsion [N]-CA--C-[N] |==|  0.48874
USER: genes 4 Torsion [C]-N--CA-[CB] |==|  0.22079
USER: genes 5 Torsion [N]-CA--C-[N] |==|  0.02751
USER: genes 6 Torsion [C]-N--CA-[CB] |==|  0.16958
USER: genes 7 Torsion [N]-CA--C-[N] |==|  0.58136
USER: genes 8 Torsion [C]-N--CA-[CB] |==|  0.30975
USER: genes 9 Torsion [N]-CA--C-[O] |==|  0.46757
USER: genes 10 Torsion [N]-CA--CB-[CG2] |==|  0.59040
USER: genes 11 Torsion [N]-CA--CB-[OG] |==|  0.84176
USER: genes 12 Torsion [CA]-CB--OG-[HG] |==|  0.22691
USER: genes 13 Torsion [CB]-CA--N-[C] |==|  0.48008
USER: genes 14 Torsion [N]-C--CA-[N] |==|  0.35278
USER: genes 15 Torsion [C]-CA--CB-[CG] |==|  0.61895
USER: genes 16 Torsion [CA]-CB--CG-[CD] |==|  0.82579
USER: genes 17 Torsion [CB]-CG--CD-[OE1] |==|  0.90106
USER: genes 18 Torsion [C]-CA--N-[C] |==|  0.76111
USER: genes 19 Torsion [N]-C--CA-[N] |==|  0.13607
USER: genes 20 Torsion [C]-CA--CB-[CG] |==|  0.84308
USER: genes 21 Torsion [CA]-CB--CG-[CD] |==|  0.78966
USER: genes 22 Torsion [CB]-CG--CD-[OE1] |==|  0.22644
ROOT
ATOM      1  CA  VAL B   5      14.235 -21.075   3.488  1.00 23.44 LIG 0.18  C 
ENDROOT
BRANCH 1 2
ATOM      2  CB  VAL B   5      13.719 -19.734   2.964  1.00 27.20 LIG 0.01  C 
ATOM      3  CG2 VAL B   5      12.811 -19.071   3.957  1.00 32.91 LIG 0.01  C 
ATOM      4  CG1 VAL B   5      13.038 -19.886   1.621  1.00 27.01 LIG 0.01  C 
ENDBRANCH 1 2
BRANCH 1 5
ATOM      5  C   VAL B   5      13.187 -22.158   3.259  1.00 21.98 LIG 0.24  C 
ATOM      6 O    VAL B   5      13.418 -23.069   2.469  1.00 26.26 LIG-0.27  OA
ATOM      7  N   SER B   6      12.019 -22.041   3.894  1.00 19.41 LIG-0.34  N 
ATOM      8 H    SER B   6      11.827 -21.372   4.398  1.00 19.41 LIG 0.16  HD
BRANCH 7 9
ATOM      9  CA  SER B   6      10.958 -23.019   3.803  1.00 20.84 LIG 0.20  C 
BRANCH 9 10
ATOM     10  C   SER B   6       9.609 -22.448   4.184  1.00 18.76 LIG 0.24  C 
ATOM     11 O    SER B   6       8.611 -23.142   4.256  1.00 19.89 LIG-0.27  OA
ATOM     12  N   ALA B   7       9.583 -21.145   4.330  1.00 19.53 LIG-0.35  N 
ATOM     13 H    ALA B   7      10.288 -20.658   4.250  1.00 19.53 LIG 0.16  HD
BRANCH 12 14
ATOM     14  CA  ALA B   7       8.388 -20.370   4.638  1.00 19.70 LIG 0.17  C 
ATOM     15  CB  ALA B   7       7.821 -20.823   5.995  1.00 20.39 LIG 0.04  C 
BRANCH 14 16
ATOM     16  C   ALA B   7       8.678 -18.883   4.735  1.00 16.34 LIG 0.24  C 
ATOM     17  N   VAL B   8       7.923 -18.156   5.537  1.00 16.85 LIG-0.34  N 
ATOM     18 H    VAL B   8       7.230 -18.454   5.949  1.00 16.85 LIG 0.16  HD
ATOM     19 O    ALA B   7       9.620 -18.413   4.128  1.00 20.16 LIG-0.27  OA
BRANCH 17 20
ATOM     20  CA  VAL B   8       8.226 -16.741   5.791  1.00 17.28 LIG 0.19  C 
BRANCH 20 21
ATOM     21  C   VAL B   8       8.350 -16.530   7.295  1.00 17.19 LIG 0.20  C 
ATOM     22 O    VAL B   8       8.818 -15.455   7.734  1.00 24.30 LIG-0.65  OA
ATOM     23 OXT  VAL B   8       8.031 -17.429   8.106  1.00 16.53 LIG-0.65  OA
ENDBRANCH 20 21
BRANCH 20 24
ATOM     24  CB  VAL B   8       7.161 -15.782   5.173  1.00 17.38 LIG 0.01  C 
ATOM     25  CG2 VAL B   8       7.836 -14.485   4.741  1.00 18.61 LIG 0.01  C 
ATOM     26  CG1 VAL B   8       6.022 -15.560   6.131  1.00 19.61 LIG 0.01  C 
ENDBRANCH 20 24
ENDBRANCH 17 20
ENDBRANCH 14 16
ENDBRANCH 12 14
ENDBRANCH 9 10
BRANCH 9 27
ATOM     27  CB  SER B   6      11.242 -24.206   4.714  1.00 25.59 LIG 0.20  C 
BRANCH 27 28
ATOM     28 OG   SER B   6      12.487 -24.787   4.393  1.00 27.26 LIG-0.40  OA
ATOM     29 HG   SER B   6      13.104 -24.348   4.757  1.00 27.26 LIG 0.21  HD
ENDBRANCH 27 28
ENDBRANCH 9 27
ENDBRANCH 7 9
ENDBRANCH 1 5
BRANCH 1 30
ATOM     30  N   VAL B   5      15.426 -21.478   2.777  1.00 22.92 LIG-0.35  N 
ATOM     31 H    VAL B   5      15.614 -20.969   2.109  1.00 22.92 LIG 0.16  HD
ATOM     32  C   GLN B   4      16.161 -22.526   3.113  1.00 24.29 LIG 0.24  C 
ATOM     33 O    GLN B   4      15.949 -23.240   4.073  1.00 26.90 LIG-0.27  OA
BRANCH 32 34
ATOM     34  CA  GLN B   4      17.356 -22.799   2.196  1.00 30.52 LIG 0.18  C 
BRANCH 34 35
ATOM     35  CB  GLN B   4      17.092 -24.099   1.438  1.00 36.61 LIG 0.04  C 
BRANCH 35 36
ATOM     36  CG  GLN B   4      18.307 -25.008   1.355  1.00 50.94 LIG 0.10  C 
BRANCH 36 37
ATOM     37  CD  GLN B   4      19.439 -24.339   0.582  1.00 60.90 LIG 0.21  C 
ATOM     38  NE2 GLN B   4      20.682 -24.593   0.989  1.00 82.36 LIG-0.37  N 
ATOM     39 21HE GLN B   4      20.816 -25.108   1.664  1.00 82.36 LIG 0.16  HD
ATOM     40 22HE GLN B   4      21.350 -24.241   0.576  1.00 82.36 LIG 0.16  HD
ATOM     41 OE1  GLN B   4      19.191 -23.611  -0.376  1.00 55.22 LIG-0.27  OA
ENDBRANCH 36 37
ENDBRANCH 35 36
ENDBRANCH 34 35
BRANCH 34 42
ATOM     42  N   GLN B   4      18.578 -22.901   2.969  1.00 37.98 LIG-0.35  N 
ATOM     43  C   GLU B   3      19.299 -21.834   3.299  1.00 56.89 LIG 0.26  C 
ATOM     44 O    GLU B   3      19.022 -20.705   2.917  1.00 56.58 LIG-0.27  OA
ATOM     45 H    GLN B   4      18.788 -23.706   3.190  1.00 37.98 LIG 0.16  HD
BRANCH 43 46
ATOM     46  CA  GLU B   3      20.519 -22.086   4.182  1.00 80.09 LIG 0.40  C 
ATOM     47  N   GLU B   3      21.323 -23.178   3.649  1.00 75.44 LIG 0.61  N 
BRANCH 46 48
ATOM     48  CB  GLU B   3      21.364 -20.820   4.282  1.00107.85 LIG 0.06  C 
BRANCH 48 49
ATOM     49  CG  GLU B   3      21.808 -20.279   2.944  1.00114.95 LIG 0.12  C 
BRANCH 49 50
ATOM     50  CD  GLU B   3      22.940 -21.090   2.343  1.00 96.82 LIG 0.17  C 
ATOM     51 OE1  GLU B   3      22.663 -22.151   1.734  1.00 91.15 LIG-0.65  OA
ATOM     52 OE2  GLU B   3      24.111 -20.660   2.468  1.00 91.13 LIG-0.65  OA
ENDBRANCH 49 50
ENDBRANCH 48 49
ENDBRANCH 46 48
ENDBRANCH 43 46
ENDBRANCH 34 42
ENDBRANCH 32 34
ENDBRANCH 1 30
TORSDOF 21
ENDMDL
MODEL 67
USER: ADFR SOLUTION from run 57
USER: SCORE 15.446594 LL:  -5.190 LR: -12.844 RR:   0.000 FEB:  -6.580
USER: RMSD 3.568854
USER: SEED 56
USER: STATUS no improvement in best in 6 clusters for 5 generations
USER: GENES 23
USER: genes 0 Translation |==|  0.46264 0.43151 0.57112
USER: genes 1 Rotation |==|  0.48406 0.52154 0.49717 0.99927
USER: genes 2 Torsion [C]-CA--CB-[CG2] |==|  0.14989
USER: genes 3 Torsion [N]-CA--C-[N] |==|  0.43160
USER: genes 4 Torsion [C]-N--CA-[CB] |==|  0.20060
USER: genes 5 Torsion [N]-CA--C-[N] |==|  0.38077
USER: genes 6 Torsion [C]-N--CA-[CB] |==|  0.50000
USER: genes 7 Torsion [N]-CA--C-[N] |==|  0.39652
USER: genes 8 Torsion [C]-N--CA-[CB] |==|  0.24637
USER: genes 9 Torsion [N]-CA--C-[O] |==|  0.44813
USER: genes 10 Torsion [N]-CA--CB-[CG2] |==|  0.10052
USER: genes 11 Torsion [N]-CA--CB-[OG] |==|  0.82410
USER: genes 12 Torsion [CA]-CB--OG-[HG] |==|  0.22740
USER: genes 13 Torsion [CB]-CA--N-[C] |==|  0.27097
USER: genes 14 Torsion [N]-C--CA-[N] |==|  0.98028
USER: genes 15 Torsion [C]-CA--CB-[CG] |==|  0.35214
USER: genes 16 Torsion [CA]-CB--CG-[CD] |==|  0.60638
USER: genes 17 Torsion [CB]-CG--CD-[OE1] |==|  0.09150
USER: genes 18 Torsion [C]-CA--N-[C] |==|  0.75139
USER: genes 19 Torsion [N]-C--CA-[N] |==|  0.75036
USER: genes 20 Torsion [C]-CA--CB-[CG] |==|  0.68680
USER: genes 21 Torsion [CA]-CB--CG-[CD] |==|  0.17770
USER: genes 22 Torsion [CB]-CG--CD-[OE1] |==|  0.68370
ROOT
ATOM      1  CA  VAL B   5      11.072 -24.128   5.583  1.00 23.44 LIG 0.18  C 
ENDROOT
BRANCH 1 2
ATOM      2  CB  VAL B   5      10.936 -25.593   5.165  1.00 27.20 LIG 0.01  C 
ATOM      3  CG2 VAL B   5      12.254 -26.164   4.732  1.00 32.91 LIG 0.01  C 
ATOM      4  CG1 VAL B   5       9.887 -25.769   4.089  1.00 27.01 LIG 0.01  C 
ENDBRANCH 1 2
BRANCH 1 5
ATOM      5  C   VAL B   5      11.729 -23.329   4.463  1.00 21.98 LIG 0.24  C 
ATOM      6 O    VAL B   5      11.028 -22.758   3.632  1.00 26.26 LIG-0.27  OA
ATOM      7  N   SER B   6      13.062 -23.328   4.396  1.00 19.41 LIG-0.34  N 
ATOM      8 H    SER B   6      13.557 -23.778   4.935  1.00 19.41 LIG 0.16  HD
BRANCH 7 9
ATOM      9  CA  SER B   6      13.813 -22.576   3.415  1.00 20.84 LIG 0.20  C 
BRANCH 9 10
ATOM     10  C   SER B   6      15.267 -22.992   3.353  1.00 18.76 LIG 0.24  C 
ATOM     11 O    SER B   6      15.945 -23.118   4.356  1.00 19.89 LIG-0.27  OA
ATOM     12  N   ALA B   7      15.756 -23.107   2.141  1.00 19.53 LIG-0.35  N 
ATOM     13 H    ALA B   7      15.276 -22.989   1.438  1.00 19.53 LIG 0.16  HD
BRANCH 12 14
ATOM     14  CA  ALA B   7      17.142 -23.439   1.836  1.00 19.70 LIG 0.17  C 
ATOM     15  CB  ALA B   7      17.333 -23.481   0.310  1.00 20.39 LIG 0.04  C 
BRANCH 14 16
ATOM     16  C   ALA B   7      18.113 -22.414   2.393  1.00 16.34 LIG 0.24  C 
ATOM     17  N   VAL B   8      19.264 -22.849   2.872  1.00 16.85 LIG-0.34  N 
ATOM     18 H    VAL B   8      19.467 -23.679   2.962  1.00 16.85 LIG 0.16  HD
ATOM     19 O    ALA B   7      17.840 -21.233   2.333  1.00 20.16 LIG-0.27  OA
BRANCH 17 20
ATOM     20  CA  VAL B   8      20.311 -21.912   3.301  1.00 17.28 LIG 0.19  C 
BRANCH 20 21
ATOM     21  C   VAL B   8      21.672 -22.545   3.035  1.00 17.19 LIG 0.20  C 
ATOM     22 O    VAL B   8      22.693 -21.822   2.986  1.00 24.30 LIG-0.65  OA
ATOM     23 OXT  VAL B   8      21.786 -23.773   2.819  1.00 16.53 LIG-0.65  OA
ENDBRANCH 20 21
BRANCH 20 24
ATOM     24  CB  VAL B   8      20.166 -21.498   4.799  1.00 17.38 LIG 0.01  C 
ATOM     25  CG2 VAL B   8      19.670 -22.691   5.610  1.00 18.61 LIG 0.01  C 
ATOM     26  CG1 VAL B   8      19.282 -20.287   4.936  1.00 19.61 LIG 0.01  C 
ENDBRANCH 20 24
ENDBRANCH 17 20
ENDBRANCH 14 16
ENDBRANCH 12 14
ENDBRANCH 9 10
BRANCH 9 27
ATOM     27  CB  SER B   6      13.762 -21.086   3.726  1.00 25.59 LIG 0.20  C 
BRANCH 27 28
ATOM     28 OG   SER B   6      12.437 -20.609   3.640  1.00 27.26 LIG-0.40  OA
ATOM     29 HG   SER B   6      12.030 -20.780   4.355  1.00 27.26 LIG 0.21  HD
ENDBRANCH 27 28
ENDBRANCH 9 27
ENDBRANCH 7 9
ENDBRANCH 1 5
BRANCH 1 30
ATOM     30  N   VAL B   5       9.774 -23.541   5.819  1.00 22.92 LIG-0.35  N 
ATOM     31 H    VAL B   5       9.383 -23.274   5.101  1.00 22.92 LIG 0.16  HD
ATOM     32  C   GLN B   4       9.232 -23.421   7.021  1.00 24.29 LIG 0.24  C 
ATOM     33 O    GLN B   4       9.735 -23.824   8.051  1.00 26.90 LIG-0.27  OA
BRANCH 32 34
ATOM     34  CA  GLN B   4       7.867 -22.729   7.049  1.00 30.52 LIG 0.18  C 
BRANCH 34 35
ATOM     35  CB  GLN B   4       6.821 -23.749   7.493  1.00 36.61 LIG 0.04  C 
BRANCH 35 36
ATOM     36  CG  GLN B   4       5.981 -23.280   8.669  1.00 50.94 LIG 0.10  C 
BRANCH 36 37
ATOM     37  CD  GLN B   4       5.695 -24.429   9.632  1.00 60.90 LIG 0.21  C 
ATOM     38  NE2 GLN B   4       4.522 -24.413  10.262  1.00 82.36 LIG-0.37  N 
ATOM     39 21HE GLN B   4       3.969 -23.770  10.124  1.00 82.36 LIG 0.16  HD
ATOM     40 22HE GLN B   4       4.318 -25.045  10.809  1.00 82.36 LIG 0.16  HD
ATOM     41 OE1  GLN B   4       6.522 -25.323   9.794  1.00 55.22 LIG-0.27  OA
ENDBRANCH 36 37
ENDBRANCH 35 36
ENDBRANCH 34 35
BRANCH 34 42
ATOM     42  N   GLN B   4       7.537 -22.200   5.740  1.00 37.98 LIG-0.35  N 
ATOM     43  C   GLU B   3       7.883 -20.973   5.364  1.00 56.89 LIG 0.26  C 
ATOM     44 O    GLU B   3       8.440 -20.183   6.113  1.00 56.58 LIG-0.27  OA
ATOM     45 H    GLN B   4       7.103 -22.748   5.239  1.00 37.98 LIG 0.16  HD
BRANCH 43 46
ATOM     46  CA  GLU B   3       7.537 -20.581   3.929  1.00 80.09 LIG 0.40  C 
ATOM     47  N   GLU B   3       8.628 -20.921   3.025  1.00 75.44 LIG 0.61  N 
BRANCH 46 48
ATOM     48  CB  GLU B   3       6.258 -21.284   3.487  1.00107.85 LIG 0.06  C 
BRANCH 48 49
ATOM     49  CG  GLU B   3       6.473 -22.308   2.398  1.00114.95 LIG 0.12  C 
BRANCH 49 50
ATOM     50  CD  GLU B   3       7.345 -23.461   2.858  1.00 96.82 LIG 0.17  C 
ATOM     51 OE1  GLU B   3       8.473 -23.609   2.332  1.00 91.15 LIG-0.65  OA
ATOM     52 OE2  GLU B   3       6.906 -24.215   3.758  1.00 91.13 LIG-0.65  OA
ENDBRANCH 49 50
ENDBRANCH 48 49
ENDBRANCH 46 48
ENDBRANCH 43 46
ENDBRANCH 34 42
ENDBRANCH 32 34
ENDBRANCH 1 30
TORSDOF 21
ENDMDL
MODEL 68
USER: ADFR SOLUTION from run 155
USER: SCORE 15.552195 LL:  -4.088 LR: -12.826 RR:   0.000 FEB:  -6.562
USER: RMSD 13.135359
USER: SEED 154
USER: STATUS searching
USER: GENES 23
USER: genes 0 Translation |==|  0.70189 0.52296 0.47401
USER: genes 1 Rotation |==|  0.64344 0.21603 0.88508 0.52230
USER: genes 2 Torsion [C]-CA--CB-[CG2] |==|  0.38905
USER: genes 3 Torsion [N]-CA--C-[N] |==|  0.33061
USER: genes 4 Torsion [C]-N--CA-[CB] |==|  0.14799
USER: genes 5 Torsion [N]-CA--C-[N] |==|  0.10482
USER: genes 6 Torsion [C]-N--CA-[CB] |==|  0.78105
USER: genes 7 Torsion [N]-CA--C-[N] |==|  0.09735
USER: genes 8 Torsion [C]-N--CA-[CB] |==|  0.39102
USER: genes 9 Torsion [N]-CA--C-[O] |==|  0.15018
USER: genes 10 Torsion [N]-CA--CB-[CG2] |==|  0.12047
USER: genes 11 Torsion [N]-CA--CB-[OG] |==|  0.08479
USER: genes 12 Torsion [CA]-CB--OG-[HG] |==|  0.58525
USER: genes 13 Torsion [CB]-CA--N-[C] |==|  0.86410
USER: genes 14 Torsion [N]-C--CA-[N] |==|  0.47707
USER: genes 15 Torsion [C]-CA--CB-[CG] |==|  0.92754
USER: genes 16 Torsion [CA]-CB--CG-[CD] |==|  0.72320
USER: genes 17 Torsion [CB]-CG--CD-[OE1] |==|  0.84302
USER: genes 18 Torsion [C]-CA--N-[C] |==|  0.51290
USER: genes 19 Torsion [N]-C--CA-[N] |==|  0.84745
USER: genes 20 Torsion [C]-CA--CB-[CG] |==|  0.01644
USER: genes 21 Torsion [CA]-CB--CG-[CD] |==|  0.44759
USER: genes 22 Torsion [CB]-CG--CD-[OE1] |==|  0.39863
ROOT
ATOM      1  CA  VAL B   5      18.250 -22.551   3.908  1.00 23.44 LIG 0.18  C 
ENDROOT
BRANCH 1 2
ATOM      2  CB  VAL B   5      18.678 -21.558   4.989  1.00 27.20 LIG 0.01  C 
ATOM      3  CG2 VAL B   5      19.322 -22.257   6.150  1.00 32.91 LIG 0.01  C 
ATOM      4  CG1 VAL B   5      17.520 -20.699   5.446  1.00 27.01 LIG 0.01  C 
ENDBRANCH 1 2
BRANCH 1 5
ATOM      5  C   VAL B   5      16.896 -22.142   3.337  1.00 21.98 LIG 0.24  C 
ATOM      6 O    VAL B   5      16.753 -21.022   2.856  1.00 26.26 LIG-0.27  OA
ATOM      7  N   SER B   6      15.889 -23.012   3.436  1.00 19.41 LIG-0.34  N 
ATOM      8 H    SER B   6      15.965 -23.773   3.829  1.00 19.41 LIG 0.16  HD
BRANCH 7 9
ATOM      9  CA  SER B   6      14.569 -22.771   2.896  1.00 20.84 LIG 0.20  C 
BRANCH 9 10
ATOM     10  C   SER B   6      13.661 -23.975   3.027  1.00 18.76 LIG 0.24  C 
ATOM     11 O    SER B   6      12.804 -24.230   2.200  1.00 19.89 LIG-0.27  OA
ATOM     12  N   ALA B   7      13.803 -24.655   4.140  1.00 19.53 LIG-0.35  N 
ATOM     13 H    ALA B   7      14.393 -24.451   4.732  1.00 19.53 LIG 0.16  HD
BRANCH 12 14
ATOM     14  CA  ALA B   7      13.002 -25.814   4.510  1.00 19.70 LIG 0.17  C 
ATOM     15  CB  ALA B   7      11.637 -25.343   5.042  1.00 20.39 LIG 0.04  C 
BRANCH 14 16
ATOM     16  C   ALA B   7      12.742 -26.732   3.329  1.00 16.34 LIG 0.24  C 
ATOM     17  N   VAL B   8      13.695 -26.863   2.425  1.00 16.85 LIG-0.34  N 
ATOM     18 H    VAL B   8      14.421 -26.403   2.420  1.00 16.85 LIG 0.16  HD
ATOM     19 O    ALA B   7      11.705 -27.361   3.273  1.00 20.16 LIG-0.27  OA
BRANCH 17 20
ATOM     20  CA  VAL B   8      13.575 -27.834   1.330  1.00 17.28 LIG 0.19  C 
BRANCH 20 21
ATOM     21  C   VAL B   8      14.300 -29.114   1.731  1.00 17.19 LIG 0.20  C 
ATOM     22 O    VAL B   8      14.008 -29.680   2.809  1.00 24.30 LIG-0.65  OA
ATOM     23 OXT  VAL B   8      15.215 -29.592   1.023  1.00 16.53 LIG-0.65  OA
ENDBRANCH 20 21
BRANCH 20 24
ATOM     24  CB  VAL B   8      14.120 -27.279  -0.024  1.00 17.38 LIG 0.01  C 
ATOM     25  CG2 VAL B   8      15.437 -26.550   0.220  1.00 18.61 LIG 0.01  C 
ATOM     26  CG1 VAL B   8      13.088 -26.418  -0.702  1.00 19.61 LIG 0.01  C 
ENDBRANCH 20 24
ENDBRANCH 17 20
ENDBRANCH 14 16
ENDBRANCH 12 14
ENDBRANCH 9 10
BRANCH 9 27
ATOM     27  CB  SER B   6      14.651 -22.400   1.422  1.00 25.59 LIG 0.20  C 
BRANCH 27 28
ATOM     28 OG   SER B   6      15.760 -23.025   0.816  1.00 27.26 LIG-0.40  OA
ATOM     29 HG   SER B   6      16.050 -22.541   0.194  1.00 27.26 LIG 0.21  HD
ENDBRANCH 27 28
ENDBRANCH 9 27
ENDBRANCH 7 9
ENDBRANCH 1 5
BRANCH 1 30
ATOM     30  N   VAL B   5      19.190 -22.551   2.811  1.00 22.92 LIG-0.35  N 
ATOM     31 H    VAL B   5      19.443 -23.340   2.578  1.00 22.92 LIG 0.16  HD
ATOM     32  C   GLN B   4      19.626 -21.451   2.219  1.00 24.29 LIG 0.24  C 
ATOM     33 O    GLN B   4      19.259 -20.325   2.494  1.00 26.90 LIG-0.27  OA
BRANCH 32 34
ATOM     34  CA  GLN B   4      20.654 -21.678   1.108  1.00 30.52 LIG 0.18  C 
BRANCH 34 35
ATOM     35  CB  GLN B   4      21.935 -22.217   1.742  1.00 36.61 LIG 0.04  C 
BRANCH 35 36
ATOM     36  CG  GLN B   4      22.108 -21.807   3.195  1.00 50.94 LIG 0.10  C 
BRANCH 36 37
ATOM     37  CD  GLN B   4      23.064 -20.625   3.321  1.00 60.90 LIG 0.21  C 
ATOM     38  NE2 GLN B   4      22.606 -19.540   3.945  1.00 82.36 LIG-0.37  N 
ATOM     39 21HE GLN B   4      21.802 -19.527   4.248  1.00 82.36 LIG 0.16  HD
ATOM     40 22HE GLN B   4      23.115 -18.854   4.044  1.00 82.36 LIG 0.16  HD
ATOM     41 OE1  GLN B   4      24.204 -20.697   2.868  1.00 55.22 LIG-0.27  OA
ENDBRANCH 36 37
ENDBRANCH 35 36
ENDBRANCH 34 35
BRANCH 34 42
ATOM     42  N   GLN B   4      20.919 -20.441   0.399  1.00 37.98 LIG-0.35  N 
ATOM     43  C   GLU B   3      21.709 -20.393  -0.669  1.00 56.89 LIG 0.26  C 
ATOM     44 O    GLU B   3      22.318 -21.368  -1.087  1.00 56.58 LIG-0.27  OA
ATOM     45 H    GLN B   4      20.524 -19.754   0.731  1.00 37.98 LIG 0.16  HD
BRANCH 43 46
ATOM     46  CA  GLU B   3      21.833 -19.036  -1.360  1.00 80.09 LIG 0.40  C 
ATOM     47  N   GLU B   3      20.520 -18.518  -1.718  1.00 75.44 LIG 0.61  N 
BRANCH 46 48
ATOM     48  CB  GLU B   3      22.550 -18.047  -0.446  1.00107.85 LIG 0.06  C 
BRANCH 48 49
ATOM     49  CG  GLU B   3      23.078 -18.668   0.825  1.00114.95 LIG 0.12  C 
BRANCH 49 50
ATOM     50  CD  GLU B   3      24.149 -17.815   1.478  1.00 96.82 LIG 0.17  C 
ATOM     51 OE1  GLU B   3      24.193 -17.759   2.730  1.00 91.15 LIG-0.65  OA
ATOM     52 OE2  GLU B   3      24.960 -17.210   0.739  1.00 91.13 LIG-0.65  OA
ENDBRANCH 49 50
ENDBRANCH 48 49
ENDBRANCH 46 48
ENDBRANCH 43 46
ENDBRANCH 34 42
ENDBRANCH 32 34
ENDBRANCH 1 30
TORSDOF 21
ENDMDL
MODEL 69
USER: ADFR SOLUTION from run 77
USER: SCORE 15.037846 LL:  -4.595 LR: -12.820 RR:   0.000 FEB:  -6.555
USER: RMSD 8.696405
USER: SEED 76
USER: STATUS no improvement in best in 11 clusters for 5 generations
USER: GENES 23
USER: genes 0 Translation |==|  0.70407 0.46265 0.36050
USER: genes 1 Rotation |==|  0.75917 0.38236 0.54278 0.90885
USER: genes 2 Torsion [C]-CA--CB-[CG2] |==|  0.37313
USER: genes 3 Torsion [N]-CA--C-[N] |==|  0.41438
USER: genes 4 Torsion [C]-N--CA-[CB] |==|  0.38467
USER: genes 5 Torsion [N]-CA--C-[N] |==|  0.42395
USER: genes 6 Torsion [C]-N--CA-[CB] |==|  0.89444
USER: genes 7 Torsion [N]-CA--C-[N] |==|  0.37210
USER: genes 8 Torsion [C]-N--CA-[CB] |==|  0.26395
USER: genes 9 Torsion [N]-CA--C-[O] |==|  0.03465
USER: genes 10 Torsion [N]-CA--CB-[CG2] |==|  0.59077
USER: genes 11 Torsion [N]-CA--CB-[OG] |==|  0.89312
USER: genes 12 Torsion [CA]-CB--OG-[HG] |==|  0.21909
USER: genes 13 Torsion [CB]-CA--N-[C] |==|  0.86576
USER: genes 14 Torsion [N]-C--CA-[N] |==|  0.91770
USER: genes 15 Torsion [C]-CA--CB-[CG] |==|  0.90382
USER: genes 16 Torsion [CA]-CB--CG-[CD] |==|  0.77162
USER: genes 17 Torsion [CB]-CG--CD-[OE1] |==|  0.30117
USER: genes 18 Torsion [C]-CA--N-[C] |==|  0.79860
USER: genes 19 Torsion [N]-C--CA-[N] |==|  0.61081
USER: genes 20 Torsion [C]-CA--CB-[CG] |==|  0.44836
USER: genes 21 Torsion [CA]-CB--CG-[CD] |==|  0.14168
USER: genes 22 Torsion [CB]-CG--CD-[OE1] |==|  0.78070
ROOT
ATOM      1  CA  VAL B   5      18.315 -23.591   1.950  1.00 23.44 LIG 0.18  C 
ENDROOT
BRANCH 1 2
ATOM      2  CB  VAL B   5      18.951 -23.765   0.570  1.00 27.20 LIG 0.01  C 
ATOM      3  CG2 VAL B   5      19.323 -25.195   0.313  1.00 32.91 LIG 0.01  C 
ATOM      4  CG1 VAL B   5      20.144 -22.852   0.389  1.00 27.01 LIG 0.01  C 
ENDBRANCH 1 2
BRANCH 1 5
ATOM      5  C   VAL B   5      18.924 -22.383   2.652  1.00 21.98 LIG 0.24  C 
ATOM      6 O    VAL B   5      18.451 -21.266   2.459  1.00 26.26 LIG-0.27  OA
ATOM      7  N   SER B   6      19.999 -22.582   3.418  1.00 19.41 LIG-0.34  N 
ATOM      8 H    SER B   6      20.374 -23.350   3.506  1.00 19.41 LIG 0.16  HD
BRANCH 7 9
ATOM      9  CA  SER B   6      20.646 -21.534   4.176  1.00 20.84 LIG 0.20  C 
BRANCH 9 10
ATOM     10  C   SER B   6      21.891 -21.009   3.494  1.00 18.76 LIG 0.24  C 
ATOM     11 O    SER B   6      22.600 -21.721   2.807  1.00 19.89 LIG-0.27  OA
ATOM     12  N   ALA B   7      22.194 -19.765   3.782  1.00 19.53 LIG-0.35  N 
ATOM     13 H    ALA B   7      21.701 -19.277   4.291  1.00 19.53 LIG 0.16  HD
BRANCH 12 14
ATOM     14  CA  ALA B   7      23.374 -19.066   3.290  1.00 19.70 LIG 0.17  C 
ATOM     15  CB  ALA B   7      24.568 -20.037   3.261  1.00 20.39 LIG 0.04  C 
BRANCH 14 16
ATOM     16  C   ALA B   7      23.180 -18.533   1.882  1.00 16.34 LIG 0.24  C 
ATOM     17  N   VAL B   8      23.555 -17.292   1.633  1.00 16.85 LIG-0.34  N 
ATOM     18 H    VAL B   8      23.830 -16.741   2.233  1.00 16.85 LIG 0.16  HD
ATOM     19 O    ALA B   7      22.747 -19.266   1.017  1.00 20.16 LIG-0.27  OA
BRANCH 17 20
ATOM     20  CA  VAL B   8      23.528 -16.750   0.268  1.00 17.28 LIG 0.19  C 
BRANCH 20 21
ATOM     21  C   VAL B   8      24.753 -15.863   0.071  1.00 17.19 LIG 0.20  C 
ATOM     22 O    VAL B   8      25.682 -15.893   0.910  1.00 24.30 LIG-0.65  OA
ATOM     23 OXT  VAL B   8      24.831 -15.069  -0.894  1.00 16.53 LIG-0.65  OA
ENDBRANCH 20 21
BRANCH 20 24
ATOM     24  CB  VAL B   8      22.212 -15.970  -0.039  1.00 17.38 LIG 0.01  C 
ATOM     25  CG2 VAL B   8      21.854 -16.138  -1.512  1.00 18.61 LIG 0.01  C 
ATOM     26  CG1 VAL B   8      22.337 -14.527   0.373  1.00 19.61 LIG 0.01  C 
ENDBRANCH 20 24
ENDBRANCH 17 20
ENDBRANCH 14 16
ENDBRANCH 12 14
ENDBRANCH 9 10
BRANCH 9 27
ATOM     27  CB  SER B   6      21.041 -22.036   5.558  1.00 25.59 LIG 0.20  C 
BRANCH 27 28
ATOM     28 OG   SER B   6      20.046 -22.892   6.075  1.00 27.26 LIG-0.40  OA
ATOM     29 HG   SER B   6      20.122 -23.653   5.727  1.00 27.26 LIG 0.21  HD
ENDBRANCH 27 28
ENDBRANCH 9 27
ENDBRANCH 7 9
ENDBRANCH 1 5
BRANCH 1 30
ATOM     30  N   VAL B   5      16.897 -23.345   1.832  1.00 22.92 LIG-0.35  N 
ATOM     31 H    VAL B   5      16.420 -23.837   2.352  1.00 22.92 LIG 0.16  HD
ATOM     32  C   GLN B   4      16.374 -22.451   1.007  1.00 24.29 LIG 0.24  C 
ATOM     33 O    GLN B   4      17.018 -21.711   0.291  1.00 26.90 LIG-0.27  OA
BRANCH 32 34
ATOM     34  CA  GLN B   4      14.845 -22.384   1.011  1.00 30.52 LIG 0.18  C 
BRANCH 34 35
ATOM     35  CB  GLN B   4      14.414 -21.336   2.035  1.00 36.61 LIG 0.04  C 
BRANCH 35 36
ATOM     36  CG  GLN B   4      15.320 -21.273   3.253  1.00 50.94 LIG 0.10  C 
BRANCH 36 37
ATOM     37  CD  GLN B   4      14.954 -22.354   4.266  1.00 60.90 LIG 0.21  C 
ATOM     38  NE2 GLN B   4      13.811 -22.197   4.932  1.00 82.36 LIG-0.37  N 
ATOM     39 21HE GLN B   4      13.321 -21.506   4.787  1.00 82.36 LIG 0.16  HD
ATOM     40 22HE GLN B   4      13.564 -22.787   5.507  1.00 82.36 LIG 0.16  HD
ATOM     41 OE1  GLN B   4      15.692 -23.322   4.435  1.00 55.22 LIG-0.27  OA
ENDBRANCH 36 37
ENDBRANCH 35 36
ENDBRANCH 34 35
BRANCH 34 42
ATOM     42  N   GLN B   4      14.279 -23.678   1.339  1.00 37.98 LIG-0.35  N 
ATOM     43  C   GLU B   3      14.299 -24.697   0.485  1.00 56.89 LIG 0.26  C 
ATOM     44 O    GLU B   3      14.732 -24.597  -0.655  1.00 56.58 LIG-0.27  OA
ATOM     45 H    GLN B   4      13.934 -23.721   2.125  1.00 37.98 LIG 0.16  HD
BRANCH 43 46
ATOM     46  CA  GLU B   3      13.736 -26.021   0.996  1.00 80.09 LIG 0.40  C 
ATOM     47  N   GLU B   3      14.549 -27.138   0.535  1.00 75.44 LIG 0.61  N 
BRANCH 46 48
ATOM     48  CB  GLU B   3      13.681 -26.014   2.520  1.00107.85 LIG 0.06  C 
BRANCH 48 49
ATOM     49  CG  GLU B   3      12.755 -27.056   3.100  1.00114.95 LIG 0.12  C 
BRANCH 49 50
ATOM     50  CD  GLU B   3      13.023 -28.439   2.538  1.00 96.82 LIG 0.17  C 
ATOM     51 OE1  GLU B   3      12.579 -28.723   1.401  1.00 91.15 LIG-0.65  OA
ATOM     52 OE2  GLU B   3      13.693 -29.242   3.230  1.00 91.13 LIG-0.65  OA
ENDBRANCH 49 50
ENDBRANCH 48 49
ENDBRANCH 46 48
ENDBRANCH 43 46
ENDBRANCH 34 42
ENDBRANCH 32 34
ENDBRANCH 1 30
TORSDOF 21
ENDMDL
MODEL 70
USER: ADFR SOLUTION from run 32
USER: SCORE 15.832411 LL:  -3.781 LR: -12.813 RR:   0.000 FEB:  -6.549
USER: RMSD 11.974623
USER: SEED 31
USER: STATUS no improvement in best in 4 clusters for 5 generations
USER: GENES 23
USER: genes 0 Translation |==|  0.71178 0.51801 0.50959
USER: genes 1 Rotation |==|  0.33769 0.70373 0.07405 0.52679
USER: genes 2 Torsion [C]-CA--CB-[CG2] |==|  0.93935
USER: genes 3 Torsion [N]-CA--C-[N] |==|  0.93146
USER: genes 4 Torsion [C]-N--CA-[CB] |==|  0.82535
USER: genes 5 Torsion [N]-CA--C-[N] |==|  0.46183
USER: genes 6 Torsion [C]-N--CA-[CB] |==|  0.86572
USER: genes 7 Torsion [N]-CA--C-[N] |==|  0.38851
USER: genes 8 Torsion [C]-N--CA-[CB] |==|  0.86839
USER: genes 9 Torsion [N]-CA--C-[O] |==|  0.97587
USER: genes 10 Torsion [N]-CA--CB-[CG2] |==|  0.68142
USER: genes 11 Torsion [N]-CA--CB-[OG] |==|  0.89480
USER: genes 12 Torsion [CA]-CB--OG-[HG] |==|  0.20438
USER: genes 13 Torsion [CB]-CA--N-[C] |==|  0.85420
USER: genes 14 Torsion [N]-C--CA-[N] |==|  0.19482
USER: genes 15 Torsion [C]-CA--CB-[CG] |==|  0.23942
USER: genes 16 Torsion [CA]-CB--CG-[CD] |==|  0.14527
USER: genes 17 Torsion [CB]-CG--CD-[OE1] |==|  0.79333
USER: genes 18 Torsion [C]-CA--N-[C] |==|  0.75595
USER: genes 19 Torsion [N]-C--CA-[N] |==|  0.38844
USER: genes 20 Torsion [C]-CA--CB-[CG] |==|  0.39823
USER: genes 21 Torsion [CA]-CB--CG-[CD] |==|  0.05190
USER: genes 22 Torsion [CB]-CG--CD-[OE1] |==|  0.66984
ROOT
ATOM      1  CA  VAL B   5      18.546 -22.636   4.521  1.00 23.44 LIG 0.18  C 
ENDROOT
BRANCH 1 2
ATOM      2  CB  VAL B   5      18.547 -21.314   5.290  1.00 27.20 LIG 0.01  C 
ATOM      3  CG2 VAL B   5      17.537 -20.356   4.732  1.00 32.91 LIG 0.01  C 
ATOM      4  CG1 VAL B   5      19.926 -20.693   5.326  1.00 27.01 LIG 0.01  C 
ENDBRANCH 1 2
BRANCH 1 5
ATOM      5  C   VAL B   5      17.215 -22.815   3.800  1.00 21.98 LIG 0.24  C 
ATOM      6 O    VAL B   5      16.271 -23.337   4.387  1.00 26.26 LIG-0.27  OA
ATOM      7  N   SER B   6      17.144 -22.443   2.520  1.00 19.41 LIG-0.34  N 
ATOM      8 H    SER B   6      17.819 -22.137   2.084  1.00 19.41 LIG 0.16  HD
BRANCH 7 9
ATOM      9  CA  SER B   6      15.933 -22.515   1.733  1.00 20.84 LIG 0.20  C 
BRANCH 9 10
ATOM     10  C   SER B   6      14.801 -21.712   2.337  1.00 18.76 LIG 0.24  C 
ATOM     11 O    SER B   6      14.805 -21.366   3.504  1.00 19.89 LIG-0.27  OA
ATOM     12  N   ALA B   7      13.781 -21.509   1.536  1.00 19.53 LIG-0.35  N 
ATOM     13 H    ALA B   7      13.775 -21.782   0.720  1.00 19.53 LIG 0.16  HD
BRANCH 12 14
ATOM     14  CA  ALA B   7      12.557 -20.815   1.915  1.00 19.70 LIG 0.17  C 
ATOM     15  CB  ALA B   7      12.044 -21.377   3.252  1.00 20.39 LIG 0.04  C 
BRANCH 14 16
ATOM     16  C   ALA B   7      12.777 -19.324   2.096  1.00 16.34 LIG 0.24  C 
ATOM     17  N   VAL B   8      11.845 -18.502   1.652  1.00 16.85 LIG-0.34  N 
ATOM     18 H    VAL B   8      11.159 -18.751   1.197  1.00 16.85 LIG 0.16  HD
ATOM     19 O    ALA B   7      13.760 -18.929   2.690  1.00 20.16 LIG-0.27  OA
BRANCH 17 20
ATOM     20  CA  VAL B   8      11.918 -17.058   1.911  1.00 17.28 LIG 0.19  C 
BRANCH 20 21
ATOM     21  C   VAL B   8      12.960 -16.447   0.982  1.00 17.19 LIG 0.20  C 
ATOM     22 O    VAL B   8      13.693 -17.194   0.295  1.00 24.30 LIG-0.65  OA
ATOM     23 OXT  VAL B   8      13.130 -15.208   0.922  1.00 16.53 LIG-0.65  OA
ENDBRANCH 20 21
BRANCH 20 24
ATOM     24  CB  VAL B   8      12.235 -16.735   3.405  1.00 17.38 LIG 0.01  C 
ATOM     25  CG2 VAL B   8      11.041 -16.026   4.036  1.00 18.61 LIG 0.01  C 
ATOM     26  CG1 VAL B   8      13.514 -15.949   3.521  1.00 19.61 LIG 0.01  C 
ENDBRANCH 20 24
ENDBRANCH 17 20
ENDBRANCH 14 16
ENDBRANCH 12 14
ENDBRANCH 9 10
BRANCH 9 27
ATOM     27  CB  SER B   6      15.467 -23.958   1.594  1.00 25.59 LIG 0.20  C 
BRANCH 27 28
ATOM     28 OG   SER B   6      16.573 -24.821   1.445  1.00 27.26 LIG-0.40  OA
ATOM     29 HG   SER B   6      16.967 -24.902   2.183  1.00 27.26 LIG 0.21  HD
ENDBRANCH 27 28
ENDBRANCH 9 27
ENDBRANCH 7 9
ENDBRANCH 1 5
BRANCH 1 30
ATOM     30  N   VAL B   5      19.581 -22.642   3.513  1.00 22.92 LIG-0.35  N 
ATOM     31 H    VAL B   5      20.098 -23.328   3.557  1.00 22.92 LIG 0.16  HD
ATOM     32  C   GLN B   4      19.725 -21.689   2.606  1.00 24.29 LIG 0.24  C 
ATOM     33 O    GLN B   4      18.989 -20.729   2.487  1.00 26.90 LIG-0.27  OA
BRANCH 32 34
ATOM     34  CA  GLN B   4      20.914 -21.871   1.659  1.00 30.52 LIG 0.18  C 
BRANCH 34 35
ATOM     35  CB  GLN B   4      21.109 -20.573   0.878  1.00 36.61 LIG 0.04  C 
BRANCH 35 36
ATOM     36  CG  GLN B   4      21.973 -19.556   1.604  1.00 50.94 LIG 0.10  C 
BRANCH 36 37
ATOM     37  CD  GLN B   4      23.297 -20.174   2.042  1.00 60.90 LIG 0.21  C 
ATOM     38  NE2 GLN B   4      24.384 -19.825   1.356  1.00 82.36 LIG-0.37  N 
ATOM     39 21HE GLN B   4      24.319 -19.280   0.695  1.00 82.36 LIG 0.16  HD
ATOM     40 22HE GLN B   4      25.152 -20.146   1.575  1.00 82.36 LIG 0.16  HD
ATOM     41 OE1  GLN B   4      23.335 -20.950   2.994  1.00 55.22 LIG-0.27  OA
ENDBRANCH 36 37
ENDBRANCH 35 36
ENDBRANCH 34 35
BRANCH 34 42
ATOM     42  N   GLN B   4      20.679 -22.979   0.754  1.00 37.98 LIG-0.35  N 
ATOM     43  C   GLU B   3      21.005 -24.229   1.065  1.00 56.89 LIG 0.26  C 
ATOM     44 O    GLU B   3      21.585 -24.524   2.101  1.00 56.58 LIG-0.27  OA
ATOM     45 H    GLN B   4      20.316 -22.752   0.009  1.00 37.98 LIG 0.16  HD
BRANCH 43 46
ATOM     46  CA  GLU B   3      20.627 -25.302   0.046  1.00 80.09 LIG 0.40  C 
ATOM     47  N   GLU B   3      21.689 -26.291  -0.078  1.00 75.44 LIG 0.61  N 
BRANCH 46 48
ATOM     48  CB  GLU B   3      19.328 -25.985   0.461  1.00107.85 LIG 0.06  C 
BRANCH 48 49
ATOM     49  CG  GLU B   3      18.433 -26.346  -0.700  1.00114.95 LIG 0.12  C 
BRANCH 49 50
ATOM     50  CD  GLU B   3      19.185 -26.375  -2.017  1.00 96.82 LIG 0.17  C 
ATOM     51 OE1  GLU B   3      18.835 -25.587  -2.927  1.00 91.15 LIG-0.65  OA
ATOM     52 OE2  GLU B   3      20.139 -27.178  -2.139  1.00 91.13 LIG-0.65  OA
ENDBRANCH 49 50
ENDBRANCH 48 49
ENDBRANCH 46 48
ENDBRANCH 43 46
ENDBRANCH 34 42
ENDBRANCH 32 34
ENDBRANCH 1 30
TORSDOF 21
ENDMDL
MODEL 71
USER: ADFR SOLUTION from run 194
USER: SCORE 14.605507 LL:  -3.886 LR: -12.788 RR:   0.000 FEB:  -6.524
USER: RMSD 12.602691
USER: SEED 193
USER: STATUS searching
USER: GENES 23
USER: genes 0 Translation |==|  0.68849 0.54314 0.50331
USER: genes 1 Rotation |==|  0.71789 0.36294 0.92394 0.56337
USER: genes 2 Torsion [C]-CA--CB-[CG2] |==|  0.57987
USER: genes 3 Torsion [N]-CA--C-[N] |==|  0.71186
USER: genes 4 Torsion [C]-N--CA-[CB] |==|  0.52222
USER: genes 5 Torsion [N]-CA--C-[N] |==|  0.47195
USER: genes 6 Torsion [C]-N--CA-[CB] |==|  0.87050
USER: genes 7 Torsion [N]-CA--C-[N] |==|  0.93048
USER: genes 8 Torsion [C]-N--CA-[CB] |==|  0.83899
USER: genes 9 Torsion [N]-CA--C-[O] |==|  0.98002
USER: genes 10 Torsion [N]-CA--CB-[CG2] |==|  0.28583
USER: genes 11 Torsion [N]-CA--CB-[OG] |==|  0.60684
USER: genes 12 Torsion [CA]-CB--OG-[HG] |==|  0.98767
USER: genes 13 Torsion [CB]-CA--N-[C] |==|  0.79402
USER: genes 14 Torsion [N]-C--CA-[N] |==|  0.83920
USER: genes 15 Torsion [C]-CA--CB-[CG] |==|  0.46685
USER: genes 16 Torsion [CA]-CB--CG-[CD] |==|  0.23291
USER: genes 17 Torsion [CB]-CG--CD-[OE1] |==|  0.09099
USER: genes 18 Torsion [C]-CA--N-[C] |==|  0.84851
USER: genes 19 Torsion [N]-C--CA-[N] |==|  0.37512
USER: genes 20 Torsion [C]-CA--CB-[CG] |==|  0.69073
USER: genes 21 Torsion [CA]-CB--CG-[CD] |==|  0.80844
USER: genes 22 Torsion [CB]-CG--CD-[OE1] |==|  0.45363
ROOT
ATOM      1  CA  VAL B   5      17.848 -22.203   4.413  1.00 23.44 LIG 0.18  C 
ENDROOT
BRANCH 1 2
ATOM      2  CB  VAL B   5      18.198 -20.728   4.614  1.00 27.20 LIG 0.01  C 
ATOM      3  CG2 VAL B   5      19.581 -20.421   4.123  1.00 32.91 LIG 0.01  C 
ATOM      4  CG1 VAL B   5      18.027 -20.307   6.057  1.00 27.01 LIG 0.01  C 
ENDBRANCH 1 2
BRANCH 1 5
ATOM      5  C   VAL B   5      16.343 -22.357   4.228  1.00 21.98 LIG 0.24  C 
ATOM      6 O    VAL B   5      15.831 -23.471   4.307  1.00 26.26 LIG-0.27  OA
ATOM      7  N   SER B   6      15.636 -21.266   3.926  1.00 19.41 LIG-0.34  N 
ATOM      8 H    SER B   6      15.995 -20.495   3.806  1.00 19.41 LIG 0.16  HD
BRANCH 7 9
ATOM      9  CA  SER B   6      14.198 -21.263   3.770  1.00 20.84 LIG 0.20  C 
BRANCH 9 10
ATOM     10  C   SER B   6      13.715 -22.341   2.824  1.00 18.76 LIG 0.24  C 
ATOM     11 O    SER B   6      14.473 -22.929   2.074  1.00 19.89 LIG-0.27  OA
ATOM     12  N   ALA B   7      12.415 -22.516   2.806  1.00 19.53 LIG-0.35  N 
ATOM     13 H    ALA B   7      11.884 -22.077   3.320  1.00 19.53 LIG 0.16  HD
BRANCH 12 14
ATOM     14  CA  ALA B   7      11.718 -23.455   1.936  1.00 19.70 LIG 0.17  C 
ATOM     15  CB  ALA B   7      12.254 -23.315   0.500  1.00 20.39 LIG 0.04  C 
BRANCH 14 16
ATOM     16  C   ALA B   7      11.926 -24.897   2.365  1.00 16.34 LIG 0.24  C 
ATOM     17  N   VAL B   8      13.013 -25.187   3.054  1.00 16.85 LIG-0.34  N 
ATOM     18 H    VAL B   8      13.650 -24.630   3.209  1.00 16.85 LIG 0.16  HD
ATOM     19 O    ALA B   7      11.073 -25.725   2.120  1.00 20.16 LIG-0.27  OA
BRANCH 17 20
ATOM     20  CA  VAL B   8      13.218 -26.526   3.622  1.00 17.28 LIG 0.19  C 
BRANCH 20 21
ATOM     21  C   VAL B   8      13.363 -27.525   2.479  1.00 17.19 LIG 0.20  C 
ATOM     22 O    VAL B   8      13.163 -27.151   1.301  1.00 24.30 LIG-0.65  OA
ATOM     23 OXT  VAL B   8      13.637 -28.726   2.697  1.00 16.53 LIG-0.65  OA
ENDBRANCH 20 21
BRANCH 20 24
ATOM     24  CB  VAL B   8      12.071 -26.945   4.594  1.00 17.38 LIG 0.01  C 
ATOM     25  CG2 VAL B   8      11.140 -27.925   3.889  1.00 18.61 LIG 0.01  C 
ATOM     26  CG1 VAL B   8      11.353 -25.734   5.128  1.00 19.61 LIG 0.01  C 
ENDBRANCH 20 24
ENDBRANCH 17 20
ENDBRANCH 14 16
ENDBRANCH 12 14
ENDBRANCH 9 10
BRANCH 9 27
ATOM     27  CB  SER B   6      13.719 -19.918   3.237  1.00 25.59 LIG 0.20  C 
BRANCH 27 28
ATOM     28 OG   SER B   6      12.503 -19.549   3.852  1.00 27.26 LIG-0.40  OA
ATOM     29 HG   SER B   6      12.242 -20.171   4.352  1.00 27.26 LIG 0.21  HD
ENDBRANCH 27 28
ENDBRANCH 9 27
ENDBRANCH 7 9
ENDBRANCH 1 5
BRANCH 1 30
ATOM     30  N   VAL B   5      18.478 -22.721   3.221  1.00 22.92 LIG-0.35  N 
ATOM     31 H    VAL B   5      19.147 -23.237   3.385  1.00 22.92 LIG 0.16  HD
ATOM     32  C   GLN B   4      18.072 -22.435   1.994  1.00 24.29 LIG 0.24  C 
ATOM     33 O    GLN B   4      17.107 -21.747   1.727  1.00 26.90 LIG-0.27  OA
BRANCH 32 34
ATOM     34  CA  GLN B   4      18.910 -23.056   0.874  1.00 30.52 LIG 0.18  C 
BRANCH 34 35
ATOM     35  CB  GLN B   4      18.795 -24.576   0.976  1.00 36.61 LIG 0.04  C 
BRANCH 35 36
ATOM     36  CG  GLN B   4      19.341 -25.306  -0.240  1.00 50.94 LIG 0.10  C 
BRANCH 36 37
ATOM     37  CD  GLN B   4      20.852 -25.492  -0.135  1.00 60.90 LIG 0.21  C 
ATOM     38  NE2 GLN B   4      21.546 -25.460  -1.271  1.00 82.36 LIG-0.37  N 
ATOM     39 21HE GLN B   4      21.139 -25.346  -2.020  1.00 82.36 LIG 0.16  HD
ATOM     40 22HE GLN B   4      22.401 -25.554  -1.256  1.00 82.36 LIG 0.16  HD
ATOM     41 OE1  GLN B   4      21.383 -25.652   0.962  1.00 55.22 LIG-0.27  OA
ENDBRANCH 36 37
ENDBRANCH 35 36
ENDBRANCH 34 35
BRANCH 34 42
ATOM     42  N   GLN B   4      20.295 -22.643   0.985  1.00 37.98 LIG-0.35  N 
ATOM     43  C   GLU B   3      20.651 -21.363   1.036  1.00 56.89 LIG 0.26  C 
ATOM     44 O    GLU B   3      19.847 -20.448   0.924  1.00 56.58 LIG-0.27  OA
ATOM     45 H    GLN B   4      20.855 -23.295   1.014  1.00 37.98 LIG 0.16  HD
BRANCH 43 46
ATOM     46  CA  GLU B   3      22.139 -21.080   1.232  1.00 80.09 LIG 0.40  C 
ATOM     47  N   GLU B   3      22.587 -20.034   0.323  1.00 75.44 LIG 0.61  N 
BRANCH 46 48
ATOM     48  CB  GLU B   3      22.407 -20.665   2.675  1.00107.85 LIG 0.06  C 
BRANCH 48 49
ATOM     49  CG  GLU B   3      22.811 -19.217   2.826  1.00114.95 LIG 0.12  C 
BRANCH 49 50
ATOM     50  CD  GLU B   3      24.185 -18.941   2.247  1.00 96.82 LIG 0.17  C 
ATOM     51 OE1  GLU B   3      24.512 -17.753   2.016  1.00 91.15 LIG-0.65  OA
ATOM     52 OE2  GLU B   3      24.947 -19.913   2.034  1.00 91.13 LIG-0.65  OA
ENDBRANCH 49 50
ENDBRANCH 48 49
ENDBRANCH 46 48
ENDBRANCH 43 46
ENDBRANCH 34 42
ENDBRANCH 32 34
ENDBRANCH 1 30
TORSDOF 21
ENDMDL
MODEL 72
USER: ADFR SOLUTION from run 2
USER: SCORE 14.687822 LL:  -3.942 LR: -12.784 RR:   0.000 FEB:  -6.520
USER: RMSD 11.031899
USER: SEED 840778
USER: STATUS no improvement in best in 12 clusters for 5 generations
USER: GENES 23
USER: genes 0 Translation |==|  0.68405 0.54078 0.50380
USER: genes 1 Rotation |==|  0.71906 0.39981 0.92520 0.60572
USER: genes 2 Torsion [C]-CA--CB-[CG2] |==|  0.56576
USER: genes 3 Torsion [N]-CA--C-[N] |==|  0.71753
USER: genes 4 Torsion [C]-N--CA-[CB] |==|  0.56332
USER: genes 5 Torsion [N]-CA--C-[N] |==|  0.36852
USER: genes 6 Torsion [C]-N--CA-[CB] |==|  0.16449
USER: genes 7 Torsion [N]-CA--C-[N] |==|  0.09585
USER: genes 8 Torsion [C]-N--CA-[CB] |==|  0.85786
USER: genes 9 Torsion [N]-CA--C-[O] |==|  0.33100
USER: genes 10 Torsion [N]-CA--CB-[CG2] |==|  0.81760
USER: genes 11 Torsion [N]-CA--CB-[OG] |==|  0.18429
USER: genes 12 Torsion [CA]-CB--OG-[HG] |==|  0.36351
USER: genes 13 Torsion [CB]-CA--N-[C] |==|  0.83354
USER: genes 14 Torsion [N]-C--CA-[N] |==|  0.33684
USER: genes 15 Torsion [C]-CA--CB-[CG] |==|  0.12448
USER: genes 16 Torsion [CA]-CB--CG-[CD] |==|  0.20003
USER: genes 17 Torsion [CB]-CG--CD-[OE1] |==|  0.37024
USER: genes 18 Torsion [C]-CA--N-[C] |==|  0.70571
USER: genes 19 Torsion [N]-C--CA-[N] |==|  0.37114
USER: genes 20 Torsion [C]-CA--CB-[CG] |==|  0.64250
USER: genes 21 Torsion [CA]-CB--CG-[CD] |==|  0.23180
USER: genes 22 Torsion [CB]-CG--CD-[OE1] |==|  0.32257
ROOT
ATOM      1  CA  VAL B   5      17.714 -22.244   4.422  1.00 23.44 LIG 0.18  C 
ENDROOT
BRANCH 1 2
ATOM      2  CB  VAL B   5      18.181 -20.792   4.301  1.00 27.20 LIG 0.01  C 
ATOM      3  CG2 VAL B   5      19.589 -20.710   3.792  1.00 32.91 LIG 0.01  C 
ATOM      4  CG1 VAL B   5      18.032 -20.049   5.611  1.00 27.01 LIG 0.01  C 
ENDBRANCH 1 2
BRANCH 1 5
ATOM      5  C   VAL B   5      16.192 -22.305   4.360  1.00 21.98 LIG 0.24  C 
ATOM      6 O    VAL B   5      15.610 -23.322   4.726  1.00 26.26 LIG-0.27  OA
ATOM      7  N   SER B   6      15.546 -21.255   3.849  1.00 19.41 LIG-0.34  N 
ATOM      8 H    SER B   6      15.950 -20.566   3.531  1.00 19.41 LIG 0.16  HD
BRANCH 7 9
ATOM      9  CA  SER B   6      14.104 -21.163   3.774  1.00 20.84 LIG 0.20  C 
BRANCH 9 10
ATOM     10  C   SER B   6      13.452 -22.496   3.477  1.00 18.76 LIG 0.24  C 
ATOM     11 O    SER B   6      13.795 -23.187   2.536  1.00 19.89 LIG-0.27  OA
ATOM     12  N   ALA B   7      12.433 -22.795   4.248  1.00 19.53 LIG-0.35  N 
ATOM     13 H    ALA B   7      12.180 -22.287   4.894  1.00 19.53 LIG 0.16  HD
BRANCH 12 14
ATOM     14  CA  ALA B   7      11.618 -23.994   4.113  1.00 19.70 LIG 0.17  C 
ATOM     15  CB  ALA B   7      12.510 -25.239   4.263  1.00 20.39 LIG 0.04  C 
BRANCH 14 16
ATOM     16  C   ALA B   7      10.535 -24.074   5.174  1.00 16.34 LIG 0.24  C 
ATOM     17  N   VAL B   8       9.981 -22.947   5.579  1.00 16.85 LIG-0.34  N 
ATOM     18 H    VAL B   8      10.246 -22.165   5.340  1.00 16.85 LIG 0.16  HD
ATOM     19 O    ALA B   7      10.168 -25.159   5.577  1.00 20.16 LIG-0.27  OA
BRANCH 17 20
ATOM     20  CA  VAL B   8       8.836 -22.951   6.499  1.00 17.28 LIG 0.19  C 
BRANCH 20 21
ATOM     21  C   VAL B   8       9.325 -23.351   7.887  1.00 17.19 LIG 0.20  C 
ATOM     22 O    VAL B   8       9.193 -22.555   8.844  1.00 24.30 LIG-0.65  OA
ATOM     23 OXT  VAL B   8       9.898 -24.447   8.083  1.00 16.53 LIG-0.65  OA
ENDBRANCH 20 21
BRANCH 20 24
ATOM     24  CB  VAL B   8       7.684 -23.887   6.016  1.00 17.38 LIG 0.01  C 
ATOM     25  CG2 VAL B   8       7.095 -23.339   4.721  1.00 18.61 LIG 0.01  C 
ATOM     26  CG1 VAL B   8       6.654 -24.070   7.099  1.00 19.61 LIG 0.01  C 
ENDBRANCH 20 24
ENDBRANCH 17 20
ENDBRANCH 14 16
ENDBRANCH 12 14
ENDBRANCH 9 10
BRANCH 9 27
ATOM     27  CB  SER B   6      13.685 -20.180   2.689  1.00 25.59 LIG 0.20  C 
BRANCH 27 28
ATOM     28 OG   SER B   6      14.043 -20.669   1.415  1.00 27.26 LIG-0.40  OA
ATOM     29 HG   SER B   6      13.382 -20.617   0.899  1.00 27.26 LIG 0.21  HD
ENDBRANCH 27 28
ENDBRANCH 9 27
ENDBRANCH 7 9
ENDBRANCH 1 5
BRANCH 1 30
ATOM     30  N   VAL B   5      18.217 -23.036   3.323  1.00 22.92 LIG-0.35  N 
ATOM     31 H    VAL B   5      18.713 -23.692   3.574  1.00 22.92 LIG 0.16  HD
ATOM     32  C   GLN B   4      17.944 -22.783   2.052  1.00 24.29 LIG 0.24  C 
ATOM     33 O    GLN B   4      17.214 -21.893   1.665  1.00 26.90 LIG-0.27  OA
BRANCH 32 34
ATOM     34  CA  GLN B   4      18.615 -23.723   1.048  1.00 30.52 LIG 0.18  C 
BRANCH 34 35
ATOM     35  CB  GLN B   4      19.550 -22.895   0.168  1.00 36.61 LIG 0.04  C 
BRANCH 35 36
ATOM     36  CG  GLN B   4      20.397 -21.905   0.950  1.00 50.94 LIG 0.10  C 
BRANCH 36 37
ATOM     37  CD  GLN B   4      21.481 -22.623   1.749  1.00 60.90 LIG 0.21  C 
ATOM     38  NE2 GLN B   4      21.110 -23.697   2.444  1.00 82.36 LIG-0.37  N 
ATOM     39 21HE GLN B   4      20.289 -23.953   2.433  1.00 82.36 LIG 0.16  HD
ATOM     40 22HE GLN B   4      21.691 -24.135   2.902  1.00 82.36 LIG 0.16  HD
ATOM     41 OE1  GLN B   4      22.640 -22.214   1.730  1.00 55.22 LIG-0.27  OA
ENDBRANCH 36 37
ENDBRANCH 35 36
ENDBRANCH 34 35
BRANCH 34 42
ATOM     42  N   GLN B   4      17.621 -24.398   0.238  1.00 37.98 LIG-0.35  N 
ATOM     43  C   GLU B   3      17.316 -25.680   0.413  1.00 56.89 LIG 0.26  C 
ATOM     44 O    GLU B   3      17.897 -26.394   1.217  1.00 56.58 LIG-0.27  OA
ATOM     45 H    GLN B   4      17.253 -23.897  -0.357  1.00 37.98 LIG 0.16  HD
BRANCH 43 46
ATOM     46  CA  GLU B   3      16.193 -26.235  -0.461  1.00 80.09 LIG 0.40  C 
ATOM     47  N   GLU B   3      16.577 -27.515  -1.040  1.00 75.44 LIG 0.61  N 
BRANCH 46 48
ATOM     48  CB  GLU B   3      14.920 -26.398   0.362  1.00107.85 LIG 0.06  C 
BRANCH 48 49
ATOM     49  CG  GLU B   3      14.296 -27.769   0.252  1.00114.95 LIG 0.12  C 
BRANCH 49 50
ATOM     50  CD  GLU B   3      14.934 -28.768   1.197  1.00 96.82 LIG 0.17  C 
ATOM     51 OE1  GLU B   3      14.233 -29.267   2.109  1.00 91.15 LIG-0.65  OA
ATOM     52 OE2  GLU B   3      16.139 -29.067   1.021  1.00 91.13 LIG-0.65  OA
ENDBRANCH 49 50
ENDBRANCH 48 49
ENDBRANCH 46 48
ENDBRANCH 43 46
ENDBRANCH 34 42
ENDBRANCH 32 34
ENDBRANCH 1 30
TORSDOF 21
ENDMDL
MODEL 73
USER: ADFR SOLUTION from run 53
USER: SCORE 15.245219 LL:  -4.202 LR: -12.779 RR:   0.000 FEB:  -6.514
USER: RMSD 12.567055
USER: SEED 52
USER: STATUS no improvement in best in 7 clusters for 5 generations
USER: GENES 23
USER: genes 0 Translation |==|  0.66616 0.50986 0.46864
USER: genes 1 Rotation |==|  0.33981 0.59081 0.03741 0.54588
USER: genes 2 Torsion [C]-CA--CB-[CG2] |==|  0.41909
USER: genes 3 Torsion [N]-CA--C-[N] |==|  0.88263
USER: genes 4 Torsion [C]-N--CA-[CB] |==|  0.79150
USER: genes 5 Torsion [N]-CA--C-[N] |==|  0.17340
USER: genes 6 Torsion [C]-N--CA-[CB] |==|  0.15747
USER: genes 7 Torsion [N]-CA--C-[N] |==|  0.01139
USER: genes 8 Torsion [C]-N--CA-[CB] |==|  0.26501
USER: genes 9 Torsion [N]-CA--C-[O] |==|  0.99813
USER: genes 10 Torsion [N]-CA--CB-[CG2] |==|  0.83236
USER: genes 11 Torsion [N]-CA--CB-[OG] |==|  0.91475
USER: genes 12 Torsion [CA]-CB--OG-[HG] |==|  0.86461
USER: genes 13 Torsion [CB]-CA--N-[C] |==|  0.86111
USER: genes 14 Torsion [N]-C--CA-[N] |==|  0.81768
USER: genes 15 Torsion [C]-CA--CB-[CG] |==|  0.23860
USER: genes 16 Torsion [CA]-CB--CG-[CD] |==|  0.24028
USER: genes 17 Torsion [CB]-CG--CD-[OE1] |==|  0.61007
USER: genes 18 Torsion [C]-CA--N-[C] |==|  0.84480
USER: genes 19 Torsion [N]-C--CA-[N] |==|  0.86567
USER: genes 20 Torsion [C]-CA--CB-[CG] |==|  0.21209
USER: genes 21 Torsion [CA]-CB--CG-[CD] |==|  0.25396
USER: genes 22 Torsion [CB]-CG--CD-[OE1] |==|  0.92540
ROOT
ATOM      1  CA  VAL B   5      17.178 -22.777   3.815  1.00 23.44 LIG 0.18  C 
ENDROOT
BRANCH 1 2
ATOM      2  CB  VAL B   5      16.837 -21.293   3.959  1.00 27.20 LIG 0.01  C 
ATOM      3  CG2 VAL B   5      17.525 -20.685   5.145  1.00 32.91 LIG 0.01  C 
ATOM      4  CG1 VAL B   5      15.342 -21.070   4.023  1.00 27.01 LIG 0.01  C 
ENDBRANCH 1 2
BRANCH 1 5
ATOM      5  C   VAL B   5      16.020 -23.512   3.150  1.00 21.98 LIG 0.24  C 
ATOM      6 O    VAL B   5      15.282 -24.222   3.827  1.00 26.26 LIG-0.27  OA
ATOM      7  N   SER B   6      15.885 -23.397   1.827  1.00 19.41 LIG-0.34  N 
ATOM      8 H    SER B   6      16.436 -22.954   1.338  1.00 19.41 LIG 0.16  HD
BRANCH 7 9
ATOM      9  CA  SER B   6      14.806 -24.003   1.077  1.00 20.84 LIG 0.20  C 
BRANCH 9 10
ATOM     10  C   SER B   6      13.457 -23.787   1.727  1.00 18.76 LIG 0.24  C 
ATOM     11 O    SER B   6      12.739 -24.717   2.048  1.00 19.89 LIG-0.27  OA
ATOM     12  N   ALA B   7      13.085 -22.533   1.823  1.00 19.53 LIG-0.35  N 
ATOM     13 H    ALA B   7      13.588 -21.883   1.569  1.00 19.53 LIG 0.16  HD
BRANCH 12 14
ATOM     14  CA  ALA B   7      11.806 -22.088   2.360  1.00 19.70 LIG 0.17  C 
ATOM     15  CB  ALA B   7      11.634 -22.631   3.789  1.00 20.39 LIG 0.04  C 
BRANCH 14 16
ATOM     16  C   ALA B   7      11.708 -20.574   2.429  1.00 16.34 LIG 0.24  C 
ATOM     17  N   VAL B   8      12.709 -19.867   1.940  1.00 16.85 LIG-0.34  N 
ATOM     18 H    VAL B   8      13.446 -20.205   1.655  1.00 16.85 LIG 0.16  HD
ATOM     19 O    ALA B   7      10.703 -20.056   2.872  1.00 20.16 LIG-0.27  OA
BRANCH 17 20
ATOM     20  CA  VAL B   8      12.630 -18.403   1.844  1.00 17.28 LIG 0.19  C 
BRANCH 20 21
ATOM     21  C   VAL B   8      13.280 -17.962   0.538  1.00 17.19 LIG 0.20  C 
ATOM     22 O    VAL B   8      13.775 -18.820  -0.229  1.00 24.30 LIG-0.65  OA
ATOM     23 OXT  VAL B   8      13.369 -16.752   0.232  1.00 16.53 LIG-0.65  OA
ENDBRANCH 20 21
BRANCH 20 24
ATOM     24  CB  VAL B   8      13.284 -17.688   3.068  1.00 17.38 LIG 0.01  C 
ATOM     25  CG2 VAL B   8      12.564 -18.108   4.346  1.00 18.61 LIG 0.01  C 
ATOM     26  CG1 VAL B   8      13.302 -16.196   2.868  1.00 19.61 LIG 0.01  C 
ENDBRANCH 20 24
ENDBRANCH 17 20
ENDBRANCH 14 16
ENDBRANCH 12 14
ENDBRANCH 9 10
BRANCH 9 27
ATOM     27  CB  SER B   6      15.028 -25.503   0.934  1.00 25.59 LIG 0.20  C 
BRANCH 27 28
ATOM     28 OG   SER B   6      16.407 -25.798   0.903  1.00 27.26 LIG-0.40  OA
ATOM     29 HG   SER B   6      16.790 -25.291   0.353  1.00 27.26 LIG 0.21  HD
ENDBRANCH 27 28
ENDBRANCH 9 27
ENDBRANCH 7 9
ENDBRANCH 1 5
BRANCH 1 30
ATOM     30  N   VAL B   5      18.336 -22.957   2.971  1.00 22.92 LIG-0.35  N 
ATOM     31 H    VAL B   5      18.936 -23.466   3.318  1.00 22.92 LIG 0.16  HD
ATOM     32  C   GLN B   4      18.469 -22.395   1.779  1.00 24.29 LIG 0.24  C 
ATOM     33 O    GLN B   4      17.625 -21.706   1.241  1.00 26.90 LIG-0.27  OA
BRANCH 32 34
ATOM     34  CA  GLN B   4      19.796 -22.683   1.073  1.00 30.52 LIG 0.18  C 
BRANCH 34 35
ATOM     35  CB  GLN B   4      19.970 -24.198   0.979  1.00 36.61 LIG 0.04  C 
BRANCH 35 36
ATOM     36  CG  GLN B   4      19.298 -24.809  -0.239  1.00 50.94 LIG 0.10  C 
BRANCH 36 37
ATOM     37  CD  GLN B   4      20.221 -24.767  -1.454  1.00 60.90 LIG 0.21  C 
ATOM     38  NE2 GLN B   4      21.508 -25.036  -1.244  1.00 82.36 LIG-0.37  N 
ATOM     39 21HE GLN B   4      21.787 -25.216  -0.451  1.00 82.36 LIG 0.16  HD
ATOM     40 22HE GLN B   4      22.062 -25.030  -1.903  1.00 82.36 LIG 0.16  HD
ATOM     41 OE1  GLN B   4      19.771 -24.504  -2.566  1.00 55.22 LIG-0.27  OA
ENDBRANCH 36 37
ENDBRANCH 35 36
ENDBRANCH 34 35
BRANCH 34 42
ATOM     42  N   GLN B   4      20.900 -22.089   1.800  1.00 37.98 LIG-0.35  N 
ATOM     43  C   GLU B   3      20.941 -20.792   2.089  1.00 56.89 LIG 0.26  C 
ATOM     44 O    GLU B   3      20.091 -20.001   1.706  1.00 56.58 LIG-0.27  OA
ATOM     45 H    GLN B   4      21.515 -22.647   2.022  1.00 37.98 LIG 0.16  HD
BRANCH 43 46
ATOM     46  CA  GLU B   3      22.127 -20.322   2.929  1.00 80.09 LIG 0.40  C 
ATOM     47  N   GLU B   3      22.311 -21.184   4.088  1.00 75.44 LIG 0.61  N 
BRANCH 46 48
ATOM     48  CB  GLU B   3      23.396 -20.312   2.083  1.00107.85 LIG 0.06  C 
BRANCH 48 49
ATOM     49  CG  GLU B   3      23.482 -19.143   1.130  1.00114.95 LIG 0.12  C 
BRANCH 49 50
ATOM     50  CD  GLU B   3      24.196 -17.954   1.742  1.00 96.82 LIG 0.17  C 
ATOM     51 OE1  GLU B   3      24.175 -17.816   2.988  1.00 91.15 LIG-0.65  OA
ATOM     52 OE2  GLU B   3      24.793 -17.161   0.977  1.00 91.13 LIG-0.65  OA
ENDBRANCH 49 50
ENDBRANCH 48 49
ENDBRANCH 46 48
ENDBRANCH 43 46
ENDBRANCH 34 42
ENDBRANCH 32 34
ENDBRANCH 1 30
TORSDOF 21
ENDMDL
MODEL 74
USER: ADFR SOLUTION from run 72
USER: SCORE 15.173482 LL:  -4.798 LR: -12.776 RR:   0.000 FEB:  -6.512
USER: RMSD 12.702642
USER: SEED 71
USER: STATUS searching
USER: GENES 23
USER: genes 0 Translation |==|  0.63561 0.47820 0.45915
USER: genes 1 Rotation |==|  0.34422 0.56634 0.03004 0.52168
USER: genes 2 Torsion [C]-CA--CB-[CG2] |==|  0.46300
USER: genes 3 Torsion [N]-CA--C-[N] |==|  0.35645
USER: genes 4 Torsion [C]-N--CA-[CB] |==|  0.38469
USER: genes 5 Torsion [N]-CA--C-[N] |==|  0.92324
USER: genes 6 Torsion [C]-N--CA-[CB] |==|  0.85762
USER: genes 7 Torsion [N]-CA--C-[N] |==|  0.31571
USER: genes 8 Torsion [C]-N--CA-[CB] |==|  0.17547
USER: genes 9 Torsion [N]-CA--C-[O] |==|  0.45679
USER: genes 10 Torsion [N]-CA--CB-[CG2] |==|  0.65590
USER: genes 11 Torsion [N]-CA--CB-[OG] |==|  0.08555
USER: genes 12 Torsion [CA]-CB--OG-[HG] |==|  0.01347
USER: genes 13 Torsion [CB]-CA--N-[C] |==|  0.88867
USER: genes 14 Torsion [N]-C--CA-[N] |==|  0.83939
USER: genes 15 Torsion [C]-CA--CB-[CG] |==|  0.41441
USER: genes 16 Torsion [CA]-CB--CG-[CD] |==|  0.20987
USER: genes 17 Torsion [CB]-CG--CD-[OE1] |==|  0.02249
USER: genes 18 Torsion [C]-CA--N-[C] |==|  0.70497
USER: genes 19 Torsion [N]-C--CA-[N] |==|  0.55490
USER: genes 20 Torsion [C]-CA--CB-[CG] |==|  0.87881
USER: genes 21 Torsion [CA]-CB--CG-[CD] |==|  0.86584
USER: genes 22 Torsion [CB]-CG--CD-[OE1] |==|  0.83891
ROOT
ATOM      1  CA  VAL B   5      16.261 -23.323   3.651  1.00 23.44 LIG 0.18  C 
ENDROOT
BRANCH 1 2
ATOM      2  CB  VAL B   5      16.016 -21.814   3.602  1.00 27.20 LIG 0.01  C 
ATOM      3  CG2 VAL B   5      17.002 -21.071   4.453  1.00 32.91 LIG 0.01  C 
ATOM      4  CG1 VAL B   5      14.594 -21.470   3.989  1.00 27.01 LIG 0.01  C 
ENDBRANCH 1 2
BRANCH 1 5
ATOM      5  C   VAL B   5      15.067 -24.062   3.058  1.00 21.98 LIG 0.24  C 
ATOM      6 O    VAL B   5      14.806 -23.936   1.865  1.00 26.26 LIG-0.27  OA
ATOM      7  N   SER B   6      14.306 -24.782   3.885  1.00 19.41 LIG-0.34  N 
ATOM      8 H    SER B   6      14.444 -24.823   4.732  1.00 19.41 LIG 0.16  HD
BRANCH 7 9
ATOM      9  CA  SER B   6      13.172 -25.568   3.448  1.00 20.84 LIG 0.20  C 
BRANCH 9 10
ATOM     10  C   SER B   6      11.852 -24.872   3.701  1.00 18.76 LIG 0.24  C 
ATOM     11 O    SER B   6      10.895 -25.017   2.964  1.00 19.89 LIG-0.27  OA
ATOM     12  N   ALA B   7      11.856 -24.033   4.710  1.00 19.53 LIG-0.35  N 
ATOM     13 H    ALA B   7      12.546 -23.917   5.209  1.00 19.53 LIG 0.16  HD
BRANCH 12 14
ATOM     14  CA  ALA B   7      10.721 -23.210   5.106  1.00 19.70 LIG 0.17  C 
ATOM     15  CB  ALA B   7      10.190 -22.448   3.879  1.00 20.39 LIG 0.04  C 
BRANCH 14 16
ATOM     16  C   ALA B   7       9.577 -24.039   5.661  1.00 16.34 LIG 0.24  C 
ATOM     17  N   VAL B   8       9.271 -23.895   6.937  1.00 16.85 LIG-0.34  N 
ATOM     18 H    VAL B   8       9.725 -23.421   7.492  1.00 16.85 LIG 0.16  HD
ATOM     19 O    ALA B   7       8.942 -24.761   4.919  1.00 20.16 LIG-0.27  OA
BRANCH 17 20
ATOM     20  CA  VAL B   8       8.093 -24.557   7.515  1.00 17.28 LIG 0.19  C 
BRANCH 20 21
ATOM     21  C   VAL B   8       7.913 -24.068   8.948  1.00 17.19 LIG 0.20  C 
ATOM     22 O    VAL B   8       6.826 -24.263   9.538  1.00 24.30 LIG-0.65  OA
ATOM     23 OXT  VAL B   8       8.818 -23.434   9.537  1.00 16.53 LIG-0.65  OA
ENDBRANCH 20 21
BRANCH 20 24
ATOM     24  CB  VAL B   8       8.195 -26.113   7.460  1.00 17.38 LIG 0.01  C 
ATOM     25  CG2 VAL B   8       6.983 -26.675   6.725  1.00 18.61 LIG 0.01  C 
ATOM     26  CG1 VAL B   8       8.362 -26.687   8.841  1.00 19.61 LIG 0.01  C 
ENDBRANCH 20 24
ENDBRANCH 17 20
ENDBRANCH 14 16
ENDBRANCH 12 14
ENDBRANCH 9 10
BRANCH 9 27
ATOM     27  CB  SER B   6      13.142 -26.912   4.164  1.00 25.59 LIG 0.20  C 
BRANCH 27 28
ATOM     28 OG   SER B   6      13.697 -26.795   5.456  1.00 27.26 LIG-0.40  OA
ATOM     29 HG   SER B   6      13.880 -25.990   5.611  1.00 27.26 LIG 0.21  HD
ENDBRANCH 27 28
ENDBRANCH 9 27
ENDBRANCH 7 9
ENDBRANCH 1 5
BRANCH 1 30
ATOM     30  N   VAL B   5      17.416 -23.680   2.861  1.00 22.92 LIG-0.35  N 
ATOM     31 H    VAL B   5      17.908 -24.283   3.227  1.00 22.92 LIG 0.16  HD
ATOM     32  C   GLN B   4      17.698 -23.136   1.687  1.00 24.29 LIG 0.24  C 
ATOM     33 O    GLN B   4      17.004 -22.314   1.121  1.00 26.90 LIG-0.27  OA
BRANCH 32 34
ATOM     34  CA  GLN B   4      18.994 -23.628   1.040  1.00 30.52 LIG 0.18  C 
BRANCH 34 35
ATOM     35  CB  GLN B   4      18.848 -25.121   0.749  1.00 36.61 LIG 0.04  C 
BRANCH 35 36
ATOM     36  CG  GLN B   4      19.632 -25.578  -0.470  1.00 50.94 LIG 0.10  C 
BRANCH 36 37
ATOM     37  CD  GLN B   4      21.123 -25.674  -0.158  1.00 60.90 LIG 0.21  C 
ATOM     38  NE2 GLN B   4      21.943 -25.893  -1.185  1.00 82.36 LIG-0.37  N 
ATOM     39 21HE GLN B   4      21.624 -25.980  -1.978  1.00 82.36 LIG 0.16  HD
ATOM     40 22HE GLN B   4      22.791 -25.947  -1.054  1.00 82.36 LIG 0.16  HD
ATOM     41 OE1  GLN B   4      21.526 -25.542   0.995  1.00 55.22 LIG-0.27  OA
ENDBRANCH 36 37
ENDBRANCH 35 36
ENDBRANCH 34 35
BRANCH 34 42
ATOM     42  N   GLN B   4      20.124 -23.390   1.917  1.00 37.98 LIG-0.35  N 
ATOM     43  C   GLU B   3      21.012 -22.429   1.682  1.00 56.89 LIG 0.26  C 
ATOM     44 O    GLU B   3      20.980 -21.728   0.680  1.00 56.58 LIG-0.27  OA
ATOM     45 H    GLN B   4      20.163 -23.921   2.592  1.00 37.98 LIG 0.16  HD
BRANCH 43 46
ATOM     46  CA  GLU B   3      22.104 -22.244   2.733  1.00 80.09 LIG 0.40  C 
ATOM     47  N   GLU B   3      22.707 -20.923   2.621  1.00 75.44 LIG 0.61  N 
BRANCH 46 48
ATOM     48  CB  GLU B   3      21.524 -22.433   4.131  1.00107.85 LIG 0.06  C 
BRANCH 48 49
ATOM     49  CG  GLU B   3      20.192 -21.752   4.333  1.00114.95 LIG 0.12  C 
BRANCH 49 50
ATOM     50  CD  GLU B   3      20.204 -20.313   3.852  1.00 96.82 LIG 0.17  C 
ATOM     51 OE1  GLU B   3      21.038 -19.520   4.349  1.00 91.15 LIG-0.65  OA
ATOM     52 OE2  GLU B   3      19.385 -19.977   2.966  1.00 91.13 LIG-0.65  OA
ENDBRANCH 49 50
ENDBRANCH 48 49
ENDBRANCH 46 48
ENDBRANCH 43 46
ENDBRANCH 34 42
ENDBRANCH 32 34
ENDBRANCH 1 30
TORSDOF 21
ENDMDL
MODEL 75
USER: ADFR SOLUTION from run 10
USER: SCORE 15.296733 LL:  -4.419 LR: -12.775 RR:   0.000 FEB:  -6.511
USER: RMSD 7.692919
USER: SEED 913082
USER: STATUS no improvement in best in 10 clusters for 5 generations
USER: GENES 23
USER: genes 0 Translation |==|  0.58384 0.56294 0.39083
USER: genes 1 Rotation |==|  0.04817 0.33005 0.59086 0.59334
USER: genes 2 Torsion [C]-CA--CB-[CG2] |==|  0.82294
USER: genes 3 Torsion [N]-CA--C-[N] |==|  0.16392
USER: genes 4 Torsion [C]-N--CA-[CB] |==|  0.52333
USER: genes 5 Torsion [N]-CA--C-[N] |==|  0.40760
USER: genes 6 Torsion [C]-N--CA-[CB] |==|  0.47070
USER: genes 7 Torsion [N]-CA--C-[N] |==|  0.35556
USER: genes 8 Torsion [C]-N--CA-[CB] |==|  0.28662
USER: genes 9 Torsion [N]-CA--C-[O] |==|  0.54462
USER: genes 10 Torsion [N]-CA--CB-[CG2] |==|  0.20496
USER: genes 11 Torsion [N]-CA--CB-[OG] |==|  0.71929
USER: genes 12 Torsion [CA]-CB--OG-[HG] |==|  0.93294
USER: genes 13 Torsion [CB]-CA--N-[C] |==|  0.77128
USER: genes 14 Torsion [N]-C--CA-[N] |==|  0.25718
USER: genes 15 Torsion [C]-CA--CB-[CG] |==|  0.28651
USER: genes 16 Torsion [CA]-CB--CG-[CD] |==|  0.91474
USER: genes 17 Torsion [CB]-CG--CD-[OE1] |==|  0.23139
USER: genes 18 Torsion [C]-CA--N-[C] |==|  0.77744
USER: genes 19 Torsion [N]-C--CA-[N] |==|  0.56528
USER: genes 20 Torsion [C]-CA--CB-[CG] |==|  0.29456
USER: genes 21 Torsion [CA]-CB--CG-[CD] |==|  0.92018
USER: genes 22 Torsion [CB]-CG--CD-[OE1] |==|  0.71756
ROOT
ATOM      1  CA  VAL B   5      14.708 -21.861   2.473  1.00 23.44 LIG 0.18  C 
ENDROOT
BRANCH 1 2
ATOM      2  CB  VAL B   5      14.105 -21.022   3.600  1.00 27.20 LIG 0.01  C 
ATOM      3  CG2 VAL B   5      14.068 -21.785   4.891  1.00 32.91 LIG 0.01  C 
ATOM      4  CG1 VAL B   5      12.730 -20.505   3.234  1.00 27.01 LIG 0.01  C 
ENDBRANCH 1 2
BRANCH 1 5
ATOM      5  C   VAL B   5      16.164 -22.184   2.790  1.00 21.98 LIG 0.24  C 
ATOM      6 O    VAL B   5      16.683 -21.720   3.801  1.00 26.26 LIG-0.27  OA
ATOM      7  N   SER B   6      16.844 -22.925   1.913  1.00 19.41 LIG-0.34  N 
ATOM      8 H    SER B   6      16.506 -23.200   1.172  1.00 19.41 LIG 0.16  HD
BRANCH 7 9
ATOM      9  CA  SER B   6      18.214 -23.343   2.112  1.00 20.84 LIG 0.20  C 
BRANCH 9 10
ATOM     10  C   SER B   6      19.124 -22.191   2.481  1.00 18.76 LIG 0.24  C 
ATOM     11 O    SER B   6      19.002 -21.087   1.983  1.00 19.89 LIG-0.27  OA
ATOM     12  N   ALA B   7      20.104 -22.503   3.296  1.00 19.53 LIG-0.35  N 
ATOM     13 H    ALA B   7      20.199 -23.293   3.622  1.00 19.53 LIG 0.16  HD
BRANCH 12 14
ATOM     14  CA  ALA B   7      21.135 -21.574   3.743  1.00 19.70 LIG 0.17  C 
ATOM     15  CB  ALA B   7      21.944 -22.220   4.882  1.00 20.39 LIG 0.04  C 
BRANCH 14 16
ATOM     16  C   ALA B   7      22.107 -21.219   2.633  1.00 16.34 LIG 0.24  C 
ATOM     17  N   VAL B   8      22.331 -19.940   2.392  1.00 16.85 LIG-0.34  N 
ATOM     18 H    VAL B   8      21.904 -19.296   2.769  1.00 16.85 LIG 0.16  HD
ATOM     19 O    ALA B   7      22.693 -22.102   2.041  1.00 20.16 LIG-0.27  OA
BRANCH 17 20
ATOM     20  CA  VAL B   8      23.358 -19.516   1.431  1.00 17.28 LIG 0.19  C 
BRANCH 20 21
ATOM     21  C   VAL B   8      24.191 -18.407   2.064  1.00 17.19 LIG 0.20  C 
ATOM     22 O    VAL B   8      24.918 -17.689   1.341  1.00 24.30 LIG-0.65  OA
ATOM     23 OXT  VAL B   8      24.196 -18.225   3.302  1.00 16.53 LIG-0.65  OA
ENDBRANCH 20 21
BRANCH 20 24
ATOM     24  CB  VAL B   8      22.748 -19.056   0.070  1.00 17.38 LIG 0.01  C 
ATOM     25  CG2 VAL B   8      22.093 -17.690   0.242  1.00 18.61 LIG 0.01  C 
ATOM     26  CG1 VAL B   8      21.804 -20.096  -0.472  1.00 19.61 LIG 0.01  C 
ENDBRANCH 20 24
ENDBRANCH 17 20
ENDBRANCH 14 16
ENDBRANCH 12 14
ENDBRANCH 9 10
BRANCH 9 27
ATOM     27  CB  SER B   6      18.766 -23.994   0.850  1.00 25.59 LIG 0.20  C 
BRANCH 27 28
ATOM     28 OG   SER B   6      18.754 -25.399   0.974  1.00 27.26 LIG-0.40  OA
ATOM     29 HG   SER B   6      18.768 -25.609   1.788  1.00 27.26 LIG 0.21  HD
ENDBRANCH 27 28
ENDBRANCH 9 27
ENDBRANCH 7 9
ENDBRANCH 1 5
BRANCH 1 30
ATOM     30  N   VAL B   5      14.012 -23.120   2.343  1.00 22.92 LIG-0.35  N 
ATOM     31 H    VAL B   5      13.415 -23.119   1.724  1.00 22.92 LIG 0.16  HD
ATOM     32  C   GLN B   4      14.263 -24.178   3.099  1.00 24.29 LIG 0.24  C 
ATOM     33 O    GLN B   4      15.127 -24.230   3.952  1.00 26.90 LIG-0.27  OA
BRANCH 32 34
ATOM     34  CA  GLN B   4      13.378 -25.396   2.821  1.00 30.52 LIG 0.18  C 
BRANCH 34 35
ATOM     35  CB  GLN B   4      13.145 -26.129   4.141  1.00 36.61 LIG 0.04  C 
BRANCH 35 36
ATOM     36  CG  GLN B   4      11.769 -25.881   4.735  1.00 50.94 LIG 0.10  C 
BRANCH 36 37
ATOM     37  CD  GLN B   4      11.256 -24.491   4.368  1.00 60.90 LIG 0.21  C 
ATOM     38  NE2 GLN B   4      11.445 -23.522   5.261  1.00 82.36 LIG-0.37  N 
ATOM     39 21HE GLN B   4      11.834 -23.695   6.008  1.00 82.36 LIG 0.16  HD
ATOM     40 22HE GLN B   4      11.177 -22.722   5.091  1.00 82.36 LIG 0.16  HD
ATOM     41 OE1  GLN B   4      10.705 -24.298   3.287  1.00 55.22 LIG-0.27  OA
ENDBRANCH 36 37
ENDBRANCH 35 36
ENDBRANCH 34 35
BRANCH 34 42
ATOM     42  N   GLN B   4      14.009 -26.275   1.856  1.00 37.98 LIG-0.35  N 
ATOM     43  C   GLU B   3      13.970 -26.035   0.550  1.00 56.89 LIG 0.26  C 
ATOM     44 O    GLU B   3      13.347 -25.101   0.066  1.00 56.58 LIG-0.27  OA
ATOM     45 H    GLN B   4      14.403 -26.955   2.205  1.00 37.98 LIG 0.16  HD
BRANCH 43 46
ATOM     46  CA  GLU B   3      14.745 -27.005  -0.341  1.00 80.09 LIG 0.40  C 
ATOM     47  N   GLU B   3      15.094 -26.374  -1.606  1.00 75.44 LIG 0.61  N 
BRANCH 46 48
ATOM     48  CB  GLU B   3      16.010 -27.474   0.371  1.00107.85 LIG 0.06  C 
BRANCH 48 49
ATOM     49  CG  GLU B   3      15.931 -28.895   0.876  1.00114.95 LIG 0.12  C 
BRANCH 49 50
ATOM     50  CD  GLU B   3      14.509 -29.308   1.208  1.00 96.82 LIG 0.17  C 
ATOM     51 OE1  GLU B   3      14.152 -29.323   2.410  1.00 91.15 LIG-0.65  OA
ATOM     52 OE2  GLU B   3      13.742 -29.608   0.264  1.00 91.13 LIG-0.65  OA
ENDBRANCH 49 50
ENDBRANCH 48 49
ENDBRANCH 46 48
ENDBRANCH 43 46
ENDBRANCH 34 42
ENDBRANCH 32 34
ENDBRANCH 1 30
TORSDOF 21
ENDMDL
MODEL 76
USER: ADFR SOLUTION from run 134
USER: SCORE 14.910380 LL:  -4.732 LR: -12.752 RR:   0.000 FEB:  -6.488
USER: RMSD 12.591187
USER: SEED 133
USER: STATUS no improvement in best in 4 clusters for 5 generations
USER: GENES 23
USER: genes 0 Translation |==|  0.67594 0.47380 0.36069
USER: genes 1 Rotation |==|  0.52974 0.96473 0.67388 0.55395
USER: genes 2 Torsion [C]-CA--CB-[CG2] |==|  0.54397
USER: genes 3 Torsion [N]-CA--C-[N] |==|  0.44810
USER: genes 4 Torsion [C]-N--CA-[CB] |==|  0.27374
USER: genes 5 Torsion [N]-CA--C-[N] |==|  0.45001
USER: genes 6 Torsion [C]-N--CA-[CB] |==|  0.87723
USER: genes 7 Torsion [N]-CA--C-[N] |==|  0.87478
USER: genes 8 Torsion [C]-N--CA-[CB] |==|  0.20332
USER: genes 9 Torsion [N]-CA--C-[O] |==|  0.94692
USER: genes 10 Torsion [N]-CA--CB-[CG2] |==|  0.59547
USER: genes 11 Torsion [N]-CA--CB-[OG] |==|  0.98640
USER: genes 12 Torsion [CA]-CB--OG-[HG] |==|  0.89168
USER: genes 13 Torsion [CB]-CA--N-[C] |==|  0.42934
USER: genes 14 Torsion [N]-C--CA-[N] |==|  0.36890
USER: genes 15 Torsion [C]-CA--CB-[CG] |==|  0.07720
USER: genes 16 Torsion [CA]-CB--CG-[CD] |==|  0.72532
USER: genes 17 Torsion [CB]-CG--CD-[OE1] |==|  0.40083
USER: genes 18 Torsion [C]-CA--N-[C] |==|  0.82499
USER: genes 19 Torsion [N]-C--CA-[N] |==|  0.54698
USER: genes 20 Torsion [C]-CA--CB-[CG] |==|  0.20720
USER: genes 21 Torsion [CA]-CB--CG-[CD] |==|  0.14635
USER: genes 22 Torsion [CB]-CG--CD-[OE1] |==|  0.68911
ROOT
ATOM      1  CA  VAL B   5      17.471 -23.399   1.953  1.00 23.44 LIG 0.18  C 
ENDROOT
BRANCH 1 2
ATOM      2  CB  VAL B   5      17.371 -24.822   1.401  1.00 27.20 LIG 0.01  C 
ATOM      3  CG2 VAL B   5      18.518 -25.137   0.488  1.00 32.91 LIG 0.01  C 
ATOM      4  CG1 VAL B   5      16.045 -25.058   0.711  1.00 27.01 LIG 0.01  C 
ENDBRANCH 1 2
BRANCH 1 5
ATOM      5  C   VAL B   5      16.542 -23.242   3.151  1.00 21.98 LIG 0.24  C 
ATOM      6 O    VAL B   5      16.998 -23.327   4.288  1.00 26.26 LIG-0.27  OA
ATOM      7  N   SER B   6      15.240 -23.071   2.914  1.00 19.41 LIG-0.34  N 
ATOM      8 H    SER B   6      14.905 -23.075   2.122  1.00 19.41 LIG 0.16  HD
BRANCH 7 9
ATOM      9  CA  SER B   6      14.257 -22.864   3.955  1.00 20.84 LIG 0.20  C 
BRANCH 9 10
ATOM     10  C   SER B   6      12.961 -23.597   3.683  1.00 18.76 LIG 0.24  C 
ATOM     11 O    SER B   6      12.630 -23.929   2.560  1.00 19.89 LIG-0.27  OA
ATOM     12  N   ALA B   7      12.188 -23.754   4.731  1.00 19.53 LIG-0.35  N 
ATOM     13 H    ALA B   7      12.418 -23.492   5.517  1.00 19.53 LIG 0.16  HD
BRANCH 12 14
ATOM     14  CA  ALA B   7      10.871 -24.377   4.701  1.00 19.70 LIG 0.17  C 
ATOM     15  CB  ALA B   7      10.083 -23.849   3.489  1.00 20.39 LIG 0.04  C 
BRANCH 14 16
ATOM     16  C   ALA B   7      10.954 -25.888   4.572  1.00 16.34 LIG 0.24  C 
ATOM     17  N   VAL B   8      11.795 -26.388   3.687  1.00 16.85 LIG-0.34  N 
ATOM     18 H    VAL B   8      12.242 -25.915   3.125  1.00 16.85 LIG 0.16  HD
ATOM     19 O    ALA B   7      10.299 -26.591   5.314  1.00 20.16 LIG-0.27  OA
BRANCH 17 20
ATOM     20  CA  VAL B   8      12.034 -27.835   3.598  1.00 17.28 LIG 0.19  C 
BRANCH 20 21
ATOM     21  C   VAL B   8      13.318 -28.070   2.811  1.00 17.19 LIG 0.20  C 
ATOM     22 O    VAL B   8      13.769 -27.164   2.074  1.00 24.30 LIG-0.65  OA
ATOM     23 OXT  VAL B   8      13.912 -29.172   2.851  1.00 16.53 LIG-0.65  OA
ENDBRANCH 20 21
BRANCH 20 24
ATOM     24  CB  VAL B   8      10.833 -28.600   2.960  1.00 17.38 LIG 0.01  C 
ATOM     25  CG2 VAL B   8      10.702 -29.973   3.612  1.00 18.61 LIG 0.01  C 
ATOM     26  CG1 VAL B   8      10.980 -28.672   1.463  1.00 19.61 LIG 0.01  C 
ENDBRANCH 20 24
ENDBRANCH 17 20
ENDBRANCH 14 16
ENDBRANCH 12 14
ENDBRANCH 9 10
BRANCH 9 27
ATOM     27  CB  SER B   6      13.939 -21.382   4.105  1.00 25.59 LIG 0.20  C 
BRANCH 27 28
ATOM     28 OG   SER B   6      14.770 -20.611   3.265  1.00 27.26 LIG-0.40  OA
ATOM     29 HG   SER B   6      15.545 -20.936   3.263  1.00 27.26 LIG 0.21  HD
ENDBRANCH 27 28
ENDBRANCH 9 27
ENDBRANCH 7 9
ENDBRANCH 1 5
BRANCH 1 30
ATOM     30  N   VAL B   5      18.812 -23.122   2.415  1.00 22.92 LIG-0.35  N 
ATOM     31 H    VAL B   5      19.247 -23.828   2.644  1.00 22.92 LIG 0.16  HD
ATOM     32  C   GLN B   4      19.327 -21.905   2.482  1.00 24.29 LIG 0.24  C 
ATOM     33 O    GLN B   4      18.757 -20.892   2.127  1.00 26.90 LIG-0.27  OA
BRANCH 32 34
ATOM     34  CA  GLN B   4      20.750 -21.835   3.043  1.00 30.52 LIG 0.18  C 
BRANCH 34 35
ATOM     35  CB  GLN B   4      20.679 -21.269   4.460  1.00 36.61 LIG 0.04  C 
BRANCH 35 36
ATOM     36  CG  GLN B   4      19.361 -21.557   5.160  1.00 50.94 LIG 0.10  C 
BRANCH 36 37
ATOM     37  CD  GLN B   4      18.427 -20.352   5.085  1.00 60.90 LIG 0.21  C 
ATOM     38  NE2 GLN B   4      18.989 -19.146   5.146  1.00 82.36 LIG-0.37  N 
ATOM     39 21HE GLN B   4      19.841 -19.073   5.230  1.00 82.36 LIG 0.16  HD
ATOM     40 22HE GLN B   4      18.499 -18.441   5.101  1.00 82.36 LIG 0.16  HD
ATOM     41 OE1  GLN B   4      17.215 -20.514   4.966  1.00 55.22 LIG-0.27  OA
ENDBRANCH 36 37
ENDBRANCH 35 36
ENDBRANCH 34 35
BRANCH 34 42
ATOM     42  N   GLN B   4      21.587 -21.000   2.204  1.00 37.98 LIG-0.35  N 
ATOM     43  C   GLU B   3      21.854 -21.309   0.939  1.00 56.89 LIG 0.26  C 
ATOM     44 O    GLU B   3      21.472 -22.347   0.416  1.00 56.58 LIG-0.27  OA
ATOM     45 H    GLN B   4      21.889 -20.298   2.597  1.00 37.98 LIG 0.16  HD
BRANCH 43 46
ATOM     46  CA  GLU B   3      22.686 -20.296   0.154  1.00 80.09 LIG 0.40  C 
ATOM     47  N   GLU B   3      22.575 -20.538  -1.277  1.00 75.44 LIG 0.61  N 
BRANCH 46 48
ATOM     48  CB  GLU B   3      22.228 -18.878   0.479  1.00107.85 LIG 0.06  C 
BRANCH 48 49
ATOM     49  CG  GLU B   3      22.670 -18.393   1.839  1.00114.95 LIG 0.12  C 
BRANCH 49 50
ATOM     50  CD  GLU B   3      24.165 -18.547   2.046  1.00 96.82 LIG 0.17  C 
ATOM     51 OE1  GLU B   3      24.573 -19.383   2.886  1.00 91.15 LIG-0.65  OA
ATOM     52 OE2  GLU B   3      24.936 -17.839   1.356  1.00 91.13 LIG-0.65  OA
ENDBRANCH 49 50
ENDBRANCH 48 49
ENDBRANCH 46 48
ENDBRANCH 43 46
ENDBRANCH 34 42
ENDBRANCH 32 34
ENDBRANCH 1 30
TORSDOF 21
ENDMDL
MODEL 77
USER: ADFR SOLUTION from run 166
USER: SCORE 16.224048 LL:  -4.699 LR: -12.748 RR:   0.000 FEB:  -6.483
USER: RMSD 12.574362
USER: SEED 165
USER: STATUS no improvement in best in 9 clusters for 5 generations
USER: GENES 23
USER: genes 0 Translation |==|  0.56550 0.60905 0.45093
USER: genes 1 Rotation |==|  0.33335 0.46264 0.03203 0.54287
USER: genes 2 Torsion [C]-CA--CB-[CG2] |==|  0.23067
USER: genes 3 Torsion [N]-CA--C-[N] |==|  0.46968
USER: genes 4 Torsion [C]-N--CA-[CB] |==|  0.23304
USER: genes 5 Torsion [N]-CA--C-[N] |==|  0.01507
USER: genes 6 Torsion [C]-N--CA-[CB] |==|  0.86659
USER: genes 7 Torsion [N]-CA--C-[N] |==|  0.87407
USER: genes 8 Torsion [C]-N--CA-[CB] |==|  0.31935
USER: genes 9 Torsion [N]-CA--C-[O] |==|  0.54867
USER: genes 10 Torsion [N]-CA--CB-[CG2] |==|  0.01388
USER: genes 11 Torsion [N]-CA--CB-[OG] |==|  0.84237
USER: genes 12 Torsion [CA]-CB--OG-[HG] |==|  0.19334
USER: genes 13 Torsion [CB]-CA--N-[C] |==|  0.50556
USER: genes 14 Torsion [N]-C--CA-[N] |==|  0.34105
USER: genes 15 Torsion [C]-CA--CB-[CG] |==|  0.62092
USER: genes 16 Torsion [CA]-CB--CG-[CD] |==|  0.81463
USER: genes 17 Torsion [CB]-CG--CD-[OE1] |==|  0.90134
USER: genes 18 Torsion [C]-CA--N-[C] |==|  0.74837
USER: genes 19 Torsion [N]-C--CA-[N] |==|  0.13863
USER: genes 20 Torsion [C]-CA--CB-[CG] |==|  0.85207
USER: genes 21 Torsion [CA]-CB--CG-[CD] |==|  0.78765
USER: genes 22 Torsion [CB]-CG--CD-[OE1] |==|  0.22673
ROOT
ATOM      1  CA  VAL B   5      14.158 -21.066   3.510  1.00 23.44 LIG 0.18  C 
ENDROOT
BRANCH 1 2
ATOM      2  CB  VAL B   5      13.598 -19.761   2.942  1.00 27.20 LIG 0.01  C 
ATOM      3  CG2 VAL B   5      12.664 -19.099   3.910  1.00 32.91 LIG 0.01  C 
ATOM      4  CG1 VAL B   5      12.930 -19.979   1.602  1.00 27.01 LIG 0.01  C 
ENDBRANCH 1 2
BRANCH 1 5
ATOM      5  C   VAL B   5      13.163 -22.198   3.281  1.00 21.98 LIG 0.24  C 
ATOM      6 O    VAL B   5      13.396 -23.049   2.427  1.00 26.26 LIG-0.27  OA
ATOM      7  N   SER B   6      12.033 -22.189   3.992  1.00 19.41 LIG-0.34  N 
ATOM      8 H    SER B   6      11.834 -21.562   4.545  1.00 19.41 LIG 0.16  HD
BRANCH 7 9
ATOM      9  CA  SER B   6      11.028 -23.225   3.908  1.00 20.84 LIG 0.20  C 
BRANCH 9 10
ATOM     10  C   SER B   6       9.652 -22.732   4.302  1.00 18.76 LIG 0.24  C 
ATOM     11 O    SER B   6       8.680 -23.464   4.304  1.00 19.89 LIG-0.27  OA
ATOM     12  N   ALA B   7       9.576 -21.444   4.540  1.00 19.53 LIG-0.35  N 
ATOM     13 H    ALA B   7      10.264 -20.929   4.510  1.00 19.53 LIG 0.16  HD
BRANCH 12 14
ATOM     14  CA  ALA B   7       8.349 -20.736   4.879  1.00 19.70 LIG 0.17  C 
ATOM     15  CB  ALA B   7       7.238 -21.137   3.892  1.00 20.39 LIG 0.04  C 
BRANCH 14 16
ATOM     16  C   ALA B   7       7.861 -21.070   6.278  1.00 16.34 LIG 0.24  C 
ATOM     17  N   VAL B   8       7.855 -22.338   6.645  1.00 16.85 LIG-0.34  N 
ATOM     18 H    VAL B   8       8.034 -22.994   6.118  1.00 16.85 LIG 0.16  HD
ATOM     19 O    ALA B   7       7.550 -20.174   7.036  1.00 20.16 LIG-0.27  OA
BRANCH 17 20
ATOM     20  CA  VAL B   8       7.530 -22.729   8.023  1.00 17.28 LIG 0.19  C 
BRANCH 20 21
ATOM     21  C   VAL B   8       8.709 -23.502   8.602  1.00 17.19 LIG 0.20  C 
ATOM     22 O    VAL B   8       8.545 -24.210   9.622  1.00 24.30 LIG-0.65  OA
ATOM     23 OXT  VAL B   8       9.854 -23.411   8.104  1.00 16.53 LIG-0.65  OA
ENDBRANCH 20 21
BRANCH 20 24
ATOM     24  CB  VAL B   8       6.212 -23.560   8.113  1.00 17.38 LIG 0.01  C 
ATOM     25  CG2 VAL B   8       5.690 -23.840   6.708  1.00 18.61 LIG 0.01  C 
ATOM     26  CG1 VAL B   8       5.201 -22.866   8.988  1.00 19.61 LIG 0.01  C 
ENDBRANCH 20 24
ENDBRANCH 17 20
ENDBRANCH 14 16
ENDBRANCH 12 14
ENDBRANCH 9 10
BRANCH 9 27
ATOM     27  CB  SER B   6      11.386 -24.396   4.813  1.00 25.59 LIG 0.20  C 
BRANCH 27 28
ATOM     28 OG   SER B   6      12.661 -24.903   4.484  1.00 27.26 LIG-0.40  OA
ATOM     29 HG   SER B   6      13.250 -24.345   4.702  1.00 27.26 LIG 0.21  HD
ENDBRANCH 27 28
ENDBRANCH 9 27
ENDBRANCH 7 9
ENDBRANCH 1 5
BRANCH 1 30
ATOM     30  N   VAL B   5      15.382 -21.434   2.837  1.00 22.92 LIG-0.35  N 
ATOM     31 H    VAL B   5      15.631 -20.862   2.244  1.00 22.92 LIG 0.16  HD
ATOM     32  C   GLN B   4      16.060 -22.539   3.102  1.00 24.29 LIG 0.24  C 
ATOM     33 O    GLN B   4      15.762 -23.345   3.960  1.00 26.90 LIG-0.27  OA
BRANCH 32 34
ATOM     34  CA  GLN B   4      17.307 -22.755   2.240  1.00 30.52 LIG 0.18  C 
BRANCH 34 35
ATOM     35  CB  GLN B   4      17.099 -24.016   1.403  1.00 36.61 LIG 0.04  C 
BRANCH 35 36
ATOM     36  CG  GLN B   4      18.320 -24.918   1.355  1.00 50.94 LIG 0.10  C 
BRANCH 36 37
ATOM     37  CD  GLN B   4      19.468 -24.248   0.605  1.00 60.90 LIG 0.21  C 
ATOM     38  NE2 GLN B   4      20.702 -24.494   1.042  1.00 82.36 LIG-0.37  N 
ATOM     39 21HE GLN B   4      20.822 -25.005   1.723  1.00 82.36 LIG 0.16  HD
ATOM     40 22HE GLN B   4      21.378 -24.142   0.643  1.00 82.36 LIG 0.16  HD
ATOM     41 OE1  GLN B   4      19.239 -23.526  -0.362  1.00 55.22 LIG-0.27  OA
ENDBRANCH 36 37
ENDBRANCH 35 36
ENDBRANCH 34 35
BRANCH 34 42
ATOM     42  N   GLN B   4      18.486 -22.888   3.074  1.00 37.98 LIG-0.35  N 
ATOM     43  C   GLU B   3      19.227 -21.842   3.424  1.00 56.89 LIG 0.26  C 
ATOM     44 O    GLU B   3      19.010 -20.710   3.014  1.00 56.58 LIG-0.27  OA
ATOM     45 H    GLN B   4      18.655 -23.696   3.316  1.00 37.98 LIG 0.16  HD
BRANCH 43 46
ATOM     46  CA  GLU B   3      20.393 -22.123   4.369  1.00 80.09 LIG 0.40  C 
ATOM     47  N   GLU B   3      21.195 -23.237   3.881  1.00 75.44 LIG 0.61  N 
BRANCH 46 48
ATOM     48  CB  GLU B   3      21.264 -20.879   4.511  1.00107.85 LIG 0.06  C 
BRANCH 48 49
ATOM     49  CG  GLU B   3      21.727 -20.308   3.192  1.00114.95 LIG 0.12  C 
BRANCH 49 50
ATOM     50  CD  GLU B   3      22.857 -21.115   2.582  1.00 96.82 LIG 0.17  C 
ATOM     51 OE1  GLU B   3      22.575 -22.155   1.942  1.00 91.15 LIG-0.65  OA
ATOM     52 OE2  GLU B   3      24.031 -20.702   2.731  1.00 91.13 LIG-0.65  OA
ENDBRANCH 49 50
ENDBRANCH 48 49
ENDBRANCH 46 48
ENDBRANCH 43 46
ENDBRANCH 34 42
ENDBRANCH 32 34
ENDBRANCH 1 30
TORSDOF 21
ENDMDL
MODEL 78
USER: ADFR SOLUTION from run 173
USER: SCORE 17.139923 LL:  -6.042 LR: -12.729 RR:   0.000 FEB:  -6.465
USER: RMSD 11.983189
USER: SEED 172
USER: STATUS no improvement in best in 5 clusters for 5 generations
USER: GENES 23
USER: genes 0 Translation |==|  0.69726 0.53335 0.51710
USER: genes 1 Rotation |==|  0.38593 0.61796 0.04221 0.61619
USER: genes 2 Torsion [C]-CA--CB-[CG2] |==|  0.96477
USER: genes 3 Torsion [N]-CA--C-[N] |==|  0.95210
USER: genes 4 Torsion [C]-N--CA-[CB] |==|  0.77089
USER: genes 5 Torsion [N]-CA--C-[N] |==|  0.11477
USER: genes 6 Torsion [C]-N--CA-[CB] |==|  0.86467
USER: genes 7 Torsion [N]-CA--C-[N] |==|  0.85577
USER: genes 8 Torsion [C]-N--CA-[CB] |==|  0.17711
USER: genes 9 Torsion [N]-CA--C-[O] |==|  0.44537
USER: genes 10 Torsion [N]-CA--CB-[CG2] |==|  0.59644
USER: genes 11 Torsion [N]-CA--CB-[OG] |==|  0.87401
USER: genes 12 Torsion [CA]-CB--OG-[HG] |==|  0.15385
USER: genes 13 Torsion [CB]-CA--N-[C] |==|  0.26106
USER: genes 14 Torsion [N]-C--CA-[N] |==|  0.98086
USER: genes 15 Torsion [C]-CA--CB-[CG] |==|  0.68998
USER: genes 16 Torsion [CA]-CB--CG-[CD] |==|  0.76765
USER: genes 17 Torsion [CB]-CG--CD-[OE1] |==|  0.94724
USER: genes 18 Torsion [C]-CA--N-[C] |==|  0.74444
USER: genes 19 Torsion [N]-C--CA-[N] |==|  0.73116
USER: genes 20 Torsion [C]-CA--CB-[CG] |==|  0.69299
USER: genes 21 Torsion [CA]-CB--CG-[CD] |==|  0.16817
USER: genes 22 Torsion [CB]-CG--CD-[OE1] |==|  0.64818
ROOT
ATOM      1  CA  VAL B   5      18.111 -22.372   4.651  1.00 23.44 LIG 0.18  C 
ENDROOT
BRANCH 1 2
ATOM      2  CB  VAL B   5      17.442 -21.039   4.991  1.00 27.20 LIG 0.01  C 
ATOM      3  CG2 VAL B   5      16.352 -20.709   4.016  1.00 32.91 LIG 0.01  C 
ATOM      4  CG1 VAL B   5      18.453 -19.916   5.078  1.00 27.01 LIG 0.01  C 
ENDBRANCH 1 2
BRANCH 1 5
ATOM      5  C   VAL B   5      17.276 -23.121   3.619  1.00 21.98 LIG 0.24  C 
ATOM      6 O    VAL B   5      16.280 -23.743   3.978  1.00 26.26 LIG-0.27  OA
ATOM      7  N   SER B   6      17.699 -23.118   2.352  1.00 19.41 LIG-0.34  N 
ATOM      8 H    SER B   6      18.430 -22.738   2.105  1.00 19.41 LIG 0.16  HD
BRANCH 7 9
ATOM      9  CA  SER B   6      16.980 -23.748   1.267  1.00 20.84 LIG 0.20  C 
BRANCH 9 10
ATOM     10  C   SER B   6      15.481 -23.579   1.390  1.00 18.76 LIG 0.24  C 
ATOM     11 O    SER B   6      14.703 -24.457   1.064  1.00 19.89 LIG-0.27  OA
ATOM     12  N   ALA B   7      15.090 -22.387   1.777  1.00 19.53 LIG-0.35  N 
ATOM     13 H    ALA B   7      15.646 -21.764   1.979  1.00 19.53 LIG 0.16  HD
BRANCH 12 14
ATOM     14  CA  ALA B   7      13.699 -21.976   1.910  1.00 19.70 LIG 0.17  C 
ATOM     15  CB  ALA B   7      12.926 -22.364   0.637  1.00 20.39 LIG 0.04  C 
BRANCH 14 16
ATOM     16  C   ALA B   7      13.013 -22.646   3.086  1.00 16.34 LIG 0.24  C 
ATOM     17  N   VAL B   8      13.085 -23.961   3.177  1.00 16.85 LIG-0.34  N 
ATOM     18 H    VAL B   8      13.427 -24.469   2.574  1.00 16.85 LIG 0.16  HD
ATOM     19 O    ALA B   7      12.472 -21.966   3.935  1.00 20.16 LIG-0.27  OA
BRANCH 17 20
ATOM     20  CA  VAL B   8      12.567 -24.671   4.355  1.00 17.28 LIG 0.19  C 
BRANCH 20 21
ATOM     21  C   VAL B   8      12.955 -26.141   4.249  1.00 17.19 LIG 0.20  C 
ATOM     22 O    VAL B   8      12.955 -26.858   5.275  1.00 24.30 LIG-0.65  OA
ATOM     23 OXT  VAL B   8      13.318 -26.641   3.159  1.00 16.53 LIG-0.65  OA
ENDBRANCH 20 21
BRANCH 20 24
ATOM     24  CB  VAL B   8      11.023 -24.507   4.521  1.00 17.38 LIG 0.01  C 
ATOM     25  CG2 VAL B   8      10.675 -24.454   6.004  1.00 18.61 LIG 0.01  C 
ATOM     26  CG1 VAL B   8      10.288 -25.594   3.783  1.00 19.61 LIG 0.01  C 
ENDBRANCH 20 24
ENDBRANCH 17 20
ENDBRANCH 14 16
ENDBRANCH 12 14
ENDBRANCH 9 10
BRANCH 9 27
ATOM     27  CB  SER B   6      17.284 -25.239   1.216  1.00 25.59 LIG 0.20  C 
BRANCH 27 28
ATOM     28 OG   SER B   6      18.669 -25.465   1.355  1.00 27.26 LIG-0.40  OA
ATOM     29 HG   SER B   6      18.943 -25.104   2.063  1.00 27.26 LIG 0.21  HD
ENDBRANCH 27 28
ENDBRANCH 9 27
ENDBRANCH 7 9
ENDBRANCH 1 5
BRANCH 1 30
ATOM     30  N   VAL B   5      19.415 -22.156   4.068  1.00 22.92 LIG-0.35  N 
ATOM     31 H    VAL B   5      19.392 -22.031   3.217  1.00 22.92 LIG 0.16  HD
ATOM     32  C   GLN B   4      20.539 -22.151   4.767  1.00 24.29 LIG 0.24  C 
ATOM     33 O    GLN B   4      20.603 -22.283   5.974  1.00 26.90 LIG-0.27  OA
BRANCH 32 34
ATOM     34  CA  GLN B   4      21.813 -21.948   3.944  1.00 30.52 LIG 0.18  C 
BRANCH 34 35
ATOM     35  CB  GLN B   4      22.434 -20.611   4.344  1.00 36.61 LIG 0.04  C 
BRANCH 35 36
ATOM     36  CG  GLN B   4      22.370 -19.563   3.247  1.00 50.94 LIG 0.10  C 
BRANCH 36 37
ATOM     37  CD  GLN B   4      23.528 -19.724   2.266  1.00 60.90 LIG 0.21  C 
ATOM     38  NE2 GLN B   4      23.398 -19.141   1.075  1.00 82.36 LIG-0.37  N 
ATOM     39 21HE GLN B   4      22.682 -18.705   0.886  1.00 82.36 LIG 0.16  HD
ATOM     40 22HE GLN B   4      24.031 -19.202   0.496  1.00 82.36 LIG 0.16  HD
ATOM     41 OE1  GLN B   4      24.530 -20.358   2.588  1.00 55.22 LIG-0.27  OA
ENDBRANCH 36 37
ENDBRANCH 35 36
ENDBRANCH 34 35
BRANCH 34 42
ATOM     42  N   GLN B   4      21.510 -21.963   2.526  1.00 37.98 LIG-0.35  N 
ATOM     43  C   GLU B   3      21.564 -23.077   1.803  1.00 56.89 LIG 0.26  C 
ATOM     44 O    GLU B   3      21.936 -24.148   2.263  1.00 56.58 LIG-0.27  OA
ATOM     45 H    GLN B   4      21.297 -21.195   2.204  1.00 37.98 LIG 0.16  HD
BRANCH 43 46
ATOM     46  CA  GLU B   3      21.143 -22.957   0.339  1.00 80.09 LIG 0.40  C 
ATOM     47  N   GLU B   3      19.754 -23.357   0.169  1.00 75.44 LIG 0.61  N 
BRANCH 46 48
ATOM     48  CB  GLU B   3      21.334 -21.523  -0.144  1.00107.85 LIG 0.06  C 
BRANCH 48 49
ATOM     49  CG  GLU B   3      20.039 -20.792  -0.405  1.00114.95 LIG 0.12  C 
BRANCH 49 50
ATOM     50  CD  GLU B   3      19.180 -20.684   0.841  1.00 96.82 LIG 0.17  C 
ATOM     51 OE1  GLU B   3      17.992 -21.082   0.788  1.00 91.15 LIG-0.65  OA
ATOM     52 OE2  GLU B   3      19.697 -20.212   1.880  1.00 91.13 LIG-0.65  OA
ENDBRANCH 49 50
ENDBRANCH 48 49
ENDBRANCH 46 48
ENDBRANCH 43 46
ENDBRANCH 34 42
ENDBRANCH 32 34
ENDBRANCH 1 30
TORSDOF 21
ENDMDL
MODEL 79
USER: ADFR SOLUTION from run 25
USER: SCORE 15.318424 LL:  -5.602 LR: -12.731 RR:   0.000 FEB:  -6.466
USER: RMSD 6.893970
USER: SEED 24
USER: STATUS 1 or 2 clusters left
USER: GENES 23
USER: genes 0 Translation |==|  0.66731 0.48724 0.38164
USER: genes 1 Rotation |==|  0.84822 0.38441 0.50917 0.83956
USER: genes 2 Torsion [C]-CA--CB-[CG2] |==|  0.45308
USER: genes 3 Torsion [N]-CA--C-[N] |==|  0.80836
USER: genes 4 Torsion [C]-N--CA-[CB] |==|  0.85794
USER: genes 5 Torsion [N]-CA--C-[N] |==|  0.90504
USER: genes 6 Torsion [C]-N--CA-[CB] |==|  0.45530
USER: genes 7 Torsion [N]-CA--C-[N] |==|  0.21912
USER: genes 8 Torsion [C]-N--CA-[CB] |==|  0.22391
USER: genes 9 Torsion [N]-CA--C-[O] |==|  0.50092
USER: genes 10 Torsion [N]-CA--CB-[CG2] |==|  0.05071
USER: genes 11 Torsion [N]-CA--CB-[OG] |==|  0.27147
USER: genes 12 Torsion [CA]-CB--OG-[HG] |==|  0.86593
USER: genes 13 Torsion [CB]-CA--N-[C] |==|  0.53622
USER: genes 14 Torsion [N]-C--CA-[N] |==|  0.37140
USER: genes 15 Torsion [C]-CA--CB-[CG] |==|  0.40166
USER: genes 16 Torsion [CA]-CB--CG-[CD] |==|  0.85264
USER: genes 17 Torsion [CB]-CG--CD-[OE1] |==|  0.74137
USER: genes 18 Torsion [C]-CA--N-[C] |==|  0.65199
USER: genes 19 Torsion [N]-C--CA-[N] |==|  0.54909
USER: genes 20 Torsion [C]-CA--CB-[CG] |==|  0.84145
USER: genes 21 Torsion [CA]-CB--CG-[CD] |==|  0.75696
USER: genes 22 Torsion [CB]-CG--CD-[OE1] |==|  0.02744
ROOT
ATOM      1  CA  VAL B   5      17.212 -23.167   2.314  1.00 23.44 LIG 0.18  C 
ENDROOT
BRANCH 1 2
ATOM      2  CB  VAL B   5      17.790 -22.689   0.981  1.00 27.20 LIG 0.01  C 
ATOM      3  CG2 VAL B   5      17.503 -23.665  -0.121  1.00 32.91 LIG 0.01  C 
ATOM      4  CG1 VAL B   5      19.273 -22.408   1.087  1.00 27.01 LIG 0.01  C 
ENDBRANCH 1 2
BRANCH 1 5
ATOM      5  C   VAL B   5      17.859 -22.401   3.463  1.00 21.98 LIG 0.24  C 
ATOM      6 O    VAL B   5      18.297 -23.014   4.432  1.00 26.26 LIG-0.27  OA
ATOM      7  N   SER B   6      17.872 -21.068   3.395  1.00 19.41 LIG-0.34  N 
ATOM      8 H    SER B   6      17.509 -20.630   2.750  1.00 19.41 LIG 0.16  HD
BRANCH 7 9
ATOM      9  CA  SER B   6      18.492 -20.222   4.391  1.00 20.84 LIG 0.20  C 
BRANCH 9 10
ATOM     10  C   SER B   6      20.002 -20.319   4.374  1.00 18.76 LIG 0.24  C 
ATOM     11 O    SER B   6      20.714 -19.345   4.539  1.00 19.89 LIG-0.27  OA
ATOM     12  N   ALA B   7      20.475 -21.505   4.072  1.00 19.53 LIG-0.35  N 
ATOM     13 H    ALA B   7      19.965 -22.182   3.930  1.00 19.53 LIG 0.16  HD
BRANCH 12 14
ATOM     14  CA  ALA B   7      21.892 -21.822   3.940  1.00 19.70 LIG 0.17  C 
ATOM     15  CB  ALA B   7      22.080 -23.349   3.981  1.00 20.39 LIG 0.04  C 
BRANCH 14 16
ATOM     16  C   ALA B   7      22.471 -21.323   2.628  1.00 16.34 LIG 0.24  C 
ATOM     17  N   VAL B   8      22.775 -20.042   2.533  1.00 16.85 LIG-0.34  N 
ATOM     18 H    VAL B   8      22.595 -19.457   3.137  1.00 16.85 LIG 0.16  HD
ATOM     19 O    ALA B   7      22.693 -22.111   1.731  1.00 20.16 LIG-0.27  OA
BRANCH 17 20
ATOM     20  CA  VAL B   8      23.465 -19.511   1.350  1.00 17.28 LIG 0.19  C 
BRANCH 20 21
ATOM     21  C   VAL B   8      24.197 -18.233   1.745  1.00 17.19 LIG 0.20  C 
ATOM     22 O    VAL B   8      24.852 -17.602   0.884  1.00 24.30 LIG-0.65  OA
ATOM     23 OXT  VAL B   8      24.193 -17.820   2.927  1.00 16.53 LIG-0.65  OA
ENDBRANCH 20 21
BRANCH 20 24
ATOM     24  CB  VAL B   8      22.493 -19.257   0.155  1.00 17.38 LIG 0.01  C 
ATOM     25  CG2 VAL B   8      21.059 -19.198   0.670  1.00 18.61 LIG 0.01  C 
ATOM     26  CG1 VAL B   8      22.689 -20.292  -0.921  1.00 19.61 LIG 0.01  C 
ENDBRANCH 20 24
ENDBRANCH 17 20
ENDBRANCH 14 16
ENDBRANCH 12 14
ENDBRANCH 9 10
BRANCH 9 27
ATOM     27  CB  SER B   6      18.011 -20.595   5.787  1.00 25.59 LIG 0.20  C 
BRANCH 27 28
ATOM     28 OG   SER B   6      18.943 -21.443   6.420  1.00 27.26 LIG-0.40  OA
ATOM     29 HG   SER B   6      19.158 -22.064   5.897  1.00 27.26 LIG 0.21  HD
ENDBRANCH 27 28
ENDBRANCH 9 27
ENDBRANCH 7 9
ENDBRANCH 1 5
BRANCH 1 30
ATOM     30  N   VAL B   5      15.792 -22.911   2.378  1.00 22.92 LIG-0.35  N 
ATOM     31 H    VAL B   5      15.448 -22.701   1.618  1.00 22.92 LIG 0.16  HD
ATOM     32  C   GLN B   4      15.083 -22.988   3.493  1.00 24.29 LIG 0.24  C 
ATOM     33 O    GLN B   4      15.527 -23.322   4.574  1.00 26.90 LIG-0.27  OA
BRANCH 32 34
ATOM     34  CA  GLN B   4      13.601 -22.633   3.344  1.00 30.52 LIG 0.18  C 
BRANCH 34 35
ATOM     35  CB  GLN B   4      13.378 -21.247   3.944  1.00 36.61 LIG 0.04  C 
BRANCH 35 36
ATOM     36  CG  GLN B   4      12.339 -20.426   3.198  1.00 50.94 LIG 0.10  C 
BRANCH 36 37
ATOM     37  CD  GLN B   4      12.663 -20.354   1.709  1.00 60.90 LIG 0.21  C 
ATOM     38  NE2 GLN B   4      12.195 -21.336   0.940  1.00 82.36 LIG-0.37  N 
ATOM     39 21HE GLN B   4      11.739 -21.976   1.289  1.00 82.36 LIG 0.16  HD
ATOM     40 22HE GLN B   4      12.349 -21.331   0.093  1.00 82.36 LIG 0.16  HD
ATOM     41 OE1  GLN B   4      13.320 -19.418   1.261  1.00 55.22 LIG-0.27  OA
ENDBRANCH 36 37
ENDBRANCH 35 36
ENDBRANCH 34 35
BRANCH 34 42
ATOM     42  N   GLN B   4      12.772 -23.616   4.012  1.00 37.98 LIG-0.35  N 
ATOM     43  C   GLU B   3      11.795 -24.263   3.385  1.00 56.89 LIG 0.26  C 
ATOM     44 O    GLU B   3      11.483 -24.027   2.226  1.00 56.58 LIG-0.27  OA
ATOM     45 H    GLN B   4      12.970 -23.738   4.840  1.00 37.98 LIG 0.16  HD
BRANCH 43 46
ATOM     46  CA  GLU B   3      11.056 -25.327   4.194  1.00 80.09 LIG 0.40  C 
ATOM     47  N   GLU B   3      10.324 -26.227   3.314  1.00 75.44 LIG 0.61  N 
BRANCH 46 48
ATOM     48  CB  GLU B   3      12.044 -26.119   5.043  1.00107.85 LIG 0.06  C 
BRANCH 48 49
ATOM     49  CG  GLU B   3      13.142 -26.778   4.242  1.00114.95 LIG 0.12  C 
BRANCH 49 50
ATOM     50  CD  GLU B   3      12.741 -28.152   3.740  1.00 96.82 LIG 0.17  C 
ATOM     51 OE1  GLU B   3      11.545 -28.510   3.858  1.00 91.15 LIG-0.65  OA
ATOM     52 OE2  GLU B   3      13.621 -28.873   3.214  1.00 91.13 LIG-0.65  OA
ENDBRANCH 49 50
ENDBRANCH 48 49
ENDBRANCH 46 48
ENDBRANCH 43 46
ENDBRANCH 34 42
ENDBRANCH 32 34
ENDBRANCH 1 30
TORSDOF 21
ENDMDL
MODEL 80
USER: ADFR SOLUTION from run 55
USER: SCORE 14.175611 LL:  -4.875 LR: -12.731 RR:   0.000 FEB:  -6.467
USER: RMSD 11.752921
USER: SEED 54
USER: STATUS no improvement in best in 3 clusters for 5 generations
USER: GENES 23
USER: genes 0 Translation |==|  0.75254 0.53258 0.52128
USER: genes 1 Rotation |==|  0.72450 0.20928 0.83228 0.56836
USER: genes 2 Torsion [C]-CA--CB-[CG2] |==|  0.71264
USER: genes 3 Torsion [N]-CA--C-[N] |==|  0.19902
USER: genes 4 Torsion [C]-N--CA-[CB] |==|  0.18800
USER: genes 5 Torsion [N]-CA--C-[N] |==|  0.40217
USER: genes 6 Torsion [C]-N--CA-[CB] |==|  0.61041
USER: genes 7 Torsion [N]-CA--C-[N] |==|  0.30927
USER: genes 8 Torsion [C]-N--CA-[CB] |==|  0.23016
USER: genes 9 Torsion [N]-CA--C-[O] |==|  0.39762
USER: genes 10 Torsion [N]-CA--CB-[CG2] |==|  0.73274
USER: genes 11 Torsion [N]-CA--CB-[OG] |==|  0.57220
USER: genes 12 Torsion [CA]-CB--OG-[HG] |==|  0.20784
USER: genes 13 Torsion [CB]-CA--N-[C] |==|  0.23333
USER: genes 14 Torsion [N]-C--CA-[N] |==|  0.78972
USER: genes 15 Torsion [C]-CA--CB-[CG] |==|  0.31931
USER: genes 16 Torsion [CA]-CB--CG-[CD] |==|  0.77592
USER: genes 17 Torsion [CB]-CG--CD-[OE1] |==|  0.06816
USER: genes 18 Torsion [C]-CA--N-[C] |==|  0.84573
USER: genes 19 Torsion [N]-C--CA-[N] |==|  0.58500
USER: genes 20 Torsion [C]-CA--CB-[CG] |==|  0.85244
USER: genes 21 Torsion [CA]-CB--CG-[CD] |==|  0.36018
USER: genes 22 Torsion [CB]-CG--CD-[OE1] |==|  0.13435
ROOT
ATOM      1  CA  VAL B   5      19.769 -22.385   4.723  1.00 23.44 LIG 0.18  C 
ENDROOT
BRANCH 1 2
ATOM      2  CB  VAL B   5      20.596 -21.481   5.638  1.00 27.20 LIG 0.01  C 
ATOM      3  CG2 VAL B   5      21.349 -20.448   4.853  1.00 32.91 LIG 0.01  C 
ATOM      4  CG1 VAL B   5      21.531 -22.284   6.517  1.00 27.01 LIG 0.01  C 
ENDBRANCH 1 2
BRANCH 1 5
ATOM      5  C   VAL B   5      18.299 -21.986   4.793  1.00 21.98 LIG 0.24  C 
ATOM      6 O    VAL B   5      17.976 -20.957   5.379  1.00 26.26 LIG-0.27  OA
ATOM      7  N   SER B   6      17.402 -22.814   4.254  1.00 19.41 LIG-0.34  N 
ATOM      8 H    SER B   6      17.615 -23.567   3.899  1.00 19.41 LIG 0.16  HD
BRANCH 7 9
ATOM      9  CA  SER B   6      15.983 -22.536   4.209  1.00 20.84 LIG 0.20  C 
BRANCH 9 10
ATOM     10  C   SER B   6      15.174 -23.725   3.736  1.00 18.76 LIG 0.24  C 
ATOM     11 O    SER B   6      15.553 -24.445   2.831  1.00 19.89 LIG-0.27  OA
ATOM     12  N   ALA B   7      14.000 -23.854   4.306  1.00 19.53 LIG-0.35  N 
ATOM     13 H    ALA B   7      13.728 -23.324   4.927  1.00 19.53 LIG 0.16  HD
BRANCH 12 14
ATOM     14  CA  ALA B   7      13.026 -24.886   3.972  1.00 19.70 LIG 0.17  C 
ATOM     15  CB  ALA B   7      11.613 -24.277   3.980  1.00 20.39 LIG 0.04  C 
BRANCH 14 16
ATOM     16  C   ALA B   7      13.265 -25.474   2.593  1.00 16.34 LIG 0.24  C 
ATOM     17  N   VAL B   8      13.679 -26.724   2.516  1.00 16.85 LIG-0.34  N 
ATOM     18 H    VAL B   8      13.897 -27.203   3.196  1.00 16.85 LIG 0.16  HD
ATOM     19 O    ALA B   7      13.018 -24.811   1.606  1.00 20.16 LIG-0.27  OA
BRANCH 17 20
ATOM     20  CA  VAL B   8      13.801 -27.407   1.221  1.00 17.28 LIG 0.19  C 
BRANCH 20 21
ATOM     21  C   VAL B   8      13.644 -28.907   1.443  1.00 17.19 LIG 0.20  C 
ATOM     22 O    VAL B   8      13.042 -29.601   0.592  1.00 24.30 LIG-0.65  OA
ATOM     23 OXT  VAL B   8      14.068 -29.458   2.485  1.00 16.53 LIG-0.65  OA
ENDBRANCH 20 21
BRANCH 20 24
ATOM     24  CB  VAL B   8      15.145 -27.082   0.498  1.00 17.38 LIG 0.01  C 
ATOM     25  CG2 VAL B   8      14.924 -25.953  -0.502  1.00 18.61 LIG 0.01  C 
ATOM     26  CG1 VAL B   8      15.725 -28.320  -0.133  1.00 19.61 LIG 0.01  C 
ENDBRANCH 20 24
ENDBRANCH 17 20
ENDBRANCH 14 16
ENDBRANCH 12 14
ENDBRANCH 9 10
BRANCH 9 27
ATOM     27  CB  SER B   6      15.694 -21.367   3.277  1.00 25.59 LIG 0.20  C 
BRANCH 27 28
ATOM     28 OG   SER B   6      14.498 -20.720   3.653  1.00 27.26 LIG-0.40  OA
ATOM     29 HG   SER B   6      14.633 -20.261   4.344  1.00 27.26 LIG 0.21  HD
ENDBRANCH 27 28
ENDBRANCH 9 27
ENDBRANCH 7 9
ENDBRANCH 1 5
BRANCH 1 30
ATOM     30  N   VAL B   5      20.185 -22.239   3.347  1.00 22.92 LIG-0.35  N 
ATOM     31 H    VAL B   5      19.703 -21.682   2.902  1.00 22.92 LIG 0.16  HD
ATOM     32  C   GLN B   4      21.206 -22.893   2.816  1.00 24.29 LIG 0.24  C 
ATOM     33 O    GLN B   4      21.933 -23.652   3.426  1.00 26.90 LIG-0.27  OA
BRANCH 32 34
ATOM     34  CA  GLN B   4      21.445 -22.622   1.329  1.00 30.52 LIG 0.18  C 
BRANCH 34 35
ATOM     35  CB  GLN B   4      21.359 -21.114   1.097  1.00 36.61 LIG 0.04  C 
BRANCH 35 36
ATOM     36  CG  GLN B   4      22.673 -20.496   0.652  1.00 50.94 LIG 0.10  C 
BRANCH 36 37
ATOM     37  CD  GLN B   4      23.596 -20.253   1.842  1.00 60.90 LIG 0.21  C 
ATOM     38  NE2 GLN B   4      24.512 -19.295   1.712  1.00 82.36 LIG-0.37  N 
ATOM     39 21HE GLN B   4      24.568 -18.850   0.979  1.00 82.36 LIG 0.16  HD
ATOM     40 22HE GLN B   4      25.049 -19.121   2.362  1.00 82.36 LIG 0.16  HD
ATOM     41 OE1  GLN B   4      23.474 -20.919   2.868  1.00 55.22 LIG-0.27  OA
ENDBRANCH 36 37
ENDBRANCH 35 36
ENDBRANCH 34 35
BRANCH 34 42
ATOM     42  N   GLN B   4      20.464 -23.317   0.520  1.00 37.98 LIG-0.35  N 
ATOM     43  C   GLU B   3      20.277 -24.630   0.608  1.00 56.89 LIG 0.26  C 
ATOM     44 O    GLU B   3      20.961 -25.351   1.321  1.00 56.58 LIG-0.27  OA
ATOM     45 H    GLN B   4      20.023 -22.807  -0.013  1.00 37.98 LIG 0.16  HD
BRANCH 43 46
ATOM     46  CA  GLU B   3      19.155 -25.214  -0.249  1.00 80.09 LIG 0.40  C 
ATOM     47  N   GLU B   3      18.571 -26.383   0.394  1.00 75.44 LIG 0.61  N 
BRANCH 46 48
ATOM     48  CB  GLU B   3      18.078 -24.162  -0.490  1.00107.85 LIG 0.06  C 
BRANCH 48 49
ATOM     49  CG  GLU B   3      17.556 -23.525   0.776  1.00114.95 LIG 0.12  C 
BRANCH 49 50
ATOM     50  CD  GLU B   3      17.564 -22.010   0.703  1.00 96.82 LIG 0.17  C 
ATOM     51 OE1  GLU B   3      17.080 -21.454  -0.311  1.00 91.15 LIG-0.65  OA
ATOM     52 OE2  GLU B   3      18.045 -21.371   1.668  1.00 91.13 LIG-0.65  OA
ENDBRANCH 49 50
ENDBRANCH 48 49
ENDBRANCH 46 48
ENDBRANCH 43 46
ENDBRANCH 34 42
ENDBRANCH 32 34
ENDBRANCH 1 30
TORSDOF 21
ENDMDL
MODEL 81
USER: ADFR SOLUTION from run 165
USER: SCORE 14.825571 LL:  -4.663 LR: -12.719 RR:   0.000 FEB:  -6.454
USER: RMSD 12.015203
USER: SEED 164
USER: STATUS no improvement in best in 7 clusters for 5 generations
USER: GENES 23
USER: genes 0 Translation |==|  0.65254 0.44986 0.36651
USER: genes 1 Rotation |==|  0.56690 0.88951 0.20100 0.56636
USER: genes 2 Torsion [C]-CA--CB-[CG2] |==|  0.10094
USER: genes 3 Torsion [N]-CA--C-[N] |==|  0.40324
USER: genes 4 Torsion [C]-N--CA-[CB] |==|  0.39108
USER: genes 5 Torsion [N]-CA--C-[N] |==|  0.92897
USER: genes 6 Torsion [C]-N--CA-[CB] |==|  0.50156
USER: genes 7 Torsion [N]-CA--C-[N] |==|  0.39006
USER: genes 8 Torsion [C]-N--CA-[CB] |==|  0.22336
USER: genes 9 Torsion [N]-CA--C-[O] |==|  0.71708
USER: genes 10 Torsion [N]-CA--CB-[CG2] |==|  0.49392
USER: genes 11 Torsion [N]-CA--CB-[OG] |==|  0.44965
USER: genes 12 Torsion [CA]-CB--OG-[HG] |==|  0.38346
USER: genes 13 Torsion [CB]-CA--N-[C] |==|  0.53333
USER: genes 14 Torsion [N]-C--CA-[N] |==|  0.91496
USER: genes 15 Torsion [C]-CA--CB-[CG] |==|  0.11190
USER: genes 16 Torsion [CA]-CB--CG-[CD] |==|  0.20819
USER: genes 17 Torsion [CB]-CG--CD-[OE1] |==|  0.60419
USER: genes 18 Torsion [C]-CA--N-[C] |==|  0.63971
USER: genes 19 Torsion [N]-C--CA-[N] |==|  0.58288
USER: genes 20 Torsion [C]-CA--CB-[CG] |==|  0.72447
USER: genes 21 Torsion [CA]-CB--CG-[CD] |==|  0.20001
USER: genes 22 Torsion [CB]-CG--CD-[OE1] |==|  0.30962
ROOT
ATOM      1  CA  VAL B   5      16.769 -23.812   2.053  1.00 23.44 LIG 0.18  C 
ENDROOT
BRANCH 1 2
ATOM      2  CB  VAL B   5      16.291 -23.670   3.499  1.00 27.20 LIG 0.01  C 
ATOM      3  CG2 VAL B   5      14.957 -22.989   3.571  1.00 32.91 LIG 0.01  C 
ATOM      4  CG1 VAL B   5      17.314 -22.956   4.355  1.00 27.01 LIG 0.01  C 
ENDBRANCH 1 2
BRANCH 1 5
ATOM      5  C   VAL B   5      16.357 -22.584   1.249  1.00 21.98 LIG 0.24  C 
ATOM      6 O    VAL B   5      17.046 -21.569   1.294  1.00 26.26 LIG-0.27  OA
ATOM      7  N   SER B   6      15.215 -22.643   0.561  1.00 19.41 LIG-0.34  N 
ATOM      8 H    SER B   6      14.695 -23.328   0.577  1.00 19.41 LIG 0.16  HD
BRANCH 7 9
ATOM      9  CA  SER B   6      14.730 -21.570  -0.278  1.00 20.84 LIG 0.20  C 
BRANCH 9 10
ATOM     10  C   SER B   6      13.697 -20.710   0.417  1.00 18.76 LIG 0.24  C 
ATOM     11 O    SER B   6      13.565 -19.527   0.164  1.00 19.89 LIG-0.27  OA
ATOM     12  N   ALA B   7      13.033 -21.313   1.375  1.00 19.53 LIG-0.35  N 
ATOM     13 H    ALA B   7      13.152 -22.143   1.566  1.00 19.53 LIG 0.16  HD
BRANCH 12 14
ATOM     14  CA  ALA B   7      12.033 -20.672   2.218  1.00 19.70 LIG 0.17  C 
ATOM     15  CB  ALA B   7      11.487 -21.694   3.231  1.00 20.39 LIG 0.04  C 
BRANCH 14 16
ATOM     16  C   ALA B   7      12.607 -19.508   3.006  1.00 16.34 LIG 0.24  C 
ATOM     17  N   VAL B   8      11.864 -18.426   3.142  1.00 16.85 LIG-0.34  N 
ATOM     18 H    VAL B   8      11.108 -18.307   2.750  1.00 16.85 LIG 0.16  HD
ATOM     19 O    ALA B   7      13.696 -19.618   3.533  1.00 20.16 LIG-0.27  OA
BRANCH 17 20
ATOM     20  CA  VAL B   8      12.291 -17.314   4.002  1.00 17.28 LIG 0.19  C 
BRANCH 20 21
ATOM     21  C   VAL B   8      11.057 -16.531   4.437  1.00 17.19 LIG 0.20  C 
ATOM     22 O    VAL B   8      10.780 -15.447   3.874  1.00 24.30 LIG-0.65  OA
ATOM     23 OXT  VAL B   8      10.333 -16.928   5.378  1.00 16.53 LIG-0.65  OA
ENDBRANCH 20 21
BRANCH 20 24
ATOM     24  CB  VAL B   8      13.332 -16.384   3.304  1.00 17.38 LIG 0.01  C 
ATOM     25  CG2 VAL B   8      13.684 -15.228   4.235  1.00 18.61 LIG 0.01  C 
ATOM     26  CG1 VAL B   8      12.823 -15.925   1.963  1.00 19.61 LIG 0.01  C 
ENDBRANCH 20 24
ENDBRANCH 17 20
ENDBRANCH 14 16
ENDBRANCH 12 14
ENDBRANCH 9 10
BRANCH 9 27
ATOM     27  CB  SER B   6      14.103 -22.125  -1.551  1.00 25.59 LIG 0.20  C 
BRANCH 27 28
ATOM     28 OG   SER B   6      13.280 -21.154  -2.159  1.00 27.26 LIG-0.40  OA
ATOM     29 HG   SER B   6      13.399 -21.166  -2.991  1.00 27.26 LIG 0.21  HD
ENDBRANCH 27 28
ENDBRANCH 9 27
ENDBRANCH 7 9
ENDBRANCH 1 5
BRANCH 1 30
ATOM     30  N   VAL B   5      18.210 -23.893   1.996  1.00 22.92 LIG-0.35  N 
ATOM     31 H    VAL B   5      18.577 -24.015   2.765  1.00 22.92 LIG 0.16  HD
ATOM     32  C   GLN B   4      18.907 -23.790   0.875  1.00 24.29 LIG 0.24  C 
ATOM     33 O    GLN B   4      18.421 -23.659  -0.231  1.00 26.90 LIG-0.27  OA
BRANCH 32 34
ATOM     34  CA  GLN B   4      20.426 -23.860   1.048  1.00 30.52 LIG 0.18  C 
BRANCH 34 35
ATOM     35  CB  GLN B   4      20.855 -25.321   0.924  1.00 36.61 LIG 0.04  C 
BRANCH 35 36
ATOM     36  CG  GLN B   4      20.117 -26.077  -0.169  1.00 50.94 LIG 0.10  C 
BRANCH 36 37
ATOM     37  CD  GLN B   4      20.631 -25.682  -1.550  1.00 60.90 LIG 0.21  C 
ATOM     38  NE2 GLN B   4      21.940 -25.468  -1.671  1.00 82.36 LIG-0.37  N 
ATOM     39 21HE GLN B   4      22.453 -25.547  -0.986  1.00 82.36 LIG 0.16  HD
ATOM     40 22HE GLN B   4      22.272 -25.250  -2.434  1.00 82.36 LIG 0.16  HD
ATOM     41 OE1  GLN B   4      19.853 -25.582  -2.496  1.00 55.22 LIG-0.27  OA
ENDBRANCH 36 37
ENDBRANCH 35 36
ENDBRANCH 34 35
BRANCH 34 42
ATOM     42  N   GLN B   4      20.817 -23.323   2.336  1.00 37.98 LIG-0.35  N 
ATOM     43  C   GLU B   3      21.774 -22.409   2.461  1.00 56.89 LIG 0.26  C 
ATOM     44 O    GLU B   3      22.435 -22.009   1.513  1.00 56.58 LIG-0.27  OA
ATOM     45 H    GLN B   4      20.378 -23.648   3.000  1.00 37.98 LIG 0.16  HD
BRANCH 43 46
ATOM     46  CA  GLU B   3      22.025 -21.878   3.871  1.00 80.09 LIG 0.40  C 
ATOM     47  N   GLU B   3      22.508 -20.505   3.825  1.00 75.44 LIG 0.61  N 
BRANCH 46 48
ATOM     48  CB  GLU B   3      20.744 -21.951   4.694  1.00107.85 LIG 0.06  C 
BRANCH 48 49
ATOM     49  CG  GLU B   3      20.002 -20.639   4.783  1.00114.95 LIG 0.12  C 
BRANCH 49 50
ATOM     50  CD  GLU B   3      19.336 -20.266   3.472  1.00 96.82 LIG 0.17  C 
ATOM     51 OE1  GLU B   3      18.084 -20.278   3.409  1.00 91.15 LIG-0.65  OA
ATOM     52 OE2  GLU B   3      20.066 -19.946   2.505  1.00 91.13 LIG-0.65  OA
ENDBRANCH 49 50
ENDBRANCH 48 49
ENDBRANCH 46 48
ENDBRANCH 43 46
ENDBRANCH 34 42
ENDBRANCH 32 34
ENDBRANCH 1 30
TORSDOF 21
ENDMDL
MODEL 82
USER: ADFR SOLUTION from run 102
USER: SCORE 14.419295 LL:  -4.535 LR: -12.720 RR:   0.000 FEB:  -6.456
USER: RMSD 11.321987
USER: SEED 101
USER: STATUS no improvement in best in 8 clusters for 5 generations
USER: GENES 23
USER: genes 0 Translation |==|  0.69027 0.53213 0.49422
USER: genes 1 Rotation |==|  0.73870 0.36467 0.91168 0.57232
USER: genes 2 Torsion [C]-CA--CB-[CG2] |==|  0.52416
USER: genes 3 Torsion [N]-CA--C-[N] |==|  0.71206
USER: genes 4 Torsion [C]-N--CA-[CB] |==|  0.56440
USER: genes 5 Torsion [N]-CA--C-[N] |==|  0.31074
USER: genes 6 Torsion [C]-N--CA-[CB] |==|  0.23885
USER: genes 7 Torsion [N]-CA--C-[N] |==|  0.51702
USER: genes 8 Torsion [C]-N--CA-[CB] |==|  0.22100
USER: genes 9 Torsion [N]-CA--C-[O] |==|  0.41885
USER: genes 10 Torsion [N]-CA--CB-[CG2] |==|  0.67696
USER: genes 11 Torsion [N]-CA--CB-[OG] |==|  0.67064
USER: genes 12 Torsion [CA]-CB--OG-[HG] |==|  0.91452
USER: genes 13 Torsion [CB]-CA--N-[C] |==|  0.88045
USER: genes 14 Torsion [N]-C--CA-[N] |==|  0.36436
USER: genes 15 Torsion [C]-CA--CB-[CG] |==|  0.05888
USER: genes 16 Torsion [CA]-CB--CG-[CD] |==|  0.24128
USER: genes 17 Torsion [CB]-CG--CD-[OE1] |==|  0.36613
USER: genes 18 Torsion [C]-CA--N-[C] |==|  0.82069
USER: genes 19 Torsion [N]-C--CA-[N] |==|  0.55993
USER: genes 20 Torsion [C]-CA--CB-[CG] |==|  0.66784
USER: genes 21 Torsion [CA]-CB--CG-[CD] |==|  0.22088
USER: genes 22 Torsion [CB]-CG--CD-[OE1] |==|  0.37675
ROOT
ATOM      1  CA  VAL B   5      17.901 -22.393   4.256  1.00 23.44 LIG 0.18  C 
ENDROOT
BRANCH 1 2
ATOM      2  CB  VAL B   5      18.286 -20.922   4.423  1.00 27.20 LIG 0.01  C 
ATOM      3  CG2 VAL B   5      19.761 -20.719   4.248  1.00 32.91 LIG 0.01  C 
ATOM      4  CG1 VAL B   5      17.814 -20.371   5.751  1.00 27.01 LIG 0.01  C 
ENDBRANCH 1 2
BRANCH 1 5
ATOM      5  C   VAL B   5      16.383 -22.531   4.226  1.00 21.98 LIG 0.24  C 
ATOM      6 O    VAL B   5      15.871 -23.639   4.356  1.00 26.26 LIG-0.27  OA
ATOM      7  N   SER B   6      15.661 -21.431   3.999  1.00 19.41 LIG-0.34  N 
ATOM      8 H    SER B   6      16.015 -20.664   3.843  1.00 19.41 LIG 0.16  HD
BRANCH 7 9
ATOM      9  CA  SER B   6      14.215 -21.412   3.991  1.00 20.84 LIG 0.20  C 
BRANCH 9 10
ATOM     10  C   SER B   6      13.622 -22.678   3.412  1.00 18.76 LIG 0.24  C 
ATOM     11 O    SER B   6      13.657 -22.922   2.220  1.00 19.89 LIG-0.27  OA
ATOM     12  N   ALA B   7      12.986 -23.434   4.276  1.00 19.53 LIG-0.35  N 
ATOM     13 H    ALA B   7      12.942 -23.240   5.113  1.00 19.53 LIG 0.16  HD
BRANCH 12 14
ATOM     14  CA  ALA B   7      12.288 -24.668   3.939  1.00 19.70 LIG 0.17  C 
ATOM     15  CB  ALA B   7      13.284 -25.841   3.961  1.00 20.39 LIG 0.04  C 
BRANCH 14 16
ATOM     16  C   ALA B   7      11.180 -24.988   4.927  1.00 16.34 LIG 0.24  C 
ATOM     17  N   VAL B   8      10.555 -26.143   4.803  1.00 16.85 LIG-0.34  N 
ATOM     18 H    VAL B   8      10.679 -26.693   4.153  1.00 16.85 LIG 0.16  HD
ATOM     19 O    ALA B   7      10.938 -24.213   5.830  1.00 20.16 LIG-0.27  OA
BRANCH 17 20
ATOM     20  CA  VAL B   8       9.569 -26.585   5.798  1.00 17.28 LIG 0.19  C 
BRANCH 20 21
ATOM     21  C   VAL B   8       9.456 -28.104   5.733  1.00 17.19 LIG 0.20  C 
ATOM     22 O    VAL B   8       9.148 -28.748   6.762  1.00 24.30 LIG-0.65  OA
ATOM     23 OXT  VAL B   8       9.709 -28.730   4.679  1.00 16.53 LIG-0.65  OA
ENDBRANCH 20 21
BRANCH 20 24
ATOM     24  CB  VAL B   8       8.176 -25.908   5.603  1.00 17.38 LIG 0.01  C 
ATOM     25  CG2 VAL B   8       7.854 -25.048   6.820  1.00 18.61 LIG 0.01  C 
ATOM     26  CG1 VAL B   8       7.117 -26.938   5.314  1.00 19.61 LIG 0.01  C 
ENDBRANCH 20 24
ENDBRANCH 17 20
ENDBRANCH 14 16
ENDBRANCH 12 14
ENDBRANCH 9 10
BRANCH 9 27
ATOM     27  CB  SER B   6      13.698 -20.234   3.176  1.00 25.59 LIG 0.20  C 
BRANCH 27 28
ATOM     28 OG   SER B   6      12.939 -19.366   3.990  1.00 27.26 LIG-0.40  OA
ATOM     29 HG   SER B   6      12.563 -19.809   4.597  1.00 27.26 LIG 0.21  HD
ENDBRANCH 27 28
ENDBRANCH 9 27
ENDBRANCH 7 9
ENDBRANCH 1 5
BRANCH 1 30
ATOM     30  N   VAL B   5      18.400 -22.914   3.005  1.00 22.92 LIG-0.35  N 
ATOM     31 H    VAL B   5      18.745 -23.699   3.075  1.00 22.92 LIG 0.16  HD
ATOM     32  C   GLN B   4      18.337 -22.254   1.859  1.00 24.29 LIG 0.24  C 
ATOM     33 O    GLN B   4      17.820 -21.164   1.716  1.00 26.90 LIG-0.27  OA
BRANCH 32 34
ATOM     34  CA  GLN B   4      18.966 -22.973   0.663  1.00 30.52 LIG 0.18  C 
BRANCH 34 35
ATOM     35  CB  GLN B   4      20.270 -22.262   0.307  1.00 36.61 LIG 0.04  C 
BRANCH 35 36
ATOM     36  CG  GLN B   4      20.842 -21.441   1.451  1.00 50.94 LIG 0.10  C 
BRANCH 36 37
ATOM     37  CD  GLN B   4      21.726 -22.298   2.352  1.00 60.90 LIG 0.21  C 
ATOM     38  NE2 GLN B   4      21.235 -23.474   2.740  1.00 82.36 LIG-0.37  N 
ATOM     39 21HE GLN B   4      20.450 -23.716   2.487  1.00 82.36 LIG 0.16  HD
ATOM     40 22HE GLN B   4      21.704 -23.991   3.243  1.00 82.36 LIG 0.16  HD
ATOM     41 OE1  GLN B   4      22.841 -21.903   2.684  1.00 55.22 LIG-0.27  OA
ENDBRANCH 36 37
ENDBRANCH 35 36
ENDBRANCH 34 35
BRANCH 34 42
ATOM     42  N   GLN B   4      18.059 -22.968  -0.468  1.00 37.98 LIG-0.35  N 
ATOM     43  C   GLU B   3      16.890 -23.600  -0.442  1.00 56.89 LIG 0.26  C 
ATOM     44 O    GLU B   3      16.528 -24.283   0.506  1.00 56.58 LIG-0.27  OA
ATOM     45 H    GLN B   4      18.347 -22.524  -1.147  1.00 37.98 LIG 0.16  HD
BRANCH 43 46
ATOM     46  CA  GLU B   3      16.006 -23.442  -1.677  1.00 80.09 LIG 0.40  C 
ATOM     47  N   GLU B   3      14.614 -23.722  -1.353  1.00 75.44 LIG 0.61  N 
BRANCH 46 48
ATOM     48  CB  GLU B   3      16.135 -22.029  -2.237  1.00107.85 LIG 0.06  C 
BRANCH 48 49
ATOM     49  CG  GLU B   3      14.834 -21.263  -2.258  1.00114.95 LIG 0.12  C 
BRANCH 49 50
ATOM     50  CD  GLU B   3      14.480 -20.695  -0.897  1.00 96.82 LIG 0.17  C 
ATOM     51 OE1  GLU B   3      14.066 -19.513  -0.828  1.00 91.15 LIG-0.65  OA
ATOM     52 OE2  GLU B   3      14.604 -21.435   0.106  1.00 91.13 LIG-0.65  OA
ENDBRANCH 49 50
ENDBRANCH 48 49
ENDBRANCH 46 48
ENDBRANCH 43 46
ENDBRANCH 34 42
ENDBRANCH 32 34
ENDBRANCH 1 30
TORSDOF 21
ENDMDL
MODEL 83
USER: ADFR SOLUTION from run 27
USER: SCORE 16.189411 LL:  -4.370 LR: -12.717 RR:   0.000 FEB:  -6.452
USER: RMSD 11.659364
USER: SEED 26
USER: STATUS no improvement in best in 21 clusters for 5 generations
USER: GENES 23
USER: genes 0 Translation |==|  0.72808 0.51085 0.50736
USER: genes 1 Rotation |==|  0.65233 0.25004 0.90536 0.50145
USER: genes 2 Torsion [C]-CA--CB-[CG2] |==|  0.82285
USER: genes 3 Torsion [N]-CA--C-[N] |==|  0.20048
USER: genes 4 Torsion [C]-N--CA-[CB] |==|  0.83723
USER: genes 5 Torsion [N]-CA--C-[N] |==|  0.36830
USER: genes 6 Torsion [C]-N--CA-[CB] |==|  0.49444
USER: genes 7 Torsion [N]-CA--C-[N] |==|  0.43938
USER: genes 8 Torsion [C]-N--CA-[CB] |==|  0.86362
USER: genes 9 Torsion [N]-CA--C-[O] |==|  0.34533
USER: genes 10 Torsion [N]-CA--CB-[CG2] |==|  0.75238
USER: genes 11 Torsion [N]-CA--CB-[OG] |==|  0.97332
USER: genes 12 Torsion [CA]-CB--OG-[HG] |==|  0.57780
USER: genes 13 Torsion [CB]-CA--N-[C] |==|  0.77947
USER: genes 14 Torsion [N]-C--CA-[N] |==|  0.27481
USER: genes 15 Torsion [C]-CA--CB-[CG] |==|  0.17633
USER: genes 16 Torsion [CA]-CB--CG-[CD] |==|  0.23632
USER: genes 17 Torsion [CB]-CG--CD-[OE1] |==|  0.71061
USER: genes 18 Torsion [C]-CA--N-[C] |==|  0.76638
USER: genes 19 Torsion [N]-C--CA-[N] |==|  0.49961
USER: genes 20 Torsion [C]-CA--CB-[CG] |==|  0.88904
USER: genes 21 Torsion [CA]-CB--CG-[CD] |==|  0.77124
USER: genes 22 Torsion [CB]-CG--CD-[OE1] |==|  0.17380
ROOT
ATOM      1  CA  VAL B   5      19.035 -22.760   4.483  1.00 23.44 LIG 0.18  C 
ENDROOT
BRANCH 1 2
ATOM      2  CB  VAL B   5      19.288 -21.596   5.442  1.00 27.20 LIG 0.01  C 
ATOM      3  CG2 VAL B   5      19.351 -20.288   4.711  1.00 32.91 LIG 0.01  C 
ATOM      4  CG1 VAL B   5      20.536 -21.817   6.269  1.00 27.01 LIG 0.01  C 
ENDBRANCH 1 2
BRANCH 1 5
ATOM      5  C   VAL B   5      17.669 -22.602   3.826  1.00 21.98 LIG 0.24  C 
ATOM      6 O    VAL B   5      17.044 -21.554   3.967  1.00 26.26 LIG-0.27  OA
ATOM      7  N   SER B   6      17.172 -23.646   3.159  1.00 19.41 LIG-0.34  N 
ATOM      8 H    SER B   6      17.575 -24.404   3.110  1.00 19.41 LIG 0.16  HD
BRANCH 7 9
ATOM      9  CA  SER B   6      15.911 -23.617   2.451  1.00 20.84 LIG 0.20  C 
BRANCH 9 10
ATOM     10  C   SER B   6      15.904 -22.611   1.321  1.00 18.76 LIG 0.24  C 
ATOM     11 O    SER B   6      16.223 -21.448   1.489  1.00 19.89 LIG-0.27  OA
ATOM     12  N   ALA B   7      15.437 -23.065   0.182  1.00 19.53 LIG-0.35  N 
ATOM     13 H    ALA B   7      15.188 -23.882   0.079  1.00 19.53 LIG 0.16  HD
BRANCH 12 14
ATOM     14  CA  ALA B   7      15.281 -22.266  -1.026  1.00 19.70 LIG 0.17  C 
ATOM     15  CB  ALA B   7      14.753 -23.157  -2.164  1.00 20.39 LIG 0.04  C 
BRANCH 14 16
ATOM     16  C   ALA B   7      14.294 -21.128  -0.838  1.00 16.34 LIG 0.24  C 
ATOM     17  N   VAL B   8      14.377 -20.095  -1.656  1.00 16.85 LIG-0.34  N 
ATOM     18 H    VAL B   8      15.001 -19.988  -2.237  1.00 16.85 LIG 0.16  HD
ATOM     19 O    ALA B   7      13.428 -21.218   0.008  1.00 20.16 LIG-0.27  OA
BRANCH 17 20
ATOM     20  CA  VAL B   8      13.375 -19.021  -1.627  1.00 17.28 LIG 0.19  C 
BRANCH 20 21
ATOM     21  C   VAL B   8      13.615 -18.162  -0.391  1.00 17.19 LIG 0.20  C 
ATOM     22 O    VAL B   8      13.791 -16.929  -0.518  1.00 24.30 LIG-0.65  OA
ATOM     23 OXT  VAL B   8      13.684 -18.671   0.751  1.00 16.53 LIG-0.65  OA
ENDBRANCH 20 21
BRANCH 20 24
ATOM     24  CB  VAL B   8      11.913 -19.566  -1.659  1.00 17.38 LIG 0.01  C 
ATOM     25  CG2 VAL B   8      11.457 -19.714  -3.106  1.00 18.61 LIG 0.01  C 
ATOM     26  CG1 VAL B   8      10.999 -18.693  -0.841  1.00 19.61 LIG 0.01  C 
ENDBRANCH 20 24
ENDBRANCH 17 20
ENDBRANCH 14 16
ENDBRANCH 12 14
ENDBRANCH 9 10
BRANCH 9 27
ATOM     27  CB  SER B   6      14.771 -23.269   3.400  1.00 25.59 LIG 0.20  C 
BRANCH 27 28
ATOM     28 OG   SER B   6      15.219 -23.287   4.737  1.00 27.26 LIG-0.40  OA
ATOM     29 HG   SER B   6      14.577 -23.477   5.245  1.00 27.26 LIG 0.21  HD
ENDBRANCH 27 28
ENDBRANCH 9 27
ENDBRANCH 7 9
ENDBRANCH 1 5
BRANCH 1 30
ATOM     30  N   VAL B   5      20.017 -22.773   3.424  1.00 22.92 LIG-0.35  N 
ATOM     31 H    VAL B   5      20.645 -23.349   3.546  1.00 22.92 LIG 0.16  HD
ATOM     32  C   GLN B   4      19.963 -21.981   2.364  1.00 24.29 LIG 0.24  C 
ATOM     33 O    GLN B   4      19.071 -21.189   2.137  1.00 26.90 LIG-0.27  OA
BRANCH 32 34
ATOM     34  CA  GLN B   4      21.130 -22.131   1.385  1.00 30.52 LIG 0.18  C 
BRANCH 34 35
ATOM     35  CB  GLN B   4      21.527 -20.738   0.897  1.00 36.61 LIG 0.04  C 
BRANCH 35 36
ATOM     36  CG  GLN B   4      22.045 -19.835   2.003  1.00 50.94 LIG 0.10  C 
BRANCH 36 37
ATOM     37  CD  GLN B   4      23.535 -20.061   2.243  1.00 60.90 LIG 0.21  C 
ATOM     38  NE2 GLN B   4      24.377 -19.531   1.357  1.00 82.36 LIG-0.37  N 
ATOM     39 21HE GLN B   4      24.072 -19.093   0.683  1.00 82.36 LIG 0.16  HD
ATOM     40 22HE GLN B   4      25.226 -19.629   1.458  1.00 82.36 LIG 0.16  HD
ATOM     41 OE1  GLN B   4      23.917 -20.697   3.222  1.00 55.22 LIG-0.27  OA
ENDBRANCH 36 37
ENDBRANCH 35 36
ENDBRANCH 34 35
BRANCH 34 42
ATOM     42  N   GLN B   4      20.752 -22.972   0.267  1.00 37.98 LIG-0.35  N 
ATOM     43  C   GLU B   3      20.817 -24.299   0.326  1.00 56.89 LIG 0.26  C 
ATOM     44 O    GLU B   3      21.261 -24.898   1.295  1.00 56.58 LIG-0.27  OA
ATOM     45 H    GLN B   4      20.488 -22.538  -0.426  1.00 37.98 LIG 0.16  HD
BRANCH 43 46
ATOM     46  CA  GLU B   3      20.312 -25.057  -0.900  1.00 80.09 LIG 0.40  C 
ATOM     47  N   GLU B   3      20.442 -26.495  -0.705  1.00 75.44 LIG 0.61  N 
BRANCH 46 48
ATOM     48  CB  GLU B   3      18.855 -24.700  -1.175  1.00107.85 LIG 0.06  C 
BRANCH 48 49
ATOM     49  CG  GLU B   3      18.015 -24.574   0.073  1.00114.95 LIG 0.12  C 
BRANCH 49 50
ATOM     50  CD  GLU B   3      17.527 -25.920   0.574  1.00 96.82 LIG 0.17  C 
ATOM     51 OE1  GLU B   3      18.374 -26.769   0.938  1.00 91.15 LIG-0.65  OA
ATOM     52 OE2  GLU B   3      16.292 -26.126   0.618  1.00 91.13 LIG-0.65  OA
ENDBRANCH 49 50
ENDBRANCH 48 49
ENDBRANCH 46 48
ENDBRANCH 43 46
ENDBRANCH 34 42
ENDBRANCH 32 34
ENDBRANCH 1 30
TORSDOF 21
ENDMDL
MODEL 84
USER: ADFR SOLUTION from run 104
USER: SCORE 15.364058 LL:  -4.711 LR: -12.706 RR:   0.000 FEB:  -6.442
USER: RMSD 12.095908
USER: SEED 103
USER: STATUS no improvement in best in 3 clusters for 5 generations
USER: GENES 23
USER: genes 0 Translation |==|  0.59388 0.51885 0.48713
USER: genes 1 Rotation |==|  0.41841 0.44317 0.01277 0.55212
USER: genes 2 Torsion [C]-CA--CB-[CG2] |==|  0.22749
USER: genes 3 Torsion [N]-CA--C-[N] |==|  0.41180
USER: genes 4 Torsion [C]-N--CA-[CB] |==|  0.19384
USER: genes 5 Torsion [N]-CA--C-[N] |==|  0.87170
USER: genes 6 Torsion [C]-N--CA-[CB] |==|  0.78748
USER: genes 7 Torsion [N]-CA--C-[N] |==|  0.23011
USER: genes 8 Torsion [C]-N--CA-[CB] |==|  0.16644
USER: genes 9 Torsion [N]-CA--C-[O] |==|  0.02286
USER: genes 10 Torsion [N]-CA--CB-[CG2] |==|  0.54389
USER: genes 11 Torsion [N]-CA--CB-[OG] |==|  0.07793
USER: genes 12 Torsion [CA]-CB--OG-[HG] |==|  0.93803
USER: genes 13 Torsion [CB]-CA--N-[C] |==|  0.18895
USER: genes 14 Torsion [N]-C--CA-[N] |==|  0.13152
USER: genes 15 Torsion [C]-CA--CB-[CG] |==|  0.42400
USER: genes 16 Torsion [CA]-CB--CG-[CD] |==|  0.21316
USER: genes 17 Torsion [CB]-CG--CD-[OE1] |==|  0.26233
USER: genes 18 Torsion [C]-CA--N-[C] |==|  0.16111
USER: genes 19 Torsion [N]-C--CA-[N] |==|  0.80275
USER: genes 20 Torsion [C]-CA--CB-[CG] |==|  0.24301
USER: genes 21 Torsion [CA]-CB--CG-[CD] |==|  0.05901
USER: genes 22 Torsion [CB]-CG--CD-[OE1] |==|  0.79290
ROOT
ATOM      1  CA  VAL B   5      15.009 -22.622   4.134  1.00 23.44 LIG 0.18  C 
ENDROOT
BRANCH 1 2
ATOM      2  CB  VAL B   5      14.584 -21.374   3.359  1.00 27.20 LIG 0.01  C 
ATOM      3  CG2 VAL B   5      13.313 -20.796   3.905  1.00 32.91 LIG 0.01  C 
ATOM      4  CG1 VAL B   5      14.462 -21.655   1.877  1.00 27.01 LIG 0.01  C 
ENDBRANCH 1 2
BRANCH 1 5
ATOM      5  C   VAL B   5      14.240 -23.835   3.624  1.00 21.98 LIG 0.24  C 
ATOM      6 O    VAL B   5      14.661 -24.458   2.653  1.00 26.26 LIG-0.27  OA
ATOM      7  N   SER B   6      13.090 -24.144   4.228  1.00 19.41 LIG-0.34  N 
ATOM      8 H    SER B   6      12.757 -23.675   4.867  1.00 19.41 LIG 0.16  HD
BRANCH 7 9
ATOM      9  CA  SER B   6      12.286 -25.293   3.876  1.00 20.84 LIG 0.20  C 
BRANCH 9 10
ATOM     10  C   SER B   6      10.921 -25.267   4.529  1.00 18.76 LIG 0.24  C 
ATOM     11 O    SER B   6       9.896 -25.421   3.889  1.00 19.89 LIG-0.27  OA
ATOM     12  N   ALA B   7      10.926 -24.970   5.807  1.00 19.53 LIG-0.35  N 
ATOM     13 H    ALA B   7      11.654 -24.836   6.245  1.00 19.53 LIG 0.16  HD
BRANCH 12 14
ATOM     14  CA  ALA B   7       9.731 -24.831   6.629  1.00 19.70 LIG 0.17  C 
ATOM     15  CB  ALA B   7       9.059 -23.479   6.329  1.00 20.39 LIG 0.04  C 
BRANCH 14 16
ATOM     16  C   ALA B   7       8.713 -25.922   6.350  1.00 16.34 LIG 0.24  C 
ATOM     17  N   VAL B   8       8.871 -27.085   6.953  1.00 16.85 LIG-0.34  N 
ATOM     18 H    VAL B   8       9.555 -27.291   7.432  1.00 16.85 LIG 0.16  HD
ATOM     19 O    ALA B   7       7.759 -25.685   5.637  1.00 20.16 LIG-0.27  OA
BRANCH 17 20
ATOM     20  CA  VAL B   8       7.857 -28.142   6.844  1.00 17.28 LIG 0.19  C 
BRANCH 20 21
ATOM     21  C   VAL B   8       8.284 -29.319   7.714  1.00 17.19 LIG 0.20  C 
ATOM     22 O    VAL B   8       9.266 -29.200   8.480  1.00 24.30 LIG-0.65  OA
ATOM     23 OXT  VAL B   8       7.696 -30.423   7.647  1.00 16.53 LIG-0.65  OA
ENDBRANCH 20 21
BRANCH 20 24
ATOM     24  CB  VAL B   8       7.617 -28.589   5.368  1.00 17.38 LIG 0.01  C 
ATOM     25  CG2 VAL B   8       6.314 -29.377   5.282  1.00 18.61 LIG 0.01  C 
ATOM     26  CG1 VAL B   8       8.801 -29.355   4.842  1.00 19.61 LIG 0.01  C 
ENDBRANCH 20 24
ENDBRANCH 17 20
ENDBRANCH 14 16
ENDBRANCH 12 14
ENDBRANCH 9 10
BRANCH 9 27
ATOM     27  CB  SER B   6      12.982 -26.583   4.290  1.00 25.59 LIG 0.20  C 
BRANCH 27 28
ATOM     28 OG   SER B   6      13.822 -26.356   5.401  1.00 27.26 LIG-0.40  OA
ATOM     29 HG   SER B   6      14.022 -25.541   5.440  1.00 27.26 LIG 0.21  HD
ENDBRANCH 27 28
ENDBRANCH 9 27
ENDBRANCH 7 9
ENDBRANCH 1 5
BRANCH 1 30
ATOM     30  N   VAL B   5      16.414 -22.895   3.935  1.00 22.92 LIG-0.35  N 
ATOM     31 H    VAL B   5      16.562 -23.612   3.483  1.00 22.92 LIG 0.16  HD
ATOM     32  C   GLN B   4      17.384 -22.122   4.398  1.00 24.29 LIG 0.24  C 
ATOM     33 O    GLN B   4      17.211 -21.081   5.002  1.00 26.90 LIG-0.27  OA
BRANCH 32 34
ATOM     34  CA  GLN B   4      18.802 -22.620   4.110  1.00 30.52 LIG 0.18  C 
BRANCH 34 35
ATOM     35  CB  GLN B   4      19.782 -21.498   4.447  1.00 36.61 LIG 0.04  C 
BRANCH 35 36
ATOM     36  CG  GLN B   4      21.160 -21.999   4.844  1.00 50.94 LIG 0.10  C 
BRANCH 36 37
ATOM     37  CD  GLN B   4      21.958 -22.440   3.620  1.00 60.90 LIG 0.21  C 
ATOM     38  NE2 GLN B   4      21.764 -23.685   3.189  1.00 82.36 LIG-0.37  N 
ATOM     39 21HE GLN B   4      21.215 -24.202   3.601  1.00 82.36 LIG 0.16  HD
ATOM     40 22HE GLN B   4      22.189 -23.972   2.497  1.00 82.36 LIG 0.16  HD
ATOM     41 OE1  GLN B   4      22.731 -21.660   3.069  1.00 55.22 LIG-0.27  OA
ENDBRANCH 36 37
ENDBRANCH 35 36
ENDBRANCH 34 35
BRANCH 34 42
ATOM     42  N   GLN B   4      18.932 -23.009   2.720  1.00 37.98 LIG-0.35  N 
ATOM     43  C   GLU B   3      18.694 -22.163   1.722  1.00 56.89 LIG 0.26  C 
ATOM     44 O    GLU B   3      18.283 -21.026   1.904  1.00 56.58 LIG-0.27  OA
ATOM     45 H    GLN B   4      19.175 -23.826   2.605  1.00 37.98 LIG 0.16  HD
BRANCH 43 46
ATOM     46  CA  GLU B   3      18.948 -22.689   0.311  1.00 80.09 LIG 0.40  C 
ATOM     47  N   GLU B   3      20.376 -22.838   0.068  1.00 75.44 LIG 0.61  N 
BRANCH 46 48
ATOM     48  CB  GLU B   3      18.245 -24.029   0.116  1.00107.85 LIG 0.06  C 
BRANCH 48 49
ATOM     49  CG  GLU B   3      16.816 -23.902  -0.353  1.00114.95 LIG 0.12  C 
BRANCH 49 50
ATOM     50  CD  GLU B   3      16.544 -22.563  -1.011  1.00 96.82 LIG 0.17  C 
ATOM     51 OE1  GLU B   3      16.441 -21.546  -0.285  1.00 91.15 LIG-0.65  OA
ATOM     52 OE2  GLU B   3      16.445 -22.524  -2.260  1.00 91.13 LIG-0.65  OA
ENDBRANCH 49 50
ENDBRANCH 48 49
ENDBRANCH 46 48
ENDBRANCH 43 46
ENDBRANCH 34 42
ENDBRANCH 32 34
ENDBRANCH 1 30
TORSDOF 21
ENDMDL
MODEL 85
USER: ADFR SOLUTION from run 74
USER: SCORE 14.477692 LL:  -4.193 LR: -12.714 RR:   0.000 FEB:  -6.450
USER: RMSD 13.370621
USER: SEED 73
USER: STATUS no improvement in best in 7 clusters for 5 generations
USER: GENES 23
USER: genes 0 Translation |==|  0.59387 0.48785 0.47334
USER: genes 1 Rotation |==|  0.30167 0.59082 0.05585 0.57178
USER: genes 2 Torsion [C]-CA--CB-[CG2] |==|  0.97201
USER: genes 3 Torsion [N]-CA--C-[N] |==|  0.44379
USER: genes 4 Torsion [C]-N--CA-[CB] |==|  0.16433
USER: genes 5 Torsion [N]-CA--C-[N] |==|  0.18704
USER: genes 6 Torsion [C]-N--CA-[CB] |==|  0.52897
USER: genes 7 Torsion [N]-CA--C-[N] |==|  0.25556
USER: genes 8 Torsion [C]-N--CA-[CB] |==|  0.21414
USER: genes 9 Torsion [N]-CA--C-[O] |==|  0.98579
USER: genes 10 Torsion [N]-CA--CB-[CG2] |==|  0.07764
USER: genes 11 Torsion [N]-CA--CB-[OG] |==|  0.15965
USER: genes 12 Torsion [CA]-CB--OG-[HG] |==|  0.11527
USER: genes 13 Torsion [CB]-CA--N-[C] |==|  0.28312
USER: genes 14 Torsion [N]-C--CA-[N] |==|  0.44289
USER: genes 15 Torsion [C]-CA--CB-[CG] |==|  0.47440
USER: genes 16 Torsion [CA]-CB--CG-[CD] |==|  0.23683
USER: genes 17 Torsion [CB]-CG--CD-[OE1] |==|  0.00757
USER: genes 18 Torsion [C]-CA--N-[C] |==|  0.76684
USER: genes 19 Torsion [N]-C--CA-[N] |==|  0.94778
USER: genes 20 Torsion [C]-CA--CB-[CG] |==|  0.29098
USER: genes 21 Torsion [CA]-CB--CG-[CD] |==|  0.26734
USER: genes 22 Torsion [CB]-CG--CD-[OE1] |==|  0.95985
ROOT
ATOM      1  CA  VAL B   5      15.009 -23.157   3.896  1.00 23.44 LIG 0.18  C 
ENDROOT
BRANCH 1 2
ATOM      2  CB  VAL B   5      14.507 -21.734   4.149  1.00 27.20 LIG 0.01  C 
ATOM      3  CG2 VAL B   5      13.130 -21.532   3.592  1.00 32.91 LIG 0.01  C 
ATOM      4  CG1 VAL B   5      15.470 -20.700   3.609  1.00 27.01 LIG 0.01  C 
ENDBRANCH 1 2
BRANCH 1 5
ATOM      5  C   VAL B   5      13.869 -24.023   3.373  1.00 21.98 LIG 0.24  C 
ATOM      6 O    VAL B   5      13.751 -24.209   2.165  1.00 26.26 LIG-0.27  OA
ATOM      7  N   SER B   6      12.996 -24.507   4.259  1.00 19.41 LIG-0.34  N 
ATOM      8 H    SER B   6      13.035 -24.328   5.099  1.00 19.41 LIG 0.16  HD
BRANCH 7 9
ATOM      9  CA  SER B   6      11.897 -25.378   3.905  1.00 20.84 LIG 0.20  C 
BRANCH 9 10
ATOM     10  C   SER B   6      11.062 -25.775   5.104  1.00 18.76 LIG 0.24  C 
ATOM     11 O    SER B   6      10.959 -26.933   5.464  1.00 19.89 LIG-0.27  OA
ATOM     12  N   ALA B   7      10.386 -24.794   5.653  1.00 19.53 LIG-0.35  N 
ATOM     13 H    ALA B   7      10.444 -23.982   5.375  1.00 19.53 LIG 0.16  HD
BRANCH 12 14
ATOM     14  CA  ALA B   7       9.474 -24.946   6.779  1.00 19.70 LIG 0.17  C 
ATOM     15  CB  ALA B   7       8.679 -23.643   6.973  1.00 20.39 LIG 0.04  C 
BRANCH 14 16
ATOM     16  C   ALA B   7       8.473 -26.066   6.558  1.00 16.34 LIG 0.24  C 
ATOM     17  N   VAL B   8       8.784 -27.270   6.998  1.00 16.85 LIG-0.34  N 
ATOM     18 H    VAL B   8       9.548 -27.480   7.332  1.00 16.85 LIG 0.16  HD
ATOM     19 O    ALA B   7       7.401 -25.820   6.042  1.00 20.16 LIG-0.27  OA
BRANCH 17 20
ATOM     20  CA  VAL B   8       7.814 -28.373   6.945  1.00 17.28 LIG 0.19  C 
BRANCH 20 21
ATOM     21  C   VAL B   8       8.235 -29.441   7.948  1.00 17.19 LIG 0.20  C 
ATOM     22 O    VAL B   8       9.316 -29.318   8.569  1.00 24.30 LIG-0.65  OA
ATOM     23 OXT  VAL B   8       7.542 -30.467   8.134  1.00 16.53 LIG-0.65  OA
ENDBRANCH 20 21
BRANCH 20 24
ATOM     24  CB  VAL B   8       7.667 -28.972   5.512  1.00 17.38 LIG 0.01  C 
ATOM     25  CG2 VAL B   8       8.970 -28.777   4.744  1.00 18.61 LIG 0.01  C 
ATOM     26  CG1 VAL B   8       6.475 -28.382   4.806  1.00 19.61 LIG 0.01  C 
ENDBRANCH 20 24
ENDBRANCH 17 20
ENDBRANCH 14 16
ENDBRANCH 12 14
ENDBRANCH 9 10
BRANCH 9 27
ATOM     27  CB  SER B   6      12.412 -26.652   3.247  1.00 25.59 LIG 0.20  C 
BRANCH 27 28
ATOM     28 OG   SER B   6      13.313 -27.320   4.103  1.00 27.26 LIG-0.40  OA
ATOM     29 HG   SER B   6      13.020 -27.298   4.890  1.00 27.26 LIG 0.21  HD
ENDBRANCH 27 28
ENDBRANCH 9 27
ENDBRANCH 7 9
ENDBRANCH 1 5
BRANCH 1 30
ATOM     30  N   VAL B   5      16.044 -23.162   2.888  1.00 22.92 LIG-0.35  N 
ATOM     31 H    VAL B   5      15.740 -23.093   2.086  1.00 22.92 LIG 0.16  HD
ATOM     32  C   GLN B   4      17.335 -23.264   3.164  1.00 24.29 LIG 0.24  C 
ATOM     33 O    GLN B   4      17.801 -23.321   4.284  1.00 26.90 LIG-0.27  OA
BRANCH 32 34
ATOM     34  CA  GLN B   4      18.256 -23.294   1.942  1.00 30.52 LIG 0.18  C 
BRANCH 34 35
ATOM     35  CB  GLN B   4      18.229 -24.704   1.355  1.00 36.61 LIG 0.04  C 
BRANCH 35 36
ATOM     36  CG  GLN B   4      18.927 -24.813   0.010  1.00 50.94 LIG 0.10  C 
BRANCH 36 37
ATOM     37  CD  GLN B   4      20.426 -25.035   0.187  1.00 60.90 LIG 0.21  C 
ATOM     38  NE2 GLN B   4      21.166 -25.081  -0.919  1.00 82.36 LIG-0.37  N 
ATOM     39 21HE GLN B   4      20.793 -24.994  -1.689  1.00 82.36 LIG 0.16  HD
ATOM     40 22HE GLN B   4      22.017 -25.198  -0.864  1.00 82.36 LIG 0.16  HD
ATOM     41 OE1  GLN B   4      20.908 -25.154   1.312  1.00 55.22 LIG-0.27  OA
ENDBRANCH 36 37
ENDBRANCH 35 36
ENDBRANCH 34 35
BRANCH 34 42
ATOM     42  N   GLN B   4      19.608 -22.925   2.314  1.00 37.98 LIG-0.35  N 
ATOM     43  C   GLU B   3      19.997 -21.657   2.404  1.00 56.89 LIG 0.26  C 
ATOM     44 O    GLU B   3      19.267 -20.719   2.114  1.00 56.58 LIG-0.27  OA
ATOM     45 H    GLN B   4      20.125 -23.595   2.468  1.00 37.98 LIG 0.16  HD
BRANCH 43 46
ATOM     46  CA  GLU B   3      21.427 -21.418   2.883  1.00 80.09 LIG 0.40  C 
ATOM     47  N   GLU B   3      21.945 -22.597   3.563  1.00 75.44 LIG 0.61  N 
BRANCH 46 48
ATOM     48  CB  GLU B   3      22.323 -21.065   1.700  1.00107.85 LIG 0.06  C 
BRANCH 48 49
ATOM     49  CG  GLU B   3      22.680 -19.599   1.625  1.00114.95 LIG 0.12  C 
BRANCH 49 50
ATOM     50  CD  GLU B   3      24.027 -19.303   2.256  1.00 96.82 LIG 0.17  C 
ATOM     51 OE1  GLU B   3      24.553 -20.174   2.987  1.00 91.15 LIG-0.65  OA
ATOM     52 OE2  GLU B   3      24.568 -18.199   2.011  1.00 91.13 LIG-0.65  OA
ENDBRANCH 49 50
ENDBRANCH 48 49
ENDBRANCH 46 48
ENDBRANCH 43 46
ENDBRANCH 34 42
ENDBRANCH 32 34
ENDBRANCH 1 30
TORSDOF 21
ENDMDL
MODEL 86
USER: ADFR SOLUTION from run 110
USER: SCORE 14.314454 LL:  -5.147 LR: -12.706 RR:   0.000 FEB:  -6.442
USER: RMSD 7.271024
USER: SEED 109
USER: STATUS no improvement in best in 11 clusters for 5 generations
USER: GENES 23
USER: genes 0 Translation |==|  0.68766 0.50209 0.35082
USER: genes 1 Rotation |==|  0.84948 0.42232 0.49560 0.84901
USER: genes 2 Torsion [C]-CA--CB-[CG2] |==|  0.65931
USER: genes 3 Torsion [N]-CA--C-[N] |==|  0.37303
USER: genes 4 Torsion [C]-N--CA-[CB] |==|  0.52485
USER: genes 5 Torsion [N]-CA--C-[N] |==|  0.74818
USER: genes 6 Torsion [C]-N--CA-[CB] |==|  0.37815
USER: genes 7 Torsion [N]-CA--C-[N] |==|  0.13394
USER: genes 8 Torsion [C]-N--CA-[CB] |==|  0.24946
USER: genes 9 Torsion [N]-CA--C-[O] |==|  0.82464
USER: genes 10 Torsion [N]-CA--CB-[CG2] |==|  0.03912
USER: genes 11 Torsion [N]-CA--CB-[OG] |==|  0.05209
USER: genes 12 Torsion [CA]-CB--OG-[HG] |==|  0.87561
USER: genes 13 Torsion [CB]-CA--N-[C] |==|  0.52368
USER: genes 14 Torsion [N]-C--CA-[N] |==|  0.38686
USER: genes 15 Torsion [C]-CA--CB-[CG] |==|  0.40490
USER: genes 16 Torsion [CA]-CB--CG-[CD] |==|  0.84845
USER: genes 17 Torsion [CB]-CG--CD-[OE1] |==|  0.72474
USER: genes 18 Torsion [C]-CA--N-[C] |==|  0.66956
USER: genes 19 Torsion [N]-C--CA-[N] |==|  0.33019
USER: genes 20 Torsion [C]-CA--CB-[CG] |==|  0.70948
USER: genes 21 Torsion [CA]-CB--CG-[CD] |==|  0.74400
USER: genes 22 Torsion [CB]-CG--CD-[OE1] |==|  0.69060
ROOT
ATOM      1  CA  VAL B   5      17.823 -22.911   1.783  1.00 23.44 LIG 0.18  C 
ENDROOT
BRANCH 1 2
ATOM      2  CB  VAL B   5      18.161 -22.419   0.374  1.00 27.20 LIG 0.01  C 
ATOM      3  CG2 VAL B   5      16.928 -22.010  -0.374  1.00 32.91 LIG 0.01  C 
ATOM      4  CG1 VAL B   5      18.950 -23.453  -0.400  1.00 27.01 LIG 0.01  C 
ENDBRANCH 1 2
BRANCH 1 5
ATOM      5  C   VAL B   5      18.577 -22.082   2.816  1.00 21.98 LIG 0.24  C 
ATOM      6 O    VAL B   5      18.241 -20.919   3.025  1.00 26.26 LIG-0.27  OA
ATOM      7  N   SER B   6      19.626 -22.643   3.421  1.00 19.41 LIG-0.34  N 
ATOM      8 H    SER B   6      19.907 -23.433   3.233  1.00 19.41 LIG 0.16  HD
BRANCH 7 9
ATOM      9  CA  SER B   6      20.400 -21.986   4.452  1.00 20.84 LIG 0.20  C 
BRANCH 9 10
ATOM     10  C   SER B   6      20.833 -20.592   4.053  1.00 18.76 LIG 0.24  C 
ATOM     11 O    SER B   6      20.109 -19.624   4.199  1.00 19.89 LIG-0.27  OA
ATOM     12  N   ALA B   7      21.997 -20.527   3.451  1.00 19.53 LIG-0.35  N 
ATOM     13 H    ALA B   7      22.490 -21.221   3.327  1.00 19.53 LIG 0.16  HD
BRANCH 12 14
ATOM     14  CA  ALA B   7      22.591 -19.304   2.928  1.00 19.70 LIG 0.17  C 
ATOM     15  CB  ALA B   7      24.082 -19.258   3.307  1.00 20.39 LIG 0.04  C 
BRANCH 14 16
ATOM     16  C   ALA B   7      22.499 -19.224   1.415  1.00 16.34 LIG 0.24  C 
ATOM     17  N   VAL B   8      21.333 -19.476   0.852  1.00 16.85 LIG-0.34  N 
ATOM     18 H    VAL B   8      20.641 -19.759   1.278  1.00 16.85 LIG 0.16  HD
ATOM     19 O    ALA B   7      23.469 -18.877   0.771  1.00 20.16 LIG-0.27  OA
BRANCH 17 20
ATOM     20  CA  VAL B   8      21.128 -19.285  -0.591  1.00 17.28 LIG 0.19  C 
BRANCH 20 21
ATOM     21  C   VAL B   8      19.690 -18.836  -0.825  1.00 17.19 LIG 0.20  C 
ATOM     22 O    VAL B   8      18.745 -19.599  -0.519  1.00 24.30 LIG-0.65  OA
ATOM     23 OXT  VAL B   8      19.432 -17.733  -1.358  1.00 16.53 LIG-0.65  OA
ENDBRANCH 20 21
BRANCH 20 24
ATOM     24  CB  VAL B   8      21.459 -20.568  -1.416  1.00 17.38 LIG 0.01  C 
ATOM     25  CG2 VAL B   8      21.568 -21.763  -0.475  1.00 18.61 LIG 0.01  C 
ATOM     26  CG1 VAL B   8      22.695 -20.362  -2.251  1.00 19.61 LIG 0.01  C 
ENDBRANCH 20 24
ENDBRANCH 17 20
ENDBRANCH 14 16
ENDBRANCH 12 14
ENDBRANCH 9 10
BRANCH 9 27
ATOM     27  CB  SER B   6      21.650 -22.792   4.780  1.00 25.59 LIG 0.20  C 
BRANCH 27 28
ATOM     28 OG   SER B   6      21.942 -23.697   3.738  1.00 27.26 LIG-0.40  OA
ATOM     29 HG   SER B   6      21.236 -24.082   3.494  1.00 27.26 LIG 0.21  HD
ENDBRANCH 27 28
ENDBRANCH 9 27
ENDBRANCH 7 9
ENDBRANCH 1 5
BRANCH 1 30
ATOM     30  N   VAL B   5      16.413 -22.750   2.056  1.00 22.92 LIG-0.35  N 
ATOM     31 H    VAL B   5      15.955 -22.518   1.366  1.00 22.92 LIG 0.16  HD
ATOM     32  C   GLN B   4      15.872 -22.940   3.249  1.00 24.29 LIG 0.24  C 
ATOM     33 O    GLN B   4      16.481 -23.309   4.234  1.00 26.90 LIG-0.27  OA
BRANCH 32 34
ATOM     34  CA  GLN B   4      14.367 -22.673   3.327  1.00 30.52 LIG 0.18  C 
BRANCH 34 35
ATOM     35  CB  GLN B   4      14.157 -21.280   3.919  1.00 36.61 LIG 0.04  C 
BRANCH 35 36
ATOM     36  CG  GLN B   4      12.951 -20.556   3.346  1.00 50.94 LIG 0.10  C 
BRANCH 36 37
ATOM     37  CD  GLN B   4      13.023 -20.490   1.823  1.00 60.90 LIG 0.21  C 
ATOM     38  NE2 GLN B   4      12.628 -21.570   1.151  1.00 82.36 LIG-0.37  N 
ATOM     39 21HE GLN B   4      12.355 -22.265   1.577  1.00 82.36 LIG 0.16  HD
ATOM     40 22HE GLN B   4      12.646 -21.573   0.291  1.00 82.36 LIG 0.16  HD
ATOM     41 OE1  GLN B   4      13.423 -19.471   1.263  1.00 55.22 LIG-0.27  OA
ENDBRANCH 36 37
ENDBRANCH 35 36
ENDBRANCH 34 35
BRANCH 34 42
ATOM     42  N   GLN B   4      13.713 -23.676   4.144  1.00 37.98 LIG-0.35  N 
ATOM     43  C   GLU B   3      12.773 -24.481   3.659  1.00 56.89 LIG 0.26  C 
ATOM     44 O    GLU B   3      12.347 -24.389   2.516  1.00 56.58 LIG-0.27  OA
ATOM     45 H    GLN B   4      13.987 -23.698   4.959  1.00 37.98 LIG 0.16  HD
BRANCH 43 46
ATOM     46  CA  GLU B   3      12.229 -25.541   4.615  1.00 80.09 LIG 0.40  C 
ATOM     47  N   GLU B   3      10.801 -25.354   4.830  1.00 75.44 LIG 0.61  N 
BRANCH 46 48
ATOM     48  CB  GLU B   3      12.492 -26.935   4.056  1.00107.85 LIG 0.06  C 
BRANCH 48 49
ATOM     49  CG  GLU B   3      11.266 -27.600   3.477  1.00114.95 LIG 0.12  C 
BRANCH 49 50
ATOM     50  CD  GLU B   3      10.538 -28.452   4.499  1.00 96.82 LIG 0.17  C 
ATOM     51 OE1  GLU B   3      10.543 -29.698   4.356  1.00 91.15 LIG-0.65  OA
ATOM     52 OE2  GLU B   3       9.971 -27.877   5.457  1.00 91.13 LIG-0.65  OA
ENDBRANCH 49 50
ENDBRANCH 48 49
ENDBRANCH 46 48
ENDBRANCH 43 46
ENDBRANCH 34 42
ENDBRANCH 32 34
ENDBRANCH 1 30
TORSDOF 21
ENDMDL
