MODEL 1
USER: ADFR SOLUTION from run 76
USER: SCORE 21.989869 LL:  -4.041 LR: -20.958 RR:   0.000 FEB: -11.413
USER: RMSD 12.791190
USER: SEED 75
USER: STATUS searching
USER: GENES 34
USER: genes 0 Translation |==|  0.42447 0.52795 0.45926
USER: genes 1 Rotation |==|  0.90231 0.68218 0.40645 0.71495
USER: genes 2 Torsion [C]-N--CA-[CB] |==|  0.78819
USER: genes 3 Torsion [N]-CA--C-[N] |==|  0.73432
USER: genes 4 Torsion [C]-N--CA-[CB] |==|  0.53049
USER: genes 5 Torsion [N]-CA--CB-[CG] |==|  0.65167
USER: genes 6 Torsion [CA]-CB--CG-[CD] |==|  0.45470
USER: genes 7 Torsion [CB]-CG--CD-[OE2] |==|  0.67253
USER: genes 8 Torsion [N]-CA--C-[N] |==|  0.76488
USER: genes 9 Torsion [C]-N--CA-[C] |==|  0.63710
USER: genes 10 Torsion [N]-CA--C-[N] |==|  0.50063
USER: genes 11 Torsion [C]-N--CA-[CB] |==|  0.42007
USER: genes 12 Torsion [N]-CA--C-[OXT] |==|  0.56834
USER: genes 13 Torsion [N]-CA--CB-[SG] |==|  0.92727
USER: genes 14 Torsion [CA]-CB--SG-[HG] |==|  0.06187
USER: genes 15 Torsion [N]-CA--CB-[CG] |==|  0.07182
USER: genes 16 Torsion [CA]-CB--CG-[CD] |==|  0.40471
USER: genes 17 Torsion [CB]-CG--CD-[OE1] |==|  0.92294
USER: genes 18 Torsion [N]-CA--CB-[CG] |==|  0.70966
USER: genes 19 Torsion [CA]-CB--CG-[SD] |==|  0.28807
USER: genes 20 Torsion [CB]-CG--SD-[CE] |==|  0.29507
USER: genes 21 Torsion [N]-C--CA-[N] |==|  0.99523
USER: genes 22 Torsion [C]-CA--N-[C] |==|  0.66626
USER: genes 23 Torsion [N]-C--CA-[N] |==|  0.50000
USER: genes 24 Torsion [C]-CA--CB-[CG] |==|  0.80888
USER: genes 25 Torsion [CA]-CB--CG-[OD1] |==|  0.56456
USER: genes 26 Torsion [C]-CA--N-[C] |==|  0.64815
USER: genes 27 Torsion [N]-C--CA-[N] |==|  0.01911
USER: genes 28 Torsion [C]-CA--N-[C] |==|  0.73730
USER: genes 29 Torsion [C]-CA--CB-[CG] |==|  0.44202
USER: genes 30 Torsion [CA]-CB--CG-[CD1] |==|  0.09977
USER: genes 31 Torsion [C]-CA--CB-[CG] |==|  0.62285
USER: genes 32 Torsion [CA]-CB--CG-[CD] |==|  0.77557
USER: genes 33 Torsion [CB]-CG--CD-[OE1] |==|  0.00136
ROOT
ATOM      1  C   GLU C   3      26.800  -2.678  -9.573  1.00 25.67 LIG 0.24  C 
ATOM      2 O    GLU C   3      26.356  -3.188  -8.535  1.00 24.73 LIG-0.27  OA
ATOM      3  N   MET C   4      28.068  -2.291  -9.733  1.00 25.06 LIG-0.35  N 
ATOM      4 H    MET C   4      28.359  -1.920 -10.452  1.00 25.06 LIG 0.16  HD
ENDROOT
BRANCH 3 5
ATOM      5  CA  MET C   4      29.092  -2.456  -8.699  1.00 24.76 LIG 0.18  C 
BRANCH 5 6
ATOM      6  C   MET C   4      28.992  -3.848  -8.097  1.00 24.60 LIG 0.24  C 
ATOM      7 O    MET C   4      29.496  -4.826  -8.657  1.00 25.19 LIG-0.27  OA
ATOM      8  N   GLU C   5      28.284  -3.932  -6.981  1.00 23.81 LIG-0.35  N 
ATOM      9 H    GLU C   5      27.838  -3.276  -6.649  1.00 23.81 LIG 0.16  HD
BRANCH 8 10
ATOM     10  CA  GLU C   5      28.198  -5.146  -6.218  1.00 23.16 LIG 0.18  C 
BRANCH 10 11
ATOM     11  CB  GLU C   5      27.106  -4.998  -5.161  1.00 23.03 LIG 0.04  C 
BRANCH 11 12
ATOM     12  CG  GLU C   5      27.616  -5.289  -3.750  1.00 23.31 LIG 0.12  C 
BRANCH 12 13
ATOM     13  CD  GLU C   5      26.696  -4.784  -2.637  1.00 24.36 LIG 0.17  C 
ATOM     14 OE2  GLU C   5      27.144  -3.914  -1.843  1.00 22.25 LIG-0.65  OA
ATOM     15 OE1  GLU C   5      25.543  -5.245  -2.534  1.00 21.71 LIG-0.65  OA
ENDBRANCH 12 13
ENDBRANCH 11 12
ENDBRANCH 10 11
BRANCH 10 16
ATOM     16  C   GLU C   5      27.868  -6.287  -7.148  1.00 22.53 LIG 0.24  C 
ATOM     17  N   GLU C   6      26.581  -6.475  -7.426  1.00 22.45 LIG-0.35  N 
ATOM     18 H    GLU C   6      25.937  -6.063  -7.032  1.00 22.45 LIG 0.16  HD
ATOM     19 O    GLU C   5      28.764  -6.995  -7.588  1.00 22.53 LIG-0.27  OA
BRANCH 17 20
ATOM     20  CA  GLU C   6      26.150  -7.432  -8.465  1.00 22.27 LIG 0.18  C 
BRANCH 20 21
ATOM     21  C   GLU C   6      25.155  -6.774  -9.406  1.00 21.97 LIG 0.24  C 
ATOM     22 O    GLU C   6      24.818  -5.602  -9.235  1.00 22.60 LIG-0.27  OA
ATOM     23  N   CYS C   7      24.664  -7.509 -10.400  1.00 20.65 LIG-0.34  N 
ATOM     24 H    CYS C   7      24.830  -8.344 -10.526  1.00 20.65 LIG 0.16  HD
BRANCH 23 25
ATOM     25  CA  CYS C   7      23.768  -6.893 -11.379  1.00 20.43 LIG 0.19  C 
BRANCH 25 26
ATOM     26  C   CYS C   7      22.346  -6.825 -10.857  1.00 19.69 LIG 0.20  C 
ATOM     27 O    CYS C   7      22.082  -6.829  -9.658  1.00 19.84 LIG-0.65  OA
ATOM     28 OXT  CYS C   7      21.408  -6.776 -11.648  1.00 20.10 LIG-0.65  OA
ENDBRANCH 25 26
BRANCH 25 29
ATOM     29  CB  CYS C   7      23.881  -7.597 -12.747  1.00 20.27 LIG 0.11  C 
BRANCH 29 30
ATOM     30 SG   CYS C   7      25.512  -8.404 -13.013  1.00 22.98 LIG-0.18  SA
ATOM     31 HG   CYS C   7      26.031  -8.618 -11.953  1.00 22.98 LIG 0.10  HD
ENDBRANCH 29 30
ENDBRANCH 25 29
ENDBRANCH 23 25
ENDBRANCH 20 21
BRANCH 20 32
ATOM     32  CB  GLU C   6      25.518  -8.665  -7.819  1.00 22.58 LIG 0.04  C 
BRANCH 32 33
ATOM     33  CG  GLU C   6      24.933  -8.369  -6.460  1.00 24.64 LIG 0.12  C 
BRANCH 33 34
ATOM     34  CD  GLU C   6      23.677  -9.175  -6.156  1.00 27.63 LIG 0.17  C 
ATOM     35 OE1  GLU C   6      22.944  -9.563  -7.098  1.00 27.17 LIG-0.65  OA
ATOM     36 OE2  GLU C   6      23.438  -9.425  -4.953  1.00 31.71 LIG-0.65  OA
ENDBRANCH 33 34
ENDBRANCH 32 33
ENDBRANCH 20 32
ENDBRANCH 17 20
ENDBRANCH 10 16
ENDBRANCH 8 10
ENDBRANCH 5 6
BRANCH 5 37
ATOM     37  CB  MET C   4      28.924  -1.408  -7.594  1.00 24.86 LIG 0.04  C 
BRANCH 37 38
ATOM     38  CG  MET C   4      29.939  -0.246  -7.616  1.00 24.76 LIG 0.08  C 
BRANCH 38 39
ATOM     39 SD   MET C   4      29.309   1.327  -8.253  1.00 26.68 LIG-0.17  SA
ATOM     40  CE  MET C   4      29.170   2.246  -6.708  1.00 24.50 LIG 0.09  C 
ENDBRANCH 38 39
ENDBRANCH 37 38
ENDBRANCH 5 37
ENDBRANCH 3 5
BRANCH 1 41
ATOM     41  CA  GLU C   3      25.890  -2.499 -10.788  1.00 26.55 LIG 0.18  C 
BRANCH 41 42
ATOM     42  N   GLU C   3      26.642  -1.882 -11.877  1.00 27.07 LIG-0.35  N 
ATOM     43 H    GLU C   3      27.325  -2.335 -12.140  1.00 27.07 LIG 0.16  HD
ATOM     44  C   ASP C   2      26.277  -0.714 -12.399  1.00 28.06 LIG 0.24  C 
ATOM     45 O    ASP C   2      25.277  -0.106 -12.022  1.00 27.76 LIG-0.27  OA
BRANCH 44 46
ATOM     46  CA  ASP C   2      27.140  -0.180 -13.545  1.00 28.68 LIG 0.19  C 
BRANCH 46 47
ATOM     47  CB  ASP C   2      28.631  -0.097 -13.161  1.00 28.90 LIG 0.15  C 
BRANCH 47 48
ATOM     48  CG  ASP C   2      28.935   0.971 -12.117  1.00 30.38 LIG 0.17  C 
ATOM     49 OD2  ASP C   2      28.034   1.349 -11.339  1.00 31.55 LIG-0.65  OA
ATOM     50 OD1  ASP C   2      30.108   1.421 -12.064  1.00 32.13 LIG-0.65  OA
ENDBRANCH 47 48
ENDBRANCH 46 47
BRANCH 46 51
ATOM     51  N   ASP C   2      26.680   1.112 -14.074  1.00 28.83 LIG-0.34  N 
ATOM     52  C   PHE C   1      26.449   1.267 -15.376  1.00 29.29 LIG 0.24  C 
ATOM     53 O    PHE C   1      26.440   0.325 -16.171  1.00 29.28 LIG-0.27  OA
ATOM     54 H    ASP C   2      26.579   1.730 -13.484  1.00 28.83 LIG 0.16  HD
BRANCH 52 55
ATOM     55  CA  PHE C   1      26.220   2.686 -15.875  1.00 29.71 LIG 0.18  C 
BRANCH 55 56
ATOM     56  N   PHE C   1      26.480   3.597 -14.762  1.00 30.30 LIG-0.35  N 
ATOM     57 H    PHE C   1      27.308   3.811 -14.674  1.00 30.30 LIG 0.16  HD
ATOM     58  C   ACE C   0      25.509   4.054 -13.956  1.00 30.61 LIG 0.21  C 
ATOM     59  CH3 ACE C   0      25.924   5.172 -13.039  1.00 31.12 LIG 0.12  C 
ATOM     60 O    ACE C   0      24.464   3.424 -13.759  1.00 30.74 LIG-0.27  OA
ENDBRANCH 55 56
BRANCH 55 61
ATOM     61  CB  PHE C   1      27.150   3.016 -17.050  1.00 29.76 LIG 0.07  C 
BRANCH 61 62
ATOM     62  CG  PHE C   1      26.685   4.168 -17.922  1.00 30.32 LIG-0.06  A 
ATOM     63  CD1 PHE C   1      26.039   5.263 -17.352  1.00 31.60 LIG 0.01  A 
ATOM     64  CE1 PHE C   1      25.588   6.324 -18.145  1.00 31.29 LIG 0.00  A 
ATOM     65  CZ  PHE C   1      25.789   6.293 -19.517  1.00 31.54 LIG 0.00  A 
ATOM     66  CE2 PHE C   1      26.430   5.205 -20.099  1.00 29.54 LIG 0.00  A 
ATOM     67  CD2 PHE C   1      26.871   4.154 -19.304  1.00 30.51 LIG 0.01  A 
ENDBRANCH 61 62
ENDBRANCH 55 61
ENDBRANCH 52 55
ENDBRANCH 46 51
ENDBRANCH 44 46
ENDBRANCH 41 42
BRANCH 41 68
ATOM     68  CB  GLU C   3      25.211  -3.827 -11.220  1.00 26.96 LIG 0.04  C 
BRANCH 68 69
ATOM     69  CG  GLU C   3      25.169  -4.176 -12.729  1.00 28.76 LIG 0.12  C 
BRANCH 69 70
ATOM     70  CD  GLU C   3      24.068  -3.483 -13.493  1.00 29.94 LIG 0.17  C 
ATOM     71 OE1  GLU C   3      23.318  -2.707 -12.870  1.00 33.38 LIG-0.65  OA
ATOM     72 OE2  GLU C   3      23.975  -3.691 -14.728  1.00 31.06 LIG-0.65  OA
ENDBRANCH 69 70
ENDBRANCH 68 69
ENDBRANCH 41 68
ENDBRANCH 1 41
TORSDOF 32
ENDMDL
MODEL 2
USER: ADFR SOLUTION from run 76
USER: SCORE 20.532715 LL:  -4.139 LR: -20.396 RR:   0.000 FEB: -10.850
USER: RMSD 12.267097
USER: SEED 75
USER: STATUS searching
USER: GENES 34
USER: genes 0 Translation |==|  0.43474 0.52915 0.45721
USER: genes 1 Rotation |==|  0.91906 0.66091 0.42631 0.70752
USER: genes 2 Torsion [C]-N--CA-[CB] |==|  0.78745
USER: genes 3 Torsion [N]-CA--C-[N] |==|  0.71727
USER: genes 4 Torsion [C]-N--CA-[CB] |==|  0.54003
USER: genes 5 Torsion [N]-CA--CB-[CG] |==|  0.65504
USER: genes 6 Torsion [CA]-CB--CG-[CD] |==|  0.43515
USER: genes 7 Torsion [CB]-CG--CD-[OE2] |==|  0.67471
USER: genes 8 Torsion [N]-CA--C-[N] |==|  0.78400
USER: genes 9 Torsion [C]-N--CA-[C] |==|  0.61402
USER: genes 10 Torsion [N]-CA--C-[N] |==|  0.49340
USER: genes 11 Torsion [C]-N--CA-[CB] |==|  0.41991
USER: genes 12 Torsion [N]-CA--C-[OXT] |==|  0.53186
USER: genes 13 Torsion [N]-CA--CB-[SG] |==|  0.92168
USER: genes 14 Torsion [CA]-CB--SG-[HG] |==|  0.06053
USER: genes 15 Torsion [N]-CA--CB-[CG] |==|  0.03653
USER: genes 16 Torsion [CA]-CB--CG-[CD] |==|  0.40767
USER: genes 17 Torsion [CB]-CG--CD-[OE1] |==|  0.95919
USER: genes 18 Torsion [N]-CA--CB-[CG] |==|  0.73715
USER: genes 19 Torsion [CA]-CB--CG-[SD] |==|  0.24863
USER: genes 20 Torsion [CB]-CG--SD-[CE] |==|  0.30976
USER: genes 21 Torsion [N]-C--CA-[N] |==|  0.82776
USER: genes 22 Torsion [C]-CA--N-[C] |==|  0.57903
USER: genes 23 Torsion [N]-C--CA-[N] |==|  0.21265
USER: genes 24 Torsion [C]-CA--CB-[CG] |==|  0.47700
USER: genes 25 Torsion [CA]-CB--CG-[OD1] |==|  0.92406
USER: genes 26 Torsion [C]-CA--N-[C] |==|  0.75904
USER: genes 27 Torsion [N]-C--CA-[N] |==|  0.63720
USER: genes 28 Torsion [C]-CA--N-[C] |==|  0.67222
USER: genes 29 Torsion [C]-CA--CB-[CG] |==|  0.19948
USER: genes 30 Torsion [CA]-CB--CG-[CD1] |==|  0.54081
USER: genes 31 Torsion [C]-CA--CB-[CG] |==|  0.59813
USER: genes 32 Torsion [CA]-CB--CG-[CD] |==|  0.76913
USER: genes 33 Torsion [CB]-CG--CD-[OE1] |==|  0.00184
ROOT
ATOM      1  C   GLU C   3      26.992  -2.645  -9.625  1.00 25.67 LIG 0.24  C 
ATOM      2 O    GLU C   3      26.412  -3.188  -8.674  1.00 24.73 LIG-0.27  OA
ATOM      3  N   MET C   4      28.291  -2.335  -9.631  1.00 25.06 LIG-0.35  N 
ATOM      4 H    MET C   4      28.678  -1.941 -10.290  1.00 25.06 LIG 0.16  HD
ENDROOT
BRANCH 3 5
ATOM      5  CA  MET C   4      29.190  -2.633  -8.514  1.00 24.76 LIG 0.18  C 
BRANCH 5 6
ATOM      6  C   MET C   4      28.939  -4.047  -8.017  1.00 24.60 LIG 0.24  C 
ATOM      7 O    MET C   4      29.340  -5.029  -8.650  1.00 25.19 LIG-0.27  OA
ATOM      8  N   GLU C   5      28.219  -4.139  -6.910  1.00 23.81 LIG-0.35  N 
ATOM      9 H    GLU C   5      27.844  -3.466  -6.528  1.00 23.81 LIG 0.16  HD
BRANCH 8 10
ATOM     10  CA  GLU C   5      27.999  -5.391  -6.240  1.00 23.16 LIG 0.18  C 
BRANCH 10 11
ATOM     11  CB  GLU C   5      26.864  -5.228  -5.233  1.00 23.03 LIG 0.04  C 
BRANCH 11 12
ATOM     12  CG  GLU C   5      27.280  -5.623  -3.816  1.00 23.31 LIG 0.12  C 
BRANCH 12 13
ATOM     13  CD  GLU C   5      26.434  -4.980  -2.715  1.00 24.36 LIG 0.17  C 
ATOM     14 OE2  GLU C   5      27.004  -4.201  -1.905  1.00 22.25 LIG-0.65  OA
ATOM     15 OE1  GLU C   5      25.219  -5.244  -2.637  1.00 21.71 LIG-0.65  OA
ENDBRANCH 12 13
ENDBRANCH 11 12
ENDBRANCH 10 11
BRANCH 10 16
ATOM     16  C   GLU C   5      27.639  -6.438  -7.264  1.00 22.53 LIG 0.24  C 
ATOM     17  N   GLU C   6      26.391  -6.414  -7.726  1.00 22.45 LIG-0.35  N 
ATOM     18 H    GLU C   6      25.767  -5.919  -7.402  1.00 22.45 LIG 0.16  HD
ATOM     19 O    GLU C   5      28.472  -7.263  -7.613  1.00 22.53 LIG-0.27  OA
BRANCH 17 20
ATOM     20  CA  GLU C   6      25.974  -7.261  -8.861  1.00 22.27 LIG 0.18  C 
BRANCH 20 21
ATOM     21  C   GLU C   6      25.063  -6.479  -9.792  1.00 21.97 LIG 0.24  C 
ATOM     22 O    GLU C   6      24.733  -5.325  -9.516  1.00 22.60 LIG-0.27  OA
ATOM     23  N   CYS C   7      24.637  -7.088 -10.896  1.00 20.65 LIG-0.34  N 
ATOM     24 H    CYS C   7      24.799  -7.907 -11.102  1.00 20.65 LIG 0.16  HD
BRANCH 23 25
ATOM     25  CA  CYS C   7      23.827  -6.346 -11.862  1.00 20.43 LIG 0.19  C 
BRANCH 25 26
ATOM     26  C   CYS C   7      22.370  -6.304 -11.441  1.00 19.69 LIG 0.20  C 
ATOM     27 O    CYS C   7      21.994  -6.664 -10.329  1.00 19.84 LIG-0.65  OA
ATOM     28 OXT  CYS C   7      21.518  -5.909 -12.232  1.00 20.10 LIG-0.65  OA
ENDBRANCH 25 26
BRANCH 25 29
ATOM     29  CB  CYS C   7      24.031  -6.897 -13.288  1.00 20.27 LIG 0.11  C 
BRANCH 29 30
ATOM     30 SG   CYS C   7      25.689  -7.654 -13.541  1.00 22.98 LIG-0.18  SA
ATOM     31 HG   CYS C   7      26.151  -7.969 -12.480  1.00 22.98 LIG 0.10  HD
ENDBRANCH 29 30
ENDBRANCH 25 29
ENDBRANCH 23 25
ENDBRANCH 20 21
BRANCH 20 32
ATOM     32  CB  GLU C   6      25.253  -8.509  -8.354  1.00 22.58 LIG 0.04  C 
BRANCH 32 33
ATOM     33  CG  GLU C   6      24.876  -8.406  -6.897  1.00 24.64 LIG 0.12  C 
BRANCH 33 34
ATOM     34  CD  GLU C   6      23.575  -9.122  -6.559  1.00 27.63 LIG 0.17  C 
ATOM     35 OE1  GLU C   6      22.802  -9.476  -7.483  1.00 27.17 LIG-0.65  OA
ATOM     36 OE2  GLU C   6      23.341  -9.337  -5.348  1.00 31.71 LIG-0.65  OA
ENDBRANCH 33 34
ENDBRANCH 32 33
ENDBRANCH 20 32
ENDBRANCH 17 20
ENDBRANCH 10 16
ENDBRANCH 8 10
ENDBRANCH 5 6
BRANCH 5 37
ATOM     37  CB  MET C   4      28.977  -1.642  -7.364  1.00 24.86 LIG 0.04  C 
BRANCH 37 38
ATOM     38  CG  MET C   4      29.921  -0.422  -7.350  1.00 24.76 LIG 0.08  C 
BRANCH 38 39
ATOM     39 SD   MET C   4      29.340   1.023  -8.271  1.00 26.68 LIG-0.17  SA
ATOM     40  CE  MET C   4      29.033   2.154  -6.900  1.00 24.50 LIG 0.09  C 
ENDBRANCH 38 39
ENDBRANCH 37 38
ENDBRANCH 5 37
ENDBRANCH 3 5
BRANCH 1 41
ATOM     41  CA  GLU C   3      26.226  -2.329 -10.909  1.00 26.55 LIG 0.18  C 
BRANCH 41 42
ATOM     42  N   GLU C   3      26.259  -0.891 -11.159  1.00 27.07 LIG-0.35  N 
ATOM     43 H    GLU C   3      26.953  -0.490 -10.845  1.00 27.07 LIG 0.16  HD
ATOM     44  C   ASP C   2      25.281  -0.278 -11.820  1.00 28.06 LIG 0.24  C 
ATOM     45 O    ASP C   2      24.317  -0.883 -12.284  1.00 27.76 LIG-0.27  OA
BRANCH 44 46
ATOM     46  CA  ASP C   2      25.440   1.231 -12.028  1.00 28.68 LIG 0.19  C 
BRANCH 46 47
ATOM     47  CB  ASP C   2      24.089   1.928 -12.285  1.00 28.90 LIG 0.15  C 
BRANCH 47 48
ATOM     48  CG  ASP C   2      24.178   3.449 -12.298  1.00 30.38 LIG 0.17  C 
ATOM     49 OD2  ASP C   2      23.341   4.112 -12.945  1.00 31.55 LIG-0.65  OA
ATOM     50 OD1  ASP C   2      25.094   3.988 -11.624  1.00 32.13 LIG-0.65  OA
ENDBRANCH 47 48
ENDBRANCH 46 47
BRANCH 46 51
ATOM     51  N   ASP C   2      26.400   1.580 -13.085  1.00 28.83 LIG-0.34  N 
ATOM     52  C   PHE C   1      27.697   1.696 -12.809  1.00 29.29 LIG 0.24  C 
ATOM     53 O    PHE C   1      28.185   1.362 -11.728  1.00 29.28 LIG-0.27  OA
ATOM     54 H    ASP C   2      26.055   1.697 -13.864  1.00 28.83 LIG 0.16  HD
BRANCH 52 55
ATOM     55  CA  PHE C   1      28.584   2.299 -13.889  1.00 29.71 LIG 0.18  C 
BRANCH 55 56
ATOM     56  N   PHE C   1      29.736   1.417 -14.065  1.00 30.30 LIG-0.35  N 
ATOM     57 H    PHE C   1      29.531   0.625 -14.330  1.00 30.30 LIG 0.16  HD
ATOM     58  C   ACE C   0      30.997   1.814 -13.831  1.00 30.61 LIG 0.21  C 
ATOM     59  CH3 ACE C   0      32.057   0.861 -14.310  1.00 31.12 LIG 0.12  C 
ATOM     60 O    ACE C   0      31.267   2.717 -13.033  1.00 30.74 LIG-0.27  OA
ENDBRANCH 55 56
BRANCH 55 61
ATOM     61  CB  PHE C   1      27.825   2.439 -15.214  1.00 29.76 LIG 0.07  C 
BRANCH 61 62
ATOM     62  CG  PHE C   1      26.768   3.529 -15.229  1.00 30.32 LIG-0.06  A 
ATOM     63  CD1 PHE C   1      25.810   3.564 -16.240  1.00 31.60 LIG 0.01  A 
ATOM     64  CE1 PHE C   1      24.841   4.573 -16.278  1.00 31.29 LIG 0.00  A 
ATOM     65  CZ  PHE C   1      24.827   5.552 -15.295  1.00 31.54 LIG 0.00  A 
ATOM     66  CE2 PHE C   1      25.780   5.530 -14.282  1.00 29.54 LIG 0.00  A 
ATOM     67  CD2 PHE C   1      26.740   4.526 -14.255  1.00 30.51 LIG 0.01  A 
ENDBRANCH 61 62
ENDBRANCH 55 61
ENDBRANCH 52 55
ENDBRANCH 46 51
ENDBRANCH 44 46
ENDBRANCH 41 42
BRANCH 41 68
ATOM     68  CB  GLU C   3      26.743  -3.149 -12.123  1.00 26.96 LIG 0.04  C 
BRANCH 68 69
ATOM     69  CG  GLU C   3      26.749  -2.475 -13.518  1.00 28.76 LIG 0.12  C 
BRANCH 69 70
ATOM     70  CD  GLU C   3      25.423  -2.530 -14.236  1.00 29.94 LIG 0.17  C 
ATOM     71 OE1  GLU C   3      24.464  -3.081 -13.662  1.00 33.38 LIG-0.65  OA
ATOM     72 OE2  GLU C   3      25.333  -1.991 -15.367  1.00 31.06 LIG-0.65  OA
ENDBRANCH 69 70
ENDBRANCH 68 69
ENDBRANCH 41 68
ENDBRANCH 1 41
TORSDOF 32
ENDMDL
MODEL 3
USER: ADFR SOLUTION from run 8
USER: SCORE 21.452522 LL:  -4.183 LR: -20.287 RR:   0.000 FEB: -10.741
USER: RMSD 14.384837
USER: SEED 635722
USER: STATUS no improvement in best in 2 clusters for 5 generations
USER: GENES 34
USER: genes 0 Translation |==|  0.42934 0.68923 0.33304
USER: genes 1 Rotation |==|  0.95454 0.32894 0.40002 0.56429
USER: genes 2 Torsion [C]-N--CA-[CB] |==|  0.28244
USER: genes 3 Torsion [N]-CA--C-[N] |==|  0.43872
USER: genes 4 Torsion [C]-N--CA-[CB] |==|  0.26664
USER: genes 5 Torsion [N]-CA--CB-[CG] |==|  0.81623
USER: genes 6 Torsion [CA]-CB--CG-[CD] |==|  0.45584
USER: genes 7 Torsion [CB]-CG--CD-[OE2] |==|  0.78106
USER: genes 8 Torsion [N]-CA--C-[N] |==|  0.47122
USER: genes 9 Torsion [C]-N--CA-[C] |==|  0.18860
USER: genes 10 Torsion [N]-CA--C-[N] |==|  0.65865
USER: genes 11 Torsion [C]-N--CA-[CB] |==|  0.25568
USER: genes 12 Torsion [N]-CA--C-[OXT] |==|  0.64723
USER: genes 13 Torsion [N]-CA--CB-[SG] |==|  0.26564
USER: genes 14 Torsion [CA]-CB--SG-[HG] |==|  0.57473
USER: genes 15 Torsion [N]-CA--CB-[CG] |==|  0.57204
USER: genes 16 Torsion [CA]-CB--CG-[CD] |==|  0.47918
USER: genes 17 Torsion [CB]-CG--CD-[OE1] |==|  0.71310
USER: genes 18 Torsion [N]-CA--CB-[CG] |==|  0.54792
USER: genes 19 Torsion [CA]-CB--CG-[SD] |==|  0.50454
USER: genes 20 Torsion [CB]-CG--SD-[CE] |==|  0.27492
USER: genes 21 Torsion [N]-C--CA-[N] |==|  0.12984
USER: genes 22 Torsion [C]-CA--N-[C] |==|  0.14847
USER: genes 23 Torsion [N]-C--CA-[N] |==|  0.92029
USER: genes 24 Torsion [C]-CA--CB-[CG] |==|  0.19417
USER: genes 25 Torsion [CA]-CB--CG-[OD1] |==|  0.59071
USER: genes 26 Torsion [C]-CA--N-[C] |==|  0.83343
USER: genes 27 Torsion [N]-C--CA-[N] |==|  0.99138
USER: genes 28 Torsion [C]-CA--N-[C] |==|  0.75704
USER: genes 29 Torsion [C]-CA--CB-[CG] |==|  0.16442
USER: genes 30 Torsion [CA]-CB--CG-[CD1] |==|  0.73646
USER: genes 31 Torsion [C]-CA--CB-[CG] |==|  0.63170
USER: genes 32 Torsion [CA]-CB--CG-[CD] |==|  0.35792
USER: genes 33 Torsion [CB]-CG--CD-[OE1] |==|  0.23641
ROOT
ATOM      1  C   GLU C   3      26.891   1.797 -12.792  1.00 25.67 LIG 0.24  C 
ATOM      2 O    GLU C   3      25.931   2.272 -12.169  1.00 24.73 LIG-0.27  OA
ATOM      3  N   MET C   4      27.338   0.548 -12.639  1.00 25.06 LIG-0.35  N 
ATOM      4 H    MET C   4      28.018   0.236 -13.064  1.00 25.06 LIG 0.16  HD
ENDROOT
BRANCH 3 5
ATOM      5  CA  MET C   4      26.716  -0.420 -11.732  1.00 24.76 LIG 0.18  C 
BRANCH 5 6
ATOM      6  C   MET C   4      27.794  -1.184 -10.981  1.00 24.60 LIG 0.24  C 
ATOM      7 O    MET C   4      28.930  -1.314 -11.448  1.00 25.19 LIG-0.27  OA
ATOM      8  N   GLU C   5      27.406  -1.737  -9.842  1.00 23.81 LIG-0.35  N 
ATOM      9 H    GLU C   5      26.591  -1.744  -9.569  1.00 23.81 LIG 0.16  HD
BRANCH 8 10
ATOM     10  CA  GLU C   5      28.330  -2.383  -8.951  1.00 23.16 LIG 0.18  C 
BRANCH 10 11
ATOM     11  CB  GLU C   5      28.755  -1.396  -7.867  1.00 23.03 LIG 0.04  C 
BRANCH 11 12
ATOM     12  CG  GLU C   5      29.571  -0.231  -8.426  1.00 23.31 LIG 0.12  C 
BRANCH 12 13
ATOM     13  CD  GLU C   5      29.691   0.960  -7.474  1.00 24.36 LIG 0.17  C 
ATOM     14 OE2  GLU C   5      28.713   1.750  -7.382  1.00 22.25 LIG-0.65  OA
ATOM     15 OE1  GLU C   5      30.742   1.130  -6.827  1.00 21.71 LIG-0.65  OA
ENDBRANCH 12 13
ENDBRANCH 11 12
ENDBRANCH 10 11
BRANCH 10 16
ATOM     16  C   GLU C   5      27.653  -3.579  -8.327  1.00 22.53 LIG 0.24  C 
ATOM     17  N   GLU C   6      28.431  -4.412  -7.640  1.00 22.45 LIG-0.35  N 
ATOM     18 H    GLU C   6      29.289  -4.366  -7.624  1.00 22.45 LIG 0.16  HD
ATOM     19 O    GLU C   5      26.451  -3.751  -8.483  1.00 22.53 LIG-0.27  OA
BRANCH 17 20
ATOM     20  CA  GLU C   6      27.860  -5.506  -6.830  1.00 22.27 LIG 0.18  C 
BRANCH 20 21
ATOM     21  C   GLU C   6      27.224  -6.551  -7.733  1.00 21.97 LIG 0.24  C 
ATOM     22 O    GLU C   6      27.887  -7.098  -8.614  1.00 22.60 LIG-0.27  OA
ATOM     23  N   CYS C   7      25.939  -6.835  -7.540  1.00 20.65 LIG-0.34  N 
ATOM     24 H    CYS C   7      25.426  -6.441  -6.974  1.00 20.65 LIG 0.16  HD
BRANCH 23 25
ATOM     25  CA  CYS C   7      25.308  -7.892  -8.330  1.00 20.43 LIG 0.19  C 
BRANCH 25 26
ATOM     26  C   CYS C   7      23.894  -7.514  -8.726  1.00 19.69 LIG 0.20  C 
ATOM     27 O    CYS C   7      23.626  -6.454  -9.284  1.00 19.84 LIG-0.65  OA
ATOM     28 OXT  CYS C   7      22.966  -8.279  -8.477  1.00 20.10 LIG-0.65  OA
ENDBRANCH 25 26
BRANCH 25 29
ATOM     29  CB  CYS C   7      25.392  -9.249  -7.598  1.00 20.27 LIG 0.11  C 
BRANCH 29 30
ATOM     30 SG   CYS C   7      23.879  -9.642  -6.628  1.00 22.98 LIG-0.18  SA
ATOM     31 HG   CYS C   7      24.166 -10.366  -5.716  1.00 22.98 LIG 0.10  HD
ENDBRANCH 29 30
ENDBRANCH 25 29
ENDBRANCH 23 25
ENDBRANCH 20 21
BRANCH 20 32
ATOM     32  CB  GLU C   6      26.819  -4.958  -5.856  1.00 22.58 LIG 0.04  C 
BRANCH 32 33
ATOM     33  CG  GLU C   6      26.660  -5.825  -4.632  1.00 24.64 LIG 0.12  C 
BRANCH 33 34
ATOM     34  CD  GLU C   6      25.764  -5.207  -3.567  1.00 27.63 LIG 0.17  C 
ATOM     35 OE1  GLU C   6      26.279  -4.689  -2.546  1.00 27.17 LIG-0.65  OA
ATOM     36 OE2  GLU C   6      24.530  -5.238  -3.772  1.00 31.71 LIG-0.65  OA
ENDBRANCH 33 34
ENDBRANCH 32 33
ENDBRANCH 20 32
ENDBRANCH 17 20
ENDBRANCH 10 16
ENDBRANCH 8 10
ENDBRANCH 5 6
BRANCH 5 37
ATOM     37  CB  MET C   4      25.837  -1.406 -12.508  1.00 24.86 LIG 0.04  C 
BRANCH 37 38
ATOM     38  CG  MET C   4      24.817  -2.198 -11.664  1.00 24.76 LIG 0.08  C 
BRANCH 38 39
ATOM     39 SD   MET C   4      23.813  -3.396 -12.577  1.00 26.68 LIG-0.17  SA
ATOM     40  CE  MET C   4      24.722  -4.906 -12.198  1.00 24.50 LIG 0.09  C 
ENDBRANCH 38 39
ENDBRANCH 37 38
ENDBRANCH 5 37
ENDBRANCH 3 5
BRANCH 1 41
ATOM     41  CA  GLU C   3      27.616   2.640 -13.840  1.00 26.55 LIG 0.18  C 
BRANCH 41 42
ATOM     42  N   GLU C   3      27.771   1.867 -15.069  1.00 27.07 LIG-0.35  N 
ATOM     43 H    GLU C   3      28.578   1.821 -15.362  1.00 27.07 LIG 0.16  HD
ATOM     44  C   ASP C   2      26.729   1.292 -15.664  1.00 28.06 LIG 0.24  C 
ATOM     45 O    ASP C   2      25.591   1.349 -15.204  1.00 27.76 LIG-0.27  OA
BRANCH 44 46
ATOM     46  CA  ASP C   2      27.026   0.497 -16.939  1.00 28.68 LIG 0.19  C 
BRANCH 46 47
ATOM     47  CB  ASP C   2      27.171  -1.013 -16.663  1.00 28.90 LIG 0.15  C 
BRANCH 47 48
ATOM     48  CG  ASP C   2      25.860  -1.694 -16.286  1.00 30.38 LIG 0.17  C 
ATOM     49 OD2  ASP C   2      24.790  -1.301 -16.796  1.00 31.55 LIG-0.65  OA
ATOM     50 OD1  ASP C   2      25.913  -2.658 -15.480  1.00 32.13 LIG-0.65  OA
ENDBRANCH 47 48
ENDBRANCH 46 47
BRANCH 46 51
ATOM     51  N   ASP C   2      28.194   0.992 -17.681  1.00 28.83 LIG-0.34  N 
ATOM     52  C   PHE C   1      28.222   2.240 -18.145  1.00 29.29 LIG 0.24  C 
ATOM     53 O    PHE C   1      27.376   3.085 -17.846  1.00 29.28 LIG-0.27  OA
ATOM     54 H    ASP C   2      28.829   0.420 -17.781  1.00 28.83 LIG 0.16  HD
BRANCH 52 55
ATOM     55  CA  PHE C   1      29.344   2.595 -19.109  1.00 29.71 LIG 0.18  C 
BRANCH 55 56
ATOM     56  N   PHE C   1      30.208   1.423 -19.239  1.00 30.30 LIG-0.35  N 
ATOM     57 H    PHE C   1      29.998   0.907 -19.894  1.00 30.30 LIG 0.16  HD
ATOM     58  C   ACE C   0      31.234   1.181 -18.408  1.00 30.61 LIG 0.21  C 
ATOM     59  CH3 ACE C   0      32.157   0.079 -18.850  1.00 31.12 LIG 0.12  C 
ATOM     60 O    ACE C   0      31.256   1.603 -17.247  1.00 30.74 LIG-0.27  OA
ENDBRANCH 55 56
BRANCH 55 61
ATOM     61  CB  PHE C   1      28.789   2.991 -20.483  1.00 29.76 LIG 0.07  C 
BRANCH 61 62
ATOM     62  CG  PHE C   1      27.843   4.179 -20.466  1.00 30.32 LIG-0.06  A 
ATOM     63  CD1 PHE C   1      26.466   3.979 -20.398  1.00 31.60 LIG 0.01  A 
ATOM     64  CE1 PHE C   1      25.581   5.062 -20.401  1.00 31.29 LIG 0.00  A 
ATOM     65  CZ  PHE C   1      26.076   6.356 -20.468  1.00 31.54 LIG 0.00  A 
ATOM     66  CE2 PHE C   1      27.448   6.570 -20.539  1.00 29.54 LIG 0.00  A 
ATOM     67  CD2 PHE C   1      28.319   5.488 -20.540  1.00 30.51 LIG 0.01  A 
ENDBRANCH 61 62
ENDBRANCH 55 61
ENDBRANCH 52 55
ENDBRANCH 46 51
ENDBRANCH 44 46
ENDBRANCH 41 42
BRANCH 41 68
ATOM     68  CB  GLU C   3      26.917   4.005 -14.088  1.00 26.96 LIG 0.04  C 
BRANCH 68 69
ATOM     69  CG  GLU C   3      26.671   4.452 -15.550  1.00 28.76 LIG 0.12  C 
BRANCH 69 70
ATOM     70  CD  GLU C   3      25.250   4.872 -15.837  1.00 29.94 LIG 0.17  C 
ATOM     71 OE1  GLU C   3      24.922   6.048 -15.588  1.00 33.38 LIG-0.65  OA
ATOM     72 OE2  GLU C   3      24.469   4.029 -16.344  1.00 31.06 LIG-0.65  OA
ENDBRANCH 69 70
ENDBRANCH 68 69
ENDBRANCH 41 68
ENDBRANCH 1 41
TORSDOF 32
ENDMDL
MODEL 4
USER: ADFR SOLUTION from run 76
USER: SCORE 21.620208 LL:  -5.015 LR: -20.084 RR:   0.000 FEB: -10.539
USER: RMSD 12.061224
USER: SEED 75
USER: STATUS searching
USER: GENES 34
USER: genes 0 Translation |==|  0.47408 0.53115 0.49276
USER: genes 1 Rotation |==|  0.93943 0.62320 0.43135 0.69238
USER: genes 2 Torsion [C]-N--CA-[CB] |==|  0.80409
USER: genes 3 Torsion [N]-CA--C-[N] |==|  0.73375
USER: genes 4 Torsion [C]-N--CA-[CB] |==|  0.51716
USER: genes 5 Torsion [N]-CA--CB-[CG] |==|  0.72342
USER: genes 6 Torsion [CA]-CB--CG-[CD] |==|  0.41487
USER: genes 7 Torsion [CB]-CG--CD-[OE2] |==|  0.61024
USER: genes 8 Torsion [N]-CA--C-[N] |==|  0.78769
USER: genes 9 Torsion [C]-N--CA-[C] |==|  0.60644
USER: genes 10 Torsion [N]-CA--C-[N] |==|  0.51667
USER: genes 11 Torsion [C]-N--CA-[CB] |==|  0.36088
USER: genes 12 Torsion [N]-CA--C-[OXT] |==|  0.53694
USER: genes 13 Torsion [N]-CA--CB-[SG] |==|  0.93337
USER: genes 14 Torsion [CA]-CB--SG-[HG] |==|  0.15925
USER: genes 15 Torsion [N]-CA--CB-[CG] |==|  0.09615
USER: genes 16 Torsion [CA]-CB--CG-[CD] |==|  0.48035
USER: genes 17 Torsion [CB]-CG--CD-[OE1] |==|  0.83567
USER: genes 18 Torsion [N]-CA--CB-[CG] |==|  0.74661
USER: genes 19 Torsion [CA]-CB--CG-[SD] |==|  0.13427
USER: genes 20 Torsion [CB]-CG--SD-[CE] |==|  0.21100
USER: genes 21 Torsion [N]-C--CA-[N] |==|  0.94078
USER: genes 22 Torsion [C]-CA--N-[C] |==|  0.20696
USER: genes 23 Torsion [N]-C--CA-[N] |==|  0.95241
USER: genes 24 Torsion [C]-CA--CB-[CG] |==|  0.57844
USER: genes 25 Torsion [CA]-CB--CG-[OD1] |==|  0.27625
USER: genes 26 Torsion [C]-CA--N-[C] |==|  0.81560
USER: genes 27 Torsion [N]-C--CA-[N] |==|  0.12688
USER: genes 28 Torsion [C]-CA--N-[C] |==|  0.12917
USER: genes 29 Torsion [C]-CA--CB-[CG] |==|  0.42759
USER: genes 30 Torsion [CA]-CB--CG-[CD1] |==|  0.84586
USER: genes 31 Torsion [C]-CA--CB-[CG] |==|  0.53995
USER: genes 32 Torsion [CA]-CB--CG-[CD] |==|  0.76545
USER: genes 33 Torsion [CB]-CG--CD-[OE1] |==|  0.10107
ROOT
ATOM      1  C   GLU C   3      27.730  -2.590  -8.719  1.00 25.67 LIG 0.24  C 
ATOM      2 O    GLU C   3      27.004  -3.095  -7.851  1.00 24.73 LIG-0.27  OA
ATOM      3  N   MET C   4      29.057  -2.484  -8.615  1.00 25.06 LIG-0.35  N 
ATOM      4 H    MET C   4      29.548  -2.115  -9.216  1.00 25.06 LIG 0.16  HD
ENDROOT
BRANCH 3 5
ATOM      5  CA  MET C   4      29.813  -2.988  -7.466  1.00 24.76 LIG 0.18  C 
BRANCH 5 6
ATOM      6  C   MET C   4      29.419  -4.429  -7.185  1.00 24.60 LIG 0.24  C 
ATOM      7 O    MET C   4      29.904  -5.363  -7.832  1.00 25.19 LIG-0.27  OA
ATOM      8  N   GLU C   5      28.490  -4.592  -6.256  1.00 23.81 LIG-0.35  N 
ATOM      9 H    GLU C   5      28.070  -3.941  -5.884  1.00 23.81 LIG 0.16  HD
BRANCH 8 10
ATOM     10  CA  GLU C   5      28.098  -5.891  -5.783  1.00 23.16 LIG 0.18  C 
BRANCH 10 11
ATOM     11  CB  GLU C   5      26.910  -5.743  -4.836  1.00 23.03 LIG 0.04  C 
BRANCH 11 12
ATOM     12  CG  GLU C   5      27.325  -5.790  -3.366  1.00 23.31 LIG 0.12  C 
BRANCH 12 13
ATOM     13  CD  GLU C   5      26.434  -4.961  -2.439  1.00 24.36 LIG 0.17  C 
ATOM     14 OE2  GLU C   5      26.983  -4.310  -1.510  1.00 22.25 LIG-0.65  OA
ATOM     15 OE1  GLU C   5      25.200  -4.954  -2.613  1.00 21.71 LIG-0.65  OA
ENDBRANCH 12 13
ENDBRANCH 11 12
ENDBRANCH 10 11
BRANCH 10 16
ATOM     16  C   GLU C   5      27.717  -6.748  -6.964  1.00 22.53 LIG 0.24  C 
ATOM     17  N   GLU C   6      26.528  -6.511  -7.512  1.00 22.45 LIG-0.35  N 
ATOM     18 H    GLU C   6      25.937  -5.986  -7.174  1.00 22.45 LIG 0.16  HD
ATOM     19 O    GLU C   5      28.480  -7.621  -7.357  1.00 22.53 LIG-0.27  OA
BRANCH 17 20
ATOM     20  CA  GLU C   6      26.124  -7.150  -8.780  1.00 22.27 LIG 0.18  C 
BRANCH 20 21
ATOM     21  C   GLU C   6      25.340  -6.170  -9.636  1.00 21.97 LIG 0.24  C 
ATOM     22 O    GLU C   6      25.212  -4.998  -9.281  1.00 22.60 LIG-0.27  OA
ATOM     23  N   CYS C   7      24.797  -6.628 -10.762  1.00 20.65 LIG-0.34  N 
ATOM     24 H    CYS C   7      24.816  -7.447 -11.021  1.00 20.65 LIG 0.16  HD
BRANCH 23 25
ATOM     25  CA  CYS C   7      24.104  -5.701 -11.657  1.00 20.43 LIG 0.19  C 
BRANCH 25 26
ATOM     26  C   CYS C   7      22.599  -5.834 -11.529  1.00 19.69 LIG 0.20  C 
ATOM     27 O    CYS C   7      22.067  -6.455 -10.613  1.00 19.84 LIG-0.65  OA
ATOM     28 OXT  CYS C   7      21.868  -5.318 -12.369  1.00 20.10 LIG-0.65  OA
ENDBRANCH 25 26
BRANCH 25 29
ATOM     29  CB  CYS C   7      24.607  -5.860 -13.107  1.00 20.27 LIG 0.11  C 
BRANCH 29 30
ATOM     30 SG   CYS C   7      26.302  -6.567 -13.212  1.00 22.98 LIG-0.18  SA
ATOM     31 HG   CYS C   7      26.327  -7.631 -12.658  1.00 22.98 LIG 0.10  HD
ENDBRANCH 29 30
ENDBRANCH 25 29
ENDBRANCH 23 25
ENDBRANCH 20 21
BRANCH 20 32
ATOM     32  CB  GLU C   6      25.278  -8.391  -8.502  1.00 22.58 LIG 0.04  C 
BRANCH 32 33
ATOM     33  CG  GLU C   6      24.402  -8.231  -7.284  1.00 24.64 LIG 0.12  C 
BRANCH 33 34
ATOM     34  CD  GLU C   6      23.428  -9.385  -7.086  1.00 27.63 LIG 0.17  C 
ATOM     35 OE1  GLU C   6      22.592  -9.653  -7.984  1.00 27.17 LIG-0.65  OA
ATOM     36 OE2  GLU C   6      23.518 -10.030  -6.017  1.00 31.71 LIG-0.65  OA
ENDBRANCH 33 34
ENDBRANCH 32 33
ENDBRANCH 20 32
ENDBRANCH 17 20
ENDBRANCH 10 16
ENDBRANCH 8 10
ENDBRANCH 5 6
BRANCH 5 37
ATOM     37  CB  MET C   4      29.545  -2.134  -6.222  1.00 24.86 LIG 0.04  C 
BRANCH 37 38
ATOM     38  CG  MET C   4      30.512  -0.952  -6.002  1.00 24.76 LIG 0.08  C 
BRANCH 38 39
ATOM     39 SD   MET C   4      30.804   0.095  -7.449  1.00 26.68 LIG-0.17  SA
ATOM     40  CE  MET C   4      29.259   1.025  -7.467  1.00 24.50 LIG 0.09  C 
ENDBRANCH 38 39
ENDBRANCH 37 38
ENDBRANCH 5 37
ENDBRANCH 3 5
BRANCH 1 41
ATOM     41  CA  GLU C   3      27.121  -2.079 -10.024  1.00 26.55 LIG 0.18  C 
BRANCH 41 42
ATOM     42  N   GLU C   3      28.042  -1.141 -10.660  1.00 27.07 LIG-0.35  N 
ATOM     43 H    GLU C   3      27.809  -0.315 -10.598  1.00 27.07 LIG 0.16  HD
ATOM     44  C   ASP C   2      29.144  -1.559 -11.277  1.00 28.06 LIG 0.24  C 
ATOM     45 O    ASP C   2      29.467  -2.744 -11.321  1.00 27.76 LIG-0.27  OA
BRANCH 44 46
ATOM     46  CA  ASP C   2      30.035  -0.476 -11.892  1.00 28.68 LIG 0.19  C 
BRANCH 46 47
ATOM     47  CB  ASP C   2      31.349  -0.289 -11.109  1.00 28.90 LIG 0.15  C 
BRANCH 47 48
ATOM     48  CG  ASP C   2      31.925   1.119 -11.206  1.00 30.38 LIG 0.17  C 
ATOM     49 OD2  ASP C   2      32.559   1.458 -12.226  1.00 31.55 LIG-0.65  OA
ATOM     50 OD1  ASP C   2      31.714   1.905 -10.247  1.00 32.13 LIG-0.65  OA
ENDBRANCH 47 48
ENDBRANCH 46 47
BRANCH 46 51
ATOM     51  N   ASP C   2      29.356   0.817 -12.060  1.00 28.83 LIG-0.34  N 
ATOM     52  C   PHE C   1      28.347   0.945 -12.919  1.00 29.29 LIG 0.24  C 
ATOM     53 O    PHE C   1      27.822  -0.017 -13.484  1.00 29.28 LIG-0.27  OA
ATOM     54 H    ASP C   2      29.662   1.453 -11.569  1.00 28.83 LIG 0.16  HD
BRANCH 52 55
ATOM     55  CA  PHE C   1      27.866   2.357 -13.217  1.00 29.71 LIG 0.18  C 
BRANCH 55 56
ATOM     56  N   PHE C   1      29.045   3.190 -13.450  1.00 30.30 LIG-0.35  N 
ATOM     57 H    PHE C   1      29.028   3.942 -13.034  1.00 30.30 LIG 0.16  HD
ATOM     58  C   ACE C   0      30.058   2.808 -14.244  1.00 30.61 LIG 0.21  C 
ATOM     59  CH3 ACE C   0      31.287   3.671 -14.158  1.00 31.12 LIG 0.12  C 
ATOM     60 O    ACE C   0      29.901   2.016 -15.179  1.00 30.74 LIG-0.27  OA
ENDBRANCH 55 56
BRANCH 55 61
ATOM     61  CB  PHE C   1      26.956   2.383 -14.452  1.00 29.76 LIG 0.07  C 
BRANCH 61 62
ATOM     62  CG  PHE C   1      25.960   3.529 -14.483  1.00 30.32 LIG-0.06  A 
ATOM     63  CD1 PHE C   1      25.077   3.720 -13.422  1.00 31.60 LIG 0.01  A 
ATOM     64  CE1 PHE C   1      24.141   4.759 -13.444  1.00 31.29 LIG 0.00  A 
ATOM     65  CZ  PHE C   1      24.091   5.618 -14.533  1.00 31.54 LIG 0.00  A 
ATOM     66  CE2 PHE C   1      24.965   5.437 -15.599  1.00 29.54 LIG 0.00  A 
ATOM     67  CD2 PHE C   1      25.888   4.399 -15.570  1.00 30.51 LIG 0.01  A 
ENDBRANCH 61 62
ENDBRANCH 55 61
ENDBRANCH 52 55
ENDBRANCH 46 51
ENDBRANCH 44 46
ENDBRANCH 41 42
BRANCH 41 68
ATOM     68  CB  GLU C   3      26.707  -3.234 -10.976  1.00 26.96 LIG 0.04  C 
BRANCH 68 69
ATOM     69  CG  GLU C   3      26.395  -2.894 -12.455  1.00 28.76 LIG 0.12  C 
BRANCH 69 70
ATOM     70  CD  GLU C   3      24.981  -2.426 -12.696  1.00 29.94 LIG 0.17  C 
ATOM     71 OE1  GLU C   3      24.439  -1.717 -11.826  1.00 33.38 LIG-0.65  OA
ATOM     72 OE2  GLU C   3      24.422  -2.744 -13.775  1.00 31.06 LIG-0.65  OA
ENDBRANCH 69 70
ENDBRANCH 68 69
ENDBRANCH 41 68
ENDBRANCH 1 41
TORSDOF 32
ENDMDL
MODEL 5
USER: ADFR SOLUTION from run 190
USER: SCORE 22.895065 LL:  -4.807 LR: -20.073 RR:   0.000 FEB: -10.527
USER: RMSD 14.471959
USER: SEED 189
USER: STATUS no improvement in best in 3 clusters for 5 generations
USER: GENES 34
USER: genes 0 Translation |==|  0.43790 0.64575 0.34304
USER: genes 1 Rotation |==|  0.09683 0.77654 0.60317 0.51831
USER: genes 2 Torsion [C]-N--CA-[CB] |==|  0.38963
USER: genes 3 Torsion [N]-CA--C-[N] |==|  0.90599
USER: genes 4 Torsion [C]-N--CA-[CB] |==|  0.77738
USER: genes 5 Torsion [N]-CA--CB-[CG] |==|  0.84209
USER: genes 6 Torsion [CA]-CB--CG-[CD] |==|  0.42561
USER: genes 7 Torsion [CB]-CG--CD-[OE2] |==|  0.67979
USER: genes 8 Torsion [N]-CA--C-[N] |==|  0.16667
USER: genes 9 Torsion [C]-N--CA-[C] |==|  0.83477
USER: genes 10 Torsion [N]-CA--C-[N] |==|  0.36867
USER: genes 11 Torsion [C]-N--CA-[CB] |==|  0.25695
USER: genes 12 Torsion [N]-CA--C-[OXT] |==|  0.78727
USER: genes 13 Torsion [N]-CA--CB-[SG] |==|  0.93617
USER: genes 14 Torsion [CA]-CB--SG-[HG] |==|  0.16719
USER: genes 15 Torsion [N]-CA--CB-[CG] |==|  0.46902
USER: genes 16 Torsion [CA]-CB--CG-[CD] |==|  0.15940
USER: genes 17 Torsion [CB]-CG--CD-[OE1] |==|  0.58810
USER: genes 18 Torsion [N]-CA--CB-[CG] |==|  0.44146
USER: genes 19 Torsion [CA]-CB--CG-[SD] |==|  0.38527
USER: genes 20 Torsion [CB]-CG--SD-[CE] |==|  0.46824
USER: genes 21 Torsion [N]-C--CA-[N] |==|  0.35659
USER: genes 22 Torsion [C]-CA--N-[C] |==|  0.81277
USER: genes 23 Torsion [N]-C--CA-[N] |==|  0.49917
USER: genes 24 Torsion [C]-CA--CB-[CG] |==|  0.64761
USER: genes 25 Torsion [CA]-CB--CG-[OD1] |==|  0.67039
USER: genes 26 Torsion [C]-CA--N-[C] |==|  0.73244
USER: genes 27 Torsion [N]-C--CA-[N] |==|  0.87990
USER: genes 28 Torsion [C]-CA--N-[C] |==|  0.79137
USER: genes 29 Torsion [C]-CA--CB-[CG] |==|  0.09091
USER: genes 30 Torsion [CA]-CB--CG-[CD1] |==|  0.72025
USER: genes 31 Torsion [C]-CA--CB-[CG] |==|  0.32819
USER: genes 32 Torsion [CA]-CB--CG-[CD] |==|  0.40166
USER: genes 33 Torsion [CB]-CG--CD-[OE1] |==|  0.70109
ROOT
ATOM      1  C   GLU C   3      27.052   0.590 -12.537  1.00 25.67 LIG 0.24  C 
ATOM      2 O    GLU C   3      26.360   1.385 -11.884  1.00 24.73 LIG-0.27  OA
ATOM      3  N   MET C   4      26.799  -0.718 -12.631  1.00 25.06 LIG-0.35  N 
ATOM      4 H    MET C   4      27.298  -1.262 -13.072  1.00 25.06 LIG 0.16  HD
ENDROOT
BRANCH 3 5
ATOM      5  CA  MET C   4      25.648  -1.359 -11.993  1.00 24.76 LIG 0.18  C 
BRANCH 5 6
ATOM      6  C   MET C   4      26.081  -2.009 -10.689  1.00 24.60 LIG 0.24  C 
ATOM      7 O    MET C   4      25.343  -2.010  -9.698  1.00 25.19 LIG-0.27  OA
ATOM      8  N   GLU C   5      27.308  -2.506 -10.684  1.00 23.81 LIG-0.35  N 
ATOM      9 H    GLU C   5      27.864  -2.409 -11.333  1.00 23.81 LIG 0.16  HD
BRANCH 8 10
ATOM     10  CA  GLU C   5      27.823  -3.264  -9.578  1.00 23.16 LIG 0.18  C 
BRANCH 10 11
ATOM     11  CB  GLU C   5      28.272  -2.305  -8.478  1.00 23.03 LIG 0.04  C 
BRANCH 11 12
ATOM     12  CG  GLU C   5      29.310  -1.298  -8.970  1.00 23.31 LIG 0.12  C 
BRANCH 12 13
ATOM     13  CD  GLU C   5      29.319   0.019  -8.192  1.00 24.36 LIG 0.17  C 
ATOM     14 OE2  GLU C   5      29.001   1.075  -8.803  1.00 22.25 LIG-0.65  OA
ATOM     15 OE1  GLU C   5      29.648   0.024  -6.990  1.00 21.71 LIG-0.65  OA
ENDBRANCH 12 13
ENDBRANCH 11 12
ENDBRANCH 10 11
BRANCH 10 16
ATOM     16  C   GLU C   5      26.738  -4.176  -9.060  1.00 22.53 LIG 0.24  C 
ATOM     17  N   GLU C   6      26.248  -5.065  -9.920  1.00 22.45 LIG-0.35  N 
ATOM     18 H    GLU C   6      26.432  -5.075 -10.760  1.00 22.45 LIG 0.16  HD
ATOM     19 O    GLU C   5      26.341  -4.060  -7.908  1.00 22.53 LIG-0.27  OA
BRANCH 17 20
ATOM     20  CA  GLU C   6      25.323  -6.130  -9.483  1.00 22.27 LIG 0.18  C 
BRANCH 20 21
ATOM     21  C   GLU C   6      25.987  -7.000  -8.429  1.00 21.97 LIG 0.24  C 
ATOM     22 O    GLU C   6      27.127  -7.431  -8.605  1.00 22.60 LIG-0.27  OA
ATOM     23  N   CYS C   7      25.290  -7.281  -7.330  1.00 20.65 LIG-0.34  N 
ATOM     24 H    CYS C   7      24.474  -7.046  -7.189  1.00 20.65 LIG 0.16  HD
BRANCH 23 25
ATOM     25  CA  CYS C   7      25.919  -8.045  -6.253  1.00 20.43 LIG 0.19  C 
BRANCH 25 26
ATOM     26  C   CYS C   7      24.947  -9.036  -5.643  1.00 19.69 LIG 0.20  C 
ATOM     27 O    CYS C   7      24.981 -10.236  -5.899  1.00 19.84 LIG-0.65  OA
ATOM     28 OXT  CYS C   7      24.079  -8.642  -4.869  1.00 20.10 LIG-0.65  OA
ENDBRANCH 25 26
BRANCH 25 29
ATOM     29  CB  CYS C   7      26.559  -7.102  -5.213  1.00 20.27 LIG 0.11  C 
BRANCH 29 30
ATOM     30 SG   CYS C   7      26.956  -5.439  -5.890  1.00 22.98 LIG-0.18  SA
ATOM     31 HG   CYS C   7      25.949  -4.914  -6.278  1.00 22.98 LIG 0.10  HD
ENDBRANCH 29 30
ENDBRANCH 25 29
ENDBRANCH 23 25
ENDBRANCH 20 21
BRANCH 20 32
ATOM     32  CB  GLU C   6      24.901  -6.987 -10.675  1.00 22.58 LIG 0.04  C 
BRANCH 32 33
ATOM     33  CG  GLU C   6      24.177  -8.243 -10.256  1.00 24.64 LIG 0.12  C 
BRANCH 33 34
ATOM     34  CD  GLU C   6      22.938  -7.972  -9.414  1.00 27.63 LIG 0.17  C 
ATOM     35 OE1  GLU C   6      22.591  -8.798  -8.534  1.00 27.17 LIG-0.65  OA
ATOM     36 OE2  GLU C   6      22.316  -6.909  -9.640  1.00 31.71 LIG-0.65  OA
ENDBRANCH 33 34
ENDBRANCH 32 33
ENDBRANCH 20 32
ENDBRANCH 17 20
ENDBRANCH 10 16
ENDBRANCH 8 10
ENDBRANCH 5 6
BRANCH 5 37
ATOM     37  CB  MET C   4      25.036  -2.420 -12.914  1.00 24.86 LIG 0.04  C 
BRANCH 37 38
ATOM     38  CG  MET C   4      24.177  -3.495 -12.215  1.00 24.76 LIG 0.08  C 
BRANCH 38 39
ATOM     39 SD   MET C   4      22.653  -3.954 -13.076  1.00 26.68 LIG-0.17  SA
ATOM     40  CE  MET C   4      22.196  -5.417 -12.126  1.00 24.50 LIG 0.09  C 
ENDBRANCH 38 39
ENDBRANCH 37 38
ENDBRANCH 5 37
ENDBRANCH 3 5
BRANCH 1 41
ATOM     41  CA  GLU C   3      28.253   1.096 -13.333  1.00 26.55 LIG 0.18  C 
BRANCH 41 42
ATOM     42  N   GLU C   3      27.853   2.236 -14.154  1.00 27.07 LIG-0.35  N 
ATOM     43 H    GLU C   3      28.205   2.985 -13.921  1.00 27.07 LIG 0.16  HD
ATOM     44  C   ASP C   2      27.010   2.095 -15.174  1.00 28.06 LIG 0.24  C 
ATOM     45 O    ASP C   2      26.547   1.005 -15.503  1.00 27.76 LIG-0.27  OA
BRANCH 44 46
ATOM     46  CA  ASP C   2      26.679   3.364 -15.966  1.00 28.68 LIG 0.19  C 
BRANCH 46 47
ATOM     47  CB  ASP C   2      26.155   4.494 -15.059  1.00 28.90 LIG 0.15  C 
BRANCH 47 48
ATOM     48  CG  ASP C   2      24.823   5.077 -15.516  1.00 30.38 LIG 0.17  C 
ATOM     49 OD2  ASP C   2      23.809   4.349 -15.550  1.00 31.55 LIG-0.65  OA
ATOM     50 OD1  ASP C   2      24.791   6.296 -15.824  1.00 32.13 LIG-0.65  OA
ENDBRANCH 47 48
ENDBRANCH 46 47
BRANCH 46 51
ATOM     51  N   ASP C   2      25.750   3.134 -17.081  1.00 28.83 LIG-0.34  N 
ATOM     52  C   PHE C   1      26.208   2.949 -18.317  1.00 29.29 LIG 0.24  C 
ATOM     53 O    PHE C   1      27.404   2.791 -18.571  1.00 29.28 LIG-0.27  OA
ATOM     54 H    ASP C   2      24.917   3.132 -16.864  1.00 28.83 LIG 0.16  HD
BRANCH 52 55
ATOM     55  CA  PHE C   1      25.187   2.969 -19.445  1.00 29.71 LIG 0.18  C 
BRANCH 55 56
ATOM     56  N   PHE C   1      24.023   2.199 -19.007  1.00 30.30 LIG-0.35  N 
ATOM     57 H    PHE C   1      23.348   2.684 -18.788  1.00 30.30 LIG 0.16  HD
ATOM     58  C   ACE C   0      24.019   0.858 -18.952  1.00 30.61 LIG 0.21  C 
ATOM     59  CH3 ACE C   0      22.666   0.241 -18.728  1.00 31.12 LIG 0.12  C 
ATOM     60 O    ACE C   0      25.052   0.201 -18.792  1.00 30.74 LIG-0.27  OA
ENDBRANCH 55 56
BRANCH 55 61
ATOM     61  CB  PHE C   1      24.766   4.404 -19.785  1.00 29.76 LIG 0.07  C 
BRANCH 61 62
ATOM     62  CG  PHE C   1      25.857   5.445 -19.602  1.00 30.32 LIG-0.06  A 
ATOM     63  CD1 PHE C   1      25.875   6.250 -18.465  1.00 31.60 LIG 0.01  A 
ATOM     64  CE1 PHE C   1      26.862   7.226 -18.290  1.00 31.29 LIG 0.00  A 
ATOM     65  CZ  PHE C   1      27.842   7.395 -19.258  1.00 31.54 LIG 0.00  A 
ATOM     66  CE2 PHE C   1      27.833   6.601 -20.399  1.00 29.54 LIG 0.00  A 
ATOM     67  CD2 PHE C   1      26.847   5.637 -20.565  1.00 30.51 LIG 0.01  A 
ENDBRANCH 61 62
ENDBRANCH 55 61
ENDBRANCH 52 55
ENDBRANCH 46 51
ENDBRANCH 44 46
ENDBRANCH 41 42
BRANCH 41 68
ATOM     68  CB  GLU C   3      29.470   1.424 -12.426  1.00 26.96 LIG 0.04  C 
BRANCH 68 69
ATOM     69  CG  GLU C   3      30.781   0.626 -12.633  1.00 28.76 LIG 0.12  C 
BRANCH 69 70
ATOM     70  CD  GLU C   3      32.037   1.433 -12.417  1.00 29.94 LIG 0.17  C 
ATOM     71 OE1  GLU C   3      32.714   1.748 -13.415  1.00 33.38 LIG-0.65  OA
ATOM     72 OE2  GLU C   3      32.330   1.780 -11.246  1.00 31.06 LIG-0.65  OA
ENDBRANCH 69 70
ENDBRANCH 68 69
ENDBRANCH 41 68
ENDBRANCH 1 41
TORSDOF 32
ENDMDL
MODEL 6
USER: ADFR SOLUTION from run 79
USER: SCORE 23.534042 LL:  -5.363 LR: -20.068 RR:   0.000 FEB: -10.522
USER: RMSD 12.565067
USER: SEED 78
USER: STATUS no improvement in best in 5 clusters for 5 generations
USER: GENES 34
USER: genes 0 Translation |==|  0.42307 0.52276 0.44712
USER: genes 1 Rotation |==|  0.94920 0.50816 0.36406 0.67225
USER: genes 2 Torsion [C]-N--CA-[CB] |==|  0.78063
USER: genes 3 Torsion [N]-CA--C-[N] |==|  0.17547
USER: genes 4 Torsion [C]-N--CA-[CB] |==|  0.52019
USER: genes 5 Torsion [N]-CA--CB-[CG] |==|  0.65093
USER: genes 6 Torsion [CA]-CB--CG-[CD] |==|  0.87914
USER: genes 7 Torsion [CB]-CG--CD-[OE2] |==|  0.35280
USER: genes 8 Torsion [N]-CA--C-[N] |==|  0.39039
USER: genes 9 Torsion [C]-N--CA-[C] |==|  0.18849
USER: genes 10 Torsion [N]-CA--C-[N] |==|  0.05942
USER: genes 11 Torsion [C]-N--CA-[CB] |==|  0.36755
USER: genes 12 Torsion [N]-CA--C-[OXT] |==|  0.57444
USER: genes 13 Torsion [N]-CA--CB-[SG] |==|  0.55781
USER: genes 14 Torsion [CA]-CB--SG-[HG] |==|  0.75991
USER: genes 15 Torsion [N]-CA--CB-[CG] |==|  0.69265
USER: genes 16 Torsion [CA]-CB--CG-[CD] |==|  0.84108
USER: genes 17 Torsion [CB]-CG--CD-[OE1] |==|  0.69564
USER: genes 18 Torsion [N]-CA--CB-[CG] |==|  0.76518
USER: genes 19 Torsion [CA]-CB--CG-[SD] |==|  0.36886
USER: genes 20 Torsion [CB]-CG--SD-[CE] |==|  0.94561
USER: genes 21 Torsion [N]-C--CA-[N] |==|  0.81111
USER: genes 22 Torsion [C]-CA--N-[C] |==|  0.21447
USER: genes 23 Torsion [N]-C--CA-[N] |==|  0.89058
USER: genes 24 Torsion [C]-CA--CB-[CG] |==|  0.36186
USER: genes 25 Torsion [CA]-CB--CG-[OD1] |==|  0.41196
USER: genes 26 Torsion [C]-CA--N-[C] |==|  0.83540
USER: genes 27 Torsion [N]-C--CA-[N] |==|  0.87389
USER: genes 28 Torsion [C]-CA--N-[C] |==|  0.80925
USER: genes 29 Torsion [C]-CA--CB-[CG] |==|  0.04545
USER: genes 30 Torsion [CA]-CB--CG-[CD1] |==|  0.73187
USER: genes 31 Torsion [C]-CA--CB-[CG] |==|  0.22153
USER: genes 32 Torsion [CA]-CB--CG-[CD] |==|  0.21185
USER: genes 33 Torsion [CB]-CG--CD-[OE1] |==|  0.85706
ROOT
ATOM      1  C   GLU C   3      26.774  -2.822  -9.883  1.00 25.67 LIG 0.24  C 
ATOM      2 O    GLU C   3      25.966  -2.865  -8.943  1.00 24.73 LIG-0.27  OA
ATOM      3  N   MET C   4      27.974  -3.408  -9.865  1.00 25.06 LIG-0.35  N 
ATOM      4 H    MET C   4      28.533  -3.354 -10.516  1.00 25.06 LIG 0.16  HD
ENDROOT
BRANCH 3 5
ATOM      5  CA  MET C   4      28.461  -4.201  -8.734  1.00 24.76 LIG 0.18  C 
BRANCH 5 6
ATOM      6  C   MET C   4      27.342  -5.086  -8.209  1.00 24.60 LIG 0.24  C 
ATOM      7 O    MET C   4      26.939  -4.985  -7.046  1.00 25.19 LIG-0.27  OA
ATOM      8  N   GLU C   5      26.890  -5.992  -9.061  1.00 23.81 LIG-0.35  N 
ATOM      9 H    GLU C   5      27.243  -6.140  -9.831  1.00 23.81 LIG 0.16  HD
BRANCH 8 10
ATOM     10  CA  GLU C   5      25.753  -6.819  -8.768  1.00 23.16 LIG 0.18  C 
BRANCH 10 11
ATOM     11  CB  GLU C   5      25.602  -7.872  -9.863  1.00 23.03 LIG 0.04  C 
BRANCH 11 12
ATOM     12  CG  GLU C   5      24.209  -7.864 -10.492  1.00 23.31 LIG 0.12  C 
BRANCH 12 13
ATOM     13  CD  GLU C   5      23.068  -7.741  -9.481  1.00 24.36 LIG 0.17  C 
ATOM     14 OE2  GLU C   5      22.215  -6.829  -9.653  1.00 22.25 LIG-0.65  OA
ATOM     15 OE1  GLU C   5      23.013  -8.526  -8.514  1.00 21.71 LIG-0.65  OA
ENDBRANCH 12 13
ENDBRANCH 11 12
ENDBRANCH 10 11
BRANCH 10 16
ATOM     16  C   GLU C   5      25.964  -7.488  -7.432  1.00 22.53 LIG 0.24  C 
ATOM     17  N   GLU C   6      24.899  -7.588  -6.641  1.00 22.45 LIG-0.35  N 
ATOM     18 H    GLU C   6      24.144  -7.207  -6.799  1.00 22.45 LIG 0.16  HD
ATOM     19 O    GLU C   5      27.078  -7.887  -7.118  1.00 22.53 LIG-0.27  OA
BRANCH 17 20
ATOM     20  CA  GLU C   6      24.935  -8.383  -5.398  1.00 22.27 LIG 0.18  C 
BRANCH 20 21
ATOM     21  C   GLU C   6      25.858  -7.730  -4.383  1.00 21.97 LIG 0.24  C 
ATOM     22 O    GLU C   6      26.332  -8.390  -3.458  1.00 22.60 LIG-0.27  OA
ATOM     23  N   CYS C   7      26.121  -6.434  -4.530  1.00 20.65 LIG-0.34  N 
ATOM     24 H    CYS C   7      25.771  -5.924  -5.128  1.00 20.65 LIG 0.16  HD
BRANCH 23 25
ATOM     25  CA  CYS C   7      27.069  -5.784  -3.626  1.00 20.43 LIG 0.19  C 
BRANCH 25 26
ATOM     26  C   CYS C   7      26.350  -5.002  -2.544  1.00 19.69 LIG 0.20  C 
ATOM     27 O    CYS C   7      25.219  -5.288  -2.164  1.00 19.84 LIG-0.65  OA
ATOM     28 OXT  CYS C   7      26.900  -4.035  -2.024  1.00 20.10 LIG-0.65  OA
ENDBRANCH 25 26
BRANCH 25 29
ATOM     29  CB  CYS C   7      28.086  -4.934  -4.417  1.00 20.27 LIG 0.11  C 
BRANCH 29 30
ATOM     30 SG   CYS C   7      29.629  -4.590  -3.475  1.00 22.98 LIG-0.18  SA
ATOM     31 HG   CYS C   7      29.476  -3.611  -2.799  1.00 22.98 LIG 0.10  HD
ENDBRANCH 29 30
ENDBRANCH 25 29
ENDBRANCH 23 25
ENDBRANCH 20 21
BRANCH 20 32
ATOM     32  CB  GLU C   6      25.409  -9.806  -5.694  1.00 22.58 LIG 0.04  C 
BRANCH 32 33
ATOM     33  CG  GLU C   6      24.310 -10.826  -5.530  1.00 24.64 LIG 0.12  C 
BRANCH 33 34
ATOM     34  CD  GLU C   6      23.683 -10.820  -4.142  1.00 27.63 LIG 0.17  C 
ATOM     35 OE1  GLU C   6      23.892 -11.780  -3.361  1.00 27.17 LIG-0.65  OA
ATOM     36 OE2  GLU C   6      22.980  -9.829  -3.839  1.00 31.71 LIG-0.65  OA
ENDBRANCH 33 34
ENDBRANCH 32 33
ENDBRANCH 20 32
ENDBRANCH 17 20
ENDBRANCH 10 16
ENDBRANCH 8 10
ENDBRANCH 5 6
BRANCH 5 37
ATOM     37  CB  MET C   4      28.964  -3.291  -7.608  1.00 24.86 LIG 0.04  C 
BRANCH 37 38
ATOM     38  CG  MET C   4      30.421  -2.801  -7.746  1.00 24.76 LIG 0.08  C 
BRANCH 38 39
ATOM     39 SD   MET C   4      30.677  -1.031  -7.470  1.00 26.68 LIG-0.17  SA
ATOM     40  CE  MET C   4      28.992  -0.439  -7.716  1.00 24.50 LIG 0.09  C 
ENDBRANCH 38 39
ENDBRANCH 37 38
ENDBRANCH 5 37
ENDBRANCH 3 5
BRANCH 1 41
ATOM     41  CA  GLU C   3      26.403  -2.102 -11.178  1.00 26.55 LIG 0.18  C 
BRANCH 41 42
ATOM     42  N   GLU C   3      27.256  -0.929 -11.348  1.00 27.07 LIG-0.35  N 
ATOM     43 H    GLU C   3      26.876  -0.181 -11.157  1.00 27.07 LIG 0.16  HD
ATOM     44  C   ASP C   2      28.514  -1.039 -11.765  1.00 28.06 LIG 0.24  C 
ATOM     45 O    ASP C   2      29.039  -2.126 -12.001  1.00 27.76 LIG-0.27  OA
BRANCH 44 46
ATOM     46  CA  ASP C   2      29.309   0.264 -11.890  1.00 28.68 LIG 0.19  C 
BRANCH 46 47
ATOM     47  CB  ASP C   2      29.974   0.669 -10.559  1.00 28.90 LIG 0.15  C 
BRANCH 47 48
ATOM     48  CG  ASP C   2      31.454   1.007 -10.693  1.00 30.38 LIG 0.17  C 
ATOM     49 OD2  ASP C   2      32.140   0.441 -11.570  1.00 31.55 LIG-0.65  OA
ATOM     50 OD1  ASP C   2      31.929   1.875  -9.917  1.00 32.13 LIG-0.65  OA
ENDBRANCH 47 48
ENDBRANCH 46 47
BRANCH 46 51
ATOM     51  N   ASP C   2      28.521   1.383 -12.424  1.00 28.83 LIG-0.34  N 
ATOM     52  C   PHE C   1      27.955   1.299 -13.627  1.00 29.29 LIG 0.24  C 
ATOM     53 O    PHE C   1      27.913   0.252 -14.276  1.00 29.28 LIG-0.27  OA
ATOM     54 H    ASP C   2      28.463   2.067 -11.905  1.00 28.83 LIG 0.16  HD
BRANCH 52 55
ATOM     55  CA  PHE C   1      27.373   2.579 -14.210  1.00 29.71 LIG 0.18  C 
BRANCH 55 56
ATOM     56  N   PHE C   1      26.606   3.240 -13.156  1.00 30.30 LIG-0.35  N 
ATOM     57 H    PHE C   1      26.955   3.975 -12.879  1.00 30.30 LIG 0.16  HD
ATOM     58  C   ACE C   0      25.460   2.738 -12.670  1.00 30.61 LIG 0.21  C 
ATOM     59  CH3 ACE C   0      24.686   3.676 -11.784  1.00 31.12 LIG 0.12  C 
ATOM     60 O    ACE C   0      25.207   1.529 -12.689  1.00 30.74 LIG-0.27  OA
ENDBRANCH 55 56
BRANCH 55 61
ATOM     61  CB  PHE C   1      28.483   3.512 -14.712  1.00 29.76 LIG 0.07  C 
BRANCH 61 62
ATOM     62  CG  PHE C   1      29.836   2.848 -14.894  1.00 30.32 LIG-0.06  A 
ATOM     63  CD1 PHE C   1      30.799   2.931 -13.890  1.00 31.60 LIG 0.01  A 
ATOM     64  CE1 PHE C   1      32.057   2.341 -14.050  1.00 31.29 LIG 0.00  A 
ATOM     65  CZ  PHE C   1      32.354   1.659 -15.221  1.00 31.54 LIG 0.00  A 
ATOM     66  CE2 PHE C   1      31.404   1.572 -16.232  1.00 29.54 LIG 0.00  A 
ATOM     67  CD2 PHE C   1      30.158   2.164 -16.065  1.00 30.51 LIG 0.01  A 
ENDBRANCH 61 62
ENDBRANCH 55 61
ENDBRANCH 52 55
ENDBRANCH 46 51
ENDBRANCH 44 46
ENDBRANCH 41 42
BRANCH 41 68
ATOM     68  CB  GLU C   3      26.445  -3.044 -12.412  1.00 26.96 LIG 0.04  C 
BRANCH 68 69
ATOM     69  CG  GLU C   3      25.243  -3.988 -12.660  1.00 28.76 LIG 0.12  C 
BRANCH 69 70
ATOM     70  CD  GLU C   3      24.027  -3.303 -13.233  1.00 29.94 LIG 0.17  C 
ATOM     71 OE1  GLU C   3      23.600  -2.282 -12.659  1.00 33.38 LIG-0.65  OA
ATOM     72 OE2  GLU C   3      23.516  -3.770 -14.281  1.00 31.06 LIG-0.65  OA
ENDBRANCH 69 70
ENDBRANCH 68 69
ENDBRANCH 41 68
ENDBRANCH 1 41
TORSDOF 32
ENDMDL
MODEL 7
USER: ADFR SOLUTION from run 151
USER: SCORE 22.465900 LL:  -4.814 LR: -19.991 RR:   0.000 FEB: -10.445
USER: RMSD 13.424053
USER: SEED 150
USER: STATUS searching
USER: GENES 34
USER: genes 0 Translation |==|  0.42660 0.70944 0.25924
USER: genes 1 Rotation |==|  0.90864 0.49702 0.70257 0.70487
USER: genes 2 Torsion [C]-N--CA-[CB] |==|  0.85819
USER: genes 3 Torsion [N]-CA--C-[N] |==|  0.32346
USER: genes 4 Torsion [C]-N--CA-[CB] |==|  0.43889
USER: genes 5 Torsion [N]-CA--CB-[CG] |==|  0.20192
USER: genes 6 Torsion [CA]-CB--CG-[CD] |==|  0.28153
USER: genes 7 Torsion [CB]-CG--CD-[OE2] |==|  0.13176
USER: genes 8 Torsion [N]-CA--C-[N] |==|  0.48204
USER: genes 9 Torsion [C]-N--CA-[C] |==|  0.60722
USER: genes 10 Torsion [N]-CA--C-[N] |==|  0.36910
USER: genes 11 Torsion [C]-N--CA-[CB] |==|  0.23720
USER: genes 12 Torsion [N]-CA--C-[OXT] |==|  0.55383
USER: genes 13 Torsion [N]-CA--CB-[SG] |==|  0.18047
USER: genes 14 Torsion [CA]-CB--SG-[HG] |==|  0.87168
USER: genes 15 Torsion [N]-CA--CB-[CG] |==|  0.02388
USER: genes 16 Torsion [CA]-CB--CG-[CD] |==|  0.70197
USER: genes 17 Torsion [CB]-CG--CD-[OE1] |==|  0.07859
USER: genes 18 Torsion [N]-CA--CB-[CG] |==|  0.80946
USER: genes 19 Torsion [CA]-CB--CG-[SD] |==|  0.28293
USER: genes 20 Torsion [CB]-CG--SD-[CE] |==|  0.71651
USER: genes 21 Torsion [N]-C--CA-[N] |==|  0.21372
USER: genes 22 Torsion [C]-CA--N-[C] |==|  0.74794
USER: genes 23 Torsion [N]-C--CA-[N] |==|  0.49404
USER: genes 24 Torsion [C]-CA--CB-[CG] |==|  0.76299
USER: genes 25 Torsion [CA]-CB--CG-[OD1] |==|  0.13627
USER: genes 26 Torsion [C]-CA--N-[C] |==|  0.77340
USER: genes 27 Torsion [N]-C--CA-[N] |==|  0.01059
USER: genes 28 Torsion [C]-CA--N-[C] |==|  0.76416
USER: genes 29 Torsion [C]-CA--CB-[CG] |==|  0.21879
USER: genes 30 Torsion [CA]-CB--CG-[CD1] |==|  0.16693
USER: genes 31 Torsion [C]-CA--CB-[CG] |==|  0.26893
USER: genes 32 Torsion [CA]-CB--CG-[CD] |==|  0.73681
USER: genes 33 Torsion [CB]-CG--CD-[OE1] |==|  0.93951
ROOT
ATOM      1  C   GLU C   3      26.840   2.358 -14.673  1.00 25.67 LIG 0.24  C 
ATOM      2 O    GLU C   3      25.812   1.812 -15.098  1.00 24.73 LIG-0.27  OA
ATOM      3  N   MET C   4      27.196   2.384 -13.386  1.00 25.06 LIG-0.35  N 
ATOM      4 H    MET C   4      27.902   2.782 -13.102  1.00 25.06 LIG 0.16  HD
ENDROOT
BRANCH 3 5
ATOM      5  CA  MET C   4      26.418   1.736 -12.328  1.00 24.76 LIG 0.18  C 
BRANCH 5 6
ATOM      6  C   MET C   4      26.526   0.226 -12.463  1.00 24.60 LIG 0.24  C 
ATOM      7 O    MET C   4      26.040  -0.366 -13.432  1.00 25.19 LIG-0.27  OA
ATOM      8  N   GLU C   5      27.114  -0.393 -11.451  1.00 23.81 LIG-0.35  N 
ATOM      9 H    GLU C   5      27.352   0.002 -10.725  1.00 23.81 LIG 0.16  HD
BRANCH 8 10
ATOM     10  CA  GLU C   5      27.409  -1.798 -11.480  1.00 23.16 LIG 0.18  C 
BRANCH 10 11
ATOM     11  CB  GLU C   5      28.525  -2.097 -10.481  1.00 23.03 LIG 0.04  C 
BRANCH 11 12
ATOM     12  CG  GLU C   5      28.047  -2.018  -9.032  1.00 23.31 LIG 0.12  C 
BRANCH 12 13
ATOM     13  CD  GLU C   5      27.779  -3.379  -8.388  1.00 24.36 LIG 0.17  C 
ATOM     14 OE2  GLU C   5      28.649  -4.282  -8.519  1.00 22.25 LIG-0.65  OA
ATOM     15 OE1  GLU C   5      26.716  -3.569  -7.765  1.00 21.71 LIG-0.65  OA
ENDBRANCH 12 13
ENDBRANCH 11 12
ENDBRANCH 10 11
BRANCH 10 16
ATOM     16  C   GLU C   5      26.165  -2.568 -11.113  1.00 22.53 LIG 0.24  C 
ATOM     17  N   GLU C   6      26.231  -3.893 -11.221  1.00 22.45 LIG-0.35  N 
ATOM     18 H    GLU C   6      26.888  -4.315 -11.582  1.00 22.45 LIG 0.16  HD
ATOM     19 O    GLU C   5      25.158  -1.969 -10.758  1.00 22.53 LIG-0.27  OA
BRANCH 17 20
ATOM     20  CA  GLU C   6      25.149  -4.761 -10.715  1.00 22.27 LIG 0.18  C 
BRANCH 20 21
ATOM     21  C   GLU C   6      25.734  -6.014 -10.084  1.00 21.97 LIG 0.24  C 
ATOM     22 O    GLU C   6      26.602  -6.660 -10.672  1.00 22.60 LIG-0.27  OA
ATOM     23  N   CYS C   7      25.267  -6.382  -8.893  1.00 20.65 LIG-0.34  N 
ATOM     24 H    CYS C   7      24.627  -5.992  -8.472  1.00 20.65 LIG 0.16  HD
BRANCH 23 25
ATOM     25  CA  CYS C   7      25.859  -7.532  -8.211  1.00 20.43 LIG 0.19  C 
BRANCH 25 26
ATOM     26  C   CYS C   7      24.828  -8.268  -7.378  1.00 19.69 LIG 0.20  C 
ATOM     27 O    CYS C   7      23.621  -8.139  -7.557  1.00 19.84 LIG-0.65  OA
ATOM     28 OXT  CYS C   7      25.195  -9.018  -6.477  1.00 20.10 LIG-0.65  OA
ENDBRANCH 25 26
BRANCH 25 29
ATOM     29  CB  CYS C   7      27.105  -7.111  -7.404  1.00 20.27 LIG 0.11  C 
BRANCH 29 30
ATOM     30 SG   CYS C   7      26.716  -5.967  -6.017  1.00 22.98 LIG-0.18  SA
ATOM     31 HG   CYS C   7      25.979  -5.104  -6.405  1.00 22.98 LIG 0.10  HD
ENDBRANCH 29 30
ENDBRANCH 25 29
ENDBRANCH 23 25
ENDBRANCH 20 21
BRANCH 20 32
ATOM     32  CB  GLU C   6      24.202  -5.144 -11.851  1.00 22.58 LIG 0.04  C 
BRANCH 32 33
ATOM     33  CG  GLU C   6      24.721  -4.720 -13.203  1.00 24.64 LIG 0.12  C 
BRANCH 33 34
ATOM     34  CD  GLU C   6      23.964  -3.540 -13.797  1.00 27.63 LIG 0.17  C 
ATOM     35 OE1  GLU C   6      23.419  -2.704 -13.034  1.00 27.17 LIG-0.65  OA
ATOM     36 OE2  GLU C   6      23.930  -3.454 -15.045  1.00 31.71 LIG-0.65  OA
ENDBRANCH 33 34
ENDBRANCH 32 33
ENDBRANCH 20 32
ENDBRANCH 17 20
ENDBRANCH 10 16
ENDBRANCH 8 10
ENDBRANCH 5 6
BRANCH 5 37
ATOM     37  CB  MET C   4      24.944   2.152 -12.403  1.00 24.86 LIG 0.04  C 
BRANCH 37 38
ATOM     38  CG  MET C   4      24.647   3.624 -12.049  1.00 24.76 LIG 0.08  C 
BRANCH 38 39
ATOM     39 SD   MET C   4      24.364   4.722 -13.459  1.00 26.68 LIG-0.17  SA
ATOM     40  CE  MET C   4      25.964   5.549 -13.526  1.00 24.50 LIG 0.09  C 
ENDBRANCH 38 39
ENDBRANCH 37 38
ENDBRANCH 5 37
ENDBRANCH 3 5
BRANCH 1 41
ATOM     41  CA  GLU C   3      27.814   3.020 -15.647  1.00 26.55 LIG 0.18  C 
BRANCH 41 42
ATOM     42  N   GLU C   3      28.954   2.137 -15.876  1.00 27.07 LIG-0.35  N 
ATOM     43 H    GLU C   3      28.852   1.584 -16.527  1.00 27.07 LIG 0.16  HD
ATOM     44  C   ASP C   2      30.048   2.205 -15.122  1.00 28.06 LIG 0.24  C 
ATOM     45 O    ASP C   2      30.177   3.028 -14.218  1.00 27.76 LIG-0.27  OA
BRANCH 44 46
ATOM     46  CA  ASP C   2      31.180   1.234 -15.472  1.00 28.68 LIG 0.19  C 
BRANCH 46 47
ATOM     47  CB  ASP C   2      30.712  -0.235 -15.451  1.00 28.90 LIG 0.15  C 
BRANCH 47 48
ATOM     48  CG  ASP C   2      30.761  -0.873 -14.068  1.00 30.38 LIG 0.17  C 
ATOM     49 OD2  ASP C   2      31.325  -1.976 -13.916  1.00 31.55 LIG-0.65  OA
ATOM     50 OD1  ASP C   2      30.244  -0.240 -13.112  1.00 32.13 LIG-0.65  OA
ENDBRANCH 47 48
ENDBRANCH 46 47
BRANCH 46 51
ATOM     51  N   ASP C   2      32.375   1.398 -14.633  1.00 28.83 LIG-0.34  N 
ATOM     52  C   PHE C   1      33.266   2.350 -14.903  1.00 29.29 LIG 0.24  C 
ATOM     53 O    PHE C   1      33.070   3.234 -15.740  1.00 29.28 LIG-0.27  OA
ATOM     54 H    ASP C   2      32.438   0.843 -13.979  1.00 28.83 LIG 0.16  HD
BRANCH 52 55
ATOM     55  CA  PHE C   1      34.587   2.296 -14.150  1.00 29.71 LIG 0.18  C 
BRANCH 55 56
ATOM     56  N   PHE C   1      34.583   1.087 -13.328  1.00 30.30 LIG-0.35  N 
ATOM     57 H    PHE C   1      34.965   0.413 -13.699  1.00 30.30 LIG 0.16  HD
ATOM     58  C   ACE C   0      34.029   1.043 -12.106  1.00 30.61 LIG 0.21  C 
ATOM     59  CH3 ACE C   0      34.346  -0.197 -11.314  1.00 31.12 LIG 0.12  C 
ATOM     60 O    ACE C   0      33.104   1.791 -11.772  1.00 30.74 LIG-0.27  OA
ENDBRANCH 55 56
BRANCH 55 61
ATOM     61  CB  PHE C   1      35.776   2.265 -15.119  1.00 29.76 LIG 0.07  C 
BRANCH 61 62
ATOM     62  CG  PHE C   1      36.144   3.613 -15.714  1.00 30.32 LIG-0.06  A 
ATOM     63  CD1 PHE C   1      36.523   4.666 -14.884  1.00 31.60 LIG 0.01  A 
ATOM     64  CE1 PHE C   1      36.847   5.919 -15.415  1.00 31.29 LIG 0.00  A 
ATOM     65  CZ  PHE C   1      36.797   6.120 -16.787  1.00 31.54 LIG 0.00  A 
ATOM     66  CE2 PHE C   1      36.418   5.078 -17.626  1.00 29.54 LIG 0.00  A 
ATOM     67  CD2 PHE C   1      36.094   3.838 -17.088  1.00 30.51 LIG 0.01  A 
ENDBRANCH 61 62
ENDBRANCH 55 61
ENDBRANCH 52 55
ENDBRANCH 46 51
ENDBRANCH 44 46
ENDBRANCH 41 42
BRANCH 41 68
ATOM     68  CB  GLU C   3      27.127   3.448 -16.972  1.00 26.96 LIG 0.04  C 
BRANCH 68 69
ATOM     69  CG  GLU C   3      26.658   4.918 -17.118  1.00 28.76 LIG 0.12  C 
BRANCH 69 70
ATOM     70  CD  GLU C   3      25.211   5.144 -16.756  1.00 29.94 LIG 0.17  C 
ATOM     71 OE1  GLU C   3      24.437   4.167 -16.786  1.00 33.38 LIG-0.65  OA
ATOM     72 OE2  GLU C   3      24.855   6.297 -16.410  1.00 31.06 LIG-0.65  OA
ENDBRANCH 69 70
ENDBRANCH 68 69
ENDBRANCH 41 68
ENDBRANCH 1 41
TORSDOF 32
ENDMDL
MODEL 8
USER: ADFR SOLUTION from run 76
USER: SCORE 21.124141 LL:  -4.616 LR: -19.956 RR:   0.000 FEB: -10.411
USER: RMSD 12.216693
USER: SEED 75
USER: STATUS searching
USER: GENES 34
USER: genes 0 Translation |==|  0.42763 0.52755 0.46026
USER: genes 1 Rotation |==|  0.90454 0.67609 0.41499 0.71934
USER: genes 2 Torsion [C]-N--CA-[CB] |==|  0.79174
USER: genes 3 Torsion [N]-CA--C-[N] |==|  0.72985
USER: genes 4 Torsion [C]-N--CA-[CB] |==|  0.52792
USER: genes 5 Torsion [N]-CA--CB-[CG] |==|  0.65033
USER: genes 6 Torsion [CA]-CB--CG-[CD] |==|  0.45370
USER: genes 7 Torsion [CB]-CG--CD-[OE2] |==|  0.67236
USER: genes 8 Torsion [N]-CA--C-[N] |==|  0.76416
USER: genes 9 Torsion [C]-N--CA-[C] |==|  0.63697
USER: genes 10 Torsion [N]-CA--C-[N] |==|  0.49998
USER: genes 11 Torsion [C]-N--CA-[CB] |==|  0.41852
USER: genes 12 Torsion [N]-CA--C-[OXT] |==|  0.56760
USER: genes 13 Torsion [N]-CA--CB-[SG] |==|  0.92715
USER: genes 14 Torsion [CA]-CB--SG-[HG] |==|  0.06183
USER: genes 15 Torsion [N]-CA--CB-[CG] |==|  0.07197
USER: genes 16 Torsion [CA]-CB--CG-[CD] |==|  0.40384
USER: genes 17 Torsion [CB]-CG--CD-[OE1] |==|  0.92364
USER: genes 18 Torsion [N]-CA--CB-[CG] |==|  0.70870
USER: genes 19 Torsion [CA]-CB--CG-[SD] |==|  0.28031
USER: genes 20 Torsion [CB]-CG--SD-[CE] |==|  0.29691
USER: genes 21 Torsion [N]-C--CA-[N] |==|  0.00578
USER: genes 22 Torsion [C]-CA--N-[C] |==|  0.72702
USER: genes 23 Torsion [N]-C--CA-[N] |==|  0.49968
USER: genes 24 Torsion [C]-CA--CB-[CG] |==|  0.81725
USER: genes 25 Torsion [CA]-CB--CG-[OD1] |==|  0.80956
USER: genes 26 Torsion [C]-CA--N-[C] |==|  0.74218
USER: genes 27 Torsion [N]-C--CA-[N] |==|  0.70447
USER: genes 28 Torsion [C]-CA--N-[C] |==|  0.66502
USER: genes 29 Torsion [C]-CA--CB-[CG] |==|  0.16854
USER: genes 30 Torsion [CA]-CB--CG-[CD1] |==|  0.56057
USER: genes 31 Torsion [C]-CA--CB-[CG] |==|  0.60510
USER: genes 32 Torsion [CA]-CB--CG-[CD] |==|  0.77962
USER: genes 33 Torsion [CB]-CG--CD-[OE1] |==|  0.99920
ROOT
ATOM      1  C   GLU C   3      26.859  -2.689  -9.547  1.00 25.67 LIG 0.24  C 
ATOM      2 O    GLU C   3      26.365  -3.195  -8.529  1.00 24.73 LIG-0.27  OA
ATOM      3  N   MET C   4      28.135  -2.308  -9.650  1.00 25.06 LIG-0.35  N 
ATOM      4 H    MET C   4      28.461  -1.941 -10.356  1.00 25.06 LIG 0.16  HD
ENDROOT
BRANCH 3 5
ATOM      5  CA  MET C   4      29.110  -2.476  -8.570  1.00 24.76 LIG 0.18  C 
BRANCH 5 6
ATOM      6  C   MET C   4      28.997  -3.876  -7.990  1.00 24.60 LIG 0.24  C 
ATOM      7 O    MET C   4      29.514  -4.846  -8.553  1.00 25.19 LIG-0.27  OA
ATOM      8  N   GLU C   5      28.263  -3.977  -6.892  1.00 23.81 LIG-0.35  N 
ATOM      9 H    GLU C   5      27.810  -3.326  -6.561  1.00 23.81 LIG 0.16  HD
BRANCH 8 10
ATOM     10  CA  GLU C   5      28.160  -5.202  -6.149  1.00 23.16 LIG 0.18  C 
BRANCH 10 11
ATOM     11  CB  GLU C   5      27.060  -5.063  -5.100  1.00 23.03 LIG 0.04  C 
BRANCH 11 12
ATOM     12  CG  GLU C   5      27.553  -5.391  -3.691  1.00 23.31 LIG 0.12  C 
BRANCH 12 13
ATOM     13  CD  GLU C   5      26.633  -4.890  -2.576  1.00 24.36 LIG 0.17  C 
ATOM     14 OE2  GLU C   5      27.091  -4.045  -1.760  1.00 22.25 LIG-0.65  OA
ATOM     15 OE1  GLU C   5      25.469  -5.328  -2.492  1.00 21.71 LIG-0.65  OA
ENDBRANCH 12 13
ENDBRANCH 11 12
ENDBRANCH 10 11
BRANCH 10 16
ATOM     16  C   GLU C   5      27.830  -6.326  -7.100  1.00 22.53 LIG 0.24  C 
ATOM     17  N   GLU C   6      26.543  -6.502  -7.389  1.00 22.45 LIG-0.35  N 
ATOM     18 H    GLU C   6      25.900  -6.094  -6.991  1.00 22.45 LIG 0.16  HD
ATOM     19 O    GLU C   5      28.725  -7.031  -7.547  1.00 22.53 LIG-0.27  OA
BRANCH 17 20
ATOM     20  CA  GLU C   6      26.113  -7.440  -8.446  1.00 22.27 LIG 0.18  C 
BRANCH 20 21
ATOM     21  C   GLU C   6      25.126  -6.760  -9.381  1.00 21.97 LIG 0.24  C 
ATOM     22 O    GLU C   6      24.791  -5.591  -9.189  1.00 22.60 LIG-0.27  OA
ATOM     23  N   CYS C   7      24.641  -7.475 -10.393  1.00 20.65 LIG-0.34  N 
ATOM     24 H    CYS C   7      24.806  -8.307 -10.534  1.00 20.65 LIG 0.16  HD
BRANCH 23 25
ATOM     25  CA  CYS C   7      23.754  -6.837 -11.365  1.00 20.43 LIG 0.19  C 
BRANCH 25 26
ATOM     26  C   CYS C   7      22.325  -6.789 -10.857  1.00 19.69 LIG 0.20  C 
ATOM     27 O    CYS C   7      22.048  -6.829  -9.662  1.00 19.84 LIG-0.65  OA
ATOM     28 OXT  CYS C   7      21.396  -6.718 -11.657  1.00 20.10 LIG-0.65  OA
ENDBRANCH 25 26
BRANCH 25 29
ATOM     29  CB  CYS C   7      23.884  -7.506 -12.749  1.00 20.27 LIG 0.11  C 
BRANCH 29 30
ATOM     30 SG   CYS C   7      25.522  -8.298 -13.019  1.00 22.98 LIG-0.18  SA
ATOM     31 HG   CYS C   7      26.031  -8.536 -11.959  1.00 22.98 LIG 0.10  HD
ENDBRANCH 29 30
ENDBRANCH 25 29
ENDBRANCH 23 25
ENDBRANCH 20 21
BRANCH 20 32
ATOM     32  CB  GLU C   6      25.472  -8.680  -7.825  1.00 22.58 LIG 0.04  C 
BRANCH 32 33
ATOM     33  CG  GLU C   6      24.880  -8.404  -6.465  1.00 24.64 LIG 0.12  C 
BRANCH 33 34
ATOM     34  CD  GLU C   6      23.615  -9.204  -6.184  1.00 27.63 LIG 0.17  C 
ATOM     35 OE1  GLU C   6      22.888  -9.571  -7.139  1.00 27.17 LIG-0.65  OA
ATOM     36 OE2  GLU C   6      23.363  -9.470  -4.987  1.00 31.71 LIG-0.65  OA
ENDBRANCH 33 34
ENDBRANCH 32 33
ENDBRANCH 20 32
ENDBRANCH 17 20
ENDBRANCH 10 16
ENDBRANCH 8 10
ENDBRANCH 5 6
BRANCH 5 37
ATOM     37  CB  MET C   4      28.876  -1.444  -7.461  1.00 24.86 LIG 0.04  C 
BRANCH 37 38
ATOM     38  CG  MET C   4      29.883  -0.275  -7.414  1.00 24.76 LIG 0.08  C 
BRANCH 38 39
ATOM     39 SD   MET C   4      29.303   1.281  -8.133  1.00 26.68 LIG-0.17  SA
ATOM     40  CE  MET C   4      29.041   2.234  -6.625  1.00 24.50 LIG 0.09  C 
ENDBRANCH 38 39
ENDBRANCH 37 38
ENDBRANCH 5 37
ENDBRANCH 3 5
BRANCH 1 41
ATOM     41  CA  GLU C   3      26.007  -2.509 -10.803  1.00 26.55 LIG 0.18  C 
BRANCH 41 42
ATOM     42  N   GLU C   3      26.834  -1.982 -11.885  1.00 27.07 LIG-0.35  N 
ATOM     43 H    GLU C   3      27.297  -2.576 -12.302  1.00 27.07 LIG 0.16  HD
ATOM     44  C   ASP C   2      26.849  -0.685 -12.180  1.00 28.06 LIG 0.24  C 
ATOM     45 O    ASP C   2      26.153   0.136 -11.586  1.00 27.76 LIG-0.27  OA
BRANCH 44 46
ATOM     46  CA  ASP C   2      27.748  -0.260 -13.345  1.00 28.68 LIG 0.19  C 
BRANCH 46 47
ATOM     47  CB  ASP C   2      29.203  -0.734 -13.159  1.00 28.90 LIG 0.15  C 
BRANCH 47 48
ATOM     48  CG  ASP C   2      29.913  -0.079 -11.980  1.00 30.38 LIG 0.17  C 
ATOM     49 OD2  ASP C   2      30.231  -0.770 -10.989  1.00 31.55 LIG-0.65  OA
ATOM     50 OD1  ASP C   2      30.177   1.148 -12.063  1.00 32.13 LIG-0.65  OA
ENDBRANCH 47 48
ENDBRANCH 46 47
BRANCH 46 51
ATOM     51  N   ASP C   2      27.714   1.184 -13.617  1.00 28.83 LIG-0.34  N 
ATOM     52  C   PHE C   1      26.865   1.684 -14.512  1.00 29.29 LIG 0.24  C 
ATOM     53 O    PHE C   1      25.966   1.018 -15.028  1.00 29.28 LIG-0.27  OA
ATOM     54 H    ASP C   2      28.273   1.652 -13.159  1.00 28.83 LIG 0.16  HD
BRANCH 52 55
ATOM     55  CA  PHE C   1      27.062   3.138 -14.916  1.00 29.71 LIG 0.18  C 
BRANCH 55 56
ATOM     56  N   PHE C   1      25.998   3.923 -14.291  1.00 30.30 LIG-0.35  N 
ATOM     57 H    PHE C   1      25.989   3.874 -13.433  1.00 30.30 LIG 0.16  HD
ATOM     58  C   ACE C   0      25.120   4.649 -15.000  1.00 30.61 LIG 0.21  C 
ATOM     59  CH3 ACE C   0      24.270   5.584 -14.184  1.00 31.12 LIG 0.12  C 
ATOM     60 O    ACE C   0      24.817   4.366 -16.164  1.00 30.74 LIG-0.27  OA
ENDBRANCH 55 56
BRANCH 55 61
ATOM     61  CB  PHE C   1      28.432   3.658 -14.461  1.00 29.76 LIG 0.07  C 
BRANCH 61 62
ATOM     62  CG  PHE C   1      29.619   2.915 -15.046  1.00 30.32 LIG-0.06  A 
ATOM     63  CD1 PHE C   1      30.857   2.956 -14.407  1.00 31.60 LIG 0.01  A 
ATOM     64  CE1 PHE C   1      31.965   2.292 -14.944  1.00 31.29 LIG 0.00  A 
ATOM     65  CZ  PHE C   1      31.834   1.577 -16.125  1.00 31.54 LIG 0.00  A 
ATOM     66  CE2 PHE C   1      30.606   1.530 -16.774  1.00 29.54 LIG 0.00  A 
ATOM     67  CD2 PHE C   1      29.512   2.196 -16.235  1.00 30.51 LIG 0.01  A 
ENDBRANCH 61 62
ENDBRANCH 55 61
ENDBRANCH 52 55
ENDBRANCH 46 51
ENDBRANCH 44 46
ENDBRANCH 41 42
BRANCH 41 68
ATOM     68  CB  GLU C   3      25.267  -3.813 -11.209  1.00 26.96 LIG 0.04  C 
BRANCH 68 69
ATOM     69  CG  GLU C   3      25.130  -4.143 -12.716  1.00 28.76 LIG 0.12  C 
BRANCH 69 70
ATOM     70  CD  GLU C   3      24.031  -3.385 -13.418  1.00 29.94 LIG 0.17  C 
ATOM     71 OE1  GLU C   3      23.346  -2.588 -12.749  1.00 33.38 LIG-0.65  OA
ATOM     72 OE2  GLU C   3      23.874  -3.564 -14.651  1.00 31.06 LIG-0.65  OA
ENDBRANCH 69 70
ENDBRANCH 68 69
ENDBRANCH 41 68
ENDBRANCH 1 41
TORSDOF 32
ENDMDL
MODEL 9
USER: ADFR SOLUTION from run 81
USER: SCORE 22.509812 LL:  -4.802 LR: -19.899 RR:   0.000 FEB: -10.353
USER: RMSD 14.447730
USER: SEED 80
USER: STATUS no improvement in best in 5 clusters for 5 generations
USER: GENES 34
USER: genes 0 Translation |==|  0.43127 0.70465 0.32721
USER: genes 1 Rotation |==|  0.94002 0.30434 0.38625 0.57180
USER: genes 2 Torsion [C]-N--CA-[CB] |==|  0.22650
USER: genes 3 Torsion [N]-CA--C-[N] |==|  0.45234
USER: genes 4 Torsion [C]-N--CA-[CB] |==|  0.21620
USER: genes 5 Torsion [N]-CA--CB-[CG] |==|  0.12392
USER: genes 6 Torsion [CA]-CB--CG-[CD] |==|  0.68193
USER: genes 7 Torsion [CB]-CG--CD-[OE2] |==|  0.55229
USER: genes 8 Torsion [N]-CA--C-[N] |==|  0.32217
USER: genes 9 Torsion [C]-N--CA-[C] |==|  0.84674
USER: genes 10 Torsion [N]-CA--C-[N] |==|  0.35011
USER: genes 11 Torsion [C]-N--CA-[CB] |==|  0.13937
USER: genes 12 Torsion [N]-CA--C-[OXT] |==|  0.08744
USER: genes 13 Torsion [N]-CA--CB-[SG] |==|  0.66008
USER: genes 14 Torsion [CA]-CB--SG-[HG] |==|  0.66327
USER: genes 15 Torsion [N]-CA--CB-[CG] |==|  0.54432
USER: genes 16 Torsion [CA]-CB--CG-[CD] |==|  0.21954
USER: genes 17 Torsion [CB]-CG--CD-[OE1] |==|  0.48079
USER: genes 18 Torsion [N]-CA--CB-[CG] |==|  0.30311
USER: genes 19 Torsion [CA]-CB--CG-[SD] |==|  0.38433
USER: genes 20 Torsion [CB]-CG--SD-[CE] |==|  0.58377
USER: genes 21 Torsion [N]-C--CA-[N] |==|  0.11462
USER: genes 22 Torsion [C]-CA--N-[C] |==|  0.14902
USER: genes 23 Torsion [N]-C--CA-[N] |==|  0.90765
USER: genes 24 Torsion [C]-CA--CB-[CG] |==|  0.22333
USER: genes 25 Torsion [CA]-CB--CG-[OD1] |==|  0.07773
USER: genes 26 Torsion [C]-CA--N-[C] |==|  0.84965
USER: genes 27 Torsion [N]-C--CA-[N] |==|  0.00157
USER: genes 28 Torsion [C]-CA--N-[C] |==|  0.73347
USER: genes 29 Torsion [C]-CA--CB-[CG] |==|  0.16100
USER: genes 30 Torsion [CA]-CB--CG-[CD1] |==|  0.20635
USER: genes 31 Torsion [C]-CA--CB-[CG] |==|  0.88144
USER: genes 32 Torsion [CA]-CB--CG-[CD] |==|  0.63695
USER: genes 33 Torsion [CB]-CG--CD-[OE1] |==|  0.74185
ROOT
ATOM      1  C   GLU C   3      26.927   2.225 -12.940  1.00 25.67 LIG 0.24  C 
ATOM      2 O    GLU C   3      26.065   2.823 -12.282  1.00 24.73 LIG-0.27  OA
ATOM      3  N   MET C   4      27.244   0.939 -12.765  1.00 25.06 LIG-0.35  N 
ATOM      4 H    MET C   4      27.858   0.541 -13.216  1.00 25.06 LIG 0.16  HD
ENDROOT
BRANCH 3 5
ATOM      5  CA  MET C   4      26.577   0.077 -11.787  1.00 24.76 LIG 0.18  C 
BRANCH 5 6
ATOM      6  C   MET C   4      27.480  -1.094 -11.436  1.00 24.60 LIG 0.24  C 
ATOM      7 O    MET C   4      28.406  -1.434 -12.179  1.00 25.19 LIG-0.27  OA
ATOM      8  N   GLU C   5      27.162  -1.741 -10.326  1.00 23.81 LIG-0.35  N 
ATOM      9 H    GLU C   5      26.454  -1.579  -9.866  1.00 23.81 LIG 0.16  HD
BRANCH 8 10
ATOM     10  CA  GLU C   5      27.986  -2.787  -9.786  1.00 23.16 LIG 0.18  C 
BRANCH 10 11
ATOM     11  CB  GLU C   5      29.181  -2.165  -9.068  1.00 23.03 LIG 0.04  C 
BRANCH 11 12
ATOM     12  CG  GLU C   5      28.780  -0.984  -8.184  1.00 23.31 LIG 0.12  C 
BRANCH 12 13
ATOM     13  CD  GLU C   5      29.347   0.360  -8.646  1.00 24.36 LIG 0.17  C 
ATOM     14 OE2  GLU C   5      29.383   1.308  -7.816  1.00 22.25 LIG-0.65  OA
ATOM     15 OE1  GLU C   5      29.745   0.492  -9.820  1.00 21.71 LIG-0.65  OA
ENDBRANCH 12 13
ENDBRANCH 11 12
ENDBRANCH 10 11
BRANCH 10 16
ATOM     16  C   GLU C   5      27.167  -3.605  -8.818  1.00 22.53 LIG 0.24  C 
ATOM     17  N   GLU C   6      26.959  -4.879  -9.142  1.00 22.45 LIG-0.35  N 
ATOM     18 H    GLU C   6      27.167  -5.223  -9.903  1.00 22.45 LIG 0.16  HD
ATOM     19 O    GLU C   5      26.716  -3.084  -7.806  1.00 22.53 LIG-0.27  OA
BRANCH 17 20
ATOM     20  CA  GLU C   6      26.339  -5.824  -8.192  1.00 22.27 LIG 0.18  C 
BRANCH 20 21
ATOM     21  C   GLU C   6      27.117  -5.843  -6.887  1.00 21.97 LIG 0.24  C 
ATOM     22 O    GLU C   6      28.327  -6.068  -6.887  1.00 22.60 LIG-0.27  OA
ATOM     23  N   CYS C   7      26.443  -5.619  -5.762  1.00 20.65 LIG-0.34  N 
ATOM     24 H    CYS C   7      25.591  -5.510  -5.710  1.00 20.65 LIG 0.16  HD
BRANCH 23 25
ATOM     25  CA  CYS C   7      27.164  -5.545  -4.492  1.00 20.43 LIG 0.19  C 
BRANCH 25 26
ATOM     26  C   CYS C   7      26.228  -5.214  -3.346  1.00 19.69 LIG 0.20  C 
ATOM     27 O    CYS C   7      26.591  -4.579  -2.360  1.00 19.84 LIG-0.65  OA
ATOM     28 OXT  CYS C   7      25.061  -5.595  -3.382  1.00 20.10 LIG-0.65  OA
ENDBRANCH 25 26
BRANCH 25 29
ATOM     29  CB  CYS C   7      28.362  -4.579  -4.596  1.00 20.27 LIG 0.11  C 
BRANCH 29 30
ATOM     30 SG   CYS C   7      29.971  -5.374  -4.193  1.00 22.98 LIG-0.18  SA
ATOM     31 HG   CYS C   7      30.484  -4.799  -3.274  1.00 22.98 LIG 0.10  HD
ENDBRANCH 29 30
ENDBRANCH 25 29
ENDBRANCH 23 25
ENDBRANCH 20 21
BRANCH 20 32
ATOM     32  CB  GLU C   6      26.296  -7.228  -8.793  1.00 22.58 LIG 0.04  C 
BRANCH 32 33
ATOM     33  CG  GLU C   6      25.349  -8.143  -8.057  1.00 24.64 LIG 0.12  C 
BRANCH 33 34
ATOM     34  CD  GLU C   6      23.889  -7.923  -8.428  1.00 27.63 LIG 0.17  C 
ATOM     35 OE1  GLU C   6      23.011  -8.705  -7.986  1.00 27.17 LIG-0.65  OA
ATOM     36 OE2  GLU C   6      23.628  -6.946  -9.165  1.00 31.71 LIG-0.65  OA
ENDBRANCH 33 34
ENDBRANCH 32 33
ENDBRANCH 20 32
ENDBRANCH 17 20
ENDBRANCH 10 16
ENDBRANCH 8 10
ENDBRANCH 5 6
BRANCH 5 37
ATOM     37  CB  MET C   4      25.250  -0.451 -12.343  1.00 24.86 LIG 0.04  C 
BRANCH 37 38
ATOM     38  CG  MET C   4      25.223  -1.954 -12.693  1.00 24.76 LIG 0.08  C 
BRANCH 38 39
ATOM     39 SD   MET C   4      23.716  -2.837 -12.220  1.00 26.68 LIG-0.17  SA
ATOM     40  CE  MET C   4      24.406  -4.477 -11.925  1.00 24.50 LIG 0.09  C 
ENDBRANCH 38 39
ENDBRANCH 37 38
ENDBRANCH 5 37
ENDBRANCH 3 5
BRANCH 1 41
ATOM     41  CA  GLU C   3      27.674   2.948 -14.060  1.00 26.55 LIG 0.18  C 
BRANCH 41 42
ATOM     42  N   GLU C   3      27.782   2.072 -15.223  1.00 27.07 LIG-0.35  N 
ATOM     43 H    GLU C   3      28.584   1.965 -15.517  1.00 27.07 LIG 0.16  HD
ATOM     44  C   ASP C   2      26.709   1.498 -15.762  1.00 28.06 LIG 0.24  C 
ATOM     45 O    ASP C   2      25.580   1.644 -15.301  1.00 27.76 LIG-0.27  OA
BRANCH 44 46
ATOM     46  CA  ASP C   2      26.957   0.590 -16.970  1.00 28.68 LIG 0.19  C 
BRANCH 46 47
ATOM     47  CB  ASP C   2      27.149  -0.884 -16.560  1.00 28.90 LIG 0.15  C 
BRANCH 47 48
ATOM     48  CG  ASP C   2      25.841  -1.620 -16.294  1.00 30.38 LIG 0.17  C 
ATOM     49 OD2  ASP C   2      25.817  -2.561 -15.474  1.00 31.55 LIG-0.65  OA
ATOM     50 OD1  ASP C   2      24.813  -1.227 -16.904  1.00 32.13 LIG-0.65  OA
ENDBRANCH 47 48
ENDBRANCH 46 47
BRANCH 46 51
ATOM     51  N   ASP C   2      28.074   1.030 -17.817  1.00 28.83 LIG-0.34  N 
ATOM     52  C   PHE C   1      28.107   2.269 -18.304  1.00 29.29 LIG 0.24  C 
ATOM     53 O    PHE C   1      27.319   3.149 -17.950  1.00 29.28 LIG-0.27  OA
ATOM     54 H    ASP C   2      28.678   0.435 -17.960  1.00 28.83 LIG 0.16  HD
BRANCH 52 55
ATOM     55  CA  PHE C   1      29.155   2.569 -19.365  1.00 29.71 LIG 0.18  C 
BRANCH 55 56
ATOM     56  N   PHE C   1      29.905   1.339 -19.612  1.00 30.30 LIG-0.35  N 
ATOM     57 H    PHE C   1      29.529   0.808 -20.173  1.00 30.30 LIG 0.16  HD
ATOM     58  C   ACE C   0      31.074   1.070 -19.010  1.00 30.61 LIG 0.21  C 
ATOM     59  CH3 ACE C   0      31.818  -0.109 -19.576  1.00 31.12 LIG 0.12  C 
ATOM     60 O    ACE C   0      31.374   1.541 -17.908  1.00 30.74 LIG-0.27  OA
ENDBRANCH 55 56
BRANCH 55 61
ATOM     61  CB  PHE C   1      28.502   3.053 -20.667  1.00 29.76 LIG 0.07  C 
BRANCH 61 62
ATOM     62  CG  PHE C   1      27.636   4.292 -20.520  1.00 30.32 LIG-0.06  A 
ATOM     63  CD1 PHE C   1      28.226   5.542 -20.347  1.00 31.60 LIG 0.01  A 
ATOM     64  CE1 PHE C   1      27.443   6.691 -20.192  1.00 31.29 LIG 0.00  A 
ATOM     65  CZ  PHE C   1      26.059   6.590 -20.213  1.00 31.54 LIG 0.00  A 
ATOM     66  CE2 PHE C   1      25.458   5.347 -20.381  1.00 29.54 LIG 0.00  A 
ATOM     67  CD2 PHE C   1      26.245   4.212 -20.531  1.00 30.51 LIG 0.01  A 
ENDBRANCH 61 62
ENDBRANCH 55 61
ENDBRANCH 52 55
ENDBRANCH 46 51
ENDBRANCH 44 46
ENDBRANCH 41 42
BRANCH 41 68
ATOM     68  CB  GLU C   3      27.031   4.317 -14.413  1.00 26.96 LIG 0.04  C 
BRANCH 68 69
ATOM     69  CG  GLU C   3      25.487   4.404 -14.506  1.00 28.76 LIG 0.12  C 
BRANCH 69 70
ATOM     70  CD  GLU C   3      24.980   5.071 -15.760  1.00 29.94 LIG 0.17  C 
ATOM     71 OE1  GLU C   3      24.753   6.296 -15.725  1.00 33.38 LIG-0.65  OA
ATOM     72 OE2  GLU C   3      24.838   4.372 -16.794  1.00 31.06 LIG-0.65  OA
ENDBRANCH 69 70
ENDBRANCH 68 69
ENDBRANCH 41 68
ENDBRANCH 1 41
TORSDOF 32
ENDMDL
MODEL 10
USER: ADFR SOLUTION from run 121
USER: SCORE 20.163372 LL:  -4.542 LR: -19.816 RR:   0.000 FEB: -10.270
USER: RMSD 13.285799
USER: SEED 120
USER: STATUS no improvement in best in 3 clusters for 5 generations
USER: GENES 34
USER: genes 0 Translation |==|  0.46035 0.60839 0.37263
USER: genes 1 Rotation |==|  0.10823 0.76181 0.43034 0.65204
USER: genes 2 Torsion [C]-N--CA-[CB] |==|  0.38062
USER: genes 3 Torsion [N]-CA--C-[N] |==|  0.89223
USER: genes 4 Torsion [C]-N--CA-[CB] |==|  0.19931
USER: genes 5 Torsion [N]-CA--CB-[CG] |==|  0.45575
USER: genes 6 Torsion [CA]-CB--CG-[CD] |==|  0.33707
USER: genes 7 Torsion [CB]-CG--CD-[OE2] |==|  0.46027
USER: genes 8 Torsion [N]-CA--C-[N] |==|  0.36365
USER: genes 9 Torsion [C]-N--CA-[C] |==|  0.76875
USER: genes 10 Torsion [N]-CA--C-[N] |==|  0.84143
USER: genes 11 Torsion [C]-N--CA-[CB] |==|  0.14808
USER: genes 12 Torsion [N]-CA--C-[OXT] |==|  0.72047
USER: genes 13 Torsion [N]-CA--CB-[SG] |==|  0.70208
USER: genes 14 Torsion [CA]-CB--SG-[HG] |==|  0.84871
USER: genes 15 Torsion [N]-CA--CB-[CG] |==|  0.34667
USER: genes 16 Torsion [CA]-CB--CG-[CD] |==|  0.56827
USER: genes 17 Torsion [CB]-CG--CD-[OE1] |==|  0.85891
USER: genes 18 Torsion [N]-CA--CB-[CG] |==|  0.36782
USER: genes 19 Torsion [CA]-CB--CG-[SD] |==|  0.25664
USER: genes 20 Torsion [CB]-CG--SD-[CE] |==|  0.63745
USER: genes 21 Torsion [N]-C--CA-[N] |==|  0.34646
USER: genes 22 Torsion [C]-CA--N-[C] |==|  0.85514
USER: genes 23 Torsion [N]-C--CA-[N] |==|  0.75822
USER: genes 24 Torsion [C]-CA--CB-[CG] |==|  0.12945
USER: genes 25 Torsion [CA]-CB--CG-[OD1] |==|  0.12127
USER: genes 26 Torsion [C]-CA--N-[C] |==|  0.81217
USER: genes 27 Torsion [N]-C--CA-[N] |==|  0.50556
USER: genes 28 Torsion [C]-CA--N-[C] |==|  0.69282
USER: genes 29 Torsion [C]-CA--CB-[CG] |==|  0.81146
USER: genes 30 Torsion [CA]-CB--CG-[CD1] |==|  0.73513
USER: genes 31 Torsion [C]-CA--CB-[CG] |==|  0.24457
USER: genes 32 Torsion [CA]-CB--CG-[CD] |==|  0.86236
USER: genes 33 Torsion [CB]-CG--CD-[OE1] |==|  0.74482
ROOT
ATOM      1  C   GLU C   3      27.473  -0.446 -11.782  1.00 25.67 LIG 0.24  C 
ATOM      2 O    GLU C   3      26.592   0.425 -11.807  1.00 24.73 LIG-0.27  OA
ATOM      3  N   MET C   4      27.286  -1.710 -12.171  1.00 25.06 LIG-0.35  N 
ATOM      4 H    MET C   4      27.900  -2.310 -12.131  1.00 25.06 LIG 0.16  HD
ENDROOT
BRANCH 3 5
ATOM      5  CA  MET C   4      26.014  -2.203 -12.706  1.00 24.76 LIG 0.18  C 
BRANCH 5 6
ATOM      6  C   MET C   4      25.274  -2.984 -11.632  1.00 24.60 LIG 0.24  C 
ATOM      7 O    MET C   4      24.056  -2.859 -11.475  1.00 25.19 LIG-0.27  OA
ATOM      8  N   GLU C   5      26.035  -3.743 -10.859  1.00 23.81 LIG-0.35  N 
ATOM      9 H    GLU C   5      26.894  -3.747 -10.892  1.00 23.81 LIG 0.16  HD
BRANCH 8 10
ATOM     10  CA  GLU C   5      25.481  -4.639  -9.882  1.00 23.16 LIG 0.18  C 
BRANCH 10 11
ATOM     11  CB  GLU C   5      24.831  -5.821 -10.597  1.00 23.03 LIG 0.04  C 
BRANCH 11 12
ATOM     12  CG  GLU C   5      24.565  -6.997  -9.658  1.00 23.31 LIG 0.12  C 
BRANCH 12 13
ATOM     13  CD  GLU C   5      23.095  -7.411  -9.578  1.00 24.36 LIG 0.17  C 
ATOM     14 OE2  GLU C   5      22.817  -8.525  -9.055  1.00 22.25 LIG-0.65  OA
ATOM     15 OE1  GLU C   5      22.215  -6.656 -10.034  1.00 21.71 LIG-0.65  OA
ENDBRANCH 12 13
ENDBRANCH 11 12
ENDBRANCH 10 11
BRANCH 10 16
ATOM     16  C   GLU C   5      26.588  -5.125  -8.980  1.00 22.53 LIG 0.24  C 
ATOM     17  N   GLU C   6      26.364  -5.051  -7.670  1.00 22.45 LIG-0.35  N 
ATOM     18 H    GLU C   6      25.688  -4.653  -7.319  1.00 22.45 LIG 0.16  HD
ATOM     19 O    GLU C   5      27.633  -5.540  -9.463  1.00 22.53 LIG-0.27  OA
BRANCH 17 20
ATOM     20  CA  GLU C   6      27.287  -5.665  -6.696  1.00 22.27 LIG 0.18  C 
BRANCH 20 21
ATOM     21  C   GLU C   6      26.972  -7.143  -6.533  1.00 21.97 LIG 0.24  C 
ATOM     22 O    GLU C   6      27.837  -7.992  -6.752  1.00 22.60 LIG-0.27  OA
ATOM     23  N   CYS C   7      25.738  -7.475  -6.161  1.00 20.65 LIG-0.34  N 
ATOM     24 H    CYS C   7      25.090  -6.920  -6.049  1.00 20.65 LIG 0.16  HD
BRANCH 23 25
ATOM     25  CA  CYS C   7      25.414  -8.879  -5.912  1.00 20.43 LIG 0.19  C 
BRANCH 25 26
ATOM     26  C   CYS C   7      23.962  -9.045  -5.504  1.00 19.69 LIG 0.20  C 
ATOM     27 O    CYS C   7      23.043  -9.030  -6.317  1.00 19.84 LIG-0.65  OA
ATOM     28 OXT  CYS C   7      23.675  -9.189  -4.319  1.00 20.10 LIG-0.65  OA
ENDBRANCH 25 26
BRANCH 25 29
ATOM     29  CB  CYS C   7      26.402  -9.501  -4.903  1.00 20.27 LIG 0.11  C 
BRANCH 29 30
ATOM     30 SG   CYS C   7      27.591 -10.670  -5.681  1.00 22.98 LIG-0.18  SA
ATOM     31 HG   CYS C   7      26.987 -11.509  -6.290  1.00 22.98 LIG 0.10  HD
ENDBRANCH 29 30
ENDBRANCH 25 29
ENDBRANCH 23 25
ENDBRANCH 20 21
BRANCH 20 32
ATOM     32  CB  GLU C   6      27.179  -4.959  -5.345  1.00 22.58 LIG 0.04  C 
BRANCH 32 33
ATOM     33  CG  GLU C   6      26.868  -5.912  -4.218  1.00 24.64 LIG 0.12  C 
BRANCH 33 34
ATOM     34  CD  GLU C   6      26.185  -5.243  -3.033  1.00 27.63 LIG 0.17  C 
ATOM     35 OE1  GLU C   6      26.684  -4.203  -2.534  1.00 27.17 LIG-0.65  OA
ATOM     36 OE2  GLU C   6      25.131  -5.769  -2.610  1.00 31.71 LIG-0.65  OA
ENDBRANCH 33 34
ENDBRANCH 32 33
ENDBRANCH 20 32
ENDBRANCH 17 20
ENDBRANCH 10 16
ENDBRANCH 8 10
ENDBRANCH 5 6
BRANCH 5 37
ATOM     37  CB  MET C   4      26.249  -3.105 -13.923  1.00 24.86 LIG 0.04  C 
BRANCH 37 38
ATOM     38  CG  MET C   4      25.483  -4.444 -13.919  1.00 24.76 LIG 0.08  C 
BRANCH 38 39
ATOM     39 SD   MET C   4      23.874  -4.424 -14.747  1.00 26.68 LIG-0.17  SA
ATOM     40  CE  MET C   4      22.864  -5.193 -13.466  1.00 24.50 LIG 0.09  C 
ENDBRANCH 38 39
ENDBRANCH 37 38
ENDBRANCH 5 37
ENDBRANCH 3 5
BRANCH 1 41
ATOM     41  CA  GLU C   3      28.887  -0.093 -11.324  1.00 26.55 LIG 0.18  C 
BRANCH 41 42
ATOM     42  N   GLU C   3      29.383   1.043 -12.097  1.00 27.07 LIG-0.35  N 
ATOM     43 H    GLU C   3      29.685   1.693 -11.622  1.00 27.07 LIG 0.16  HD
ATOM     44  C   ASP C   2      29.356   1.043 -13.427  1.00 28.06 LIG 0.24  C 
ATOM     45 O    ASP C   2      28.947   0.085 -14.080  1.00 27.76 LIG-0.27  OA
BRANCH 44 46
ATOM     46  CA  ASP C   2      29.918   2.288 -14.121  1.00 28.68 LIG 0.19  C 
BRANCH 46 47
ATOM     47  CB  ASP C   2      31.169   2.836 -13.407  1.00 28.90 LIG 0.15  C 
BRANCH 47 48
ATOM     48  CG  ASP C   2      32.192   1.763 -13.053  1.00 30.38 LIG 0.17  C 
ATOM     49 OD2  ASP C   2      32.719   1.760 -11.922  1.00 31.55 LIG-0.65  OA
ATOM     50 OD1  ASP C   2      32.450   0.892 -13.923  1.00 32.13 LIG-0.65  OA
ENDBRANCH 47 48
ENDBRANCH 46 47
BRANCH 46 51
ATOM     51  N   ASP C   2      28.926   3.357 -14.300  1.00 28.83 LIG-0.34  N 
ATOM     52  C   PHE C   1      27.900   3.196 -15.134  1.00 29.29 LIG 0.24  C 
ATOM     53 O    PHE C   1      27.629   2.115 -15.660  1.00 29.28 LIG-0.27  OA
ATOM     54 H    ASP C   2      29.068   4.066 -13.834  1.00 28.83 LIG 0.16  HD
BRANCH 52 55
ATOM     55  CA  PHE C   1      27.066   4.428 -15.453  1.00 29.71 LIG 0.18  C 
BRANCH 55 56
ATOM     56  N   PHE C   1      25.979   4.013 -16.337  1.00 30.30 LIG-0.35  N 
ATOM     57 H    PHE C   1      25.389   3.518 -15.956  1.00 30.30 LIG 0.16  HD
ATOM     58  C   ACE C   0      25.915   4.377 -17.628  1.00 30.61 LIG 0.21  C 
ATOM     59  CH3 ACE C   0      24.606   4.074 -18.305  1.00 31.12 LIG 0.12  C 
ATOM     60 O    ACE C   0      26.923   4.650 -18.287  1.00 30.74 LIG-0.27  OA
ENDBRANCH 55 56
BRANCH 55 61
ATOM     61  CB  PHE C   1      26.491   5.053 -14.175  1.00 29.76 LIG 0.07  C 
BRANCH 61 62
ATOM     62  CG  PHE C   1      25.442   4.208 -13.473  1.00 30.32 LIG-0.06  A 
ATOM     63  CD1 PHE C   1      24.088   4.427 -13.715  1.00 31.60 LIG 0.01  A 
ATOM     64  CE1 PHE C   1      23.109   3.671 -13.062  1.00 31.29 LIG 0.00  A 
ATOM     65  CZ  PHE C   1      23.487   2.684 -12.163  1.00 31.54 LIG 0.00  A 
ATOM     66  CE2 PHE C   1      24.835   2.458 -11.910  1.00 29.54 LIG 0.00  A 
ATOM     67  CD2 PHE C   1      25.800   3.217 -12.560  1.00 30.51 LIG 0.01  A 
ENDBRANCH 61 62
ENDBRANCH 55 61
ENDBRANCH 52 55
ENDBRANCH 46 51
ENDBRANCH 44 46
ENDBRANCH 41 42
BRANCH 41 68
ATOM     68  CB  GLU C   3      28.969   0.157  -9.794  1.00 26.96 LIG 0.04  C 
BRANCH 68 69
ATOM     69  CG  GLU C   3      29.228  -1.054  -8.863  1.00 28.76 LIG 0.12  C 
BRANCH 69 70
ATOM     70  CD  GLU C   3      28.326  -2.236  -9.120  1.00 29.94 LIG 0.17  C 
ATOM     71 OE1  GLU C   3      27.263  -2.317  -8.475  1.00 33.38 LIG-0.65  OA
ATOM     72 OE2  GLU C   3      28.668  -3.069  -9.995  1.00 31.06 LIG-0.65  OA
ENDBRANCH 69 70
ENDBRANCH 68 69
ENDBRANCH 41 68
ENDBRANCH 1 41
TORSDOF 32
ENDMDL
MODEL 11
USER: ADFR SOLUTION from run 65
USER: SCORE 20.154684 LL:  -4.122 LR: -19.739 RR:   0.000 FEB: -10.194
USER: RMSD 14.070677
USER: SEED 64
USER: STATUS no improvement in best in 9 clusters for 5 generations
USER: GENES 34
USER: genes 0 Translation |==|  0.34060 0.52844 0.28414
USER: genes 1 Rotation |==|  0.85199 0.56325 0.49985 0.84943
USER: genes 2 Torsion [C]-N--CA-[CB] |==|  0.78275
USER: genes 3 Torsion [N]-CA--C-[N] |==|  0.27832
USER: genes 4 Torsion [C]-N--CA-[CB] |==|  0.24444
USER: genes 5 Torsion [N]-CA--CB-[CG] |==|  0.55919
USER: genes 6 Torsion [CA]-CB--CG-[CD] |==|  0.24351
USER: genes 7 Torsion [CB]-CG--CD-[OE2] |==|  0.55806
USER: genes 8 Torsion [N]-CA--C-[N] |==|  0.40685
USER: genes 9 Torsion [C]-N--CA-[C] |==|  0.67346
USER: genes 10 Torsion [N]-CA--C-[N] |==|  0.88737
USER: genes 11 Torsion [C]-N--CA-[CB] |==|  0.17788
USER: genes 12 Torsion [N]-CA--C-[OXT] |==|  0.62687
USER: genes 13 Torsion [N]-CA--CB-[SG] |==|  0.20851
USER: genes 14 Torsion [CA]-CB--SG-[HG] |==|  0.34177
USER: genes 15 Torsion [N]-CA--CB-[CG] |==|  0.33781
USER: genes 16 Torsion [CA]-CB--CG-[CD] |==|  0.57545
USER: genes 17 Torsion [CB]-CG--CD-[OE1] |==|  0.72286
USER: genes 18 Torsion [N]-CA--CB-[CG] |==|  0.88871
USER: genes 19 Torsion [CA]-CB--CG-[SD] |==|  0.56224
USER: genes 20 Torsion [CB]-CG--SD-[CE] |==|  0.80312
USER: genes 21 Torsion [N]-C--CA-[N] |==|  0.86257
USER: genes 22 Torsion [C]-CA--N-[C] |==|  0.68418
USER: genes 23 Torsion [N]-C--CA-[N] |==|  0.69624
USER: genes 24 Torsion [C]-CA--CB-[CG] |==|  0.75204
USER: genes 25 Torsion [CA]-CB--CG-[OD1] |==|  0.15954
USER: genes 26 Torsion [C]-CA--N-[C] |==|  0.80269
USER: genes 27 Torsion [N]-C--CA-[N] |==|  0.94350
USER: genes 28 Torsion [C]-CA--N-[C] |==|  0.64216
USER: genes 29 Torsion [C]-CA--CB-[CG] |==|  0.64001
USER: genes 30 Torsion [CA]-CB--CG-[CD1] |==|  0.81934
USER: genes 31 Torsion [C]-CA--CB-[CG] |==|  0.99469
USER: genes 32 Torsion [CA]-CB--CG-[CD] |==|  0.32219
USER: genes 33 Torsion [CB]-CG--CD-[OE1] |==|  0.42828
ROOT
ATOM      1  C   GLU C   3      25.227  -2.665 -14.038  1.00 25.67 LIG 0.24  C 
ATOM      2 O    GLU C   3      24.162  -2.703 -13.407  1.00 24.73 LIG-0.27  OA
ATOM      3  N   MET C   4      26.388  -2.249 -13.524  1.00 25.06 LIG-0.35  N 
ATOM      4 H    MET C   4      27.116  -2.210 -13.979  1.00 25.06 LIG 0.16  HD
ENDROOT
BRANCH 3 5
ATOM      5  CA  MET C   4      26.538  -1.818 -12.132  1.00 24.76 LIG 0.18  C 
BRANCH 5 6
ATOM      6  C   MET C   4      25.782  -2.768 -11.217  1.00 24.60 LIG 0.24  C 
ATOM      7 O    MET C   4      24.567  -2.645 -11.030  1.00 25.19 LIG-0.27  OA
ATOM      8  N   GLU C   5      26.525  -3.676 -10.605  1.00 23.81 LIG-0.35  N 
ATOM      9 H    GLU C   5      27.384  -3.695 -10.646  1.00 23.81 LIG 0.16  HD
BRANCH 8 10
ATOM     10  CA  GLU C   5      25.952  -4.726  -9.809  1.00 23.16 LIG 0.18  C 
BRANCH 10 11
ATOM     11  CB  GLU C   5      25.634  -5.919 -10.706  1.00 23.03 LIG 0.04  C 
BRANCH 11 12
ATOM     12  CG  GLU C   5      24.583  -6.845 -10.094  1.00 23.31 LIG 0.12  C 
BRANCH 12 13
ATOM     13  CD  GLU C   5      23.141  -6.453 -10.420  1.00 24.36 LIG 0.17  C 
ATOM     14 OE2  GLU C   5      22.223  -6.880  -9.668  1.00 22.25 LIG-0.65  OA
ATOM     15 OE1  GLU C   5      22.904  -5.739 -11.413  1.00 21.71 LIG-0.65  OA
ENDBRANCH 12 13
ENDBRANCH 11 12
ENDBRANCH 10 11
BRANCH 10 16
ATOM     16  C   GLU C   5      26.941  -5.128  -8.743  1.00 22.53 LIG 0.24  C 
ATOM     17  N   GLU C   6      26.433  -5.514  -7.575  1.00 22.45 LIG-0.35  N 
ATOM     18 H    GLU C   6      25.602  -5.445  -7.365  1.00 22.45 LIG 0.16  HD
ATOM     19 O    GLU C   5      28.142  -5.070  -8.971  1.00 22.53 LIG-0.27  OA
BRANCH 17 20
ATOM     20  CA  GLU C   6      27.284  -6.106  -6.524  1.00 22.27 LIG 0.18  C 
BRANCH 20 21
ATOM     21  C   GLU C   6      26.843  -7.531  -6.233  1.00 21.97 LIG 0.24  C 
ATOM     22 O    GLU C   6      27.679  -8.416  -6.051  1.00 22.60 LIG-0.27  OA
ATOM     23  N   CYS C   7      25.536  -7.778  -6.195  1.00 20.65 LIG-0.34  N 
ATOM     24 H    CYS C   7      24.919  -7.204  -6.368  1.00 20.65 LIG 0.16  HD
BRANCH 23 25
ATOM     25  CA  CYS C   7      25.066  -9.116  -5.836  1.00 20.43 LIG 0.19  C 
BRANCH 25 26
ATOM     26  C   CYS C   7      23.581  -9.268  -6.106  1.00 19.69 LIG 0.20  C 
ATOM     27 O    CYS C   7      23.056  -8.879  -7.145  1.00 19.84 LIG-0.65  OA
ATOM     28 OXT  CYS C   7      22.858  -9.788  -5.261  1.00 20.10 LIG-0.65  OA
ENDBRANCH 25 26
BRANCH 25 29
ATOM     29  CB  CYS C   7      25.458  -9.466  -4.385  1.00 20.27 LIG 0.11  C 
BRANCH 29 30
ATOM     30 SG   CYS C   7      24.428  -8.603  -3.129  1.00 22.98 LIG-0.18  SA
ATOM     31 HG   CYS C   7      23.908  -9.413  -2.413  1.00 22.98 LIG 0.10  HD
ENDBRANCH 29 30
ENDBRANCH 25 29
ENDBRANCH 23 25
ENDBRANCH 20 21
BRANCH 20 32
ATOM     32  CB  GLU C   6      27.211  -5.268  -5.249  1.00 22.58 LIG 0.04  C 
BRANCH 32 33
ATOM     33  CG  GLU C   6      26.727  -6.064  -4.062  1.00 24.64 LIG 0.12  C 
BRANCH 33 34
ATOM     34  CD  GLU C   6      26.032  -5.213  -3.008  1.00 27.63 LIG 0.17  C 
ATOM     35 OE1  GLU C   6      26.663  -4.856  -1.982  1.00 27.17 LIG-0.65  OA
ATOM     36 OE2  GLU C   6      24.841  -4.895  -3.226  1.00 31.71 LIG-0.65  OA
ENDBRANCH 33 34
ENDBRANCH 32 33
ENDBRANCH 20 32
ENDBRANCH 17 20
ENDBRANCH 10 16
ENDBRANCH 8 10
ENDBRANCH 5 6
BRANCH 5 37
ATOM     37  CB  MET C   4      26.004  -0.394 -11.943  1.00 24.86 LIG 0.04  C 
BRANCH 37 38
ATOM     38  CG  MET C   4      26.325   0.596 -13.082  1.00 24.76 LIG 0.08  C 
BRANCH 38 39
ATOM     39 SD   MET C   4      26.282   2.347 -12.628  1.00 26.68 LIG-0.17  SA
ATOM     40  CE  MET C   4      24.505   2.560 -12.409  1.00 24.50 LIG 0.09  C 
ENDBRANCH 38 39
ENDBRANCH 37 38
ENDBRANCH 5 37
ENDBRANCH 3 5
BRANCH 1 41
ATOM     41  CA  GLU C   3      25.277  -3.151 -15.486  1.00 26.55 LIG 0.18  C 
BRANCH 41 42
ATOM     42  N   GLU C   3      25.970  -2.165 -16.311  1.00 27.07 LIG-0.35  N 
ATOM     43 H    GLU C   3      26.805  -2.071 -16.128  1.00 27.07 LIG 0.16  HD
ATOM     44  C   ASP C   2      25.334  -1.484 -17.261  1.00 28.06 LIG 0.24  C 
ATOM     45 O    ASP C   2      24.146  -1.664 -17.520  1.00 27.76 LIG-0.27  OA
BRANCH 44 46
ATOM     46  CA  ASP C   2      26.175  -0.490 -18.066  1.00 28.68 LIG 0.19  C 
BRANCH 46 47
ATOM     47  CB  ASP C   2      27.687  -0.742 -17.904  1.00 28.90 LIG 0.15  C 
BRANCH 47 48
ATOM     48  CG  ASP C   2      28.310   0.008 -16.733  1.00 30.38 LIG 0.17  C 
ATOM     49 OD2  ASP C   2      29.245   0.810 -16.939  1.00 31.55 LIG-0.65  OA
ATOM     50 OD1  ASP C   2      27.833  -0.195 -15.587  1.00 32.13 LIG-0.65  OA
ENDBRANCH 47 48
ENDBRANCH 46 47
BRANCH 46 51
ATOM     51  N   ASP C   2      25.861   0.916 -17.774  1.00 28.83 LIG-0.34  N 
ATOM     52  C   PHE C   1      24.711   1.451 -18.180  1.00 29.29 LIG 0.24  C 
ATOM     53 O    PHE C   1      23.793   0.782 -18.659  1.00 29.28 LIG-0.27  OA
ATOM     54 H    ASP C   2      26.467   1.339 -17.334  1.00 28.83 LIG 0.16  HD
BRANCH 52 55
ATOM     55  CA  PHE C   1      24.569   2.961 -18.061  1.00 29.71 LIG 0.18  C 
BRANCH 55 56
ATOM     56  N   PHE C   1      25.550   3.425 -17.082  1.00 30.30 LIG-0.35  N 
ATOM     57 H    PHE C   1      26.349   3.146 -17.231  1.00 30.30 LIG 0.16  HD
ATOM     58  C   ACE C   0      25.224   4.216 -16.047  1.00 30.61 LIG 0.21  C 
ATOM     59  CH3 ACE C   0      26.396   4.796 -15.303  1.00 31.12 LIG 0.12  C 
ATOM     60 O    ACE C   0      24.091   4.227 -15.556  1.00 30.74 LIG-0.27  OA
ENDBRANCH 55 56
BRANCH 55 61
ATOM     61  CB  PHE C   1      24.812   3.647 -19.411  1.00 29.76 LIG 0.07  C 
BRANCH 61 62
ATOM     62  CG  PHE C   1      25.807   4.794 -19.369  1.00 30.32 LIG-0.06  A 
ATOM     63  CD1 PHE C   1      25.517   5.948 -18.644  1.00 31.60 LIG 0.01  A 
ATOM     64  CE1 PHE C   1      26.414   7.021 -18.611  1.00 31.29 LIG 0.00  A 
ATOM     65  CZ  PHE C   1      27.612   6.939 -19.305  1.00 31.54 LIG 0.00  A 
ATOM     66  CE2 PHE C   1      27.912   5.794 -20.035  1.00 29.54 LIG 0.00  A 
ATOM     67  CD2 PHE C   1      27.013   4.736 -20.065  1.00 30.51 LIG 0.01  A 
ENDBRANCH 61 62
ENDBRANCH 55 61
ENDBRANCH 52 55
ENDBRANCH 46 51
ENDBRANCH 44 46
ENDBRANCH 41 42
BRANCH 41 68
ATOM     68  CB  GLU C   3      25.901  -4.568 -15.614  1.00 26.96 LIG 0.04  C 
BRANCH 68 69
ATOM     69  CG  GLU C   3      26.416  -5.265 -14.330  1.00 28.76 LIG 0.12  C 
BRANCH 69 70
ATOM     70  CD  GLU C   3      25.673  -6.528 -13.972  1.00 29.94 LIG 0.17  C 
ATOM     71 OE1  GLU C   3      26.270  -7.392 -13.301  1.00 33.38 LIG-0.65  OA
ATOM     72 OE2  GLU C   3      24.477  -6.641 -14.337  1.00 31.06 LIG-0.65  OA
ENDBRANCH 69 70
ENDBRANCH 68 69
ENDBRANCH 41 68
ENDBRANCH 1 41
TORSDOF 32
ENDMDL
MODEL 12
USER: ADFR SOLUTION from run 79
USER: SCORE 22.859962 LL:  -5.349 LR: -19.709 RR:   0.000 FEB: -10.163
USER: RMSD 12.720912
USER: SEED 78
USER: STATUS no improvement in best in 5 clusters for 5 generations
USER: GENES 34
USER: genes 0 Translation |==|  0.42740 0.52230 0.44833
USER: genes 1 Rotation |==|  0.94551 0.53140 0.37305 0.68553
USER: genes 2 Torsion [C]-N--CA-[CB] |==|  0.77027
USER: genes 3 Torsion [N]-CA--C-[N] |==|  0.16898
USER: genes 4 Torsion [C]-N--CA-[CB] |==|  0.49623
USER: genes 5 Torsion [N]-CA--CB-[CG] |==|  0.69428
USER: genes 6 Torsion [CA]-CB--CG-[CD] |==|  0.83449
USER: genes 7 Torsion [CB]-CG--CD-[OE2] |==|  0.43723
USER: genes 8 Torsion [N]-CA--C-[N] |==|  0.28043
USER: genes 9 Torsion [C]-N--CA-[C] |==|  0.80256
USER: genes 10 Torsion [N]-CA--C-[N] |==|  0.89293
USER: genes 11 Torsion [C]-N--CA-[CB] |==|  0.80696
USER: genes 12 Torsion [N]-CA--C-[OXT] |==|  0.74902
USER: genes 13 Torsion [N]-CA--CB-[SG] |==|  0.93819
USER: genes 14 Torsion [CA]-CB--SG-[HG] |==|  0.93024
USER: genes 15 Torsion [N]-CA--CB-[CG] |==|  0.84484
USER: genes 16 Torsion [CA]-CB--CG-[CD] |==|  0.51318
USER: genes 17 Torsion [CB]-CG--CD-[OE1] |==|  0.49954
USER: genes 18 Torsion [N]-CA--CB-[CG] |==|  0.76695
USER: genes 19 Torsion [CA]-CB--CG-[SD] |==|  0.37209
USER: genes 20 Torsion [CB]-CG--SD-[CE] |==|  0.94631
USER: genes 21 Torsion [N]-C--CA-[N] |==|  0.82251
USER: genes 22 Torsion [C]-CA--N-[C] |==|  0.21572
USER: genes 23 Torsion [N]-C--CA-[N] |==|  0.90208
USER: genes 24 Torsion [C]-CA--CB-[CG] |==|  0.35202
USER: genes 25 Torsion [CA]-CB--CG-[OD1] |==|  0.41578
USER: genes 26 Torsion [C]-CA--N-[C] |==|  0.82958
USER: genes 27 Torsion [N]-C--CA-[N] |==|  0.87911
USER: genes 28 Torsion [C]-CA--N-[C] |==|  0.80771
USER: genes 29 Torsion [C]-CA--CB-[CG] |==|  0.02603
USER: genes 30 Torsion [CA]-CB--CG-[CD1] |==|  0.73498
USER: genes 31 Torsion [C]-CA--CB-[CG] |==|  0.24513
USER: genes 32 Torsion [CA]-CB--CG-[CD] |==|  0.21717
USER: genes 33 Torsion [CB]-CG--CD-[OE1] |==|  0.77779
ROOT
ATOM      1  C   GLU C   3      26.855  -2.835  -9.852  1.00 25.67 LIG 0.24  C 
ATOM      2 O    GLU C   3      26.058  -2.942  -8.908  1.00 24.73 LIG-0.27  OA
ATOM      3  N   MET C   4      28.112  -3.284  -9.824  1.00 25.06 LIG-0.35  N 
ATOM      4 H    MET C   4      28.661  -3.187 -10.478  1.00 25.06 LIG 0.16  HD
ENDROOT
BRANCH 3 5
ATOM      5  CA  MET C   4      28.686  -3.988  -8.674  1.00 24.76 LIG 0.18  C 
BRANCH 5 6
ATOM      6  C   MET C   4      27.642  -4.908  -8.064  1.00 24.60 LIG 0.24  C 
ATOM      7 O    MET C   4      27.305  -4.799  -6.881  1.00 25.19 LIG-0.27  OA
ATOM      8  N   GLU C   5      27.181  -5.853  -8.869  1.00 23.81 LIG-0.35  N 
ATOM      9 H    GLU C   5      27.493  -6.003  -9.656  1.00 23.81 LIG 0.16  HD
BRANCH 8 10
ATOM     10  CA  GLU C   5      26.102  -6.723  -8.490  1.00 23.16 LIG 0.18  C 
BRANCH 10 11
ATOM     11  CB  GLU C   5      25.791  -7.671  -9.646  1.00 23.03 LIG 0.04  C 
BRANCH 11 12
ATOM     12  CG  GLU C   5      24.448  -7.364 -10.308  1.00 23.31 LIG 0.12  C 
BRANCH 12 13
ATOM     13  CD  GLU C   5      23.251  -7.458  -9.361  1.00 24.36 LIG 0.17  C 
ATOM     14 OE2  GLU C   5      22.201  -6.829  -9.663  1.00 22.25 LIG-0.65  OA
ATOM     15 OE1  GLU C   5      23.339  -8.137  -8.319  1.00 21.71 LIG-0.65  OA
ENDBRANCH 12 13
ENDBRANCH 11 12
ENDBRANCH 10 11
BRANCH 10 16
ATOM     16  C   GLU C   5      26.511  -7.510  -7.270  1.00 22.53 LIG 0.24  C 
ATOM     17  N   GLU C   6      26.037  -7.085  -6.101  1.00 22.45 LIG-0.35  N 
ATOM     18 H    GLU C   6      25.612  -6.346  -5.994  1.00 22.45 LIG 0.16  HD
ATOM     19 O    GLU C   5      27.259  -8.471  -7.386  1.00 22.53 LIG-0.27  OA
BRANCH 17 20
ATOM     20  CA  GLU C   6      26.211  -7.877  -4.867  1.00 22.27 LIG 0.18  C 
BRANCH 20 21
ATOM     21  C   GLU C   6      25.334  -9.117  -4.911  1.00 21.97 LIG 0.24  C 
ATOM     22 O    GLU C   6      25.751 -10.190  -4.474  1.00 22.60 LIG-0.27  OA
ATOM     23  N   CYS C   7      24.119  -8.997  -5.442  1.00 20.65 LIG-0.34  N 
ATOM     24 H    CYS C   7      23.808  -8.283  -5.805  1.00 20.65 LIG 0.16  HD
BRANCH 23 25
ATOM     25  CA  CYS C   7      23.211 -10.143  -5.428  1.00 20.43 LIG 0.19  C 
BRANCH 25 26
ATOM     26  C   CYS C   7      22.974 -10.641  -4.016  1.00 19.69 LIG 0.20  C 
ATOM     27 O    CYS C   7      22.073 -10.204  -3.305  1.00 19.84 LIG-0.65  OA
ATOM     28 OXT  CYS C   7      23.706 -11.506  -3.543  1.00 20.10 LIG-0.65  OA
ENDBRANCH 25 26
BRANCH 25 29
ATOM     29  CB  CYS C   7      23.706 -11.248  -6.386  1.00 20.27 LIG 0.11  C 
BRANCH 29 30
ATOM     30 SG   CYS C   7      24.832 -10.617  -7.697  1.00 22.98 LIG-0.18  SA
ATOM     31 HG   CYS C   7      24.611  -9.454  -7.890  1.00 22.98 LIG 0.10  HD
ENDBRANCH 29 30
ENDBRANCH 25 29
ENDBRANCH 23 25
ENDBRANCH 20 21
BRANCH 20 32
ATOM     32  CB  GLU C   6      25.859  -7.033  -3.643  1.00 22.58 LIG 0.04  C 
BRANCH 32 33
ATOM     33  CG  GLU C   6      26.657  -5.754  -3.574  1.00 24.64 LIG 0.12  C 
BRANCH 33 34
ATOM     34  CD  GLU C   6      26.405  -4.954  -2.304  1.00 27.63 LIG 0.17  C 
ATOM     35 OE1  GLU C   6      27.011  -3.869  -2.122  1.00 27.17 LIG-0.65  OA
ATOM     36 OE2  GLU C   6      25.580  -5.424  -1.488  1.00 31.71 LIG-0.65  OA
ENDBRANCH 33 34
ENDBRANCH 32 33
ENDBRANCH 20 32
ENDBRANCH 17 20
ENDBRANCH 10 16
ENDBRANCH 8 10
ENDBRANCH 5 6
BRANCH 5 37
ATOM     37  CB  MET C   4      29.171  -2.993  -7.614  1.00 24.86 LIG 0.04  C 
BRANCH 37 38
ATOM     38  CG  MET C   4      30.584  -2.414  -7.839  1.00 24.76 LIG 0.08  C 
BRANCH 38 39
ATOM     39 SD   MET C   4      30.736  -0.624  -7.623  1.00 26.68 LIG-0.17  SA
ATOM     40  CE  MET C   4      29.004  -0.150  -7.791  1.00 24.50 LIG 0.09  C 
ENDBRANCH 38 39
ENDBRANCH 37 38
ENDBRANCH 5 37
ENDBRANCH 3 5
BRANCH 1 41
ATOM     41  CA  GLU C   3      26.405  -2.195 -11.164  1.00 26.55 LIG 0.18  C 
BRANCH 41 42
ATOM     42  N   GLU C   3      27.192  -0.991 -11.418  1.00 27.07 LIG-0.35  N 
ATOM     43 H    GLU C   3      26.784  -0.255 -11.241  1.00 27.07 LIG 0.16  HD
ATOM     44  C   ASP C   2      28.436  -1.060 -11.883  1.00 28.06 LIG 0.24  C 
ATOM     45 O    ASP C   2      29.004  -2.129 -12.096  1.00 27.76 LIG-0.27  OA
BRANCH 44 46
ATOM     46  CA  ASP C   2      29.160   0.273 -12.094  1.00 28.68 LIG 0.19  C 
BRANCH 46 47
ATOM     47  CB  ASP C   2      29.942   0.714 -10.841  1.00 28.90 LIG 0.15  C 
BRANCH 47 48
ATOM     48  CG  ASP C   2      31.408   1.029 -11.114  1.00 30.38 LIG 0.17  C 
ATOM     49 OD2  ASP C   2      32.003   0.443 -12.042  1.00 31.55 LIG-0.65  OA
ATOM     50 OD1  ASP C   2      31.964   1.898 -10.395  1.00 32.13 LIG-0.65  OA
ENDBRANCH 47 48
ENDBRANCH 46 47
BRANCH 46 51
ATOM     51  N   ASP C   2      28.276   1.355 -12.548  1.00 28.83 LIG-0.34  N 
ATOM     52  C   PHE C   1      27.626   1.257 -13.706  1.00 29.29 LIG 0.24  C 
ATOM     53 O    PHE C   1      27.589   0.218 -14.367  1.00 29.28 LIG-0.27  OA
ATOM     54 H    ASP C   2      28.223   2.028 -12.015  1.00 28.83 LIG 0.16  HD
BRANCH 52 55
ATOM     55  CA  PHE C   1      26.936   2.512 -14.222  1.00 29.71 LIG 0.18  C 
BRANCH 55 56
ATOM     56  N   PHE C   1      26.254   3.142 -13.092  1.00 30.30 LIG-0.35  N 
ATOM     57 H    PHE C   1      26.605   3.887 -12.845  1.00 30.30 LIG 0.16  HD
ATOM     58  C   ACE C   0      25.179   2.599 -12.499  1.00 30.61 LIG 0.21  C 
ATOM     59  CH3 ACE C   0      24.466   3.506 -11.534  1.00 31.12 LIG 0.12  C 
ATOM     60 O    ACE C   0      24.967   1.382 -12.503  1.00 30.74 LIG-0.27  OA
ENDBRANCH 55 56
BRANCH 55 61
ATOM     61  CB  PHE C   1      27.948   3.489 -14.833  1.00 29.76 LIG 0.07  C 
BRANCH 61 62
ATOM     62  CG  PHE C   1      29.349   2.928 -15.001  1.00 30.32 LIG-0.06  A 
ATOM     63  CD1 PHE C   1      30.318   3.155 -14.026  1.00 31.60 LIG 0.01  A 
ATOM     64  CE1 PHE C   1      31.618   2.662 -14.175  1.00 31.29 LIG 0.00  A 
ATOM     65  CZ  PHE C   1      31.952   1.930 -15.305  1.00 31.54 LIG 0.00  A 
ATOM     66  CE2 PHE C   1      30.995   1.698 -16.287  1.00 29.54 LIG 0.00  A 
ATOM     67  CD2 PHE C   1      29.707   2.196 -16.132  1.00 30.51 LIG 0.01  A 
ENDBRANCH 61 62
ENDBRANCH 55 61
ENDBRANCH 52 55
ENDBRANCH 46 51
ENDBRANCH 44 46
ENDBRANCH 41 42
BRANCH 41 68
ATOM     68  CB  GLU C   3      26.453  -3.191 -12.355  1.00 26.96 LIG 0.04  C 
BRANCH 68 69
ATOM     69  CG  GLU C   3      25.205  -4.065 -12.636  1.00 28.76 LIG 0.12  C 
BRANCH 69 70
ATOM     70  CD  GLU C   3      24.090  -3.340 -13.348  1.00 29.94 LIG 0.17  C 
ATOM     71 OE1  GLU C   3      23.341  -2.606 -12.674  1.00 33.38 LIG-0.65  OA
ATOM     72 OE2  GLU C   3      23.983  -3.481 -14.591  1.00 31.06 LIG-0.65  OA
ENDBRANCH 69 70
ENDBRANCH 68 69
ENDBRANCH 41 68
ENDBRANCH 1 41
TORSDOF 32
ENDMDL
MODEL 13
USER: ADFR SOLUTION from run 94
USER: SCORE 22.177694 LL:  -4.603 LR: -19.695 RR:   0.000 FEB: -10.150
USER: RMSD 13.327983
USER: SEED 93
USER: STATUS searching
USER: GENES 34
USER: genes 0 Translation |==|  0.43210 0.49752 0.46805
USER: genes 1 Rotation |==|  0.99399 0.57072 0.47402 0.51725
USER: genes 2 Torsion [C]-N--CA-[CB] |==|  0.50649
USER: genes 3 Torsion [N]-CA--C-[N] |==|  0.53762
USER: genes 4 Torsion [C]-N--CA-[CB] |==|  0.86967
USER: genes 5 Torsion [N]-CA--CB-[CG] |==|  0.51706
USER: genes 6 Torsion [CA]-CB--CG-[CD] |==|  0.59917
USER: genes 7 Torsion [CB]-CG--CD-[OE2] |==|  0.76328
USER: genes 8 Torsion [N]-CA--C-[N] |==|  0.36841
USER: genes 9 Torsion [C]-N--CA-[C] |==|  0.64932
USER: genes 10 Torsion [N]-CA--C-[N] |==|  0.44156
USER: genes 11 Torsion [C]-N--CA-[CB] |==|  0.25346
USER: genes 12 Torsion [N]-CA--C-[OXT] |==|  0.25903
USER: genes 13 Torsion [N]-CA--CB-[SG] |==|  0.81376
USER: genes 14 Torsion [CA]-CB--SG-[HG] |==|  0.19953
USER: genes 15 Torsion [N]-CA--CB-[CG] |==|  0.61481
USER: genes 16 Torsion [CA]-CB--CG-[CD] |==|  0.03523
USER: genes 17 Torsion [CB]-CG--CD-[OE1] |==|  0.78647
USER: genes 18 Torsion [N]-CA--CB-[CG] |==|  0.20253
USER: genes 19 Torsion [CA]-CB--CG-[SD] |==|  0.80684
USER: genes 20 Torsion [CB]-CG--SD-[CE] |==|  0.29532
USER: genes 21 Torsion [N]-C--CA-[N] |==|  0.04547
USER: genes 22 Torsion [C]-CA--N-[C] |==|  0.73734
USER: genes 23 Torsion [N]-C--CA-[N] |==|  0.16136
USER: genes 24 Torsion [C]-CA--CB-[CG] |==|  0.52305
USER: genes 25 Torsion [CA]-CB--CG-[OD1] |==|  0.85472
USER: genes 26 Torsion [C]-CA--N-[C] |==|  0.08633
USER: genes 27 Torsion [N]-C--CA-[N] |==|  0.27802
USER: genes 28 Torsion [C]-CA--N-[C] |==|  0.68249
USER: genes 29 Torsion [C]-CA--CB-[CG] |==|  0.74041
USER: genes 30 Torsion [CA]-CB--CG-[CD1] |==|  0.14089
USER: genes 31 Torsion [C]-CA--CB-[CG] |==|  0.86786
USER: genes 32 Torsion [CA]-CB--CG-[CD] |==|  0.53968
USER: genes 33 Torsion [CB]-CG--CD-[OE1] |==|  0.35263
ROOT
ATOM      1  C   GLU C   3      26.943  -3.523  -9.349  1.00 25.67 LIG 0.24  C 
ATOM      2 O    GLU C   3      25.982  -4.239  -9.033  1.00 24.73 LIG-0.27  OA
ATOM      3  N   MET C   4      28.222  -3.886  -9.220  1.00 25.06 LIG-0.35  N 
ATOM      4 H    MET C   4      28.880  -3.372  -9.426  1.00 25.06 LIG 0.16  HD
ENDROOT
BRANCH 3 5
ATOM      5  CA  MET C   4      28.634  -5.198  -8.716  1.00 24.76 LIG 0.18  C 
BRANCH 5 6
ATOM      6  C   MET C   4      28.035  -5.429  -7.338  1.00 24.60 LIG 0.24  C 
ATOM      7 O    MET C   4      27.169  -4.676  -6.882  1.00 25.19 LIG-0.27  OA
ATOM      8  N   GLU C   5      28.551  -6.442  -6.660  1.00 23.81 LIG-0.35  N 
ATOM      9 H    GLU C   5      29.228  -6.899  -6.926  1.00 23.81 LIG 0.16  HD
BRANCH 8 10
ATOM     10  CA  GLU C   5      28.012  -6.873  -5.399  1.00 23.16 LIG 0.18  C 
BRANCH 10 11
ATOM     11  CB  GLU C   5      27.782  -5.655  -4.508  1.00 23.03 LIG 0.04  C 
BRANCH 11 12
ATOM     12  CG  GLU C   5      27.351  -6.040  -3.094  1.00 23.31 LIG 0.12  C 
BRANCH 12 13
ATOM     13  CD  GLU C   5      26.341  -5.077  -2.466  1.00 24.36 LIG 0.17  C 
ATOM     14 OE2  GLU C   5      26.781  -4.050  -1.882  1.00 22.25 LIG-0.65  OA
ATOM     15 OE1  GLU C   5      25.123  -5.329  -2.534  1.00 21.71 LIG-0.65  OA
ENDBRANCH 12 13
ENDBRANCH 11 12
ENDBRANCH 10 11
BRANCH 10 16
ATOM     16  C   GLU C   5      26.708  -7.591  -5.643  1.00 22.53 LIG 0.24  C 
ATOM     17  N   GLU C   6      26.544  -8.756  -5.022  1.00 22.45 LIG-0.35  N 
ATOM     18 H    GLU C   6      27.166  -9.163  -4.589  1.00 22.45 LIG 0.16  HD
ATOM     19 O    GLU C   5      25.875  -7.104  -6.397  1.00 22.53 LIG-0.27  OA
BRANCH 17 20
ATOM     20  CA  GLU C   6      25.245  -9.457  -5.031  1.00 22.27 LIG 0.18  C 
BRANCH 20 21
ATOM     21  C   GLU C   6      24.809  -9.773  -3.610  1.00 21.97 LIG 0.24  C 
ATOM     22 O    GLU C   6      25.637  -9.820  -2.701  1.00 22.60 LIG-0.27  OA
ATOM     23  N   CYS C   7      23.515 -10.002  -3.396  1.00 20.65 LIG-0.34  N 
ATOM     24 H    CYS C   7      22.911 -10.031  -4.008  1.00 20.65 LIG 0.16  HD
BRANCH 23 25
ATOM     25  CA  CYS C   7      23.039 -10.227  -2.032  1.00 20.43 LIG 0.19  C 
BRANCH 25 26
ATOM     26  C   CYS C   7      21.960 -11.291  -1.995  1.00 19.69 LIG 0.20  C 
ATOM     27 O    CYS C   7      20.771 -11.032  -2.158  1.00 19.84 LIG-0.65  OA
ATOM     28 OXT  CYS C   7      22.265 -12.462  -1.784  1.00 20.10 LIG-0.65  OA
ENDBRANCH 25 26
BRANCH 25 29
ATOM     29  CB  CYS C   7      22.606  -8.899  -1.375  1.00 20.27 LIG 0.11  C 
BRANCH 29 30
ATOM     30 SG   CYS C   7      24.009  -7.747  -1.080  1.00 22.98 LIG-0.18  SA
ATOM     31 HG   CYS C   7      24.387  -7.299  -2.127  1.00 22.98 LIG 0.10  HD
ENDBRANCH 29 30
ENDBRANCH 25 29
ENDBRANCH 23 25
ENDBRANCH 20 21
BRANCH 20 32
ATOM     32  CB  GLU C   6      25.344 -10.747  -5.844  1.00 22.58 LIG 0.04  C 
BRANCH 32 33
ATOM     33  CG  GLU C   6      24.132 -10.978  -6.711  1.00 24.64 LIG 0.12  C 
BRANCH 33 34
ATOM     34  CD  GLU C   6      23.231  -9.756  -6.827  1.00 27.63 LIG 0.17  C 
ATOM     35 OE1  GLU C   6      22.469  -9.453  -5.875  1.00 27.17 LIG-0.65  OA
ATOM     36 OE2  GLU C   6      23.303  -9.092  -7.886  1.00 31.71 LIG-0.65  OA
ENDBRANCH 33 34
ENDBRANCH 32 33
ENDBRANCH 20 32
ENDBRANCH 17 20
ENDBRANCH 10 16
ENDBRANCH 8 10
ENDBRANCH 5 6
BRANCH 5 37
ATOM     37  CB  MET C   4      30.161  -5.293  -8.632  1.00 24.86 LIG 0.04  C 
BRANCH 37 38
ATOM     38  CG  MET C   4      30.818  -4.487  -7.492  1.00 24.76 LIG 0.08  C 
BRANCH 38 39
ATOM     39 SD   MET C   4      30.762  -2.688  -7.679  1.00 26.68 LIG-0.17  SA
ATOM     40  CE  MET C   4      29.507  -2.294  -6.446  1.00 24.50 LIG 0.09  C 
ENDBRANCH 38 39
ENDBRANCH 37 38
ENDBRANCH 5 37
ENDBRANCH 3 5
BRANCH 1 41
ATOM     41  CA  GLU C   3      26.701  -2.146  -9.966  1.00 26.55 LIG 0.18  C 
BRANCH 41 42
ATOM     42  N   GLU C   3      27.915  -1.688 -10.634  1.00 27.07 LIG-0.35  N 
ATOM     43 H    GLU C   3      28.004  -1.967 -11.443  1.00 27.07 LIG 0.16  HD
ATOM     44  C   ASP C   2      28.794  -0.903 -10.016  1.00 28.06 LIG 0.24  C 
ATOM     45 O    ASP C   2      28.624  -0.495  -8.870  1.00 27.76 LIG-0.27  OA
BRANCH 44 46
ATOM     46  CA  ASP C   2      30.021  -0.481 -10.830  1.00 28.68 LIG 0.19  C 
BRANCH 46 47
ATOM     47  CB  ASP C   2      31.018   0.345  -9.993  1.00 28.90 LIG 0.15  C 
BRANCH 47 48
ATOM     48  CG  ASP C   2      32.150   0.953 -10.813  1.00 30.38 LIG 0.17  C 
ATOM     49 OD2  ASP C   2      32.403   2.171 -10.709  1.00 31.55 LIG-0.65  OA
ATOM     50 OD1  ASP C   2      32.811   0.184 -11.557  1.00 32.13 LIG-0.65  OA
ENDBRANCH 47 48
ENDBRANCH 46 47
BRANCH 46 51
ATOM     51  N   ASP C   2      29.686   0.234 -12.070  1.00 28.83 LIG-0.34  N 
ATOM     52  C   PHE C   1      28.592   0.989 -12.141  1.00 29.29 LIG 0.24  C 
ATOM     53 O    PHE C   1      27.905   1.268 -11.156  1.00 29.28 LIG-0.27  OA
ATOM     54 H    ASP C   2      30.242   0.120 -12.716  1.00 28.83 LIG 0.16  HD
BRANCH 52 55
ATOM     55  CA  PHE C   1      28.183   1.488 -13.519  1.00 29.71 LIG 0.18  C 
BRANCH 55 56
ATOM     56  N   PHE C   1      27.107   0.625 -14.005  1.00 30.30 LIG-0.35  N 
ATOM     57 H    PHE C   1      26.382   0.681 -13.546  1.00 30.30 LIG 0.16  HD
ATOM     58  C   ACE C   0      27.247  -0.179 -15.070  1.00 30.61 LIG 0.21  C 
ATOM     59  CH3 ACE C   0      25.967  -0.790 -15.571  1.00 31.12 LIG 0.12  C 
ATOM     60 O    ACE C   0      28.344  -0.623 -15.423  1.00 30.74 LIG-0.27  OA
ENDBRANCH 55 56
BRANCH 55 61
ATOM     61  CB  PHE C   1      27.700   2.943 -13.460  1.00 29.76 LIG 0.07  C 
BRANCH 61 62
ATOM     62  CG  PHE C   1      26.199   3.107 -13.293  1.00 30.32 LIG-0.06  A 
ATOM     63  CD1 PHE C   1      25.527   2.421 -12.284  1.00 31.60 LIG 0.01  A 
ATOM     64  CE1 PHE C   1      24.142   2.546 -12.129  1.00 31.29 LIG 0.00  A 
ATOM     65  CZ  PHE C   1      23.424   3.368 -12.987  1.00 31.54 LIG 0.00  A 
ATOM     66  CE2 PHE C   1      24.083   4.055 -14.000  1.00 29.54 LIG 0.00  A 
ATOM     67  CD2 PHE C   1      25.458   3.921 -14.148  1.00 30.51 LIG 0.01  A 
ENDBRANCH 61 62
ENDBRANCH 55 61
ENDBRANCH 52 55
ENDBRANCH 46 51
ENDBRANCH 44 46
ENDBRANCH 41 42
BRANCH 41 68
ATOM     68  CB  GLU C   3      25.468  -2.130 -10.910  1.00 26.96 LIG 0.04  C 
BRANCH 68 69
ATOM     69  CG  GLU C   3      25.331  -3.257 -11.963  1.00 28.76 LIG 0.12  C 
BRANCH 69 70
ATOM     70  CD  GLU C   3      24.310  -2.978 -13.038  1.00 29.94 LIG 0.17  C 
ATOM     71 OE1  GLU C   3      24.668  -3.069 -14.228  1.00 33.38 LIG-0.65  OA
ATOM     72 OE2  GLU C   3      23.136  -2.698 -12.690  1.00 31.06 LIG-0.65  OA
ENDBRANCH 69 70
ENDBRANCH 68 69
ENDBRANCH 41 68
ENDBRANCH 1 41
TORSDOF 32
ENDMDL
MODEL 14
USER: ADFR SOLUTION from run 76
USER: SCORE 21.817239 LL:  -5.048 LR: -19.670 RR:   0.000 FEB: -10.125
USER: RMSD 12.796318
USER: SEED 75
USER: STATUS searching
USER: GENES 34
USER: genes 0 Translation |==|  0.42448 0.52836 0.45920
USER: genes 1 Rotation |==|  0.90354 0.67526 0.40171 0.71628
USER: genes 2 Torsion [C]-N--CA-[CB] |==|  0.79094
USER: genes 3 Torsion [N]-CA--C-[N] |==|  0.75784
USER: genes 4 Torsion [C]-N--CA-[CB] |==|  0.48677
USER: genes 5 Torsion [N]-CA--CB-[CG] |==|  0.65820
USER: genes 6 Torsion [CA]-CB--CG-[CD] |==|  0.48359
USER: genes 7 Torsion [CB]-CG--CD-[OE2] |==|  0.64741
USER: genes 8 Torsion [N]-CA--C-[N] |==|  0.86534
USER: genes 9 Torsion [C]-N--CA-[C] |==|  0.17180
USER: genes 10 Torsion [N]-CA--C-[N] |==|  0.10739
USER: genes 11 Torsion [C]-N--CA-[CB] |==|  0.41950
USER: genes 12 Torsion [N]-CA--C-[OXT] |==|  0.51952
USER: genes 13 Torsion [N]-CA--CB-[SG] |==|  0.00244
USER: genes 14 Torsion [CA]-CB--SG-[HG] |==|  0.02968
USER: genes 15 Torsion [N]-CA--CB-[CG] |==|  0.86664
USER: genes 16 Torsion [CA]-CB--CG-[CD] |==|  0.48409
USER: genes 17 Torsion [CB]-CG--CD-[OE1] |==|  0.92718
USER: genes 18 Torsion [N]-CA--CB-[CG] |==|  0.71174
USER: genes 19 Torsion [CA]-CB--CG-[SD] |==|  0.28728
USER: genes 20 Torsion [CB]-CG--SD-[CE] |==|  0.29587
USER: genes 21 Torsion [N]-C--CA-[N] |==|  0.99087
USER: genes 22 Torsion [C]-CA--N-[C] |==|  0.66778
USER: genes 23 Torsion [N]-C--CA-[N] |==|  0.49741
USER: genes 24 Torsion [C]-CA--CB-[CG] |==|  0.80881
USER: genes 25 Torsion [CA]-CB--CG-[OD1] |==|  0.56661
USER: genes 26 Torsion [C]-CA--N-[C] |==|  0.64735
USER: genes 27 Torsion [N]-C--CA-[N] |==|  0.01881
USER: genes 28 Torsion [C]-CA--N-[C] |==|  0.73785
USER: genes 29 Torsion [C]-CA--CB-[CG] |==|  0.44188
USER: genes 30 Torsion [CA]-CB--CG-[CD1] |==|  0.10000
USER: genes 31 Torsion [C]-CA--CB-[CG] |==|  0.62327
USER: genes 32 Torsion [CA]-CB--CG-[CD] |==|  0.77152
USER: genes 33 Torsion [CB]-CG--CD-[OE1] |==|  0.00217
ROOT
ATOM      1  C   GLU C   3      26.800  -2.667  -9.575  1.00 25.67 LIG 0.24  C 
ATOM      2 O    GLU C   3      26.341  -3.148  -8.529  1.00 24.73 LIG-0.27  OA
ATOM      3  N   MET C   4      28.079  -2.321  -9.741  1.00 25.06 LIG-0.35  N 
ATOM      4 H    MET C   4      28.382  -1.971 -10.465  1.00 25.06 LIG 0.16  HD
ENDROOT
BRANCH 3 5
ATOM      5  CA  MET C   4      29.099  -2.504  -8.705  1.00 24.76 LIG 0.18  C 
BRANCH 5 6
ATOM      6  C   MET C   4      28.971  -3.892  -8.099  1.00 24.60 LIG 0.24  C 
ATOM      7 O    MET C   4      29.585  -4.855  -8.570  1.00 25.19 LIG-0.27  OA
ATOM      8  N   GLU C   5      28.121  -3.993  -7.089  1.00 23.81 LIG-0.35  N 
ATOM      9 H    GLU C   5      27.610  -3.352  -6.831  1.00 23.81 LIG 0.16  HD
BRANCH 8 10
ATOM     10  CA  GLU C   5      27.979  -5.202  -6.325  1.00 23.16 LIG 0.18  C 
BRANCH 10 11
ATOM     11  CB  GLU C   5      27.014  -4.954  -5.169  1.00 23.03 LIG 0.04  C 
BRANCH 11 12
ATOM     12  CG  GLU C   5      27.640  -5.262  -3.809  1.00 23.31 LIG 0.12  C 
BRANCH 12 13
ATOM     13  CD  GLU C   5      26.756  -4.892  -2.617  1.00 24.36 LIG 0.17  C 
ATOM     14 OE2  GLU C   5      27.246  -4.156  -1.718  1.00 22.25 LIG-0.65  OA
ATOM     15 OE1  GLU C   5      25.591  -5.329  -2.554  1.00 21.71 LIG-0.65  OA
ENDBRANCH 12 13
ENDBRANCH 11 12
ENDBRANCH 10 11
BRANCH 10 16
ATOM     16  C   GLU C   5      27.444  -6.289  -7.224  1.00 22.53 LIG 0.24  C 
ATOM     17  N   GLU C   6      26.386  -5.978  -7.969  1.00 22.45 LIG-0.35  N 
ATOM     18 H    GLU C   6      25.938  -5.248  -7.889  1.00 22.45 LIG 0.16  HD
ATOM     19 O    GLU C   5      27.969  -7.394  -7.225  1.00 22.53 LIG-0.27  OA
BRANCH 17 20
ATOM     20  CA  GLU C   6      25.891  -6.889  -9.020  1.00 22.27 LIG 0.18  C 
BRANCH 20 21
ATOM     21  C   GLU C   6      25.449  -8.207  -8.407  1.00 21.97 LIG 0.24  C 
ATOM     22 O    GLU C   6      25.665  -9.269  -8.991  1.00 22.60 LIG-0.27  OA
ATOM     23  N   CYS C   7      24.820  -8.164  -7.234  1.00 20.65 LIG-0.34  N 
ATOM     24 H    CYS C   7      24.602  -7.444  -6.818  1.00 20.65 LIG 0.16  HD
BRANCH 23 25
ATOM     25  CA  CYS C   7      24.451  -9.412  -6.568  1.00 20.43 LIG 0.19  C 
BRANCH 25 26
ATOM     26  C   CYS C   7      23.157  -9.972  -7.126  1.00 19.69 LIG 0.20  C 
ATOM     27 O    CYS C   7      22.591  -9.482  -8.098  1.00 19.84 LIG-0.65  OA
ATOM     28 OXT  CYS C   7      22.635 -10.947  -6.592  1.00 20.10 LIG-0.65  OA
ENDBRANCH 25 26
BRANCH 25 29
ATOM     29  CB  CYS C   7      24.423  -9.229  -5.036  1.00 20.27 LIG 0.11  C 
BRANCH 29 30
ATOM     30 SG   CYS C   7      24.830  -7.516  -4.504  1.00 22.98 LIG-0.18  SA
ATOM     31 HG   CYS C   7      24.842  -6.792  -5.461  1.00 22.98 LIG 0.10  HD
ENDBRANCH 29 30
ENDBRANCH 25 29
ENDBRANCH 23 25
ENDBRANCH 20 21
BRANCH 20 32
ATOM     32  CB  GLU C   6      26.981  -7.139 -10.061  1.00 22.58 LIG 0.04  C 
BRANCH 32 33
ATOM     33  CG  GLU C   6      27.636  -5.863 -10.529  1.00 24.64 LIG 0.12  C 
BRANCH 33 34
ATOM     34  CD  GLU C   6      28.817  -6.098 -11.462  1.00 27.63 LIG 0.17  C 
ATOM     35 OE1  GLU C   6      29.460  -7.175 -11.391  1.00 27.17 LIG-0.65  OA
ATOM     36 OE2  GLU C   6      29.088  -5.189 -12.278  1.00 31.71 LIG-0.65  OA
ENDBRANCH 33 34
ENDBRANCH 32 33
ENDBRANCH 20 32
ENDBRANCH 17 20
ENDBRANCH 10 16
ENDBRANCH 8 10
ENDBRANCH 5 6
BRANCH 5 37
ATOM     37  CB  MET C   4      28.949  -1.450  -7.602  1.00 24.86 LIG 0.04  C 
BRANCH 37 38
ATOM     38  CG  MET C   4      29.975  -0.298  -7.636  1.00 24.76 LIG 0.08  C 
BRANCH 38 39
ATOM     39 SD   MET C   4      29.358   1.276  -8.281  1.00 26.68 LIG-0.17  SA
ATOM     40  CE  MET C   4      29.242   2.210  -6.743  1.00 24.50 LIG 0.09  C 
ENDBRANCH 38 39
ENDBRANCH 37 38
ENDBRANCH 5 37
ENDBRANCH 3 5
BRANCH 1 41
ATOM     41  CA  GLU C   3      25.895  -2.477 -10.791  1.00 26.55 LIG 0.18  C 
BRANCH 41 42
ATOM     42  N   GLU C   3      26.656  -1.864 -11.877  1.00 27.07 LIG-0.35  N 
ATOM     43 H    GLU C   3      27.331  -2.326 -12.144  1.00 27.07 LIG 0.16  HD
ATOM     44  C   ASP C   2      26.310  -0.687 -12.391  1.00 28.06 LIG 0.24  C 
ATOM     45 O    ASP C   2      25.321  -0.065 -12.009  1.00 27.76 LIG-0.27  OA
BRANCH 44 46
ATOM     46  CA  ASP C   2      27.180  -0.159 -13.535  1.00 28.68 LIG 0.19  C 
BRANCH 46 47
ATOM     47  CB  ASP C   2      28.670  -0.082 -13.143  1.00 28.90 LIG 0.15  C 
BRANCH 47 48
ATOM     48  CG  ASP C   2      28.974   0.988 -12.101  1.00 30.38 LIG 0.17  C 
ATOM     49 OD2  ASP C   2      28.075   1.362 -11.319  1.00 31.55 LIG-0.65  OA
ATOM     50 OD1  ASP C   2      30.146   1.442 -12.054  1.00 32.13 LIG-0.65  OA
ENDBRANCH 47 48
ENDBRANCH 46 47
BRANCH 46 51
ATOM     51  N   ASP C   2      26.728   1.133 -14.068  1.00 28.83 LIG-0.34  N 
ATOM     52  C   PHE C   1      26.509   1.288 -15.372  1.00 29.29 LIG 0.24  C 
ATOM     53 O    PHE C   1      26.505   0.345 -16.167  1.00 29.28 LIG-0.27  OA
ATOM     54 H    ASP C   2      26.624   1.752 -13.480  1.00 28.83 LIG 0.16  HD
BRANCH 52 55
ATOM     55  CA  PHE C   1      26.288   2.707 -15.875  1.00 29.71 LIG 0.18  C 
BRANCH 55 56
ATOM     56  N   PHE C   1      26.538   3.619 -14.759  1.00 30.30 LIG-0.35  N 
ATOM     57 H    PHE C   1      27.365   3.833 -14.664  1.00 30.30 LIG 0.16  HD
ATOM     58  C   ACE C   0      25.560   4.074 -13.961  1.00 30.61 LIG 0.21  C 
ATOM     59  CH3 ACE C   0      25.966   5.192 -13.041  1.00 31.12 LIG 0.12  C 
ATOM     60 O    ACE C   0      24.514   3.444 -13.773  1.00 30.74 LIG-0.27  OA
ENDBRANCH 55 56
BRANCH 55 61
ATOM     61  CB  PHE C   1      27.231   3.034 -17.039  1.00 29.76 LIG 0.07  C 
BRANCH 61 62
ATOM     62  CG  PHE C   1      26.778   4.187 -17.918  1.00 30.32 LIG-0.06  A 
ATOM     63  CD1 PHE C   1      26.128   5.284 -17.356  1.00 31.60 LIG 0.01  A 
ATOM     64  CE1 PHE C   1      25.687   6.345 -18.154  1.00 31.29 LIG 0.00  A 
ATOM     65  CZ  PHE C   1      25.901   6.311 -19.524  1.00 31.54 LIG 0.00  A 
ATOM     66  CE2 PHE C   1      26.546   5.221 -20.098  1.00 29.54 LIG 0.00  A 
ATOM     67  CD2 PHE C   1      26.976   4.171 -19.297  1.00 30.51 LIG 0.01  A 
ENDBRANCH 61 62
ENDBRANCH 55 61
ENDBRANCH 52 55
ENDBRANCH 46 51
ENDBRANCH 44 46
ENDBRANCH 41 42
BRANCH 41 68
ATOM     68  CB  GLU C   3      25.205  -3.798 -11.228  1.00 26.96 LIG 0.04  C 
BRANCH 68 69
ATOM     69  CG  GLU C   3      25.167  -4.145 -12.738  1.00 28.76 LIG 0.12  C 
BRANCH 69 70
ATOM     70  CD  GLU C   3      24.056  -3.466 -13.500  1.00 29.94 LIG 0.17  C 
ATOM     71 OE1  GLU C   3      23.298  -2.698 -12.876  1.00 33.38 LIG-0.65  OA
ATOM     72 OE2  GLU C   3      23.961  -3.679 -14.734  1.00 31.06 LIG-0.65  OA
ENDBRANCH 69 70
ENDBRANCH 68 69
ENDBRANCH 41 68
ENDBRANCH 1 41
TORSDOF 32
ENDMDL
MODEL 15
USER: ADFR SOLUTION from run 76
USER: SCORE 20.600529 LL:  -4.855 LR: -19.662 RR:   0.000 FEB: -10.117
USER: RMSD 12.364480
USER: SEED 75
USER: STATUS searching
USER: GENES 34
USER: genes 0 Translation |==|  0.43417 0.53053 0.45621
USER: genes 1 Rotation |==|  0.92008 0.65863 0.42557 0.70696
USER: genes 2 Torsion [C]-N--CA-[CB] |==|  0.78189
USER: genes 3 Torsion [N]-CA--C-[N] |==|  0.71787
USER: genes 4 Torsion [C]-N--CA-[CB] |==|  0.51898
USER: genes 5 Torsion [N]-CA--CB-[CG] |==|  0.66973
USER: genes 6 Torsion [CA]-CB--CG-[CD] |==|  0.48103
USER: genes 7 Torsion [CB]-CG--CD-[OE2] |==|  0.64703
USER: genes 8 Torsion [N]-CA--C-[N] |==|  0.87026
USER: genes 9 Torsion [C]-N--CA-[C] |==|  0.15992
USER: genes 10 Torsion [N]-CA--C-[N] |==|  0.10474
USER: genes 11 Torsion [C]-N--CA-[CB] |==|  0.44730
USER: genes 12 Torsion [N]-CA--C-[OXT] |==|  0.50231
USER: genes 13 Torsion [N]-CA--CB-[SG] |==|  0.94834
USER: genes 14 Torsion [CA]-CB--SG-[HG] |==|  0.14697
USER: genes 15 Torsion [N]-CA--CB-[CG] |==|  0.67781
USER: genes 16 Torsion [CA]-CB--CG-[CD] |==|  0.48124
USER: genes 17 Torsion [CB]-CG--CD-[OE1] |==|  0.83089
USER: genes 18 Torsion [N]-CA--CB-[CG] |==|  0.74530
USER: genes 19 Torsion [CA]-CB--CG-[SD] |==|  0.24968
USER: genes 20 Torsion [CB]-CG--SD-[CE] |==|  0.30794
USER: genes 21 Torsion [N]-C--CA-[N] |==|  0.82537
USER: genes 22 Torsion [C]-CA--N-[C] |==|  0.58082
USER: genes 23 Torsion [N]-C--CA-[N] |==|  0.20961
USER: genes 24 Torsion [C]-CA--CB-[CG] |==|  0.47684
USER: genes 25 Torsion [CA]-CB--CG-[OD1] |==|  0.92400
USER: genes 26 Torsion [C]-CA--N-[C] |==|  0.75935
USER: genes 27 Torsion [N]-C--CA-[N] |==|  0.63455
USER: genes 28 Torsion [C]-CA--N-[C] |==|  0.67188
USER: genes 29 Torsion [C]-CA--CB-[CG] |==|  0.19772
USER: genes 30 Torsion [CA]-CB--CG-[CD1] |==|  0.54113
USER: genes 31 Torsion [C]-CA--CB-[CG] |==|  0.59556
USER: genes 32 Torsion [CA]-CB--CG-[CD] |==|  0.76697
USER: genes 33 Torsion [CB]-CG--CD-[OE1] |==|  0.00157
ROOT
ATOM      1  C   GLU C   3      26.982  -2.607  -9.651  1.00 25.67 LIG 0.24  C 
ATOM      2 O    GLU C   3      26.395  -3.144  -8.701  1.00 24.73 LIG-0.27  OA
ATOM      3  N   MET C   4      28.284  -2.310  -9.654  1.00 25.06 LIG-0.35  N 
ATOM      4 H    MET C   4      28.675  -1.919 -10.313  1.00 25.06 LIG 0.16  HD
ENDROOT
BRANCH 3 5
ATOM      5  CA  MET C   4      29.178  -2.619  -8.536  1.00 24.76 LIG 0.18  C 
BRANCH 5 6
ATOM      6  C   MET C   4      28.878  -4.013  -8.010  1.00 24.60 LIG 0.24  C 
ATOM      7 O    MET C   4      29.242  -5.021  -8.623  1.00 25.19 LIG-0.27  OA
ATOM      8  N   GLU C   5      28.158  -4.055  -6.900  1.00 23.81 LIG-0.35  N 
ATOM      9 H    GLU C   5      27.809  -3.362  -6.531  1.00 23.81 LIG 0.16  HD
BRANCH 8 10
ATOM     10  CA  GLU C   5      27.896  -5.284  -6.203  1.00 23.16 LIG 0.18  C 
BRANCH 10 11
ATOM     11  CB  GLU C   5      26.907  -5.019  -5.071  1.00 23.03 LIG 0.04  C 
BRANCH 11 12
ATOM     12  CG  GLU C   5      27.492  -5.343  -3.697  1.00 23.31 LIG 0.12  C 
BRANCH 12 13
ATOM     13  CD  GLU C   5      26.595  -4.936  -2.526  1.00 24.36 LIG 0.17  C 
ATOM     14 OE2  GLU C   5      27.091  -4.217  -1.617  1.00 22.25 LIG-0.65  OA
ATOM     15 OE1  GLU C   5      25.413  -5.329  -2.489  1.00 21.71 LIG-0.65  OA
ENDBRANCH 12 13
ENDBRANCH 11 12
ENDBRANCH 10 11
BRANCH 10 16
ATOM     16  C   GLU C   5      27.317  -6.284  -7.174  1.00 22.53 LIG 0.24  C 
ATOM     17  N   GLU C   6      26.341  -5.848  -7.966  1.00 22.45 LIG-0.35  N 
ATOM     18 H    GLU C   6      25.959  -5.082  -7.882  1.00 22.45 LIG 0.16  HD
ATOM     19 O    GLU C   5      27.736  -7.434  -7.189  1.00 22.53 LIG-0.27  OA
BRANCH 17 20
ATOM     20  CA  GLU C   6      25.827  -6.670  -9.079  1.00 22.27 LIG 0.18  C 
BRANCH 20 21
ATOM     21  C   GLU C   6      25.324  -8.005  -8.556  1.00 21.97 LIG 0.24  C 
ATOM     22 O    GLU C   6      25.492  -9.034  -9.211  1.00 22.60 LIG-0.27  OA
ATOM     23  N   CYS C   7      24.694  -8.013  -7.383  1.00 20.65 LIG-0.34  N 
ATOM     24 H    CYS C   7      24.509  -7.313  -6.918  1.00 20.65 LIG 0.16  HD
BRANCH 23 25
ATOM     25  CA  CYS C   7      24.267  -9.285  -6.803  1.00 20.43 LIG 0.19  C 
BRANCH 25 26
ATOM     26  C   CYS C   7      23.089  -9.867  -7.560  1.00 19.69 LIG 0.20  C 
ATOM     27 O    CYS C   7      22.591  -9.310  -8.534  1.00 19.84 LIG-0.65  OA
ATOM     28 OXT  CYS C   7      22.594 -10.929  -7.194  1.00 20.10 LIG-0.65  OA
ENDBRANCH 25 26
BRANCH 25 29
ATOM     29  CB  CYS C   7      24.003  -9.138  -5.289  1.00 20.27 LIG 0.11  C 
BRANCH 29 30
ATOM     30 SG   CYS C   7      24.791  -7.644  -4.560  1.00 22.98 LIG-0.18  SA
ATOM     31 HG   CYS C   7      24.470  -6.674  -5.189  1.00 22.98 LIG 0.10  HD
ENDBRANCH 29 30
ENDBRANCH 25 29
ENDBRANCH 23 25
ENDBRANCH 20 21
BRANCH 20 32
ATOM     32  CB  GLU C   6      26.924  -6.899 -10.118  1.00 22.58 LIG 0.04  C 
BRANCH 32 33
ATOM     33  CG  GLU C   6      26.594  -6.275 -11.452  1.00 24.64 LIG 0.12  C 
BRANCH 33 34
ATOM     34  CD  GLU C   6      27.739  -6.349 -12.452  1.00 27.63 LIG 0.17  C 
ATOM     35 OE1  GLU C   6      28.832  -5.789 -12.188  1.00 27.17 LIG-0.65  OA
ATOM     36 OE2  GLU C   6      27.533  -6.987 -13.509  1.00 31.71 LIG-0.65  OA
ENDBRANCH 33 34
ENDBRANCH 32 33
ENDBRANCH 20 32
ENDBRANCH 17 20
ENDBRANCH 10 16
ENDBRANCH 8 10
ENDBRANCH 5 6
BRANCH 5 37
ATOM     37  CB  MET C   4      29.009  -1.598  -7.406  1.00 24.86 LIG 0.04  C 
BRANCH 37 38
ATOM     38  CG  MET C   4      29.951  -0.378  -7.461  1.00 24.76 LIG 0.08  C 
BRANCH 38 39
ATOM     39 SD   MET C   4      29.327   1.046  -8.388  1.00 26.68 LIG-0.17  SA
ATOM     40  CE  MET C   4      29.062   2.200  -7.028  1.00 24.50 LIG 0.09  C 
ENDBRANCH 38 39
ENDBRANCH 37 38
ENDBRANCH 5 37
ENDBRANCH 3 5
BRANCH 1 41
ATOM     41  CA  GLU C   3      26.221  -2.281 -10.935  1.00 26.55 LIG 0.18  C 
BRANCH 41 42
ATOM     42  N   GLU C   3      26.251  -0.841 -11.172  1.00 27.07 LIG-0.35  N 
ATOM     43 H    GLU C   3      26.947  -0.443 -10.859  1.00 27.07 LIG 0.16  HD
ATOM     44  C   ASP C   2      25.269  -0.222 -11.821  1.00 28.06 LIG 0.24  C 
ATOM     45 O    ASP C   2      24.302  -0.823 -12.284  1.00 27.76 LIG-0.27  OA
BRANCH 44 46
ATOM     46  CA  ASP C   2      25.426   1.289 -12.017  1.00 28.68 LIG 0.19  C 
BRANCH 46 47
ATOM     47  CB  ASP C   2      24.076   1.984 -12.284  1.00 28.90 LIG 0.15  C 
BRANCH 47 48
ATOM     48  CG  ASP C   2      24.161   3.505 -12.284  1.00 30.38 LIG 0.17  C 
ATOM     49 OD2  ASP C   2      23.330   4.171 -12.938  1.00 31.55 LIG-0.65  OA
ATOM     50 OD1  ASP C   2      25.066   4.041 -11.595  1.00 32.13 LIG-0.65  OA
ENDBRANCH 47 48
ENDBRANCH 46 47
BRANCH 46 51
ATOM     51  N   ASP C   2      26.398   1.648 -13.059  1.00 28.83 LIG-0.34  N 
ATOM     52  C   PHE C   1      27.691   1.763 -12.768  1.00 29.29 LIG 0.24  C 
ATOM     53 O    PHE C   1      28.167   1.421 -11.683  1.00 29.28 LIG-0.27  OA
ATOM     54 H    ASP C   2      26.061   1.771 -13.842  1.00 28.83 LIG 0.16  HD
BRANCH 52 55
ATOM     55  CA  PHE C   1      28.590   2.377 -13.832  1.00 29.71 LIG 0.18  C 
BRANCH 55 56
ATOM     56  N   PHE C   1      29.756   1.509 -13.985  1.00 30.30 LIG-0.35  N 
ATOM     57 H    PHE C   1      29.566   0.714 -14.251  1.00 30.30 LIG 0.16  HD
ATOM     58  C   ACE C   0      31.007   1.924 -13.731  1.00 30.61 LIG 0.21  C 
ATOM     59  CH3 ACE C   0      32.089   0.984 -14.189  1.00 31.12 LIG 0.12  C 
ATOM     60 O    ACE C   0      31.252   2.833 -12.931  1.00 30.74 LIG-0.27  OA
ENDBRANCH 55 56
BRANCH 55 61
ATOM     61  CB  PHE C   1      27.853   2.504 -15.171  1.00 29.76 LIG 0.07  C 
BRANCH 61 62
ATOM     62  CG  PHE C   1      26.772   3.571 -15.202  1.00 30.32 LIG-0.06  A 
ATOM     63  CD1 PHE C   1      25.831   3.587 -16.229  1.00 31.60 LIG 0.01  A 
ATOM     64  CE1 PHE C   1      24.841   4.573 -16.282  1.00 31.29 LIG 0.00  A 
ATOM     65  CZ  PHE C   1      24.787   5.549 -15.297  1.00 31.54 LIG 0.00  A 
ATOM     66  CE2 PHE C   1      25.722   5.546 -14.268  1.00 29.54 LIG 0.00  A 
ATOM     67  CD2 PHE C   1      26.704   4.564 -14.227  1.00 30.51 LIG 0.01  A 
ENDBRANCH 61 62
ENDBRANCH 55 61
ENDBRANCH 52 55
ENDBRANCH 46 51
ENDBRANCH 44 46
ENDBRANCH 41 42
BRANCH 41 68
ATOM     68  CB  GLU C   3      26.744  -3.089 -12.154  1.00 26.96 LIG 0.04  C 
BRANCH 68 69
ATOM     69  CG  GLU C   3      26.734  -2.411 -13.547  1.00 28.76 LIG 0.12  C 
BRANCH 69 70
ATOM     70  CD  GLU C   3      25.412  -2.499 -14.267  1.00 29.94 LIG 0.17  C 
ATOM     71 OE1  GLU C   3      24.468  -3.079 -13.697  1.00 33.38 LIG-0.65  OA
ATOM     72 OE2  GLU C   3      25.309  -1.957 -15.396  1.00 31.06 LIG-0.65  OA
ENDBRANCH 69 70
ENDBRANCH 68 69
ENDBRANCH 41 68
ENDBRANCH 1 41
TORSDOF 32
ENDMDL
MODEL 16
USER: ADFR SOLUTION from run 46
USER: SCORE 21.543787 LL:  -4.963 LR: -19.649 RR:   0.000 FEB: -10.103
USER: RMSD 13.917839
USER: SEED 45
USER: STATUS searching
USER: GENES 34
USER: genes 0 Translation |==|  0.42564 0.70852 0.32660
USER: genes 1 Rotation |==|  0.95085 0.32955 0.38793 0.57157
USER: genes 2 Torsion [C]-N--CA-[CB] |==|  0.23889
USER: genes 3 Torsion [N]-CA--C-[N] |==|  0.45910
USER: genes 4 Torsion [C]-N--CA-[CB] |==|  0.36020
USER: genes 5 Torsion [N]-CA--CB-[CG] |==|  0.41910
USER: genes 6 Torsion [CA]-CB--CG-[CD] |==|  0.73673
USER: genes 7 Torsion [CB]-CG--CD-[OE2] |==|  0.00869
USER: genes 8 Torsion [N]-CA--C-[N] |==|  0.90113
USER: genes 9 Torsion [C]-N--CA-[C] |==|  0.67397
USER: genes 10 Torsion [N]-CA--C-[N] |==|  0.72819
USER: genes 11 Torsion [C]-N--CA-[CB] |==|  0.45344
USER: genes 12 Torsion [N]-CA--C-[OXT] |==|  0.84645
USER: genes 13 Torsion [N]-CA--CB-[SG] |==|  0.80245
USER: genes 14 Torsion [CA]-CB--SG-[HG] |==|  0.24099
USER: genes 15 Torsion [N]-CA--CB-[CG] |==|  0.50040
USER: genes 16 Torsion [CA]-CB--CG-[CD] |==|  0.61405
USER: genes 17 Torsion [CB]-CG--CD-[OE1] |==|  0.69391
USER: genes 18 Torsion [N]-CA--CB-[CG] |==|  0.28846
USER: genes 19 Torsion [CA]-CB--CG-[SD] |==|  0.82939
USER: genes 20 Torsion [CB]-CG--SD-[CE] |==|  0.60699
USER: genes 21 Torsion [N]-C--CA-[N] |==|  0.13263
USER: genes 22 Torsion [C]-CA--N-[C] |==|  0.14422
USER: genes 23 Torsion [N]-C--CA-[N] |==|  0.94324
USER: genes 24 Torsion [C]-CA--CB-[CG] |==|  0.31463
USER: genes 25 Torsion [CA]-CB--CG-[OD1] |==|  0.33668
USER: genes 26 Torsion [C]-CA--N-[C] |==|  0.83662
USER: genes 27 Torsion [N]-C--CA-[N] |==|  0.97962
USER: genes 28 Torsion [C]-CA--N-[C] |==|  0.76906
USER: genes 29 Torsion [C]-CA--CB-[CG] |==|  0.12992
USER: genes 30 Torsion [CA]-CB--CG-[CD1] |==|  0.74644
USER: genes 31 Torsion [C]-CA--CB-[CG] |==|  0.62224
USER: genes 32 Torsion [CA]-CB--CG-[CD] |==|  0.32790
USER: genes 33 Torsion [CB]-CG--CD-[OE1] |==|  0.23604
ROOT
ATOM      1  C   GLU C   3      26.822   2.332 -12.956  1.00 25.67 LIG 0.24  C 
ATOM      2 O    GLU C   3      25.900   2.817 -12.284  1.00 24.73 LIG-0.27  OA
ATOM      3  N   MET C   4      27.273   1.083 -12.815  1.00 25.06 LIG-0.35  N 
ATOM      4 H    MET C   4      27.926   0.765 -13.274  1.00 25.06 LIG 0.16  HD
ENDROOT
BRANCH 3 5
ATOM      5  CA  MET C   4      26.701   0.128 -11.863  1.00 24.76 LIG 0.18  C 
BRANCH 5 6
ATOM      6  C   MET C   4      27.759  -0.885 -11.456  1.00 24.60 LIG 0.24  C 
ATOM      7 O    MET C   4      28.784  -1.045 -12.126  1.00 25.19 LIG-0.27  OA
ATOM      8  N   GLU C   5      27.468  -1.608 -10.385  1.00 23.81 LIG-0.35  N 
ATOM      9 H    GLU C   5      26.709  -1.579  -9.983  1.00 23.81 LIG 0.16  HD
BRANCH 8 10
ATOM     10  CA  GLU C   5      28.411  -2.517  -9.795  1.00 23.16 LIG 0.18  C 
BRANCH 10 11
ATOM     11  CB  GLU C   5      28.498  -2.247  -8.295  1.00 23.03 LIG 0.04  C 
BRANCH 11 12
ATOM     12  CG  GLU C   5      28.858  -3.499  -7.497  1.00 23.31 LIG 0.12  C 
BRANCH 12 13
ATOM     13  CD  GLU C   5      27.650  -4.253  -6.939  1.00 24.36 LIG 0.17  C 
ATOM     14 OE2  GLU C   5      26.498  -3.829  -7.227  1.00 22.25 LIG-0.65  OA
ATOM     15 OE1  GLU C   5      27.826  -5.251  -6.213  1.00 21.71 LIG-0.65  OA
ENDBRANCH 12 13
ENDBRANCH 11 12
ENDBRANCH 10 11
BRANCH 10 16
ATOM     16  C   GLU C   5      27.948  -3.931 -10.042  1.00 22.53 LIG 0.24  C 
ATOM     17  N   GLU C   6      26.633  -4.140 -10.021  1.00 22.45 LIG-0.35  N 
ATOM     18 H    GLU C   6      26.056  -3.552  -9.774  1.00 22.45 LIG 0.16  HD
ATOM     19 O    GLU C   5      28.769  -4.820 -10.228  1.00 22.53 LIG-0.27  OA
BRANCH 17 20
ATOM     20  CA  GLU C   6      26.052  -5.433 -10.432  1.00 22.27 LIG 0.18  C 
BRANCH 20 21
ATOM     21  C   GLU C   6      25.159  -5.244 -11.647  1.00 21.97 LIG 0.24  C 
ATOM     22 O    GLU C   6      25.647  -5.186 -12.775  1.00 22.60 LIG-0.27  OA
ATOM     23  N   CYS C   7      23.848  -5.138 -11.440  1.00 20.65 LIG-0.34  N 
ATOM     24 H    CYS C   7      23.470  -5.120 -10.668  1.00 20.65 LIG 0.16  HD
BRANCH 23 25
ATOM     25  CA  CYS C   7      22.944  -5.039 -12.586  1.00 20.43 LIG 0.19  C 
BRANCH 25 26
ATOM     26  C   CYS C   7      23.096  -3.706 -13.293  1.00 19.69 LIG 0.20  C 
ATOM     27 O    CYS C   7      23.358  -3.620 -14.489  1.00 19.84 LIG-0.65  OA
ATOM     28 OXT  CYS C   7      22.966  -2.662 -12.660  1.00 20.10 LIG-0.65  OA
ENDBRANCH 25 26
BRANCH 25 29
ATOM     29  CB  CYS C   7      21.491  -5.341 -12.165  1.00 20.27 LIG 0.11  C 
BRANCH 29 30
ATOM     30 SG   CYS C   7      21.206  -7.115 -11.769  1.00 22.98 LIG-0.18  SA
ATOM     31 HG   CYS C   7      21.476  -7.317 -10.618  1.00 22.98 LIG 0.10  HD
ENDBRANCH 29 30
ENDBRANCH 25 29
ENDBRANCH 23 25
ENDBRANCH 20 21
BRANCH 20 32
ATOM     32  CB  GLU C   6      25.248  -6.041  -9.284  1.00 22.58 LIG 0.04  C 
BRANCH 32 33
ATOM     33  CG  GLU C   6      24.633  -7.369  -9.650  1.00 24.64 LIG 0.12  C 
BRANCH 33 34
ATOM     34  CD  GLU C   6      23.211  -7.539  -9.132  1.00 27.63 LIG 0.17  C 
ATOM     35 OE1  GLU C   6      22.979  -8.358  -8.209  1.00 27.17 LIG-0.65  OA
ATOM     36 OE2  GLU C   6      22.325  -6.829  -9.659  1.00 31.71 LIG-0.65  OA
ENDBRANCH 33 34
ENDBRANCH 32 33
ENDBRANCH 20 32
ENDBRANCH 17 20
ENDBRANCH 10 16
ENDBRANCH 8 10
ENDBRANCH 5 6
BRANCH 5 37
ATOM     37  CB  MET C   4      25.503  -0.603 -12.478  1.00 24.86 LIG 0.04  C 
BRANCH 37 38
ATOM     38  CG  MET C   4      25.767  -2.054 -12.931  1.00 24.76 LIG 0.08  C 
BRANCH 38 39
ATOM     39 SD   MET C   4      27.020  -2.251 -14.222  1.00 26.68 LIG-0.17  SA
ATOM     40  CE  MET C   4      26.252  -3.560 -15.194  1.00 24.50 LIG 0.09  C 
ENDBRANCH 38 39
ENDBRANCH 37 38
ENDBRANCH 5 37
ENDBRANCH 3 5
BRANCH 1 41
ATOM     41  CA  GLU C   3      27.488   3.161 -14.053  1.00 26.55 LIG 0.18  C 
BRANCH 41 42
ATOM     42  N   GLU C   3      27.548   2.382 -15.287  1.00 27.07 LIG-0.35  N 
ATOM     43 H    GLU C   3      28.330   2.340 -15.644  1.00 27.07 LIG 0.16  HD
ATOM     44  C   ASP C   2      26.466   1.796 -15.793  1.00 28.06 LIG 0.24  C 
ATOM     45 O    ASP C   2      25.368   1.849 -15.243  1.00 27.76 LIG-0.27  OA
BRANCH 44 46
ATOM     46  CA  ASP C   2      26.664   0.997 -17.084  1.00 28.68 LIG 0.19  C 
BRANCH 46 47
ATOM     47  CB  ASP C   2      26.638  -0.524 -16.835  1.00 28.90 LIG 0.15  C 
BRANCH 47 48
ATOM     48  CG  ASP C   2      25.440  -1.226 -17.464  1.00 30.38 LIG 0.17  C 
ATOM     49 OD2  ASP C   2      24.283  -0.867 -17.159  1.00 31.55 LIG-0.65  OA
ATOM     50 OD1  ASP C   2      25.668  -2.140 -18.298  1.00 32.13 LIG-0.65  OA
ENDBRANCH 47 48
ENDBRANCH 46 47
BRANCH 46 51
ATOM     51  N   ASP C   2      27.877   1.369 -17.825  1.00 28.83 LIG-0.34  N 
ATOM     52  C   PHE C   1      28.055   2.619 -18.247  1.00 29.29 LIG 0.24  C 
ATOM     53 O    PHE C   1      27.323   3.551 -17.909  1.00 29.28 LIG-0.27  OA
ATOM     54 H    ASP C   2      28.436   0.728 -17.952  1.00 28.83 LIG 0.16  HD
BRANCH 52 55
ATOM     55  CA  PHE C   1      29.204   2.867 -19.214  1.00 29.71 LIG 0.18  C 
BRANCH 55 56
ATOM     56  N   PHE C   1      29.975   1.629 -19.317  1.00 30.30 LIG-0.35  N 
ATOM     57 H    PHE C   1      29.766   1.145 -19.996  1.00 30.30 LIG 0.16  HD
ATOM     58  C   ACE C   0      30.920   1.287 -18.428  1.00 30.61 LIG 0.21  C 
ATOM     59  CH3 ACE C   0      31.777   0.120 -18.835  1.00 31.12 LIG 0.12  C 
ATOM     60 O    ACE C   0      30.901   1.684 -17.258  1.00 30.74 LIG-0.27  OA
ENDBRANCH 55 56
BRANCH 55 61
ATOM     61  CB  PHE C   1      28.684   3.276 -20.598  1.00 29.76 LIG 0.07  C 
BRANCH 61 62
ATOM     62  CG  PHE C   1      27.604   4.343 -20.580  1.00 30.32 LIG-0.06  A 
ATOM     63  CD1 PHE C   1      26.259   3.980 -20.533  1.00 31.60 LIG 0.01  A 
ATOM     64  CE1 PHE C   1      25.252   4.951 -20.535  1.00 31.29 LIG 0.00  A 
ATOM     65  CZ  PHE C   1      25.591   6.295 -20.579  1.00 31.54 LIG 0.00  A 
ATOM     66  CE2 PHE C   1      26.929   6.671 -20.629  1.00 29.54 LIG 0.00  A 
ATOM     67  CD2 PHE C   1      27.922   5.699 -20.631  1.00 30.51 LIG 0.01  A 
ENDBRANCH 61 62
ENDBRANCH 55 61
ENDBRANCH 52 55
ENDBRANCH 46 51
ENDBRANCH 44 46
ENDBRANCH 41 42
BRANCH 41 68
ATOM     68  CB  GLU C   3      26.795   4.536 -14.259  1.00 26.96 LIG 0.04  C 
BRANCH 68 69
ATOM     69  CG  GLU C   3      26.531   5.019 -15.707  1.00 28.76 LIG 0.12  C 
BRANCH 69 70
ATOM     70  CD  GLU C   3      25.072   5.209 -16.039  1.00 29.94 LIG 0.17  C 
ATOM     71 OE1  GLU C   3      24.538   6.296 -15.743  1.00 33.38 LIG-0.65  OA
ATOM     72 OE2  GLU C   3      24.466   4.279 -16.626  1.00 31.06 LIG-0.65  OA
ENDBRANCH 69 70
ENDBRANCH 68 69
ENDBRANCH 41 68
ENDBRANCH 1 41
TORSDOF 32
ENDMDL
MODEL 17
USER: ADFR SOLUTION from run 125
USER: SCORE 20.951956 LL:  -4.343 LR: -19.642 RR:   0.000 FEB: -10.097
USER: RMSD 13.824336
USER: SEED 124
USER: STATUS no improvement in best in 2 clusters for 5 generations
USER: GENES 34
USER: genes 0 Translation |==|  0.55901 0.57877 0.44928
USER: genes 1 Rotation |==|  0.56045 0.60713 0.98306 0.53902
USER: genes 2 Torsion [C]-N--CA-[CB] |==|  0.24369
USER: genes 3 Torsion [N]-CA--C-[N] |==|  0.45674
USER: genes 4 Torsion [C]-N--CA-[CB] |==|  0.21057
USER: genes 5 Torsion [N]-CA--CB-[CG] |==|  0.60296
USER: genes 6 Torsion [CA]-CB--CG-[CD] |==|  0.37166
USER: genes 7 Torsion [CB]-CG--CD-[OE2] |==|  0.32338
USER: genes 8 Torsion [N]-CA--C-[N] |==|  0.24205
USER: genes 9 Torsion [C]-N--CA-[C] |==|  0.82260
USER: genes 10 Torsion [N]-CA--C-[N] |==|  0.44762
USER: genes 11 Torsion [C]-N--CA-[CB] |==|  0.24867
USER: genes 12 Torsion [N]-CA--C-[OXT] |==|  0.89671
USER: genes 13 Torsion [N]-CA--CB-[SG] |==|  0.05871
USER: genes 14 Torsion [CA]-CB--SG-[HG] |==|  0.14098
USER: genes 15 Torsion [N]-CA--CB-[CG] |==|  0.83973
USER: genes 16 Torsion [CA]-CB--CG-[CD] |==|  0.50404
USER: genes 17 Torsion [CB]-CG--CD-[OE1] |==|  0.58038
USER: genes 18 Torsion [N]-CA--CB-[CG] |==|  0.33978
USER: genes 19 Torsion [CA]-CB--CG-[SD] |==|  0.39847
USER: genes 20 Torsion [CB]-CG--SD-[CE] |==|  0.76803
USER: genes 21 Torsion [N]-C--CA-[N] |==|  0.87645
USER: genes 22 Torsion [C]-CA--N-[C] |==|  0.70626
USER: genes 23 Torsion [N]-C--CA-[N] |==|  0.41757
USER: genes 24 Torsion [C]-CA--CB-[CG] |==|  0.88119
USER: genes 25 Torsion [CA]-CB--CG-[OD1] |==|  0.71184
USER: genes 26 Torsion [C]-CA--N-[C] |==|  0.58333
USER: genes 27 Torsion [N]-C--CA-[N] |==|  0.06248
USER: genes 28 Torsion [C]-CA--N-[C] |==|  0.14486
USER: genes 29 Torsion [C]-CA--CB-[CG] |==|  0.57454
USER: genes 30 Torsion [CA]-CB--CG-[CD1] |==|  0.78185
USER: genes 31 Torsion [C]-CA--CB-[CG] |==|  0.22939
USER: genes 32 Torsion [CA]-CB--CG-[CD] |==|  0.17626
USER: genes 33 Torsion [CB]-CG--CD-[OE1] |==|  0.39706
ROOT
ATOM      1  C   GLU C   3      29.323  -1.268  -9.827  1.00 25.67 LIG 0.24  C 
ATOM      2 O    GLU C   3      30.338  -1.953 -10.016  1.00 24.73 LIG-0.27  OA
ATOM      3  N   MET C   4      28.134  -1.772  -9.485  1.00 25.06 LIG-0.35  N 
ATOM      4 H    MET C   4      27.432  -1.288  -9.376  1.00 25.06 LIG 0.16  HD
ENDROOT
BRANCH 3 5
ATOM      5  CA  MET C   4      27.904  -3.201  -9.262  1.00 24.76 LIG 0.18  C 
BRANCH 5 6
ATOM      6  C   MET C   4      26.460  -3.546  -9.590  1.00 24.60 LIG 0.24  C 
ATOM      7 O    MET C   4      25.591  -2.671  -9.649  1.00 25.19 LIG-0.27  OA
ATOM      8  N   GLU C   5      26.207  -4.836  -9.740  1.00 23.81 LIG-0.35  N 
ATOM      9 H    GLU C   5      26.783  -5.456  -9.590  1.00 23.81 LIG 0.16  HD
BRANCH 8 10
ATOM     10  CA  GLU C   5      24.926  -5.320 -10.176  1.00 23.16 LIG 0.18  C 
BRANCH 10 11
ATOM     11  CB  GLU C   5      24.785  -5.084 -11.678  1.00 23.03 LIG 0.04  C 
BRANCH 11 12
ATOM     12  CG  GLU C   5      23.362  -4.691 -12.076  1.00 23.31 LIG 0.12  C 
BRANCH 12 13
ATOM     13  CD  GLU C   5      23.289  -3.500 -13.033  1.00 24.36 LIG 0.17  C 
ATOM     14 OE2  GLU C   5      22.813  -3.689 -14.185  1.00 22.25 LIG-0.65  OA
ATOM     15 OE1  GLU C   5      23.706  -2.385 -12.664  1.00 21.71 LIG-0.65  OA
ENDBRANCH 12 13
ENDBRANCH 11 12
ENDBRANCH 10 11
BRANCH 10 16
ATOM     16  C   GLU C   5      24.828  -6.794  -9.871  1.00 22.53 LIG 0.24  C 
ATOM     17  N   GLU C   6      24.387  -7.122  -8.659  1.00 22.45 LIG-0.35  N 
ATOM     18 H    GLU C   6      24.261  -6.558  -8.022  1.00 22.45 LIG 0.16  HD
ATOM     19 O    GLU C   5      25.167  -7.616 -10.712  1.00 22.53 LIG-0.27  OA
BRANCH 17 20
ATOM     20  CA  GLU C   6      24.070  -8.521  -8.309  1.00 22.27 LIG 0.18  C 
BRANCH 20 21
ATOM     21  C   GLU C   6      22.914  -9.026  -9.156  1.00 21.97 LIG 0.24  C 
ATOM     22 O    GLU C   6      22.161  -8.231  -9.718  1.00 22.60 LIG-0.27  OA
ATOM     23  N   CYS C   7      22.747 -10.343  -9.253  1.00 20.65 LIG-0.34  N 
ATOM     24 H    CYS C   7      23.215 -10.932  -8.837  1.00 20.65 LIG 0.16  HD
BRANCH 23 25
ATOM     25  CA  CYS C   7      21.699 -10.874 -10.124  1.00 20.43 LIG 0.19  C 
BRANCH 25 26
ATOM     26  C   CYS C   7      21.061 -12.112  -9.525  1.00 19.69 LIG 0.20  C 
ATOM     27 O    CYS C   7      19.859 -12.346  -9.618  1.00 19.84 LIG-0.65  OA
ATOM     28 OXT  CYS C   7      21.753 -12.918  -8.909  1.00 20.10 LIG-0.65  OA
ENDBRANCH 25 26
BRANCH 25 29
ATOM     29  CB  CYS C   7      22.234 -11.098 -11.554  1.00 20.27 LIG 0.11  C 
BRANCH 29 30
ATOM     30 SG   CYS C   7      24.067 -11.246 -11.626  1.00 22.98 LIG-0.18  SA
ATOM     31 HG   CYS C   7      24.435 -12.056 -10.821  1.00 22.98 LIG 0.10  HD
ENDBRANCH 29 30
ENDBRANCH 25 29
ENDBRANCH 23 25
ENDBRANCH 20 21
BRANCH 20 32
ATOM     32  CB  GLU C   6      23.716  -8.629  -6.827  1.00 22.58 LIG 0.04  C 
BRANCH 32 33
ATOM     33  CG  GLU C   6      24.822  -8.128  -5.931  1.00 24.64 LIG 0.12  C 
BRANCH 33 34
ATOM     34  CD  GLU C   6      24.502  -8.260  -4.448  1.00 27.63 LIG 0.17  C 
ATOM     35 OE1  GLU C   6      25.005  -7.451  -3.629  1.00 27.17 LIG-0.65  OA
ATOM     36 OE2  GLU C   6      23.728  -9.184  -4.111  1.00 31.71 LIG-0.65  OA
ENDBRANCH 33 34
ENDBRANCH 32 33
ENDBRANCH 20 32
ENDBRANCH 17 20
ENDBRANCH 10 16
ENDBRANCH 8 10
ENDBRANCH 5 6
BRANCH 5 37
ATOM     37  CB  MET C   4      28.202  -3.580  -7.808  1.00 24.86 LIG 0.04  C 
BRANCH 37 38
ATOM     38  CG  MET C   4      27.035  -4.227  -7.033  1.00 24.76 LIG 0.08  C 
BRANCH 38 39
ATOM     39 SD   MET C   4      27.501  -5.529  -5.867  1.00 26.68 LIG-0.17  SA
ATOM     40  CE  MET C   4      27.595  -6.930  -6.997  1.00 24.50 LIG 0.09  C 
ENDBRANCH 38 39
ENDBRANCH 37 38
ENDBRANCH 5 37
ENDBRANCH 3 5
BRANCH 1 41
ATOM     41  CA  GLU C   3      29.393   0.254  -9.940  1.00 26.55 LIG 0.18  C 
BRANCH 41 42
ATOM     42  N   GLU C   3      28.224   0.747 -10.664  1.00 27.07 LIG-0.35  N 
ATOM     43 H    GLU C   3      27.493   0.734 -10.210  1.00 27.07 LIG 0.16  HD
ATOM     44  C   ASP C   2      28.314   1.175 -11.920  1.00 28.06 LIG 0.24  C 
ATOM     45 O    ASP C   2      29.379   1.210 -12.532  1.00 27.76 LIG-0.27  OA
BRANCH 44 46
ATOM     46  CA  ASP C   2      27.018   1.679 -12.563  1.00 28.68 LIG 0.19  C 
BRANCH 46 47
ATOM     47  CB  ASP C   2      26.172   0.530 -13.145  1.00 28.90 LIG 0.15  C 
BRANCH 47 48
ATOM     48  CG  ASP C   2      26.991  -0.511 -13.900  1.00 30.38 LIG 0.17  C 
ATOM     49 OD2  ASP C   2      27.648  -1.361 -13.264  1.00 31.55 LIG-0.65  OA
ATOM     50 OD1  ASP C   2      26.953  -0.486 -15.157  1.00 32.13 LIG-0.65  OA
ENDBRANCH 47 48
ENDBRANCH 46 47
BRANCH 46 51
ATOM     51  N   ASP C   2      27.234   2.717 -13.581  1.00 28.83 LIG-0.34  N 
ATOM     52  C   PHE C   1      26.311   3.651 -13.801  1.00 29.29 LIG 0.24  C 
ATOM     53 O    PHE C   1      25.327   3.804 -13.074  1.00 29.28 LIG-0.27  OA
ATOM     54 H    ASP C   2      27.983   2.663 -14.001  1.00 28.83 LIG 0.16  HD
BRANCH 52 55
ATOM     55  CA  PHE C   1      26.494   4.530 -15.029  1.00 29.71 LIG 0.18  C 
BRANCH 55 56
ATOM     56  N   PHE C   1      27.346   3.808 -15.972  1.00 30.30 LIG-0.35  N 
ATOM     57 H    PHE C   1      28.022   4.261 -16.247  1.00 30.30 LIG 0.16  HD
ATOM     58  C   ACE C   0      27.089   2.551 -16.366  1.00 30.61 LIG 0.21  C 
ATOM     59  CH3 ACE C   0      28.204   1.888 -17.128  1.00 31.12 LIG 0.12  C 
ATOM     60 O    ACE C   0      25.945   2.084 -16.377  1.00 30.74 LIG-0.27  OA
ENDBRANCH 55 56
BRANCH 55 61
ATOM     61  CB  PHE C   1      25.145   4.852 -15.685  1.00 29.76 LIG 0.07  C 
BRANCH 61 62
ATOM     62  CG  PHE C   1      25.216   5.139 -17.174  1.00 30.32 LIG-0.06  A 
ATOM     63  CD1 PHE C   1      25.648   6.384 -17.629  1.00 31.60 LIG 0.01  A 
ATOM     64  CE1 PHE C   1      25.701   6.671 -18.997  1.00 31.29 LIG 0.00  A 
ATOM     65  CZ  PHE C   1      25.324   5.705 -19.918  1.00 31.54 LIG 0.00  A 
ATOM     66  CE2 PHE C   1      24.889   4.460 -19.478  1.00 29.54 LIG 0.00  A 
ATOM     67  CD2 PHE C   1      24.836   4.186 -18.117  1.00 30.51 LIG 0.01  A 
ENDBRANCH 61 62
ENDBRANCH 55 61
ENDBRANCH 52 55
ENDBRANCH 46 51
ENDBRANCH 44 46
ENDBRANCH 41 42
BRANCH 41 68
ATOM     68  CB  GLU C   3      29.564   0.943  -8.559  1.00 26.96 LIG 0.04  C 
BRANCH 68 69
ATOM     69  CG  GLU C   3      30.987   1.041  -7.955  1.00 28.76 LIG 0.12  C 
BRANCH 69 70
ATOM     70  CD  GLU C   3      31.947   1.874  -8.767  1.00 29.94 LIG 0.17  C 
ATOM     71 OE1  GLU C   3      32.773   2.581  -8.158  1.00 33.38 LIG-0.65  OA
ATOM     72 OE2  GLU C   3      31.895   1.796 -10.019  1.00 31.06 LIG-0.65  OA
ENDBRANCH 69 70
ENDBRANCH 68 69
ENDBRANCH 41 68
ENDBRANCH 1 41
TORSDOF 32
ENDMDL
MODEL 18
USER: ADFR SOLUTION from run 79
USER: SCORE 23.488665 LL:  -5.492 LR: -19.597 RR:   0.000 FEB: -10.051
USER: RMSD 12.032650
USER: SEED 78
USER: STATUS no improvement in best in 5 clusters for 5 generations
USER: GENES 34
USER: genes 0 Translation |==|  0.42921 0.52377 0.44843
USER: genes 1 Rotation |==|  0.95799 0.49958 0.39284 0.66960
USER: genes 2 Torsion [C]-N--CA-[CB] |==|  0.77469
USER: genes 3 Torsion [N]-CA--C-[N] |==|  0.17912
USER: genes 4 Torsion [C]-N--CA-[CB] |==|  0.51111
USER: genes 5 Torsion [N]-CA--CB-[CG] |==|  0.63956
USER: genes 6 Torsion [CA]-CB--CG-[CD] |==|  0.87627
USER: genes 7 Torsion [CB]-CG--CD-[OE2] |==|  0.34771
USER: genes 8 Torsion [N]-CA--C-[N] |==|  0.39234
USER: genes 9 Torsion [C]-N--CA-[C] |==|  0.17816
USER: genes 10 Torsion [N]-CA--C-[N] |==|  0.05129
USER: genes 11 Torsion [C]-N--CA-[CB] |==|  0.36528
USER: genes 12 Torsion [N]-CA--C-[OXT] |==|  0.57251
USER: genes 13 Torsion [N]-CA--CB-[SG] |==|  0.55780
USER: genes 14 Torsion [CA]-CB--SG-[HG] |==|  0.75774
USER: genes 15 Torsion [N]-CA--CB-[CG] |==|  0.65566
USER: genes 16 Torsion [CA]-CB--CG-[CD] |==|  0.82952
USER: genes 17 Torsion [CB]-CG--CD-[OE1] |==|  0.69800
USER: genes 18 Torsion [N]-CA--CB-[CG] |==|  0.77471
USER: genes 19 Torsion [CA]-CB--CG-[SD] |==|  0.45799
USER: genes 20 Torsion [CB]-CG--SD-[CE] |==|  0.17923
USER: genes 21 Torsion [N]-C--CA-[N] |==|  0.85606
USER: genes 22 Torsion [C]-CA--N-[C] |==|  0.65741
USER: genes 23 Torsion [N]-C--CA-[N] |==|  0.88994
USER: genes 24 Torsion [C]-CA--CB-[CG] |==|  0.49589
USER: genes 25 Torsion [CA]-CB--CG-[OD1] |==|  0.08536
USER: genes 26 Torsion [C]-CA--N-[C] |==|  0.85811
USER: genes 27 Torsion [N]-C--CA-[N] |==|  0.95440
USER: genes 28 Torsion [C]-CA--N-[C] |==|  0.78520
USER: genes 29 Torsion [C]-CA--CB-[CG] |==|  0.20145
USER: genes 30 Torsion [CA]-CB--CG-[CD1] |==|  0.78529
USER: genes 31 Torsion [C]-CA--CB-[CG] |==|  0.19557
USER: genes 32 Torsion [CA]-CB--CG-[CD] |==|  0.22672
USER: genes 33 Torsion [CB]-CG--CD-[OE1] |==|  0.85777
ROOT
ATOM      1  C   GLU C   3      26.889  -2.794  -9.849  1.00 25.67 LIG 0.24  C 
ATOM      2 O    GLU C   3      25.971  -2.855  -9.018  1.00 24.73 LIG-0.27  OA
ATOM      3  N   MET C   4      28.081  -3.375  -9.690  1.00 25.06 LIG-0.35  N 
ATOM      4 H    MET C   4      28.716  -3.309 -10.266  1.00 25.06 LIG 0.16  HD
ENDROOT
BRANCH 3 5
ATOM      5  CA  MET C   4      28.429  -4.182  -8.519  1.00 24.76 LIG 0.18  C 
BRANCH 5 6
ATOM      6  C   MET C   4      27.241  -5.040  -8.117  1.00 24.60 LIG 0.24  C 
ATOM      7 O    MET C   4      26.706  -4.916  -7.011  1.00 25.19 LIG-0.27  OA
ATOM      8  N   GLU C   5      26.875  -5.952  -9.005  1.00 23.81 LIG-0.35  N 
ATOM      9 H    GLU C   5      27.313  -6.117  -9.726  1.00 23.81 LIG 0.16  HD
BRANCH 8 10
ATOM     10  CA  GLU C   5      25.697  -6.757  -8.836  1.00 23.16 LIG 0.18  C 
BRANCH 10 11
ATOM     11  CB  GLU C   5      25.614  -7.770  -9.975  1.00 23.03 LIG 0.04  C 
BRANCH 11 12
ATOM     12  CG  GLU C   5      24.245  -7.773 -10.655  1.00 23.31 LIG 0.12  C 
BRANCH 12 13
ATOM     13  CD  GLU C   5      23.065  -7.743  -9.681  1.00 24.36 LIG 0.17  C 
ATOM     14 OE2  GLU C   5      22.206  -6.831  -9.815  1.00 22.25 LIG-0.65  OA
ATOM     15 OE1  GLU C   5      22.985  -8.602  -8.782  1.00 21.71 LIG-0.65  OA
ENDBRANCH 12 13
ENDBRANCH 11 12
ENDBRANCH 10 11
BRANCH 10 16
ATOM     16  C   GLU C   5      25.777  -7.472  -7.510  1.00 22.53 LIG 0.24  C 
ATOM     17  N   GLU C   6      24.643  -7.579  -6.823  1.00 22.45 LIG-0.35  N 
ATOM     18 H    GLU C   6      23.911  -7.181  -7.035  1.00 22.45 LIG 0.16  HD
ATOM     19 O    GLU C   5      26.852  -7.900  -7.111  1.00 22.53 LIG-0.27  OA
BRANCH 17 20
ATOM     20  CA  GLU C   6      24.555  -8.416  -5.609  1.00 22.27 LIG 0.18  C 
BRANCH 20 21
ATOM     21  C   GLU C   6      25.463  -7.862  -4.523  1.00 21.97 LIG 0.24  C 
ATOM     22 O    GLU C   6      25.795  -8.568  -3.570  1.00 22.60 LIG-0.27  OA
ATOM     23  N   CYS C   7      25.869  -6.600  -4.640  1.00 20.65 LIG-0.34  N 
ATOM     24 H    CYS C   7      25.621  -6.057  -5.259  1.00 20.65 LIG 0.16  HD
BRANCH 23 25
ATOM     25  CA  CYS C   7      26.810  -6.053  -3.664  1.00 20.43 LIG 0.19  C 
BRANCH 25 26
ATOM     26  C   CYS C   7      26.100  -5.183  -2.644  1.00 19.69 LIG 0.20  C 
ATOM     27 O    CYS C   7      24.914  -5.328  -2.365  1.00 19.84 LIG-0.65  OA
ATOM     28 OXT  CYS C   7      26.716  -4.288  -2.072  1.00 20.10 LIG-0.65  OA
ENDBRANCH 25 26
BRANCH 25 29
ATOM     29  CB  CYS C   7      27.977  -5.332  -4.370  1.00 20.27 LIG 0.11  C 
BRANCH 29 30
ATOM     30 SG   CYS C   7      29.468  -5.156  -3.307  1.00 22.98 LIG-0.18  SA
ATOM     31 HG   CYS C   7      29.381  -4.150  -2.658  1.00 22.98 LIG 0.10  HD
ENDBRANCH 29 30
ENDBRANCH 25 29
ENDBRANCH 23 25
ENDBRANCH 20 21
BRANCH 20 32
ATOM     32  CB  GLU C   6      24.946  -9.857  -5.930  1.00 22.58 LIG 0.04  C 
BRANCH 32 33
ATOM     33  CG  GLU C   6      23.868 -10.845  -5.557  1.00 24.64 LIG 0.12  C 
BRANCH 33 34
ATOM     34  CD  GLU C   6      23.547 -10.852  -4.069  1.00 27.63 LIG 0.17  C 
ATOM     35 OE1  GLU C   6      23.893 -11.831  -3.363  1.00 27.17 LIG-0.65  OA
ATOM     36 OE2  GLU C   6      22.946  -9.854  -3.610  1.00 31.71 LIG-0.65  OA
ENDBRANCH 33 34
ENDBRANCH 32 33
ENDBRANCH 20 32
ENDBRANCH 17 20
ENDBRANCH 10 16
ENDBRANCH 8 10
ENDBRANCH 5 6
BRANCH 5 37
ATOM     37  CB  MET C   4      28.833  -3.287  -7.342  1.00 24.86 LIG 0.04  C 
BRANCH 37 38
ATOM     38  CG  MET C   4      30.285  -2.765  -7.369  1.00 24.76 LIG 0.08  C 
BRANCH 38 39
ATOM     39 SD   MET C   4      30.640  -1.393  -6.244  1.00 26.68 LIG-0.17  SA
ATOM     40  CE  MET C   4      30.371  -2.218  -4.664  1.00 24.50 LIG 0.09  C 
ENDBRANCH 38 39
ENDBRANCH 37 38
ENDBRANCH 5 37
ENDBRANCH 3 5
BRANCH 1 41
ATOM     41  CA  GLU C   3      26.677  -2.057 -11.171  1.00 26.55 LIG 0.18  C 
BRANCH 41 42
ATOM     42  N   GLU C   3      27.779  -1.124 -11.393  1.00 27.07 LIG-0.35  N 
ATOM     43 H    GLU C   3      28.559  -1.486 -11.390  1.00 27.07 LIG 0.16  HD
ATOM     44  C   ASP C   2      27.562   0.175 -11.582  1.00 28.06 LIG 0.24  C 
ATOM     45 O    ASP C   2      26.432   0.659 -11.612  1.00 27.76 LIG-0.27  OA
BRANCH 44 46
ATOM     46  CA  ASP C   2      28.799   1.046 -11.818  1.00 28.68 LIG 0.19  C 
BRANCH 46 47
ATOM     47  CB  ASP C   2      29.215   1.076 -13.302  1.00 28.90 LIG 0.15  C 
BRANCH 47 48
ATOM     48  CG  ASP C   2      30.423   1.962 -13.581  1.00 30.38 LIG 0.17  C 
ATOM     49 OD2  ASP C   2      30.515   2.555 -14.677  1.00 31.55 LIG-0.65  OA
ATOM     50 OD1  ASP C   2      31.283   2.083 -12.672  1.00 32.13 LIG-0.65  OA
ENDBRANCH 47 48
ENDBRANCH 46 47
BRANCH 46 51
ATOM     51  N   ASP C   2      29.947   0.676 -10.977  1.00 28.83 LIG-0.34  N 
ATOM     52  C   PHE C   1      29.806   0.546  -9.660  1.00 29.29 LIG 0.24  C 
ATOM     53 O    PHE C   1      28.709   0.559  -9.098  1.00 29.28 LIG-0.27  OA
ATOM     54 H    ASP C   2      30.685   0.556 -11.403  1.00 28.83 LIG 0.16  HD
BRANCH 52 55
ATOM     55  CA  PHE C   1      31.079   0.410  -8.837  1.00 29.71 LIG 0.18  C 
BRANCH 55 56
ATOM     56  N   PHE C   1      32.166   0.063  -9.752  1.00 30.30 LIG-0.35  N 
ATOM     57 H    PHE C   1      32.683   0.723  -9.943  1.00 30.30 LIG 0.16  HD
ATOM     58  C   ACE C   0      32.333  -1.174 -10.243  1.00 30.61 LIG 0.21  C 
ATOM     59  CH3 ACE C   0      33.640  -1.399 -10.954  1.00 31.12 LIG 0.12  C 
ATOM     60 O    ACE C   0      31.393  -1.965 -10.376  1.00 30.74 LIG-0.27  OA
ENDBRANCH 55 56
BRANCH 55 61
ATOM     61  CB  PHE C   1      31.408   1.718  -8.106  1.00 29.76 LIG 0.07  C 
BRANCH 61 62
ATOM     62  CG  PHE C   1      30.497   2.036  -6.934  1.00 30.32 LIG-0.06  A 
ATOM     63  CD1 PHE C   1      29.219   2.544  -7.157  1.00 31.60 LIG 0.01  A 
ATOM     64  CE1 PHE C   1      28.374   2.860  -6.088  1.00 31.29 LIG 0.00  A 
ATOM     65  CZ  PHE C   1      28.808   2.663  -4.785  1.00 31.54 LIG 0.00  A 
ATOM     66  CE2 PHE C   1      30.082   2.159  -4.549  1.00 29.54 LIG 0.00  A 
ATOM     67  CD2 PHE C   1      30.915   1.852  -5.617  1.00 30.51 LIG 0.01  A 
ENDBRANCH 61 62
ENDBRANCH 55 61
ENDBRANCH 52 55
ENDBRANCH 46 51
ENDBRANCH 44 46
ENDBRANCH 41 42
BRANCH 41 68
ATOM     68  CB  GLU C   3      26.479  -3.029 -12.366  1.00 26.96 LIG 0.04  C 
BRANCH 68 69
ATOM     69  CG  GLU C   3      25.163  -3.841 -12.445  1.00 28.76 LIG 0.12  C 
BRANCH 69 70
ATOM     70  CD  GLU C   3      23.999  -3.076 -13.026  1.00 29.94 LIG 0.17  C 
ATOM     71 OE1  GLU C   3      23.734  -1.955 -12.551  1.00 33.38 LIG-0.65  OA
ATOM     72 OE2  GLU C   3      23.368  -3.587 -13.984  1.00 31.06 LIG-0.65  OA
ENDBRANCH 69 70
ENDBRANCH 68 69
ENDBRANCH 41 68
ENDBRANCH 1 41
TORSDOF 32
ENDMDL
MODEL 19
USER: ADFR SOLUTION from run 197
USER: SCORE 21.332375 LL:  -3.957 LR: -19.587 RR:   0.000 FEB: -10.042
USER: RMSD 13.646078
USER: SEED 196
USER: STATUS no improvement in best in 8 clusters for 5 generations
USER: GENES 34
USER: genes 0 Translation |==|  0.45475 0.73913 0.29642
USER: genes 1 Rotation |==|  0.87455 0.21858 0.35145 0.59192
USER: genes 2 Torsion [C]-N--CA-[CB] |==|  0.20554
USER: genes 3 Torsion [N]-CA--C-[N] |==|  0.69301
USER: genes 4 Torsion [C]-N--CA-[CB] |==|  0.20817
USER: genes 5 Torsion [N]-CA--CB-[CG] |==|  0.57376
USER: genes 6 Torsion [CA]-CB--CG-[CD] |==|  0.37709
USER: genes 7 Torsion [CB]-CG--CD-[OE2] |==|  0.29852
USER: genes 8 Torsion [N]-CA--C-[N] |==|  0.41681
USER: genes 9 Torsion [C]-N--CA-[C] |==|  0.65490
USER: genes 10 Torsion [N]-CA--C-[N] |==|  0.02863
USER: genes 11 Torsion [C]-N--CA-[CB] |==|  0.39588
USER: genes 12 Torsion [N]-CA--C-[OXT] |==|  0.07261
USER: genes 13 Torsion [N]-CA--CB-[SG] |==|  0.23736
USER: genes 14 Torsion [CA]-CB--SG-[HG] |==|  0.93582
USER: genes 15 Torsion [N]-CA--CB-[CG] |==|  0.70653
USER: genes 16 Torsion [CA]-CB--CG-[CD] |==|  0.24287
USER: genes 17 Torsion [CB]-CG--CD-[OE1] |==|  0.97899
USER: genes 18 Torsion [N]-CA--CB-[CG] |==|  0.92402
USER: genes 19 Torsion [CA]-CB--CG-[SD] |==|  0.69909
USER: genes 20 Torsion [CB]-CG--SD-[CE] |==|  0.40221
USER: genes 21 Torsion [N]-C--CA-[N] |==|  0.88678
USER: genes 22 Torsion [C]-CA--N-[C] |==|  0.80561
USER: genes 23 Torsion [N]-C--CA-[N] |==|  0.34283
USER: genes 24 Torsion [C]-CA--CB-[CG] |==|  0.73018
USER: genes 25 Torsion [CA]-CB--CG-[OD1] |==|  0.22333
USER: genes 26 Torsion [C]-CA--N-[C] |==|  0.76196
USER: genes 27 Torsion [N]-C--CA-[N] |==|  0.46605
USER: genes 28 Torsion [C]-CA--N-[C] |==|  0.79384
USER: genes 29 Torsion [C]-CA--CB-[CG] |==|  0.30322
USER: genes 30 Torsion [CA]-CB--CG-[CD1] |==|  0.40849
USER: genes 31 Torsion [C]-CA--CB-[CG] |==|  0.28274
USER: genes 32 Torsion [CA]-CB--CG-[CD] |==|  0.68733
USER: genes 33 Torsion [CB]-CG--CD-[OE1] |==|  0.90190
ROOT
ATOM      1  C   GLU C   3      27.368   3.182 -13.725  1.00 25.67 LIG 0.24  C 
ATOM      2 O    GLU C   3      26.941   4.139 -13.064  1.00 24.73 LIG-0.27  OA
ATOM      3  N   MET C   4      27.192   1.901 -13.388  1.00 25.06 LIG-0.35  N 
ATOM      4 H    MET C   4      27.510   1.247 -13.846  1.00 25.06 LIG 0.16  HD
ENDROOT
BRANCH 3 5
ATOM      5  CA  MET C   4      26.440   1.481 -12.203  1.00 24.76 LIG 0.18  C 
BRANCH 5 6
ATOM      6  C   MET C   4      26.734   0.021 -11.901  1.00 24.60 LIG 0.24  C 
ATOM      7 O    MET C   4      27.857  -0.345 -11.540  1.00 25.19 LIG-0.27  OA
ATOM      8  N   GLU C   5      25.728  -0.814 -12.111  1.00 23.81 LIG-0.35  N 
ATOM      9 H    GLU C   5      24.981  -0.580 -12.468  1.00 23.81 LIG 0.16  HD
BRANCH 8 10
ATOM     10  CA  GLU C   5      25.798  -2.204 -11.755  1.00 23.16 LIG 0.18  C 
BRANCH 10 11
ATOM     11  CB  GLU C   5      25.661  -2.342 -10.241  1.00 23.03 LIG 0.04  C 
BRANCH 11 12
ATOM     12  CG  GLU C   5      26.341  -3.602  -9.706  1.00 23.31 LIG 0.12  C 
BRANCH 12 13
ATOM     13  CD  GLU C   5      27.166  -3.375  -8.438  1.00 24.36 LIG 0.17  C 
ATOM     14 OE2  GLU C   5      26.716  -3.818  -7.347  1.00 22.25 LIG-0.65  OA
ATOM     15 OE1  GLU C   5      28.245  -2.756  -8.507  1.00 21.71 LIG-0.65  OA
ENDBRANCH 12 13
ENDBRANCH 11 12
ENDBRANCH 10 11
BRANCH 10 16
ATOM     16  C   GLU C   5      24.681  -2.944 -12.447  1.00 22.53 LIG 0.24  C 
ATOM     17  N   GLU C   6      24.911  -4.218 -12.753  1.00 22.45 LIG-0.35  N 
ATOM     18 H    GLU C   6      25.677  -4.601 -12.678  1.00 22.45 LIG 0.16  HD
ATOM     19 O    GLU C   5      23.637  -2.363 -12.715  1.00 22.53 LIG-0.27  OA
BRANCH 17 20
ATOM     20  CA  GLU C   6      23.835  -5.095 -13.257  1.00 22.27 LIG 0.18  C 
BRANCH 20 21
ATOM     21  C   GLU C   6      23.709  -6.329 -12.379  1.00 21.97 LIG 0.24  C 
ATOM     22 O    GLU C   6      22.996  -7.271 -12.727  1.00 22.60 LIG-0.27  OA
ATOM     23  N   CYS C   7      24.383  -6.343 -11.231  1.00 20.65 LIG-0.34  N 
ATOM     24 H    CYS C   7      24.849  -5.689 -10.924  1.00 20.65 LIG 0.16  HD
BRANCH 23 25
ATOM     25  CA  CYS C   7      24.358  -7.543 -10.395  1.00 20.43 LIG 0.19  C 
BRANCH 25 26
ATOM     26  C   CYS C   7      23.218  -7.493  -9.396  1.00 19.69 LIG 0.20  C 
ATOM     27 O    CYS C   7      23.246  -8.105  -8.332  1.00 19.84 LIG-0.65  OA
ATOM     28 OXT  CYS C   7      22.216  -6.829  -9.646  1.00 20.10 LIG-0.65  OA
ENDBRANCH 25 26
BRANCH 25 29
ATOM     29  CB  CYS C   7      25.733  -7.783  -9.737  1.00 20.27 LIG 0.11  C 
BRANCH 29 30
ATOM     30 SG   CYS C   7      25.955  -6.854  -8.165  1.00 22.98 LIG-0.18  SA
ATOM     31 HG   CYS C   7      25.217  -5.908  -8.152  1.00 22.98 LIG 0.10  HD
ENDBRANCH 29 30
ENDBRANCH 25 29
ENDBRANCH 23 25
ENDBRANCH 20 21
BRANCH 20 32
ATOM     32  CB  GLU C   6      24.121  -5.510 -14.699  1.00 22.58 LIG 0.04  C 
BRANCH 32 33
ATOM     33  CG  GLU C   6      23.242  -4.791 -15.692  1.00 24.64 LIG 0.12  C 
BRANCH 33 34
ATOM     34  CD  GLU C   6      23.813  -3.454 -16.146  1.00 27.63 LIG 0.17  C 
ATOM     35 OE1  GLU C   6      24.839  -2.994 -15.587  1.00 27.17 LIG-0.65  OA
ATOM     36 OE2  GLU C   6      23.222  -2.870 -17.082  1.00 31.71 LIG-0.65  OA
ENDBRANCH 33 34
ENDBRANCH 32 33
ENDBRANCH 20 32
ENDBRANCH 17 20
ENDBRANCH 10 16
ENDBRANCH 8 10
ENDBRANCH 5 6
BRANCH 5 37
ATOM     37  CB  MET C   4      24.934   1.665 -12.421  1.00 24.86 LIG 0.04  C 
BRANCH 37 38
ATOM     38  CG  MET C   4      24.534   2.774 -13.417  1.00 24.76 LIG 0.08  C 
BRANCH 38 39
ATOM     39 SD   MET C   4      23.794   4.252 -12.681  1.00 26.68 LIG-0.17  SA
ATOM     40  CE  MET C   4      24.466   5.510 -13.784  1.00 24.50 LIG 0.09  C 
ENDBRANCH 38 39
ENDBRANCH 37 38
ENDBRANCH 5 37
ENDBRANCH 3 5
BRANCH 1 41
ATOM     41  CA  GLU C   3      28.112   3.429 -15.037  1.00 26.55 LIG 0.18  C 
BRANCH 41 42
ATOM     42  N   GLU C   3      29.224   2.491 -15.154  1.00 27.07 LIG-0.35  N 
ATOM     43 H    GLU C   3      29.121   1.889 -15.760  1.00 27.07 LIG 0.16  HD
ATOM     44  C   ASP C   2      30.297   2.584 -14.373  1.00 28.06 LIG 0.24  C 
ATOM     45 O    ASP C   2      30.430   3.475 -13.536  1.00 27.76 LIG-0.27  OA
BRANCH 44 46
ATOM     46  CA  ASP C   2      31.401   1.548 -14.604  1.00 28.68 LIG 0.19  C 
BRANCH 46 47
ATOM     47  CB  ASP C   2      31.519   0.554 -13.432  1.00 28.90 LIG 0.15  C 
BRANCH 47 48
ATOM     48  CG  ASP C   2      32.611   0.915 -12.431  1.00 30.38 LIG 0.17  C 
ATOM     49 OD2  ASP C   2      33.724   0.356 -12.502  1.00 31.55 LIG-0.65  OA
ATOM     50 OD1  ASP C   2      32.349   1.796 -11.572  1.00 32.13 LIG-0.65  OA
ENDBRANCH 47 48
ENDBRANCH 46 47
BRANCH 46 51
ATOM     51  N   ASP C   2      32.712   2.143 -14.899  1.00 28.83 LIG-0.34  N 
ATOM     52  C   PHE C   1      33.036   2.482 -16.145  1.00 29.29 LIG 0.24  C 
ATOM     53 O    PHE C   1      32.224   2.480 -17.073  1.00 29.28 LIG-0.27  OA
ATOM     54 H    ASP C   2      33.226   2.246 -14.217  1.00 28.83 LIG 0.16  HD
BRANCH 52 55
ATOM     55  CA  PHE C   1      34.488   2.854 -16.407  1.00 29.71 LIG 0.18  C 
BRANCH 55 56
ATOM     56  N   PHE C   1      34.682   2.901 -17.855  1.00 30.30 LIG-0.35  N 
ATOM     57 H    PHE C   1      34.745   3.698 -18.172  1.00 30.30 LIG 0.16  HD
ATOM     58  C   ACE C   0      34.754   1.796 -18.614  1.00 30.61 LIG 0.21  C 
ATOM     59  CH3 ACE C   0      35.211   2.030 -20.028  1.00 31.12 LIG 0.12  C 
ATOM     60 O    ACE C   0      34.210   0.735 -18.288  1.00 30.74 LIG-0.27  OA
ENDBRANCH 55 56
BRANCH 55 61
ATOM     61  CB  PHE C   1      34.830   4.216 -15.789  1.00 29.76 LIG 0.07  C 
BRANCH 61 62
ATOM     62  CG  PHE C   1      35.747   4.152 -14.580  1.00 30.32 LIG-0.06  A 
ATOM     63  CD1 PHE C   1      36.659   5.176 -14.337  1.00 31.60 LIG 0.01  A 
ATOM     64  CE1 PHE C   1      37.523   5.124 -13.238  1.00 31.29 LIG 0.00  A 
ATOM     65  CZ  PHE C   1      37.472   4.040 -12.373  1.00 31.54 LIG 0.00  A 
ATOM     66  CE2 PHE C   1      36.568   3.010 -12.606  1.00 29.54 LIG 0.00  A 
ATOM     67  CD2 PHE C   1      35.717   3.070 -13.703  1.00 30.51 LIG 0.01  A 
ENDBRANCH 61 62
ENDBRANCH 55 61
ENDBRANCH 52 55
ENDBRANCH 46 51
ENDBRANCH 44 46
ENDBRANCH 41 42
BRANCH 41 68
ATOM     68  CB  GLU C   3      27.169   3.381 -16.270  1.00 26.96 LIG 0.04  C 
BRANCH 68 69
ATOM     69  CG  GLU C   3      26.714   4.720 -16.903  1.00 28.76 LIG 0.12  C 
BRANCH 69 70
ATOM     70  CD  GLU C   3      25.242   5.010 -16.744  1.00 29.94 LIG 0.17  C 
ATOM     71 OE1  GLU C   3      24.445   4.052 -16.786  1.00 33.38 LIG-0.65  OA
ATOM     72 OE2  GLU C   3      24.885   6.197 -16.545  1.00 31.06 LIG-0.65  OA
ENDBRANCH 69 70
ENDBRANCH 68 69
ENDBRANCH 41 68
ENDBRANCH 1 41
TORSDOF 32
ENDMDL
MODEL 20
USER: ADFR SOLUTION from run 195
USER: SCORE 23.002277 LL:  -5.081 LR: -19.495 RR:   0.000 FEB:  -9.949
USER: RMSD 13.643298
USER: SEED 194
USER: STATUS searching
USER: GENES 34
USER: genes 0 Translation |==|  0.45901 0.67510 0.34358
USER: genes 1 Rotation |==|  0.94552 0.50323 0.34724 0.66783
USER: genes 2 Torsion [C]-N--CA-[CB] |==|  0.87527
USER: genes 3 Torsion [N]-CA--C-[N] |==|  0.76146
USER: genes 4 Torsion [C]-N--CA-[CB] |==|  0.86044
USER: genes 5 Torsion [N]-CA--CB-[CG] |==|  0.62070
USER: genes 6 Torsion [CA]-CB--CG-[CD] |==|  0.29484
USER: genes 7 Torsion [CB]-CG--CD-[OE2] |==|  0.24539
USER: genes 8 Torsion [N]-CA--C-[N] |==|  0.36941
USER: genes 9 Torsion [C]-N--CA-[C] |==|  0.71793
USER: genes 10 Torsion [N]-CA--C-[N] |==|  0.89710
USER: genes 11 Torsion [C]-N--CA-[CB] |==|  0.14070
USER: genes 12 Torsion [N]-CA--C-[OXT] |==|  0.07409
USER: genes 13 Torsion [N]-CA--CB-[SG] |==|  0.18595
USER: genes 14 Torsion [CA]-CB--SG-[HG] |==|  0.90274
USER: genes 15 Torsion [N]-CA--CB-[CG] |==|  0.41780
USER: genes 16 Torsion [CA]-CB--CG-[CD] |==|  0.57892
USER: genes 17 Torsion [CB]-CG--CD-[OE1] |==|  0.81377
USER: genes 18 Torsion [N]-CA--CB-[CG] |==|  0.57005
USER: genes 19 Torsion [CA]-CB--CG-[SD] |==|  0.37581
USER: genes 20 Torsion [CB]-CG--SD-[CE] |==|  0.22967
USER: genes 21 Torsion [N]-C--CA-[N] |==|  0.13490
USER: genes 22 Torsion [C]-CA--N-[C] |==|  0.14926
USER: genes 23 Torsion [N]-C--CA-[N] |==|  0.91884
USER: genes 24 Torsion [C]-CA--CB-[CG] |==|  0.79929
USER: genes 25 Torsion [CA]-CB--CG-[OD1] |==|  0.22175
USER: genes 26 Torsion [C]-CA--N-[C] |==|  0.84337
USER: genes 27 Torsion [N]-C--CA-[N] |==|  0.46111
USER: genes 28 Torsion [C]-CA--N-[C] |==|  0.79280
USER: genes 29 Torsion [C]-CA--CB-[CG] |==|  0.73031
USER: genes 30 Torsion [CA]-CB--CG-[CD1] |==|  0.70666
USER: genes 31 Torsion [C]-CA--CB-[CG] |==|  0.48068
USER: genes 32 Torsion [CA]-CB--CG-[CD] |==|  0.70814
USER: genes 33 Torsion [CB]-CG--CD-[OE1] |==|  0.02777
ROOT
ATOM      1  C   GLU C   3      27.448   1.405 -12.523  1.00 25.67 LIG 0.24  C 
ATOM      2 O    GLU C   3      26.695   1.393 -11.538  1.00 24.73 LIG-0.27  OA
ATOM      3  N   MET C   4      28.619   0.766 -12.576  1.00 25.06 LIG-0.35  N 
ATOM      4 H    MET C   4      29.141   0.797 -13.259  1.00 25.06 LIG 0.16  HD
ENDROOT
BRANCH 3 5
ATOM      5  CA  MET C   4      29.134  -0.055 -11.478  1.00 24.76 LIG 0.18  C 
BRANCH 5 6
ATOM      6  C   MET C   4      28.400  -1.385 -11.444  1.00 24.60 LIG 0.24  C 
ATOM      7 O    MET C   4      28.825  -2.367 -12.061  1.00 25.19 LIG-0.27  OA
ATOM      8  N   GLU C   5      27.263  -1.387 -10.766  1.00 23.81 LIG-0.35  N 
ATOM      9 H    GLU C   5      26.907  -0.680 -10.430  1.00 23.81 LIG 0.16  HD
BRANCH 8 10
ATOM     10  CA  GLU C   5      26.514  -2.590 -10.530  1.00 23.16 LIG 0.18  C 
BRANCH 10 11
ATOM     11  CB  GLU C   5      26.323  -3.331 -11.851  1.00 23.03 LIG 0.04  C 
BRANCH 11 12
ATOM     12  CG  GLU C   5      24.901  -3.864 -12.021  1.00 23.31 LIG 0.12  C 
BRANCH 12 13
ATOM     13  CD  GLU C   5      24.057  -3.081 -13.028  1.00 24.36 LIG 0.17  C 
ATOM     14 OE2  GLU C   5      24.102  -3.427 -14.240  1.00 22.25 LIG-0.65  OA
ATOM     15 OE1  GLU C   5      23.361  -2.124 -12.638  1.00 21.71 LIG-0.65  OA
ENDBRANCH 12 13
ENDBRANCH 11 12
ENDBRANCH 10 11
BRANCH 10 16
ATOM     16  C   GLU C   5      27.272  -3.456  -9.554  1.00 22.53 LIG 0.24  C 
ATOM     17  N   GLU C   6      26.572  -3.969  -8.546  1.00 22.45 LIG-0.35  N 
ATOM     18 H    GLU C   6      25.760  -3.753  -8.363  1.00 22.45 LIG 0.16  HD
ATOM     19 O    GLU C   5      28.473  -3.637  -9.704  1.00 22.53 LIG-0.27  OA
BRANCH 17 20
ATOM     20  CA  GLU C   6      27.156  -4.978  -7.639  1.00 22.27 LIG 0.18  C 
BRANCH 20 21
ATOM     21  C   GLU C   6      26.658  -6.366  -8.008  1.00 21.97 LIG 0.24  C 
ATOM     22 O    GLU C   6      27.412  -7.337  -7.936  1.00 22.60 LIG-0.27  OA
ATOM     23  N   CYS C   7      25.397  -6.483  -8.416  1.00 20.65 LIG-0.34  N 
ATOM     24 H    CYS C   7      24.853  -5.827  -8.531  1.00 20.65 LIG 0.16  HD
BRANCH 23 25
ATOM     25  CA  CYS C   7      24.852  -7.809  -8.701  1.00 20.43 LIG 0.19  C 
BRANCH 25 26
ATOM     26  C   CYS C   7      23.389  -7.731  -9.091  1.00 19.69 LIG 0.20  C 
ATOM     27 O    CYS C   7      22.610  -8.665  -8.926  1.00 19.84 LIG-0.65  OA
ATOM     28 OXT  CYS C   7      22.949  -6.705  -9.604  1.00 20.10 LIG-0.65  OA
ENDBRANCH 25 26
BRANCH 25 29
ATOM     29  CB  CYS C   7      25.116  -8.776  -7.527  1.00 20.27 LIG 0.11  C 
BRANCH 29 30
ATOM     30 SG   CYS C   7      24.195  -8.327  -5.999  1.00 22.98 LIG-0.18  SA
ATOM     31 HG   CYS C   7      24.121  -7.133  -5.912  1.00 22.98 LIG 0.10  HD
ENDBRANCH 29 30
ENDBRANCH 25 29
ENDBRANCH 23 25
ENDBRANCH 20 21
BRANCH 20 32
ATOM     32  CB  GLU C   6      26.790  -4.662  -6.190  1.00 22.58 LIG 0.04  C 
BRANCH 32 33
ATOM     33  CG  GLU C   6      26.701  -5.902  -5.334  1.00 24.64 LIG 0.12  C 
BRANCH 33 34
ATOM     34  CD  GLU C   6      25.731  -5.761  -4.168  1.00 27.63 LIG 0.17  C 
ATOM     35 OE1  GLU C   6      25.990  -4.960  -3.237  1.00 27.17 LIG-0.65  OA
ATOM     36 OE2  GLU C   6      24.694  -6.461  -4.202  1.00 31.71 LIG-0.65  OA
ENDBRANCH 33 34
ENDBRANCH 32 33
ENDBRANCH 20 32
ENDBRANCH 17 20
ENDBRANCH 10 16
ENDBRANCH 8 10
ENDBRANCH 5 6
BRANCH 5 37
ATOM     37  CB  MET C   4      28.957   0.661 -10.134  1.00 24.86 LIG 0.04  C 
BRANCH 37 38
ATOM     38  CG  MET C   4      29.941   0.245  -9.022  1.00 24.76 LIG 0.08  C 
BRANCH 38 39
ATOM     39 SD   MET C   4      30.664   1.607  -8.073  1.00 26.68 LIG-0.17  SA
ATOM     40  CE  MET C   4      29.333   1.893  -6.891  1.00 24.50 LIG 0.09  C 
ENDBRANCH 38 39
ENDBRANCH 37 38
ENDBRANCH 5 37
ENDBRANCH 3 5
BRANCH 1 41
ATOM     41  CA  GLU C   3      27.036   2.149 -13.792  1.00 26.55 LIG 0.18  C 
BRANCH 41 42
ATOM     42  N   GLU C   3      27.194   1.271 -14.948  1.00 27.07 LIG-0.35  N 
ATOM     43 H    GLU C   3      27.676   1.598 -15.581  1.00 27.07 LIG 0.16  HD
ATOM     44  C   ASP C   2      26.627   0.068 -14.989  1.00 28.06 LIG 0.24  C 
ATOM     45 O    ASP C   2      25.970  -0.385 -14.055  1.00 27.76 LIG-0.27  OA
BRANCH 44 46
ATOM     46  CA  ASP C   2      26.880  -0.763 -16.251  1.00 28.68 LIG 0.19  C 
BRANCH 46 47
ATOM     47  CB  ASP C   2      28.039  -1.762 -16.067  1.00 28.90 LIG 0.15  C 
BRANCH 47 48
ATOM     48  CG  ASP C   2      29.413  -1.104 -16.027  1.00 30.38 LIG 0.17  C 
ATOM     49 OD2  ASP C   2      30.122  -1.090 -17.054  1.00 31.55 LIG-0.65  OA
ATOM     50 OD1  ASP C   2      29.775  -0.570 -14.947  1.00 32.13 LIG-0.65  OA
ENDBRANCH 47 48
ENDBRANCH 46 47
BRANCH 46 51
ATOM     51  N   ASP C   2      27.097   0.051 -17.455  1.00 28.83 LIG-0.34  N 
ATOM     52  C   PHE C   1      26.186   0.941 -17.845  1.00 29.29 LIG 0.24  C 
ATOM     53 O    PHE C   1      25.215   1.252 -17.152  1.00 29.28 LIG-0.27  OA
ATOM     54 H    ASP C   2      27.839  -0.098 -17.865  1.00 28.83 LIG 0.16  HD
BRANCH 52 55
ATOM     55  CA  PHE C   1      26.366   1.558 -19.224  1.00 29.71 LIG 0.18  C 
BRANCH 55 56
ATOM     56  N   PHE C   1      25.114   2.225 -19.580  1.00 30.30 LIG-0.35  N 
ATOM     57 H    PHE C   1      25.149   3.082 -19.528  1.00 30.30 LIG 0.16  HD
ATOM     58  C   ACE C   0      24.014   1.551 -19.953  1.00 30.61 LIG 0.21  C 
ATOM     59  CH3 ACE C   0      22.916   2.405 -20.525  1.00 31.12 LIG 0.12  C 
ATOM     60 O    ACE C   0      23.793   0.393 -19.587  1.00 30.74 LIG-0.27  OA
ENDBRANCH 55 56
BRANCH 55 61
ATOM     61  CB  PHE C   1      27.518   2.571 -19.231  1.00 29.76 LIG 0.07  C 
BRANCH 61 62
ATOM     62  CG  PHE C   1      27.091   4.018 -19.066  1.00 30.32 LIG-0.06  A 
ATOM     63  CD1 PHE C   1      27.106   4.883 -20.159  1.00 31.60 LIG 0.01  A 
ATOM     64  CE1 PHE C   1      26.734   6.224 -20.020  1.00 31.29 LIG 0.00  A 
ATOM     65  CZ  PHE C   1      26.338   6.704 -18.779  1.00 31.54 LIG 0.00  A 
ATOM     66  CE2 PHE C   1      26.322   5.853 -17.680  1.00 29.54 LIG 0.00  A 
ATOM     67  CD2 PHE C   1      26.697   4.523 -17.828  1.00 30.51 LIG 0.01  A 
ENDBRANCH 61 62
ENDBRANCH 55 61
ENDBRANCH 52 55
ENDBRANCH 46 51
ENDBRANCH 44 46
ENDBRANCH 41 42
BRANCH 41 68
ATOM     68  CB  GLU C   3      25.603   2.740 -13.694  1.00 26.96 LIG 0.04  C 
BRANCH 68 69
ATOM     69  CG  GLU C   3      25.105   3.660 -14.836  1.00 28.76 LIG 0.12  C 
BRANCH 69 70
ATOM     70  CD  GLU C   3      25.074   5.126 -14.480  1.00 29.94 LIG 0.17  C 
ATOM     71 OE1  GLU C   3      25.612   5.485 -13.415  1.00 33.38 LIG-0.65  OA
ATOM     72 OE2  GLU C   3      24.536   5.925 -15.286  1.00 31.06 LIG-0.65  OA
ENDBRANCH 69 70
ENDBRANCH 68 69
ENDBRANCH 41 68
ENDBRANCH 1 41
TORSDOF 32
ENDMDL
MODEL 21
USER: ADFR SOLUTION from run 107
USER: SCORE 20.980531 LL:  -4.637 LR: -19.470 RR:   0.000 FEB:  -9.925
USER: RMSD 12.965995
USER: SEED 106
USER: STATUS no improvement in best in 2 clusters for 5 generations
USER: GENES 34
USER: genes 0 Translation |==|  0.58895 0.52167 0.49760
USER: genes 1 Rotation |==|  0.61510 0.70444 0.94101 0.52171
USER: genes 2 Torsion [C]-N--CA-[CB] |==|  0.21081
USER: genes 3 Torsion [N]-CA--C-[N] |==|  0.56537
USER: genes 4 Torsion [C]-N--CA-[CB] |==|  0.34031
USER: genes 5 Torsion [N]-CA--CB-[CG] |==|  0.72819
USER: genes 6 Torsion [CA]-CB--CG-[CD] |==|  0.70061
USER: genes 7 Torsion [CB]-CG--CD-[OE2] |==|  0.96362
USER: genes 8 Torsion [N]-CA--C-[N] |==|  0.84510
USER: genes 9 Torsion [C]-N--CA-[C] |==|  0.75556
USER: genes 10 Torsion [N]-CA--C-[N] |==|  0.47668
USER: genes 11 Torsion [C]-N--CA-[CB] |==|  0.83754
USER: genes 12 Torsion [N]-CA--C-[OXT] |==|  0.05164
USER: genes 13 Torsion [N]-CA--CB-[SG] |==|  0.88213
USER: genes 14 Torsion [CA]-CB--SG-[HG] |==|  0.93196
USER: genes 15 Torsion [N]-CA--CB-[CG] |==|  0.60660
USER: genes 16 Torsion [CA]-CB--CG-[CD] |==|  0.01349
USER: genes 17 Torsion [CB]-CG--CD-[OE1] |==|  0.25667
USER: genes 18 Torsion [N]-CA--CB-[CG] |==|  0.99747
USER: genes 19 Torsion [CA]-CB--CG-[SD] |==|  0.32503
USER: genes 20 Torsion [CB]-CG--SD-[CE] |==|  0.54933
USER: genes 21 Torsion [N]-C--CA-[N] |==|  0.87008
USER: genes 22 Torsion [C]-CA--N-[C] |==|  0.85385
USER: genes 23 Torsion [N]-C--CA-[N] |==|  0.11558
USER: genes 24 Torsion [C]-CA--CB-[CG] |==|  0.55780
USER: genes 25 Torsion [CA]-CB--CG-[OD1] |==|  0.29700
USER: genes 26 Torsion [C]-CA--N-[C] |==|  0.15018
USER: genes 27 Torsion [N]-C--CA-[N] |==|  0.52129
USER: genes 28 Torsion [C]-CA--N-[C] |==|  0.75657
USER: genes 29 Torsion [C]-CA--CB-[CG] |==|  0.58006
USER: genes 30 Torsion [CA]-CB--CG-[CD1] |==|  0.74703
USER: genes 31 Torsion [C]-CA--CB-[CG] |==|  0.46038
USER: genes 32 Torsion [CA]-CB--CG-[CD] |==|  0.80603
USER: genes 33 Torsion [CB]-CG--CD-[OE1] |==|  0.12543
ROOT
ATOM      1  C   GLU C   3      29.884  -2.853  -8.595  1.00 25.67 LIG 0.24  C 
ATOM      2 O    GLU C   3      30.883  -3.558  -8.794  1.00 24.73 LIG-0.27  OA
ATOM      3  N   MET C   4      28.884  -3.186  -7.775  1.00 25.06 LIG-0.35  N 
ATOM      4 H    MET C   4      28.187  -2.696  -7.660  1.00 25.06 LIG 0.16  HD
ENDROOT
BRANCH 3 5
ATOM      5  CA  MET C   4      28.873  -4.421  -6.987  1.00 24.76 LIG 0.18  C 
BRANCH 5 6
ATOM      6  C   MET C   4      27.461  -4.704  -6.499  1.00 24.60 LIG 0.24  C 
ATOM      7 O    MET C   4      26.479  -4.201  -7.054  1.00 25.19 LIG-0.27  OA
ATOM      8  N   GLU C   5      27.378  -5.467  -5.420  1.00 23.81 LIG-0.35  N 
ATOM      9 H    GLU C   5      28.060  -5.727  -4.967  1.00 23.81 LIG 0.16  HD
BRANCH 8 10
ATOM     10  CA  GLU C   5      26.120  -5.934  -4.907  1.00 23.16 LIG 0.18  C 
BRANCH 10 11
ATOM     11  CB  GLU C   5      26.135  -7.459  -4.852  1.00 23.03 LIG 0.04  C 
BRANCH 11 12
ATOM     12  CG  GLU C   5      25.450  -8.094  -6.061  1.00 23.31 LIG 0.12  C 
BRANCH 12 13
ATOM     13  CD  GLU C   5      24.094  -8.729  -5.748  1.00 24.36 LIG 0.17  C 
ATOM     14 OE2  GLU C   5      23.782  -8.904  -4.539  1.00 22.25 LIG-0.65  OA
ATOM     15 OE1  GLU C   5      23.340  -9.067  -6.682  1.00 21.71 LIG-0.65  OA
ENDBRANCH 12 13
ENDBRANCH 11 12
ENDBRANCH 10 11
BRANCH 10 16
ATOM     16  C   GLU C   5      25.914  -5.366  -3.525  1.00 22.53 LIG 0.24  C 
ATOM     17  N   GLU C   6      26.870  -5.610  -2.633  1.00 22.45 LIG-0.35  N 
ATOM     18 H    GLU C   6      27.527  -6.149  -2.766  1.00 22.45 LIG 0.16  HD
ATOM     19 O    GLU C   5      24.896  -4.736  -3.268  1.00 22.53 LIG-0.27  OA
BRANCH 17 20
ATOM     20  CA  GLU C   6      26.875  -4.954  -1.310  1.00 22.27 LIG 0.18  C 
BRANCH 20 21
ATOM     21  C   GLU C   6      27.606  -3.624  -1.386  1.00 21.97 LIG 0.24  C 
ATOM     22 O    GLU C   6      28.229  -3.314  -2.402  1.00 22.60 LIG-0.27  OA
ATOM     23  N   CYS C   7      27.553  -2.827  -0.322  1.00 20.65 LIG-0.34  N 
ATOM     24 H    CYS C   7      27.175  -3.025   0.425  1.00 20.65 LIG 0.16  HD
BRANCH 23 25
ATOM     25  CA  CYS C   7      28.172  -1.503  -0.381  1.00 20.43 LIG 0.19  C 
BRANCH 25 26
ATOM     26  C   CYS C   7      27.423  -0.588  -1.330  1.00 19.69 LIG 0.20  C 
ATOM     27 O    CYS C   7      27.919   0.437  -1.787  1.00 19.84 LIG-0.65  OA
ATOM     28 OXT  CYS C   7      26.271  -0.860  -1.658  1.00 20.10 LIG-0.65  OA
ENDBRANCH 25 26
BRANCH 25 29
ATOM     29  CB  CYS C   7      29.676  -1.614  -0.705  1.00 20.27 LIG 0.11  C 
BRANCH 29 30
ATOM     30 SG   CYS C   7      30.516  -2.970   0.213  1.00 22.98 LIG-0.18  SA
ATOM     31 HG   CYS C   7      29.905  -3.212   1.217  1.00 22.98 LIG 0.10  HD
ENDBRANCH 29 30
ENDBRANCH 25 29
ENDBRANCH 23 25
ENDBRANCH 20 21
BRANCH 20 32
ATOM     32  CB  GLU C   6      27.542  -5.856  -0.273  1.00 22.58 LIG 0.04  C 
BRANCH 32 33
ATOM     33  CG  GLU C   6      26.855  -5.800   1.069  1.00 24.64 LIG 0.12  C 
BRANCH 33 34
ATOM     34  CD  GLU C   6      25.588  -4.955   1.063  1.00 27.63 LIG 0.17  C 
ATOM     35 OE1  GLU C   6      24.478  -5.500   0.841  1.00 27.17 LIG-0.65  OA
ATOM     36 OE2  GLU C   6      25.718  -3.732   1.294  1.00 31.71 LIG-0.65  OA
ENDBRANCH 33 34
ENDBRANCH 32 33
ENDBRANCH 20 32
ENDBRANCH 17 20
ENDBRANCH 10 16
ENDBRANCH 8 10
ENDBRANCH 5 6
BRANCH 5 37
ATOM     37  CB  MET C   4      29.815  -4.307  -5.784  1.00 24.86 LIG 0.04  C 
BRANCH 37 38
ATOM     38  CG  MET C   4      30.579  -2.972  -5.658  1.00 24.76 LIG 0.08  C 
BRANCH 38 39
ATOM     39 SD   MET C   4      30.208  -2.000  -4.177  1.00 26.68 LIG-0.17  SA
ATOM     40  CE  MET C   4      30.841  -0.395  -4.702  1.00 24.50 LIG 0.09  C 
ENDBRANCH 38 39
ENDBRANCH 37 38
ENDBRANCH 5 37
ENDBRANCH 3 5
BRANCH 1 41
ATOM     41  CA  GLU C   3      29.761  -1.490  -9.275  1.00 26.55 LIG 0.18  C 
BRANCH 41 42
ATOM     42  N   GLU C   3      28.415  -1.333  -9.819  1.00 27.07 LIG-0.35  N 
ATOM     43 H    GLU C   3      28.014  -0.611  -9.577  1.00 27.07 LIG 0.16  HD
ATOM     44  C   ASP C   2      27.879  -2.248 -10.623  1.00 28.06 LIG 0.24  C 
ATOM     45 O    ASP C   2      28.489  -3.255 -10.977  1.00 27.76 LIG-0.27  OA
BRANCH 44 46
ATOM     46  CA  ASP C   2      26.466  -1.960 -11.138  1.00 28.68 LIG 0.19  C 
BRANCH 46 47
ATOM     47  CB  ASP C   2      26.063  -2.904 -12.287  1.00 28.90 LIG 0.15  C 
BRANCH 47 48
ATOM     48  CG  ASP C   2      24.927  -2.367 -13.150  1.00 30.38 LIG 0.17  C 
ATOM     49 OD2  ASP C   2      23.766  -2.329 -12.690  1.00 31.55 LIG-0.65  OA
ATOM     50 OD1  ASP C   2      25.212  -1.953 -14.303  1.00 32.13 LIG-0.65  OA
ENDBRANCH 47 48
ENDBRANCH 46 47
BRANCH 46 51
ATOM     51  N   ASP C   2      26.260  -0.560 -11.534  1.00 28.83 LIG-0.34  N 
ATOM     52  C   PHE C   1      27.073   0.022 -12.412  1.00 29.29 LIG 0.24  C 
ATOM     53 O    PHE C   1      27.919  -0.602 -13.057  1.00 29.28 LIG-0.27  OA
ATOM     54 H    ASP C   2      25.590  -0.172 -11.159  1.00 28.83 LIG 0.16  HD
BRANCH 52 55
ATOM     55  CA  PHE C   1      26.949   1.529 -12.580  1.00 29.71 LIG 0.18  C 
BRANCH 55 56
ATOM     56  N   PHE C   1      27.791   1.924 -13.707  1.00 30.30 LIG-0.35  N 
ATOM     57 H    PHE C   1      27.378   1.944 -14.461  1.00 30.30 LIG 0.16  HD
ATOM     58  C   ACE C   0      29.092   2.225 -13.570  1.00 30.61 LIG 0.21  C 
ATOM     59  CH3 ACE C   0      29.725   2.852 -14.783  1.00 31.12 LIG 0.12  C 
ATOM     60 O    ACE C   0      29.785   1.760 -12.660  1.00 30.74 LIG-0.27  OA
ENDBRANCH 55 56
BRANCH 55 61
ATOM     61  CB  PHE C   1      25.494   1.938 -12.846  1.00 29.76 LIG 0.07  C 
BRANCH 61 62
ATOM     62  CG  PHE C   1      25.331   3.202 -13.671  1.00 30.32 LIG-0.06  A 
ATOM     63  CD1 PHE C   1      25.234   4.442 -13.043  1.00 31.60 LIG 0.01  A 
ATOM     64  CE1 PHE C   1      25.065   5.614 -13.789  1.00 31.29 LIG 0.00  A 
ATOM     65  CZ  PHE C   1      24.997   5.546 -15.173  1.00 31.54 LIG 0.00  A 
ATOM     66  CE2 PHE C   1      25.089   4.315 -15.811  1.00 29.54 LIG 0.00  A 
ATOM     67  CD2 PHE C   1      25.253   3.156 -15.062  1.00 30.51 LIG 0.01  A 
ENDBRANCH 61 62
ENDBRANCH 55 61
ENDBRANCH 52 55
ENDBRANCH 46 51
ENDBRANCH 44 46
ENDBRANCH 41 42
BRANCH 41 68
ATOM     68  CB  GLU C   3      30.155  -0.320  -8.333  1.00 26.96 LIG 0.04  C 
BRANCH 68 69
ATOM     69  CG  GLU C   3      30.407   1.076  -8.955  1.00 28.76 LIG 0.12  C 
BRANCH 69 70
ATOM     70  CD  GLU C   3      31.661   1.162  -9.790  1.00 29.94 LIG 0.17  C 
ATOM     71 OE1  GLU C   3      31.896   0.243 -10.598  1.00 33.38 LIG-0.65  OA
ATOM     72 OE2  GLU C   3      32.398   2.171  -9.658  1.00 31.06 LIG-0.65  OA
ENDBRANCH 69 70
ENDBRANCH 68 69
ENDBRANCH 41 68
ENDBRANCH 1 41
TORSDOF 32
ENDMDL
MODEL 22
USER: ADFR SOLUTION from run 125
USER: SCORE 20.400029 LL:  -4.305 LR: -19.404 RR:   0.000 FEB:  -9.858
USER: RMSD 13.300838
USER: SEED 124
USER: STATUS no improvement in best in 2 clusters for 5 generations
USER: GENES 34
USER: genes 0 Translation |==|  0.56386 0.58324 0.44322
USER: genes 1 Rotation |==|  0.55510 0.61047 0.98362 0.52954
USER: genes 2 Torsion [C]-N--CA-[CB] |==|  0.22704
USER: genes 3 Torsion [N]-CA--C-[N] |==|  0.41113
USER: genes 4 Torsion [C]-N--CA-[CB] |==|  0.26299
USER: genes 5 Torsion [N]-CA--CB-[CG] |==|  0.56066
USER: genes 6 Torsion [CA]-CB--CG-[CD] |==|  0.34731
USER: genes 7 Torsion [CB]-CG--CD-[OE2] |==|  0.36506
USER: genes 8 Torsion [N]-CA--C-[N] |==|  0.21035
USER: genes 9 Torsion [C]-N--CA-[C] |==|  0.82742
USER: genes 10 Torsion [N]-CA--C-[N] |==|  0.44111
USER: genes 11 Torsion [C]-N--CA-[CB] |==|  0.21637
USER: genes 12 Torsion [N]-CA--C-[OXT] |==|  0.89119
USER: genes 13 Torsion [N]-CA--CB-[SG] |==|  0.14182
USER: genes 14 Torsion [CA]-CB--SG-[HG] |==|  0.01130
USER: genes 15 Torsion [N]-CA--CB-[CG] |==|  0.54607
USER: genes 16 Torsion [CA]-CB--CG-[CD] |==|  0.63353
USER: genes 17 Torsion [CB]-CG--CD-[OE1] |==|  0.57655
USER: genes 18 Torsion [N]-CA--CB-[CG] |==|  0.31350
USER: genes 19 Torsion [CA]-CB--CG-[SD] |==|  0.44616
USER: genes 20 Torsion [CB]-CG--SD-[CE] |==|  0.64729
USER: genes 21 Torsion [N]-C--CA-[N] |==|  0.88360
USER: genes 22 Torsion [C]-CA--N-[C] |==|  0.73350
USER: genes 23 Torsion [N]-C--CA-[N] |==|  0.51245
USER: genes 24 Torsion [C]-CA--CB-[CG] |==|  0.83139
USER: genes 25 Torsion [CA]-CB--CG-[OD1] |==|  0.79915
USER: genes 26 Torsion [C]-CA--N-[C] |==|  0.72035
USER: genes 27 Torsion [N]-C--CA-[N] |==|  0.46432
USER: genes 28 Torsion [C]-CA--N-[C] |==|  0.70003
USER: genes 29 Torsion [C]-CA--CB-[CG] |==|  0.97153
USER: genes 30 Torsion [CA]-CB--CG-[CD1] |==|  0.32441
USER: genes 31 Torsion [C]-CA--CB-[CG] |==|  0.20173
USER: genes 32 Torsion [CA]-CB--CG-[CD] |==|  0.19997
USER: genes 33 Torsion [CB]-CG--CD-[OE1] |==|  0.86073
ROOT
ATOM      1  C   GLU C   3      29.413  -1.144  -9.982  1.00 25.67 LIG 0.24  C 
ATOM      2 O    GLU C   3      30.460  -1.786 -10.152  1.00 24.73 LIG-0.27  OA
ATOM      3  N   MET C   4      28.243  -1.695  -9.649  1.00 25.06 LIG-0.35  N 
ATOM      4 H    MET C   4      27.520  -1.241  -9.552  1.00 25.06 LIG 0.16  HD
ENDROOT
BRANCH 3 5
ATOM      5  CA  MET C   4      28.073  -3.131  -9.415  1.00 24.76 LIG 0.18  C 
BRANCH 5 6
ATOM      6  C   MET C   4      26.615  -3.513  -9.612  1.00 24.60 LIG 0.24  C 
ATOM      7 O    MET C   4      25.703  -2.742  -9.298  1.00 25.19 LIG-0.27  OA
ATOM      8  N   GLU C   5      26.408  -4.734 -10.079  1.00 23.81 LIG-0.35  N 
ATOM      9 H    GLU C   5      27.033  -5.313 -10.194  1.00 23.81 LIG 0.16  HD
BRANCH 8 10
ATOM     10  CA  GLU C   5      25.100  -5.205 -10.442  1.00 23.16 LIG 0.18  C 
BRANCH 10 11
ATOM     11  CB  GLU C   5      24.888  -4.994 -11.939  1.00 23.03 LIG 0.04  C 
BRANCH 11 12
ATOM     12  CG  GLU C   5      23.408  -4.953 -12.319  1.00 23.31 LIG 0.12  C 
BRANCH 12 13
ATOM     13  CD  GLU C   5      22.994  -3.694 -13.082  1.00 24.36 LIG 0.17  C 
ATOM     14 OE2  GLU C   5      22.317  -3.831 -14.136  1.00 22.25 LIG-0.65  OA
ATOM     15 OE1  GLU C   5      23.339  -2.574 -12.657  1.00 21.71 LIG-0.65  OA
ENDBRANCH 12 13
ENDBRANCH 11 12
ENDBRANCH 10 11
BRANCH 10 16
ATOM     16  C   GLU C   5      24.996  -6.671 -10.105  1.00 22.53 LIG 0.24  C 
ATOM     17  N   GLU C   6      24.841  -6.977  -8.819  1.00 22.45 LIG-0.35  N 
ATOM     18 H    GLU C   6      24.905  -6.408  -8.178  1.00 22.45 LIG 0.16  HD
ATOM     19 O    GLU C   5      25.074  -7.510 -10.994  1.00 22.53 LIG-0.27  OA
BRANCH 17 20
ATOM     20  CA  GLU C   6      24.540  -8.356  -8.387  1.00 22.27 LIG 0.18  C 
BRANCH 20 21
ATOM     21  C   GLU C   6      23.206  -8.806  -8.959  1.00 21.97 LIG 0.24  C 
ATOM     22 O    GLU C   6      22.372  -7.975  -9.321  1.00 22.60 LIG-0.27  OA
ATOM     23  N   CYS C   7      22.978 -10.114  -9.042  1.00 20.65 LIG-0.34  N 
ATOM     24 H    CYS C   7      23.509 -10.727  -8.753  1.00 20.65 LIG 0.16  HD
BRANCH 23 25
ATOM     25  CA  CYS C   7      21.744 -10.593  -9.663  1.00 20.43 LIG 0.19  C 
BRANCH 25 26
ATOM     26  C   CYS C   7      21.370 -11.971  -9.152  1.00 19.69 LIG 0.20  C 
ATOM     27 O    CYS C   7      20.210 -12.293  -8.909  1.00 19.84 LIG-0.65  OA
ATOM     28 OXT  CYS C   7      22.247 -12.808  -8.958  1.00 20.10 LIG-0.65  OA
ENDBRANCH 25 26
BRANCH 25 29
ATOM     29  CB  CYS C   7      21.838 -10.520 -11.201  1.00 20.27 LIG 0.11  C 
BRANCH 29 30
ATOM     30 SG   CYS C   7      23.356 -11.316 -11.871  1.00 22.98 LIG-0.18  SA
ATOM     31 HG   CYS C   7      23.969 -11.826 -10.975  1.00 22.98 LIG 0.10  HD
ENDBRANCH 29 30
ENDBRANCH 25 29
ENDBRANCH 23 25
ENDBRANCH 20 21
BRANCH 20 32
ATOM     32  CB  GLU C   6      24.505  -8.437  -6.861  1.00 22.58 LIG 0.04  C 
BRANCH 32 33
ATOM     33  CG  GLU C   6      24.602  -9.855  -6.356  1.00 24.64 LIG 0.12  C 
BRANCH 33 34
ATOM     34  CD  GLU C   6      23.556 -10.192  -5.302  1.00 27.63 LIG 0.17  C 
ATOM     35 OE1  GLU C   6      23.800 -11.077  -4.445  1.00 27.17 LIG-0.65  OA
ATOM     36 OE2  GLU C   6      22.483  -9.548  -5.337  1.00 31.71 LIG-0.65  OA
ENDBRANCH 33 34
ENDBRANCH 32 33
ENDBRANCH 20 32
ENDBRANCH 17 20
ENDBRANCH 10 16
ENDBRANCH 8 10
ENDBRANCH 5 6
BRANCH 5 37
ATOM     37  CB  MET C   4      28.511  -3.507  -7.995  1.00 24.86 LIG 0.04  C 
BRANCH 37 38
ATOM     38  CG  MET C   4      27.385  -3.976  -7.051  1.00 24.76 LIG 0.08  C 
BRANCH 38 39
ATOM     39 SD   MET C   4      27.924  -4.919  -5.603  1.00 26.68 LIG-0.17  SA
ATOM     40  CE  MET C   4      26.880  -6.377  -5.784  1.00 24.50 LIG 0.09  C 
ENDBRANCH 38 39
ENDBRANCH 37 38
ENDBRANCH 5 37
ENDBRANCH 3 5
BRANCH 1 41
ATOM     41  CA  GLU C   3      29.420   0.379 -10.109  1.00 26.55 LIG 0.18  C 
BRANCH 41 42
ATOM     42  N   GLU C   3      28.209   0.819 -10.797  1.00 27.07 LIG-0.35  N 
ATOM     43 H    GLU C   3      27.522   0.908 -10.287  1.00 27.07 LIG 0.16  HD
ATOM     44  C   ASP C   2      28.201   1.054 -12.106  1.00 28.06 LIG 0.24  C 
ATOM     45 O    ASP C   2      29.207   0.947 -12.803  1.00 27.76 LIG-0.27  OA
BRANCH 44 46
ATOM     46  CA  ASP C   2      26.872   1.524 -12.706  1.00 28.68 LIG 0.19  C 
BRANCH 46 47
ATOM     47  CB  ASP C   2      25.694   0.624 -12.284  1.00 28.90 LIG 0.15  C 
BRANCH 47 48
ATOM     48  CG  ASP C   2      25.844  -0.827 -12.726  1.00 30.38 LIG 0.17  C 
ATOM     49 OD2  ASP C   2      26.077  -1.711 -11.875  1.00 31.55 LIG-0.65  OA
ATOM     50 OD1  ASP C   2      25.701  -1.085 -13.949  1.00 32.13 LIG-0.65  OA
ENDBRANCH 47 48
ENDBRANCH 46 47
BRANCH 46 51
ATOM     51  N   ASP C   2      26.905   1.664 -14.169  1.00 28.83 LIG-0.34  N 
ATOM     52  C   PHE C   1      27.046   2.863 -14.730  1.00 29.29 LIG 0.24  C 
ATOM     53 O    PHE C   1      27.320   3.877 -14.085  1.00 29.28 LIG-0.27  OA
ATOM     54 H    ASP C   2      26.829   0.927 -14.606  1.00 28.83 LIG 0.16  HD
BRANCH 52 55
ATOM     55  CA  PHE C   1      26.821   2.956 -16.232  1.00 29.71 LIG 0.18  C 
BRANCH 55 56
ATOM     56  N   PHE C   1      26.719   4.372 -16.581  1.00 30.30 LIG-0.35  N 
ATOM     57 H    PHE C   1      27.466   4.795 -16.540  1.00 30.30 LIG 0.16  HD
ATOM     58  C   ACE C   0      25.560   4.951 -16.933  1.00 30.61 LIG 0.21  C 
ATOM     59  CH3 ACE C   0      25.694   6.337 -17.501  1.00 31.12 LIG 0.12  C 
ATOM     60 O    ACE C   0      24.466   4.524 -16.549  1.00 30.74 LIG-0.27  OA
ENDBRANCH 55 56
BRANCH 55 61
ATOM     61  CB  PHE C   1      27.977   2.309 -17.006  1.00 29.76 LIG 0.07  C 
BRANCH 61 62
ATOM     62  CG  PHE C   1      29.183   1.946 -16.158  1.00 30.32 LIG-0.06  A 
ATOM     63  CD1 PHE C   1      29.571   0.615 -16.022  1.00 31.60 LIG 0.01  A 
ATOM     64  CE1 PHE C   1      30.669   0.263 -15.230  1.00 31.29 LIG 0.00  A 
ATOM     65  CZ  PHE C   1      31.387   1.250 -14.570  1.00 31.54 LIG 0.00  A 
ATOM     66  CE2 PHE C   1      31.009   2.582 -14.694  1.00 29.54 LIG 0.00  A 
ATOM     67  CD2 PHE C   1      29.915   2.921 -15.481  1.00 30.51 LIG 0.01  A 
ENDBRANCH 61 62
ENDBRANCH 55 61
ENDBRANCH 52 55
ENDBRANCH 46 51
ENDBRANCH 44 46
ENDBRANCH 41 42
BRANCH 41 68
ATOM     68  CB  GLU C   3      29.609   1.086  -8.740  1.00 26.96 LIG 0.04  C 
BRANCH 68 69
ATOM     69  CG  GLU C   3      31.006   1.040  -8.072  1.00 28.76 LIG 0.12  C 
BRANCH 69 70
ATOM     70  CD  GLU C   3      32.043   1.901  -8.750  1.00 29.94 LIG 0.17  C 
ATOM     71 OE1  GLU C   3      32.184   1.791  -9.984  1.00 33.38 LIG-0.65  OA
ATOM     72 OE2  GLU C   3      32.698   2.712  -8.050  1.00 31.06 LIG-0.65  OA
ENDBRANCH 69 70
ENDBRANCH 68 69
ENDBRANCH 41 68
ENDBRANCH 1 41
TORSDOF 32
ENDMDL
MODEL 23
USER: ADFR SOLUTION from run 195
USER: SCORE 22.318386 LL:  -4.651 LR: -19.384 RR:   0.000 FEB:  -9.838
USER: RMSD 13.848544
USER: SEED 194
USER: STATUS searching
USER: GENES 34
USER: genes 0 Translation |==|  0.45838 0.67788 0.34714
USER: genes 1 Rotation |==|  0.96058 0.52338 0.37589 0.64806
USER: genes 2 Torsion [C]-N--CA-[CB] |==|  0.85315
USER: genes 3 Torsion [N]-CA--C-[N] |==|  0.76063
USER: genes 4 Torsion [C]-N--CA-[CB] |==|  0.85674
USER: genes 5 Torsion [N]-CA--CB-[CG] |==|  0.59322
USER: genes 6 Torsion [CA]-CB--CG-[CD] |==|  0.30795
USER: genes 7 Torsion [CB]-CG--CD-[OE2] |==|  0.24832
USER: genes 8 Torsion [N]-CA--C-[N] |==|  0.35464
USER: genes 9 Torsion [C]-N--CA-[C] |==|  0.72602
USER: genes 10 Torsion [N]-CA--C-[N] |==|  0.88942
USER: genes 11 Torsion [C]-N--CA-[CB] |==|  0.14915
USER: genes 12 Torsion [N]-CA--C-[OXT] |==|  0.05672
USER: genes 13 Torsion [N]-CA--CB-[SG] |==|  0.18066
USER: genes 14 Torsion [CA]-CB--SG-[HG] |==|  0.89166
USER: genes 15 Torsion [N]-CA--CB-[CG] |==|  0.41052
USER: genes 16 Torsion [CA]-CB--CG-[CD] |==|  0.57179
USER: genes 17 Torsion [CB]-CG--CD-[OE1] |==|  0.85606
USER: genes 18 Torsion [N]-CA--CB-[CG] |==|  0.58008
USER: genes 19 Torsion [CA]-CB--CG-[SD] |==|  0.38252
USER: genes 20 Torsion [CB]-CG--SD-[CE] |==|  0.16130
USER: genes 21 Torsion [N]-C--CA-[N] |==|  0.13165
USER: genes 22 Torsion [C]-CA--N-[C] |==|  0.16106
USER: genes 23 Torsion [N]-C--CA-[N] |==|  0.98218
USER: genes 24 Torsion [C]-CA--CB-[CG] |==|  0.57314
USER: genes 25 Torsion [CA]-CB--CG-[OD1] |==|  0.27409
USER: genes 26 Torsion [C]-CA--N-[C] |==|  0.82070
USER: genes 27 Torsion [N]-C--CA-[N] |==|  0.01450
USER: genes 28 Torsion [C]-CA--N-[C] |==|  0.76000
USER: genes 29 Torsion [C]-CA--CB-[CG] |==|  0.23975
USER: genes 30 Torsion [CA]-CB--CG-[CD1] |==|  0.73025
USER: genes 31 Torsion [C]-CA--CB-[CG] |==|  0.49989
USER: genes 32 Torsion [CA]-CB--CG-[CD] |==|  0.73290
USER: genes 33 Torsion [CB]-CG--CD-[OE1] |==|  0.01674
ROOT
ATOM      1  C   GLU C   3      27.436   1.482 -12.432  1.00 25.67 LIG 0.24  C 
ATOM      2 O    GLU C   3      26.604   1.292 -11.533  1.00 24.73 LIG-0.27  OA
ATOM      3  N   MET C   4      28.660   0.949 -12.442  1.00 25.06 LIG-0.35  N 
ATOM      4 H    MET C   4      29.235   1.104 -13.063  1.00 25.06 LIG 0.16  HD
ENDROOT
BRANCH 3 5
ATOM      5  CA  MET C   4      29.150   0.047 -11.397  1.00 24.76 LIG 0.18  C 
BRANCH 5 6
ATOM      6  C   MET C   4      28.395  -1.270 -11.463  1.00 24.60 LIG 0.24  C 
ATOM      7 O    MET C   4      28.808  -2.212 -12.146  1.00 25.19 LIG-0.27  OA
ATOM      8  N   GLU C   5      27.253  -1.302 -10.793  1.00 23.81 LIG-0.35  N 
ATOM      9 H    GLU C   5      26.906  -0.615 -10.410  1.00 23.81 LIG 0.16  HD
BRANCH 8 10
ATOM     10  CA  GLU C   5      26.483  -2.506 -10.648  1.00 23.16 LIG 0.18  C 
BRANCH 10 11
ATOM     11  CB  GLU C   5      26.262  -3.130 -12.023  1.00 23.03 LIG 0.04  C 
BRANCH 11 12
ATOM     12  CG  GLU C   5      24.911  -3.835 -12.134  1.00 23.31 LIG 0.12  C 
BRANCH 12 13
ATOM     13  CD  GLU C   5      23.918  -3.137 -13.066  1.00 24.36 LIG 0.17  C 
ATOM     14 OE2  GLU C   5      23.921  -3.455 -14.286  1.00 22.25 LIG-0.65  OA
ATOM     15 OE1  GLU C   5      23.145  -2.273 -12.609  1.00 21.71 LIG-0.65  OA
ENDBRANCH 12 13
ENDBRANCH 11 12
ENDBRANCH 10 11
BRANCH 10 16
ATOM     16  C   GLU C   5      27.236  -3.464  -9.758  1.00 22.53 LIG 0.24  C 
ATOM     17  N   GLU C   6      26.568  -3.963  -8.721  1.00 22.45 LIG-0.35  N 
ATOM     18 H    GLU C   6      25.789  -3.694  -8.475  1.00 22.45 LIG 0.16  HD
ATOM     19 O    GLU C   5      28.406  -3.729  -9.998  1.00 22.53 LIG-0.27  OA
BRANCH 17 20
ATOM     20  CA  GLU C   6      27.131  -5.048  -7.893  1.00 22.27 LIG 0.18  C 
BRANCH 20 21
ATOM     21  C   GLU C   6      26.557  -6.388  -8.322  1.00 21.97 LIG 0.24  C 
ATOM     22 O    GLU C   6      27.278  -7.385  -8.378  1.00 22.60 LIG-0.27  OA
ATOM     23  N   CYS C   7      25.265  -6.435  -8.638  1.00 20.65 LIG-0.34  N 
ATOM     24 H    CYS C   7      24.738  -5.756  -8.663  1.00 20.65 LIG 0.16  HD
BRANCH 23 25
ATOM     25  CA  CYS C   7      24.652  -7.719  -8.975  1.00 20.43 LIG 0.19  C 
BRANCH 25 26
ATOM     26  C   CYS C   7      23.184  -7.555  -9.317  1.00 19.69 LIG 0.20  C 
ATOM     27 O    CYS C   7      22.390  -8.491  -9.284  1.00 19.84 LIG-0.65  OA
ATOM     28 OXT  CYS C   7      22.756  -6.454  -9.652  1.00 20.10 LIG-0.65  OA
ENDBRANCH 25 26
BRANCH 25 29
ATOM     29  CB  CYS C   7      24.904  -8.758  -7.862  1.00 20.27 LIG 0.11  C 
BRANCH 29 30
ATOM     30 SG   CYS C   7      24.093  -8.322  -6.269  1.00 22.98 LIG-0.18  SA
ATOM     31 HG   CYS C   7      24.177  -7.140  -6.087  1.00 22.98 LIG 0.10  HD
ENDBRANCH 29 30
ENDBRANCH 25 29
ENDBRANCH 23 25
ENDBRANCH 20 21
BRANCH 20 32
ATOM     32  CB  GLU C   6      26.827  -4.800  -6.417  1.00 22.58 LIG 0.04  C 
BRANCH 32 33
ATOM     33  CG  GLU C   6      26.644  -6.081  -5.641  1.00 24.64 LIG 0.12  C 
BRANCH 33 34
ATOM     34  CD  GLU C   6      25.765  -5.920  -4.408  1.00 27.63 LIG 0.17  C 
ATOM     35 OE1  GLU C   6      26.022  -5.014  -3.577  1.00 27.17 LIG-0.65  OA
ATOM     36 OE2  GLU C   6      24.803  -6.711  -4.286  1.00 31.71 LIG-0.65  OA
ENDBRANCH 33 34
ENDBRANCH 32 33
ENDBRANCH 20 32
ENDBRANCH 17 20
ENDBRANCH 10 16
ENDBRANCH 8 10
ENDBRANCH 5 6
BRANCH 5 37
ATOM     37  CB  MET C   4      28.967   0.672 -10.010  1.00 24.86 LIG 0.04  C 
BRANCH 37 38
ATOM     38  CG  MET C   4      29.987   0.230  -8.940  1.00 24.76 LIG 0.08  C 
BRANCH 38 39
ATOM     39 SD   MET C   4      30.620   1.550  -7.875  1.00 26.68 LIG-0.17  SA
ATOM     40  CE  MET C   4      29.068   2.152  -7.183  1.00 24.50 LIG 0.09  C 
ENDBRANCH 38 39
ENDBRANCH 37 38
ENDBRANCH 5 37
ENDBRANCH 3 5
BRANCH 1 41
ATOM     41  CA  GLU C   3      27.071   2.337 -13.645  1.00 26.55 LIG 0.18  C 
BRANCH 41 42
ATOM     42  N   GLU C   3      27.434   1.631 -14.870  1.00 27.07 LIG-0.35  N 
ATOM     43 H    GLU C   3      27.983   2.056 -15.378  1.00 27.07 LIG 0.16  HD
ATOM     44  C   ASP C   2      26.941   0.427 -15.150  1.00 28.06 LIG 0.24  C 
ATOM     45 O    ASP C   2      26.183  -0.170 -14.389  1.00 27.76 LIG-0.27  OA
BRANCH 44 46
ATOM     46  CA  ASP C   2      27.410  -0.214 -16.459  1.00 28.68 LIG 0.19  C 
BRANCH 46 47
ATOM     47  CB  ASP C   2      28.144  -1.549 -16.222  1.00 28.90 LIG 0.15  C 
BRANCH 47 48
ATOM     48  CG  ASP C   2      29.145  -1.900 -17.317  1.00 30.38 LIG 0.17  C 
ATOM     49 OD2  ASP C   2      28.740  -2.401 -18.387  1.00 31.55 LIG-0.65  OA
ATOM     50 OD1  ASP C   2      30.358  -1.644 -17.106  1.00 32.13 LIG-0.65  OA
ENDBRANCH 47 48
ENDBRANCH 46 47
BRANCH 46 51
ATOM     51  N   ASP C   2      28.233   0.678 -17.288  1.00 28.83 LIG-0.34  N 
ATOM     52  C   PHE C   1      27.715   1.789 -17.806  1.00 29.29 LIG 0.24  C 
ATOM     53 O    PHE C   1      26.602   2.217 -17.496  1.00 29.28 LIG-0.27  OA
ATOM     54 H    ASP C   2      29.047   0.421 -17.399  1.00 28.83 LIG 0.16  HD
BRANCH 52 55
ATOM     55  CA  PHE C   1      28.548   2.522 -18.848  1.00 29.71 LIG 0.18  C 
BRANCH 55 56
ATOM     56  N   PHE C   1      29.732   1.709 -19.124  1.00 30.30 LIG-0.35  N 
ATOM     57 H    PHE C   1      29.641   1.178 -19.793  1.00 30.30 LIG 0.16  HD
ATOM     58  C   ACE C   0      30.855   1.791 -18.393  1.00 30.61 LIG 0.21  C 
ATOM     59  CH3 ACE C   0      32.042   1.076 -18.978  1.00 31.12 LIG 0.12  C 
ATOM     60 O    ACE C   0      30.848   2.152 -17.211  1.00 30.74 LIG-0.27  OA
ENDBRANCH 55 56
BRANCH 55 61
ATOM     61  CB  PHE C   1      27.751   2.740 -20.140  1.00 29.76 LIG 0.07  C 
BRANCH 61 62
ATOM     62  CG  PHE C   1      26.896   3.995 -20.154  1.00 30.32 LIG-0.06  A 
ATOM     63  CD1 PHE C   1      25.541   3.925 -19.838  1.00 31.60 LIG 0.01  A 
ATOM     64  CE1 PHE C   1      24.736   5.068 -19.864  1.00 31.29 LIG 0.00  A 
ATOM     65  CZ  PHE C   1      25.291   6.294 -20.204  1.00 31.54 LIG 0.00  A 
ATOM     66  CE2 PHE C   1      26.641   6.377 -20.524  1.00 29.54 LIG 0.00  A 
ATOM     67  CD2 PHE C   1      27.432   5.235 -20.499  1.00 30.51 LIG 0.01  A 
ENDBRANCH 61 62
ENDBRANCH 55 61
ENDBRANCH 52 55
ENDBRANCH 46 51
ENDBRANCH 44 46
ENDBRANCH 41 42
BRANCH 41 68
ATOM     68  CB  GLU C   3      25.580   2.771 -13.636  1.00 26.96 LIG 0.04  C 
BRANCH 68 69
ATOM     69  CG  GLU C   3      25.060   3.646 -14.804  1.00 28.76 LIG 0.12  C 
BRANCH 69 70
ATOM     70  CD  GLU C   3      25.051   5.126 -14.512  1.00 29.94 LIG 0.17  C 
ATOM     71 OE1  GLU C   3      25.553   5.518 -13.441  1.00 33.38 LIG-0.65  OA
ATOM     72 OE2  GLU C   3      24.567   5.902 -15.372  1.00 31.06 LIG-0.65  OA
ENDBRANCH 69 70
ENDBRANCH 68 69
ENDBRANCH 41 68
ENDBRANCH 1 41
TORSDOF 32
ENDMDL
MODEL 24
USER: ADFR SOLUTION from run 109
USER: SCORE 21.716479 LL:  -5.328 LR: -19.380 RR:   0.000 FEB:  -9.835
USER: RMSD 13.347757
USER: SEED 108
USER: STATUS no improvement in best in 5 clusters for 5 generations
USER: GENES 34
USER: genes 0 Translation |==|  0.51552 0.62906 0.39725
USER: genes 1 Rotation |==|  0.48861 0.17054 0.21460 0.74469
USER: genes 2 Torsion [C]-N--CA-[CB] |==|  0.20556
USER: genes 3 Torsion [N]-CA--C-[N] |==|  0.40946
USER: genes 4 Torsion [C]-N--CA-[CB] |==|  0.80435
USER: genes 5 Torsion [N]-CA--CB-[CG] |==|  0.72901
USER: genes 6 Torsion [CA]-CB--CG-[CD] |==|  0.27510
USER: genes 7 Torsion [CB]-CG--CD-[OE2] |==|  0.08508
USER: genes 8 Torsion [N]-CA--C-[N] |==|  0.65709
USER: genes 9 Torsion [C]-N--CA-[C] |==|  0.83102
USER: genes 10 Torsion [N]-CA--C-[N] |==|  0.40183
USER: genes 11 Torsion [C]-N--CA-[CB] |==|  0.23379
USER: genes 12 Torsion [N]-CA--C-[OXT] |==|  0.26075
USER: genes 13 Torsion [N]-CA--CB-[SG] |==|  0.86549
USER: genes 14 Torsion [CA]-CB--SG-[HG] |==|  0.28938
USER: genes 15 Torsion [N]-CA--CB-[CG] |==|  0.90455
USER: genes 16 Torsion [CA]-CB--CG-[CD] |==|  0.41668
USER: genes 17 Torsion [CB]-CG--CD-[OE1] |==|  0.04555
USER: genes 18 Torsion [N]-CA--CB-[CG] |==|  0.48157
USER: genes 19 Torsion [CA]-CB--CG-[SD] |==|  0.27965
USER: genes 20 Torsion [CB]-CG--SD-[CE] |==|  0.86901
USER: genes 21 Torsion [N]-C--CA-[N] |==|  0.42423
USER: genes 22 Torsion [C]-CA--N-[C] |==|  0.70421
USER: genes 23 Torsion [N]-C--CA-[N] |==|  0.12142
USER: genes 24 Torsion [C]-CA--CB-[CG] |==|  0.55274
USER: genes 25 Torsion [CA]-CB--CG-[OD1] |==|  0.19573
USER: genes 26 Torsion [C]-CA--N-[C] |==|  0.70224
USER: genes 27 Torsion [N]-C--CA-[N] |==|  0.02527
USER: genes 28 Torsion [C]-CA--N-[C] |==|  0.73731
USER: genes 29 Torsion [C]-CA--CB-[CG] |==|  0.75376
USER: genes 30 Torsion [CA]-CB--CG-[CD1] |==|  0.73603
USER: genes 31 Torsion [C]-CA--CB-[CG] |==|  0.60688
USER: genes 32 Torsion [CA]-CB--CG-[CD] |==|  0.70433
USER: genes 33 Torsion [CB]-CG--CD-[OE1] |==|  0.55701
ROOT
ATOM      1  C   GLU C   3      28.507   0.128 -11.154  1.00 25.67 LIG 0.24  C 
ATOM      2 O    GLU C   3      29.461   0.757 -11.633  1.00 24.73 LIG-0.27  OA
ATOM      3  N   MET C   4      28.488  -0.375  -9.917  1.00 25.06 LIG-0.35  N 
ATOM      4 H    MET C   4      27.827  -0.827  -9.603  1.00 25.06 LIG 0.16  HD
ENDROOT
BRANCH 3 5
ATOM      5  CA  MET C   4      29.591  -0.209  -8.968  1.00 24.76 LIG 0.18  C 
BRANCH 5 6
ATOM      6  C   MET C   4      29.428  -1.187  -7.816  1.00 24.60 LIG 0.24  C 
ATOM      7 O    MET C   4      28.311  -1.483  -7.381  1.00 25.19 LIG-0.27  OA
ATOM      8  N   GLU C   5      30.557  -1.636  -7.290  1.00 23.81 LIG-0.35  N 
ATOM      9 H    GLU C   5      31.335  -1.347  -7.515  1.00 23.81 LIG 0.16  HD
BRANCH 8 10
ATOM     10  CA  GLU C   5      30.580  -2.660  -6.283  1.00 23.16 LIG 0.18  C 
BRANCH 10 11
ATOM     11  CB  GLU C   5      30.033  -2.091  -4.976  1.00 23.03 LIG 0.04  C 
BRANCH 11 12
ATOM     12  CG  GLU C   5      31.142  -1.646  -4.024  1.00 23.31 LIG 0.12  C 
BRANCH 12 13
ATOM     13  CD  GLU C   5      31.418  -0.141  -4.048  1.00 24.36 LIG 0.17  C 
ATOM     14 OE2  GLU C   5      30.460   0.636  -4.307  1.00 22.25 LIG-0.65  OA
ATOM     15 OE1  GLU C   5      32.570   0.279  -3.826  1.00 21.71 LIG-0.65  OA
ENDBRANCH 12 13
ENDBRANCH 11 12
ENDBRANCH 10 11
BRANCH 10 16
ATOM     16  C   GLU C   5      29.728  -3.817  -6.742  1.00 22.53 LIG 0.24  C 
ATOM     17  N   GLU C   6      28.737  -4.185  -5.933  1.00 22.45 LIG-0.35  N 
ATOM     18 H    GLU C   6      28.627  -3.879  -5.137  1.00 22.45 LIG 0.16  HD
ATOM     19 O    GLU C   5      29.978  -4.378  -7.801  1.00 22.53 LIG-0.27  OA
BRANCH 17 20
ATOM     20  CA  GLU C   6      27.725  -5.173  -6.355  1.00 22.27 LIG 0.18  C 
BRANCH 20 21
ATOM     21  C   GLU C   6      26.971  -4.664  -7.573  1.00 21.97 LIG 0.24  C 
ATOM     22 O    GLU C   6      26.715  -3.465  -7.691  1.00 22.60 LIG-0.27  OA
ATOM     23  N   CYS C   7      26.596  -5.557  -8.486  1.00 20.65 LIG-0.34  N 
ATOM     24 H    CYS C   7      26.706  -6.407  -8.419  1.00 20.65 LIG 0.16  HD
BRANCH 23 25
ATOM     25  CA  CYS C   7      25.942  -5.102  -9.712  1.00 20.43 LIG 0.19  C 
BRANCH 25 26
ATOM     26  C   CYS C   7      24.961  -6.136 -10.229  1.00 19.69 LIG 0.20  C 
ATOM     27 O    CYS C   7      25.299  -7.055 -10.969  1.00 19.84 LIG-0.65  OA
ATOM     28 OXT  CYS C   7      23.776  -6.063  -9.914  1.00 20.10 LIG-0.65  OA
ENDBRANCH 25 26
BRANCH 25 29
ATOM     29  CB  CYS C   7      26.986  -4.676 -10.766  1.00 20.27 LIG 0.11  C 
BRANCH 29 30
ATOM     30 SG   CYS C   7      28.276  -3.550 -10.092  1.00 22.98 LIG-0.18  SA
ATOM     31 HG   CYS C   7      29.296  -4.161  -9.932  1.00 22.98 LIG 0.10  HD
ENDBRANCH 29 30
ENDBRANCH 25 29
ENDBRANCH 23 25
ENDBRANCH 20 21
BRANCH 20 32
ATOM     32  CB  GLU C   6      26.746  -5.449  -5.215  1.00 22.58 LIG 0.04  C 
BRANCH 32 33
ATOM     33  CG  GLU C   6      27.408  -5.392  -3.860  1.00 24.64 LIG 0.12  C 
BRANCH 33 34
ATOM     34  CD  GLU C   6      26.469  -4.943  -2.749  1.00 27.63 LIG 0.17  C 
ATOM     35 OE1  GLU C   6      25.227  -4.962  -2.938  1.00 27.17 LIG-0.65  OA
ATOM     36 OE2  GLU C   6      26.993  -4.577  -1.673  1.00 31.71 LIG-0.65  OA
ENDBRANCH 33 34
ENDBRANCH 32 33
ENDBRANCH 20 32
ENDBRANCH 17 20
ENDBRANCH 10 16
ENDBRANCH 8 10
ENDBRANCH 5 6
BRANCH 5 37
ATOM     37  CB  MET C   4      29.628   1.222  -8.422  1.00 24.86 LIG 0.04  C 
BRANCH 37 38
ATOM     38  CG  MET C   4      30.647   1.480  -7.293  1.00 24.76 LIG 0.08  C 
BRANCH 38 39
ATOM     39 SD   MET C   4      32.185   2.288  -7.801  1.00 26.68 LIG-0.17  SA
ATOM     40  CE  MET C   4      32.587   1.291  -9.249  1.00 24.50 LIG 0.09  C 
ENDBRANCH 38 39
ENDBRANCH 37 38
ENDBRANCH 5 37
ENDBRANCH 3 5
BRANCH 1 41
ATOM     41  CA  GLU C   3      27.235  -0.077 -11.976  1.00 26.55 LIG 0.18  C 
BRANCH 41 42
ATOM     42  N   GLU C   3      27.111   0.993 -12.962  1.00 27.07 LIG-0.35  N 
ATOM     43 H    GLU C   3      27.656   0.933 -13.624  1.00 27.07 LIG 0.16  HD
ATOM     44  C   ASP C   2      26.217   1.968 -12.819  1.00 28.06 LIG 0.24  C 
ATOM     45 O    ASP C   2      25.429   2.010 -11.876  1.00 27.76 LIG-0.27  OA
BRANCH 44 46
ATOM     46  CA  ASP C   2      26.176   3.024 -13.928  1.00 28.68 LIG 0.19  C 
BRANCH 46 47
ATOM     47  CB  ASP C   2      24.950   3.950 -13.805  1.00 28.90 LIG 0.15  C 
BRANCH 47 48
ATOM     48  CG  ASP C   2      24.613   4.693 -15.092  1.00 30.38 LIG 0.17  C 
ATOM     49 OD2  ASP C   2      24.828   5.920 -15.171  1.00 31.55 LIG-0.65  OA
ATOM     50 OD1  ASP C   2      24.145   4.024 -16.049  1.00 32.13 LIG-0.65  OA
ENDBRANCH 47 48
ENDBRANCH 46 47
BRANCH 46 51
ATOM     51  N   ASP C   2      26.250   2.456 -15.281  1.00 28.83 LIG-0.34  N 
ATOM     52  C   PHE C   1      27.360   2.580 -16.007  1.00 29.29 LIG 0.24  C 
ATOM     53 O    PHE C   1      28.418   3.011 -15.545  1.00 29.28 LIG-0.27  OA
ATOM     54 H    ASP C   2      25.537   2.054 -15.546  1.00 28.83 LIG 0.16  HD
BRANCH 52 55
ATOM     55  CA  PHE C   1      27.274   2.191 -17.476  1.00 29.71 LIG 0.18  C 
BRANCH 55 56
ATOM     56  N   PHE C   1      25.865   1.961 -17.794  1.00 30.30 LIG-0.35  N 
ATOM     57 H    PHE C   1      25.435   2.674 -18.006  1.00 30.30 LIG 0.16  HD
ATOM     58  C   ACE C   0      25.303   0.743 -17.757  1.00 30.61 LIG 0.21  C 
ATOM     59  CH3 ACE C   0      23.927   0.665 -18.360  1.00 31.12 LIG 0.12  C 
ATOM     60 O    ACE C   0      25.731  -0.160 -17.031  1.00 30.74 LIG-0.27  OA
ENDBRANCH 55 56
BRANCH 55 61
ATOM     61  CB  PHE C   1      27.839   3.298 -18.375  1.00 29.76 LIG 0.07  C 
BRANCH 61 62
ATOM     62  CG  PHE C   1      26.828   4.348 -18.800  1.00 30.32 LIG-0.06  A 
ATOM     63  CD1 PHE C   1      26.167   4.233 -20.021  1.00 31.60 LIG 0.01  A 
ATOM     64  CE1 PHE C   1      25.247   5.202 -20.435  1.00 31.29 LIG 0.00  A 
ATOM     65  CZ  PHE C   1      24.982   6.293 -19.620  1.00 31.54 LIG 0.00  A 
ATOM     66  CE2 PHE C   1      25.637   6.422 -18.400  1.00 29.54 LIG 0.00  A 
ATOM     67  CD2 PHE C   1      26.552   5.456 -18.000  1.00 30.51 LIG 0.01  A 
ENDBRANCH 61 62
ENDBRANCH 55 61
ENDBRANCH 52 55
ENDBRANCH 46 51
ENDBRANCH 44 46
ENDBRANCH 41 42
BRANCH 41 68
ATOM     68  CB  GLU C   3      27.172  -1.486 -12.627  1.00 26.96 LIG 0.04  C 
BRANCH 68 69
ATOM     69  CG  GLU C   3      26.595  -1.611 -14.059  1.00 28.76 LIG 0.12  C 
BRANCH 69 70
ATOM     70  CD  GLU C   3      25.218  -2.223 -14.120  1.00 29.94 LIG 0.17  C 
ATOM     71 OE1  GLU C   3      24.839  -2.715 -15.200  1.00 33.38 LIG-0.65  OA
ATOM     72 OE2  GLU C   3      24.524  -2.238 -13.073  1.00 31.06 LIG-0.65  OA
ENDBRANCH 69 70
ENDBRANCH 68 69
ENDBRANCH 41 68
ENDBRANCH 1 41
TORSDOF 32
ENDMDL
MODEL 25
USER: ADFR SOLUTION from run 128
USER: SCORE 20.642947 LL:  -4.550 LR: -19.335 RR:   0.000 FEB:  -9.790
USER: RMSD 13.692698
USER: SEED 127
USER: STATUS no improvement in best in 7 clusters for 5 generations
USER: GENES 34
USER: genes 0 Translation |==|  0.37564 0.67675 0.34751
USER: genes 1 Rotation |==|  0.99426 0.42924 0.51992 0.51748
USER: genes 2 Torsion [C]-N--CA-[CB] |==|  0.21442
USER: genes 3 Torsion [N]-CA--C-[N] |==|  0.40077
USER: genes 4 Torsion [C]-N--CA-[CB] |==|  0.23008
USER: genes 5 Torsion [N]-CA--CB-[CG] |==|  0.73356
USER: genes 6 Torsion [CA]-CB--CG-[CD] |==|  0.38195
USER: genes 7 Torsion [CB]-CG--CD-[OE2] |==|  0.01633
USER: genes 8 Torsion [N]-CA--C-[N] |==|  0.47909
USER: genes 9 Torsion [C]-N--CA-[C] |==|  0.17861
USER: genes 10 Torsion [N]-CA--C-[N] |==|  0.64461
USER: genes 11 Torsion [C]-N--CA-[CB] |==|  0.36535
USER: genes 12 Torsion [N]-CA--C-[OXT] |==|  0.59922
USER: genes 13 Torsion [N]-CA--CB-[SG] |==|  0.04714
USER: genes 14 Torsion [CA]-CB--SG-[HG] |==|  0.07529
USER: genes 15 Torsion [N]-CA--CB-[CG] |==|  0.58756
USER: genes 16 Torsion [CA]-CB--CG-[CD] |==|  0.49482
USER: genes 17 Torsion [CB]-CG--CD-[OE1] |==|  0.21999
USER: genes 18 Torsion [N]-CA--CB-[CG] |==|  0.63160
USER: genes 19 Torsion [CA]-CB--CG-[SD] |==|  0.68051
USER: genes 20 Torsion [CB]-CG--SD-[CE] |==|  0.05108
USER: genes 21 Torsion [N]-C--CA-[N] |==|  0.14444
USER: genes 22 Torsion [C]-CA--N-[C] |==|  0.77202
USER: genes 23 Torsion [N]-C--CA-[N] |==|  0.45840
USER: genes 24 Torsion [C]-CA--CB-[CG] |==|  0.96316
USER: genes 25 Torsion [CA]-CB--CG-[OD1] |==|  0.26897
USER: genes 26 Torsion [C]-CA--N-[C] |==|  0.78845
USER: genes 27 Torsion [N]-C--CA-[N] |==|  0.92238
USER: genes 28 Torsion [C]-CA--N-[C] |==|  0.73817
USER: genes 29 Torsion [C]-CA--CB-[CG] |==|  0.34783
USER: genes 30 Torsion [CA]-CB--CG-[CD1] |==|  0.51480
USER: genes 31 Torsion [C]-CA--CB-[CG] |==|  0.55764
USER: genes 32 Torsion [CA]-CB--CG-[CD] |==|  0.38113
USER: genes 33 Torsion [CB]-CG--CD-[OE1] |==|  0.84813
ROOT
ATOM      1  C   GLU C   3      25.884   1.451 -12.422  1.00 25.67 LIG 0.24  C 
ATOM      2 O    GLU C   3      24.651   1.370 -12.335  1.00 24.73 LIG-0.27  OA
ATOM      3  N   MET C   4      26.725   0.475 -12.068  1.00 25.06 LIG-0.35  N 
ATOM      4 H    MET C   4      27.580   0.551 -12.116  1.00 25.06 LIG 0.16  HD
ENDROOT
BRANCH 3 5
ATOM      5  CA  MET C   4      26.276  -0.824 -11.562  1.00 24.76 LIG 0.18  C 
BRANCH 5 6
ATOM      6  C   MET C   4      27.422  -1.518 -10.844  1.00 24.60 LIG 0.24  C 
ATOM      7 O    MET C   4      28.578  -1.453 -11.271  1.00 25.19 LIG-0.27  OA
ATOM      8  N   GLU C   5      27.076  -2.232  -9.784  1.00 23.81 LIG-0.35  N 
ATOM      9 H    GLU C   5      26.261  -2.372  -9.549  1.00 23.81 LIG 0.16  HD
BRANCH 8 10
ATOM     10  CA  GLU C   5      28.049  -2.844  -8.922  1.00 23.16 LIG 0.18  C 
BRANCH 10 11
ATOM     11  CB  GLU C   5      28.551  -1.810  -7.917  1.00 23.03 LIG 0.04  C 
BRANCH 11 12
ATOM     12  CG  GLU C   5      29.852  -1.146  -8.365  1.00 23.31 LIG 0.12  C 
BRANCH 12 13
ATOM     13  CD  GLU C   5      29.893   0.366  -8.133  1.00 24.36 LIG 0.17  C 
ATOM     14 OE2  GLU C   5      28.935   0.899  -7.509  1.00 22.25 LIG-0.65  OA
ATOM     15 OE1  GLU C   5      30.852   1.032  -8.568  1.00 21.71 LIG-0.65  OA
ENDBRANCH 12 13
ENDBRANCH 11 12
ENDBRANCH 10 11
BRANCH 10 16
ATOM     16  C   GLU C   5      27.404  -4.000  -8.198  1.00 22.53 LIG 0.24  C 
ATOM     17  N   GLU C   6      28.209  -4.773  -7.474  1.00 22.45 LIG-0.35  N 
ATOM     18 H    GLU C   6      29.067  -4.717  -7.483  1.00 22.45 LIG 0.16  HD
ATOM     19 O    GLU C   5      26.201  -4.197  -8.312  1.00 22.53 LIG-0.27  OA
BRANCH 17 20
ATOM     20  CA  GLU C   6      27.673  -5.814  -6.575  1.00 22.27 LIG 0.18  C 
BRANCH 20 21
ATOM     21  C   GLU C   6      26.952  -6.882  -7.380  1.00 21.97 LIG 0.24  C 
ATOM     22 O    GLU C   6      27.507  -7.422  -8.337  1.00 22.60 LIG-0.27  OA
ATOM     23  N   CYS C   7      25.710  -7.197  -7.018  1.00 20.65 LIG-0.34  N 
ATOM     24 H    CYS C   7      25.266  -6.811  -6.391  1.00 20.65 LIG 0.16  HD
BRANCH 23 25
ATOM     25  CA  CYS C   7      25.009  -8.278  -7.711  1.00 20.43 LIG 0.19  C 
BRANCH 25 26
ATOM     26  C   CYS C   7      24.020  -7.731  -8.722  1.00 19.69 LIG 0.20  C 
ATOM     27 O    CYS C   7      24.234  -6.711  -9.369  1.00 19.84 LIG-0.65  OA
ATOM     28 OXT  CYS C   7      22.954  -8.312  -8.908  1.00 20.10 LIG-0.65  OA
ENDBRANCH 25 26
BRANCH 25 29
ATOM     29  CB  CYS C   7      24.370  -9.254  -6.702  1.00 20.27 LIG 0.11  C 
BRANCH 29 30
ATOM     30 SG   CYS C   7      24.230  -8.554  -5.006  1.00 22.98 LIG-0.18  SA
ATOM     31 HG   CYS C   7      24.155  -7.359  -5.072  1.00 22.98 LIG 0.10  HD
ENDBRANCH 29 30
ENDBRANCH 25 29
ENDBRANCH 23 25
ENDBRANCH 20 21
BRANCH 20 32
ATOM     32  CB  GLU C   6      26.716  -5.194  -5.558  1.00 22.58 LIG 0.04  C 
BRANCH 32 33
ATOM     33  CG  GLU C   6      26.726  -5.923  -4.237  1.00 24.64 LIG 0.12  C 
BRANCH 33 34
ATOM     34  CD  GLU C   6      25.812  -5.294  -3.194  1.00 27.63 LIG 0.17  C 
ATOM     35 OE1  GLU C   6      24.576  -5.511  -3.238  1.00 27.17 LIG-0.65  OA
ATOM     36 OE2  GLU C   6      26.352  -4.581  -2.318  1.00 31.71 LIG-0.65  OA
ENDBRANCH 33 34
ENDBRANCH 32 33
ENDBRANCH 20 32
ENDBRANCH 17 20
ENDBRANCH 10 16
ENDBRANCH 8 10
ENDBRANCH 5 6
BRANCH 5 37
ATOM     37  CB  MET C   4      25.778  -1.712 -12.707  1.00 24.86 LIG 0.04  C 
BRANCH 37 38
ATOM     38  CG  MET C   4      24.423  -2.411 -12.470  1.00 24.76 LIG 0.08  C 
BRANCH 38 39
ATOM     39 SD   MET C   4      24.484  -4.218 -12.380  1.00 26.68 LIG-0.17  SA
ATOM     40  CE  MET C   4      26.244  -4.446 -12.059  1.00 24.50 LIG 0.09  C 
ENDBRANCH 38 39
ENDBRANCH 37 38
ENDBRANCH 5 37
ENDBRANCH 3 5
BRANCH 1 41
ATOM     41  CA  GLU C   3      26.530   2.708 -13.003  1.00 26.55 LIG 0.18  C 
BRANCH 41 42
ATOM     42  N   GLU C   3      27.431   2.338 -14.091  1.00 27.07 LIG-0.35  N 
ATOM     43 H    GLU C   3      27.092   2.419 -14.878  1.00 27.07 LIG 0.16  HD
ATOM     44  C   ASP C   2      28.670   1.916 -13.854  1.00 28.06 LIG 0.24  C 
ATOM     45 O    ASP C   2      29.137   1.842 -12.719  1.00 27.76 LIG-0.27  OA
BRANCH 44 46
ATOM     46  CA  ASP C   2      29.520   1.572 -15.081  1.00 28.68 LIG 0.19  C 
BRANCH 46 47
ATOM     47  CB  ASP C   2      29.017   0.305 -15.800  1.00 28.90 LIG 0.15  C 
BRANCH 47 48
ATOM     48  CG  ASP C   2      28.014  -0.503 -14.985  1.00 30.38 LIG 0.17  C 
ATOM     49 OD2  ASP C   2      28.423  -1.294 -14.110  1.00 31.55 LIG-0.65  OA
ATOM     50 OD1  ASP C   2      26.791  -0.320 -15.214  1.00 32.13 LIG-0.65  OA
ENDBRANCH 47 48
ENDBRANCH 46 47
BRANCH 46 51
ATOM     51  N   ASP C   2      30.955   1.453 -14.786  1.00 28.83 LIG-0.34  N 
ATOM     52  C   PHE C   1      31.700   2.540 -14.598  1.00 29.29 LIG 0.24  C 
ATOM     53 O    PHE C   1      31.221   3.670 -14.492  1.00 29.28 LIG-0.27  OA
ATOM     54 H    ASP C   2      31.252   0.646 -14.748  1.00 28.83 LIG 0.16  HD
BRANCH 52 55
ATOM     55  CA  PHE C   1      33.209   2.346 -14.547  1.00 29.71 LIG 0.18  C 
BRANCH 55 56
ATOM     56  N   PHE C   1      33.468   0.992 -14.061  1.00 30.30 LIG-0.35  N 
ATOM     57 H    PHE C   1      33.462   0.393 -14.678  1.00 30.30 LIG 0.16  HD
ATOM     58  C   ACE C   0      33.693   0.716 -12.767  1.00 30.61 LIG 0.21  C 
ATOM     59  CH3 ACE C   0      34.191  -0.677 -12.496  1.00 31.12 LIG 0.12  C 
ATOM     60 O    ACE C   0      33.249   1.421 -11.855  1.00 30.74 LIG-0.27  OA
ENDBRANCH 55 56
BRANCH 55 61
ATOM     61  CB  PHE C   1      33.837   2.533 -15.934  1.00 29.76 LIG 0.07  C 
BRANCH 61 62
ATOM     62  CG  PHE C   1      34.951   3.563 -15.992  1.00 30.32 LIG-0.06  A 
ATOM     63  CD1 PHE C   1      35.527   3.906 -17.214  1.00 31.60 LIG 0.01  A 
ATOM     64  CE1 PHE C   1      36.567   4.839 -17.282  1.00 31.29 LIG 0.00  A 
ATOM     65  CZ  PHE C   1      37.032   5.438 -16.121  1.00 31.54 LIG 0.00  A 
ATOM     66  CE2 PHE C   1      36.468   5.103 -14.895  1.00 29.54 LIG 0.00  A 
ATOM     67  CD2 PHE C   1      35.438   4.172 -14.837  1.00 30.51 LIG 0.01  A 
ENDBRANCH 61 62
ENDBRANCH 55 61
ENDBRANCH 52 55
ENDBRANCH 46 51
ENDBRANCH 44 46
ENDBRANCH 41 42
BRANCH 41 68
ATOM     68  CB  GLU C   3      25.479   3.764 -13.443  1.00 26.96 LIG 0.04  C 
BRANCH 68 69
ATOM     69  CG  GLU C   3      25.905   4.845 -14.467  1.00 28.76 LIG 0.12  C 
BRANCH 69 70
ATOM     70  CD  GLU C   3      24.880   5.118 -15.540  1.00 29.94 LIG 0.17  C 
ATOM     71 OE1  GLU C   3      24.465   4.157 -16.216  1.00 33.38 LIG-0.65  OA
ATOM     72 OE2  GLU C   3      24.466   6.294 -15.685  1.00 31.06 LIG-0.65  OA
ENDBRANCH 69 70
ENDBRANCH 68 69
ENDBRANCH 41 68
ENDBRANCH 1 41
TORSDOF 32
ENDMDL
MODEL 26
USER: ADFR SOLUTION from run 46
USER: SCORE 20.837875 LL:  -5.408 LR: -19.328 RR:   0.000 FEB:  -9.782
USER: RMSD 13.215975
USER: SEED 45
USER: STATUS searching
USER: GENES 34
USER: genes 0 Translation |==|  0.41807 0.70971 0.33696
USER: genes 1 Rotation |==|  0.97726 0.36546 0.43790 0.51638
USER: genes 2 Torsion [C]-N--CA-[CB] |==|  0.23915
USER: genes 3 Torsion [N]-CA--C-[N] |==|  0.40331
USER: genes 4 Torsion [C]-N--CA-[CB] |==|  0.36517
USER: genes 5 Torsion [N]-CA--CB-[CG] |==|  0.42977
USER: genes 6 Torsion [CA]-CB--CG-[CD] |==|  0.71666
USER: genes 7 Torsion [CB]-CG--CD-[OE2] |==|  0.06963
USER: genes 8 Torsion [N]-CA--C-[N] |==|  0.90861
USER: genes 9 Torsion [C]-N--CA-[C] |==|  0.65439
USER: genes 10 Torsion [N]-CA--C-[N] |==|  0.79211
USER: genes 11 Torsion [C]-N--CA-[CB] |==|  0.39564
USER: genes 12 Torsion [N]-CA--C-[OXT] |==|  0.86313
USER: genes 13 Torsion [N]-CA--CB-[SG] |==|  0.78946
USER: genes 14 Torsion [CA]-CB--SG-[HG] |==|  0.24974
USER: genes 15 Torsion [N]-CA--CB-[CG] |==|  0.47355
USER: genes 16 Torsion [CA]-CB--CG-[CD] |==|  0.62387
USER: genes 17 Torsion [CB]-CG--CD-[OE1] |==|  0.20788
USER: genes 18 Torsion [N]-CA--CB-[CG] |==|  0.35861
USER: genes 19 Torsion [CA]-CB--CG-[SD] |==|  0.69448
USER: genes 20 Torsion [CB]-CG--SD-[CE] |==|  0.33657
USER: genes 21 Torsion [N]-C--CA-[N] |==|  0.06634
USER: genes 22 Torsion [C]-CA--N-[C] |==|  0.67373
USER: genes 23 Torsion [N]-C--CA-[N] |==|  0.58889
USER: genes 24 Torsion [C]-CA--CB-[CG] |==|  0.81372
USER: genes 25 Torsion [CA]-CB--CG-[OD1] |==|  0.81986
USER: genes 26 Torsion [C]-CA--N-[C] |==|  0.76924
USER: genes 27 Torsion [N]-C--CA-[N] |==|  0.95446
USER: genes 28 Torsion [C]-CA--N-[C] |==|  0.78058
USER: genes 29 Torsion [C]-CA--CB-[CG] |==|  0.21614
USER: genes 30 Torsion [CA]-CB--CG-[CD1] |==|  0.61688
USER: genes 31 Torsion [C]-CA--CB-[CG] |==|  0.68447
USER: genes 32 Torsion [CA]-CB--CG-[CD] |==|  0.42189
USER: genes 33 Torsion [CB]-CG--CD-[OE1] |==|  0.19833
ROOT
ATOM      1  C   GLU C   3      26.680   2.365 -12.691  1.00 25.67 LIG 0.24  C 
ATOM      2 O    GLU C   3      25.556   2.597 -12.224  1.00 24.73 LIG-0.27  OA
ATOM      3  N   MET C   4      27.284   1.176 -12.633  1.00 25.06 LIG-0.35  N 
ATOM      4 H    MET C   4      28.073   1.033 -12.944  1.00 25.06 LIG 0.16  HD
ENDROOT
BRANCH 3 5
ATOM      5  CA  MET C   4      26.665  -0.007 -12.030  1.00 24.76 LIG 0.18  C 
BRANCH 5 6
ATOM      6  C   MET C   4      27.745  -0.946 -11.518  1.00 24.60 LIG 0.24  C 
ATOM      7 O    MET C   4      28.800  -1.108 -12.139  1.00 25.19 LIG-0.27  OA
ATOM      8  N   GLU C   5      27.443  -1.606 -10.410  1.00 23.81 LIG-0.35  N 
ATOM      9 H    GLU C   5      26.669  -1.581 -10.037  1.00 23.81 LIG 0.16  HD
BRANCH 8 10
ATOM     10  CA  GLU C   5      28.398  -2.433  -9.726  1.00 23.16 LIG 0.18  C 
BRANCH 10 11
ATOM     11  CB  GLU C   5      28.386  -2.088  -8.239  1.00 23.03 LIG 0.04  C 
BRANCH 11 12
ATOM     12  CG  GLU C   5      28.857  -3.252  -7.367  1.00 23.31 LIG 0.12  C 
BRANCH 12 13
ATOM     13  CD  GLU C   5      27.724  -4.015  -6.679  1.00 24.36 LIG 0.17  C 
ATOM     14 OE2  GLU C   5      26.580  -3.987  -7.209  1.00 22.25 LIG-0.65  OA
ATOM     15 OE1  GLU C   5      27.948  -4.631  -5.619  1.00 21.71 LIG-0.65  OA
ENDBRANCH 12 13
ENDBRANCH 11 12
ENDBRANCH 10 11
BRANCH 10 16
ATOM     16  C   GLU C   5      28.025  -3.880  -9.926  1.00 22.53 LIG 0.24  C 
ATOM     17  N   GLU C   6      26.726  -4.153 -10.021  1.00 22.45 LIG-0.35  N 
ATOM     18 H    GLU C   6      26.102  -3.581  -9.870  1.00 22.45 LIG 0.16  HD
ATOM     19 O    GLU C   5      28.900  -4.736  -9.974  1.00 22.53 LIG-0.27  OA
BRANCH 17 20
ATOM     20  CA  GLU C   6      26.247  -5.496 -10.404  1.00 22.27 LIG 0.18  C 
BRANCH 20 21
ATOM     21  C   GLU C   6      25.330  -5.401 -11.613  1.00 21.97 LIG 0.24  C 
ATOM     22 O    GLU C   6      25.731  -5.740 -12.726  1.00 22.60 LIG-0.27  OA
ATOM     23  N   CYS C   7      24.099  -4.934 -11.419  1.00 20.65 LIG-0.34  N 
ATOM     24 H    CYS C   7      23.795  -4.637 -10.671  1.00 20.65 LIG 0.16  HD
BRANCH 23 25
ATOM     25  CA  CYS C   7      23.156  -4.903 -12.537  1.00 20.43 LIG 0.19  C 
BRANCH 25 26
ATOM     26  C   CYS C   7      23.230  -3.586 -13.283  1.00 19.69 LIG 0.20  C 
ATOM     27 O    CYS C   7      23.343  -3.524 -14.504  1.00 19.84 LIG-0.65  OA
ATOM     28 OXT  CYS C   7      23.187  -2.528 -12.660  1.00 20.10 LIG-0.65  OA
ENDBRANCH 25 26
BRANCH 25 29
ATOM     29  CB  CYS C   7      21.730  -5.253 -12.062  1.00 20.27 LIG 0.11  C 
BRANCH 29 30
ATOM     30 SG   CYS C   7      21.495  -7.049 -11.741  1.00 22.98 LIG-0.18  SA
ATOM     31 HG   CYS C   7      21.766  -7.291 -10.598  1.00 22.98 LIG 0.10  HD
ENDBRANCH 29 30
ENDBRANCH 25 29
ENDBRANCH 23 25
ENDBRANCH 20 21
BRANCH 20 32
ATOM     32  CB  GLU C   6      25.506  -6.146  -9.238  1.00 22.58 LIG 0.04  C 
BRANCH 32 33
ATOM     33  CG  GLU C   6      24.799  -7.417  -9.640  1.00 24.64 LIG 0.12  C 
BRANCH 33 34
ATOM     34  CD  GLU C   6      23.382  -7.519  -9.090  1.00 27.63 LIG 0.17  C 
ATOM     35 OE1  GLU C   6      22.466  -6.829  -9.601  1.00 27.17 LIG-0.65  OA
ATOM     36 OE2  GLU C   6      23.196  -8.312  -8.140  1.00 31.71 LIG-0.65  OA
ENDBRANCH 33 34
ENDBRANCH 32 33
ENDBRANCH 20 32
ENDBRANCH 17 20
ENDBRANCH 10 16
ENDBRANCH 8 10
ENDBRANCH 5 6
BRANCH 5 37
ATOM     37  CB  MET C   4      25.791  -0.744 -13.051  1.00 24.86 LIG 0.04  C 
BRANCH 37 38
ATOM     38  CG  MET C   4      26.054  -2.258 -13.185  1.00 24.76 LIG 0.08  C 
BRANCH 38 39
ATOM     39 SD   MET C   4      26.830  -2.780 -14.735  1.00 26.68 LIG-0.17  SA
ATOM     40  CE  MET C   4      28.319  -3.559 -14.081  1.00 24.50 LIG 0.09  C 
ENDBRANCH 38 39
ENDBRANCH 37 38
ENDBRANCH 5 37
ENDBRANCH 3 5
BRANCH 1 41
ATOM     41  CA  GLU C   3      27.445   3.465 -13.427  1.00 26.55 LIG 0.18  C 
BRANCH 41 42
ATOM     42  N   GLU C   3      28.382   2.863 -14.371  1.00 27.07 LIG-0.35  N 
ATOM     43 H    GLU C   3      28.012   2.399 -14.994  1.00 27.07 LIG 0.16  HD
ATOM     44  C   ASP C   2      29.695   3.037 -14.253  1.00 28.06 LIG 0.24  C 
ATOM     45 O    ASP C   2      30.193   3.733 -13.371  1.00 27.76 LIG-0.27  OA
BRANCH 44 46
ATOM     46  CA  ASP C   2      30.570   2.365 -15.315  1.00 28.68 LIG 0.19  C 
BRANCH 46 47
ATOM     47  CB  ASP C   2      29.852   1.184 -15.998  1.00 28.90 LIG 0.15  C 
BRANCH 47 48
ATOM     48  CG  ASP C   2      29.595   0.004 -15.069  1.00 30.38 LIG 0.17  C 
ATOM     49 OD2  ASP C   2      28.422  -0.333 -14.808  1.00 31.55 LIG-0.65  OA
ATOM     50 OD1  ASP C   2      30.594  -0.609 -14.612  1.00 32.13 LIG-0.65  OA
ENDBRANCH 47 48
ENDBRANCH 46 47
BRANCH 46 51
ATOM     51  N   ASP C   2      31.883   1.937 -14.810  1.00 28.83 LIG-0.34  N 
ATOM     52  C   PHE C   1      32.892   2.801 -14.732  1.00 29.29 LIG 0.24  C 
ATOM     53 O    PHE C   1      32.752   4.013 -14.910  1.00 29.28 LIG-0.27  OA
ATOM     54 H    ASP C   2      31.930   1.110 -14.580  1.00 28.83 LIG 0.16  HD
BRANCH 52 55
ATOM     55  CA  PHE C   1      34.272   2.230 -14.440  1.00 29.71 LIG 0.18  C 
BRANCH 55 56
ATOM     56  N   PHE C   1      34.093   0.873 -13.926  1.00 30.30 LIG-0.35  N 
ATOM     57 H    PHE C   1      34.236   0.258 -14.509  1.00 30.30 LIG 0.16  HD
ATOM     58  C   ACE C   0      33.737   0.620 -12.657  1.00 30.61 LIG 0.21  C 
ATOM     59  CH3 ACE C   0      33.854  -0.823 -12.246  1.00 31.12 LIG 0.12  C 
ATOM     60 O    ACE C   0      33.088   1.423 -11.980  1.00 30.74 LIG-0.27  OA
ENDBRANCH 55 56
BRANCH 55 61
ATOM     61  CB  PHE C   1      35.137   2.199 -15.707  1.00 29.76 LIG 0.07  C 
BRANCH 61 62
ATOM     62  CG  PHE C   1      35.729   3.541 -16.103  1.00 30.32 LIG-0.06  A 
ATOM     63  CD1 PHE C   1      35.745   3.932 -17.440  1.00 31.60 LIG 0.01  A 
ATOM     64  CE1 PHE C   1      36.303   5.156 -17.824  1.00 31.29 LIG 0.00  A 
ATOM     65  CZ  PHE C   1      36.846   5.998 -16.863  1.00 31.54 LIG 0.00  A 
ATOM     66  CE2 PHE C   1      36.839   5.617 -15.526  1.00 29.54 LIG 0.00  A 
ATOM     67  CD2 PHE C   1      36.286   4.398 -15.155  1.00 30.51 LIG 0.01  A 
ENDBRANCH 61 62
ENDBRANCH 55 61
ENDBRANCH 52 55
ENDBRANCH 46 51
ENDBRANCH 44 46
ENDBRANCH 41 42
BRANCH 41 68
ATOM     68  CB  GLU C   3      26.498   4.490 -14.109  1.00 26.96 LIG 0.04  C 
BRANCH 68 69
ATOM     69  CG  GLU C   3      26.479   4.559 -15.657  1.00 28.76 LIG 0.12  C 
BRANCH 69 70
ATOM     70  CD  GLU C   3      25.167   5.022 -16.239  1.00 29.94 LIG 0.17  C 
ATOM     71 OE1  GLU C   3      24.853   6.221 -16.103  1.00 33.38 LIG-0.65  OA
ATOM     72 OE2  GLU C   3      24.463   4.190 -16.862  1.00 31.06 LIG-0.65  OA
ENDBRANCH 69 70
ENDBRANCH 68 69
ENDBRANCH 41 68
ENDBRANCH 1 41
TORSDOF 32
ENDMDL
MODEL 27
USER: ADFR SOLUTION from run 76
USER: SCORE 21.765267 LL:  -5.131 LR: -19.316 RR:   0.000 FEB:  -9.770
USER: RMSD 12.362576
USER: SEED 75
USER: STATUS searching
USER: GENES 34
USER: genes 0 Translation |==|  0.45926 0.53991 0.47021
USER: genes 1 Rotation |==|  0.92854 0.63539 0.43668 0.70980
USER: genes 2 Torsion [C]-N--CA-[CB] |==|  0.79875
USER: genes 3 Torsion [N]-CA--C-[N] |==|  0.74107
USER: genes 4 Torsion [C]-N--CA-[CB] |==|  0.48895
USER: genes 5 Torsion [N]-CA--CB-[CG] |==|  0.68147
USER: genes 6 Torsion [CA]-CB--CG-[CD] |==|  0.45955
USER: genes 7 Torsion [CB]-CG--CD-[OE2] |==|  0.64905
USER: genes 8 Torsion [N]-CA--C-[N] |==|  0.85193
USER: genes 9 Torsion [C]-N--CA-[C] |==|  0.17324
USER: genes 10 Torsion [N]-CA--C-[N] |==|  0.08349
USER: genes 11 Torsion [C]-N--CA-[CB] |==|  0.44785
USER: genes 12 Torsion [N]-CA--C-[OXT] |==|  0.50164
USER: genes 13 Torsion [N]-CA--CB-[SG] |==|  0.99846
USER: genes 14 Torsion [CA]-CB--SG-[HG] |==|  0.10981
USER: genes 15 Torsion [N]-CA--CB-[CG] |==|  0.88576
USER: genes 16 Torsion [CA]-CB--CG-[CD] |==|  0.57139
USER: genes 17 Torsion [CB]-CG--CD-[OE1] |==|  0.11511
USER: genes 18 Torsion [N]-CA--CB-[CG] |==|  0.76276
USER: genes 19 Torsion [CA]-CB--CG-[SD] |==|  0.19738
USER: genes 20 Torsion [CB]-CG--SD-[CE] |==|  0.31946
USER: genes 21 Torsion [N]-C--CA-[N] |==|  0.00174
USER: genes 22 Torsion [C]-CA--N-[C] |==|  0.72442
USER: genes 23 Torsion [N]-C--CA-[N] |==|  0.38680
USER: genes 24 Torsion [C]-CA--CB-[CG] |==|  0.48171
USER: genes 25 Torsion [CA]-CB--CG-[OD1] |==|  0.85845
USER: genes 26 Torsion [C]-CA--N-[C] |==|  0.73518
USER: genes 27 Torsion [N]-C--CA-[N] |==|  0.34875
USER: genes 28 Torsion [C]-CA--N-[C] |==|  0.77607
USER: genes 29 Torsion [C]-CA--CB-[CG] |==|  0.19954
USER: genes 30 Torsion [CA]-CB--CG-[CD1] |==|  0.80916
USER: genes 31 Torsion [C]-CA--CB-[CG] |==|  0.54510
USER: genes 32 Torsion [CA]-CB--CG-[CD] |==|  0.70771
USER: genes 33 Torsion [CB]-CG--CD-[OE1] |==|  0.14413
ROOT
ATOM      1  C   GLU C   3      27.452  -2.346  -9.294  1.00 25.67 LIG 0.24  C 
ATOM      2 O    GLU C   3      26.752  -2.844  -8.401  1.00 24.73 LIG-0.27  OA
ATOM      3  N   MET C   4      28.767  -2.140  -9.185  1.00 25.06 LIG-0.35  N 
ATOM      4 H    MET C   4      29.239  -1.776  -9.806  1.00 25.06 LIG 0.16  HD
ENDROOT
BRANCH 3 5
ATOM      5  CA  MET C   4      29.541  -2.512  -7.999  1.00 24.76 LIG 0.18  C 
BRANCH 5 6
ATOM      6  C   MET C   4      29.211  -3.940  -7.599  1.00 24.60 LIG 0.24  C 
ATOM      7 O    MET C   4      29.774  -4.901  -8.132  1.00 25.19 LIG-0.27  OA
ATOM      8  N   GLU C   5      28.249  -4.068  -6.698  1.00 23.81 LIG-0.35  N 
ATOM      9 H    GLU C   5      27.778  -3.410  -6.407  1.00 23.81 LIG 0.16  HD
BRANCH 8 10
ATOM     10  CA  GLU C   5      27.904  -5.337  -6.119  1.00 23.16 LIG 0.18  C 
BRANCH 10 11
ATOM     11  CB  GLU C   5      26.832  -5.129  -5.053  1.00 23.03 LIG 0.04  C 
BRANCH 11 12
ATOM     12  CG  GLU C   5      27.331  -5.472  -3.649  1.00 23.31 LIG 0.12  C 
BRANCH 12 13
ATOM     13  CD  GLU C   5      26.433  -4.955  -2.524  1.00 24.36 LIG 0.17  C 
ATOM     14 OE2  GLU C   5      26.956  -4.251  -1.619  1.00 22.25 LIG-0.65  OA
ATOM     15 OE1  GLU C   5      25.221  -5.245  -2.520  1.00 21.71 LIG-0.65  OA
ENDBRANCH 12 13
ENDBRANCH 11 12
ENDBRANCH 10 11
BRANCH 10 16
ATOM     16  C   GLU C   5      27.385  -6.246  -7.206  1.00 22.53 LIG 0.24  C 
ATOM     17  N   GLU C   6      26.390  -5.773  -7.952  1.00 22.45 LIG-0.35  N 
ATOM     18 H    GLU C   6      25.966  -5.044  -7.784  1.00 22.45 LIG 0.16  HD
ATOM     19 O    GLU C   5      27.865  -7.362  -7.350  1.00 22.53 LIG-0.27  OA
BRANCH 17 20
ATOM     20  CA  GLU C   6      25.926  -6.487  -9.158  1.00 22.27 LIG 0.18  C 
BRANCH 20 21
ATOM     21  C   GLU C   6      25.383  -7.856  -8.783  1.00 21.97 LIG 0.24  C 
ATOM     22 O    GLU C   6      25.451  -8.792  -9.579  1.00 22.60 LIG-0.27  OA
ATOM     23  N   CYS C   7      24.831  -7.993  -7.580  1.00 20.65 LIG-0.34  N 
ATOM     24 H    CYS C   7      24.715  -7.356  -7.014  1.00 20.65 LIG 0.16  HD
BRANCH 23 25
ATOM     25  CA  CYS C   7      24.371  -9.312  -7.144  1.00 20.43 LIG 0.19  C 
BRANCH 25 26
ATOM     26  C   CYS C   7      23.119  -9.731  -7.890  1.00 19.69 LIG 0.20  C 
ATOM     27 O    CYS C   7      22.591  -9.024  -8.743  1.00 19.84 LIG-0.65  OA
ATOM     28 OXT  CYS C   7      22.593 -10.812  -7.638  1.00 20.10 LIG-0.65  OA
ENDBRANCH 25 26
BRANCH 25 29
ATOM     29  CB  CYS C   7      24.209  -9.358  -5.611  1.00 20.27 LIG 0.11  C 
BRANCH 29 30
ATOM     30 SG   CYS C   7      24.650  -7.772  -4.788  1.00 22.98 LIG-0.18  SA
ATOM     31 HG   CYS C   7      24.254  -6.854  -5.450  1.00 22.98 LIG 0.10  HD
ENDBRANCH 29 30
ENDBRANCH 25 29
ENDBRANCH 23 25
ENDBRANCH 20 21
BRANCH 20 32
ATOM     32  CB  GLU C   6      27.072  -6.637 -10.157  1.00 22.58 LIG 0.04  C 
BRANCH 32 33
ATOM     33  CG  GLU C   6      27.918  -5.392 -10.258  1.00 24.64 LIG 0.12  C 
BRANCH 33 34
ATOM     34  CD  GLU C   6      28.628  -5.252 -11.598  1.00 27.63 LIG 0.17  C 
ATOM     35 OE1  GLU C   6      28.016  -5.535 -12.658  1.00 27.17 LIG-0.65  OA
ATOM     36 OE2  GLU C   6      29.811  -4.844 -11.577  1.00 31.71 LIG-0.65  OA
ENDBRANCH 33 34
ENDBRANCH 32 33
ENDBRANCH 20 32
ENDBRANCH 17 20
ENDBRANCH 10 16
ENDBRANCH 8 10
ENDBRANCH 5 6
BRANCH 5 37
ATOM     37  CB  MET C   4      29.231  -1.570  -6.830  1.00 24.86 LIG 0.04  C 
BRANCH 37 38
ATOM     38  CG  MET C   4      30.051  -0.263  -6.791  1.00 24.76 LIG 0.08  C 
BRANCH 38 39
ATOM     39 SD   MET C   4      29.639   0.953  -8.066  1.00 26.68 LIG-0.17  SA
ATOM     40  CE  MET C   4      28.998   2.279  -7.025  1.00 24.50 LIG 0.09  C 
ENDBRANCH 38 39
ENDBRANCH 37 38
ENDBRANCH 5 37
ENDBRANCH 3 5
BRANCH 1 41
ATOM     41  CA  GLU C   3      26.826  -1.967 -10.635  1.00 26.55 LIG 0.18  C 
BRANCH 41 42
ATOM     42  N   GLU C   3      27.860  -1.458 -11.532  1.00 27.07 LIG-0.35  N 
ATOM     43 H    GLU C   3      28.325  -2.067 -11.923  1.00 27.07 LIG 0.16  HD
ATOM     44  C   ASP C   2      28.045  -0.152 -11.709  1.00 28.06 LIG 0.24  C 
ATOM     45 O    ASP C   2      27.344   0.695 -11.159  1.00 27.76 LIG-0.27  OA
BRANCH 44 46
ATOM     46  CA  ASP C   2      29.152   0.254 -12.685  1.00 28.68 LIG 0.19  C 
BRANCH 46 47
ATOM     47  CB  ASP C   2      30.485   0.541 -11.966  1.00 28.90 LIG 0.15  C 
BRANCH 47 48
ATOM     48  CG  ASP C   2      31.651   0.793 -12.915  1.00 30.38 LIG 0.17  C 
ATOM     49 OD2  ASP C   2      32.376   1.796 -12.750  1.00 31.55 LIG-0.65  OA
ATOM     50 OD1  ASP C   2      31.854  -0.047 -13.829  1.00 32.13 LIG-0.65  OA
ENDBRANCH 47 48
ENDBRANCH 46 47
BRANCH 46 51
ATOM     51  N   ASP C   2      28.788   1.386 -13.549  1.00 28.83 LIG-0.34  N 
ATOM     52  C   PHE C   1      28.298   1.176 -14.769  1.00 29.29 LIG 0.24  C 
ATOM     53 O    PHE C   1      27.969   0.060 -15.176  1.00 29.28 LIG-0.27  OA
ATOM     54 H    ASP C   2      28.916   2.163 -13.202  1.00 28.83 LIG 0.16  HD
BRANCH 52 55
ATOM     55  CA  PHE C   1      28.182   2.385 -15.687  1.00 29.71 LIG 0.18  C 
BRANCH 55 56
ATOM     56  N   PHE C   1      28.892   2.073 -16.926  1.00 30.30 LIG-0.35  N 
ATOM     57 H    PHE C   1      28.378   1.823 -17.568  1.00 30.30 LIG 0.16  HD
ATOM     58  C   ACE C   0      30.226   2.170 -17.042  1.00 30.61 LIG 0.21  C 
ATOM     59  CH3 ACE C   0      30.746   2.061 -18.449  1.00 31.12 LIG 0.12  C 
ATOM     60 O    ACE C   0      30.983   2.053 -16.073  1.00 30.74 LIG-0.27  OA
ENDBRANCH 55 56
BRANCH 55 61
ATOM     61  CB  PHE C   1      26.714   2.708 -15.992  1.00 29.76 LIG 0.07  C 
BRANCH 61 62
ATOM     62  CG  PHE C   1      25.939   3.301 -14.828  1.00 30.32 LIG-0.06  A 
ATOM     63  CD1 PHE C   1      25.644   2.520 -13.712  1.00 31.60 LIG 0.01  A 
ATOM     64  CE1 PHE C   1      24.915   3.045 -12.640  1.00 31.29 LIG 0.00  A 
ATOM     65  CZ  PHE C   1      24.482   4.362 -12.681  1.00 31.54 LIG 0.00  A 
ATOM     66  CE2 PHE C   1      24.767   5.151 -13.790  1.00 29.54 LIG 0.00  A 
ATOM     67  CD2 PHE C   1      25.488   4.619 -14.851  1.00 30.51 LIG 0.01  A 
ENDBRANCH 61 62
ENDBRANCH 55 61
ENDBRANCH 52 55
ENDBRANCH 46 51
ENDBRANCH 44 46
ENDBRANCH 41 42
BRANCH 41 68
ATOM     68  CB  GLU C   3      26.025  -3.138 -11.267  1.00 26.96 LIG 0.04  C 
BRANCH 68 69
ATOM     69  CG  GLU C   3      25.658  -3.054 -12.769  1.00 28.76 LIG 0.12  C 
BRANCH 69 70
ATOM     70  CD  GLU C   3      24.209  -2.731 -13.034  1.00 29.94 LIG 0.17  C 
ATOM     71 OE1  GLU C   3      23.714  -1.736 -12.469  1.00 33.38 LIG-0.65  OA
ATOM     72 OE2  GLU C   3      23.571  -3.457 -13.836  1.00 31.06 LIG-0.65  OA
ENDBRANCH 69 70
ENDBRANCH 68 69
ENDBRANCH 41 68
ENDBRANCH 1 41
TORSDOF 32
ENDMDL
MODEL 28
USER: ADFR SOLUTION from run 197
USER: SCORE 19.888628 LL:  -3.668 LR: -19.301 RR:   0.000 FEB:  -9.755
USER: RMSD 13.458158
USER: SEED 196
USER: STATUS no improvement in best in 8 clusters for 5 generations
USER: GENES 34
USER: genes 0 Translation |==|  0.45596 0.73888 0.29676
USER: genes 1 Rotation |==|  0.87253 0.21744 0.34744 0.59002
USER: genes 2 Torsion [C]-N--CA-[CB] |==|  0.20907
USER: genes 3 Torsion [N]-CA--C-[N] |==|  0.69985
USER: genes 4 Torsion [C]-N--CA-[CB] |==|  0.20807
USER: genes 5 Torsion [N]-CA--CB-[CG] |==|  0.57752
USER: genes 6 Torsion [CA]-CB--CG-[CD] |==|  0.37146
USER: genes 7 Torsion [CB]-CG--CD-[OE2] |==|  0.29811
USER: genes 8 Torsion [N]-CA--C-[N] |==|  0.40770
USER: genes 9 Torsion [C]-N--CA-[C] |==|  0.17077
USER: genes 10 Torsion [N]-CA--C-[N] |==|  0.24204
USER: genes 11 Torsion [C]-N--CA-[CB] |==|  0.83342
USER: genes 12 Torsion [N]-CA--C-[OXT] |==|  0.07044
USER: genes 13 Torsion [N]-CA--CB-[SG] |==|  0.26839
USER: genes 14 Torsion [CA]-CB--SG-[HG] |==|  0.16077
USER: genes 15 Torsion [N]-CA--CB-[CG] |==|  0.61381
USER: genes 16 Torsion [CA]-CB--CG-[CD] |==|  0.41944
USER: genes 17 Torsion [CB]-CG--CD-[OE1] |==|  0.93188
USER: genes 18 Torsion [N]-CA--CB-[CG] |==|  0.92459
USER: genes 19 Torsion [CA]-CB--CG-[SD] |==|  0.69745
USER: genes 20 Torsion [CB]-CG--SD-[CE] |==|  0.40201
USER: genes 21 Torsion [N]-C--CA-[N] |==|  0.88378
USER: genes 22 Torsion [C]-CA--N-[C] |==|  0.80138
USER: genes 23 Torsion [N]-C--CA-[N] |==|  0.34791
USER: genes 24 Torsion [C]-CA--CB-[CG] |==|  0.72893
USER: genes 25 Torsion [CA]-CB--CG-[OD1] |==|  0.22405
USER: genes 26 Torsion [C]-CA--N-[C] |==|  0.75881
USER: genes 27 Torsion [N]-C--CA-[N] |==|  0.46856
USER: genes 28 Torsion [C]-CA--N-[C] |==|  0.79246
USER: genes 29 Torsion [C]-CA--CB-[CG] |==|  0.30295
USER: genes 30 Torsion [CA]-CB--CG-[CD1] |==|  0.40619
USER: genes 31 Torsion [C]-CA--CB-[CG] |==|  0.28322
USER: genes 32 Torsion [CA]-CB--CG-[CD] |==|  0.68796
USER: genes 33 Torsion [CB]-CG--CD-[OE1] |==|  0.90169
ROOT
ATOM      1  C   GLU C   3      27.390   3.175 -13.717  1.00 25.67 LIG 0.24  C 
ATOM      2 O    GLU C   3      26.982   4.129 -13.040  1.00 24.73 LIG-0.27  OA
ATOM      3  N   MET C   4      27.201   1.893 -13.393  1.00 25.06 LIG-0.35  N 
ATOM      4 H    MET C   4      27.506   1.240 -13.861  1.00 25.06 LIG 0.16  HD
ENDROOT
BRANCH 3 5
ATOM      5  CA  MET C   4      26.454   1.469 -12.206  1.00 24.76 LIG 0.18  C 
BRANCH 5 6
ATOM      6  C   MET C   4      26.756   0.010 -11.906  1.00 24.60 LIG 0.24  C 
ATOM      7 O    MET C   4      27.869  -0.345 -11.505  1.00 25.19 LIG-0.27  OA
ATOM      8  N   GLU C   5      25.770  -0.836 -12.162  1.00 23.81 LIG-0.35  N 
ATOM      9 H    GLU C   5      25.035  -0.609 -12.545  1.00 23.81 LIG 0.16  HD
BRANCH 8 10
ATOM     10  CA  GLU C   5      25.846  -2.229 -11.815  1.00 23.16 LIG 0.18  C 
BRANCH 10 11
ATOM     11  CB  GLU C   5      25.653  -2.382 -10.309  1.00 23.03 LIG 0.04  C 
BRANCH 11 12
ATOM     12  CG  GLU C   5      26.356  -3.620  -9.754  1.00 23.31 LIG 0.12  C 
BRANCH 12 13
ATOM     13  CD  GLU C   5      27.162  -3.362  -8.479  1.00 24.36 LIG 0.17  C 
ATOM     14 OE2  GLU C   5      26.709  -3.803  -7.388  1.00 22.25 LIG-0.65  OA
ATOM     15 OE1  GLU C   5      28.228  -2.720  -8.542  1.00 21.71 LIG-0.65  OA
ENDBRANCH 12 13
ENDBRANCH 11 12
ENDBRANCH 10 11
BRANCH 10 16
ATOM     16  C   GLU C   5      24.765  -2.977 -12.555  1.00 22.53 LIG 0.24  C 
ATOM     17  N   GLU C   6      25.049  -4.224 -12.922  1.00 22.45 LIG-0.35  N 
ATOM     18 H    GLU C   6      25.829  -4.579 -12.859  1.00 22.45 LIG 0.16  HD
ATOM     19 O    GLU C   5      23.701  -2.425 -12.805  1.00 22.53 LIG-0.27  OA
BRANCH 17 20
ATOM     20  CA  GLU C   6      24.014  -5.116 -13.481  1.00 22.27 LIG 0.18  C 
BRANCH 20 21
ATOM     21  C   GLU C   6      23.459  -4.534 -14.771  1.00 21.97 LIG 0.24  C 
ATOM     22 O    GLU C   6      22.451  -3.828 -14.753  1.00 22.60 LIG-0.27  OA
ATOM     23  N   CYS C   7      24.095  -4.825 -15.904  1.00 20.65 LIG-0.34  N 
ATOM     24 H    CYS C   7      24.770  -5.354 -15.969  1.00 20.65 LIG 0.16  HD
BRANCH 23 25
ATOM     25  CA  CYS C   7      23.647  -4.219 -17.157  1.00 20.43 LIG 0.19  C 
BRANCH 25 26
ATOM     26  C   CYS C   7      23.883  -2.721 -17.160  1.00 19.69 LIG 0.20  C 
ATOM     27 O    CYS C   7      23.226  -1.951 -17.854  1.00 19.84 LIG-0.65  OA
ATOM     28 OXT  CYS C   7      24.768  -2.242 -16.456  1.00 20.10 LIG-0.65  OA
ENDBRANCH 25 26
BRANCH 25 29
ATOM     29  CB  CYS C   7      22.183  -4.604 -17.460  1.00 20.27 LIG 0.11  C 
BRANCH 29 30
ATOM     30 SG   CYS C   7      20.973  -3.326 -16.923  1.00 22.98 LIG-0.18  SA
ATOM     31 HG   CYS C   7      21.227  -2.284 -17.460  1.00 22.98 LIG 0.10  HD
ENDBRANCH 29 30
ENDBRANCH 25 29
ENDBRANCH 23 25
ENDBRANCH 20 21
BRANCH 20 32
ATOM     32  CB  GLU C   6      22.884  -5.314 -12.472  1.00 22.58 LIG 0.04  C 
BRANCH 32 33
ATOM     33  CG  GLU C   6      22.395  -6.740 -12.425  1.00 24.64 LIG 0.12  C 
BRANCH 33 34
ATOM     34  CD  GLU C   6      21.840  -7.143 -11.065  1.00 27.63 LIG 0.17  C 
ATOM     35 OE1  GLU C   6      22.220  -6.536 -10.034  1.00 27.17 LIG-0.65  OA
ATOM     36 OE2  GLU C   6      21.005  -8.076 -11.043  1.00 31.71 LIG-0.65  OA
ENDBRANCH 33 34
ENDBRANCH 32 33
ENDBRANCH 20 32
ENDBRANCH 17 20
ENDBRANCH 10 16
ENDBRANCH 8 10
ENDBRANCH 5 6
BRANCH 5 37
ATOM     37  CB  MET C   4      24.947   1.646 -12.420  1.00 24.86 LIG 0.04  C 
BRANCH 37 38
ATOM     38  CG  MET C   4      24.539   2.750 -13.417  1.00 24.76 LIG 0.08  C 
BRANCH 38 39
ATOM     39 SD   MET C   4      23.780   4.220 -12.685  1.00 26.68 LIG-0.17  SA
ATOM     40  CE  MET C   4      24.444   5.485 -13.784  1.00 24.50 LIG 0.09  C 
ENDBRANCH 38 39
ENDBRANCH 37 38
ENDBRANCH 5 37
ENDBRANCH 3 5
BRANCH 1 41
ATOM     41  CA  GLU C   3      28.125   3.428 -15.032  1.00 26.55 LIG 0.18  C 
BRANCH 41 42
ATOM     42  N   GLU C   3      29.240   2.493 -15.159  1.00 27.07 LIG-0.35  N 
ATOM     43 H    GLU C   3      29.126   1.881 -15.752  1.00 27.07 LIG 0.16  HD
ATOM     44  C   ASP C   2      30.330   2.606 -14.405  1.00 28.06 LIG 0.24  C 
ATOM     45 O    ASP C   2      30.477   3.512 -13.587  1.00 27.76 LIG-0.27  OA
BRANCH 44 46
ATOM     46  CA  ASP C   2      31.434   1.572 -14.643  1.00 28.68 LIG 0.19  C 
BRANCH 46 47
ATOM     47  CB  ASP C   2      31.555   0.571 -13.477  1.00 28.90 LIG 0.15  C 
BRANCH 47 48
ATOM     48  CG  ASP C   2      32.655   0.921 -12.482  1.00 30.38 LIG 0.17  C 
ATOM     49 OD2  ASP C   2      33.766   0.359 -12.566  1.00 31.55 LIG-0.65  OA
ATOM     50 OD1  ASP C   2      32.402   1.796 -11.613  1.00 32.13 LIG-0.65  OA
ENDBRANCH 47 48
ENDBRANCH 46 47
BRANCH 46 51
ATOM     51  N   ASP C   2      32.744   2.168 -14.938  1.00 28.83 LIG-0.34  N 
ATOM     52  C   PHE C   1      33.075   2.494 -16.186  1.00 29.29 LIG 0.24  C 
ATOM     53 O    PHE C   1      32.269   2.477 -17.118  1.00 29.28 LIG-0.27  OA
ATOM     54 H    ASP C   2      33.253   2.282 -14.253  1.00 28.83 LIG 0.16  HD
BRANCH 52 55
ATOM     55  CA  PHE C   1      34.527   2.869 -16.442  1.00 29.71 LIG 0.18  C 
BRANCH 55 56
ATOM     56  N   PHE C   1      34.725   2.921 -17.890  1.00 30.30 LIG-0.35  N 
ATOM     57 H    PHE C   1      34.780   3.718 -18.206  1.00 30.30 LIG 0.16  HD
ATOM     58  C   ACE C   0      34.810   1.817 -18.650  1.00 30.61 LIG 0.21  C 
ATOM     59  CH3 ACE C   0      35.268   2.059 -20.063  1.00 31.12 LIG 0.12  C 
ATOM     60 O    ACE C   0      34.276   0.751 -18.328  1.00 30.74 LIG-0.27  OA
ENDBRANCH 55 56
BRANCH 55 61
ATOM     61  CB  PHE C   1      34.865   4.230 -15.820  1.00 29.76 LIG 0.07  C 
BRANCH 61 62
ATOM     62  CG  PHE C   1      35.777   4.164 -14.607  1.00 30.32 LIG-0.06  A 
ATOM     63  CD1 PHE C   1      36.700   5.180 -14.367  1.00 31.60 LIG 0.01  A 
ATOM     64  CE1 PHE C   1      37.559   5.124 -13.265  1.00 31.29 LIG 0.00  A 
ATOM     65  CZ  PHE C   1      37.494   4.047 -12.394  1.00 31.54 LIG 0.00  A 
ATOM     66  CE2 PHE C   1      36.580   3.025 -12.624  1.00 29.54 LIG 0.00  A 
ATOM     67  CD2 PHE C   1      35.733   3.087 -13.723  1.00 30.51 LIG 0.01  A 
ENDBRANCH 61 62
ENDBRANCH 55 61
ENDBRANCH 52 55
ENDBRANCH 46 51
ENDBRANCH 44 46
ENDBRANCH 41 42
BRANCH 41 68
ATOM     68  CB  GLU C   3      27.175   3.381 -16.260  1.00 26.96 LIG 0.04  C 
BRANCH 68 69
ATOM     69  CG  GLU C   3      26.715   4.720 -16.888  1.00 28.76 LIG 0.12  C 
BRANCH 69 70
ATOM     70  CD  GLU C   3      25.245   5.011 -16.716  1.00 29.94 LIG 0.17  C 
ATOM     71 OE1  GLU C   3      24.447   4.055 -16.752  1.00 33.38 LIG-0.65  OA
ATOM     72 OE2  GLU C   3      24.891   6.199 -16.512  1.00 31.06 LIG-0.65  OA
ENDBRANCH 69 70
ENDBRANCH 68 69
ENDBRANCH 41 68
ENDBRANCH 1 41
TORSDOF 32
ENDMDL
MODEL 29
USER: ADFR SOLUTION from run 76
USER: SCORE 20.138216 LL:  -4.531 LR: -19.285 RR:   0.000 FEB:  -9.739
USER: RMSD 11.743111
USER: SEED 75
USER: STATUS searching
USER: GENES 34
USER: genes 0 Translation |==|  0.43440 0.52906 0.45742
USER: genes 1 Rotation |==|  0.91847 0.66223 0.42688 0.70789
USER: genes 2 Torsion [C]-N--CA-[CB] |==|  0.78689
USER: genes 3 Torsion [N]-CA--C-[N] |==|  0.71766
USER: genes 4 Torsion [C]-N--CA-[CB] |==|  0.53995
USER: genes 5 Torsion [N]-CA--CB-[CG] |==|  0.65478
USER: genes 6 Torsion [CA]-CB--CG-[CD] |==|  0.43524
USER: genes 7 Torsion [CB]-CG--CD-[OE2] |==|  0.67473
USER: genes 8 Torsion [N]-CA--C-[N] |==|  0.78620
USER: genes 9 Torsion [C]-N--CA-[C] |==|  0.61605
USER: genes 10 Torsion [N]-CA--C-[N] |==|  0.49376
USER: genes 11 Torsion [C]-N--CA-[CB] |==|  0.41517
USER: genes 12 Torsion [N]-CA--C-[OXT] |==|  0.56633
USER: genes 13 Torsion [N]-CA--CB-[SG] |==|  0.92673
USER: genes 14 Torsion [CA]-CB--SG-[HG] |==|  0.06034
USER: genes 15 Torsion [N]-CA--CB-[CG] |==|  0.03120
USER: genes 16 Torsion [CA]-CB--CG-[CD] |==|  0.41411
USER: genes 17 Torsion [CB]-CG--CD-[OE1] |==|  0.95985
USER: genes 18 Torsion [N]-CA--CB-[CG] |==|  0.73463
USER: genes 19 Torsion [CA]-CB--CG-[SD] |==|  0.24700
USER: genes 20 Torsion [CB]-CG--SD-[CE] |==|  0.31167
USER: genes 21 Torsion [N]-C--CA-[N] |==|  0.82981
USER: genes 22 Torsion [C]-CA--N-[C] |==|  0.57888
USER: genes 23 Torsion [N]-C--CA-[N] |==|  0.21535
USER: genes 24 Torsion [C]-CA--CB-[CG] |==|  0.53077
USER: genes 25 Torsion [CA]-CB--CG-[OD1] |==|  0.88063
USER: genes 26 Torsion [C]-CA--N-[C] |==|  0.75078
USER: genes 27 Torsion [N]-C--CA-[N] |==|  0.15691
USER: genes 28 Torsion [C]-CA--N-[C] |==|  0.76089
USER: genes 29 Torsion [C]-CA--CB-[CG] |==|  0.14093
USER: genes 30 Torsion [CA]-CB--CG-[CD1] |==|  0.61278
USER: genes 31 Torsion [C]-CA--CB-[CG] |==|  0.60029
USER: genes 32 Torsion [CA]-CB--CG-[CD] |==|  0.76741
USER: genes 33 Torsion [CB]-CG--CD-[OE1] |==|  0.00229
ROOT
ATOM      1  C   GLU C   3      26.986  -2.647  -9.620  1.00 25.67 LIG 0.24  C 
ATOM      2 O    GLU C   3      26.410  -3.193  -8.668  1.00 24.73 LIG-0.27  OA
ATOM      3  N   MET C   4      28.283  -2.329  -9.626  1.00 25.06 LIG-0.35  N 
ATOM      4 H    MET C   4      28.667  -1.933 -10.286  1.00 25.06 LIG 0.16  HD
ENDROOT
BRANCH 3 5
ATOM      5  CA  MET C   4      29.184  -2.620  -8.509  1.00 24.76 LIG 0.18  C 
BRANCH 5 6
ATOM      6  C   MET C   4      28.939  -4.034  -8.008  1.00 24.60 LIG 0.24  C 
ATOM      7 O    MET C   4      29.345  -5.016  -8.637  1.00 25.19 LIG-0.27  OA
ATOM      8  N   GLU C   5      28.217  -4.125  -6.902  1.00 23.81 LIG-0.35  N 
ATOM      9 H    GLU C   5      27.838  -3.453  -6.523  1.00 23.81 LIG 0.16  HD
BRANCH 8 10
ATOM     10  CA  GLU C   5      28.002  -5.376  -6.228  1.00 23.16 LIG 0.18  C 
BRANCH 10 11
ATOM     11  CB  GLU C   5      26.865  -5.216  -5.222  1.00 23.03 LIG 0.04  C 
BRANCH 11 12
ATOM     12  CG  GLU C   5      27.281  -5.607  -3.804  1.00 23.31 LIG 0.12  C 
BRANCH 12 13
ATOM     13  CD  GLU C   5      26.431  -4.964  -2.706  1.00 24.36 LIG 0.17  C 
ATOM     14 OE2  GLU C   5      26.997  -4.181  -1.896  1.00 22.25 LIG-0.65  OA
ATOM     15 OE1  GLU C   5      25.217  -5.233  -2.628  1.00 21.71 LIG-0.65  OA
ENDBRANCH 12 13
ENDBRANCH 11 12
ENDBRANCH 10 11
BRANCH 10 16
ATOM     16  C   GLU C   5      27.647  -6.428  -7.249  1.00 22.53 LIG 0.24  C 
ATOM     17  N   GLU C   6      26.404  -6.401  -7.724  1.00 22.45 LIG-0.35  N 
ATOM     18 H    GLU C   6      25.780  -5.900  -7.410  1.00 22.45 LIG 0.16  HD
ATOM     19 O    GLU C   5      28.480  -7.260  -7.584  1.00 22.53 LIG-0.27  OA
BRANCH 17 20
ATOM     20  CA  GLU C   6      25.995  -7.253  -8.858  1.00 22.27 LIG 0.18  C 
BRANCH 20 21
ATOM     21  C   GLU C   6      25.113  -6.467  -9.813  1.00 21.97 LIG 0.24  C 
ATOM     22 O    GLU C   6      24.797  -5.305  -9.556  1.00 22.60 LIG-0.27  OA
ATOM     23  N   CYS C   7      24.695  -7.082 -10.917  1.00 20.65 LIG-0.34  N 
ATOM     24 H    CYS C   7      24.847  -7.906 -11.111  1.00 20.65 LIG 0.16  HD
BRANCH 23 25
ATOM     25  CA  CYS C   7      23.913  -6.338 -11.905  1.00 20.43 LIG 0.19  C 
BRANCH 25 26
ATOM     26  C   CYS C   7      22.444  -6.304 -11.531  1.00 19.69 LIG 0.20  C 
ATOM     27 O    CYS C   7      22.053  -6.454 -10.377  1.00 19.84 LIG-0.65  OA
ATOM     28 OXT  CYS C   7      21.597  -6.130 -12.402  1.00 20.10 LIG-0.65  OA
ENDBRANCH 25 26
BRANCH 25 29
ATOM     29  CB  CYS C   7      24.166  -6.881 -13.327  1.00 20.27 LIG 0.11  C 
BRANCH 29 30
ATOM     30 SG   CYS C   7      25.812  -7.679 -13.515  1.00 22.98 LIG-0.18  SA
ATOM     31 HG   CYS C   7      26.221  -8.013 -12.438  1.00 22.98 LIG 0.10  HD
ENDBRANCH 29 30
ENDBRANCH 25 29
ENDBRANCH 23 25
ENDBRANCH 20 21
BRANCH 20 32
ATOM     32  CB  GLU C   6      25.247  -8.485  -8.352  1.00 22.58 LIG 0.04  C 
BRANCH 32 33
ATOM     33  CG  GLU C   6      24.885  -8.381  -6.891  1.00 24.64 LIG 0.12  C 
BRANCH 33 34
ATOM     34  CD  GLU C   6      23.599  -9.113  -6.534  1.00 27.63 LIG 0.17  C 
ATOM     35 OE1  GLU C   6      22.821  -9.484  -7.448  1.00 27.17 LIG-0.65  OA
ATOM     36 OE2  GLU C   6      23.380  -9.322  -5.320  1.00 31.71 LIG-0.65  OA
ENDBRANCH 33 34
ENDBRANCH 32 33
ENDBRANCH 20 32
ENDBRANCH 17 20
ENDBRANCH 10 16
ENDBRANCH 8 10
ENDBRANCH 5 6
BRANCH 5 37
ATOM     37  CB  MET C   4      28.968  -1.627  -7.362  1.00 24.86 LIG 0.04  C 
BRANCH 37 38
ATOM     38  CG  MET C   4      29.922  -0.415  -7.339  1.00 24.76 LIG 0.08  C 
BRANCH 38 39
ATOM     39 SD   MET C   4      29.369   1.029  -8.280  1.00 26.68 LIG-0.17  SA
ATOM     40  CE  MET C   4      29.068   2.178  -6.924  1.00 24.50 LIG 0.09  C 
ENDBRANCH 38 39
ENDBRANCH 37 38
ENDBRANCH 5 37
ENDBRANCH 3 5
BRANCH 1 41
ATOM     41  CA  GLU C   3      26.218  -2.338 -10.904  1.00 26.55 LIG 0.18  C 
BRANCH 41 42
ATOM     42  N   GLU C   3      26.256  -0.901 -11.164  1.00 27.07 LIG-0.35  N 
ATOM     43 H    GLU C   3      26.952  -0.501 -10.854  1.00 27.07 LIG 0.16  HD
ATOM     44  C   ASP C   2      25.280  -0.289 -11.828  1.00 28.06 LIG 0.24  C 
ATOM     45 O    ASP C   2      24.312  -0.893 -12.286  1.00 27.76 LIG-0.27  OA
BRANCH 44 46
ATOM     46  CA  ASP C   2      25.445   1.218 -12.047  1.00 28.68 LIG 0.19  C 
BRANCH 46 47
ATOM     47  CB  ASP C   2      24.094   1.922 -12.282  1.00 28.90 LIG 0.15  C 
BRANCH 47 48
ATOM     48  CG  ASP C   2      24.230   3.361 -12.766  1.00 30.38 LIG 0.17  C 
ATOM     49 OD2  ASP C   2      23.478   3.784 -13.668  1.00 31.55 LIG-0.65  OA
ATOM     50 OD1  ASP C   2      25.095   4.086 -12.210  1.00 32.13 LIG-0.65  OA
ENDBRANCH 47 48
ENDBRANCH 46 47
BRANCH 46 51
ATOM     51  N   ASP C   2      26.387   1.555 -13.123  1.00 28.83 LIG-0.34  N 
ATOM     52  C   PHE C   1      27.682   1.721 -12.862  1.00 29.29 LIG 0.24  C 
ATOM     53 O    PHE C   1      28.186   1.445 -11.771  1.00 29.28 LIG-0.27  OA
ATOM     54 H    ASP C   2      26.034   1.631 -13.904  1.00 28.83 LIG 0.16  HD
BRANCH 52 55
ATOM     55  CA  PHE C   1      28.543   2.310 -13.970  1.00 29.71 LIG 0.18  C 
BRANCH 55 56
ATOM     56  N   PHE C   1      27.960   3.595 -14.352  1.00 30.30 LIG-0.35  N 
ATOM     57 H    PHE C   1      28.304   4.268 -13.943  1.00 30.30 LIG 0.16  HD
ATOM     58  C   ACE C   0      26.978   3.704 -15.260  1.00 30.61 LIG 0.21  C 
ATOM     59  CH3 ACE C   0      26.688   5.111 -15.710  1.00 31.12 LIG 0.12  C 
ATOM     60 O    ACE C   0      26.179   2.789 -15.482  1.00 30.74 LIG-0.27  OA
ENDBRANCH 55 56
BRANCH 55 61
ATOM     61  CB  PHE C   1      29.989   2.510 -13.499  1.00 29.76 LIG 0.07  C 
BRANCH 61 62
ATOM     62  CG  PHE C   1      30.620   1.290 -12.852  1.00 30.32 LIG-0.06  A 
ATOM     63  CD1 PHE C   1      31.425   1.433 -11.723  1.00 31.60 LIG 0.01  A 
ATOM     64  CE1 PHE C   1      32.029   0.321 -11.126  1.00 31.29 LIG 0.00  A 
ATOM     65  CZ  PHE C   1      31.824  -0.943 -11.659  1.00 31.54 LIG 0.00  A 
ATOM     66  CE2 PHE C   1      31.026  -1.099 -12.786  1.00 29.54 LIG 0.00  A 
ATOM     67  CD2 PHE C   1      30.433   0.012 -13.374  1.00 30.51 LIG 0.01  A 
ENDBRANCH 61 62
ENDBRANCH 55 61
ENDBRANCH 52 55
ENDBRANCH 46 51
ENDBRANCH 44 46
ENDBRANCH 41 42
BRANCH 41 68
ATOM     68  CB  GLU C   3      26.727  -3.168 -12.114  1.00 26.96 LIG 0.04  C 
BRANCH 68 69
ATOM     69  CG  GLU C   3      26.749  -2.498 -13.510  1.00 28.76 LIG 0.12  C 
BRANCH 69 70
ATOM     70  CD  GLU C   3      25.430  -2.548 -14.240  1.00 29.94 LIG 0.17  C 
ATOM     71 OE1  GLU C   3      24.462  -3.090 -13.672  1.00 33.38 LIG-0.65  OA
ATOM     72 OE2  GLU C   3      25.354  -2.014 -15.374  1.00 31.06 LIG-0.65  OA
ENDBRANCH 69 70
ENDBRANCH 68 69
ENDBRANCH 41 68
ENDBRANCH 1 41
TORSDOF 32
ENDMDL
MODEL 30
USER: ADFR SOLUTION from run 190
USER: SCORE 21.303613 LL:  -4.658 LR: -19.281 RR:   0.000 FEB:  -9.736
USER: RMSD 14.340908
USER: SEED 189
USER: STATUS no improvement in best in 3 clusters for 5 generations
USER: GENES 34
USER: genes 0 Translation |==|  0.42368 0.63952 0.34893
USER: genes 1 Rotation |==|  0.08362 0.74936 0.61702 0.52742
USER: genes 2 Torsion [C]-N--CA-[CB] |==|  0.40822
USER: genes 3 Torsion [N]-CA--C-[N] |==|  0.87815
USER: genes 4 Torsion [C]-N--CA-[CB] |==|  0.78718
USER: genes 5 Torsion [N]-CA--CB-[CG] |==|  0.83273
USER: genes 6 Torsion [CA]-CB--CG-[CD] |==|  0.42560
USER: genes 7 Torsion [CB]-CG--CD-[OE2] |==|  0.67533
USER: genes 8 Torsion [N]-CA--C-[N] |==|  0.18056
USER: genes 9 Torsion [C]-N--CA-[C] |==|  0.84444
USER: genes 10 Torsion [N]-CA--C-[N] |==|  0.36820
USER: genes 11 Torsion [C]-N--CA-[CB] |==|  0.25935
USER: genes 12 Torsion [N]-CA--C-[OXT] |==|  0.78878
USER: genes 13 Torsion [N]-CA--CB-[SG] |==|  0.93596
USER: genes 14 Torsion [CA]-CB--SG-[HG] |==|  0.16756
USER: genes 15 Torsion [N]-CA--CB-[CG] |==|  0.59039
USER: genes 16 Torsion [CA]-CB--CG-[CD] |==|  0.02085
USER: genes 17 Torsion [CB]-CG--CD-[OE1] |==|  0.72158
USER: genes 18 Torsion [N]-CA--CB-[CG] |==|  0.47700
USER: genes 19 Torsion [CA]-CB--CG-[SD] |==|  0.29506
USER: genes 20 Torsion [CB]-CG--SD-[CE] |==|  0.46835
USER: genes 21 Torsion [N]-C--CA-[N] |==|  0.38476
USER: genes 22 Torsion [C]-CA--N-[C] |==|  0.59083
USER: genes 23 Torsion [N]-C--CA-[N] |==|  0.60556
USER: genes 24 Torsion [C]-CA--CB-[CG] |==|  0.63421
USER: genes 25 Torsion [CA]-CB--CG-[OD1] |==|  0.75030
USER: genes 26 Torsion [C]-CA--N-[C] |==|  0.13118
USER: genes 27 Torsion [N]-C--CA-[N] |==|  0.00249
USER: genes 28 Torsion [C]-CA--N-[C] |==|  0.69787
USER: genes 29 Torsion [C]-CA--CB-[CG] |==|  0.77975
USER: genes 30 Torsion [CA]-CB--CG-[CD1] |==|  0.23324
USER: genes 31 Torsion [C]-CA--CB-[CG] |==|  0.35345
USER: genes 32 Torsion [CA]-CB--CG-[CD] |==|  0.35202
USER: genes 33 Torsion [CB]-CG--CD-[OE1] |==|  0.80960
ROOT
ATOM      1  C   GLU C   3      26.785   0.418 -12.386  1.00 25.67 LIG 0.24  C 
ATOM      2 O    GLU C   3      26.019   1.076 -11.668  1.00 24.73 LIG-0.27  OA
ATOM      3  N   MET C   4      26.678  -0.899 -12.585  1.00 25.06 LIG-0.35  N 
ATOM      4 H    MET C   4      27.228  -1.347 -13.071  1.00 25.06 LIG 0.16  HD
ENDROOT
BRANCH 3 5
ATOM      5  CA  MET C   4      25.614  -1.714 -11.994  1.00 24.76 LIG 0.18  C 
BRANCH 5 6
ATOM      6  C   MET C   4      26.080  -2.280 -10.664  1.00 24.60 LIG 0.24  C 
ATOM      7 O    MET C   4      25.364  -2.228  -9.659  1.00 25.19 LIG-0.27  OA
ATOM      8  N   GLU C   5      27.312  -2.766 -10.656  1.00 23.81 LIG-0.35  N 
ATOM      9 H    GLU C   5      27.853  -2.704 -11.321  1.00 23.81 LIG 0.16  HD
BRANCH 8 10
ATOM     10  CA  GLU C   5      27.858  -3.452  -9.518  1.00 23.16 LIG 0.18  C 
BRANCH 10 11
ATOM     11  CB  GLU C   5      28.240  -2.429  -8.451  1.00 23.03 LIG 0.04  C 
BRANCH 11 12
ATOM     12  CG  GLU C   5      29.286  -1.432  -8.947  1.00 23.31 LIG 0.12  C 
BRANCH 12 13
ATOM     13  CD  GLU C   5      29.240  -0.076  -8.241  1.00 24.36 LIG 0.17  C 
ATOM     14 OE2  GLU C   5      28.966   0.945  -8.928  1.00 22.25 LIG-0.65  OA
ATOM     15 OE1  GLU C   5      29.480  -0.007  -7.020  1.00 21.71 LIG-0.65  OA
ENDBRANCH 12 13
ENDBRANCH 11 12
ENDBRANCH 10 11
BRANCH 10 16
ATOM     16  C   GLU C   5      26.821  -4.404  -8.976  1.00 22.53 LIG 0.24  C 
ATOM     17  N   GLU C   6      26.466  -5.412  -9.769  1.00 22.45 LIG-0.35  N 
ATOM     18 H    GLU C   6      26.707  -5.486 -10.591  1.00 22.45 LIG 0.16  HD
ATOM     19 O    GLU C   5      26.339  -4.216  -7.867  1.00 22.53 LIG-0.27  OA
BRANCH 17 20
ATOM     20  CA  GLU C   6      25.607  -6.510  -9.281  1.00 22.27 LIG 0.18  C 
BRANCH 20 21
ATOM     21  C   GLU C   6      26.228  -7.157  -8.054  1.00 21.97 LIG 0.24  C 
ATOM     22 O    GLU C   6      27.417  -7.477  -8.054  1.00 22.60 LIG-0.27  OA
ATOM     23  N   CYS C   7      25.442  -7.367  -7.001  1.00 20.65 LIG-0.34  N 
ATOM     24 H    CYS C   7      24.597  -7.208  -6.976  1.00 20.65 LIG 0.16  HD
BRANCH 23 25
ATOM     25  CA  CYS C   7      26.016  -7.910  -5.771  1.00 20.43 LIG 0.19  C 
BRANCH 25 26
ATOM     26  C   CYS C   7      25.092  -8.931  -5.136  1.00 19.69 LIG 0.20  C 
ATOM     27 O    CYS C   7      25.291 -10.140  -5.213  1.00 19.84 LIG-0.65  OA
ATOM     28 OXT  CYS C   7      24.094  -8.555  -4.527  1.00 20.10 LIG-0.65  OA
ENDBRANCH 25 26
BRANCH 25 29
ATOM     29  CB  CYS C   7      26.421  -6.776  -4.806  1.00 20.27 LIG 0.11  C 
BRANCH 29 30
ATOM     30 SG   CYS C   7      26.716  -5.173  -5.659  1.00 22.98 LIG-0.18  SA
ATOM     31 HG   CYS C   7      25.713  -4.825  -6.217  1.00 22.98 LIG 0.10  HD
ENDBRANCH 29 30
ENDBRANCH 25 29
ENDBRANCH 23 25
ENDBRANCH 20 21
BRANCH 20 32
ATOM     32  CB  GLU C   6      25.411  -7.555 -10.378  1.00 22.58 LIG 0.04  C 
BRANCH 32 33
ATOM     33  CG  GLU C   6      24.056  -8.217 -10.308  1.00 24.64 LIG 0.12  C 
BRANCH 33 34
ATOM     34  CD  GLU C   6      23.125  -7.577  -9.288  1.00 27.63 LIG 0.17  C 
ATOM     35 OE1  GLU C   6      22.972  -8.115  -8.163  1.00 27.17 LIG-0.65  OA
ATOM     36 OE2  GLU C   6      22.550  -6.518  -9.625  1.00 31.71 LIG-0.65  OA
ENDBRANCH 33 34
ENDBRANCH 32 33
ENDBRANCH 20 32
ENDBRANCH 17 20
ENDBRANCH 10 16
ENDBRANCH 8 10
ENDBRANCH 5 6
BRANCH 5 37
ATOM     37  CB  MET C   4      25.225  -2.863 -12.931  1.00 24.86 LIG 0.04  C 
BRANCH 37 38
ATOM     38  CG  MET C   4      24.256  -3.907 -12.339  1.00 24.76 LIG 0.08  C 
BRANCH 38 39
ATOM     39 SD   MET C   4      22.556  -3.829 -12.955  1.00 26.68 LIG-0.17  SA
ATOM     40  CE  MET C   4      21.922  -5.382 -12.293  1.00 24.50 LIG 0.09  C 
ENDBRANCH 38 39
ENDBRANCH 37 38
ENDBRANCH 5 37
ENDBRANCH 3 5
BRANCH 1 41
ATOM     41  CA  GLU C   3      27.912   1.116 -13.146  1.00 26.55 LIG 0.18  C 
BRANCH 41 42
ATOM     42  N   GLU C   3      27.432   2.392 -13.670  1.00 27.07 LIG-0.35  N 
ATOM     43 H    GLU C   3      26.844   2.781 -13.178  1.00 27.07 LIG 0.16  HD
ATOM     44  C   ASP C   2      27.888   2.887 -14.818  1.00 28.06 LIG 0.24  C 
ATOM     45 O    ASP C   2      28.752   2.322 -15.484  1.00 27.76 LIG-0.27  OA
BRANCH 44 46
ATOM     46  CA  ASP C   2      27.316   4.240 -15.252  1.00 28.68 LIG 0.19  C 
BRANCH 46 47
ATOM     47  CB  ASP C   2      26.027   4.599 -14.486  1.00 28.90 LIG 0.15  C 
BRANCH 47 48
ATOM     48  CG  ASP C   2      24.889   5.063 -15.387  1.00 30.38 LIG 0.17  C 
ATOM     49 OD2  ASP C   2      24.070   4.229 -15.827  1.00 31.55 LIG-0.65  OA
ATOM     50 OD1  ASP C   2      24.804   6.293 -15.637  1.00 32.13 LIG-0.65  OA
ENDBRANCH 47 48
ENDBRANCH 46 47
BRANCH 46 51
ATOM     51  N   ASP C   2      27.091   4.344 -16.701  1.00 28.83 LIG-0.34  N 
ATOM     52  C   PHE C   1      26.472   3.368 -17.362  1.00 29.29 LIG 0.24  C 
ATOM     53 O    PHE C   1      25.915   2.425 -16.797  1.00 29.28 LIG-0.27  OA
ATOM     54 H    ASP C   2      27.386   5.067 -17.062  1.00 28.83 LIG 0.16  HD
BRANCH 52 55
ATOM     55  CA  PHE C   1      26.501   3.435 -18.882  1.00 29.71 LIG 0.18  C 
BRANCH 55 56
ATOM     56  N   PHE C   1      27.268   4.620 -19.262  1.00 30.30 LIG-0.35  N 
ATOM     57 H    PHE C   1      28.112   4.551 -19.114  1.00 30.30 LIG 0.16  HD
ATOM     58  C   ACE C   0      26.698   5.713 -19.793  1.00 30.61 LIG 0.21  C 
ATOM     59  CH3 ACE C   0      27.666   6.719 -20.354  1.00 31.12 LIG 0.12  C 
ATOM     60 O    ACE C   0      25.521   6.017 -19.574  1.00 30.74 LIG-0.27  OA
ENDBRANCH 55 56
BRANCH 55 61
ATOM     61  CB  PHE C   1      27.150   2.179 -19.478  1.00 29.76 LIG 0.07  C 
BRANCH 61 62
ATOM     62  CG  PHE C   1      28.668   2.170 -19.440  1.00 30.32 LIG-0.06  A 
ATOM     63  CD1 PHE C   1      29.337   1.753 -18.291  1.00 31.60 LIG 0.01  A 
ATOM     64  CE1 PHE C   1      30.735   1.757 -18.233  1.00 31.29 LIG 0.00  A 
ATOM     65  CZ  PHE C   1      31.469   2.176 -19.333  1.00 31.54 LIG 0.00  A 
ATOM     66  CE2 PHE C   1      30.813   2.597 -20.484  1.00 29.54 LIG 0.00  A 
ATOM     67  CD2 PHE C   1      29.425   2.593 -20.531  1.00 30.51 LIG 0.01  A 
ENDBRANCH 61 62
ENDBRANCH 55 61
ENDBRANCH 52 55
ENDBRANCH 46 51
ENDBRANCH 44 46
ENDBRANCH 41 42
BRANCH 41 68
ATOM     68  CB  GLU C   3      29.194   1.279 -12.285  1.00 26.96 LIG 0.04  C 
BRANCH 68 69
ATOM     69  CG  GLU C   3      30.538   0.767 -12.860  1.00 28.76 LIG 0.12  C 
BRANCH 69 70
ATOM     70  CD  GLU C   3      31.642   1.796 -12.861  1.00 29.94 LIG 0.17  C 
ATOM     71 OE1  GLU C   3      31.538   2.770 -13.632  1.00 33.38 LIG-0.65  OA
ATOM     72 OE2  GLU C   3      32.601   1.645 -12.065  1.00 31.06 LIG-0.65  OA
ENDBRANCH 69 70
ENDBRANCH 68 69
ENDBRANCH 41 68
ENDBRANCH 1 41
TORSDOF 32
ENDMDL
MODEL 31
USER: ADFR SOLUTION from run 150
USER: SCORE 20.382717 LL:  -5.255 LR: -19.169 RR:   0.000 FEB:  -9.623
USER: RMSD 14.372568
USER: SEED 149
USER: STATUS no improvement in best in 10 clusters for 5 generations
USER: GENES 34
USER: genes 0 Translation |==|  0.39329 0.68078 0.34369
USER: genes 1 Rotation |==|  0.96935 0.37428 0.38393 0.52078
USER: genes 2 Torsion [C]-N--CA-[CB] |==|  0.31111
USER: genes 3 Torsion [N]-CA--C-[N] |==|  0.38606
USER: genes 4 Torsion [C]-N--CA-[CB] |==|  0.25957
USER: genes 5 Torsion [N]-CA--CB-[CG] |==|  0.81794
USER: genes 6 Torsion [CA]-CB--CG-[CD] |==|  0.49647
USER: genes 7 Torsion [CB]-CG--CD-[OE2] |==|  0.47016
USER: genes 8 Torsion [N]-CA--C-[N] |==|  0.42315
USER: genes 9 Torsion [C]-N--CA-[C] |==|  0.20433
USER: genes 10 Torsion [N]-CA--C-[N] |==|  0.80733
USER: genes 11 Torsion [C]-N--CA-[CB] |==|  0.21960
USER: genes 12 Torsion [N]-CA--C-[OXT] |==|  0.12601
USER: genes 13 Torsion [N]-CA--CB-[SG] |==|  0.50404
USER: genes 14 Torsion [CA]-CB--SG-[HG] |==|  0.69957
USER: genes 15 Torsion [N]-CA--CB-[CG] |==|  0.53913
USER: genes 16 Torsion [CA]-CB--CG-[CD] |==|  0.55479
USER: genes 17 Torsion [CB]-CG--CD-[OE1] |==|  0.74041
USER: genes 18 Torsion [N]-CA--CB-[CG] |==|  0.00657
USER: genes 19 Torsion [CA]-CB--CG-[SD] |==|  0.20728
USER: genes 20 Torsion [CB]-CG--SD-[CE] |==|  0.45937
USER: genes 21 Torsion [N]-C--CA-[N] |==|  0.12824
USER: genes 22 Torsion [C]-CA--N-[C] |==|  0.62494
USER: genes 23 Torsion [N]-C--CA-[N] |==|  0.18179
USER: genes 24 Torsion [C]-CA--CB-[CG] |==|  0.42639
USER: genes 25 Torsion [CA]-CB--CG-[OD1] |==|  0.03858
USER: genes 26 Torsion [C]-CA--N-[C] |==|  0.79335
USER: genes 27 Torsion [N]-C--CA-[N] |==|  0.44668
USER: genes 28 Torsion [C]-CA--N-[C] |==|  0.79659
USER: genes 29 Torsion [C]-CA--CB-[CG] |==|  0.21454
USER: genes 30 Torsion [CA]-CB--CG-[CD1] |==|  0.12335
USER: genes 31 Torsion [C]-CA--CB-[CG] |==|  0.55795
USER: genes 32 Torsion [CA]-CB--CG-[CD] |==|  0.31398
USER: genes 33 Torsion [CB]-CG--CD-[OE1] |==|  0.89049
ROOT
ATOM      1  C   GLU C   3      26.215   1.563 -12.520  1.00 25.67 LIG 0.24  C 
ATOM      2 O    GLU C   3      25.215   1.746 -11.812  1.00 24.73 LIG-0.27  OA
ATOM      3  N   MET C   4      26.836   0.387 -12.647  1.00 25.06 LIG-0.35  N 
ATOM      4 H    MET C   4      27.541   0.277 -13.127  1.00 25.06 LIG 0.16  HD
ENDROOT
BRANCH 3 5
ATOM      5  CA  MET C   4      26.380  -0.835 -11.982  1.00 24.76 LIG 0.18  C 
BRANCH 5 6
ATOM      6  C   MET C   4      27.527  -1.452 -11.199  1.00 24.60 LIG 0.24  C 
ATOM      7 O    MET C   4      28.659  -1.540 -11.685  1.00 25.19 LIG-0.27  OA
ATOM      8  N   GLU C   5      27.206  -1.931 -10.007  1.00 23.81 LIG-0.35  N 
ATOM      9 H    GLU C   5      26.400  -1.973  -9.712  1.00 23.81 LIG 0.16  HD
BRANCH 8 10
ATOM     10  CA  GLU C   5      28.194  -2.429  -9.090  1.00 23.16 LIG 0.18  C 
BRANCH 10 11
ATOM     11  CB  GLU C   5      28.615  -1.306  -8.147  1.00 23.03 LIG 0.04  C 
BRANCH 11 12
ATOM     12  CG  GLU C   5      29.338  -0.173  -8.874  1.00 23.31 LIG 0.12  C 
BRANCH 12 13
ATOM     13  CD  GLU C   5      29.750   0.988  -7.968  1.00 24.36 LIG 0.17  C 
ATOM     14 OE2  GLU C   5      30.526   1.864  -8.436  1.00 22.25 LIG-0.65  OA
ATOM     15 OE1  GLU C   5      29.325   1.038  -6.797  1.00 21.71 LIG-0.65  OA
ENDBRANCH 12 13
ENDBRANCH 11 12
ENDBRANCH 10 11
BRANCH 10 16
ATOM     16  C   GLU C   5      27.600  -3.572  -8.304  1.00 22.53 LIG 0.24  C 
ATOM     17  N   GLU C   6      28.452  -4.491  -7.855  1.00 22.45 LIG-0.35  N 
ATOM     18 H    GLU C   6      29.282  -4.527  -8.075  1.00 22.45 LIG 0.16  HD
ATOM     19 O    GLU C   5      26.391  -3.627  -8.126  1.00 22.53 LIG-0.27  OA
BRANCH 17 20
ATOM     20  CA  GLU C   6      28.020  -5.548  -6.920  1.00 22.27 LIG 0.18  C 
BRANCH 20 21
ATOM     21  C   GLU C   6      27.177  -6.582  -7.649  1.00 21.97 LIG 0.24  C 
ATOM     22 O    GLU C   6      27.615  -7.715  -7.846  1.00 22.60 LIG-0.27  OA
ATOM     23  N   CYS C   7      25.968  -6.212  -8.066  1.00 20.65 LIG-0.34  N 
ATOM     24 H    CYS C   7      25.644  -5.418  -7.997  1.00 20.65 LIG 0.16  HD
BRANCH 23 25
ATOM     25  CA  CYS C   7      25.091  -7.197  -8.697  1.00 20.43 LIG 0.19  C 
BRANCH 25 26
ATOM     26  C   CYS C   7      24.102  -6.532  -9.635  1.00 19.69 LIG 0.20  C 
ATOM     27 O    CYS C   7      22.912  -6.829  -9.658  1.00 19.84 LIG-0.65  OA
ATOM     28 OXT  CYS C   7      24.490  -5.668 -10.418  1.00 20.10 LIG-0.65  OA
ENDBRANCH 25 26
BRANCH 25 29
ATOM     29  CB  CYS C   7      24.415  -8.090  -7.636  1.00 20.27 LIG 0.11  C 
BRANCH 29 30
ATOM     30 SG   CYS C   7      23.327  -9.382  -8.364  1.00 22.98 LIG-0.18  SA
ATOM     31 HG   CYS C   7      22.179  -9.102  -8.160  1.00 22.98 LIG 0.10  HD
ENDBRANCH 29 30
ENDBRANCH 25 29
ENDBRANCH 23 25
ENDBRANCH 20 21
BRANCH 20 32
ATOM     32  CB  GLU C   6      27.219  -4.942  -5.769  1.00 22.58 LIG 0.04  C 
BRANCH 32 33
ATOM     33  CG  GLU C   6      27.042  -5.903  -4.619  1.00 24.64 LIG 0.12  C 
BRANCH 33 34
ATOM     34  CD  GLU C   6      25.889  -5.533  -3.696  1.00 27.63 LIG 0.17  C 
ATOM     35 OE1  GLU C   6      26.109  -4.834  -2.675  1.00 27.17 LIG-0.65  OA
ATOM     36 OE2  GLU C   6      24.751  -5.946  -4.012  1.00 31.71 LIG-0.65  OA
ENDBRANCH 33 34
ENDBRANCH 32 33
ENDBRANCH 20 32
ENDBRANCH 17 20
ENDBRANCH 10 16
ENDBRANCH 8 10
ENDBRANCH 5 6
BRANCH 5 37
ATOM     37  CB  MET C   4      25.857  -1.849 -13.006  1.00 24.86 LIG 0.04  C 
BRANCH 37 38
ATOM     38  CG  MET C   4      25.965  -1.421 -14.484  1.00 24.76 LIG 0.08  C 
BRANCH 38 39
ATOM     39 SD   MET C   4      27.629  -1.483 -15.193  1.00 26.68 LIG-0.17  SA
ATOM     40  CE  MET C   4      27.218  -1.362 -16.944  1.00 24.50 LIG 0.09  C 
ENDBRANCH 38 39
ENDBRANCH 37 38
ENDBRANCH 5 37
ENDBRANCH 3 5
BRANCH 1 41
ATOM     41  CA  GLU C   3      26.787   2.711 -13.350  1.00 26.55 LIG 0.18  C 
BRANCH 41 42
ATOM     42  N   GLU C   3      27.029   2.256 -14.716  1.00 27.07 LIG-0.35  N 
ATOM     43 H    GLU C   3      26.388   1.794 -15.057  1.00 27.07 LIG 0.16  HD
ATOM     44  C   ASP C   2      28.159   2.547 -15.356  1.00 28.06 LIG 0.24  C 
ATOM     45 O    ASP C   2      29.044   3.236 -14.853  1.00 27.76 LIG-0.27  OA
BRANCH 44 46
ATOM     46  CA  ASP C   2      28.286   2.023 -16.789  1.00 28.68 LIG 0.19  C 
BRANCH 46 47
ATOM     47  CB  ASP C   2      29.719   2.171 -17.337  1.00 28.90 LIG 0.15  C 
BRANCH 47 48
ATOM     48  CG  ASP C   2      30.069   1.153 -18.417  1.00 30.38 LIG 0.17  C 
ATOM     49 OD2  ASP C   2      31.263   0.978 -18.738  1.00 31.55 LIG-0.65  OA
ATOM     50 OD1  ASP C   2      29.126   0.501 -18.935  1.00 32.13 LIG-0.65  OA
ENDBRANCH 47 48
ENDBRANCH 46 47
BRANCH 46 51
ATOM     51  N   ASP C   2      27.321   2.622 -17.721  1.00 28.83 LIG-0.34  N 
ATOM     52  C   PHE C   1      26.039   2.265 -17.691  1.00 29.29 LIG 0.24  C 
ATOM     53 O    PHE C   1      25.560   1.561 -16.799  1.00 29.28 LIG-0.27  OA
ATOM     54 H    ASP C   2      27.652   3.201 -18.264  1.00 28.83 LIG 0.16  HD
BRANCH 52 55
ATOM     55  CA  PHE C   1      25.160   2.737 -18.840  1.00 29.71 LIG 0.18  C 
BRANCH 55 56
ATOM     56  N   PHE C   1      23.969   1.889 -18.868  1.00 30.30 LIG-0.35  N 
ATOM     57 H    PHE C   1      23.257   2.281 -18.589  1.00 30.30 LIG 0.16  HD
ATOM     58  C   ACE C   0      23.995   0.616 -19.293  1.00 30.61 LIG 0.21  C 
ATOM     59  CH3 ACE C   0      22.642  -0.009 -19.493  1.00 31.12 LIG 0.12  C 
ATOM     60 O    ACE C   0      25.014  -0.079 -19.234  1.00 30.74 LIG-0.27  OA
ENDBRANCH 55 56
BRANCH 55 61
ATOM     61  CB  PHE C   1      24.753   4.205 -18.658  1.00 29.76 LIG 0.07  C 
BRANCH 61 62
ATOM     62  CG  PHE C   1      25.837   5.211 -18.999  1.00 30.32 LIG-0.06  A 
ATOM     63  CD1 PHE C   1      26.599   5.055 -20.156  1.00 31.60 LIG 0.01  A 
ATOM     64  CE1 PHE C   1      27.615   5.963 -20.475  1.00 31.29 LIG 0.00  A 
ATOM     65  CZ  PHE C   1      27.868   7.038 -19.634  1.00 31.54 LIG 0.00  A 
ATOM     66  CE2 PHE C   1      27.117   7.202 -18.476  1.00 29.54 LIG 0.00  A 
ATOM     67  CD2 PHE C   1      26.113   6.293 -18.166  1.00 30.51 LIG 0.01  A 
ENDBRANCH 61 62
ENDBRANCH 55 61
ENDBRANCH 52 55
ENDBRANCH 46 51
ENDBRANCH 44 46
ENDBRANCH 41 42
BRANCH 41 68
ATOM     68  CB  GLU C   3      25.891   3.979 -13.303  1.00 26.96 LIG 0.04  C 
BRANCH 68 69
ATOM     69  CG  GLU C   3      26.040   5.029 -14.432  1.00 28.76 LIG 0.12  C 
BRANCH 69 70
ATOM     70  CD  GLU C   3      24.831   5.149 -15.327  1.00 29.94 LIG 0.17  C 
ATOM     71 OE1  GLU C   3      24.228   4.106 -15.645  1.00 33.38 LIG-0.65  OA
ATOM     72 OE2  GLU C   3      24.466   6.295 -15.687  1.00 31.06 LIG-0.65  OA
ENDBRANCH 69 70
ENDBRANCH 68 69
ENDBRANCH 41 68
ENDBRANCH 1 41
TORSDOF 32
ENDMDL
MODEL 32
USER: ADFR SOLUTION from run 39
USER: SCORE 21.508964 LL:  -5.227 LR: -19.150 RR:   0.000 FEB:  -9.605
USER: RMSD 12.706145
USER: SEED 38
USER: STATUS no improvement in best in 5 clusters for 5 generations
USER: GENES 34
USER: genes 0 Translation |==|  0.44115 0.53948 0.45217
USER: genes 1 Rotation |==|  0.95073 0.48878 0.41101 0.69696
USER: genes 2 Torsion [C]-N--CA-[CB] |==|  0.78309
USER: genes 3 Torsion [N]-CA--C-[N] |==|  0.19549
USER: genes 4 Torsion [C]-N--CA-[CB] |==|  0.42950
USER: genes 5 Torsion [N]-CA--CB-[CG] |==|  0.66611
USER: genes 6 Torsion [CA]-CB--CG-[CD] |==|  0.83377
USER: genes 7 Torsion [CB]-CG--CD-[OE2] |==|  0.46335
USER: genes 8 Torsion [N]-CA--C-[N] |==|  0.30143
USER: genes 9 Torsion [C]-N--CA-[C] |==|  0.76249
USER: genes 10 Torsion [N]-CA--C-[N] |==|  0.19502
USER: genes 11 Torsion [C]-N--CA-[CB] |==|  0.34300
USER: genes 12 Torsion [N]-CA--C-[OXT] |==|  0.01789
USER: genes 13 Torsion [N]-CA--CB-[SG] |==|  0.08248
USER: genes 14 Torsion [CA]-CB--SG-[HG] |==|  0.92526
USER: genes 15 Torsion [N]-CA--CB-[CG] |==|  0.81925
USER: genes 16 Torsion [CA]-CB--CG-[CD] |==|  0.39551
USER: genes 17 Torsion [CB]-CG--CD-[OE1] |==|  0.41651
USER: genes 18 Torsion [N]-CA--CB-[CG] |==|  0.85927
USER: genes 19 Torsion [CA]-CB--CG-[SD] |==|  0.22895
USER: genes 20 Torsion [CB]-CG--SD-[CE] |==|  0.30862
USER: genes 21 Torsion [N]-C--CA-[N] |==|  0.87902
USER: genes 22 Torsion [C]-CA--N-[C] |==|  0.69105
USER: genes 23 Torsion [N]-C--CA-[N] |==|  0.92474
USER: genes 24 Torsion [C]-CA--CB-[CG] |==|  0.33394
USER: genes 25 Torsion [CA]-CB--CG-[OD1] |==|  0.17350
USER: genes 26 Torsion [C]-CA--N-[C] |==|  0.62909
USER: genes 27 Torsion [N]-C--CA-[N] |==|  0.35651
USER: genes 28 Torsion [C]-CA--N-[C] |==|  0.83268
USER: genes 29 Torsion [C]-CA--CB-[CG] |==|  0.82283
USER: genes 30 Torsion [CA]-CB--CG-[CD1] |==|  0.28667
USER: genes 31 Torsion [C]-CA--CB-[CG] |==|  0.18432
USER: genes 32 Torsion [CA]-CB--CG-[CD] |==|  0.27809
USER: genes 33 Torsion [CB]-CG--CD-[OE1] |==|  0.15738
ROOT
ATOM      1  C   GLU C   3      27.112  -2.358  -9.754  1.00 25.67 LIG 0.24  C 
ATOM      2 O    GLU C   3      26.135  -2.332  -8.992  1.00 24.73 LIG-0.27  OA
ATOM      3  N   MET C   4      28.292  -2.900  -9.439  1.00 25.06 LIG-0.35  N 
ATOM      4 H    MET C   4      28.968  -2.896  -9.970  1.00 25.06 LIG 0.16  HD
ENDROOT
BRANCH 3 5
ATOM      5  CA  MET C   4      28.554  -3.558  -8.156  1.00 24.76 LIG 0.18  C 
BRANCH 5 6
ATOM      6  C   MET C   4      27.372  -4.437  -7.781  1.00 24.60 LIG 0.24  C 
ATOM      7 O    MET C   4      26.655  -4.166  -6.813  1.00 25.19 LIG-0.27  OA
ATOM      8  N   GLU C   5      27.218  -5.524  -8.521  1.00 23.81 LIG-0.35  N 
ATOM      9 H    GLU C   5      27.778  -5.775  -9.122  1.00 23.81 LIG 0.16  HD
BRANCH 8 10
ATOM     10  CA  GLU C   5      26.081  -6.391  -8.380  1.00 23.16 LIG 0.18  C 
BRANCH 10 11
ATOM     11  CB  GLU C   5      25.848  -7.131  -9.695  1.00 23.03 LIG 0.04  C 
BRANCH 11 12
ATOM     12  CG  GLU C   5      24.468  -6.848 -10.288  1.00 23.31 LIG 0.12  C 
BRANCH 12 13
ATOM     13  CD  GLU C   5      23.305  -7.250  -9.380  1.00 24.36 LIG 0.17  C 
ATOM     14 OE2  GLU C   5      22.152  -6.829  -9.668  1.00 22.25 LIG-0.65  OA
ATOM     15 OE1  GLU C   5      23.519  -7.965  -8.382  1.00 21.71 LIG-0.65  OA
ENDBRANCH 12 13
ENDBRANCH 11 12
ENDBRANCH 10 11
BRANCH 10 16
ATOM     16  C   GLU C   5      26.351  -7.377  -7.271  1.00 22.53 LIG 0.24  C 
ATOM     17  N   GLU C   6      25.664  -7.207  -6.144  1.00 22.45 LIG-0.35  N 
ATOM     18 H    GLU C   6      25.170  -6.523  -5.979  1.00 22.45 LIG 0.16  HD
ATOM     19 O    GLU C   5      27.181  -8.263  -7.429  1.00 22.53 LIG-0.27  OA
BRANCH 17 20
ATOM     20  CA  GLU C   6      25.700  -8.211  -5.062  1.00 22.27 LIG 0.18  C 
BRANCH 20 21
ATOM     21  C   GLU C   6      24.667  -9.296  -5.317  1.00 21.97 LIG 0.24  C 
ATOM     22 O    GLU C   6      23.669  -9.385  -4.602  1.00 22.60 LIG-0.27  OA
ATOM     23  N   CYS C   7      24.889 -10.137  -6.325  1.00 20.65 LIG-0.34  N 
ATOM     24 H    CYS C   7      25.595 -10.144  -6.815  1.00 20.65 LIG 0.16  HD
BRANCH 23 25
ATOM     25  CA  CYS C   7      23.881 -11.143  -6.659  1.00 20.43 LIG 0.19  C 
BRANCH 25 26
ATOM     26  C   CYS C   7      24.354 -12.537  -6.295  1.00 19.69 LIG 0.20  C 
ATOM     27 O    CYS C   7      23.716 -13.546  -6.581  1.00 19.84 LIG-0.65  OA
ATOM     28 OXT  CYS C   7      25.408 -12.683  -5.681  1.00 20.10 LIG-0.65  OA
ENDBRANCH 25 26
BRANCH 25 29
ATOM     29  CB  CYS C   7      23.446 -11.015  -8.134  1.00 20.27 LIG 0.11  C 
BRANCH 29 30
ATOM     30 SG   CYS C   7      24.773 -10.360  -9.226  1.00 22.98 LIG-0.18  SA
ATOM     31 HG   CYS C   7      25.520  -9.677  -8.583  1.00 22.98 LIG 0.10  HD
ENDBRANCH 29 30
ENDBRANCH 25 29
ENDBRANCH 23 25
ENDBRANCH 20 21
BRANCH 20 32
ATOM     32  CB  GLU C   6      25.434  -7.546  -3.713  1.00 22.58 LIG 0.04  C 
BRANCH 32 33
ATOM     33  CG  GLU C   6      26.520  -6.573  -3.325  1.00 24.64 LIG 0.12  C 
BRANCH 33 34
ATOM     34  CD  GLU C   6      25.991  -5.329  -2.622  1.00 27.63 LIG 0.17  C 
ATOM     35 OE1  GLU C   6      26.709  -4.741  -1.776  1.00 27.17 LIG-0.65  OA
ATOM     36 OE2  GLU C   6      24.844  -4.940  -2.938  1.00 31.71 LIG-0.65  OA
ENDBRANCH 33 34
ENDBRANCH 32 33
ENDBRANCH 20 32
ENDBRANCH 17 20
ENDBRANCH 10 16
ENDBRANCH 8 10
ENDBRANCH 5 6
BRANCH 5 37
ATOM     37  CB  MET C   4      28.791  -2.522  -7.052  1.00 24.86 LIG 0.04  C 
BRANCH 37 38
ATOM     38  CG  MET C   4      29.831  -1.429  -7.375  1.00 24.76 LIG 0.08  C 
BRANCH 38 39
ATOM     39 SD   MET C   4      29.218  -0.035  -8.352  1.00 26.68 LIG-0.17  SA
ATOM     40  CE  MET C   4      29.289   1.265  -7.105  1.00 24.50 LIG 0.09  C 
ENDBRANCH 38 39
ENDBRANCH 37 38
ENDBRANCH 5 37
ENDBRANCH 3 5
BRANCH 1 41
ATOM     41  CA  GLU C   3      26.998  -1.786 -11.166  1.00 26.55 LIG 0.18  C 
BRANCH 41 42
ATOM     42  N   GLU C   3      28.206  -1.030 -11.487  1.00 27.07 LIG-0.35  N 
ATOM     43 H    GLU C   3      28.913  -1.510 -11.580  1.00 27.07 LIG 0.16  HD
ATOM     44  C   ASP C   2      28.182   0.294 -11.620  1.00 28.06 LIG 0.24  C 
ATOM     45 O    ASP C   2      27.149   0.950 -11.511  1.00 27.76 LIG-0.27  OA
BRANCH 44 46
ATOM     46  CA  ASP C   2      29.511   0.968 -11.971  1.00 28.68 LIG 0.19  C 
BRANCH 46 47
ATOM     47  CB  ASP C   2      29.628   1.273 -13.478  1.00 28.90 LIG 0.15  C 
BRANCH 47 48
ATOM     48  CG  ASP C   2      29.810   2.754 -13.790  1.00 30.38 LIG 0.17  C 
ATOM     49 OD2  ASP C   2      28.933   3.361 -14.438  1.00 31.55 LIG-0.65  OA
ATOM     50 OD1  ASP C   2      30.844   3.321 -13.353  1.00 32.13 LIG-0.65  OA
ENDBRANCH 47 48
ENDBRANCH 46 47
BRANCH 46 51
ATOM     51  N   ASP C   2      30.689   0.218 -11.513  1.00 28.83 LIG-0.34  N 
ATOM     52  C   PHE C   1      31.685   0.840 -10.885  1.00 29.29 LIG 0.24  C 
ATOM     53 O    PHE C   1      31.612   2.011 -10.509  1.00 29.28 LIG-0.27  OA
ATOM     54 H    ASP C   2      30.671  -0.625 -11.682  1.00 28.83 LIG 0.16  HD
BRANCH 52 55
ATOM     55  CA  PHE C   1      32.968   0.050 -10.668  1.00 29.71 LIG 0.18  C 
BRANCH 55 56
ATOM     56  N   PHE C   1      34.079   0.857 -11.169  1.00 30.30 LIG-0.35  N 
ATOM     57 H    PHE C   1      34.664   1.053 -10.571  1.00 30.30 LIG 0.16  HD
ATOM     58  C   ACE C   0      34.168   1.253 -12.448  1.00 30.61 LIG 0.21  C 
ATOM     59  CH3 ACE C   0      35.495   1.848 -12.833  1.00 31.12 LIG 0.12  C 
ATOM     60 O    ACE C   0      33.173   1.402 -13.165  1.00 30.74 LIG-0.27  OA
ENDBRANCH 55 56
BRANCH 55 61
ATOM     61  CB  PHE C   1      33.178  -0.264  -9.181  1.00 29.76 LIG 0.07  C 
BRANCH 61 62
ATOM     62  CG  PHE C   1      33.376   0.955  -8.297  1.00 30.32 LIG-0.06  A 
ATOM     63  CD1 PHE C   1      32.335   1.414  -7.493  1.00 31.60 LIG 0.01  A 
ATOM     64  CE1 PHE C   1      32.495   2.547  -6.687  1.00 31.29 LIG 0.00  A 
ATOM     65  CZ  PHE C   1      33.707   3.223  -6.682  1.00 31.54 LIG 0.00  A 
ATOM     66  CE2 PHE C   1      34.752   2.777  -7.483  1.00 29.54 LIG 0.00  A 
ATOM     67  CD2 PHE C   1      34.582   1.653  -8.282  1.00 30.51 LIG 0.01  A 
ENDBRANCH 61 62
ENDBRANCH 55 61
ENDBRANCH 52 55
ENDBRANCH 46 51
ENDBRANCH 44 46
ENDBRANCH 41 42
BRANCH 41 68
ATOM     68  CB  GLU C   3      26.689  -2.879 -12.225  1.00 26.96 LIG 0.04  C 
BRANCH 68 69
ATOM     69  CG  GLU C   3      25.319  -3.599 -12.163  1.00 28.76 LIG 0.12  C 
BRANCH 69 70
ATOM     70  CD  GLU C   3      24.302  -3.077 -13.148  1.00 29.94 LIG 0.17  C 
ATOM     71 OE1  GLU C   3      24.599  -3.080 -14.358  1.00 33.38 LIG-0.65  OA
ATOM     72 OE2  GLU C   3      23.190  -2.692 -12.711  1.00 31.06 LIG-0.65  OA
ENDBRANCH 69 70
ENDBRANCH 68 69
ENDBRANCH 41 68
ENDBRANCH 1 41
TORSDOF 32
ENDMDL
MODEL 33
USER: ADFR SOLUTION from run 187
USER: SCORE 21.279874 LL:  -4.833 LR: -19.143 RR:   0.000 FEB:  -9.598
USER: RMSD 13.073188
USER: SEED 186
USER: STATUS no improvement in best in 3 clusters for 5 generations
USER: GENES 34
USER: genes 0 Translation |==|  0.38773 0.63025 0.33768
USER: genes 1 Rotation |==|  0.13716 0.47355 0.15957 0.54190
USER: genes 2 Torsion [C]-N--CA-[CB] |==|  0.54549
USER: genes 3 Torsion [N]-CA--C-[N] |==|  0.37823
USER: genes 4 Torsion [C]-N--CA-[CB] |==|  0.44123
USER: genes 5 Torsion [N]-CA--CB-[CG] |==|  0.66634
USER: genes 6 Torsion [CA]-CB--CG-[CD] |==|  0.06952
USER: genes 7 Torsion [CB]-CG--CD-[OE2] |==|  0.22245
USER: genes 8 Torsion [N]-CA--C-[N] |==|  0.16841
USER: genes 9 Torsion [C]-N--CA-[C] |==|  0.16697
USER: genes 10 Torsion [N]-CA--C-[N] |==|  0.06427
USER: genes 11 Torsion [C]-N--CA-[CB] |==|  0.39928
USER: genes 12 Torsion [N]-CA--C-[OXT] |==|  0.99388
USER: genes 13 Torsion [N]-CA--CB-[SG] |==|  0.03674
USER: genes 14 Torsion [CA]-CB--SG-[HG] |==|  0.12773
USER: genes 15 Torsion [N]-CA--CB-[CG] |==|  0.76135
USER: genes 16 Torsion [CA]-CB--CG-[CD] |==|  0.23733
USER: genes 17 Torsion [CB]-CG--CD-[OE1] |==|  0.13976
USER: genes 18 Torsion [N]-CA--CB-[CG] |==|  0.77019
USER: genes 19 Torsion [CA]-CB--CG-[SD] |==|  0.05961
USER: genes 20 Torsion [CB]-CG--SD-[CE] |==|  0.40251
USER: genes 21 Torsion [N]-C--CA-[N] |==|  0.38328
USER: genes 22 Torsion [C]-CA--N-[C] |==|  0.84734
USER: genes 23 Torsion [N]-C--CA-[N] |==|  0.92127
USER: genes 24 Torsion [C]-CA--CB-[CG] |==|  0.26007
USER: genes 25 Torsion [CA]-CB--CG-[OD1] |==|  0.74249
USER: genes 26 Torsion [C]-CA--N-[C] |==|  0.84111
USER: genes 27 Torsion [N]-C--CA-[N] |==|  0.88149
USER: genes 28 Torsion [C]-CA--N-[C] |==|  0.67240
USER: genes 29 Torsion [C]-CA--CB-[CG] |==|  0.05580
USER: genes 30 Torsion [CA]-CB--CG-[CD1] |==|  0.71506
USER: genes 31 Torsion [C]-CA--CB-[CG] |==|  0.53921
USER: genes 32 Torsion [CA]-CB--CG-[CD] |==|  0.23103
USER: genes 33 Torsion [CB]-CG--CD-[OE1] |==|  0.25921
ROOT
ATOM      1  C   GLU C   3      26.111   0.160 -12.673  1.00 25.67 LIG 0.24  C 
ATOM      2 O    GLU C   3      25.954  -0.251 -13.831  1.00 24.73 LIG-0.27  OA
ATOM      3  N   MET C   4      26.111  -0.626 -11.593  1.00 25.06 LIG-0.35  N 
ATOM      4 H    MET C   4      26.201  -0.325 -10.793  1.00 25.06 LIG 0.16  HD
ENDROOT
BRANCH 3 5
ATOM      5  CA  MET C   4      25.955  -2.081 -11.662  1.00 24.76 LIG 0.18  C 
BRANCH 5 6
ATOM      6  C   MET C   4      24.866  -2.433 -12.663  1.00 24.60 LIG 0.24  C 
ATOM      7 O    MET C   4      23.779  -1.848 -12.657  1.00 25.19 LIG-0.27  OA
ATOM      8  N   GLU C   5      25.151  -3.435 -13.480  1.00 23.81 LIG-0.35  N 
ATOM      9 H    GLU C   5      25.860  -3.916 -13.414  1.00 23.81 LIG 0.16  HD
BRANCH 8 10
ATOM     10  CA  GLU C   5      24.286  -3.809 -14.564  1.00 23.16 LIG 0.18  C 
BRANCH 10 11
ATOM     11  CB  GLU C   5      25.088  -4.593 -15.599  1.00 23.03 LIG 0.04  C 
BRANCH 11 12
ATOM     12  CG  GLU C   5      25.087  -3.920 -16.971  1.00 23.31 LIG 0.12  C 
BRANCH 12 13
ATOM     13  CD  GLU C   5      24.852  -2.410 -16.925  1.00 24.36 LIG 0.17  C 
ATOM     14 OE2  GLU C   5      25.826  -1.663 -16.636  1.00 22.25 LIG-0.65  OA
ATOM     15 OE1  GLU C   5      23.716  -1.954 -17.159  1.00 21.71 LIG-0.65  OA
ENDBRANCH 12 13
ENDBRANCH 11 12
ENDBRANCH 10 11
BRANCH 10 16
ATOM     16  C   GLU C   5      23.164  -4.660 -14.024  1.00 22.53 LIG 0.24  C 
ATOM     17  N   GLU C   6      22.374  -4.096 -13.113  1.00 22.45 LIG-0.35  N 
ATOM     18 H    GLU C   6      22.529  -3.333 -12.747  1.00 22.45 LIG 0.16  HD
ATOM     19 O    GLU C   5      23.029  -5.813 -14.413  1.00 22.53 LIG-0.27  OA
BRANCH 17 20
ATOM     20  CA  GLU C   6      21.137  -4.756 -12.652  1.00 22.27 LIG 0.18  C 
BRANCH 20 21
ATOM     21  C   GLU C   6      21.463  -6.101 -12.023  1.00 21.97 LIG 0.24  C 
ATOM     22 O    GLU C   6      20.603  -6.980 -11.954  1.00 22.60 LIG-0.27  OA
ATOM     23  N   CYS C   7      22.693  -6.280 -11.550  1.00 20.65 LIG-0.34  N 
ATOM     24 H    CYS C   7      23.307  -5.678 -11.530  1.00 20.65 LIG 0.16  HD
BRANCH 23 25
ATOM     25  CA  CYS C   7      23.075  -7.586 -11.012  1.00 20.43 LIG 0.19  C 
BRANCH 25 26
ATOM     26  C   CYS C   7      22.770  -7.681  -9.530  1.00 19.69 LIG 0.20  C 
ATOM     27 O    CYS C   7      22.961  -8.705  -8.881  1.00 19.84 LIG-0.65  OA
ATOM     28 OXT  CYS C   7      22.302  -6.711  -8.940  1.00 20.10 LIG-0.65  OA
ENDBRANCH 25 26
BRANCH 25 29
ATOM     29  CB  CYS C   7      24.545  -7.910 -11.352  1.00 20.27 LIG 0.11  C 
BRANCH 29 30
ATOM     30 SG   CYS C   7      25.485  -6.454 -11.967  1.00 22.98 LIG-0.18  SA
ATOM     31 HG   CYS C   7      25.263  -5.508 -11.263  1.00 22.98 LIG 0.10  HD
ENDBRANCH 29 30
ENDBRANCH 25 29
ENDBRANCH 23 25
ENDBRANCH 20 21
BRANCH 20 32
ATOM     32  CB  GLU C   6      20.172  -4.948 -13.821  1.00 22.58 LIG 0.04  C 
BRANCH 32 33
ATOM     33  CG  GLU C   6      19.307  -3.735 -14.061  1.00 24.64 LIG 0.12  C 
BRANCH 33 34
ATOM     34  CD  GLU C   6      19.969  -2.689 -14.947  1.00 27.63 LIG 0.17  C 
ATOM     35 OE1  GLU C   6      20.478  -3.033 -16.043  1.00 27.17 LIG-0.65  OA
ATOM     36 OE2  GLU C   6      19.966  -1.507 -14.534  1.00 31.71 LIG-0.65  OA
ENDBRANCH 33 34
ENDBRANCH 32 33
ENDBRANCH 20 32
ENDBRANCH 17 20
ENDBRANCH 10 16
ENDBRANCH 8 10
ENDBRANCH 5 6
BRANCH 5 37
ATOM     37  CB  MET C   4      25.592  -2.655 -10.289  1.00 24.86 LIG 0.04  C 
BRANCH 37 38
ATOM     38  CG  MET C   4      26.777  -2.900  -9.332  1.00 24.76 LIG 0.08  C 
BRANCH 38 39
ATOM     39 SD   MET C   4      28.277  -1.954  -9.693  1.00 26.68 LIG-0.17  SA
ATOM     40  CE  MET C   4      28.862  -1.659  -8.013  1.00 24.50 LIG 0.09  C 
ENDBRANCH 38 39
ENDBRANCH 37 38
ENDBRANCH 5 37
ENDBRANCH 3 5
BRANCH 1 41
ATOM     41  CA  GLU C   3      26.365   1.645 -12.416  1.00 26.55 LIG 0.18  C 
BRANCH 41 42
ATOM     42  N   GLU C   3      27.269   2.171 -13.435  1.00 27.07 LIG-0.35  N 
ATOM     43 H    GLU C   3      26.968   2.856 -13.860  1.00 27.07 LIG 0.16  HD
ATOM     44  C   ASP C   2      28.457   1.616 -13.663  1.00 28.06 LIG 0.24  C 
ATOM     45 O    ASP C   2      28.873   0.657 -13.017  1.00 27.76 LIG-0.27  OA
BRANCH 44 46
ATOM     46  CA  ASP C   2      29.318   2.270 -14.748  1.00 28.68 LIG 0.19  C 
BRANCH 46 47
ATOM     47  CB  ASP C   2      30.360   3.240 -14.157  1.00 28.90 LIG 0.15  C 
BRANCH 47 48
ATOM     48  CG  ASP C   2      31.719   2.599 -13.906  1.00 30.38 LIG 0.17  C 
ATOM     49 OD2  ASP C   2      32.575   2.588 -14.815  1.00 31.55 LIG-0.65  OA
ATOM     50 OD1  ASP C   2      31.938   2.118 -12.764  1.00 32.13 LIG-0.65  OA
ENDBRANCH 47 48
ENDBRANCH 46 47
BRANCH 46 51
ATOM     51  N   ASP C   2      28.534   2.942 -15.794  1.00 28.83 LIG-0.34  N 
ATOM     52  C   PHE C   1      27.626   2.268 -16.498  1.00 29.29 LIG 0.24  C 
ATOM     53 O    PHE C   1      27.274   1.121 -16.213  1.00 29.28 LIG-0.27  OA
ATOM     54 H    ASP C   2      28.712   3.777 -15.900  1.00 28.83 LIG 0.16  HD
BRANCH 52 55
ATOM     55  CA  PHE C   1      27.041   2.963 -17.719  1.00 29.71 LIG 0.18  C 
BRANCH 55 56
ATOM     56  N   PHE C   1      26.766   4.351 -17.353  1.00 30.30 LIG-0.35  N 
ATOM     57 H    PHE C   1      27.466   4.797 -17.129  1.00 30.30 LIG 0.16  HD
ATOM     58  C   ACE C   0      25.530   4.874 -17.367  1.00 30.61 LIG 0.21  C 
ATOM     59  CH3 ACE C   0      25.476   6.369 -17.213  1.00 31.12 LIG 0.12  C 
ATOM     60 O    ACE C   0      24.519   4.181 -17.212  1.00 30.74 LIG-0.27  OA
ENDBRANCH 55 56
BRANCH 55 61
ATOM     61  CB  PHE C   1      28.017   2.917 -18.902  1.00 29.76 LIG 0.07  C 
BRANCH 61 62
ATOM     62  CG  PHE C   1      29.082   1.839 -18.804  1.00 30.32 LIG-0.06  A 
ATOM     63  CD1 PHE C   1      30.383   2.171 -18.432  1.00 31.60 LIG 0.01  A 
ATOM     64  CE1 PHE C   1      31.381   1.193 -18.355  1.00 31.29 LIG 0.00  A 
ATOM     65  CZ  PHE C   1      31.074  -0.128 -18.648  1.00 31.54 LIG 0.00  A 
ATOM     66  CE2 PHE C   1      29.781  -0.472 -19.023  1.00 29.54 LIG 0.00  A 
ATOM     67  CD2 PHE C   1      28.798   0.507 -19.100  1.00 30.51 LIG 0.01  A 
ENDBRANCH 61 62
ENDBRANCH 55 61
ENDBRANCH 52 55
ENDBRANCH 46 51
ENDBRANCH 44 46
ENDBRANCH 41 42
BRANCH 41 68
ATOM     68  CB  GLU C   3      25.048   2.463 -12.319  1.00 26.96 LIG 0.04  C 
BRANCH 68 69
ATOM     69  CG  GLU C   3      25.132   4.008 -12.395  1.00 28.76 LIG 0.12  C 
BRANCH 69 70
ATOM     70  CD  GLU C   3      25.193   4.556 -13.799  1.00 29.94 LIG 0.17  C 
ATOM     71 OE1  GLU C   3      24.124   4.888 -14.348  1.00 33.38 LIG-0.65  OA
ATOM     72 OE2  GLU C   3      26.318   4.684 -14.342  1.00 31.06 LIG-0.65  OA
ENDBRANCH 69 70
ENDBRANCH 68 69
ENDBRANCH 41 68
ENDBRANCH 1 41
TORSDOF 32
ENDMDL
MODEL 34
USER: ADFR SOLUTION from run 107
USER: SCORE 20.956063 LL:  -5.225 LR: -19.134 RR:   0.000 FEB:  -9.589
USER: RMSD 12.760497
USER: SEED 106
USER: STATUS no improvement in best in 2 clusters for 5 generations
USER: GENES 34
USER: genes 0 Translation |==|  0.57543 0.51744 0.48831
USER: genes 1 Rotation |==|  0.66234 0.68289 0.93542 0.52453
USER: genes 2 Torsion [C]-N--CA-[CB] |==|  0.22776
USER: genes 3 Torsion [N]-CA--C-[N] |==|  0.56232
USER: genes 4 Torsion [C]-N--CA-[CB] |==|  0.34899
USER: genes 5 Torsion [N]-CA--CB-[CG] |==|  0.71398
USER: genes 6 Torsion [CA]-CB--CG-[CD] |==|  0.68684
USER: genes 7 Torsion [CB]-CG--CD-[OE2] |==|  0.97536
USER: genes 8 Torsion [N]-CA--C-[N] |==|  0.89856
USER: genes 9 Torsion [C]-N--CA-[C] |==|  0.71434
USER: genes 10 Torsion [N]-CA--C-[N] |==|  0.49303
USER: genes 11 Torsion [C]-N--CA-[CB] |==|  0.84525
USER: genes 12 Torsion [N]-CA--C-[OXT] |==|  0.03327
USER: genes 13 Torsion [N]-CA--CB-[SG] |==|  0.87917
USER: genes 14 Torsion [CA]-CB--SG-[HG] |==|  0.93685
USER: genes 15 Torsion [N]-CA--CB-[CG] |==|  0.61846
USER: genes 16 Torsion [CA]-CB--CG-[CD] |==|  0.99613
USER: genes 17 Torsion [CB]-CG--CD-[OE1] |==|  0.25052
USER: genes 18 Torsion [N]-CA--CB-[CG] |==|  0.97822
USER: genes 19 Torsion [CA]-CB--CG-[SD] |==|  0.23490
USER: genes 20 Torsion [CB]-CG--SD-[CE] |==|  0.48036
USER: genes 21 Torsion [N]-C--CA-[N] |==|  0.84487
USER: genes 22 Torsion [C]-CA--N-[C] |==|  0.74579
USER: genes 23 Torsion [N]-C--CA-[N] |==|  0.35460
USER: genes 24 Torsion [C]-CA--CB-[CG] |==|  0.60567
USER: genes 25 Torsion [CA]-CB--CG-[OD1] |==|  0.68755
USER: genes 26 Torsion [C]-CA--N-[C] |==|  0.74909
USER: genes 27 Torsion [N]-C--CA-[N] |==|  0.48060
USER: genes 28 Torsion [C]-CA--N-[C] |==|  0.53425
USER: genes 29 Torsion [C]-CA--CB-[CG] |==|  0.86987
USER: genes 30 Torsion [CA]-CB--CG-[CD1] |==|  0.77255
USER: genes 31 Torsion [C]-CA--CB-[CG] |==|  0.46618
USER: genes 32 Torsion [CA]-CB--CG-[CD] |==|  0.81477
USER: genes 33 Torsion [CB]-CG--CD-[OE1] |==|  0.13312
ROOT
ATOM      1  C   GLU C   3      29.630  -2.970  -8.832  1.00 25.67 LIG 0.24  C 
ATOM      2 O    GLU C   3      30.499  -3.755  -9.239  1.00 24.73 LIG-0.27  OA
ATOM      3  N   MET C   4      28.742  -3.265  -7.879  1.00 25.06 LIG-0.35  N 
ATOM      4 H    MET C   4      28.132  -2.718  -7.619  1.00 25.06 LIG 0.16  HD
ENDROOT
BRANCH 3 5
ATOM      5  CA  MET C   4      28.716  -4.552  -7.180  1.00 24.76 LIG 0.18  C 
BRANCH 5 6
ATOM      6  C   MET C   4      27.328  -4.798  -6.611  1.00 24.60 LIG 0.24  C 
ATOM      7 O    MET C   4      26.343  -4.191  -7.041  1.00 25.19 LIG-0.27  OA
ATOM      8  N   GLU C   5      27.274  -5.650  -5.599  1.00 23.81 LIG-0.35  N 
ATOM      9 H    GLU C   5      27.970  -5.989  -5.224  1.00 23.81 LIG 0.16  HD
BRANCH 8 10
ATOM     10  CA  GLU C   5      26.029  -6.088  -5.032  1.00 23.16 LIG 0.18  C 
BRANCH 10 11
ATOM     11  CB  GLU C   5      25.985  -7.614  -5.039  1.00 23.03 LIG 0.04  C 
BRANCH 11 12
ATOM     12  CG  GLU C   5      25.103  -8.167  -6.158  1.00 23.31 LIG 0.12  C 
BRANCH 12 13
ATOM     13  CD  GLU C   5      23.837  -8.870  -5.665  1.00 24.36 LIG 0.17  C 
ATOM     14 OE2  GLU C   5      23.716  -9.082  -4.428  1.00 22.25 LIG-0.65  OA
ATOM     15 OE1  GLU C   5      22.967  -9.223  -6.485  1.00 21.71 LIG-0.65  OA
ENDBRANCH 12 13
ENDBRANCH 11 12
ENDBRANCH 10 11
BRANCH 10 16
ATOM     16  C   GLU C   5      25.926  -5.573  -3.618  1.00 22.53 LIG 0.24  C 
ATOM     17  N   GLU C   6      27.055  -5.536  -2.914  1.00 22.45 LIG-0.35  N 
ATOM     18 H    GLU C   6      27.798  -5.882  -3.176  1.00 22.45 LIG 0.16  HD
ATOM     19 O    GLU C   5      24.840  -5.233  -3.169  1.00 22.53 LIG-0.27  OA
BRANCH 17 20
ATOM     20  CA  GLU C   6      27.117  -4.880  -1.593  1.00 22.27 LIG 0.18  C 
BRANCH 20 21
ATOM     21  C   GLU C   6      27.790  -3.522  -1.713  1.00 21.97 LIG 0.24  C 
ATOM     22 O    GLU C   6      28.239  -3.143  -2.794  1.00 22.60 LIG-0.27  OA
ATOM     23  N   CYS C   7      27.878  -2.777  -0.613  1.00 20.65 LIG-0.34  N 
ATOM     24 H    CYS C   7      27.626  -3.023   0.171  1.00 20.65 LIG 0.16  HD
BRANCH 23 25
ATOM     25  CA  CYS C   7      28.442  -1.430  -0.699  1.00 20.43 LIG 0.19  C 
BRANCH 25 26
ATOM     26  C   CYS C   7      27.499  -0.484  -1.416  1.00 19.69 LIG 0.20  C 
ATOM     27 O    CYS C   7      27.841   0.636  -1.784  1.00 19.84 LIG-0.65  OA
ATOM     28 OXT  CYS C   7      26.341  -0.829  -1.638  1.00 20.10 LIG-0.65  OA
ENDBRANCH 25 26
BRANCH 25 29
ATOM     29  CB  CYS C   7      29.855  -1.465  -1.319  1.00 20.27 LIG 0.11  C 
BRANCH 29 30
ATOM     30 SG   CYS C   7      30.902  -2.826  -0.658  1.00 22.98 LIG-0.18  SA
ATOM     31 HG   CYS C   7      30.490  -3.162   0.417  1.00 22.98 LIG 0.10  HD
ENDBRANCH 29 30
ENDBRANCH 25 29
ENDBRANCH 23 25
ENDBRANCH 20 21
BRANCH 20 32
ATOM     32  CB  GLU C   6      27.884  -5.755  -0.603  1.00 22.58 LIG 0.04  C 
BRANCH 32 33
ATOM     33  CG  GLU C   6      27.224  -5.807   0.753  1.00 24.64 LIG 0.12  C 
BRANCH 33 34
ATOM     34  CD  GLU C   6      25.965  -4.955   0.844  1.00 27.63 LIG 0.17  C 
ATOM     35 OE1  GLU C   6      24.851  -5.459   0.560  1.00 27.17 LIG-0.65  OA
ATOM     36 OE2  GLU C   6      26.107  -3.768   1.216  1.00 31.71 LIG-0.65  OA
ENDBRANCH 33 34
ENDBRANCH 32 33
ENDBRANCH 20 32
ENDBRANCH 17 20
ENDBRANCH 10 16
ENDBRANCH 8 10
ENDBRANCH 5 6
BRANCH 5 37
ATOM     37  CB  MET C   4      29.745  -4.576  -6.045  1.00 24.86 LIG 0.04  C 
BRANCH 37 38
ATOM     38  CG  MET C   4      30.702  -3.367  -5.987  1.00 24.76 LIG 0.08  C 
BRANCH 38 39
ATOM     39 SD   MET C   4      30.068  -1.913  -5.114  1.00 26.68 LIG-0.17  SA
ATOM     40  CE  MET C   4      31.552  -0.890  -5.112  1.00 24.50 LIG 0.09  C 
ENDBRANCH 38 39
ENDBRANCH 37 38
ENDBRANCH 5 37
ENDBRANCH 3 5
BRANCH 1 41
ATOM     41  CA  GLU C   3      29.557  -1.551  -9.395  1.00 26.55 LIG 0.18  C 
BRANCH 41 42
ATOM     42  N   GLU C   3      28.210  -1.292  -9.896  1.00 27.07 LIG-0.35  N 
ATOM     43 H    GLU C   3      27.665  -0.978  -9.308  1.00 27.07 LIG 0.16  HD
ATOM     44  C   ASP C   2      27.882  -1.530 -11.163  1.00 28.06 LIG 0.24  C 
ATOM     45 O    ASP C   2      28.691  -1.948 -11.987  1.00 27.76 LIG-0.27  OA
BRANCH 44 46
ATOM     46  CA  ASP C   2      26.441  -1.203 -11.567  1.00 28.68 LIG 0.19  C 
BRANCH 46 47
ATOM     47  CB  ASP C   2      25.590  -2.473 -11.763  1.00 28.90 LIG 0.15  C 
BRANCH 47 48
ATOM     48  CG  ASP C   2      24.610  -2.379 -12.927  1.00 30.38 LIG 0.17  C 
ATOM     49 OD2  ASP C   2      25.042  -2.353 -14.098  1.00 31.55 LIG-0.65  OA
ATOM     50 OD1  ASP C   2      23.382  -2.356 -12.658  1.00 32.13 LIG-0.65  OA
ENDBRANCH 47 48
ENDBRANCH 46 47
BRANCH 46 51
ATOM     51  N   ASP C   2      26.346  -0.340 -12.753  1.00 28.83 LIG-0.34  N 
ATOM     52  C   PHE C   1      26.316   0.985 -12.625  1.00 29.29 LIG 0.24  C 
ATOM     53 O    PHE C   1      26.533   1.560 -11.556  1.00 29.28 LIG-0.27  OA
ATOM     54 H    ASP C   2      26.313  -0.758 -13.504  1.00 28.83 LIG 0.16  HD
BRANCH 52 55
ATOM     55  CA  PHE C   1      25.967   1.794 -13.866  1.00 29.71 LIG 0.18  C 
BRANCH 55 56
ATOM     56  N   PHE C   1      25.829   3.192 -13.462  1.00 30.30 LIG-0.35  N 
ATOM     57 H    PHE C   1      26.121   3.356 -12.671  1.00 30.30 LIG 0.16  HD
ATOM     58  C   ACE C   0      25.293   4.128 -14.261  1.00 30.61 LIG 0.21  C 
ATOM     59  CH3 ACE C   0      25.469   5.543 -13.782  1.00 31.12 LIG 0.12  C 
ATOM     60 O    ACE C   0      24.471   3.853 -15.142  1.00 30.74 LIG-0.27  OA
ENDBRANCH 55 56
BRANCH 55 61
ATOM     61  CB  PHE C   1      27.058   1.664 -14.936  1.00 29.76 LIG 0.07  C 
BRANCH 61 62
ATOM     62  CG  PHE C   1      28.476   1.840 -14.422  1.00 30.32 LIG-0.06  A 
ATOM     63  CD1 PHE C   1      29.001   3.118 -14.239  1.00 31.60 LIG 0.01  A 
ATOM     64  CE1 PHE C   1      30.312   3.298 -13.784  1.00 31.29 LIG 0.00  A 
ATOM     65  CZ  PHE C   1      31.102   2.192 -13.504  1.00 31.54 LIG 0.00  A 
ATOM     66  CE2 PHE C   1      30.590   0.912 -13.685  1.00 29.54 LIG 0.00  A 
ATOM     67  CD2 PHE C   1      29.289   0.744 -14.141  1.00 30.51 LIG 0.01  A 
ENDBRANCH 61 62
ENDBRANCH 55 61
ENDBRANCH 52 55
ENDBRANCH 46 51
ENDBRANCH 44 46
ENDBRANCH 41 42
BRANCH 41 68
ATOM     68  CB  GLU C   3      30.018  -0.482  -8.367  1.00 26.96 LIG 0.04  C 
BRANCH 68 69
ATOM     69  CG  GLU C   3      30.275   0.961  -8.869  1.00 28.76 LIG 0.12  C 
BRANCH 69 70
ATOM     70  CD  GLU C   3      31.448   1.089  -9.809  1.00 29.94 LIG 0.17  C 
ATOM     71 OE1  GLU C   3      31.535   0.282 -10.755  1.00 33.38 LIG-0.65  OA
ATOM     72 OE2  GLU C   3      32.268   2.020  -9.618  1.00 31.06 LIG-0.65  OA
ENDBRANCH 69 70
ENDBRANCH 68 69
ENDBRANCH 41 68
ENDBRANCH 1 41
TORSDOF 32
ENDMDL
MODEL 35
USER: ADFR SOLUTION from run 79
USER: SCORE 22.118807 LL:  -5.403 LR: -19.101 RR:   0.000 FEB:  -9.555
USER: RMSD 12.156475
USER: SEED 78
USER: STATUS no improvement in best in 5 clusters for 5 generations
USER: GENES 34
USER: genes 0 Translation |==|  0.42861 0.53755 0.43986
USER: genes 1 Rotation |==|  0.94859 0.52086 0.41674 0.70347
USER: genes 2 Torsion [C]-N--CA-[CB] |==|  0.77420
USER: genes 3 Torsion [N]-CA--C-[N] |==|  0.15703
USER: genes 4 Torsion [C]-N--CA-[CB] |==|  0.46671
USER: genes 5 Torsion [N]-CA--CB-[CG] |==|  0.68263
USER: genes 6 Torsion [CA]-CB--CG-[CD] |==|  0.81881
USER: genes 7 Torsion [CB]-CG--CD-[OE2] |==|  0.47008
USER: genes 8 Torsion [N]-CA--C-[N] |==|  0.24444
USER: genes 9 Torsion [C]-N--CA-[C] |==|  0.83335
USER: genes 10 Torsion [N]-CA--C-[N] |==|  0.89834
USER: genes 11 Torsion [C]-N--CA-[CB] |==|  0.78732
USER: genes 12 Torsion [N]-CA--C-[OXT] |==|  0.72489
USER: genes 13 Torsion [N]-CA--CB-[SG] |==|  0.96492
USER: genes 14 Torsion [CA]-CB--SG-[HG] |==|  0.94137
USER: genes 15 Torsion [N]-CA--CB-[CG] |==|  0.85470
USER: genes 16 Torsion [CA]-CB--CG-[CD] |==|  0.49860
USER: genes 17 Torsion [CB]-CG--CD-[OE1] |==|  0.49615
USER: genes 18 Torsion [N]-CA--CB-[CG] |==|  0.70149
USER: genes 19 Torsion [CA]-CB--CG-[SD] |==|  0.53996
USER: genes 20 Torsion [CB]-CG--SD-[CE] |==|  0.19394
USER: genes 21 Torsion [N]-C--CA-[N] |==|  0.86956
USER: genes 22 Torsion [C]-CA--N-[C] |==|  0.70513
USER: genes 23 Torsion [N]-C--CA-[N] |==|  0.87502
USER: genes 24 Torsion [C]-CA--CB-[CG] |==|  0.50643
USER: genes 25 Torsion [CA]-CB--CG-[OD1] |==|  0.48144
USER: genes 26 Torsion [C]-CA--N-[C] |==|  0.87560
USER: genes 27 Torsion [N]-C--CA-[N] |==|  0.94634
USER: genes 28 Torsion [C]-CA--N-[C] |==|  0.80304
USER: genes 29 Torsion [C]-CA--CB-[CG] |==|  0.19335
USER: genes 30 Torsion [CA]-CB--CG-[CD1] |==|  0.79737
USER: genes 31 Torsion [C]-CA--CB-[CG] |==|  0.20644
USER: genes 32 Torsion [CA]-CB--CG-[CD] |==|  0.20201
USER: genes 33 Torsion [CB]-CG--CD-[OE1] |==|  0.85538
ROOT
ATOM      1  C   GLU C   3      26.877  -2.412 -10.068  1.00 25.67 LIG 0.24  C 
ATOM      2 O    GLU C   3      25.930  -2.506  -9.275  1.00 24.73 LIG-0.27  OA
ATOM      3  N   MET C   4      28.126  -2.795  -9.790  1.00 25.06 LIG-0.35  N 
ATOM      4 H    MET C   4      28.779  -2.707 -10.342  1.00 25.06 LIG 0.16  HD
ENDROOT
BRANCH 3 5
ATOM      5  CA  MET C   4      28.511  -3.405  -8.515  1.00 24.76 LIG 0.18  C 
BRANCH 5 6
ATOM      6  C   MET C   4      27.427  -4.369  -8.060  1.00 24.60 LIG 0.24  C 
ATOM      7 O    MET C   4      26.920  -4.278  -6.937  1.00 25.19 LIG-0.27  OA
ATOM      8  N   GLU C   5      27.124  -5.327  -8.921  1.00 23.81 LIG-0.35  N 
ATOM      9 H    GLU C   5      27.551  -5.461  -9.655  1.00 23.81 LIG 0.16  HD
BRANCH 8 10
ATOM     10  CA  GLU C   5      26.036  -6.240  -8.700  1.00 23.16 LIG 0.18  C 
BRANCH 10 11
ATOM     11  CB  GLU C   5      25.761  -7.014  -9.987  1.00 23.03 LIG 0.04  C 
BRANCH 11 12
ATOM     12  CG  GLU C   5      24.391  -6.690 -10.582  1.00 23.31 LIG 0.12  C 
BRANCH 12 13
ATOM     13  CD  GLU C   5      23.213  -7.125  -9.709  1.00 24.36 LIG 0.17  C 
ATOM     14 OE2  GLU C   5      22.060  -6.718 -10.017  1.00 22.25 LIG-0.65  OA
ATOM     15 OE1  GLU C   5      23.415  -7.855  -8.718  1.00 21.71 LIG-0.65  OA
ENDBRANCH 12 13
ENDBRANCH 11 12
ENDBRANCH 10 11
BRANCH 10 16
ATOM     16  C   GLU C   5      26.412  -7.192  -7.593  1.00 22.53 LIG 0.24  C 
ATOM     17  N   GLU C   6      26.133  -6.801  -6.352  1.00 22.45 LIG-0.35  N 
ATOM     18 H    GLU C   6      25.858  -6.013  -6.145  1.00 22.45 LIG 0.16  HD
ATOM     19 O    GLU C   5      26.964  -8.252  -7.859  1.00 22.53 LIG-0.27  OA
BRANCH 17 20
ATOM     20  CA  GLU C   6      26.280  -7.719  -5.205  1.00 22.27 LIG 0.18  C 
BRANCH 20 21
ATOM     21  C   GLU C   6      25.381  -8.932  -5.384  1.00 21.97 LIG 0.24  C 
ATOM     22 O    GLU C   6      25.760 -10.046  -5.024  1.00 22.60 LIG-0.27  OA
ATOM     23  N   CYS C   7      24.190  -8.741  -5.948  1.00 20.65 LIG-0.34  N 
ATOM     24 H    CYS C   7      23.907  -7.992  -6.261  1.00 20.65 LIG 0.16  HD
BRANCH 23 25
ATOM     25  CA  CYS C   7      23.260  -9.863  -6.064  1.00 20.43 LIG 0.19  C 
BRANCH 25 26
ATOM     26  C   CYS C   7      23.093 -10.579  -4.738  1.00 19.69 LIG 0.20  C 
ATOM     27 O    CYS C   7      22.354 -10.161  -3.851  1.00 19.84 LIG-0.65  OA
ATOM     28 OXT  CYS C   7      23.719 -11.612  -4.519  1.00 20.10 LIG-0.65  OA
ENDBRANCH 25 26
BRANCH 25 29
ATOM     29  CB  CYS C   7      23.677 -10.804  -7.214  1.00 20.27 LIG 0.11  C 
BRANCH 29 30
ATOM     30 SG   CYS C   7      24.958 -10.077  -8.316  1.00 22.98 LIG-0.18  SA
ATOM     31 HG   CYS C   7      24.949  -8.883  -8.207  1.00 22.98 LIG 0.10  HD
ENDBRANCH 29 30
ENDBRANCH 25 29
ENDBRANCH 23 25
ENDBRANCH 20 21
BRANCH 20 32
ATOM     32  CB  GLU C   6      25.929  -7.000  -3.903  1.00 22.58 LIG 0.04  C 
BRANCH 32 33
ATOM     33  CG  GLU C   6      26.688  -5.707  -3.736  1.00 24.64 LIG 0.12  C 
BRANCH 33 34
ATOM     34  CD  GLU C   6      26.344  -4.968  -2.449  1.00 27.63 LIG 0.17  C 
ATOM     35 OE1  GLU C   6      26.926  -3.889  -2.177  1.00 27.17 LIG-0.65  OA
ATOM     36 OE2  GLU C   6      25.470  -5.481  -1.714  1.00 31.71 LIG-0.65  OA
ENDBRANCH 33 34
ENDBRANCH 32 33
ENDBRANCH 20 32
ENDBRANCH 17 20
ENDBRANCH 10 16
ENDBRANCH 8 10
ENDBRANCH 5 6
BRANCH 5 37
ATOM     37  CB  MET C   4      28.725  -2.333  -7.441  1.00 24.86 LIG 0.04  C 
BRANCH 37 38
ATOM     38  CG  MET C   4      30.192  -2.074  -7.039  1.00 24.76 LIG 0.08  C 
BRANCH 38 39
ATOM     39 SD   MET C   4      30.426  -1.126  -5.515  1.00 26.68 LIG-0.17  SA
ATOM     40  CE  MET C   4      29.867  -2.345  -4.310  1.00 24.50 LIG 0.09  C 
ENDBRANCH 38 39
ENDBRANCH 37 38
ENDBRANCH 5 37
ENDBRANCH 3 5
BRANCH 1 41
ATOM     41  CA  GLU C   3      26.646  -1.868 -11.477  1.00 26.55 LIG 0.18  C 
BRANCH 41 42
ATOM     42  N   GLU C   3      27.691  -0.904 -11.808  1.00 27.07 LIG-0.35  N 
ATOM     43 H    GLU C   3      28.459  -1.253 -11.977  1.00 27.07 LIG 0.16  HD
ATOM     44  C   ASP C   2      27.445   0.404 -11.838  1.00 28.06 LIG 0.24  C 
ATOM     45 O    ASP C   2      26.330   0.872 -11.623  1.00 27.76 LIG-0.27  OA
BRANCH 44 46
ATOM     46  CA  ASP C   2      28.622   1.310 -12.213  1.00 28.68 LIG 0.19  C 
BRANCH 46 47
ATOM     47  CB  ASP C   2      28.847   1.371 -13.736  1.00 28.90 LIG 0.15  C 
BRANCH 47 48
ATOM     48  CG  ASP C   2      30.045   2.220 -14.144  1.00 30.38 LIG 0.17  C 
ATOM     49 OD2  ASP C   2      30.671   2.864 -13.276  1.00 31.55 LIG-0.65  OA
ATOM     50 OD1  ASP C   2      30.377   2.220 -15.357  1.00 32.13 LIG-0.65  OA
ENDBRANCH 47 48
ENDBRANCH 46 47
BRANCH 46 51
ATOM     51  N   ASP C   2      29.874   0.959 -11.528  1.00 28.83 LIG-0.34  N 
ATOM     52  C   PHE C   1      29.880   0.686 -10.225  1.00 29.29 LIG 0.24  C 
ATOM     53 O    PHE C   1      28.848   0.546  -9.566  1.00 29.28 LIG-0.27  OA
ATOM     54 H    ASP C   2      30.572   0.948 -12.032  1.00 28.83 LIG 0.16  HD
BRANCH 52 55
ATOM     55  CA  PHE C   1      31.237   0.579  -9.546  1.00 29.71 LIG 0.18  C 
BRANCH 55 56
ATOM     56  N   PHE C   1      32.240   0.353 -10.585  1.00 30.30 LIG-0.35  N 
ATOM     57 H    PHE C   1      32.755   1.026 -10.724  1.00 30.30 LIG 0.16  HD
ATOM     58  C   ACE C   0      32.339  -0.805 -11.258  1.00 30.61 LIG 0.21  C 
ATOM     59  CH3 ACE C   0      33.580  -0.943 -12.096  1.00 31.12 LIG 0.12  C 
ATOM     60 O    ACE C   0      31.373  -1.558 -11.422  1.00 30.74 LIG-0.27  OA
ENDBRANCH 55 56
BRANCH 55 61
ATOM     61  CB  PHE C   1      31.569   1.860  -8.769  1.00 29.76 LIG 0.07  C 
BRANCH 61 62
ATOM     62  CG  PHE C   1      30.721   2.089  -7.531  1.00 30.32 LIG-0.06  A 
ATOM     63  CD1 PHE C   1      29.388   2.476  -7.655  1.00 31.60 LIG 0.01  A 
ATOM     64  CE1 PHE C   1      28.599   2.709  -6.524  1.00 31.29 LIG 0.00  A 
ATOM     65  CZ  PHE C   1      29.144   2.549  -5.259  1.00 31.54 LIG 0.00  A 
ATOM     66  CE2 PHE C   1      30.473   2.166  -5.120  1.00 29.54 LIG 0.00  A 
ATOM     67  CD2 PHE C   1      31.250   1.940  -6.250  1.00 30.51 LIG 0.01  A 
ENDBRANCH 61 62
ENDBRANCH 55 61
ENDBRANCH 52 55
ENDBRANCH 46 51
ENDBRANCH 44 46
ENDBRANCH 41 42
BRANCH 41 68
ATOM     68  CB  GLU C   3      26.531  -2.998 -12.536  1.00 26.96 LIG 0.04  C 
BRANCH 68 69
ATOM     69  CG  GLU C   3      25.230  -3.837 -12.581  1.00 28.76 LIG 0.12  C 
BRANCH 69 70
ATOM     70  CD  GLU C   3      24.039  -3.100 -13.143  1.00 29.94 LIG 0.17  C 
ATOM     71 OE1  GLU C   3      23.752  -1.989 -12.658  1.00 33.38 LIG-0.65  OA
ATOM     72 OE2  GLU C   3      23.408  -3.623 -14.094  1.00 31.06 LIG-0.65  OA
ENDBRANCH 69 70
ENDBRANCH 68 69
ENDBRANCH 41 68
ENDBRANCH 1 41
TORSDOF 32
ENDMDL
MODEL 36
USER: ADFR SOLUTION from run 35
USER: SCORE 21.837862 LL:  -5.083 LR: -19.095 RR:   0.000 FEB:  -9.549
USER: RMSD 13.765834
USER: SEED 34
USER: STATUS no improvement in best in 2 clusters for 5 generations
USER: GENES 34
USER: genes 0 Translation |==|  0.46396 0.59525 0.35181
USER: genes 1 Rotation |==|  0.81510 0.46315 0.86887 0.61527
USER: genes 2 Torsion [C]-N--CA-[CB] |==|  0.86054
USER: genes 3 Torsion [N]-CA--C-[N] |==|  0.38591
USER: genes 4 Torsion [C]-N--CA-[CB] |==|  0.25857
USER: genes 5 Torsion [N]-CA--CB-[CG] |==|  0.96747
USER: genes 6 Torsion [CA]-CB--CG-[CD] |==|  0.29856
USER: genes 7 Torsion [CB]-CG--CD-[OE2] |==|  0.81904
USER: genes 8 Torsion [N]-CA--C-[N] |==|  0.95813
USER: genes 9 Torsion [C]-N--CA-[C] |==|  0.17363
USER: genes 10 Torsion [N]-CA--C-[N] |==|  0.09268
USER: genes 11 Torsion [C]-N--CA-[CB] |==|  0.44798
USER: genes 12 Torsion [N]-CA--C-[OXT] |==|  0.63596
USER: genes 13 Torsion [N]-CA--CB-[SG] |==|  0.02642
USER: genes 14 Torsion [CA]-CB--SG-[HG] |==|  0.08758
USER: genes 15 Torsion [N]-CA--CB-[CG] |==|  0.88234
USER: genes 16 Torsion [CA]-CB--CG-[CD] |==|  0.31164
USER: genes 17 Torsion [CB]-CG--CD-[OE1] |==|  0.06546
USER: genes 18 Torsion [N]-CA--CB-[CG] |==|  0.52994
USER: genes 19 Torsion [CA]-CB--CG-[SD] |==|  0.61608
USER: genes 20 Torsion [CB]-CG--SD-[CE] |==|  0.52112
USER: genes 21 Torsion [N]-C--CA-[N] |==|  0.71191
USER: genes 22 Torsion [C]-CA--N-[C] |==|  0.14250
USER: genes 23 Torsion [N]-C--CA-[N] |==|  0.03889
USER: genes 24 Torsion [C]-CA--CB-[CG] |==|  0.53473
USER: genes 25 Torsion [CA]-CB--CG-[OD1] |==|  0.79732
USER: genes 26 Torsion [C]-CA--N-[C] |==|  0.17710
USER: genes 27 Torsion [N]-C--CA-[N] |==|  0.28395
USER: genes 28 Torsion [C]-CA--N-[C] |==|  0.78222
USER: genes 29 Torsion [C]-CA--CB-[CG] |==|  0.22848
USER: genes 30 Torsion [CA]-CB--CG-[CD1] |==|  0.43737
USER: genes 31 Torsion [C]-CA--CB-[CG] |==|  0.31890
USER: genes 32 Torsion [CA]-CB--CG-[CD] |==|  0.25824
USER: genes 33 Torsion [CB]-CG--CD-[OE1] |==|  0.77634
ROOT
ATOM      1  C   GLU C   3      27.540  -0.811 -12.313  1.00 25.67 LIG 0.24  C 
ATOM      2 O    GLU C   3      27.320  -1.410 -13.375  1.00 24.73 LIG-0.27  OA
ATOM      3  N   MET C   4      26.926  -1.084 -11.159  1.00 25.06 LIG-0.35  N 
ATOM      4 H    MET C   4      27.074  -0.648 -10.432  1.00 25.06 LIG 0.16  HD
ENDROOT
BRANCH 3 5
ATOM      5  CA  MET C   4      25.937  -2.154 -11.012  1.00 24.76 LIG 0.18  C 
BRANCH 5 6
ATOM      6  C   MET C   4      26.628  -3.506 -11.097  1.00 24.60 LIG 0.24  C 
ATOM      7 O    MET C   4      27.486  -3.733 -11.955  1.00 25.19 LIG-0.27  OA
ATOM      8  N   GLU C   5      26.200  -4.416 -10.236  1.00 23.81 LIG-0.35  N 
ATOM      9 H    GLU C   5      25.528  -4.298  -9.713  1.00 23.81 LIG 0.16  HD
BRANCH 8 10
ATOM     10  CA  GLU C   5      26.832  -5.698 -10.099  1.00 23.16 LIG 0.18  C 
BRANCH 10 11
ATOM     11  CB  GLU C   5      27.879  -5.626  -8.990  1.00 23.03 LIG 0.04  C 
BRANCH 11 12
ATOM     12  CG  GLU C   5      28.163  -4.191  -8.548  1.00 23.31 LIG 0.12  C 
BRANCH 12 13
ATOM     13  CD  GLU C   5      27.594  -3.838  -7.172  1.00 24.36 LIG 0.17  C 
ATOM     14 OE2  GLU C   5      26.341  -3.829  -7.030  1.00 22.25 LIG-0.65  OA
ATOM     15 OE1  GLU C   5      28.368  -3.559  -6.237  1.00 21.71 LIG-0.65  OA
ENDBRANCH 12 13
ENDBRANCH 11 12
ENDBRANCH 10 11
BRANCH 10 16
ATOM     16  C   GLU C   5      25.784  -6.727  -9.756  1.00 22.53 LIG 0.24  C 
ATOM     17  N   GLU C   6      24.606  -6.263  -9.346  1.00 22.45 LIG-0.35  N 
ATOM     18 H    GLU C   6      24.450  -5.437  -9.167  1.00 22.45 LIG 0.16  HD
ATOM     19 O    GLU C   5      26.046  -7.920  -9.844  1.00 22.53 LIG-0.27  OA
BRANCH 17 20
ATOM     20  CA  GLU C   6      23.447  -7.159  -9.165  1.00 22.27 LIG 0.18  C 
BRANCH 20 21
ATOM     21  C   GLU C   6      23.742  -8.188  -8.086  1.00 21.97 LIG 0.24  C 
ATOM     22 O    GLU C   6      23.267  -9.321  -8.159  1.00 22.60 LIG-0.27  OA
ATOM     23  N   CYS C   7      24.517  -7.814  -7.070  1.00 20.65 LIG-0.34  N 
ATOM     24 H    CYS C   7      24.827  -7.020  -6.952  1.00 20.65 LIG 0.16  HD
BRANCH 23 25
ATOM     25  CA  CYS C   7      24.895  -8.795  -6.053  1.00 20.43 LIG 0.19  C 
BRANCH 25 26
ATOM     26  C   CYS C   7      23.717  -9.154  -5.170  1.00 19.69 LIG 0.20  C 
ATOM     27 O    CYS C   7      22.617  -9.452  -5.626  1.00 19.84 LIG-0.65  OA
ATOM     28 OXT  CYS C   7      23.844  -9.141  -3.948  1.00 20.10 LIG-0.65  OA
ENDBRANCH 25 26
BRANCH 25 29
ATOM     29  CB  CYS C   7      26.127  -8.313  -5.258  1.00 20.27 LIG 0.11  C 
BRANCH 29 30
ATOM     30 SG   CYS C   7      26.581  -6.567  -5.614  1.00 22.98 LIG-0.18  SA
ATOM     31 HG   CYS C   7      25.592  -5.940  -5.874  1.00 22.98 LIG 0.10  HD
ENDBRANCH 29 30
ENDBRANCH 25 29
ENDBRANCH 23 25
ENDBRANCH 20 21
BRANCH 20 32
ATOM     32  CB  GLU C   6      23.111  -7.864 -10.478  1.00 22.58 LIG 0.04  C 
BRANCH 32 33
ATOM     33  CG  GLU C   6      23.184  -6.937 -11.666  1.00 24.64 LIG 0.12  C 
BRANCH 33 34
ATOM     34  CD  GLU C   6      24.326  -7.265 -12.618  1.00 27.63 LIG 0.17  C 
ATOM     35 OE1  GLU C   6      24.800  -8.427 -12.643  1.00 27.17 LIG-0.65  OA
ATOM     36 OE2  GLU C   6      24.739  -6.339 -13.353  1.00 31.71 LIG-0.65  OA
ENDBRANCH 33 34
ENDBRANCH 32 33
ENDBRANCH 20 32
ENDBRANCH 17 20
ENDBRANCH 10 16
ENDBRANCH 8 10
ENDBRANCH 5 6
BRANCH 5 37
ATOM     37  CB  MET C   4      24.866  -2.059 -12.104  1.00 24.86 LIG 0.04  C 
BRANCH 37 38
ATOM     38  CG  MET C   4      23.632  -2.965 -11.909  1.00 24.76 LIG 0.08  C 
BRANCH 38 39
ATOM     39 SD   MET C   4      23.028  -3.789 -13.403  1.00 26.68 LIG-0.17  SA
ATOM     40  CE  MET C   4      21.505  -4.507 -12.758  1.00 24.50 LIG 0.09  C 
ENDBRANCH 38 39
ENDBRANCH 37 38
ENDBRANCH 5 37
ENDBRANCH 3 5
BRANCH 1 41
ATOM     41  CA  GLU C   3      28.600   0.289 -12.259  1.00 26.55 LIG 0.18  C 
BRANCH 41 42
ATOM     42  N   GLU C   3      28.063   1.516 -12.841  1.00 27.07 LIG-0.35  N 
ATOM     43 H    GLU C   3      28.562   1.872 -13.446  1.00 27.07 LIG 0.16  HD
ATOM     44  C   ASP C   2      26.895   2.018 -12.449  1.00 28.06 LIG 0.24  C 
ATOM     45 O    ASP C   2      26.191   1.469 -11.604  1.00 27.76 LIG-0.27  OA
BRANCH 44 46
ATOM     46  CA  ASP C   2      26.436   3.302 -13.145  1.00 28.68 LIG 0.19  C 
BRANCH 46 47
ATOM     47  CB  ASP C   2      24.924   3.292 -13.446  1.00 28.90 LIG 0.15  C 
BRANCH 47 48
ATOM     48  CG  ASP C   2      24.482   4.399 -14.395  1.00 30.38 LIG 0.17  C 
ATOM     49 OD2  ASP C   2      24.145   4.113 -15.563  1.00 31.55 LIG-0.65  OA
ATOM     50 OD1  ASP C   2      24.450   5.575 -13.950  1.00 32.13 LIG-0.65  OA
ENDBRANCH 47 48
ENDBRANCH 46 47
BRANCH 46 51
ATOM     51  N   ASP C   2      27.194   3.611 -14.366  1.00 28.83 LIG-0.34  N 
ATOM     52  C   PHE C   1      27.149   2.793 -15.416  1.00 29.29 LIG 0.24  C 
ATOM     53 O    PHE C   1      26.363   1.847 -15.495  1.00 29.28 LIG-0.27  OA
ATOM     54 H    ASP C   2      27.649   4.340 -14.336  1.00 28.83 LIG 0.16  HD
BRANCH 52 55
ATOM     55  CA  PHE C   1      28.147   3.048 -16.536  1.00 29.71 LIG 0.18  C 
BRANCH 55 56
ATOM     56  N   PHE C   1      29.222   2.065 -16.407  1.00 30.30 LIG-0.35  N 
ATOM     57 H    PHE C   1      29.162   1.409 -16.958  1.00 30.30 LIG 0.16  HD
ATOM     58  C   ACE C   0      30.210   2.185 -15.506  1.00 30.61 LIG 0.21  C 
ATOM     59  CH3 ACE C   0      31.354   1.226 -15.693  1.00 31.12 LIG 0.12  C 
ATOM     60 O    ACE C   0      30.067   2.804 -14.447  1.00 30.74 LIG-0.27  OA
ENDBRANCH 55 56
BRANCH 55 61
ATOM     61  CB  PHE C   1      27.481   2.916 -17.911  1.00 29.76 LIG 0.07  C 
BRANCH 61 62
ATOM     62  CG  PHE C   1      26.731   4.153 -18.373  1.00 30.32 LIG-0.06  A 
ATOM     63  CD1 PHE C   1      26.489   4.361 -19.730  1.00 31.60 LIG 0.01  A 
ATOM     64  CE1 PHE C   1      25.817   5.504 -20.174  1.00 31.29 LIG 0.00  A 
ATOM     65  CZ  PHE C   1      25.377   6.445 -19.254  1.00 31.54 LIG 0.00  A 
ATOM     66  CE2 PHE C   1      25.614   6.251 -17.898  1.00 29.54 LIG 0.00  A 
ATOM     67  CD2 PHE C   1      26.287   5.114 -17.467  1.00 30.51 LIG 0.01  A 
ENDBRANCH 61 62
ENDBRANCH 55 61
ENDBRANCH 52 55
ENDBRANCH 46 51
ENDBRANCH 44 46
ENDBRANCH 41 42
BRANCH 41 68
ATOM     68  CB  GLU C   3      29.152   0.510 -10.824  1.00 26.96 LIG 0.04  C 
BRANCH 68 69
ATOM     69  CG  GLU C   3      30.641   0.186 -10.549  1.00 28.76 LIG 0.12  C 
BRANCH 69 70
ATOM     70  CD  GLU C   3      31.569   1.365 -10.702  1.00 29.94 LIG 0.17  C 
ATOM     71 OE1  GLU C   3      31.930   1.686 -11.850  1.00 33.38 LIG-0.65  OA
ATOM     72 OE2  GLU C   3      31.912   1.993  -9.669  1.00 31.06 LIG-0.65  OA
ENDBRANCH 69 70
ENDBRANCH 68 69
ENDBRANCH 41 68
ENDBRANCH 1 41
TORSDOF 32
ENDMDL
MODEL 37
USER: ADFR SOLUTION from run 16
USER: SCORE 19.486902 LL:  -4.254 LR: -19.064 RR:   0.000 FEB:  -9.519
USER: RMSD 13.610061
USER: SEED 56831
USER: STATUS no improvement in best in 2 clusters for 5 generations
USER: GENES 34
USER: genes 0 Translation |==|  0.42952 0.62776 0.35402
USER: genes 1 Rotation |==|  0.23716 0.40829 0.10275 0.62124
USER: genes 2 Torsion [C]-N--CA-[CB] |==|  0.21068
USER: genes 3 Torsion [N]-CA--C-[N] |==|  0.42672
USER: genes 4 Torsion [C]-N--CA-[CB] |==|  0.42651
USER: genes 5 Torsion [N]-CA--CB-[CG] |==|  0.48733
USER: genes 6 Torsion [CA]-CB--CG-[CD] |==|  0.20219
USER: genes 7 Torsion [CB]-CG--CD-[OE2] |==|  0.11773
USER: genes 8 Torsion [N]-CA--C-[N] |==|  0.32477
USER: genes 9 Torsion [C]-N--CA-[C] |==|  0.77883
USER: genes 10 Torsion [N]-CA--C-[N] |==|  0.91458
USER: genes 11 Torsion [C]-N--CA-[CB] |==|  0.35782
USER: genes 12 Torsion [N]-CA--C-[OXT] |==|  0.60824
USER: genes 13 Torsion [N]-CA--CB-[SG] |==|  0.56539
USER: genes 14 Torsion [CA]-CB--SG-[HG] |==|  0.08484
USER: genes 15 Torsion [N]-CA--CB-[CG] |==|  0.22689
USER: genes 16 Torsion [CA]-CB--CG-[CD] |==|  0.44905
USER: genes 17 Torsion [CB]-CG--CD-[OE1] |==|  0.51945
USER: genes 18 Torsion [N]-CA--CB-[CG] |==|  0.08064
USER: genes 19 Torsion [CA]-CB--CG-[SD] |==|  0.17647
USER: genes 20 Torsion [CB]-CG--SD-[CE] |==|  0.14919
USER: genes 21 Torsion [N]-C--CA-[N] |==|  0.43737
USER: genes 22 Torsion [C]-CA--N-[C] |==|  0.24826
USER: genes 23 Torsion [N]-C--CA-[N] |==|  0.11815
USER: genes 24 Torsion [C]-CA--CB-[CG] |==|  0.20604
USER: genes 25 Torsion [CA]-CB--CG-[OD1] |==|  0.67402
USER: genes 26 Torsion [C]-CA--N-[C] |==|  0.16111
USER: genes 27 Torsion [N]-C--CA-[N] |==|  0.33536
USER: genes 28 Torsion [C]-CA--N-[C] |==|  0.61736
USER: genes 29 Torsion [C]-CA--CB-[CG] |==|  0.40912
USER: genes 30 Torsion [CA]-CB--CG-[CD1] |==|  0.44994
USER: genes 31 Torsion [C]-CA--CB-[CG] |==|  0.49505
USER: genes 32 Torsion [CA]-CB--CG-[CD] |==|  0.33475
USER: genes 33 Torsion [CB]-CG--CD-[OE1] |==|  0.68539
ROOT
ATOM      1  C   GLU C   3      26.894   0.091 -12.257  1.00 25.67 LIG 0.24  C 
ATOM      2 O    GLU C   3      27.400  -0.129 -13.366  1.00 24.73 LIG-0.27  OA
ATOM      3  N   MET C   4      26.783  -0.824 -11.290  1.00 25.06 LIG-0.35  N 
ATOM      4 H    MET C   4      26.413  -0.664 -10.531  1.00 25.06 LIG 0.16  HD
ENDROOT
BRANCH 3 5
ATOM      5  CA  MET C   4      27.280  -2.195 -11.426  1.00 24.76 LIG 0.18  C 
BRANCH 5 6
ATOM      6  C   MET C   4      26.648  -3.077 -10.361  1.00 24.60 LIG 0.24  C 
ATOM      7 O    MET C   4      26.303  -2.614  -9.269  1.00 25.19 LIG-0.27  OA
ATOM      8  N   GLU C   5      26.558  -4.361 -10.669  1.00 23.81 LIG-0.35  N 
ATOM      9 H    GLU C   5      26.897  -4.705 -11.380  1.00 23.81 LIG 0.16  HD
BRANCH 8 10
ATOM     10  CA  GLU C   5      25.873  -5.305  -9.830  1.00 23.16 LIG 0.18  C 
BRANCH 10 11
ATOM     11  CB  GLU C   5      25.371  -6.465 -10.685  1.00 23.03 LIG 0.04  C 
BRANCH 11 12
ATOM     12  CG  GLU C   5      24.726  -7.570  -9.848  1.00 23.31 LIG 0.12  C 
BRANCH 12 13
ATOM     13  CD  GLU C   5      23.352  -7.203  -9.283  1.00 24.36 LIG 0.17  C 
ATOM     14 OE2  GLU C   5      22.541  -6.598 -10.034  1.00 22.25 LIG-0.65  OA
ATOM     15 OE1  GLU C   5      23.072  -7.496  -8.104  1.00 21.71 LIG-0.65  OA
ENDBRANCH 12 13
ENDBRANCH 11 12
ENDBRANCH 10 11
BRANCH 10 16
ATOM     16  C   GLU C   5      26.830  -5.810  -8.779  1.00 22.53 LIG 0.24  C 
ATOM     17  N   GLU C   6      26.525  -5.533  -7.514  1.00 22.45 LIG-0.35  N 
ATOM     18 H    GLU C   6      25.890  -5.005  -7.275  1.00 22.45 LIG 0.16  HD
ATOM     19 O    GLU C   5      27.836  -6.423  -9.113  1.00 22.53 LIG-0.27  OA
BRANCH 17 20
ATOM     20  CA  GLU C   6      27.277  -6.131  -6.392  1.00 22.27 LIG 0.18  C 
BRANCH 20 21
ATOM     21  C   GLU C   6      26.800  -7.552  -6.139  1.00 21.97 LIG 0.24  C 
ATOM     22 O    GLU C   6      27.579  -8.403  -5.710  1.00 22.60 LIG-0.27  OA
ATOM     23  N   CYS C   7      25.527  -7.834  -6.406  1.00 20.65 LIG-0.34  N 
ATOM     24 H    CYS C   7      24.963  -7.287  -6.756  1.00 20.65 LIG 0.16  HD
BRANCH 23 25
ATOM     25  CA  CYS C   7      25.004  -9.165  -6.100  1.00 20.43 LIG 0.19  C 
BRANCH 25 26
ATOM     26  C   CYS C   7      24.852  -9.999  -7.357  1.00 19.69 LIG 0.20  C 
ATOM     27 O    CYS C   7      25.665  -9.963  -8.275  1.00 19.84 LIG-0.65  OA
ATOM     28 OXT  CYS C   7      23.879 -10.738  -7.484  1.00 20.10 LIG-0.65  OA
ENDBRANCH 25 26
BRANCH 25 29
ATOM     29  CB  CYS C   7      23.704  -9.067  -5.274  1.00 20.27 LIG 0.11  C 
BRANCH 29 30
ATOM     30 SG   CYS C   7      23.359 -10.579  -4.285  1.00 22.98 LIG-0.18  SA
ATOM     31 HG   CYS C   7      24.395 -11.097  -3.971  1.00 22.98 LIG 0.10  HD
ENDBRANCH 29 30
ENDBRANCH 25 29
ENDBRANCH 23 25
ENDBRANCH 20 21
BRANCH 20 32
ATOM     32  CB  GLU C   6      27.101  -5.290  -5.129  1.00 22.58 LIG 0.04  C 
BRANCH 32 33
ATOM     33  CG  GLU C   6      25.810  -5.592  -4.409  1.00 24.64 LIG 0.12  C 
BRANCH 33 34
ATOM     34  CD  GLU C   6      25.803  -5.123  -2.961  1.00 27.63 LIG 0.17  C 
ATOM     35 OE1  GLU C   6      24.841  -5.429  -2.213  1.00 27.17 LIG-0.65  OA
ATOM     36 OE2  GLU C   6      26.784  -4.448  -2.575  1.00 31.71 LIG-0.65  OA
ENDBRANCH 33 34
ENDBRANCH 32 33
ENDBRANCH 20 32
ENDBRANCH 17 20
ENDBRANCH 10 16
ENDBRANCH 8 10
ENDBRANCH 5 6
BRANCH 5 37
ATOM     37  CB  MET C   4      28.805  -2.238 -11.285  1.00 24.86 LIG 0.04  C 
BRANCH 37 38
ATOM     38  CG  MET C   4      29.424  -1.140 -10.395  1.00 24.76 LIG 0.08  C 
BRANCH 38 39
ATOM     39 SD   MET C   4      28.941  -1.187  -8.651  1.00 26.68 LIG-0.17  SA
ATOM     40  CE  MET C   4      29.370  -2.894  -8.263  1.00 24.50 LIG 0.09  C 
ENDBRANCH 38 39
ENDBRANCH 37 38
ENDBRANCH 5 37
ENDBRANCH 3 5
BRANCH 1 41
ATOM     41  CA  GLU C   3      26.390   1.492 -11.909  1.00 26.55 LIG 0.18  C 
BRANCH 41 42
ATOM     42  N   GLU C   3      27.029   2.473 -12.781  1.00 27.07 LIG-0.35  N 
ATOM     43 H    GLU C   3      27.763   2.800 -12.474  1.00 27.07 LIG 0.16  HD
ATOM     44  C   ASP C   2      26.496   2.813 -13.952  1.00 28.06 LIG 0.24  C 
ATOM     45 O    ASP C   2      25.461   2.306 -14.379  1.00 27.76 LIG-0.27  OA
BRANCH 44 46
ATOM     46  CA  ASP C   2      27.270   3.843 -14.780  1.00 28.68 LIG 0.19  C 
BRANCH 46 47
ATOM     47  CB  ASP C   2      26.733   3.952 -16.221  1.00 28.90 LIG 0.15  C 
BRANCH 47 48
ATOM     48  CG  ASP C   2      25.402   4.688 -16.324  1.00 30.38 LIG 0.17  C 
ATOM     49 OD2  ASP C   2      25.335   5.893 -16.006  1.00 31.55 LIG-0.65  OA
ATOM     50 OD1  ASP C   2      24.410   4.046 -16.756  1.00 32.13 LIG-0.65  OA
ENDBRANCH 47 48
ENDBRANCH 46 47
BRANCH 46 51
ATOM     51  N   ASP C   2      28.721   3.614 -14.795  1.00 28.83 LIG-0.34  N 
ATOM     52  C   PHE C   1      29.220   2.461 -15.234  1.00 29.29 LIG 0.24  C 
ATOM     53 O    PHE C   1      28.534   1.605 -15.797  1.00 29.28 LIG-0.27  OA
ATOM     54 H    ASP C   2      29.195   4.271 -14.505  1.00 28.83 LIG 0.16  HD
BRANCH 52 55
ATOM     55  CA  PHE C   1      30.699   2.206 -14.985  1.00 29.71 LIG 0.18  C 
BRANCH 55 56
ATOM     56  N   PHE C   1      30.814   0.986 -14.187  1.00 30.30 LIG-0.35  N 
ATOM     57 H    PHE C   1      30.286   0.356 -14.438  1.00 30.30 LIG 0.16  HD
ATOM     58  C   ACE C   0      31.667   0.871 -13.158  1.00 30.61 LIG 0.21  C 
ATOM     59  CH3 ACE C   0      31.828  -0.527 -12.626  1.00 31.12 LIG 0.12  C 
ATOM     60 O    ACE C   0      32.052   1.847 -12.506  1.00 30.74 LIG-0.27  OA
ENDBRANCH 55 56
BRANCH 55 61
ATOM     61  CB  PHE C   1      31.462   2.040 -16.306  1.00 29.76 LIG 0.07  C 
BRANCH 61 62
ATOM     62  CG  PHE C   1      32.893   2.546 -16.280  1.00 30.32 LIG-0.06  A 
ATOM     63  CD1 PHE C   1      33.801   2.131 -17.253  1.00 31.60 LIG 0.01  A 
ATOM     64  CE1 PHE C   1      35.128   2.573 -17.232  1.00 31.29 LIG 0.00  A 
ATOM     65  CZ  PHE C   1      35.550   3.440 -16.234  1.00 31.54 LIG 0.00  A 
ATOM     66  CE2 PHE C   1      34.655   3.858 -15.256  1.00 29.54 LIG 0.00  A 
ATOM     67  CD2 PHE C   1      33.340   3.411 -15.283  1.00 30.51 LIG 0.01  A 
ENDBRANCH 61 62
ENDBRANCH 55 61
ENDBRANCH 52 55
ENDBRANCH 46 51
ENDBRANCH 44 46
ENDBRANCH 41 42
BRANCH 41 68
ATOM     68  CB  GLU C   3      24.841   1.590 -11.948  1.00 26.96 LIG 0.04  C 
BRANCH 68 69
ATOM     69  CG  GLU C   3      24.178   2.939 -11.577  1.00 28.76 LIG 0.12  C 
BRANCH 69 70
ATOM     70  CD  GLU C   3      23.333   3.536 -12.675  1.00 29.94 LIG 0.17  C 
ATOM     71 OE1  GLU C   3      23.715   4.599 -13.201  1.00 33.38 LIG-0.65  OA
ATOM     72 OE2  GLU C   3      22.299   2.921 -13.034  1.00 31.06 LIG-0.65  OA
ENDBRANCH 69 70
ENDBRANCH 68 69
ENDBRANCH 41 68
ENDBRANCH 1 41
TORSDOF 32
ENDMDL
MODEL 38
USER: ADFR SOLUTION from run 187
USER: SCORE 20.321754 LL:  -4.816 LR: -19.064 RR:   0.000 FEB:  -9.518
USER: RMSD 12.975354
USER: SEED 186
USER: STATUS no improvement in best in 3 clusters for 5 generations
USER: GENES 34
USER: genes 0 Translation |==|  0.40782 0.61421 0.34046
USER: genes 1 Rotation |==|  0.13012 0.50926 0.16434 0.52093
USER: genes 2 Torsion [C]-N--CA-[CB] |==|  0.55390
USER: genes 3 Torsion [N]-CA--C-[N] |==|  0.36692
USER: genes 4 Torsion [C]-N--CA-[CB] |==|  0.43401
USER: genes 5 Torsion [N]-CA--CB-[CG] |==|  0.62148
USER: genes 6 Torsion [CA]-CB--CG-[CD] |==|  0.09822
USER: genes 7 Torsion [CB]-CG--CD-[OE2] |==|  0.15835
USER: genes 8 Torsion [N]-CA--C-[N] |==|  0.17652
USER: genes 9 Torsion [C]-N--CA-[C] |==|  0.17947
USER: genes 10 Torsion [N]-CA--C-[N] |==|  0.05703
USER: genes 11 Torsion [C]-N--CA-[CB] |==|  0.36281
USER: genes 12 Torsion [N]-CA--C-[OXT] |==|  0.97150
USER: genes 13 Torsion [N]-CA--CB-[SG] |==|  0.03399
USER: genes 14 Torsion [CA]-CB--SG-[HG] |==|  0.02346
USER: genes 15 Torsion [N]-CA--CB-[CG] |==|  0.75689
USER: genes 16 Torsion [CA]-CB--CG-[CD] |==|  0.22121
USER: genes 17 Torsion [CB]-CG--CD-[OE1] |==|  0.15190
USER: genes 18 Torsion [N]-CA--CB-[CG] |==|  0.56169
USER: genes 19 Torsion [CA]-CB--CG-[SD] |==|  0.33181
USER: genes 20 Torsion [CB]-CG--SD-[CE] |==|  0.44802
USER: genes 21 Torsion [N]-C--CA-[N] |==|  0.32249
USER: genes 22 Torsion [C]-CA--N-[C] |==|  0.82530
USER: genes 23 Torsion [N]-C--CA-[N] |==|  0.88203
USER: genes 24 Torsion [C]-CA--CB-[CG] |==|  0.22360
USER: genes 25 Torsion [CA]-CB--CG-[OD1] |==|  0.74608
USER: genes 26 Torsion [C]-CA--N-[C] |==|  0.18670
USER: genes 27 Torsion [N]-C--CA-[N] |==|  0.96832
USER: genes 28 Torsion [C]-CA--N-[C] |==|  0.64548
USER: genes 29 Torsion [C]-CA--CB-[CG] |==|  0.22052
USER: genes 30 Torsion [CA]-CB--CG-[CD1] |==|  0.74123
USER: genes 31 Torsion [C]-CA--CB-[CG] |==|  0.12932
USER: genes 32 Torsion [CA]-CB--CG-[CD] |==|  0.49115
USER: genes 33 Torsion [CB]-CG--CD-[OE1] |==|  0.40831
ROOT
ATOM      1  C   GLU C   3      26.488  -0.285 -12.602  1.00 25.67 LIG 0.24  C 
ATOM      2 O    GLU C   3      26.223  -0.624 -13.764  1.00 24.73 LIG-0.27  OA
ATOM      3  N   MET C   4      26.402  -1.099 -11.547  1.00 25.06 LIG-0.35  N 
ATOM      4 H    MET C   4      26.570  -0.846 -10.743  1.00 25.06 LIG 0.16  HD
ENDROOT
BRANCH 3 5
ATOM      5  CA  MET C   4      26.012  -2.507 -11.653  1.00 24.76 LIG 0.18  C 
BRANCH 5 6
ATOM      6  C   MET C   4      24.894  -2.654 -12.671  1.00 24.60 LIG 0.24  C 
ATOM      7 O    MET C   4      23.881  -1.950 -12.617  1.00 25.19 LIG-0.27  OA
ATOM      8  N   GLU C   5      25.063  -3.619 -13.562  1.00 23.81 LIG-0.35  N 
ATOM      9 H    GLU C   5      25.711  -4.183 -13.536  1.00 23.81 LIG 0.16  HD
BRANCH 8 10
ATOM     10  CA  GLU C   5      24.164  -3.808 -14.668  1.00 23.16 LIG 0.18  C 
BRANCH 10 11
ATOM     11  CB  GLU C   5      24.894  -4.544 -15.788  1.00 23.03 LIG 0.04  C 
BRANCH 11 12
ATOM     12  CG  GLU C   5      24.611  -3.941 -17.164  1.00 23.31 LIG 0.12  C 
BRANCH 12 13
ATOM     13  CD  GLU C   5      24.453  -2.420 -17.157  1.00 24.36 LIG 0.17  C 
ATOM     14 OE2  GLU C   5      25.401  -1.723 -16.703  1.00 22.25 LIG-0.65  OA
ATOM     15 OE1  GLU C   5      23.400  -1.907 -17.584  1.00 21.71 LIG-0.65  OA
ENDBRANCH 12 13
ENDBRANCH 11 12
ENDBRANCH 10 11
BRANCH 10 16
ATOM     16  C   GLU C   5      22.978  -4.615 -14.202  1.00 22.53 LIG 0.24  C 
ATOM     17  N   GLU C   6      22.208  -4.059 -13.270  1.00 22.45 LIG-0.35  N 
ATOM     18 H    GLU C   6      22.405  -3.334 -12.853  1.00 22.45 LIG 0.16  HD
ATOM     19 O    GLU C   5      22.778  -5.730 -14.666  1.00 22.53 LIG-0.27  OA
BRANCH 17 20
ATOM     20  CA  GLU C   6      20.922  -4.665 -12.873  1.00 22.27 LIG 0.18  C 
BRANCH 20 21
ATOM     21  C   GLU C   6      21.157  -6.020 -12.225  1.00 21.97 LIG 0.24  C 
ATOM     22 O    GLU C   6      20.244  -6.843 -12.157  1.00 22.60 LIG-0.27  OA
ATOM     23  N   CYS C   7      22.369  -6.268 -11.735  1.00 20.65 LIG-0.34  N 
ATOM     24 H    CYS C   7      23.018  -5.705 -11.714  1.00 20.65 LIG 0.16  HD
BRANCH 23 25
ATOM     25  CA  CYS C   7      22.663  -7.588 -11.178  1.00 20.43 LIG 0.19  C 
BRANCH 25 26
ATOM     26  C   CYS C   7      22.645  -7.562  -9.662  1.00 19.69 LIG 0.20  C 
ATOM     27 O    CYS C   7      22.671  -8.585  -8.984  1.00 19.84 LIG-0.65  OA
ATOM     28 OXT  CYS C   7      22.590  -6.487  -9.071  1.00 20.10 LIG-0.65  OA
ENDBRANCH 25 26
BRANCH 25 29
ATOM     29  CB  CYS C   7      23.978  -8.149 -11.760  1.00 20.27 LIG 0.11  C 
BRANCH 29 30
ATOM     30 SG   CYS C   7      24.958  -6.891 -12.676  1.00 22.98 LIG-0.18  SA
ATOM     31 HG   CYS C   7      24.469  -5.807 -12.516  1.00 22.98 LIG 0.10  HD
ENDBRANCH 29 30
ENDBRANCH 25 29
ENDBRANCH 23 25
ENDBRANCH 20 21
BRANCH 20 32
ATOM     32  CB  GLU C   6      20.012  -4.821 -14.091  1.00 22.58 LIG 0.04  C 
BRANCH 32 33
ATOM     33  CG  GLU C   6      19.185  -3.588 -14.356  1.00 24.64 LIG 0.12  C 
BRANCH 33 34
ATOM     34  CD  GLU C   6      19.956  -2.487 -15.071  1.00 27.63 LIG 0.17  C 
ATOM     35 OE1  GLU C   6      20.536  -2.738 -16.156  1.00 27.17 LIG-0.65  OA
ATOM     36 OE2  GLU C   6      19.966  -1.356 -14.534  1.00 31.71 LIG-0.65  OA
ENDBRANCH 33 34
ENDBRANCH 32 33
ENDBRANCH 20 32
ENDBRANCH 17 20
ENDBRANCH 10 16
ENDBRANCH 8 10
ENDBRANCH 5 6
BRANCH 5 37
ATOM     37  CB  MET C   4      25.542  -3.045 -10.297  1.00 24.86 LIG 0.04  C 
BRANCH 37 38
ATOM     38  CG  MET C   4      25.613  -4.576 -10.125  1.00 24.76 LIG 0.08  C 
BRANCH 38 39
ATOM     39 SD   MET C   4      26.681  -5.161  -8.786  1.00 26.68 LIG-0.17  SA
ATOM     40  CE  MET C   4      26.032  -6.831  -8.586  1.00 24.50 LIG 0.09  C 
ENDBRANCH 38 39
ENDBRANCH 37 38
ENDBRANCH 5 37
ENDBRANCH 3 5
BRANCH 1 41
ATOM     41  CA  GLU C   3      26.986   1.130 -12.312  1.00 26.55 LIG 0.18  C 
BRANCH 41 42
ATOM     42  N   GLU C   3      28.257   1.352 -12.998  1.00 27.07 LIG-0.35  N 
ATOM     43 H    GLU C   3      28.237   1.974 -13.592  1.00 27.07 LIG 0.16  HD
ATOM     44  C   ASP C   2      29.339   0.637 -12.703  1.00 28.06 LIG 0.24  C 
ATOM     45 O    ASP C   2      29.344  -0.224 -11.826  1.00 27.76 LIG-0.27  OA
BRANCH 44 46
ATOM     46  CA  ASP C   2      30.613   0.975 -13.483  1.00 28.68 LIG 0.19  C 
BRANCH 46 47
ATOM     47  CB  ASP C   2      31.370   2.169 -12.869  1.00 28.90 LIG 0.15  C 
BRANCH 47 48
ATOM     48  CG  ASP C   2      32.227   1.796 -11.665  1.00 30.38 LIG 0.17  C 
ATOM     49 OD2  ASP C   2      33.414   1.448 -11.835  1.00 31.55 LIG-0.65  OA
ATOM     50 OD1  ASP C   2      31.702   1.878 -10.525  1.00 32.13 LIG-0.65  OA
ENDBRANCH 47 48
ENDBRANCH 46 47
BRANCH 46 51
ATOM     51  N   ASP C   2      30.381   1.204 -14.916  1.00 28.83 LIG-0.34  N 
ATOM     52  C   PHE C   1      29.684   2.260 -15.329  1.00 29.29 LIG 0.24  C 
ATOM     53 O    PHE C   1      29.345   3.175 -14.576  1.00 29.28 LIG-0.27  OA
ATOM     54 H    ASP C   2      30.726   0.613 -15.438  1.00 28.83 LIG 0.16  HD
BRANCH 52 55
ATOM     55  CA  PHE C   1      29.276   2.291 -16.795  1.00 29.71 LIG 0.18  C 
BRANCH 55 56
ATOM     56  N   PHE C   1      30.007   1.229 -17.484  1.00 30.30 LIG-0.35  N 
ATOM     57 H    PHE C   1      29.930   0.457 -17.114  1.00 30.30 LIG 0.16  HD
ATOM     58  C   ACE C   0      30.732   1.449 -18.592  1.00 30.61 LIG 0.21  C 
ATOM     59  CH3 ACE C   0      31.196   0.204 -19.299  1.00 31.12 LIG 0.12  C 
ATOM     60 O    ACE C   0      31.234   2.548 -18.845  1.00 30.74 LIG-0.27  OA
ENDBRANCH 55 56
BRANCH 55 61
ATOM     61  CB  PHE C   1      27.766   2.074 -16.954  1.00 29.76 LIG 0.07  C 
BRANCH 61 62
ATOM     62  CG  PHE C   1      26.916   3.304 -16.682  1.00 30.32 LIG-0.06  A 
ATOM     63  CD1 PHE C   1      26.392   3.527 -15.411  1.00 31.60 LIG 0.01  A 
ATOM     64  CE1 PHE C   1      25.592   4.644 -15.150  1.00 31.29 LIG 0.00  A 
ATOM     65  CZ  PHE C   1      25.318   5.549 -16.166  1.00 31.54 LIG 0.00  A 
ATOM     66  CE2 PHE C   1      25.833   5.336 -17.440  1.00 29.54 LIG 0.00  A 
ATOM     67  CD2 PHE C   1      26.623   4.221 -17.690  1.00 30.51 LIG 0.01  A 
ENDBRANCH 61 62
ENDBRANCH 55 61
ENDBRANCH 52 55
ENDBRANCH 46 51
ENDBRANCH 44 46
ENDBRANCH 41 42
BRANCH 41 68
ATOM     68  CB  GLU C   3      25.931   2.214 -12.665  1.00 26.96 LIG 0.04  C 
BRANCH 68 69
ATOM     69  CG  GLU C   3      24.470   2.000 -12.195  1.00 28.76 LIG 0.12  C 
BRANCH 69 70
ATOM     70  CD  GLU C   3      23.542   3.144 -12.522  1.00 29.94 LIG 0.17  C 
ATOM     71 OE1  GLU C   3      22.351   2.881 -12.778  1.00 33.38 LIG-0.65  OA
ATOM     72 OE2  GLU C   3      24.000   4.312 -12.491  1.00 31.06 LIG-0.65  OA
ENDBRANCH 69 70
ENDBRANCH 68 69
ENDBRANCH 41 68
ENDBRANCH 1 41
TORSDOF 32
ENDMDL
MODEL 39
USER: ADFR SOLUTION from run 8
USER: SCORE 20.406913 LL:  -4.800 LR: -19.023 RR:   0.000 FEB:  -9.478
USER: RMSD 13.679771
USER: SEED 635722
USER: STATUS no improvement in best in 2 clusters for 5 generations
USER: GENES 34
USER: genes 0 Translation |==|  0.43053 0.68822 0.33275
USER: genes 1 Rotation |==|  0.95214 0.32485 0.40130 0.57177
USER: genes 2 Torsion [C]-N--CA-[CB] |==|  0.27763
USER: genes 3 Torsion [N]-CA--C-[N] |==|  0.44279
USER: genes 4 Torsion [C]-N--CA-[CB] |==|  0.27026
USER: genes 5 Torsion [N]-CA--CB-[CG] |==|  0.81426
USER: genes 6 Torsion [CA]-CB--CG-[CD] |==|  0.45886
USER: genes 7 Torsion [CB]-CG--CD-[OE2] |==|  0.77909
USER: genes 8 Torsion [N]-CA--C-[N] |==|  0.47373
USER: genes 9 Torsion [C]-N--CA-[C] |==|  0.18809
USER: genes 10 Torsion [N]-CA--C-[N] |==|  0.65952
USER: genes 11 Torsion [C]-N--CA-[CB] |==|  0.25516
USER: genes 12 Torsion [N]-CA--C-[OXT] |==|  0.64579
USER: genes 13 Torsion [N]-CA--CB-[SG] |==|  0.26514
USER: genes 14 Torsion [CA]-CB--SG-[HG] |==|  0.57477
USER: genes 15 Torsion [N]-CA--CB-[CG] |==|  0.57343
USER: genes 16 Torsion [CA]-CB--CG-[CD] |==|  0.47862
USER: genes 17 Torsion [CB]-CG--CD-[OE1] |==|  0.71634
USER: genes 18 Torsion [N]-CA--CB-[CG] |==|  0.54583
USER: genes 19 Torsion [CA]-CB--CG-[SD] |==|  0.50497
USER: genes 20 Torsion [CB]-CG--SD-[CE] |==|  0.27582
USER: genes 21 Torsion [N]-C--CA-[N] |==|  0.12297
USER: genes 22 Torsion [C]-CA--N-[C] |==|  0.15739
USER: genes 23 Torsion [N]-C--CA-[N] |==|  0.03206
USER: genes 24 Torsion [C]-CA--CB-[CG] |==|  0.25374
USER: genes 25 Torsion [CA]-CB--CG-[OD1] |==|  0.59464
USER: genes 26 Torsion [C]-CA--N-[C] |==|  0.77216
USER: genes 27 Torsion [N]-C--CA-[N] |==|  0.48200
USER: genes 28 Torsion [C]-CA--N-[C] |==|  0.74803
USER: genes 29 Torsion [C]-CA--CB-[CG] |==|  0.89726
USER: genes 30 Torsion [CA]-CB--CG-[CD1] |==|  0.83141
USER: genes 31 Torsion [C]-CA--CB-[CG] |==|  0.88760
USER: genes 32 Torsion [CA]-CB--CG-[CD] |==|  0.61516
USER: genes 33 Torsion [CB]-CG--CD-[OE1] |==|  0.27609
ROOT
ATOM      1  C   GLU C   3      26.913   1.769 -12.799  1.00 25.67 LIG 0.24  C 
ATOM      2 O    GLU C   3      25.962   2.275 -12.187  1.00 24.73 LIG-0.27  OA
ATOM      3  N   MET C   4      27.347   0.520 -12.607  1.00 25.06 LIG-0.35  N 
ATOM      4 H    MET C   4      28.021   0.187 -13.024  1.00 25.06 LIG 0.16  HD
ENDROOT
BRANCH 3 5
ATOM      5  CA  MET C   4      26.719  -0.409 -11.665  1.00 24.76 LIG 0.18  C 
BRANCH 5 6
ATOM      6  C   MET C   4      27.792  -1.191 -10.924  1.00 24.60 LIG 0.24  C 
ATOM      7 O    MET C   4      28.920  -1.343 -11.404  1.00 25.19 LIG-0.27  OA
ATOM      8  N   GLU C   5      27.408  -1.734  -9.780  1.00 23.81 LIG-0.35  N 
ATOM      9 H    GLU C   5      26.596  -1.725  -9.497  1.00 23.81 LIG 0.16  HD
BRANCH 8 10
ATOM     10  CA  GLU C   5      28.330  -2.395  -8.898  1.00 23.16 LIG 0.18  C 
BRANCH 10 11
ATOM     11  CB  GLU C   5      28.762  -1.423  -7.803  1.00 23.03 LIG 0.04  C 
BRANCH 11 12
ATOM     12  CG  GLU C   5      29.595  -0.263  -8.347  1.00 23.31 LIG 0.12  C 
BRANCH 12 13
ATOM     13  CD  GLU C   5      29.747   0.907  -7.374  1.00 24.36 LIG 0.17  C 
ATOM     14 OE2  GLU C   5      28.790   1.722  -7.269  1.00 22.25 LIG-0.65  OA
ATOM     15 OE1  GLU C   5      30.801   1.037  -6.723  1.00 21.71 LIG-0.65  OA
ENDBRANCH 12 13
ENDBRANCH 11 12
ENDBRANCH 10 11
BRANCH 10 16
ATOM     16  C   GLU C   5      27.650  -3.595  -8.287  1.00 22.53 LIG 0.24  C 
ATOM     17  N   GLU C   6      28.422  -4.429  -7.596  1.00 22.45 LIG-0.35  N 
ATOM     18 H    GLU C   6      29.280  -4.382  -7.570  1.00 22.45 LIG 0.16  HD
ATOM     19 O    GLU C   5      26.450  -3.769  -8.458  1.00 22.53 LIG-0.27  OA
BRANCH 17 20
ATOM     20  CA  GLU C   6      27.845  -5.530  -6.798  1.00 22.27 LIG 0.18  C 
BRANCH 20 21
ATOM     21  C   GLU C   6      27.218  -6.568  -7.713  1.00 21.97 LIG 0.24  C 
ATOM     22 O    GLU C   6      27.890  -7.114  -8.589  1.00 22.60 LIG-0.27  OA
ATOM     23  N   CYS C   7      25.929  -6.850  -7.537  1.00 20.65 LIG-0.34  N 
ATOM     24 H    CYS C   7      25.410  -6.457  -6.975  1.00 20.65 LIG 0.16  HD
BRANCH 23 25
ATOM     25  CA  CYS C   7      25.305  -7.903  -8.339  1.00 20.43 LIG 0.19  C 
BRANCH 25 26
ATOM     26  C   CYS C   7      23.896  -7.521  -8.746  1.00 19.69 LIG 0.20  C 
ATOM     27 O    CYS C   7      23.633  -6.454  -9.293  1.00 19.84 LIG-0.65  OA
ATOM     28 OXT  CYS C   7      22.966  -8.291  -8.520  1.00 20.10 LIG-0.65  OA
ENDBRANCH 25 26
BRANCH 25 29
ATOM     29  CB  CYS C   7      25.381  -9.263  -7.614  1.00 20.27 LIG 0.11  C 
BRANCH 29 30
ATOM     30 SG   CYS C   7      23.861  -9.658  -6.656  1.00 22.98 LIG-0.18  SA
ATOM     31 HG   CYS C   7      24.139 -10.388  -5.746  1.00 22.98 LIG 0.10  HD
ENDBRANCH 29 30
ENDBRANCH 25 29
ENDBRANCH 23 25
ENDBRANCH 20 21
BRANCH 20 32
ATOM     32  CB  GLU C   6      26.795  -4.988  -5.830  1.00 22.58 LIG 0.04  C 
BRANCH 32 33
ATOM     33  CG  GLU C   6      26.635  -5.856  -4.607  1.00 24.64 LIG 0.12  C 
BRANCH 33 34
ATOM     34  CD  GLU C   6      25.734  -5.242  -3.544  1.00 27.63 LIG 0.17  C 
ATOM     35 OE1  GLU C   6      26.245  -4.703  -2.531  1.00 27.17 LIG-0.65  OA
ATOM     36 OE2  GLU C   6      24.499  -5.297  -3.743  1.00 31.71 LIG-0.65  OA
ENDBRANCH 33 34
ENDBRANCH 32 33
ENDBRANCH 20 32
ENDBRANCH 17 20
ENDBRANCH 10 16
ENDBRANCH 8 10
ENDBRANCH 5 6
BRANCH 5 37
ATOM     37  CB  MET C   4      25.791  -1.383 -12.398  1.00 24.86 LIG 0.04  C 
BRANCH 37 38
ATOM     38  CG  MET C   4      24.781  -2.140 -11.510  1.00 24.76 LIG 0.08  C 
BRANCH 38 39
ATOM     39 SD   MET C   4      23.722  -3.327 -12.373  1.00 26.68 LIG-0.17  SA
ATOM     40  CE  MET C   4      24.603  -4.853 -11.993  1.00 24.50 LIG 0.09  C 
ENDBRANCH 38 39
ENDBRANCH 37 38
ENDBRANCH 5 37
ENDBRANCH 3 5
BRANCH 1 41
ATOM     41  CA  GLU C   3      27.642   2.568 -13.879  1.00 26.55 LIG 0.18  C 
BRANCH 41 42
ATOM     42  N   GLU C   3      27.833   1.733 -15.061  1.00 27.07 LIG-0.35  N 
ATOM     43 H    GLU C   3      28.652   1.652 -15.312  1.00 27.07 LIG 0.16  HD
ATOM     44  C   ASP C   2      26.805   1.158 -15.679  1.00 28.06 LIG 0.24  C 
ATOM     45 O    ASP C   2      25.648   1.267 -15.279  1.00 27.76 LIG-0.27  OA
BRANCH 44 46
ATOM     46  CA  ASP C   2      27.139   0.295 -16.900  1.00 28.68 LIG 0.19  C 
BRANCH 46 47
ATOM     47  CB  ASP C   2      26.337  -1.021 -16.919  1.00 28.90 LIG 0.15  C 
BRANCH 47 48
ATOM     48  CG  ASP C   2      25.018  -0.922 -17.677  1.00 30.38 LIG 0.17  C 
ATOM     49 OD2  ASP C   2      24.943  -0.202 -18.695  1.00 31.55 LIG-0.65  OA
ATOM     50 OD1  ASP C   2      24.047  -1.601 -17.254  1.00 32.13 LIG-0.65  OA
ENDBRANCH 47 48
ENDBRANCH 46 47
BRANCH 46 51
ATOM     51  N   ASP C   2      28.575   0.017 -17.047  1.00 28.83 LIG-0.34  N 
ATOM     52  C   PHE C   1      29.383   0.911 -17.613  1.00 29.29 LIG 0.24  C 
ATOM     53 O    PHE C   1      29.026   2.058 -17.886  1.00 29.28 LIG-0.27  OA
ATOM     54 H    ASP C   2      28.829  -0.747 -16.743  1.00 28.83 LIG 0.16  HD
BRANCH 52 55
ATOM     55  CA  PHE C   1      30.794   0.452 -17.954  1.00 29.71 LIG 0.18  C 
BRANCH 55 56
ATOM     56  N   PHE C   1      31.445   1.528 -18.698  1.00 30.30 LIG-0.35  N 
ATOM     57 H    PHE C   1      31.854   2.097 -18.200  1.00 30.30 LIG 0.16  HD
ATOM     58  C   ACE C   0      31.403   1.613 -20.037  1.00 30.61 LIG 0.21  C 
ATOM     59  CH3 ACE C   0      32.337   2.629 -20.634  1.00 31.12 LIG 0.12  C 
ATOM     60 O    ACE C   0      30.478   1.132 -20.700  1.00 30.74 LIG-0.27  OA
ENDBRANCH 55 56
BRANCH 55 61
ATOM     61  CB  PHE C   1      31.594   0.135 -16.684  1.00 29.76 LIG 0.07  C 
BRANCH 61 62
ATOM     62  CG  PHE C   1      31.315   1.060 -15.512  1.00 30.32 LIG-0.06  A 
ATOM     63  CD1 PHE C   1      31.565   2.426 -15.621  1.00 31.60 LIG 0.01  A 
ATOM     64  CE1 PHE C   1      31.331   3.289 -14.545  1.00 31.29 LIG 0.00  A 
ATOM     65  CZ  PHE C   1      30.840   2.782 -13.350  1.00 31.54 LIG 0.00  A 
ATOM     66  CE2 PHE C   1      30.590   1.420 -13.227  1.00 29.54 LIG 0.00  A 
ATOM     67  CD2 PHE C   1      30.829   0.571 -14.300  1.00 30.51 LIG 0.01  A 
ENDBRANCH 61 62
ENDBRANCH 55 61
ENDBRANCH 52 55
ENDBRANCH 46 51
ENDBRANCH 44 46
ENDBRANCH 41 42
BRANCH 41 68
ATOM     68  CB  GLU C   3      26.923   3.904 -14.212  1.00 26.96 LIG 0.04  C 
BRANCH 68 69
ATOM     69  CG  GLU C   3      25.376   3.909 -14.293  1.00 28.76 LIG 0.12  C 
BRANCH 69 70
ATOM     70  CD  GLU C   3      24.820   4.721 -15.436  1.00 29.94 LIG 0.17  C 
ATOM     71 OE1  GLU C   3      24.467   4.120 -16.469  1.00 33.38 LIG-0.65  OA
ATOM     72 OE2  GLU C   3      24.707   5.963 -15.288  1.00 31.06 LIG-0.65  OA
ENDBRANCH 69 70
ENDBRANCH 68 69
ENDBRANCH 41 68
ENDBRANCH 1 41
TORSDOF 32
ENDMDL
MODEL 40
USER: ADFR SOLUTION from run 131
USER: SCORE 22.381896 LL:  -4.961 LR: -18.989 RR:   0.000 FEB:  -9.443
USER: RMSD 13.247190
USER: SEED 130
USER: STATUS searching
USER: GENES 34
USER: genes 0 Translation |==|  0.41495 0.53554 0.42675
USER: genes 1 Rotation |==|  0.94517 0.54818 0.44458 0.71548
USER: genes 2 Torsion [C]-N--CA-[CB] |==|  0.77222
USER: genes 3 Torsion [N]-CA--C-[N] |==|  0.20476
USER: genes 4 Torsion [C]-N--CA-[CB] |==|  0.49069
USER: genes 5 Torsion [N]-CA--CB-[CG] |==|  0.17463
USER: genes 6 Torsion [CA]-CB--CG-[CD] |==|  0.76017
USER: genes 7 Torsion [CB]-CG--CD-[OE2] |==|  0.77186
USER: genes 8 Torsion [N]-CA--C-[N] |==|  0.38482
USER: genes 9 Torsion [C]-N--CA-[C] |==|  0.62913
USER: genes 10 Torsion [N]-CA--C-[N] |==|  0.11804
USER: genes 11 Torsion [C]-N--CA-[CB] |==|  0.36542
USER: genes 12 Torsion [N]-CA--C-[OXT] |==|  0.59474
USER: genes 13 Torsion [N]-CA--CB-[SG] |==|  0.95541
USER: genes 14 Torsion [CA]-CB--SG-[HG] |==|  0.44356
USER: genes 15 Torsion [N]-CA--CB-[CG] |==|  0.78486
USER: genes 16 Torsion [CA]-CB--CG-[CD] |==|  0.55359
USER: genes 17 Torsion [CB]-CG--CD-[OE1] |==|  0.04967
USER: genes 18 Torsion [N]-CA--CB-[CG] |==|  0.58933
USER: genes 19 Torsion [CA]-CB--CG-[SD] |==|  0.82145
USER: genes 20 Torsion [CB]-CG--SD-[CE] |==|  0.24913
USER: genes 21 Torsion [N]-C--CA-[N] |==|  0.92633
USER: genes 22 Torsion [C]-CA--N-[C] |==|  0.75649
USER: genes 23 Torsion [N]-C--CA-[N] |==|  0.38358
USER: genes 24 Torsion [C]-CA--CB-[CG] |==|  0.49261
USER: genes 25 Torsion [CA]-CB--CG-[OD1] |==|  0.92510
USER: genes 26 Torsion [C]-CA--N-[C] |==|  0.84255
USER: genes 27 Torsion [N]-C--CA-[N] |==|  0.43808
USER: genes 28 Torsion [C]-CA--N-[C] |==|  0.79400
USER: genes 29 Torsion [C]-CA--CB-[CG] |==|  0.88832
USER: genes 30 Torsion [CA]-CB--CG-[CD1] |==|  0.22031
USER: genes 31 Torsion [C]-CA--CB-[CG] |==|  0.17926
USER: genes 32 Torsion [CA]-CB--CG-[CD] |==|  0.19129
USER: genes 33 Torsion [CB]-CG--CD-[OE1] |==|  0.85472
ROOT
ATOM      1  C   GLU C   3      26.621  -2.468 -10.402  1.00 25.67 LIG 0.24  C 
ATOM      2 O    GLU C   3      25.655  -2.688  -9.658  1.00 24.73 LIG-0.27  OA
ATOM      3  N   MET C   4      27.896  -2.651 -10.047  1.00 25.06 LIG-0.35  N 
ATOM      4 H    MET C   4      28.558  -2.476 -10.566  1.00 25.06 LIG 0.16  HD
ENDROOT
BRANCH 3 5
ATOM      5  CA  MET C   4      28.295  -3.167  -8.735  1.00 24.76 LIG 0.18  C 
BRANCH 5 6
ATOM      6  C   MET C   4      27.334  -4.262  -8.302  1.00 24.60 LIG 0.24  C 
ATOM      7 O    MET C   4      26.532  -4.082  -7.380  1.00 25.19 LIG-0.27  OA
ATOM      8  N   GLU C   5      27.467  -5.416  -8.937  1.00 23.81 LIG-0.35  N 
ATOM      9 H    GLU C   5      28.096  -5.581  -9.500  1.00 23.81 LIG 0.16  HD
BRANCH 8 10
ATOM     10  CA  GLU C   5      26.557  -6.510  -8.738  1.00 23.16 LIG 0.18  C 
BRANCH 10 11
ATOM     11  CB  GLU C   5      26.936  -7.655  -9.673  1.00 23.03 LIG 0.04  C 
BRANCH 11 12
ATOM     12  CG  GLU C   5      28.328  -8.213  -9.378  1.00 23.31 LIG 0.12  C 
BRANCH 12 13
ATOM     13  CD  GLU C   5      29.462  -7.468 -10.085  1.00 24.36 LIG 0.17  C 
ATOM     14 OE2  GLU C   5      29.712  -7.764 -11.284  1.00 22.25 LIG-0.65  OA
ATOM     15 OE1  GLU C   5      30.113  -6.604  -9.466  1.00 21.71 LIG-0.65  OA
ENDBRANCH 12 13
ENDBRANCH 11 12
ENDBRANCH 10 11
BRANCH 10 16
ATOM     16  C   GLU C   5      26.642  -6.963  -7.302  1.00 22.53 LIG 0.24  C 
ATOM     17  N   GLU C   6      25.492  -7.258  -6.701  1.00 22.45 LIG-0.35  N 
ATOM     18 H    GLU C   6      24.717  -7.106  -7.042  1.00 22.45 LIG 0.16  HD
ATOM     19 O    GLU C   5      27.730  -7.024  -6.744  1.00 22.53 LIG-0.27  OA
BRANCH 17 20
ATOM     20  CA  GLU C   6      25.460  -7.889  -5.367  1.00 22.27 LIG 0.18  C 
BRANCH 20 21
ATOM     21  C   GLU C   6      24.477  -9.048  -5.357  1.00 21.97 LIG 0.24  C 
ATOM     22 O    GLU C   6      23.724  -9.217  -4.398  1.00 22.60 LIG-0.27  OA
ATOM     23  N   CYS C   7      24.472  -9.864  -6.409  1.00 20.65 LIG-0.34  N 
ATOM     24 H    CYS C   7      25.014  -9.814  -7.074  1.00 20.65 LIG 0.16  HD
BRANCH 23 25
ATOM     25  CA  CYS C   7      23.486 -10.942  -6.480  1.00 20.43 LIG 0.19  C 
BRANCH 25 26
ATOM     26  C   CYS C   7      24.101 -12.275  -6.103  1.00 19.69 LIG 0.20  C 
ATOM     27 O    CYS C   7      24.991 -12.378  -5.263  1.00 19.84 LIG-0.65  OA
ATOM     28 OXT  CYS C   7      23.716 -13.303  -6.654  1.00 20.10 LIG-0.65  OA
ENDBRANCH 25 26
BRANCH 25 29
ATOM     29  CB  CYS C   7      22.792 -10.961  -7.858  1.00 20.27 LIG 0.11  C 
BRANCH 29 30
ATOM     30 SG   CYS C   7      23.031  -9.406  -8.810  1.00 22.98 LIG-0.18  SA
ATOM     31 HG   CYS C   7      22.830  -9.614  -9.974  1.00 22.98 LIG 0.10  HD
ENDBRANCH 29 30
ENDBRANCH 25 29
ENDBRANCH 23 25
ENDBRANCH 20 21
BRANCH 20 32
ATOM     32  CB  GLU C   6      25.066  -6.863  -4.306  1.00 22.58 LIG 0.04  C 
BRANCH 32 33
ATOM     33  CG  GLU C   6      26.206  -5.946  -3.938  1.00 24.64 LIG 0.12  C 
BRANCH 33 34
ATOM     34  CD  GLU C   6      26.009  -5.246  -2.599  1.00 27.63 LIG 0.17  C 
ATOM     35 OE1  GLU C   6      25.171  -5.696  -1.780  1.00 27.17 LIG-0.65  OA
ATOM     36 OE2  GLU C   6      26.717  -4.239  -2.374  1.00 31.71 LIG-0.65  OA
ENDBRANCH 33 34
ENDBRANCH 32 33
ENDBRANCH 20 32
ENDBRANCH 17 20
ENDBRANCH 10 16
ENDBRANCH 8 10
ENDBRANCH 5 6
BRANCH 5 37
ATOM     37  CB  MET C   4      28.300  -2.048  -7.688  1.00 24.86 LIG 0.04  C 
BRANCH 37 38
ATOM     38  CG  MET C   4      29.353  -2.187  -6.569  1.00 24.76 LIG 0.08  C 
BRANCH 38 39
ATOM     39 SD   MET C   4      29.149  -3.618  -5.480  1.00 26.68 LIG-0.17  SA
ATOM     40  CE  MET C   4      30.130  -4.830  -6.385  1.00 24.50 LIG 0.09  C 
ENDBRANCH 38 39
ENDBRANCH 37 38
ENDBRANCH 5 37
ENDBRANCH 3 5
BRANCH 1 41
ATOM     41  CA  GLU C   3      26.391  -1.996 -11.837  1.00 26.55 LIG 0.18  C 
BRANCH 41 42
ATOM     42  N   GLU C   3      27.564  -1.264 -12.306  1.00 27.07 LIG-0.35  N 
ATOM     43 H    GLU C   3      28.145  -1.747 -12.718  1.00 27.07 LIG 0.16  HD
ATOM     44  C   ASP C   2      27.695   0.044 -12.099  1.00 28.06 LIG 0.24  C 
ATOM     45 O    ASP C   2      26.833   0.713 -11.535  1.00 27.76 LIG-0.27  OA
BRANCH 44 46
ATOM     46  CA  ASP C   2      28.965   0.698 -12.653  1.00 28.68 LIG 0.19  C 
BRANCH 46 47
ATOM     47  CB  ASP C   2      30.069   0.821 -11.584  1.00 28.90 LIG 0.15  C 
BRANCH 47 48
ATOM     48  CG  ASP C   2      31.371   1.409 -12.114  1.00 30.38 LIG 0.17  C 
ATOM     49 OD2  ASP C   2      32.146   1.999 -11.333  1.00 31.55 LIG-0.65  OA
ATOM     50 OD1  ASP C   2      31.630   1.252 -13.335  1.00 32.13 LIG-0.65  OA
ENDBRANCH 47 48
ENDBRANCH 46 47
BRANCH 46 51
ATOM     51  N   ASP C   2      28.725   2.002 -13.287  1.00 28.83 LIG-0.34  N 
ATOM     52  C   PHE C   1      27.858   2.117 -14.291  1.00 29.29 LIG 0.24  C 
ATOM     53 O    PHE C   1      27.100   1.205 -14.629  1.00 29.28 LIG-0.27  OA
ATOM     54 H    ASP C   2      29.180   2.654 -12.959  1.00 28.83 LIG 0.16  HD
BRANCH 52 55
ATOM     55  CA  PHE C   1      27.851   3.434 -15.053  1.00 29.71 LIG 0.18  C 
BRANCH 55 56
ATOM     56  N   PHE C   1      27.271   3.183 -16.371  1.00 30.30 LIG-0.35  N 
ATOM     57 H    PHE C   1      26.471   3.484 -16.463  1.00 30.30 LIG 0.16  HD
ATOM     58  C   ACE C   0      27.934   2.540 -17.345  1.00 30.61 LIG 0.21  C 
ATOM     59  CH3 ACE C   0      27.283   2.603 -18.700  1.00 31.12 LIG 0.12  C 
ATOM     60 O    ACE C   0      28.825   1.718 -17.106  1.00 30.74 LIG-0.27  OA
ENDBRANCH 55 56
BRANCH 55 61
ATOM     61  CB  PHE C   1      27.028   4.497 -14.314  1.00 29.76 LIG 0.07  C 
BRANCH 61 62
ATOM     62  CG  PHE C   1      25.745   3.981 -13.686  1.00 30.32 LIG-0.06  A 
ATOM     63  CD1 PHE C   1      25.783   3.297 -12.473  1.00 31.60 LIG 0.01  A 
ATOM     64  CE1 PHE C   1      24.612   2.800 -11.891  1.00 31.29 LIG 0.00  A 
ATOM     65  CZ  PHE C   1      23.392   2.992 -12.524  1.00 31.54 LIG 0.00  A 
ATOM     66  CE2 PHE C   1      23.341   3.671 -13.736  1.00 29.54 LIG 0.00  A 
ATOM     67  CD2 PHE C   1      24.510   4.158 -14.308  1.00 30.51 LIG 0.01  A 
ENDBRANCH 61 62
ENDBRANCH 55 61
ENDBRANCH 52 55
ENDBRANCH 46 51
ENDBRANCH 44 46
ENDBRANCH 41 42
BRANCH 41 68
ATOM     68  CB  GLU C   3      26.005  -3.161 -12.789  1.00 26.96 LIG 0.04  C 
BRANCH 68 69
ATOM     69  CG  GLU C   3      24.669  -3.904 -12.540  1.00 28.76 LIG 0.12  C 
BRANCH 69 70
ATOM     70  CD  GLU C   3      23.440  -3.076 -12.824  1.00 29.94 LIG 0.17  C 
ATOM     71 OE1  GLU C   3      23.348  -1.955 -12.286  1.00 33.38 LIG-0.65  OA
ATOM     72 OE2  GLU C   3      22.578  -3.536 -13.613  1.00 31.06 LIG-0.65  OA
ENDBRANCH 69 70
ENDBRANCH 68 69
ENDBRANCH 41 68
ENDBRANCH 1 41
TORSDOF 32
ENDMDL
MODEL 41
USER: ADFR SOLUTION from run 119
USER: SCORE 21.616603 LL:  -5.713 LR: -18.982 RR:   0.000 FEB:  -9.437
USER: RMSD 13.720360
USER: SEED 118
USER: STATUS searching
USER: GENES 34
USER: genes 0 Translation |==|  0.37510 0.68182 0.34789
USER: genes 1 Rotation |==|  0.99583 0.43697 0.49023 0.50899
USER: genes 2 Torsion [C]-N--CA-[CB] |==|  0.16217
USER: genes 3 Torsion [N]-CA--C-[N] |==|  0.50719
USER: genes 4 Torsion [C]-N--CA-[CB] |==|  0.22095
USER: genes 5 Torsion [N]-CA--CB-[CG] |==|  0.25968
USER: genes 6 Torsion [CA]-CB--CG-[CD] |==|  0.77911
USER: genes 7 Torsion [CB]-CG--CD-[OE2] |==|  0.11915
USER: genes 8 Torsion [N]-CA--C-[N] |==|  0.95641
USER: genes 9 Torsion [C]-N--CA-[C] |==|  0.62538
USER: genes 10 Torsion [N]-CA--C-[N] |==|  0.90634
USER: genes 11 Torsion [C]-N--CA-[CB] |==|  0.28179
USER: genes 12 Torsion [N]-CA--C-[OXT] |==|  0.34692
USER: genes 13 Torsion [N]-CA--CB-[SG] |==|  0.78226
USER: genes 14 Torsion [CA]-CB--SG-[HG] |==|  0.31491
USER: genes 15 Torsion [N]-CA--CB-[CG] |==|  0.18029
USER: genes 16 Torsion [CA]-CB--CG-[CD] |==|  0.33598
USER: genes 17 Torsion [CB]-CG--CD-[OE1] |==|  0.67927
USER: genes 18 Torsion [N]-CA--CB-[CG] |==|  0.21514
USER: genes 19 Torsion [CA]-CB--CG-[SD] |==|  0.80378
USER: genes 20 Torsion [CB]-CG--SD-[CE] |==|  0.36479
USER: genes 21 Torsion [N]-C--CA-[N] |==|  0.12238
USER: genes 22 Torsion [C]-CA--N-[C] |==|  0.78448
USER: genes 23 Torsion [N]-C--CA-[N] |==|  0.05427
USER: genes 24 Torsion [C]-CA--CB-[CG] |==|  0.19714
USER: genes 25 Torsion [CA]-CB--CG-[OD1] |==|  0.65928
USER: genes 26 Torsion [C]-CA--N-[C] |==|  0.62173
USER: genes 27 Torsion [N]-C--CA-[N] |==|  0.40117
USER: genes 28 Torsion [C]-CA--N-[C] |==|  0.79479
USER: genes 29 Torsion [C]-CA--CB-[CG] |==|  0.38846
USER: genes 30 Torsion [CA]-CB--CG-[CD1] |==|  0.06909
USER: genes 31 Torsion [C]-CA--CB-[CG] |==|  0.54177
USER: genes 32 Torsion [CA]-CB--CG-[CD] |==|  0.35726
USER: genes 33 Torsion [CB]-CG--CD-[OE1] |==|  0.39433
ROOT
ATOM      1  C   GLU C   3      25.874   1.592 -12.413  1.00 25.67 LIG 0.24  C 
ATOM      2 O    GLU C   3      24.661   1.468 -12.191  1.00 24.73 LIG-0.27  OA
ATOM      3  N   MET C   4      26.775   0.627 -12.206  1.00 25.06 LIG-0.35  N 
ATOM      4 H    MET C   4      27.617   0.732 -12.346  1.00 25.06 LIG 0.16  HD
ENDROOT
BRANCH 3 5
ATOM      5  CA  MET C   4      26.420  -0.708 -11.719  1.00 24.76 LIG 0.18  C 
BRANCH 5 6
ATOM      6  C   MET C   4      27.672  -1.563 -11.609  1.00 24.60 LIG 0.24  C 
ATOM      7 O    MET C   4      28.782  -1.115 -11.915  1.00 25.19 LIG-0.27  OA
ATOM      8  N   GLU C   5      27.471  -2.815 -11.228  1.00 23.81 LIG-0.35  N 
ATOM      9 H    GLU C   5      26.692  -3.161 -11.123  1.00 23.81 LIG 0.16  HD
BRANCH 8 10
ATOM     10  CA  GLU C   5      28.556  -3.715 -10.953  1.00 23.16 LIG 0.18  C 
BRANCH 10 11
ATOM     11  CB  GLU C   5      29.106  -3.428  -9.558  1.00 23.03 LIG 0.04  C 
BRANCH 11 12
ATOM     12  CG  GLU C   5      28.464  -4.308  -8.485  1.00 23.31 LIG 0.12  C 
BRANCH 12 13
ATOM     13  CD  GLU C   5      27.082  -3.834  -8.034  1.00 24.36 LIG 0.17  C 
ATOM     14 OE2  GLU C   5      26.268  -3.447  -8.916  1.00 22.25 LIG-0.65  OA
ATOM     15 OE1  GLU C   5      26.796  -3.830  -6.821  1.00 21.71 LIG-0.65  OA
ENDBRANCH 12 13
ENDBRANCH 11 12
ENDBRANCH 10 11
BRANCH 10 16
ATOM     16  C   GLU C   5      28.047  -5.133 -11.027  1.00 22.53 LIG 0.24  C 
ATOM     17  N   GLU C   6      26.726  -5.294 -10.995  1.00 22.45 LIG-0.35  N 
ATOM     18 H    GLU C   6      26.168  -4.661 -10.829  1.00 22.45 LIG 0.16  HD
ATOM     19 O    GLU C   5      28.838  -6.064 -11.093  1.00 22.53 LIG-0.27  OA
BRANCH 17 20
ATOM     20  CA  GLU C   6      26.104  -6.608 -11.249  1.00 22.27 LIG 0.18  C 
BRANCH 20 21
ATOM     21  C   GLU C   6      24.921  -6.456 -12.191  1.00 21.97 LIG 0.24  C 
ATOM     22 O    GLU C   6      24.656  -7.340 -13.006  1.00 22.60 LIG-0.27  OA
ATOM     23  N   CYS C   7      24.203  -5.339 -12.106  1.00 20.65 LIG-0.34  N 
ATOM     24 H    CYS C   7      24.382  -4.674 -11.590  1.00 20.65 LIG 0.16  HD
BRANCH 23 25
ATOM     25  CA  CYS C   7      23.007  -5.186 -12.935  1.00 20.43 LIG 0.19  C 
BRANCH 25 26
ATOM     26  C   CYS C   7      22.994  -3.843 -13.640  1.00 19.69 LIG 0.20  C 
ATOM     27 O    CYS C   7      23.082  -2.779 -13.034  1.00 19.84 LIG-0.65  OA
ATOM     28 OXT  CYS C   7      22.882  -3.797 -14.862  1.00 20.10 LIG-0.65  OA
ENDBRANCH 25 26
BRANCH 25 29
ATOM     29  CB  CYS C   7      21.730  -5.452 -12.111  1.00 20.27 LIG 0.11  C 
BRANCH 29 30
ATOM     30 SG   CYS C   7      21.396  -7.242 -11.851  1.00 22.98 LIG-0.18  SA
ATOM     31 HG   CYS C   7      21.513  -7.507 -10.687  1.00 22.98 LIG 0.10  HD
ENDBRANCH 29 30
ENDBRANCH 25 29
ENDBRANCH 23 25
ENDBRANCH 20 21
BRANCH 20 32
ATOM     32  CB  GLU C   6      25.645  -7.240  -9.936  1.00 22.58 LIG 0.04  C 
BRANCH 32 33
ATOM     33  CG  GLU C   6      24.546  -6.451  -9.269  1.00 24.64 LIG 0.12  C 
BRANCH 33 34
ATOM     34  CD  GLU C   6      23.269  -7.253  -9.060  1.00 27.63 LIG 0.17  C 
ATOM     35 OE1  GLU C   6      22.218  -6.917  -9.659  1.00 27.17 LIG-0.65  OA
ATOM     36 OE2  GLU C   6      23.334  -8.238  -8.290  1.00 31.71 LIG-0.65  OA
ENDBRANCH 33 34
ENDBRANCH 32 33
ENDBRANCH 20 32
ENDBRANCH 17 20
ENDBRANCH 10 16
ENDBRANCH 8 10
ENDBRANCH 5 6
BRANCH 5 37
ATOM     37  CB  MET C   4      25.421  -1.384 -12.664  1.00 24.86 LIG 0.04  C 
BRANCH 37 38
ATOM     38  CG  MET C   4      26.019  -1.967 -13.962  1.00 24.76 LIG 0.08  C 
BRANCH 38 39
ATOM     39 SD   MET C   4      26.576  -0.748 -15.178  1.00 26.68 LIG-0.17  SA
ATOM     40  CE  MET C   4      28.213  -1.409 -15.542  1.00 24.50 LIG 0.09  C 
ENDBRANCH 38 39
ENDBRANCH 37 38
ENDBRANCH 5 37
ENDBRANCH 3 5
BRANCH 1 41
ATOM     41  CA  GLU C   3      26.417   2.895 -12.998  1.00 26.55 LIG 0.18  C 
BRANCH 41 42
ATOM     42  N   GLU C   3      27.348   2.595 -14.083  1.00 27.07 LIG-0.35  N 
ATOM     43 H    GLU C   3      27.022   2.703 -14.872  1.00 27.07 LIG 0.16  HD
ATOM     44  C   ASP C   2      28.591   2.191 -13.839  1.00 28.06 LIG 0.24  C 
ATOM     45 O    ASP C   2      29.037   2.076 -12.699  1.00 27.76 LIG-0.27  OA
BRANCH 44 46
ATOM     46  CA  ASP C   2      29.473   1.922 -15.061  1.00 28.68 LIG 0.19  C 
BRANCH 46 47
ATOM     47  CB  ASP C   2      30.947   2.298 -14.809  1.00 28.90 LIG 0.15  C 
BRANCH 47 48
ATOM     48  CG  ASP C   2      31.662   1.357 -13.847  1.00 30.38 LIG 0.17  C 
ATOM     49 OD2  ASP C   2      31.737   0.139 -14.114  1.00 31.55 LIG-0.65  OA
ATOM     50 OD1  ASP C   2      32.180   1.857 -12.816  1.00 32.13 LIG-0.65  OA
ENDBRANCH 47 48
ENDBRANCH 46 47
BRANCH 46 51
ATOM     51  N   ASP C   2      28.987   2.567 -16.289  1.00 28.83 LIG-0.34  N 
ATOM     52  C   PHE C   1      28.972   1.903 -17.442  1.00 29.29 LIG 0.24  C 
ATOM     53 O    PHE C   1      29.194   0.693 -17.522  1.00 29.28 LIG-0.27  OA
ATOM     54 H    ASP C   2      28.725   3.381 -16.192  1.00 28.83 LIG 0.16  HD
BRANCH 52 55
ATOM     55  CA  PHE C   1      28.695   2.709 -18.703  1.00 29.71 LIG 0.18  C 
BRANCH 55 56
ATOM     56  N   PHE C   1      29.498   2.138 -19.783  1.00 30.30 LIG-0.35  N 
ATOM     57 H    PHE C   1      29.042   1.683 -20.352  1.00 30.30 LIG 0.16  HD
ATOM     58  C   ACE C   0      30.826   2.312 -19.869  1.00 30.61 LIG 0.21  C 
ATOM     59  CH3 ACE C   0      31.436   1.874 -21.173  1.00 31.12 LIG 0.12  C 
ATOM     60 O    ACE C   0      31.531   2.522 -18.877  1.00 30.74 LIG-0.27  OA
ENDBRANCH 55 56
BRANCH 55 61
ATOM     61  CB  PHE C   1      27.208   2.660 -19.076  1.00 29.76 LIG 0.07  C 
BRANCH 61 62
ATOM     62  CG  PHE C   1      26.634   3.976 -19.572  1.00 30.32 LIG-0.06  A 
ATOM     63  CD1 PHE C   1      27.469   4.932 -20.148  1.00 31.60 LIG 0.01  A 
ATOM     64  CE1 PHE C   1      26.960   6.156 -20.593  1.00 31.29 LIG 0.00  A 
ATOM     65  CZ  PHE C   1      25.605   6.426 -20.465  1.00 31.54 LIG 0.00  A 
ATOM     66  CE2 PHE C   1      24.762   5.482 -19.889  1.00 29.54 LIG 0.00  A 
ATOM     67  CD2 PHE C   1      25.278   4.271 -19.447  1.00 30.51 LIG 0.01  A 
ENDBRANCH 61 62
ENDBRANCH 55 61
ENDBRANCH 52 55
ENDBRANCH 46 51
ENDBRANCH 44 46
ENDBRANCH 41 42
BRANCH 41 68
ATOM     68  CB  GLU C   3      25.284   3.860 -13.445  1.00 26.96 LIG 0.04  C 
BRANCH 68 69
ATOM     69  CG  GLU C   3      25.650   5.048 -14.368  1.00 28.76 LIG 0.12  C 
BRANCH 69 70
ATOM     70  CD  GLU C   3      24.792   5.159 -15.603  1.00 29.94 LIG 0.17  C 
ATOM     71 OE1  GLU C   3      24.468   6.296 -15.996  1.00 33.38 LIG-0.65  OA
ATOM     72 OE2  GLU C   3      24.467   4.103 -16.201  1.00 31.06 LIG-0.65  OA
ENDBRANCH 69 70
ENDBRANCH 68 69
ENDBRANCH 41 68
ENDBRANCH 1 41
TORSDOF 32
ENDMDL
MODEL 42
USER: ADFR SOLUTION from run 119
USER: SCORE 21.897671 LL:  -6.083 LR: -18.976 RR:   0.000 FEB:  -9.430
USER: RMSD 14.022312
USER: SEED 118
USER: STATUS searching
USER: GENES 34
USER: genes 0 Translation |==|  0.36541 0.68861 0.35103
USER: genes 1 Rotation |==|  0.99561 0.43792 0.47730 0.50183
USER: genes 2 Torsion [C]-N--CA-[CB] |==|  0.17589
USER: genes 3 Torsion [N]-CA--C-[N] |==|  0.50160
USER: genes 4 Torsion [C]-N--CA-[CB] |==|  0.22134
USER: genes 5 Torsion [N]-CA--CB-[CG] |==|  0.27322
USER: genes 6 Torsion [CA]-CB--CG-[CD] |==|  0.78101
USER: genes 7 Torsion [CB]-CG--CD-[OE2] |==|  0.11435
USER: genes 8 Torsion [N]-CA--C-[N] |==|  0.96144
USER: genes 9 Torsion [C]-N--CA-[C] |==|  0.61930
USER: genes 10 Torsion [N]-CA--C-[N] |==|  0.90095
USER: genes 11 Torsion [C]-N--CA-[CB] |==|  0.28462
USER: genes 12 Torsion [N]-CA--C-[OXT] |==|  0.35197
USER: genes 13 Torsion [N]-CA--CB-[SG] |==|  0.78457
USER: genes 14 Torsion [CA]-CB--SG-[HG] |==|  0.30924
USER: genes 15 Torsion [N]-CA--CB-[CG] |==|  0.18179
USER: genes 16 Torsion [CA]-CB--CG-[CD] |==|  0.33725
USER: genes 17 Torsion [CB]-CG--CD-[OE1] |==|  0.66908
USER: genes 18 Torsion [N]-CA--CB-[CG] |==|  0.22641
USER: genes 19 Torsion [CA]-CB--CG-[SD] |==|  0.78963
USER: genes 20 Torsion [CB]-CG--SD-[CE] |==|  0.32229
USER: genes 21 Torsion [N]-C--CA-[N] |==|  0.18936
USER: genes 22 Torsion [C]-CA--N-[C] |==|  0.75235
USER: genes 23 Torsion [N]-C--CA-[N] |==|  0.12044
USER: genes 24 Torsion [C]-CA--CB-[CG] |==|  0.46410
USER: genes 25 Torsion [CA]-CB--CG-[OD1] |==|  0.66901
USER: genes 26 Torsion [C]-CA--N-[C] |==|  0.74872
USER: genes 27 Torsion [N]-C--CA-[N] |==|  0.00400
USER: genes 28 Torsion [C]-CA--N-[C] |==|  0.63327
USER: genes 29 Torsion [C]-CA--CB-[CG] |==|  0.28549
USER: genes 30 Torsion [CA]-CB--CG-[CD1] |==|  0.25553
USER: genes 31 Torsion [C]-CA--CB-[CG] |==|  0.56523
USER: genes 32 Torsion [CA]-CB--CG-[CD] |==|  0.22955
USER: genes 33 Torsion [CB]-CG--CD-[OE1] |==|  0.49379
ROOT
ATOM      1  C   GLU C   3      25.693   1.780 -12.333  1.00 25.67 LIG 0.24  C 
ATOM      2 O    GLU C   3      24.492   1.645 -12.058  1.00 24.73 LIG-0.27  OA
ATOM      3  N   MET C   4      26.603   0.812 -12.203  1.00 25.06 LIG-0.35  N 
ATOM      4 H    MET C   4      27.437   0.924 -12.379  1.00 25.06 LIG 0.16  HD
ENDROOT
BRANCH 3 5
ATOM      5  CA  MET C   4      26.274  -0.541 -11.747  1.00 24.76 LIG 0.18  C 
BRANCH 5 6
ATOM      6  C   MET C   4      27.547  -1.359 -11.610  1.00 24.60 LIG 0.24  C 
ATOM      7 O    MET C   4      28.648  -0.886 -11.909  1.00 25.19 LIG-0.27  OA
ATOM      8  N   GLU C   5      27.376  -2.611 -11.213  1.00 23.81 LIG-0.35  N 
ATOM      9 H    GLU C   5      26.605  -2.977 -11.112  1.00 23.81 LIG 0.16  HD
BRANCH 8 10
ATOM     10  CA  GLU C   5      28.481  -3.478 -10.912  1.00 23.16 LIG 0.18  C 
BRANCH 10 11
ATOM     11  CB  GLU C   5      29.003  -3.158  -9.513  1.00 23.03 LIG 0.04  C 
BRANCH 11 12
ATOM     12  CG  GLU C   5      28.463  -4.118  -8.455  1.00 23.31 LIG 0.12  C 
BRANCH 12 13
ATOM     13  CD  GLU C   5      27.034  -3.811  -8.004  1.00 24.36 LIG 0.17  C 
ATOM     14 OE2  GLU C   5      26.192  -3.475  -8.880  1.00 22.25 LIG-0.65  OA
ATOM     15 OE1  GLU C   5      26.738  -3.886  -6.796  1.00 21.71 LIG-0.65  OA
ENDBRANCH 12 13
ENDBRANCH 11 12
ENDBRANCH 10 11
BRANCH 10 16
ATOM     16  C   GLU C   5      28.012  -4.910 -10.975  1.00 22.53 LIG 0.24  C 
ATOM     17  N   GLU C   6      26.696  -5.105 -10.996  1.00 22.45 LIG-0.35  N 
ATOM     18 H    GLU C   6      26.115  -4.483 -10.869  1.00 22.45 LIG 0.16  HD
ATOM     19 O    GLU C   5      28.829  -5.821 -10.985  1.00 22.53 LIG-0.27  OA
BRANCH 17 20
ATOM     20  CA  GLU C   6      26.119  -6.441 -11.246  1.00 22.27 LIG 0.18  C 
BRANCH 20 21
ATOM     21  C   GLU C   6      24.941  -6.334 -12.200  1.00 21.97 LIG 0.24  C 
ATOM     22 O    GLU C   6      24.733  -7.215 -13.034  1.00 22.60 LIG-0.27  OA
ATOM     23  N   CYS C   7      24.162  -5.259 -12.103  1.00 20.65 LIG-0.34  N 
ATOM     24 H    CYS C   7      24.300  -4.596 -11.572  1.00 20.65 LIG 0.16  HD
BRANCH 23 25
ATOM     25  CA  CYS C   7      22.970  -5.154 -12.943  1.00 20.43 LIG 0.19  C 
BRANCH 25 26
ATOM     26  C   CYS C   7      22.906  -3.810 -13.642  1.00 19.69 LIG 0.20  C 
ATOM     27 O    CYS C   7      22.974  -2.746 -13.034  1.00 19.84 LIG-0.65  OA
ATOM     28 OXT  CYS C   7      22.770  -3.763 -14.862  1.00 20.10 LIG-0.65  OA
ENDBRANCH 25 26
BRANCH 25 29
ATOM     29  CB  CYS C   7      21.697  -5.480 -12.134  1.00 20.27 LIG 0.11  C 
BRANCH 29 30
ATOM     30 SG   CYS C   7      21.452  -7.283 -11.865  1.00 22.98 LIG-0.18  SA
ATOM     31 HG   CYS C   7      21.606  -7.539 -10.703  1.00 22.98 LIG 0.10  HD
ENDBRANCH 29 30
ENDBRANCH 25 29
ENDBRANCH 23 25
ENDBRANCH 20 21
BRANCH 20 32
ATOM     32  CB  GLU C   6      25.669  -7.078  -9.932  1.00 22.58 LIG 0.04  C 
BRANCH 32 33
ATOM     33  CG  GLU C   6      24.530  -6.328  -9.287  1.00 24.64 LIG 0.12  C 
BRANCH 33 34
ATOM     34  CD  GLU C   6      23.288  -7.183  -9.076  1.00 27.63 LIG 0.17  C 
ATOM     35 OE1  GLU C   6      22.210  -6.862  -9.636  1.00 27.17 LIG-0.65  OA
ATOM     36 OE2  GLU C   6      23.408  -8.192  -8.346  1.00 31.71 LIG-0.65  OA
ENDBRANCH 33 34
ENDBRANCH 32 33
ENDBRANCH 20 32
ENDBRANCH 17 20
ENDBRANCH 10 16
ENDBRANCH 8 10
ENDBRANCH 5 6
BRANCH 5 37
ATOM     37  CB  MET C   4      25.326  -1.232 -12.732  1.00 24.86 LIG 0.04  C 
BRANCH 37 38
ATOM     38  CG  MET C   4      25.995  -1.862 -13.972  1.00 24.76 LIG 0.08  C 
BRANCH 38 39
ATOM     39 SD   MET C   4      26.517  -0.695 -15.253  1.00 26.68 LIG-0.17  SA
ATOM     40  CE  MET C   4      28.299  -0.959 -15.195  1.00 24.50 LIG 0.09  C 
ENDBRANCH 38 39
ENDBRANCH 37 38
ENDBRANCH 5 37
ENDBRANCH 3 5
BRANCH 1 41
ATOM     41  CA  GLU C   3      26.205   3.105 -12.897  1.00 26.55 LIG 0.18  C 
BRANCH 41 42
ATOM     42  N   GLU C   3      26.579   2.928 -14.298  1.00 27.07 LIG-0.35  N 
ATOM     43 H    GLU C   3      25.946   3.085 -14.859  1.00 27.07 LIG 0.16  HD
ATOM     44  C   ASP C   2      27.807   2.556 -14.647  1.00 28.06 LIG 0.24  C 
ATOM     45 O    ASP C   2      28.700   2.369 -13.823  1.00 27.76 LIG-0.27  OA
BRANCH 44 46
ATOM     46  CA  ASP C   2      28.078   2.419 -16.148  1.00 28.68 LIG 0.19  C 
BRANCH 46 47
ATOM     47  CB  ASP C   2      29.579   2.249 -16.455  1.00 28.90 LIG 0.15  C 
BRANCH 47 48
ATOM     48  CG  ASP C   2      29.864   1.802 -17.884  1.00 30.38 LIG 0.17  C 
ATOM     49 OD2  ASP C   2      29.529   2.533 -18.839  1.00 31.55 LIG-0.65  OA
ATOM     50 OD1  ASP C   2      30.458   0.705 -18.047  1.00 32.13 LIG-0.65  OA
ENDBRANCH 47 48
ENDBRANCH 46 47
BRANCH 46 51
ATOM     51  N   ASP C   2      27.517   3.517 -16.948  1.00 28.83 LIG-0.34  N 
ATOM     52  C   PHE C   1      26.286   3.431 -17.446  1.00 29.29 LIG 0.24  C 
ATOM     53 O    PHE C   1      25.500   2.533 -17.139  1.00 29.28 LIG-0.27  OA
ATOM     54 H    ASP C   2      28.041   4.191 -17.056  1.00 28.83 LIG 0.16  HD
BRANCH 52 55
ATOM     55  CA  PHE C   1      25.874   4.487 -18.462  1.00 29.71 LIG 0.18  C 
BRANCH 55 56
ATOM     56  N   PHE C   1      27.019   5.371 -18.676  1.00 30.30 LIG-0.35  N 
ATOM     57 H    PHE C   1      27.758   4.955 -18.815  1.00 30.30 LIG 0.16  HD
ATOM     58  C   ACE C   0      26.916   6.709 -18.653  1.00 30.61 LIG 0.21  C 
ATOM     59  CH3 ACE C   0      28.134   7.443 -19.145  1.00 31.12 LIG 0.12  C 
ATOM     60 O    ACE C   0      26.037   7.293 -18.011  1.00 30.74 LIG-0.27  OA
ENDBRANCH 55 56
BRANCH 55 61
ATOM     61  CB  PHE C   1      25.456   3.843 -19.790  1.00 29.76 LIG 0.07  C 
BRANCH 61 62
ATOM     62  CG  PHE C   1      23.956   3.778 -20.019  1.00 30.32 LIG-0.06  A 
ATOM     63  CD1 PHE C   1      23.304   4.807 -20.695  1.00 31.60 LIG 0.01  A 
ATOM     64  CE1 PHE C   1      21.920   4.771 -20.898  1.00 31.29 LIG 0.00  A 
ATOM     65  CZ  PHE C   1      21.183   3.695 -20.425  1.00 31.54 LIG 0.00  A 
ATOM     66  CE2 PHE C   1      21.821   2.663 -19.746  1.00 29.54 LIG 0.00  A 
ATOM     67  CD2 PHE C   1      23.195   2.710 -19.546  1.00 30.51 LIG 0.01  A 
ENDBRANCH 61 62
ENDBRANCH 55 61
ENDBRANCH 52 55
ENDBRANCH 46 51
ENDBRANCH 44 46
ENDBRANCH 41 42
BRANCH 41 68
ATOM     68  CB  GLU C   3      25.190   4.264 -12.701  1.00 26.96 LIG 0.04  C 
BRANCH 68 69
ATOM     69  CG  GLU C   3      25.271   5.484 -13.652  1.00 28.76 LIG 0.12  C 
BRANCH 69 70
ATOM     70  CD  GLU C   3      24.575   5.284 -14.975  1.00 29.94 LIG 0.17  C 
ATOM     71 OE1  GLU C   3      24.557   6.234 -15.781  1.00 33.38 LIG-0.65  OA
ATOM     72 OE2  GLU C   3      24.070   4.161 -15.221  1.00 31.06 LIG-0.65  OA
ENDBRANCH 69 70
ENDBRANCH 68 69
ENDBRANCH 41 68
ENDBRANCH 1 41
TORSDOF 32
ENDMDL
