MODEL 1
USER: ADFR SOLUTION from run 109
USER: SCORE 17.045021 LL:  -5.439 LR: -13.834 RR:   0.000 FEB:  -6.078
USER: RMSD 4.038730
USER: SEED 108
USER: STATUS no improvement in best in 1 clusters for 5 generations
USER: GENES 28
USER: genes 0 Translation |==|  0.42002 0.42766 0.45823
USER: genes 1 Rotation |==|  0.51041 0.56124 0.46052 0.99455
USER: genes 2 Torsion [C]-CA--N-[C] |==|  0.81448
USER: genes 3 Torsion [N]-C--CA-[N] |==|  0.48644
USER: genes 4 Torsion [C]-CA--CB-[SG] |==|  0.49008
USER: genes 5 Torsion [CA]-CB--SG-[HG] |==|  0.18664
USER: genes 6 Torsion [C]-CA--N-[C] |==|  0.21345
USER: genes 7 Torsion [N]-C--CA-[N] |==|  0.46996
USER: genes 8 Torsion [C]-CA--CB-[CG] |==|  0.57865
USER: genes 9 Torsion [CA]-CB--CG-[CD] |==|  0.82676
USER: genes 10 Torsion [CB]-CG--CD-[OE1] |==|  0.81590
USER: genes 11 Torsion [C]-CA--N-[C] |==|  0.65541
USER: genes 12 Torsion [N]-C--CA-[N] |==|  0.26620
USER: genes 13 Torsion [C]-CA--CB-[OG] |==|  0.63431
USER: genes 14 Torsion [CA]-CB--OG-[HG] |==|  0.66933
USER: genes 15 Torsion [C]-CA--N-[H1] |==|  0.97793
USER: genes 16 Torsion [N]-CA--CB-[OG1] |==|  0.52641
USER: genes 17 Torsion [CA]-CB--OG1-[HG1] |==|  0.32631
USER: genes 18 Torsion [N]-CA--C-[N] |==|  0.41814
USER: genes 19 Torsion [C]-N--CA-[CB] |==|  0.23261
USER: genes 20 Torsion [N]-CA--C-[N] |==|  0.29621
USER: genes 21 Torsion [N]-CA--C-[N] |==|  0.39176
USER: genes 22 Torsion [C]-N--CA-[CB] |==|  0.27843
USER: genes 23 Torsion [N]-CA--CB-[SG] |==|  0.03302
USER: genes 24 Torsion [CA]-CB--SG-[HG] |==|  0.78448
USER: genes 25 Torsion [N]-CA--C-[OXT] |==|  0.31078
USER: genes 26 Torsion [N]-CA--CB-[OG1] |==|  0.94764
USER: genes 27 Torsion [CA]-CB--OG1-[HG1] |==|  0.18695
ROOT
ATOM      1  CA  THR F   4      38.139 -28.282  33.154  1.00 50.77 LIG 0.20  C 
ENDROOT
BRANCH 1 2
ATOM      2  N   THR F   4      39.501 -28.438  32.636  1.00 51.40 LIG-0.34  N 
ATOM      3 H    THR F   4      39.653 -29.205  32.277  1.00 51.40 LIG 0.16  HD
ATOM      4  C   CYS F   3      40.413 -27.467  32.721  1.00 52.18 LIG 0.24  C 
ATOM      5 O    CYS F   3      40.155 -26.331  33.130  1.00 51.89 LIG-0.27  OA
BRANCH 4 6
ATOM      6  CA  CYS F   3      41.826 -27.803  32.231  1.00 52.92 LIG 0.18  C 
BRANCH 6 7
ATOM      7  CB  CYS F   3      42.443 -28.942  33.055  1.00 52.86 LIG 0.10  C 
BRANCH 7 8
ATOM      8 SG   CYS F   3      44.091 -29.482  32.476  1.00 55.16 LIG-0.18  SA
ATOM      9 HG   CYS F   3      44.887 -28.603  32.657  1.00 55.16 LIG 0.10  HD
ENDBRANCH 7 8
ENDBRANCH 6 7
BRANCH 6 10
ATOM     10  N   CYS F   3      42.659 -26.598  32.289  1.00 53.02 LIG-0.34  N 
ATOM     11 H    CYS F   3      42.791 -26.227  31.525  1.00 53.02 LIG 0.16  HD
ATOM     12  C   GLU F   2      43.162 -26.131  33.430  1.00 53.57 LIG 0.24  C 
ATOM     13 O    GLU F   2      42.842 -26.568  34.540  1.00 53.07 LIG-0.27  OA
BRANCH 12 14
ATOM     14  CA  GLU F   2      44.216 -25.028  33.304  1.00 54.00 LIG 0.18  C 
BRANCH 14 15
ATOM     15  CB  GLU F   2      45.452 -25.674  32.661  1.00 54.10 LIG 0.04  C 
BRANCH 15 16
ATOM     16  CG  GLU F   2      46.806 -25.066  33.002  1.00 55.55 LIG 0.12  C 
BRANCH 16 17
ATOM     17  CD  GLU F   2      46.930 -23.611  32.539  1.00 57.36 LIG 0.17  C 
ATOM     18 OE1  GLU F   2      46.934 -23.338  31.315  1.00 58.39 LIG-0.65  OA
ATOM     19 OE2  GLU F   2      47.010 -22.715  33.406  1.00 58.95 LIG-0.65  OA
ENDBRANCH 16 17
ENDBRANCH 15 16
ENDBRANCH 14 15
BRANCH 14 20
ATOM     20  N   GLU F   2      44.547 -24.380  34.582  1.00 53.99 LIG-0.35  N 
ATOM     21 H    GLU F   2      44.808 -24.936  35.185  1.00 53.99 LIG 0.16  HD
ATOM     22  C   SER F   1      44.460 -23.066  34.807  1.00 54.35 LIG 0.25  C 
ATOM     23 O    SER F   1      43.988 -22.257  33.997  1.00 54.45 LIG-0.27  OA
BRANCH 22 24
ATOM     24  CA  SER F   1      44.963 -22.585  36.174  1.00 54.58 LIG 0.30  C 
BRANCH 24 25
ATOM     25  CB  SER F   1      44.044 -21.490  36.727  1.00 54.63 LIG 0.21  C 
BRANCH 25 26
ATOM     26 OG   SER F   1      44.798 -20.375  37.184  1.00 54.91 LIG-0.40  OA
ATOM     27 HG   SER F   1      44.661 -20.262  38.006  1.00 54.91 LIG 0.21  HD
ENDBRANCH 25 26
ENDBRANCH 24 25
BRANCH 24 28
ATOM     28  N   SER F   1      46.377 -22.103  36.112  1.00 54.74 LIG-0.06  N 
ATOM     29 H1   SER F   1      46.719 -22.287  35.311  1.00 54.74 LIG 0.28  HD
ATOM     30 H2   SER F   1      46.398 -21.224  36.248  1.00 54.74 LIG 0.28  HD
ATOM     31 H3   SER F   1      46.858 -22.511  36.740  1.00 54.74 LIG 0.28  HD
ENDBRANCH 24 28
ENDBRANCH 22 24
ENDBRANCH 14 20
ENDBRANCH 12 14
ENDBRANCH 6 10
ENDBRANCH 4 6
ENDBRANCH 1 2
BRANCH 1 32
ATOM     32  CB  THR F   4      37.217 -29.468  32.823  1.00 51.21 LIG 0.15  C 
ATOM     33  CG2 THR F   4      37.678 -30.715  33.579  1.00 50.61 LIG 0.04  C 
BRANCH 32 34
ATOM     34 OG1  THR F   4      35.864 -29.147  33.164  1.00 51.15 LIG-0.39  OA
ATOM     35 HG1  THR F   4      35.390 -29.155  32.470  1.00 51.15 LIG 0.21  HD
ENDBRANCH 32 34
ENDBRANCH 1 32
BRANCH 1 36
ATOM     36  C   THR F   4      38.245 -28.178  34.666  1.00 49.53 LIG 0.24  C 
ATOM     37  N   THR F   5      37.308 -27.463  35.276  1.00 47.76 LIG-0.34  N 
ATOM     38 H    THR F   5      36.602 -27.178  34.875  1.00 47.76 LIG 0.16  HD
ATOM     39 O    THR F   4      39.178 -28.720  35.249  1.00 50.01 LIG-0.27  OA
BRANCH 37 40
ATOM     40  CA  THR F   5      37.369 -27.083  36.684  1.00 46.83 LIG 0.20  C 
BRANCH 40 41
ATOM     41  C   THR F   5      35.952 -26.798  37.180  1.00 45.74 LIG 0.24  C 
ATOM     42  N   PRO F   6      35.391 -27.708  37.990  1.00 45.40 LIG-0.34  N 
ATOM     43  CA  PRO F   6      34.120 -27.399  38.658  1.00 45.02 LIG 0.18  C 
ATOM     44  CD  PRO F   6      35.830 -29.093  38.249  1.00 45.45 LIG 0.13  C 
ATOM     45  CB  PRO F   6      33.863 -28.630  39.531  1.00 45.11 LIG 0.04  C 
ATOM     46  CG  PRO F   6      34.594 -29.740  38.855  1.00 45.75 LIG 0.02  C 
ATOM     47 O    THR F   5      35.364 -25.777  36.820  1.00 44.21 LIG-0.27  OA
BRANCH 43 48
ATOM     48  C   PRO F   6      34.299 -26.171  39.533  1.00 45.08 LIG 0.24  C 
ATOM     49  N   CYS F   7      33.304 -25.287  39.581  1.00 44.40 LIG-0.34  N 
ATOM     50 H    CYS F   7      32.530 -25.390  39.220  1.00 44.40 LIG 0.16  HD
ATOM     51 O    PRO F   6      35.358 -26.028  40.149  1.00 44.91 LIG-0.27  OA
BRANCH 49 52
ATOM     52  CA  CYS F   7      33.505 -24.029  40.295  1.00 45.02 LIG 0.19  C 
BRANCH 52 53
ATOM     53  CB  CYS F   7      33.816 -22.896  39.304  1.00 44.51 LIG 0.11  C 
BRANCH 53 54
ATOM     54 SG   CYS F   7      33.486 -23.412  37.563  1.00 46.73 LIG-0.18  SA
ATOM     55 HG   CYS F   7      34.384 -24.107  37.173  1.00 46.73 LIG 0.10  HD
ENDBRANCH 53 54
ENDBRANCH 52 53
BRANCH 52 56
ATOM     56  C   CYS F   7      32.390 -23.709  41.309  1.00 45.05 LIG 0.20  C 
ATOM     57 OXT  CYS F   7      32.594 -23.713  42.533  1.00 44.33 LIG-0.65  OA
ATOM     58 O    CYS F   7      31.238 -23.494  40.883  1.00 44.51 LIG-0.65  OA
ENDBRANCH 52 56
ENDBRANCH 49 52
ENDBRANCH 43 48
ENDBRANCH 40 41
BRANCH 40 59
ATOM     59  CB  THR F   5      38.219 -25.812  36.852  1.00 46.83 LIG 0.15  C 
ATOM     60  CG2 THR F   5      39.078 -25.852  38.108  1.00 46.88 LIG 0.04  C 
BRANCH 59 61
ATOM     61 OG1  THR F   5      39.041 -25.634  35.691  1.00 48.31 LIG-0.39  OA
ATOM     62 HG1  THR F   5      38.555 -25.458  35.028  1.00 48.31 LIG 0.21  HD
ENDBRANCH 59 61
ENDBRANCH 40 59
ENDBRANCH 37 40
ENDBRANCH 1 36
TORSDOF 26
ENDMDL
MODEL 2
USER: ADFR SOLUTION from run 88
USER: SCORE 17.122032 LL:  -4.421 LR: -13.729 RR:   0.000 FEB:  -5.973
USER: RMSD 11.690394
USER: SEED 87
USER: STATUS no improvement in best in 2 clusters for 5 generations
USER: GENES 28
USER: genes 0 Translation |==|  0.48654 0.45508 0.49102
USER: genes 1 Rotation |==|  0.77378 0.79834 0.78922 0.54889
USER: genes 2 Torsion [C]-CA--N-[C] |==|  0.75016
USER: genes 3 Torsion [N]-C--CA-[N] |==|  0.32420
USER: genes 4 Torsion [C]-CA--CB-[SG] |==|  0.14953
USER: genes 5 Torsion [CA]-CB--SG-[HG] |==|  0.05995
USER: genes 6 Torsion [C]-CA--N-[C] |==|  0.70187
USER: genes 7 Torsion [N]-C--CA-[N] |==|  0.43658
USER: genes 8 Torsion [C]-CA--CB-[CG] |==|  0.58027
USER: genes 9 Torsion [CA]-CB--CG-[CD] |==|  0.51188
USER: genes 10 Torsion [CB]-CG--CD-[OE1] |==|  0.87793
USER: genes 11 Torsion [C]-CA--N-[C] |==|  0.84361
USER: genes 12 Torsion [N]-C--CA-[N] |==|  0.04465
USER: genes 13 Torsion [C]-CA--CB-[OG] |==|  0.38773
USER: genes 14 Torsion [CA]-CB--OG-[HG] |==|  0.77190
USER: genes 15 Torsion [C]-CA--N-[H1] |==|  0.93265
USER: genes 16 Torsion [N]-CA--CB-[OG1] |==|  0.94479
USER: genes 17 Torsion [CA]-CB--OG1-[HG1] |==|  0.16827
USER: genes 18 Torsion [N]-CA--C-[N] |==|  0.29691
USER: genes 19 Torsion [C]-N--CA-[CB] |==|  0.83830
USER: genes 20 Torsion [N]-CA--C-[N] |==|  0.30563
USER: genes 21 Torsion [N]-CA--C-[N] |==|  0.79063
USER: genes 22 Torsion [C]-N--CA-[CB] |==|  0.35895
USER: genes 23 Torsion [N]-CA--CB-[SG] |==|  0.76032
USER: genes 24 Torsion [CA]-CB--SG-[HG] |==|  0.93856
USER: genes 25 Torsion [N]-CA--C-[OXT] |==|  0.20880
USER: genes 26 Torsion [N]-CA--CB-[OG1] |==|  0.81024
USER: genes 27 Torsion [CA]-CB--OG1-[HG1] |==|  0.23288
ROOT
ATOM      1  CA  THR F   4      39.885 -27.829  33.941  1.00 50.77 LIG 0.20  C 
ENDROOT
BRANCH 1 2
ATOM      2  N   THR F   4      39.234 -26.826  34.788  1.00 51.40 LIG-0.34  N 
ATOM      3 H    THR F   4      38.707 -26.296  34.362  1.00 51.40 LIG 0.16  HD
ATOM      4  C   CYS F   3      39.450 -26.753  36.103  1.00 52.18 LIG 0.24  C 
ATOM      5 O    CYS F   3      40.112 -27.587  36.726  1.00 51.89 LIG-0.27  OA
BRANCH 4 6
ATOM      6  CA  CYS F   3      38.783 -25.592  36.849  1.00 52.92 LIG 0.18  C 
BRANCH 6 7
ATOM      7  CB  CYS F   3      39.828 -24.700  37.535  1.00 52.86 LIG 0.10  C 
BRANCH 7 8
ATOM      8 SG   CYS F   3      41.139 -24.083  36.421  1.00 55.16 LIG-0.18  SA
ATOM      9 HG   CYS F   3      40.751 -24.122  35.286  1.00 55.16 LIG 0.10  HD
ENDBRANCH 7 8
ENDBRANCH 6 7
BRANCH 6 10
ATOM     10  N   CYS F   3      37.825 -26.125  37.821  1.00 53.02 LIG-0.34  N 
ATOM     11 H    CYS F   3      38.190 -26.494  38.507  1.00 53.02 LIG 0.16  HD
ATOM     12  C   GLU F   2      36.507 -26.041  37.647  1.00 53.57 LIG 0.24  C 
ATOM     13 O    GLU F   2      35.985 -25.374  36.748  1.00 53.07 LIG-0.27  OA
BRANCH 12 14
ATOM     14  CA  GLU F   2      35.643 -26.864  38.605  1.00 54.00 LIG 0.18  C 
BRANCH 14 15
ATOM     15  CB  GLU F   2      35.665 -28.309  38.085  1.00 54.10 LIG 0.04  C 
BRANCH 15 16
ATOM     16  CG  GLU F   2      34.443 -29.168  38.378  1.00 55.55 LIG 0.12  C 
BRANCH 16 17
ATOM     17  CD  GLU F   2      34.615 -30.616  37.907  1.00 57.36 LIG 0.17  C 
ATOM     18 OE1  GLU F   2      35.112 -30.857  36.781  1.00 58.39 LIG-0.65  OA
ATOM     19 OE2  GLU F   2      34.265 -31.537  38.675  1.00 58.95 LIG-0.65  OA
ENDBRANCH 16 17
ENDBRANCH 15 16
ENDBRANCH 14 15
BRANCH 14 20
ATOM     20  N   GLU F   2      34.268 -26.359  38.740  1.00 53.99 LIG-0.35  N 
ATOM     21 H    GLU F   2      33.671 -26.949  38.553  1.00 53.99 LIG 0.16  HD
ATOM     22  C   SER F   1      33.955 -25.115  39.113  1.00 54.35 LIG 0.25  C 
ATOM     23 O    SER F   1      34.788 -24.215  39.284  1.00 54.45 LIG-0.27  OA
BRANCH 22 24
ATOM     24  CA  SER F   1      32.459 -24.829  39.302  1.00 54.58 LIG 0.30  C 
BRANCH 24 25
ATOM     25  CB  SER F   1      32.236 -23.944  40.534  1.00 54.63 LIG 0.21  C 
BRANCH 25 26
ATOM     26 OG   SER F   1      31.238 -22.964  40.283  1.00 54.91 LIG-0.40  OA
ATOM     27 HG   SER F   1      31.580 -22.313  39.877  1.00 54.91 LIG 0.21  HD
ENDBRANCH 25 26
ENDBRANCH 24 25
BRANCH 24 28
ATOM     28  N   SER F   1      31.658 -26.087  39.406  1.00 54.74 LIG-0.06  N 
ATOM     29 H1   SER F   1      32.093 -26.751  39.005  1.00 54.74 LIG 0.28  HD
ATOM     30 H2   SER F   1      31.533 -26.290  40.264  1.00 54.74 LIG 0.28  HD
ATOM     31 H3   SER F   1      30.869 -25.969  39.012  1.00 54.74 LIG 0.28  HD
ENDBRANCH 24 28
ENDBRANCH 22 24
ENDBRANCH 14 20
ENDBRANCH 12 14
ENDBRANCH 6 10
ENDBRANCH 4 6
ENDBRANCH 1 2
BRANCH 1 32
ATOM     32  CB  THR F   4      39.053 -28.223  32.707  1.00 51.21 LIG 0.15  C 
ATOM     33  CG2 THR F   4      39.194 -29.721  32.439  1.00 50.61 LIG 0.04  C 
BRANCH 32 34
ATOM     34 OG1  THR F   4      37.679 -27.877  32.913  1.00 51.15 LIG-0.39  OA
ATOM     35 HG1  THR F   4      37.612 -27.048  33.030  1.00 51.15 LIG 0.21  HD
ENDBRANCH 32 34
ENDBRANCH 1 32
BRANCH 1 36
ATOM     36  C   THR F   4      41.189 -27.222  33.452  1.00 49.53 LIG 0.24  C 
ATOM     37  N   THR F   5      42.302 -27.698  33.998  1.00 47.76 LIG-0.34  N 
ATOM     38 H    THR F   5      42.315 -28.395  34.501  1.00 47.76 LIG 0.16  HD
ATOM     39 O    THR F   4      41.168 -26.325  32.615  1.00 50.01 LIG-0.27  OA
BRANCH 37 40
ATOM     40  CA  THR F   5      43.617 -27.094  33.808  1.00 46.83 LIG 0.20  C 
BRANCH 40 41
ATOM     41  C   THR F   5      43.588 -25.666  34.354  1.00 45.74 LIG 0.24  C 
ATOM     42  N   PRO F   6      44.287 -25.423  35.473  1.00 45.40 LIG-0.34  N 
ATOM     43  CA  PRO F   6      44.462 -24.039  35.932  1.00 45.02 LIG 0.18  C 
ATOM     44  CD  PRO F   6      44.853 -26.398  36.425  1.00 45.45 LIG 0.13  C 
ATOM     45  CB  PRO F   6      45.360 -24.179  37.164  1.00 45.11 LIG 0.04  C 
ATOM     46  CG  PRO F   6      45.108 -25.559  37.669  1.00 45.75 LIG 0.02  C 
ATOM     47 O    THR F   5      42.927 -24.799  33.781  1.00 44.21 LIG-0.27  OA
BRANCH 43 48
ATOM     48  C   PRO F   6      45.179 -23.242  34.856  1.00 45.08 LIG 0.24  C 
ATOM     49  N   CYS F   7      46.487 -23.436  34.702  1.00 44.40 LIG-0.34  N 
ATOM     50 H    CYS F   7      46.952 -24.035  35.107  1.00 44.40 LIG 0.16  HD
ATOM     51 O    PRO F   6      44.532 -22.439  34.180  1.00 44.91 LIG-0.27  OA
BRANCH 49 52
ATOM     52  CA  CYS F   7      47.227 -22.581  33.778  1.00 45.02 LIG 0.19  C 
BRANCH 52 53
ATOM     53  CB  CYS F   7      48.470 -21.998  34.469  1.00 44.51 LIG 0.11  C 
BRANCH 53 54
ATOM     54 SG   CYS F   7      48.070 -20.444  35.380  1.00 46.73 LIG-0.18  SA
ATOM     55 HG   CYS F   7      47.071 -19.959  34.925  1.00 46.73 LIG 0.10  HD
ENDBRANCH 53 54
ENDBRANCH 52 53
BRANCH 52 56
ATOM     56  C   CYS F   7      47.501 -23.240  32.411  1.00 45.05 LIG 0.20  C 
ATOM     57 OXT  CYS F   7      46.613 -23.369  31.554  1.00 44.33 LIG-0.65  OA
ATOM     58 O    CYS F   7      48.636 -23.705  32.188  1.00 44.51 LIG-0.65  OA
ENDBRANCH 52 56
ENDBRANCH 49 52
ENDBRANCH 43 48
ENDBRANCH 40 41
BRANCH 40 59
ATOM     59  CB  THR F   5      43.967 -27.046  32.311  1.00 46.83 LIG 0.15  C 
ATOM     60  CG2 THR F   5      45.192 -26.189  32.029  1.00 46.88 LIG 0.04  C 
BRANCH 59 61
ATOM     61 OG1  THR F   5      44.170 -28.382  31.829  1.00 48.31 LIG-0.39  OA
ATOM     62 HG1  THR F   5      43.428 -28.724  31.632  1.00 48.31 LIG 0.21  HD
ENDBRANCH 59 61
ENDBRANCH 40 59
ENDBRANCH 37 40
ENDBRANCH 1 36
TORSDOF 26
ENDMDL
MODEL 3
USER: ADFR SOLUTION from run 6
USER: SCORE 17.961968 LL:  -6.276 LR: -13.659 RR:   0.000 FEB:  -5.903
USER: RMSD 3.535775
USER: SEED 1261
USER: STATUS 1 or 2 clusters left
USER: GENES 28
USER: genes 0 Translation |==|  0.40770 0.41272 0.45859
USER: genes 1 Rotation |==|  0.49852 0.57199 0.49917 0.99479
USER: genes 2 Torsion [C]-CA--N-[C] |==|  0.82583
USER: genes 3 Torsion [N]-C--CA-[N] |==|  0.56560
USER: genes 4 Torsion [C]-CA--CB-[SG] |==|  0.54189
USER: genes 5 Torsion [CA]-CB--SG-[HG] |==|  0.14834
USER: genes 6 Torsion [C]-CA--N-[C] |==|  0.17778
USER: genes 7 Torsion [N]-C--CA-[N] |==|  0.94931
USER: genes 8 Torsion [C]-CA--CB-[CG] |==|  0.50471
USER: genes 9 Torsion [CA]-CB--CG-[CD] |==|  0.17654
USER: genes 10 Torsion [CB]-CG--CD-[OE1] |==|  0.61599
USER: genes 11 Torsion [C]-CA--N-[C] |==|  0.81615
USER: genes 12 Torsion [N]-C--CA-[N] |==|  0.83320
USER: genes 13 Torsion [C]-CA--CB-[OG] |==|  0.68815
USER: genes 14 Torsion [CA]-CB--OG-[HG] |==|  0.30835
USER: genes 15 Torsion [C]-CA--N-[H1] |==|  0.40703
USER: genes 16 Torsion [N]-CA--CB-[OG1] |==|  0.81161
USER: genes 17 Torsion [CA]-CB--OG1-[HG1] |==|  0.75644
USER: genes 18 Torsion [N]-CA--C-[N] |==|  0.37717
USER: genes 19 Torsion [C]-N--CA-[CB] |==|  0.25576
USER: genes 20 Torsion [N]-CA--C-[N] |==|  0.28998
USER: genes 21 Torsion [N]-CA--C-[N] |==|  0.37017
USER: genes 22 Torsion [C]-N--CA-[CB] |==|  0.27100
USER: genes 23 Torsion [N]-CA--CB-[SG] |==|  0.03115
USER: genes 24 Torsion [CA]-CB--SG-[HG] |==|  0.07252
USER: genes 25 Torsion [N]-CA--C-[OXT] |==|  0.85213
USER: genes 26 Torsion [N]-CA--CB-[OG1] |==|  0.90688
USER: genes 27 Torsion [CA]-CB--OG1-[HG1] |==|  0.16452
ROOT
ATOM      1  CA  THR F   4      37.815 -28.528  33.162  1.00 50.77 LIG 0.20  C 
ENDROOT
BRANCH 1 2
ATOM      2  N   THR F   4      39.162 -28.481  32.587  1.00 51.40 LIG-0.34  N 
ATOM      3 H    THR F   4      39.399 -29.206  32.189  1.00 51.40 LIG 0.16  HD
ATOM      4  C   CYS F   3      39.942 -27.401  32.681  1.00 52.18 LIG 0.24  C 
ATOM      5 O    CYS F   3      39.554 -26.326  33.148  1.00 51.89 LIG-0.27  OA
BRANCH 4 6
ATOM      6  CA  CYS F   3      41.364 -27.525  32.124  1.00 52.92 LIG 0.18  C 
BRANCH 6 7
ATOM      7  CB  CYS F   3      41.911 -28.948  32.312  1.00 52.86 LIG 0.10  C 
BRANCH 7 8
ATOM      8 SG   CYS F   3      43.719 -29.095  32.086  1.00 55.16 LIG-0.18  SA
ATOM      9 HG   CYS F   3      44.276 -28.301  32.793  1.00 55.16 LIG 0.10  HD
ENDBRANCH 7 8
ENDBRANCH 6 7
BRANCH 6 10
ATOM     10  N   CYS F   3      42.229 -26.537  32.775  1.00 53.02 LIG-0.34  N 
ATOM     11 H    CYS F   3      42.546 -25.944  32.240  1.00 53.02 LIG 0.16  HD
ATOM     12  C   GLU F   2      42.492 -26.567  34.080  1.00 53.57 LIG 0.24  C 
ATOM     13 O    GLU F   2      41.912 -27.317  34.871  1.00 53.07 LIG-0.27  OA
BRANCH 12 14
ATOM     14  CA  GLU F   2      43.608 -25.638  34.567  1.00 54.00 LIG 0.18  C 
BRANCH 14 15
ATOM     15  CB  GLU F   2      42.920 -24.464  35.281  1.00 54.10 LIG 0.04  C 
BRANCH 15 16
ATOM     16  CG  GLU F   2      43.821 -23.367  35.830  1.00 55.55 LIG 0.12  C 
BRANCH 16 17
ATOM     17  CD  GLU F   2      44.591 -22.632  34.727  1.00 57.36 LIG 0.17  C 
ATOM     18 OE1  GLU F   2      45.798 -22.334  34.893  1.00 58.39 LIG-0.65  OA
ATOM     19 OE2  GLU F   2      43.992 -22.356  33.666  1.00 58.95 LIG-0.65  OA
ENDBRANCH 16 17
ENDBRANCH 15 16
ENDBRANCH 14 15
BRANCH 14 20
ATOM     20  N   GLU F   2      44.498 -25.172  33.493  1.00 53.99 LIG-0.35  N 
ATOM     21 H    GLU F   2      44.442 -24.325  33.352  1.00 53.99 LIG 0.16  HD
ATOM     22  C   SER F   1      45.317 -25.964  32.796  1.00 54.35 LIG 0.25  C 
ATOM     23 O    SER F   1      45.342 -27.197  32.902  1.00 54.45 LIG-0.27  OA
BRANCH 22 24
ATOM     24  CA  SER F   1      46.245 -25.257  31.799  1.00 54.58 LIG 0.30  C 
BRANCH 24 25
ATOM     25  CB  SER F   1      47.216 -24.328  32.538  1.00 54.63 LIG 0.21  C 
BRANCH 25 26
ATOM     26 OG   SER F   1      46.938 -22.966  32.248  1.00 54.91 LIG-0.40  OA
ATOM     27 HG   SER F   1      46.633 -22.589  32.934  1.00 54.91 LIG 0.21  HD
ENDBRANCH 25 26
ENDBRANCH 24 25
BRANCH 24 28
ATOM     28  N   SER F   1      45.478 -24.499  30.763  1.00 54.74 LIG-0.06  N 
ATOM     29 H1   SER F   1      45.931 -23.768  30.533  1.00 54.74 LIG 0.28  HD
ATOM     30 H2   SER F   1      45.360 -25.012  30.045  1.00 54.74 LIG 0.28  HD
ATOM     31 H3   SER F   1      44.686 -24.264  31.092  1.00 54.74 LIG 0.28  HD
ENDBRANCH 24 28
ENDBRANCH 22 24
ENDBRANCH 14 20
ENDBRANCH 12 14
ENDBRANCH 6 10
ENDBRANCH 4 6
ENDBRANCH 1 2
BRANCH 1 32
ATOM     32  CB  THR F   4      37.082 -29.855  32.898  1.00 51.21 LIG 0.15  C 
ATOM     33  CG2 THR F   4      35.798 -29.916  33.726  1.00 50.61 LIG 0.04  C 
BRANCH 32 34
ATOM     34 OG1  THR F   4      36.786 -29.981  31.503  1.00 51.15 LIG-0.39  OA
ATOM     35 HG1  THR F   4      36.047 -29.617  31.339  1.00 51.15 LIG 0.21  HD
ENDBRANCH 32 34
ENDBRANCH 1 32
BRANCH 1 36
ATOM     36  C   THR F   4      37.965 -28.367  34.666  1.00 49.53 LIG 0.24  C 
ATOM     37  N   THR F   5      37.114 -27.538  35.258  1.00 47.76 LIG-0.34  N 
ATOM     38 H    THR F   5      36.430 -27.205  34.857  1.00 47.76 LIG 0.16  HD
ATOM     39 O    THR F   4      38.856 -28.969  35.256  1.00 50.01 LIG-0.27  OA
BRANCH 37 40
ATOM     40  CA  THR F   5      37.244 -27.102  36.645  1.00 46.83 LIG 0.20  C 
BRANCH 40 41
ATOM     41  C   THR F   5      35.847 -26.858  37.218  1.00 45.74 LIG 0.24  C 
ATOM     42  N   PRO F   6      35.360 -27.783  38.058  1.00 45.40 LIG-0.34  N 
ATOM     43  CA  PRO F   6      34.118 -27.512  38.794  1.00 45.02 LIG 0.18  C 
ATOM     44  CD  PRO F   6      35.854 -29.154  38.292  1.00 45.45 LIG 0.13  C 
ATOM     45  CB  PRO F   6      33.946 -28.748  39.680  1.00 45.11 LIG 0.04  C 
ATOM     46  CG  PRO F   6      34.672 -29.837  38.965  1.00 45.75 LIG 0.02  C 
ATOM     47 O    THR F   5      35.211 -25.856  36.890  1.00 44.21 LIG-0.27  OA
BRANCH 43 48
ATOM     48  C   PRO F   6      34.308 -26.277  39.657  1.00 45.08 LIG 0.24  C 
ATOM     49  N   CYS F   7      33.355 -25.347  39.635  1.00 44.40 LIG-0.34  N 
ATOM     50 H    CYS F   7      32.598 -25.420  39.234  1.00 44.40 LIG 0.16  HD
ATOM     51 O    PRO F   6      35.337 -26.172  40.329  1.00 44.91 LIG-0.27  OA
BRANCH 49 52
ATOM     52  CA  CYS F   7      33.577 -24.086  40.339  1.00 45.02 LIG 0.19  C 
BRANCH 52 53
ATOM     53  CB  CYS F   7      34.060 -23.005  39.359  1.00 44.51 LIG 0.11  C 
BRANCH 53 54
ATOM     54 SG   CYS F   7      33.879 -23.553  37.605  1.00 46.73 LIG-0.18  SA
ATOM     55 HG   CYS F   7      32.998 -24.364  37.529  1.00 46.73 LIG 0.10  HD
ENDBRANCH 53 54
ENDBRANCH 52 53
BRANCH 52 56
ATOM     56  C   CYS F   7      32.396 -23.662  41.234  1.00 45.05 LIG 0.20  C 
ATOM     57 OXT  CYS F   7      31.238 -23.577  40.797  1.00 44.33 LIG-0.65  OA
ATOM     58 O    CYS F   7      32.627 -23.341  42.416  1.00 44.51 LIG-0.65  OA
ENDBRANCH 52 56
ENDBRANCH 49 52
ENDBRANCH 43 48
ENDBRANCH 40 41
BRANCH 40 59
ATOM     59  CB  THR F   5      38.045 -25.791  36.715  1.00 46.83 LIG 0.15  C 
ATOM     60  CG2 THR F   5      38.700 -25.584  38.073  1.00 46.88 LIG 0.04  C 
BRANCH 59 61
ATOM     61 OG1  THR F   5      39.035 -25.784  35.677  1.00 48.31 LIG-0.39  OA
ATOM     62 HG1  THR F   5      38.657 -25.853  34.929  1.00 48.31 LIG 0.21  HD
ENDBRANCH 59 61
ENDBRANCH 40 59
ENDBRANCH 37 40
ENDBRANCH 1 36
TORSDOF 26
ENDMDL
MODEL 4
USER: ADFR SOLUTION from run 24
USER: SCORE 17.241653 LL:  -5.168 LR: -13.552 RR:   0.000 FEB:  -5.796
USER: RMSD 13.057896
USER: SEED 23
USER: STATUS searching
USER: GENES 28
USER: genes 0 Translation |==|  0.37255 0.68685 0.68718
USER: genes 1 Rotation |==|  0.61999 0.15973 0.84599 0.51047
USER: genes 2 Torsion [C]-CA--N-[C] |==|  0.81983
USER: genes 3 Torsion [N]-C--CA-[N] |==|  0.94951
USER: genes 4 Torsion [C]-CA--CB-[SG] |==|  0.65275
USER: genes 5 Torsion [CA]-CB--SG-[HG] |==|  0.33590
USER: genes 6 Torsion [C]-CA--N-[C] |==|  0.80027
USER: genes 7 Torsion [N]-C--CA-[N] |==|  0.17778
USER: genes 8 Torsion [C]-CA--CB-[CG] |==|  0.76203
USER: genes 9 Torsion [CA]-CB--CG-[CD] |==|  0.76864
USER: genes 10 Torsion [CB]-CG--CD-[OE1] |==|  0.98390
USER: genes 11 Torsion [C]-CA--N-[C] |==|  0.78253
USER: genes 12 Torsion [N]-C--CA-[N] |==|  0.44006
USER: genes 13 Torsion [C]-CA--CB-[OG] |==|  0.29167
USER: genes 14 Torsion [CA]-CB--OG-[HG] |==|  0.96116
USER: genes 15 Torsion [C]-CA--N-[H1] |==|  0.97834
USER: genes 16 Torsion [N]-CA--CB-[OG1] |==|  0.15650
USER: genes 17 Torsion [CA]-CB--OG1-[HG1] |==|  0.09343
USER: genes 18 Torsion [N]-CA--C-[N] |==|  0.34404
USER: genes 19 Torsion [C]-N--CA-[CB] |==|  0.26852
USER: genes 20 Torsion [N]-CA--C-[N] |==|  0.41161
USER: genes 21 Torsion [N]-CA--C-[N] |==|  0.73238
USER: genes 22 Torsion [C]-N--CA-[CB] |==|  0.25562
USER: genes 23 Torsion [N]-CA--CB-[SG] |==|  0.78412
USER: genes 24 Torsion [CA]-CB--SG-[HG] |==|  0.14184
USER: genes 25 Torsion [N]-CA--C-[OXT] |==|  0.52151
USER: genes 26 Torsion [N]-CA--CB-[OG1] |==|  0.97058
USER: genes 27 Torsion [CA]-CB--OG1-[HG1] |==|  0.18589
ROOT
ATOM      1  CA  THR F   4      36.892 -24.005  38.648  1.00 50.77 LIG 0.20  C 
ENDROOT
BRANCH 1 2
ATOM      2  N   THR F   4      35.536 -24.283  39.130  1.00 51.40 LIG-0.34  N 
ATOM      3 H    THR F   4      35.402 -24.057  39.949  1.00 51.40 LIG 0.16  HD
ATOM      4  C   CYS F   3      34.603 -24.839  38.353  1.00 52.18 LIG 0.24  C 
ATOM      5 O    CYS F   3      34.765 -25.052  37.149  1.00 51.89 LIG-0.27  OA
BRANCH 4 6
ATOM      6  CA  CYS F   3      33.260 -25.167  39.016  1.00 52.92 LIG 0.18  C 
BRANCH 6 7
ATOM      7  CB  CYS F   3      32.177 -24.160  38.603  1.00 52.86 LIG 0.10  C 
BRANCH 7 8
ATOM      8 SG   CYS F   3      31.341 -23.338  40.005  1.00 55.16 LIG-0.18  SA
ATOM      9 HG   CYS F   3      31.492 -22.150  39.920  1.00 55.16 LIG 0.10  HD
ENDBRANCH 7 8
ENDBRANCH 6 7
BRANCH 6 10
ATOM     10  N   CYS F   3      33.430 -25.191  40.471  1.00 53.02 LIG-0.34  N 
ATOM     11 H    CYS F   3      33.072 -24.523  40.877  1.00 53.02 LIG 0.16  HD
ATOM     12  C   GLU F   2      34.084 -26.167  41.099  1.00 53.57 LIG 0.24  C 
ATOM     13 O    GLU F   2      34.456 -27.203  40.538  1.00 53.07 LIG-0.27  OA
BRANCH 12 14
ATOM     14  CA  GLU F   2      34.404 -25.928  42.576  1.00 54.00 LIG 0.18  C 
BRANCH 14 15
ATOM     15  CB  GLU F   2      35.307 -27.087  43.023  1.00 54.10 LIG 0.04  C 
BRANCH 15 16
ATOM     16  CG  GLU F   2      34.616 -28.364  43.482  1.00 55.55 LIG 0.12  C 
BRANCH 16 17
ATOM     17  CD  GLU F   2      34.176 -28.299  44.949  1.00 57.36 LIG 0.17  C 
ATOM     18 OE1  GLU F   2      34.495 -27.315  45.659  1.00 58.39 LIG-0.65  OA
ATOM     19 OE2  GLU F   2      33.488 -29.235  45.406  1.00 58.95 LIG-0.65  OA
ENDBRANCH 16 17
ENDBRANCH 15 16
ENDBRANCH 14 15
BRANCH 14 20
ATOM     20  N   GLU F   2      33.210 -25.813  43.427  1.00 53.99 LIG-0.35  N 
ATOM     21 H    GLU F   2      33.043 -26.530  43.873  1.00 53.99 LIG 0.16  HD
ATOM     22  C   SER F   1      32.449 -24.719  43.516  1.00 54.35 LIG 0.25  C 
ATOM     23 O    SER F   1      32.601 -23.713  42.810  1.00 54.45 LIG-0.27  OA
BRANCH 22 24
ATOM     24  CA  SER F   1      31.316 -24.772  44.550  1.00 54.58 LIG 0.30  C 
BRANCH 24 25
ATOM     25  CB  SER F   1      30.139 -25.593  44.012  1.00 54.63 LIG 0.21  C 
BRANCH 25 26
ATOM     26 OG   SER F   1      30.086 -26.872  44.629  1.00 54.91 LIG-0.40  OA
ATOM     27 HG   SER F   1      30.809 -27.020  45.031  1.00 54.91 LIG 0.21  HD
ENDBRANCH 25 26
ENDBRANCH 24 25
BRANCH 24 28
ATOM     28  N   SER F   1      30.863 -23.405  44.954  1.00 54.74 LIG-0.06  N 
ATOM     29 H1   SER F   1      31.409 -22.795  44.604  1.00 54.74 LIG 0.28  HD
ATOM     30 H2   SER F   1      30.035 -23.267  44.656  1.00 54.74 LIG 0.28  HD
ATOM     31 H3   SER F   1      30.874 -23.339  45.841  1.00 54.74 LIG 0.28  HD
ENDBRANCH 24 28
ENDBRANCH 22 24
ENDBRANCH 14 20
ENDBRANCH 12 14
ENDBRANCH 6 10
ENDBRANCH 4 6
ENDBRANCH 1 2
BRANCH 1 32
ATOM     32  CB  THR F   4      37.772 -23.277  39.680  1.00 51.21 LIG 0.15  C 
ATOM     33  CG2 THR F   4      37.215 -21.878  39.946  1.00 50.61 LIG 0.04  C 
BRANCH 32 34
ATOM     34 OG1  THR F   4      37.829 -24.033  40.895  1.00 51.15 LIG-0.39  OA
ATOM     35 HG1  THR F   4      37.802 -24.853  40.716  1.00 51.15 LIG 0.21  HD
ENDBRANCH 32 34
ENDBRANCH 1 32
BRANCH 1 36
ATOM     36  C   THR F   4      37.541 -25.345  38.342  1.00 49.53 LIG 0.24  C 
ATOM     37  N   THR F   5      38.009 -25.506  37.110  1.00 47.76 LIG-0.34  N 
ATOM     38 H    THR F   5      38.070 -24.860  36.546  1.00 47.76 LIG 0.16  HD
ATOM     39 O    THR F   4      37.585 -26.212  39.209  1.00 50.01 LIG-0.27  OA
BRANCH 37 40
ATOM     40  CA  THR F   5      38.467 -26.787  36.581  1.00 46.83 LIG 0.20  C 
BRANCH 40 41
ATOM     41  C   THR F   5      39.657 -26.540  35.654  1.00 45.74 LIG 0.24  C 
ATOM     42  N   PRO F   6      40.594 -27.498  35.592  1.00 45.40 LIG-0.34  N 
ATOM     43  CA  PRO F   6      41.652 -27.412  34.576  1.00 45.02 LIG 0.18  C 
ATOM     44  CD  PRO F   6      40.795 -28.638  36.506  1.00 45.45 LIG 0.13  C 
ATOM     45  CB  PRO F   6      42.453 -28.700  34.780  1.00 45.11 LIG 0.04  C 
ATOM     46  CG  PRO F   6      42.222 -29.075  36.205  1.00 45.75 LIG 0.02  C 
ATOM     47 O    THR F   5      39.738 -25.488  35.018  1.00 44.21 LIG-0.27  OA
BRANCH 43 48
ATOM     48  C   PRO F   6      41.021 -27.407  33.195  1.00 45.08 LIG 0.24  C 
ATOM     49  N   CYS F   7      40.942 -28.564  32.540  1.00 44.40 LIG-0.34  N 
ATOM     50 H    CYS F   7      41.146 -29.333  32.864  1.00 44.40 LIG 0.16  HD
ATOM     51 O    PRO F   6      40.622 -26.338  32.727  1.00 44.91 LIG-0.27  OA
BRANCH 49 52
ATOM     52  CA  CYS F   7      40.475 -28.565  31.156  1.00 45.02 LIG 0.19  C 
BRANCH 52 53
ATOM     53  CB  CYS F   7      41.665 -28.449  30.191  1.00 44.51 LIG 0.11  C 
BRANCH 53 54
ATOM     54 SG   CYS F   7      42.289 -26.715  30.092  1.00 46.73 LIG-0.18  SA
ATOM     55 HG   CYS F   7      42.482 -26.295  31.199  1.00 46.73 LIG 0.10  HD
ENDBRANCH 53 54
ENDBRANCH 52 53
BRANCH 52 56
ATOM     56  C   CYS F   7      39.495 -29.711  30.836  1.00 45.05 LIG 0.20  C 
ATOM     57 OXT  CYS F   7      39.113 -29.944  29.678  1.00 44.33 LIG-0.65  OA
ATOM     58 O    CYS F   7      39.034 -30.385  31.778  1.00 44.51 LIG-0.65  OA
ENDBRANCH 52 56
ENDBRANCH 49 52
ENDBRANCH 43 48
ENDBRANCH 40 41
BRANCH 40 59
ATOM     59  CB  THR F   5      37.342 -27.460  35.776  1.00 46.83 LIG 0.15  C 
ATOM     60  CG2 THR F   5      37.175 -28.929  36.132  1.00 46.88 LIG 0.04  C 
BRANCH 59 61
ATOM     61 OG1  THR F   5      36.114 -26.751  35.993  1.00 48.31 LIG-0.39  OA
ATOM     62 HG1  THR F   5      36.171 -25.983  35.656  1.00 48.31 LIG 0.21  HD
ENDBRANCH 59 61
ENDBRANCH 40 59
ENDBRANCH 37 40
ENDBRANCH 1 36
TORSDOF 26
ENDMDL
MODEL 5
USER: ADFR SOLUTION from run 134
USER: SCORE 17.523949 LL:  -5.238 LR: -13.469 RR:   0.000 FEB:  -5.713
USER: RMSD 5.427661
USER: SEED 133
USER: STATUS no improvement in best in 2 clusters for 5 generations
USER: GENES 28
USER: genes 0 Translation |==|  0.37552 0.61964 0.65956
USER: genes 1 Rotation |==|  0.76651 0.61566 0.24652 0.81834
USER: genes 2 Torsion [C]-CA--N-[C] |==|  0.75726
USER: genes 3 Torsion [N]-C--CA-[N] |==|  0.47194
USER: genes 4 Torsion [C]-CA--CB-[SG] |==|  0.39028
USER: genes 5 Torsion [CA]-CB--SG-[HG] |==|  0.82204
USER: genes 6 Torsion [C]-CA--N-[C] |==|  0.59583
USER: genes 7 Torsion [N]-C--CA-[N] |==|  0.48333
USER: genes 8 Torsion [C]-CA--CB-[CG] |==|  0.53399
USER: genes 9 Torsion [CA]-CB--CG-[CD] |==|  0.22261
USER: genes 10 Torsion [CB]-CG--CD-[OE1] |==|  0.08272
USER: genes 11 Torsion [C]-CA--N-[C] |==|  0.58737
USER: genes 12 Torsion [N]-C--CA-[N] |==|  0.98911
USER: genes 13 Torsion [C]-CA--CB-[OG] |==|  0.70130
USER: genes 14 Torsion [CA]-CB--OG-[HG] |==|  0.22256
USER: genes 15 Torsion [C]-CA--N-[H1] |==|  0.56870
USER: genes 16 Torsion [N]-CA--CB-[OG1] |==|  0.95665
USER: genes 17 Torsion [CA]-CB--OG1-[HG1] |==|  0.62380
USER: genes 18 Torsion [N]-CA--C-[N] |==|  0.48330
USER: genes 19 Torsion [C]-N--CA-[CB] |==|  0.19451
USER: genes 20 Torsion [N]-CA--C-[N] |==|  0.84863
USER: genes 21 Torsion [N]-CA--C-[N] |==|  0.23071
USER: genes 22 Torsion [C]-N--CA-[CB] |==|  0.77271
USER: genes 23 Torsion [N]-CA--CB-[SG] |==|  0.95779
USER: genes 24 Torsion [CA]-CB--SG-[HG] |==|  0.83168
USER: genes 25 Torsion [N]-CA--C-[OXT] |==|  0.15794
USER: genes 26 Torsion [N]-CA--CB-[OG1] |==|  0.01657
USER: genes 27 Torsion [CA]-CB--OG1-[HG1] |==|  0.77252
ROOT
ATOM      1  CA  THR F   4      36.971 -25.114  37.985  1.00 50.77 LIG 0.20  C 
ENDROOT
BRANCH 1 2
ATOM      2  N   THR F   4      37.611 -25.546  36.740  1.00 51.40 LIG-0.34  N 
ATOM      3 H    THR F   4      37.066 -25.647  36.082  1.00 51.40 LIG 0.16  HD
ATOM      4  C   CYS F   3      38.926 -25.762  36.651  1.00 52.18 LIG 0.24  C 
ATOM      5 O    CYS F   3      39.716 -25.503  37.562  1.00 51.89 LIG-0.27  OA
BRANCH 4 6
ATOM      6  CA  CYS F   3      39.446 -26.309  35.317  1.00 52.92 LIG 0.18  C 
BRANCH 6 7
ATOM      7  CB  CYS F   3      38.943 -27.738  35.070  1.00 52.86 LIG 0.10  C 
BRANCH 7 8
ATOM      8 SG   CYS F   3      38.473 -28.081  33.337  1.00 55.16 LIG-0.18  SA
ATOM      9 HG   CYS F   3      37.539 -27.392  33.032  1.00 55.16 LIG 0.10  HD
ENDBRANCH 7 8
ENDBRANCH 6 7
BRANCH 6 10
ATOM     10  N   CYS F   3      40.911 -26.256  35.309  1.00 53.02 LIG-0.34  N 
ATOM     11 H    CYS F   3      41.271 -26.400  36.077  1.00 53.02 LIG 0.16  HD
ATOM     12  C   GLU F   2      41.612 -26.007  34.204  1.00 53.57 LIG 0.24  C 
ATOM     13 O    GLU F   2      41.106 -25.962  33.078  1.00 53.07 LIG-0.27  OA
BRANCH 12 14
ATOM     14  CA  GLU F   2      43.104 -25.728  34.397  1.00 54.00 LIG 0.18  C 
BRANCH 14 15
ATOM     15  CB  GLU F   2      43.205 -24.451  35.245  1.00 54.10 LIG 0.04  C 
BRANCH 15 16
ATOM     16  CG  GLU F   2      44.575 -23.793  35.343  1.00 55.55 LIG 0.12  C 
BRANCH 16 17
ATOM     17  CD  GLU F   2      44.907 -22.942  34.112  1.00 57.36 LIG 0.17  C 
ATOM     18 OE1  GLU F   2      43.988 -22.386  33.465  1.00 58.39 LIG-0.65  OA
ATOM     19 OE2  GLU F   2      46.106 -22.807  33.788  1.00 58.95 LIG-0.65  OA
ENDBRANCH 16 17
ENDBRANCH 15 16
ENDBRANCH 14 15
BRANCH 14 20
ATOM     20  N   GLU F   2      43.848 -25.599  33.134  1.00 53.99 LIG-0.35  N 
ATOM     21 H    GLU F   2      43.374 -25.272  32.495  1.00 53.99 LIG 0.16  HD
ATOM     22  C   SER F   1      45.128 -25.947  32.975  1.00 54.35 LIG 0.25  C 
ATOM     23 O    SER F   1      45.802 -26.517  33.843  1.00 54.45 LIG-0.27  OA
BRANCH 22 24
ATOM     24  CA  SER F   1      45.744 -25.623  31.607  1.00 54.58 LIG 0.30  C 
BRANCH 24 25
ATOM     25  CB  SER F   1      46.936 -24.673  31.769  1.00 54.63 LIG 0.21  C 
BRANCH 25 26
ATOM     26 OG   SER F   1      46.613 -23.367  31.314  1.00 54.91 LIG-0.40  OA
ATOM     27 HG   SER F   1      46.176 -22.963  31.907  1.00 54.91 LIG 0.21  HD
ENDBRANCH 25 26
ENDBRANCH 24 25
BRANCH 24 28
ATOM     28  N   SER F   1      44.738 -25.047  30.662  1.00 54.74 LIG-0.06  N 
ATOM     29 H1   SER F   1      44.995 -25.201  29.824  1.00 54.74 LIG 0.28  HD
ATOM     30 H2   SER F   1      43.946 -25.428  30.803  1.00 54.74 LIG 0.28  HD
ATOM     31 H3   SER F   1      44.673 -24.170  30.796  1.00 54.74 LIG 0.28  HD
ENDBRANCH 24 28
ENDBRANCH 22 24
ENDBRANCH 14 20
ENDBRANCH 12 14
ENDBRANCH 6 10
ENDBRANCH 4 6
ENDBRANCH 1 2
BRANCH 1 32
ATOM     32  CB  THR F   4      35.666 -24.328  37.763  1.00 51.21 LIG 0.15  C 
ATOM     33  CG2 THR F   4      35.612 -23.127  38.707  1.00 50.61 LIG 0.04  C 
BRANCH 32 34
ATOM     34 OG1  THR F   4      35.580 -23.899  36.400  1.00 51.15 LIG-0.39  OA
ATOM     35 HG1  THR F   4      35.329 -23.098  36.373  1.00 51.15 LIG 0.21  HD
ENDBRANCH 32 34
ENDBRANCH 1 32
BRANCH 1 36
ATOM     36  C   THR F   4      36.633 -26.369  38.773  1.00 49.53 LIG 0.24  C 
ATOM     37  N   THR F   5      36.153 -26.186  39.997  1.00 47.76 LIG-0.34  N 
ATOM     38 H    THR F   5      35.917 -25.414  40.296  1.00 47.76 LIG 0.16  HD
ATOM     39 O    THR F   4      36.834 -27.472  38.276  1.00 50.01 LIG-0.27  OA
BRANCH 37 40
ATOM     40  CA  THR F   5      35.976 -27.263  40.966  1.00 46.83 LIG 0.20  C 
BRANCH 40 41
ATOM     41  C   THR F   5      35.196 -26.725  42.165  1.00 45.74 LIG 0.24  C 
ATOM     42  N   PRO F   6      35.686 -25.636  42.776  1.00 45.40 LIG-0.34  N 
ATOM     43  CA  PRO F   6      34.883 -24.956  43.801  1.00 45.02 LIG 0.18  C 
ATOM     44  CD  PRO F   6      37.030 -25.042  42.642  1.00 45.45 LIG 0.13  C 
ATOM     45  CB  PRO F   6      35.739 -23.748  44.187  1.00 45.11 LIG 0.04  C 
ATOM     46  CG  PRO F   6      37.139 -24.152  43.872  1.00 45.75 LIG 0.02  C 
ATOM     47 O    THR F   5      34.174 -27.298  42.546  1.00 44.21 LIG-0.27  OA
BRANCH 43 48
ATOM     48  C   PRO F   6      33.576 -24.490  43.184  1.00 45.08 LIG 0.24  C 
ATOM     49  N   CYS F   7      32.581 -25.370  43.090  1.00 44.40 LIG-0.34  N 
ATOM     50 H    CYS F   7      32.586 -26.163  43.422  1.00 44.40 LIG 0.16  HD
ATOM     51 O    PRO F   6      33.489 -23.328  42.780  1.00 44.91 LIG-0.27  OA
BRANCH 49 52
ATOM     52  CA  CYS F   7      31.366 -24.994  42.371  1.00 45.02 LIG 0.19  C 
BRANCH 52 53
ATOM     53  CB  CYS F   7      30.442 -24.168  43.279  1.00 44.51 LIG 0.11  C 
BRANCH 53 54
ATOM     54 SG   CYS F   7      30.936 -24.307  45.052  1.00 46.73 LIG-0.18  SA
ATOM     55 HG   CYS F   7      30.866 -25.454  45.398  1.00 46.73 LIG 0.10  HD
ENDBRANCH 53 54
ENDBRANCH 52 53
BRANCH 52 56
ATOM     56  C   CYS F   7      31.636 -24.369  40.988  1.00 45.05 LIG 0.20  C 
ATOM     57 OXT  CYS F   7      32.287 -24.963  40.114  1.00 44.33 LIG-0.65  OA
ATOM     58 O    CYS F   7      31.233 -23.210  40.766  1.00 44.51 LIG-0.65  OA
ENDBRANCH 52 56
ENDBRANCH 49 52
ENDBRANCH 43 48
ENDBRANCH 40 41
BRANCH 40 59
ATOM     59  CB  THR F   5      37.345 -27.770  41.450  1.00 46.83 LIG 0.15  C 
ATOM     60  CG2 THR F   5      37.589 -29.225  41.078  1.00 46.88 LIG 0.04  C 
BRANCH 59 61
ATOM     61 OG1  THR F   5      38.378 -26.936  40.908  1.00 48.31 LIG-0.39  OA
ATOM     62 HG1  THR F   5      38.552 -27.179  40.123  1.00 48.31 LIG 0.21  HD
ENDBRANCH 59 61
ENDBRANCH 40 59
ENDBRANCH 37 40
ENDBRANCH 1 36
TORSDOF 26
ENDMDL
MODEL 6
USER: ADFR SOLUTION from run 167
USER: SCORE 17.796788 LL:  -5.975 LR: -13.275 RR:   0.000 FEB:  -5.519
USER: RMSD 4.271656
USER: SEED 166
USER: STATUS no improvement in best in 5 clusters for 5 generations
USER: GENES 28
USER: genes 0 Translation |==|  0.51257 0.60652 0.54313
USER: genes 1 Rotation |==|  0.58921 0.42476 0.58727 0.97829
USER: genes 2 Torsion [C]-CA--N-[C] |==|  0.82438
USER: genes 3 Torsion [N]-C--CA-[N] |==|  0.01875
USER: genes 4 Torsion [C]-CA--CB-[SG] |==|  0.48177
USER: genes 5 Torsion [CA]-CB--SG-[HG] |==|  0.80741
USER: genes 6 Torsion [C]-CA--N-[C] |==|  0.22602
USER: genes 7 Torsion [N]-C--CA-[N] |==|  0.40000
USER: genes 8 Torsion [C]-CA--CB-[CG] |==|  0.78482
USER: genes 9 Torsion [CA]-CB--CG-[CD] |==|  0.79660
USER: genes 10 Torsion [CB]-CG--CD-[OE1] |==|  0.77275
USER: genes 11 Torsion [C]-CA--N-[C] |==|  0.80757
USER: genes 12 Torsion [N]-C--CA-[N] |==|  0.78693
USER: genes 13 Torsion [C]-CA--CB-[OG] |==|  0.70060
USER: genes 14 Torsion [CA]-CB--OG-[HG] |==|  0.22163
USER: genes 15 Torsion [C]-CA--N-[H1] |==|  0.06156
USER: genes 16 Torsion [N]-CA--CB-[OG1] |==|  0.79516
USER: genes 17 Torsion [CA]-CB--OG1-[HG1] |==|  0.16624
USER: genes 18 Torsion [N]-CA--C-[N] |==|  0.37564
USER: genes 19 Torsion [C]-N--CA-[CB] |==|  0.24623
USER: genes 20 Torsion [N]-CA--C-[N] |==|  0.41668
USER: genes 21 Torsion [N]-CA--C-[N] |==|  0.88608
USER: genes 22 Torsion [C]-N--CA-[CB] |==|  0.86863
USER: genes 23 Torsion [N]-CA--CB-[SG] |==|  0.78534
USER: genes 24 Torsion [CA]-CB--SG-[HG] |==|  0.76179
USER: genes 25 Torsion [N]-CA--C-[OXT] |==|  0.71145
USER: genes 26 Torsion [N]-CA--CB-[OG1] |==|  0.86275
USER: genes 27 Torsion [CA]-CB--OG1-[HG1] |==|  0.17339
ROOT
ATOM      1  CA  THR F   4      40.568 -25.330  35.191  1.00 50.77 LIG 0.20  C 
ENDROOT
BRANCH 1 2
ATOM      2  N   THR F   4      41.885 -24.810  35.567  1.00 51.40 LIG-0.34  N 
ATOM      3 H    THR F   4      42.544 -25.225  35.202  1.00 51.40 LIG 0.16  HD
ATOM      4  C   CYS F   3      42.033 -23.781  36.406  1.00 52.18 LIG 0.24  C 
ATOM      5 O    CYS F   3      41.086 -23.116  36.834  1.00 51.89 LIG-0.27  OA
BRANCH 4 6
ATOM      6  CA  CYS F   3      43.469 -23.407  36.791  1.00 52.92 LIG 0.18  C 
BRANCH 6 7
ATOM      7  CB  CYS F   3      43.720 -21.903  36.604  1.00 52.86 LIG 0.10  C 
BRANCH 7 8
ATOM      8 SG   CYS F   3      45.344 -21.330  37.215  1.00 55.16 LIG-0.18  SA
ATOM      9 HG   CYS F   3      45.363 -21.387  38.414  1.00 55.16 LIG 0.10  HD
ENDBRANCH 7 8
ENDBRANCH 6 7
BRANCH 6 10
ATOM     10  N   CYS F   3      44.408 -24.202  35.995  1.00 53.02 LIG-0.34  N 
ATOM     11 H    CYS F   3      44.720 -24.890  36.405  1.00 53.02 LIG 0.16  HD
ATOM     12  C   GLU F   2      44.741 -23.877  34.747  1.00 53.57 LIG 0.24  C 
ATOM     13 O    GLU F   2      44.175 -22.987  34.105  1.00 53.07 LIG-0.27  OA
BRANCH 12 14
ATOM     14  CA  GLU F   2      45.919 -24.643  34.139  1.00 54.00 LIG 0.18  C 
BRANCH 14 15
ATOM     15  CB  GLU F   2      47.177 -23.808  34.420  1.00 54.10 LIG 0.04  C 
BRANCH 15 16
ATOM     16  CG  GLU F   2      47.406 -22.587  33.539  1.00 55.55 LIG 0.12  C 
BRANCH 16 17
ATOM     17  CD  GLU F   2      47.851 -22.961  32.121  1.00 57.36 LIG 0.17  C 
ATOM     18 OE1  GLU F   2      49.054 -23.231  31.889  1.00 58.39 LIG-0.65  OA
ATOM     19 OE2  GLU F   2      46.989 -23.002  31.219  1.00 58.95 LIG-0.65  OA
ENDBRANCH 16 17
ENDBRANCH 15 16
ENDBRANCH 14 15
BRANCH 14 20
ATOM     20  N   GLU F   2      45.763 -24.921  32.703  1.00 53.99 LIG-0.35  N 
ATOM     21 H    GLU F   2      46.309 -24.475  32.212  1.00 53.99 LIG 0.16  HD
ATOM     22  C   SER F   1      44.871 -25.776  32.193  1.00 54.35 LIG 0.25  C 
ATOM     23 O    SER F   1      44.004 -26.350  32.864  1.00 54.45 LIG-0.27  OA
BRANCH 22 24
ATOM     24  CA  SER F   1      44.953 -26.004  30.678  1.00 54.58 LIG 0.30  C 
BRANCH 24 25
ATOM     25  CB  SER F   1      46.405 -26.250  30.252  1.00 54.63 LIG 0.21  C 
BRANCH 25 26
ATOM     26 OG   SER F   1      46.926 -25.132  29.548  1.00 54.91 LIG-0.40  OA
ATOM     27 HG   SER F   1      47.156 -24.538  30.095  1.00 54.91 LIG 0.21  HD
ENDBRANCH 25 26
ENDBRANCH 24 25
BRANCH 24 28
ATOM     28  N   SER F   1      44.366 -24.865  29.908  1.00 54.74 LIG-0.06  N 
ATOM     29 H1   SER F   1      44.364 -24.133  30.415  1.00 54.74 LIG 0.28  HD
ATOM     30 H2   SER F   1      44.852 -24.718  29.177  1.00 54.74 LIG 0.28  HD
ATOM     31 H3   SER F   1      43.531 -25.064  29.673  1.00 54.74 LIG 0.28  HD
ENDBRANCH 24 28
ENDBRANCH 22 24
ENDBRANCH 14 20
ENDBRANCH 12 14
ENDBRANCH 6 10
ENDBRANCH 4 6
ENDBRANCH 1 2
BRANCH 1 32
ATOM     32  CB  THR F   4      40.632 -26.482  34.172  1.00 51.21 LIG 0.15  C 
ATOM     33  CG2 THR F   4      39.292 -27.215  34.127  1.00 50.61 LIG 0.04  C 
BRANCH 32 34
ATOM     34 OG1  THR F   4      40.968 -25.971  32.877  1.00 51.15 LIG-0.39  OA
ATOM     35 HG1  THR F   4      41.715 -25.588  32.912  1.00 51.15 LIG 0.21  HD
ENDBRANCH 32 34
ENDBRANCH 1 32
BRANCH 1 36
ATOM     36  C   THR F   4      39.919 -25.862  36.458  1.00 49.53 LIG 0.24  C 
ATOM     37  N   THR F   5      38.646 -25.539  36.650  1.00 47.76 LIG-0.34  N 
ATOM     38 H    THR F   5      38.163 -25.165  36.044  1.00 47.76 LIG 0.16  HD
ATOM     39 O    THR F   4      40.581 -26.528  37.248  1.00 50.01 LIG-0.27  OA
BRANCH 37 40
ATOM     40  CA  THR F   5      37.930 -25.779  37.898  1.00 46.83 LIG 0.20  C 
BRANCH 40 41
ATOM     41  C   THR F   5      36.443 -25.955  37.588  1.00 45.74 LIG 0.24  C 
ATOM     42  N   PRO F   6      35.737 -26.752  38.404  1.00 45.40 LIG-0.34  N 
ATOM     43  CA  PRO F   6      34.274 -26.803  38.281  1.00 45.02 LIG 0.18  C 
ATOM     44  CD  PRO F   6      36.243 -27.720  39.397  1.00 45.45 LIG 0.13  C 
ATOM     45  CB  PRO F   6      33.849 -27.742  39.412  1.00 45.11 LIG 0.04  C 
ATOM     46  CG  PRO F   6      35.037 -28.611  39.656  1.00 45.75 LIG 0.02  C 
ATOM     47 O    THR F   5      35.944 -25.393  36.613  1.00 44.21 LIG-0.27  OA
BRANCH 43 48
ATOM     48  C   PRO F   6      33.704 -25.415  38.518  1.00 45.08 LIG 0.24  C 
ATOM     49  N   CYS F   7      34.232 -24.682  39.497  1.00 44.40 LIG-0.34  N 
ATOM     50 H    CYS F   7      34.925 -24.895  39.959  1.00 44.40 LIG 0.16  HD
ATOM     51 O    PRO F   6      32.771 -25.026  37.813  1.00 44.91 LIG-0.27  OA
BRANCH 49 52
ATOM     52  CA  CYS F   7      33.610 -23.406  39.843  1.00 45.02 LIG 0.19  C 
BRANCH 52 53
ATOM     53  CB  CYS F   7      33.328 -22.588  38.572  1.00 44.51 LIG 0.11  C 
BRANCH 53 54
ATOM     54 SG   CYS F   7      34.865 -21.800  37.922  1.00 46.73 LIG-0.18  SA
ATOM     55 HG   CYS F   7      35.042 -20.750  38.475  1.00 46.73 LIG 0.10  HD
ENDBRANCH 53 54
ENDBRANCH 52 53
BRANCH 52 56
ATOM     56  C   CYS F   7      32.409 -23.543  40.799  1.00 45.05 LIG 0.20  C 
ATOM     57 OXT  CYS F   7      31.238 -23.440  40.402  1.00 44.33 LIG-0.65  OA
ATOM     58 O    CYS F   7      32.629 -23.707  42.015  1.00 44.51 LIG-0.65  OA
ENDBRANCH 52 56
ENDBRANCH 49 52
ENDBRANCH 43 48
ENDBRANCH 40 41
BRANCH 40 59
ATOM     59  CB  THR F   5      38.101 -24.580  38.846  1.00 46.83 LIG 0.15  C 
ATOM     60  CG2 THR F   5      37.534 -24.851  40.232  1.00 46.88 LIG 0.04  C 
BRANCH 59 61
ATOM     61 OG1  THR F   5      39.491 -24.239  38.933  1.00 48.31 LIG-0.39  OA
ATOM     62 HG1  THR F   5      39.771 -24.006  38.176  1.00 48.31 LIG 0.21  HD
ENDBRANCH 59 61
ENDBRANCH 40 59
ENDBRANCH 37 40
ENDBRANCH 1 36
TORSDOF 26
ENDMDL
MODEL 7
USER: ADFR SOLUTION from run 22
USER: SCORE 17.617218 LL:  -5.989 LR: -13.234 RR:   0.000 FEB:  -5.479
USER: RMSD 13.172865
USER: SEED 21
USER: STATUS no improvement in best in 7 clusters for 5 generations
USER: GENES 28
USER: genes 0 Translation |==|  0.37232 0.74592 0.69289
USER: genes 1 Rotation |==|  0.38844 0.82241 0.13975 0.56183
USER: genes 2 Torsion [C]-CA--N-[C] |==|  0.80060
USER: genes 3 Torsion [N]-C--CA-[N] |==|  0.93169
USER: genes 4 Torsion [C]-CA--CB-[SG] |==|  0.66113
USER: genes 5 Torsion [CA]-CB--SG-[HG] |==|  0.29882
USER: genes 6 Torsion [C]-CA--N-[C] |==|  0.82697
USER: genes 7 Torsion [N]-C--CA-[N] |==|  0.12817
USER: genes 8 Torsion [C]-CA--CB-[CG] |==|  0.47844
USER: genes 9 Torsion [CA]-CB--CG-[CD] |==|  0.15288
USER: genes 10 Torsion [CB]-CG--CD-[OE1] |==|  0.24971
USER: genes 11 Torsion [C]-CA--N-[C] |==|  0.73660
USER: genes 12 Torsion [N]-C--CA-[N] |==|  0.08261
USER: genes 13 Torsion [C]-CA--CB-[OG] |==|  0.69381
USER: genes 14 Torsion [CA]-CB--OG-[HG] |==|  0.11644
USER: genes 15 Torsion [C]-CA--N-[H1] |==|  0.08118
USER: genes 16 Torsion [N]-CA--CB-[OG1] |==|  0.83950
USER: genes 17 Torsion [CA]-CB--OG1-[HG1] |==|  0.80679
USER: genes 18 Torsion [N]-CA--C-[N] |==|  0.42404
USER: genes 19 Torsion [C]-N--CA-[CB] |==|  0.25232
USER: genes 20 Torsion [N]-CA--C-[N] |==|  0.33458
USER: genes 21 Torsion [N]-CA--C-[N] |==|  0.28473
USER: genes 22 Torsion [C]-N--CA-[CB] |==|  0.16743
USER: genes 23 Torsion [N]-CA--CB-[SG] |==|  0.55455
USER: genes 24 Torsion [CA]-CB--SG-[HG] |==|  0.70108
USER: genes 25 Torsion [N]-CA--C-[OXT] |==|  0.38161
USER: genes 26 Torsion [N]-CA--CB-[OG1] |==|  0.83109
USER: genes 27 Torsion [CA]-CB--OG1-[HG1] |==|  0.36750
ROOT
ATOM      1  CA  THR F   4      36.886 -23.030  38.785  1.00 50.77 LIG 0.20  C 
ENDROOT
BRANCH 1 2
ATOM      2  N   THR F   4      35.534 -23.570  38.956  1.00 51.40 LIG-0.34  N 
ATOM      3 H    THR F   4      35.210 -23.458  39.745  1.00 51.40 LIG 0.16  HD
ATOM      4  C   CYS F   3      34.878 -24.178  37.966  1.00 52.18 LIG 0.24  C 
ATOM      5 O    CYS F   3      35.300 -24.230  36.807  1.00 51.89 LIG-0.27  OA
BRANCH 4 6
ATOM      6  CA  CYS F   3      33.513 -24.784  38.313  1.00 52.92 LIG 0.18  C 
BRANCH 6 7
ATOM      7  CB  CYS F   3      32.369 -23.845  37.905  1.00 52.86 LIG 0.10  C 
BRANCH 7 8
ATOM      8 SG   CYS F   3      31.271 -23.354  39.281  1.00 55.16 LIG-0.18  SA
ATOM      9 HG   CYS F   3      31.474 -22.206  39.565  1.00 55.16 LIG 0.10  HD
ENDBRANCH 7 8
ENDBRANCH 6 7
BRANCH 6 10
ATOM     10  N   CYS F   3      33.465 -25.082  39.747  1.00 53.02 LIG-0.34  N 
ATOM     11 H    CYS F   3      32.862 -24.644  40.176  1.00 53.02 LIG 0.16  HD
ATOM     12  C   GLU F   2      34.287 -25.956  40.324  1.00 53.57 LIG 0.24  C 
ATOM     13 O    GLU F   2      35.040 -26.700  39.687  1.00 53.07 LIG-0.27  OA
BRANCH 12 14
ATOM     14  CA  GLU F   2      34.295 -25.971  41.854  1.00 54.00 LIG 0.18  C 
BRANCH 14 15
ATOM     15  CB  GLU F   2      35.095 -27.213  42.277  1.00 54.10 LIG 0.04  C 
BRANCH 15 16
ATOM     16  CG  GLU F   2      35.407 -27.362  43.760  1.00 55.55 LIG 0.12  C 
BRANCH 16 17
ATOM     17  CD  GLU F   2      34.148 -27.310  44.633  1.00 57.36 LIG 0.17  C 
ATOM     18 OE1  GLU F   2      33.527 -28.365  44.904  1.00 58.39 LIG-0.65  OA
ATOM     19 OE2  GLU F   2      33.775 -26.203  45.074  1.00 58.95 LIG-0.65  OA
ENDBRANCH 16 17
ENDBRANCH 15 16
ENDBRANCH 14 15
BRANCH 14 20
ATOM     20  N   GLU F   2      32.951 -25.964  42.451  1.00 53.99 LIG-0.35  N 
ATOM     21 H    GLU F   2      32.608 -26.750  42.520  1.00 53.99 LIG 0.16  HD
ATOM     22  C   SER F   1      32.310 -24.863  42.852  1.00 54.35 LIG 0.25  C 
ATOM     23 O    SER F   1      32.731 -23.713  42.669  1.00 54.45 LIG-0.27  OA
BRANCH 22 24
ATOM     24  CA  SER F   1      30.964 -25.089  43.553  1.00 54.58 LIG 0.30  C 
BRANCH 24 25
ATOM     25  CB  SER F   1      30.657 -23.930  44.509  1.00 54.63 LIG 0.21  C 
BRANCH 25 26
ATOM     26 OG   SER F   1      30.740 -24.351  45.863  1.00 54.91 LIG-0.40  OA
ATOM     27 HG   SER F   1      31.410 -24.849  45.961  1.00 54.91 LIG 0.21  HD
ENDBRANCH 25 26
ENDBRANCH 24 25
BRANCH 24 28
ATOM     28  N   SER F   1      30.925 -26.395  44.281  1.00 54.74 LIG-0.06  N 
ATOM     29 H1   SER F   1      31.746 -26.613  44.545  1.00 54.74 LIG 0.28  HD
ATOM     30 H2   SER F   1      30.394 -26.323  44.992  1.00 54.74 LIG 0.28  HD
ATOM     31 H3   SER F   1      30.610 -27.028  43.740  1.00 54.74 LIG 0.28  HD
ENDBRANCH 24 28
ENDBRANCH 22 24
ENDBRANCH 14 20
ENDBRANCH 12 14
ENDBRANCH 6 10
ENDBRANCH 4 6
ENDBRANCH 1 2
BRANCH 1 32
ATOM     32  CB  THR F   4      37.347 -22.148  39.959  1.00 51.21 LIG 0.15  C 
ATOM     33  CG2 THR F   4      38.759 -21.623  39.695  1.00 50.61 LIG 0.04  C 
BRANCH 32 34
ATOM     34 OG1  THR F   4      36.434 -21.060  40.141  1.00 51.15 LIG-0.39  OA
ATOM     35 HG1  THR F   4      36.502 -20.525  39.496  1.00 51.15 LIG 0.21  HD
ENDBRANCH 32 34
ENDBRANCH 1 32
BRANCH 1 36
ATOM     36  C   THR F   4      37.832 -24.216  38.692  1.00 49.53 LIG 0.24  C 
ATOM     37  N   THR F   5      38.951 -24.025  38.004  1.00 47.76 LIG-0.34  N 
ATOM     38 H    THR F   5      39.206 -23.250  37.733  1.00 47.76 LIG 0.16  HD
ATOM     39 O    THR F   4      37.525 -25.282  39.216  1.00 50.01 LIG-0.27  OA
BRANCH 37 40
ATOM     40  CA  THR F   5      39.866 -25.101  37.634  1.00 46.83 LIG 0.20  C 
BRANCH 40 41
ATOM     41  C   THR F   5      41.285 -24.538  37.560  1.00 45.74 LIG 0.24  C 
ATOM     42  N   PRO F   6      42.203 -25.082  38.373  1.00 45.40 LIG-0.34  N 
ATOM     43  CA  PRO F   6      43.619 -24.727  38.208  1.00 45.02 LIG 0.18  C 
ATOM     44  CD  PRO F   6      41.984 -25.956  39.541  1.00 45.45 LIG 0.13  C 
ATOM     45  CB  PRO F   6      44.332 -25.596  39.246  1.00 45.11 LIG 0.04  C 
ATOM     46  CG  PRO F   6      43.304 -25.865  40.293  1.00 45.75 LIG 0.02  C 
ATOM     47 O    THR F   5      41.543 -23.610  36.791  1.00 44.21 LIG-0.27  OA
BRANCH 43 48
ATOM     48  C   PRO F   6      44.072 -25.112  36.810  1.00 45.08 LIG 0.24  C 
ATOM     49  N   CYS F   7      44.186 -24.144  35.902  1.00 44.40 LIG-0.34  N 
ATOM     50 H    CYS F   7      44.102 -23.303  36.059  1.00 44.40 LIG 0.16  HD
ATOM     51 O    PRO F   6      44.300 -26.298  36.564  1.00 44.91 LIG-0.27  OA
BRANCH 49 52
ATOM     52  CA  CYS F   7      44.477 -24.503  34.517  1.00 45.02 LIG 0.19  C 
BRANCH 52 53
ATOM     53  CB  CYS F   7      43.366 -25.403  33.953  1.00 44.51 LIG 0.11  C 
BRANCH 53 54
ATOM     54 SG   CYS F   7      43.941 -26.338  32.470  1.00 46.73 LIG-0.18  SA
ATOM     55 HG   CYS F   7      43.428 -25.883  31.485  1.00 46.73 LIG 0.10  HD
ENDBRANCH 53 54
ENDBRANCH 52 53
BRANCH 52 56
ATOM     56  C   CYS F   7      44.839 -23.296  33.629  1.00 45.05 LIG 0.20  C 
ATOM     57 OXT  CYS F   7      45.770 -23.338  32.810  1.00 44.33 LIG-0.65  OA
ATOM     58 O    CYS F   7      44.210 -22.230  33.783  1.00 44.51 LIG-0.65  OA
ENDBRANCH 52 56
ENDBRANCH 49 52
ENDBRANCH 43 48
ENDBRANCH 40 41
BRANCH 40 59
ATOM     59  CB  THR F   5      39.485 -25.669  36.256  1.00 46.83 LIG 0.15  C 
ATOM     60  CG2 THR F   5      40.460 -26.735  35.779  1.00 46.88 LIG 0.04  C 
BRANCH 59 61
ATOM     61 OG1  THR F   5      38.154 -26.201  36.314  1.00 48.31 LIG-0.39  OA
ATOM     62 HG1  THR F   5      37.712 -25.922  35.657  1.00 48.31 LIG 0.21  HD
ENDBRANCH 59 61
ENDBRANCH 40 59
ENDBRANCH 37 40
ENDBRANCH 1 36
TORSDOF 26
ENDMDL
MODEL 8
USER: ADFR SOLUTION from run 65
USER: SCORE 17.699377 LL:  -6.316 LR: -13.156 RR:   0.000 FEB:  -5.401
USER: RMSD 5.094127
USER: SEED 64
USER: STATUS no improvement in best in 4 clusters for 5 generations
USER: GENES 28
USER: genes 0 Translation |==|  0.39930 0.54975 0.65188
USER: genes 1 Rotation |==|  0.89362 0.48174 0.19261 0.51552
USER: genes 2 Torsion [C]-CA--N-[C] |==|  0.59926
USER: genes 3 Torsion [N]-C--CA-[N] |==|  0.40657
USER: genes 4 Torsion [C]-CA--CB-[SG] |==|  0.26387
USER: genes 5 Torsion [CA]-CB--SG-[HG] |==|  0.05335
USER: genes 6 Torsion [C]-CA--N-[C] |==|  0.62983
USER: genes 7 Torsion [N]-C--CA-[N] |==|  0.43207
USER: genes 8 Torsion [C]-CA--CB-[CG] |==|  0.55384
USER: genes 9 Torsion [CA]-CB--CG-[CD] |==|  0.23753
USER: genes 10 Torsion [CB]-CG--CD-[OE1] |==|  0.69019
USER: genes 11 Torsion [C]-CA--N-[C] |==|  0.59274
USER: genes 12 Torsion [N]-C--CA-[N] |==|  0.04094
USER: genes 13 Torsion [C]-CA--CB-[OG] |==|  0.67542
USER: genes 14 Torsion [CA]-CB--OG-[HG] |==|  0.20480
USER: genes 15 Torsion [C]-CA--N-[H1] |==|  0.82251
USER: genes 16 Torsion [N]-CA--CB-[OG1] |==|  0.87468
USER: genes 17 Torsion [CA]-CB--OG1-[HG1] |==|  0.92547
USER: genes 18 Torsion [N]-CA--C-[N] |==|  0.38431
USER: genes 19 Torsion [C]-N--CA-[CB] |==|  0.41382
USER: genes 20 Torsion [N]-CA--C-[N] |==|  0.86115
USER: genes 21 Torsion [N]-CA--C-[N] |==|  0.91538
USER: genes 22 Torsion [C]-N--CA-[CB] |==|  0.35516
USER: genes 23 Torsion [N]-CA--CB-[SG] |==|  0.89002
USER: genes 24 Torsion [CA]-CB--SG-[HG] |==|  0.69197
USER: genes 25 Torsion [N]-CA--C-[OXT] |==|  0.53561
USER: genes 26 Torsion [N]-CA--CB-[OG1] |==|  0.02293
USER: genes 27 Torsion [CA]-CB--OG1-[HG1] |==|  0.80393
ROOT
ATOM      1  CA  THR F   4      37.595 -26.267  37.801  1.00 50.77 LIG 0.20  C 
ENDROOT
BRANCH 1 2
ATOM      2  N   THR F   4      38.107 -26.459  36.441  1.00 51.40 LIG-0.34  N 
ATOM      3 H    THR F   4      37.599 -26.138  35.826  1.00 51.40 LIG 0.16  HD
ATOM      4  C   CYS F   3      39.262 -27.082  36.195  1.00 52.18 LIG 0.24  C 
ATOM      5 O    CYS F   3      40.042 -27.436  37.084  1.00 51.89 LIG-0.27  OA
BRANCH 4 6
ATOM      6  CA  CYS F   3      39.626 -27.303  34.723  1.00 52.92 LIG 0.18  C 
BRANCH 6 7
ATOM      7  CB  CYS F   3      39.096 -28.652  34.216  1.00 52.86 LIG 0.10  C 
BRANCH 7 8
ATOM      8 SG   CYS F   3      37.475 -28.555  33.377  1.00 55.16 LIG-0.18  SA
ATOM      9 HG   CYS F   3      37.268 -27.424  33.033  1.00 55.16 LIG 0.10  HD
ENDBRANCH 7 8
ENDBRANCH 6 7
BRANCH 6 10
ATOM     10  N   CYS F   3      41.081 -27.215  34.564  1.00 53.02 LIG-0.34  N 
ATOM     11 H    CYS F   3      41.525 -27.662  35.148  1.00 53.02 LIG 0.16  HD
ATOM     12  C   GLU F   2      41.652 -26.502  33.595  1.00 53.57 LIG 0.24  C 
ATOM     13 O    GLU F   2      41.019 -25.993  32.665  1.00 53.07 LIG-0.27  OA
BRANCH 12 14
ATOM     14  CA  GLU F   2      43.164 -26.293  33.710  1.00 54.00 LIG 0.18  C 
BRANCH 14 15
ATOM     15  CB  GLU F   2      43.374 -25.136  34.698  1.00 54.10 LIG 0.04  C 
BRANCH 15 16
ATOM     16  CG  GLU F   2      44.721 -24.427  34.657  1.00 55.55 LIG 0.12  C 
BRANCH 16 17
ATOM     17  CD  GLU F   2      44.766 -23.313  33.604  1.00 57.36 LIG 0.17  C 
ATOM     18 OE1  GLU F   2      45.489 -23.438  32.587  1.00 58.39 LIG-0.65  OA
ATOM     19 OE2  GLU F   2      44.060 -22.299  33.781  1.00 58.95 LIG-0.65  OA
ENDBRANCH 16 17
ENDBRANCH 15 16
ENDBRANCH 14 15
BRANCH 14 20
ATOM     20  N   GLU F   2      43.823 -26.029  32.421  1.00 53.99 LIG-0.35  N 
ATOM     21 H    GLU F   2      43.328 -25.588  31.873  1.00 53.99 LIG 0.16  HD
ATOM     22  C   SER F   1      45.061 -26.425  32.112  1.00 54.35 LIG 0.25  C 
ATOM     23 O    SER F   1      45.755 -27.151  32.836  1.00 54.45 LIG-0.27  OA
BRANCH 22 24
ATOM     24  CA  SER F   1      45.598 -25.946  30.757  1.00 54.58 LIG 0.30  C 
BRANCH 24 25
ATOM     25  CB  SER F   1      47.064 -25.515  30.885  1.00 54.63 LIG 0.21  C 
BRANCH 25 26
ATOM     26 OG   SER F   1      47.214 -24.132  30.597  1.00 54.91 LIG-0.40  OA
ATOM     27 HG   SER F   1      46.913 -23.677  31.236  1.00 54.91 LIG 0.21  HD
ENDBRANCH 25 26
ENDBRANCH 24 25
BRANCH 24 28
ATOM     28  N   SER F   1      44.771 -24.838  30.187  1.00 54.74 LIG-0.06  N 
ATOM     29 H1   SER F   1      43.950 -25.136  30.018  1.00 54.74 LIG 0.28  HD
ATOM     30 H2   SER F   1      44.728 -24.168  30.772  1.00 54.74 LIG 0.28  HD
ATOM     31 H3   SER F   1      45.143 -24.548  29.433  1.00 54.74 LIG 0.28  HD
ENDBRANCH 24 28
ENDBRANCH 22 24
ENDBRANCH 14 20
ENDBRANCH 12 14
ENDBRANCH 6 10
ENDBRANCH 4 6
ENDBRANCH 1 2
BRANCH 1 32
ATOM     32  CB  THR F   4      37.925 -24.885  38.391  1.00 51.21 LIG 0.15  C 
ATOM     33  CG2 THR F   4      37.648 -24.879  39.894  1.00 50.61 LIG 0.04  C 
BRANCH 32 34
ATOM     34 OG1  THR F   4      39.295 -24.557  38.132  1.00 51.15 LIG-0.39  OA
ATOM     35 HG1  THR F   4      39.742 -25.264  38.054  1.00 51.15 LIG 0.21  HD
ENDBRANCH 32 34
ENDBRANCH 1 32
BRANCH 1 36
ATOM     36  C   THR F   4      36.082 -26.397  37.731  1.00 49.53 LIG 0.24  C 
ATOM     37  N   THR F   5      35.503 -27.079  38.712  1.00 47.76 LIG-0.34  N 
ATOM     38 H    THR F   5      35.923 -27.326  39.420  1.00 47.76 LIG 0.16  HD
ATOM     39 O    THR F   4      35.472 -25.906  36.787  1.00 50.01 LIG-0.27  OA
BRANCH 37 40
ATOM     40  CA  THR F   5      34.100 -27.482  38.697  1.00 46.83 LIG 0.20  C 
BRANCH 40 41
ATOM     41  C   THR F   5      33.268 -26.397  39.380  1.00 45.74 LIG 0.24  C 
ATOM     42  N   PRO F   6      33.683 -25.973  40.583  1.00 45.40 LIG-0.34  N 
ATOM     43  CA  PRO F   6      33.047 -24.800  41.198  1.00 45.02 LIG 0.18  C 
ATOM     44  CD  PRO F   6      34.669 -26.603  41.482  1.00 45.45 LIG 0.13  C 
ATOM     45  CB  PRO F   6      33.838 -24.599  42.493  1.00 45.11 LIG 0.04  C 
ATOM     46  CG  PRO F   6      34.381 -25.948  42.825  1.00 45.75 LIG 0.02  C 
ATOM     47 O    THR F   5      32.252 -25.962  38.836  1.00 44.21 LIG-0.27  OA
BRANCH 43 48
ATOM     48  C   PRO F   6      33.230 -23.599  40.288  1.00 45.08 LIG 0.24  C 
ATOM     49  N   CYS F   7      34.323 -23.550  39.529  1.00 44.40 LIG-0.34  N 
ATOM     50 H    CYS F   7      34.900 -24.181  39.449  1.00 44.40 LIG 0.16  HD
ATOM     51 O    PRO F   6      32.374 -22.710  40.295  1.00 44.91 LIG-0.27  OA
BRANCH 49 52
ATOM     52  CA  CYS F   7      34.596 -22.342  38.755  1.00 45.02 LIG 0.19  C 
BRANCH 52 53
ATOM     53  CB  CYS F   7      36.024 -21.842  39.031  1.00 44.51 LIG 0.11  C 
BRANCH 53 54
ATOM     54 SG   CYS F   7      36.468 -22.017  40.814  1.00 46.73 LIG-0.18  SA
ATOM     55 HG   CYS F   7      36.553 -20.930  41.314  1.00 46.73 LIG 0.10  HD
ENDBRANCH 53 54
ENDBRANCH 52 53
BRANCH 52 56
ATOM     56  C   CYS F   7      34.237 -22.470  37.261  1.00 45.05 LIG 0.20  C 
ATOM     57 OXT  CYS F   7      34.615 -21.638  36.421  1.00 44.33 LIG-0.65  OA
ATOM     58 O    CYS F   7      33.500 -23.409  36.902  1.00 44.51 LIG-0.65  OA
ENDBRANCH 52 56
ENDBRANCH 49 52
ENDBRANCH 43 48
ENDBRANCH 40 41
BRANCH 40 59
ATOM     59  CB  THR F   5      33.920 -28.803  39.464  1.00 46.83 LIG 0.15  C 
ATOM     60  CG2 THR F   5      33.478 -29.943  38.559  1.00 46.88 LIG 0.04  C 
BRANCH 59 61
ATOM     61 OG1  THR F   5      35.149 -29.138  40.124  1.00 48.31 LIG-0.39  OA
ATOM     62 HG1  THR F   5      35.721 -29.366  39.553  1.00 48.31 LIG 0.21  HD
ENDBRANCH 59 61
ENDBRANCH 40 59
ENDBRANCH 37 40
ENDBRANCH 1 36
TORSDOF 26
ENDMDL
MODEL 9
USER: ADFR SOLUTION from run 82
USER: SCORE 17.695899 LL:  -5.257 LR: -13.162 RR:   0.000 FEB:  -5.406
USER: RMSD 11.492653
USER: SEED 81
USER: STATUS no improvement in best in 6 clusters for 5 generations
USER: GENES 28
USER: genes 0 Translation |==|  0.45113 0.42720 0.47996
USER: genes 1 Rotation |==|  0.83469 0.80183 0.71513 0.52442
USER: genes 2 Torsion [C]-CA--N-[C] |==|  0.68271
USER: genes 3 Torsion [N]-C--CA-[N] |==|  0.32123
USER: genes 4 Torsion [C]-CA--CB-[SG] |==|  0.27908
USER: genes 5 Torsion [CA]-CB--SG-[HG] |==|  0.86004
USER: genes 6 Torsion [C]-CA--N-[C] |==|  0.82069
USER: genes 7 Torsion [N]-C--CA-[N] |==|  0.40309
USER: genes 8 Torsion [C]-CA--CB-[CG] |==|  0.94349
USER: genes 9 Torsion [CA]-CB--CG-[CD] |==|  0.59027
USER: genes 10 Torsion [CB]-CG--CD-[OE1] |==|  0.06358
USER: genes 11 Torsion [C]-CA--N-[C] |==|  0.83707
USER: genes 12 Torsion [N]-C--CA-[N] |==|  0.09478
USER: genes 13 Torsion [C]-CA--CB-[OG] |==|  0.64774
USER: genes 14 Torsion [CA]-CB--OG-[HG] |==|  0.47291
USER: genes 15 Torsion [C]-CA--N-[H1] |==|  0.56244
USER: genes 16 Torsion [N]-CA--CB-[OG1] |==|  0.93706
USER: genes 17 Torsion [CA]-CB--OG1-[HG1] |==|  0.03921
USER: genes 18 Torsion [N]-CA--C-[N] |==|  0.39445
USER: genes 19 Torsion [C]-N--CA-[CB] |==|  0.76005
USER: genes 20 Torsion [N]-CA--C-[N] |==|  0.17133
USER: genes 21 Torsion [N]-CA--C-[N] |==|  0.26796
USER: genes 22 Torsion [C]-N--CA-[CB] |==|  0.35965
USER: genes 23 Torsion [N]-CA--CB-[SG] |==|  0.99028
USER: genes 24 Torsion [CA]-CB--SG-[HG] |==|  0.12514
USER: genes 25 Torsion [N]-CA--C-[OXT] |==|  0.05751
USER: genes 26 Torsion [N]-CA--CB-[OG1] |==|  0.94079
USER: genes 27 Torsion [CA]-CB--OG1-[HG1] |==|  0.14146
ROOT
ATOM      1  CA  THR F   4      38.955 -28.289  33.675  1.00 50.77 LIG 0.20  C 
ENDROOT
BRANCH 1 2
ATOM      2  N   THR F   4      38.746 -27.142  34.563  1.00 51.40 LIG-0.34  N 
ATOM      3 H    THR F   4      38.426 -26.448  34.170  1.00 51.40 LIG 0.16  HD
ATOM      4  C   CYS F   3      39.033 -27.187  35.867  1.00 52.18 LIG 0.24  C 
ATOM      5 O    CYS F   3      39.380 -28.219  36.447  1.00 51.89 LIG-0.27  OA
BRANCH 4 6
ATOM      6  CA  CYS F   3      38.862 -25.885  36.656  1.00 52.92 LIG 0.18  C 
BRANCH 6 7
ATOM      7  CB  CYS F   3      40.180 -25.458  37.317  1.00 52.86 LIG 0.10  C 
BRANCH 7 8
ATOM      8 SG   CYS F   3      41.081 -24.144  36.421  1.00 55.16 LIG-0.18  SA
ATOM      9 HG   CYS F   3      41.186 -24.448  35.265  1.00 55.16 LIG 0.10  HD
ENDBRANCH 7 8
ENDBRANCH 6 7
BRANCH 6 10
ATOM     10  N   CYS F   3      37.803 -26.058  37.654  1.00 53.02 LIG-0.34  N 
ATOM     11 H    CYS F   3      38.076 -26.003  38.468  1.00 53.02 LIG 0.16  HD
ATOM     12  C   GLU F   2      36.533 -26.279  37.319  1.00 53.57 LIG 0.24  C 
ATOM     13 O    GLU F   2      36.114 -26.197  36.160  1.00 53.07 LIG-0.27  OA
BRANCH 12 14
ATOM     14  CA  GLU F   2      35.595 -26.696  38.455  1.00 54.00 LIG 0.18  C 
BRANCH 14 15
ATOM     15  CB  GLU F   2      35.611 -28.231  38.496  1.00 54.10 LIG 0.04  C 
BRANCH 15 16
ATOM     16  CG  GLU F   2      36.073 -28.951  37.237  1.00 55.55 LIG 0.12  C 
BRANCH 16 17
ATOM     17  CD  GLU F   2      35.364 -30.295  37.034  1.00 57.36 LIG 0.17  C 
ATOM     18 OE1  GLU F   2      34.250 -30.506  37.570  1.00 58.39 LIG-0.65  OA
ATOM     19 OE2  GLU F   2      35.916 -31.156  36.317  1.00 58.95 LIG-0.65  OA
ENDBRANCH 16 17
ENDBRANCH 15 16
ENDBRANCH 14 15
BRANCH 14 20
ATOM     20  N   GLU F   2      34.228 -26.172  38.313  1.00 53.99 LIG-0.35  N 
ATOM     21 H    GLU F   2      33.631 -26.790  38.284  1.00 53.99 LIG 0.16  HD
ATOM     22  C   SER F   1      33.922 -24.874  38.235  1.00 54.35 LIG 0.25  C 
ATOM     23 O    SER F   1      34.764 -23.969  38.167  1.00 54.45 LIG-0.27  OA
BRANCH 22 24
ATOM     24  CA  SER F   1      32.425 -24.539  38.206  1.00 54.58 LIG 0.30  C 
BRANCH 24 25
ATOM     25  CB  SER F   1      32.191 -23.095  38.664  1.00 54.63 LIG 0.21  C 
BRANCH 25 26
ATOM     26 OG   SER F   1      31.237 -23.042  39.715  1.00 54.91 LIG-0.40  OA
ATOM     27 HG   SER F   1      31.220 -22.268  40.041  1.00 54.91 LIG 0.21  HD
ENDBRANCH 25 26
ENDBRANCH 24 25
BRANCH 24 28
ATOM     28  N   SER F   1      31.623 -25.490  39.036  1.00 54.74 LIG-0.06  N 
ATOM     29 H1   SER F   1      30.778 -25.489  38.756  1.00 54.74 LIG 0.28  HD
ATOM     30 H2   SER F   1      31.960 -26.311  38.957  1.00 54.74 LIG 0.28  HD
ATOM     31 H3   SER F   1      31.653 -25.239  39.889  1.00 54.74 LIG 0.28  HD
ENDBRANCH 24 28
ENDBRANCH 22 24
ENDBRANCH 14 20
ENDBRANCH 12 14
ENDBRANCH 6 10
ENDBRANCH 4 6
ENDBRANCH 1 2
BRANCH 1 32
ATOM     32  CB  THR F   4      37.702 -28.677  32.870  1.00 51.21 LIG 0.15  C 
ATOM     33  CG2 THR F   4      37.640 -30.195  32.700  1.00 50.61 LIG 0.04  C 
BRANCH 32 34
ATOM     34 OG1  THR F   4      36.527 -28.199  33.534  1.00 51.15 LIG-0.39  OA
ATOM     35 HG1  THR F   4      36.745 -27.639  34.122  1.00 51.15 LIG 0.21  HD
ENDBRANCH 32 34
ENDBRANCH 1 32
BRANCH 1 36
ATOM     36  C   THR F   4      40.043 -27.898  32.689  1.00 49.53 LIG 0.24  C 
ATOM     37  N   THR F   5      40.907 -28.849  32.356  1.00 47.76 LIG-0.34  N 
ATOM     38 H    THR F   5      40.799 -29.675  32.570  1.00 47.76 LIG 0.16  HD
ATOM     39 O    THR F   4      40.098 -26.747  32.268  1.00 50.01 LIG-0.27  OA
BRANCH 37 40
ATOM     40  CA  THR F   5      42.128 -28.601  31.595  1.00 46.83 LIG 0.20  C 
BRANCH 40 41
ATOM     41  C   THR F   5      42.658 -27.212  31.952  1.00 45.74 LIG 0.24  C 
ATOM     42  N   PRO F   6      43.007 -26.999  33.230  1.00 45.40 LIG-0.34  N 
ATOM     43  CA  PRO F   6      43.706 -25.760  33.594  1.00 45.02 LIG 0.18  C 
ATOM     44  CD  PRO F   6      42.685 -27.820  34.413  1.00 45.45 LIG 0.13  C 
ATOM     45  CB  PRO F   6      43.989 -25.930  35.088  1.00 45.11 LIG 0.04  C 
ATOM     46  CG  PRO F   6      42.936 -26.869  35.573  1.00 45.75 LIG 0.02  C 
ATOM     47 O    THR F   5      42.734 -26.338  31.087  1.00 44.21 LIG-0.27  OA
BRANCH 43 48
ATOM     48  C   PRO F   6      45.014 -25.680  32.825  1.00 45.08 LIG 0.24  C 
ATOM     49  N   CYS F   7      45.034 -24.968  31.699  1.00 44.40 LIG-0.34  N 
ATOM     50 H    CYS F   7      44.388 -24.481  31.408  1.00 44.40 LIG 0.16  HD
ATOM     51 O    PRO F   6      45.997 -26.284  33.258  1.00 44.91 LIG-0.27  OA
BRANCH 49 52
ATOM     52  CA  CYS F   7      46.232 -24.993  30.865  1.00 45.02 LIG 0.19  C 
BRANCH 52 53
ATOM     53  CB  CYS F   7      45.861 -25.306  29.406  1.00 44.51 LIG 0.11  C 
BRANCH 53 54
ATOM     54 SG   CYS F   7      44.056 -25.644  29.225  1.00 46.73 LIG-0.18  SA
ATOM     55 HG   CYS F   7      43.431 -24.822  29.837  1.00 46.73 LIG 0.10  HD
ENDBRANCH 53 54
ENDBRANCH 52 53
BRANCH 52 56
ATOM     56  C   CYS F   7      47.138 -23.760  31.048  1.00 45.05 LIG 0.20  C 
ATOM     57 OXT  CYS F   7      47.080 -23.047  32.061  1.00 44.33 LIG-0.65  OA
ATOM     58 O    CYS F   7      47.910 -23.443  30.121  1.00 44.51 LIG-0.65  OA
ENDBRANCH 52 56
ENDBRANCH 49 52
ENDBRANCH 43 48
ENDBRANCH 40 41
BRANCH 40 59
ATOM     59  CB  THR F   5      41.831 -28.646  30.087  1.00 46.83 LIG 0.15  C 
ATOM     60  CG2 THR F   5      42.976 -29.252  29.289  1.00 46.88 LIG 0.04  C 
BRANCH 59 61
ATOM     61 OG1  THR F   5      40.622 -29.385  29.864  1.00 48.31 LIG-0.39  OA
ATOM     62 HG1  THR F   5      40.014 -29.084  30.361  1.00 48.31 LIG 0.21  HD
ENDBRANCH 59 61
ENDBRANCH 40 59
ENDBRANCH 37 40
ENDBRANCH 1 36
TORSDOF 26
ENDMDL
MODEL 10
USER: ADFR SOLUTION from run 22
USER: SCORE 17.426557 LL:  -6.284 LR: -13.010 RR:   0.000 FEB:  -5.255
USER: RMSD 12.670878
USER: SEED 21
USER: STATUS no improvement in best in 7 clusters for 5 generations
USER: GENES 28
USER: genes 0 Translation |==|  0.36010 0.74986 0.69914
USER: genes 1 Rotation |==|  0.38919 0.80978 0.12782 0.55695
USER: genes 2 Torsion [C]-CA--N-[C] |==|  0.78790
USER: genes 3 Torsion [N]-C--CA-[N] |==|  0.91773
USER: genes 4 Torsion [C]-CA--CB-[SG] |==|  0.69329
USER: genes 5 Torsion [CA]-CB--SG-[HG] |==|  0.47345
USER: genes 6 Torsion [C]-CA--N-[C] |==|  0.83200
USER: genes 7 Torsion [N]-C--CA-[N] |==|  0.10776
USER: genes 8 Torsion [C]-CA--CB-[CG] |==|  0.46664
USER: genes 9 Torsion [CA]-CB--CG-[CD] |==|  0.15632
USER: genes 10 Torsion [CB]-CG--CD-[OE1] |==|  0.26461
USER: genes 11 Torsion [C]-CA--N-[C] |==|  0.76099
USER: genes 12 Torsion [N]-C--CA-[N] |==|  0.06002
USER: genes 13 Torsion [C]-CA--CB-[OG] |==|  0.78117
USER: genes 14 Torsion [CA]-CB--OG-[HG] |==|  0.02368
USER: genes 15 Torsion [C]-CA--N-[H1] |==|  0.04229
USER: genes 16 Torsion [N]-CA--CB-[OG1] |==|  0.84164
USER: genes 17 Torsion [CA]-CB--OG1-[HG1] |==|  0.76454
USER: genes 18 Torsion [N]-CA--C-[N] |==|  0.18006
USER: genes 19 Torsion [C]-N--CA-[CB] |==|  0.46290
USER: genes 20 Torsion [N]-CA--C-[N] |==|  0.42484
USER: genes 21 Torsion [N]-CA--C-[N] |==|  0.94451
USER: genes 22 Torsion [C]-N--CA-[CB] |==|  0.43971
USER: genes 23 Torsion [N]-CA--CB-[SG] |==|  0.22715
USER: genes 24 Torsion [CA]-CB--SG-[HG] |==|  0.96894
USER: genes 25 Torsion [N]-CA--C-[OXT] |==|  0.47547
USER: genes 26 Torsion [N]-CA--CB-[OG1] |==|  0.98735
USER: genes 27 Torsion [CA]-CB--OG1-[HG1] |==|  0.22782
ROOT
ATOM      1  CA  THR F   4      36.566 -22.965  38.935  1.00 50.77 LIG 0.20  C 
ENDROOT
BRANCH 1 2
ATOM      2  N   THR F   4      35.207 -23.477  39.135  1.00 51.40 LIG-0.34  N 
ATOM      3 H    THR F   4      34.902 -23.361  39.931  1.00 51.40 LIG 0.16  HD
ATOM      4  C   CYS F   3      34.516 -24.069  38.158  1.00 52.18 LIG 0.24  C 
ATOM      5 O    CYS F   3      34.911 -24.127  36.990  1.00 51.89 LIG-0.27  OA
BRANCH 4 6
ATOM      6  CA  CYS F   3      33.147 -24.648  38.533  1.00 52.92 LIG 0.18  C 
BRANCH 6 7
ATOM      7  CB  CYS F   3      32.025 -23.634  38.268  1.00 52.86 LIG 0.10  C 
BRANCH 7 8
ATOM      8 SG   CYS F   3      31.244 -22.963  39.778  1.00 55.16 LIG-0.18  SA
ATOM      9 HG   CYS F   3      30.519 -22.053  39.484  1.00 55.16 LIG 0.10  HD
ENDBRANCH 7 8
ENDBRANCH 6 7
BRANCH 6 10
ATOM     10  N   CYS F   3      33.164 -25.060  39.940  1.00 53.02 LIG-0.34  N 
ATOM     11 H    CYS F   3      32.588 -24.653  40.431  1.00 53.02 LIG 0.16  HD
ATOM     12  C   GLU F   2      34.002 -25.985  40.404  1.00 53.57 LIG 0.24  C 
ATOM     13 O    GLU F   2      34.714 -26.682  39.673  1.00 53.07 LIG-0.27  OA
BRANCH 12 14
ATOM     14  CA  GLU F   2      34.083 -26.123  41.926  1.00 54.00 LIG 0.18  C 
BRANCH 14 15
ATOM     15  CB  GLU F   2      34.720 -27.492  42.209  1.00 54.10 LIG 0.04  C 
BRANCH 15 16
ATOM     16  CG  GLU F   2      35.172 -27.761  43.638  1.00 55.55 LIG 0.12  C 
BRANCH 16 17
ATOM     17  CD  GLU F   2      34.038 -27.592  44.655  1.00 57.36 LIG 0.17  C 
ATOM     18 OE1  GLU F   2      33.376 -28.589  45.031  1.00 58.39 LIG-0.65  OA
ATOM     19 OE2  GLU F   2      33.806 -26.450  45.103  1.00 58.95 LIG-0.65  OA
ENDBRANCH 16 17
ENDBRANCH 15 16
ENDBRANCH 14 15
BRANCH 14 20
ATOM     20  N   GLU F   2      32.784 -25.981  42.601  1.00 53.99 LIG-0.35  N 
ATOM     21 H    GLU F   2      32.392 -26.734  42.741  1.00 53.99 LIG 0.16  HD
ATOM     22  C   SER F   1      32.249 -24.814  42.969  1.00 54.35 LIG 0.25  C 
ATOM     23 O    SER F   1      32.737 -23.711  42.689  1.00 54.45 LIG-0.27  OA
BRANCH 22 24
ATOM     24  CA  SER F   1      30.939 -24.898  43.763  1.00 54.58 LIG 0.30  C 
BRANCH 24 25
ATOM     25  CB  SER F   1      30.870 -23.774  44.804  1.00 54.63 LIG 0.21  C 
BRANCH 25 26
ATOM     26 OG   SER F   1      31.657 -24.088  45.945  1.00 54.91 LIG-0.40  OA
ATOM     27 HG   SER F   1      32.109 -24.780  45.792  1.00 54.91 LIG 0.21  HD
ENDBRANCH 25 26
ENDBRANCH 24 25
BRANCH 24 28
ATOM     28  N   SER F   1      30.765 -26.231  44.417  1.00 54.74 LIG-0.06  N 
ATOM     29 H1   SER F   1      31.542 -26.666  44.418  1.00 54.74 LIG 0.28  HD
ATOM     30 H2   SER F   1      30.489 -26.118  45.256  1.00 54.74 LIG 0.28  HD
ATOM     31 H3   SER F   1      30.161 -26.706  43.968  1.00 54.74 LIG 0.28  HD
ENDBRANCH 24 28
ENDBRANCH 22 24
ENDBRANCH 14 20
ENDBRANCH 12 14
ENDBRANCH 6 10
ENDBRANCH 4 6
ENDBRANCH 1 2
BRANCH 1 32
ATOM     32  CB  THR F   4      37.029 -22.006  40.046  1.00 51.21 LIG 0.15  C 
ATOM     33  CG2 THR F   4      38.440 -21.502  39.745  1.00 50.61 LIG 0.04  C 
BRANCH 32 34
ATOM     34 OG1  THR F   4      36.117 -20.908  40.156  1.00 51.15 LIG-0.39  OA
ATOM     35 HG1  THR F   4      36.322 -20.316  39.597  1.00 51.15 LIG 0.21  HD
ENDBRANCH 32 34
ENDBRANCH 1 32
BRANCH 1 36
ATOM     36  C   THR F   4      37.499 -24.165  38.933  1.00 49.53 LIG 0.24  C 
ATOM     37  N   THR F   5      37.344 -25.031  37.938  1.00 47.76 LIG-0.34  N 
ATOM     38 H    THR F   5      36.843 -24.874  37.256  1.00 47.76 LIG 0.16  HD
ATOM     39 O    THR F   4      38.318 -24.301  39.835  1.00 50.01 LIG-0.27  OA
BRANCH 37 40
ATOM     40  CA  THR F   5      38.000 -26.334  37.891  1.00 46.83 LIG 0.20  C 
BRANCH 40 41
ATOM     41  C   THR F   5      39.478 -26.130  37.559  1.00 45.74 LIG 0.24  C 
ATOM     42  N   PRO F   6      40.338 -27.061  37.998  1.00 45.40 LIG-0.34  N 
ATOM     43  CA  PRO F   6      41.735 -27.030  37.543  1.00 45.02 LIG 0.18  C 
ATOM     44  CD  PRO F   6      40.108 -28.113  39.007  1.00 45.45 LIG 0.13  C 
ATOM     45  CB  PRO F   6      42.353 -28.271  38.190  1.00 45.11 LIG 0.04  C 
ATOM     46  CG  PRO F   6      41.518 -28.530  39.399  1.00 45.75 LIG 0.02  C 
ATOM     47 O    THR F   5      39.839 -25.135  36.930  1.00 44.21 LIG-0.27  OA
BRANCH 43 48
ATOM     48  C   PRO F   6      41.771 -27.161  36.030  1.00 45.08 LIG 0.24  C 
ATOM     49  N   CYS F   7      40.702 -27.673  35.422  1.00 44.40 LIG-0.34  N 
ATOM     50 H    CYS F   7      39.957 -27.864  35.805  1.00 44.40 LIG 0.16  HD
ATOM     51 O    PRO F   6      42.786 -26.807  35.426  1.00 44.91 LIG-0.27  OA
BRANCH 49 52
ATOM     52  CA  CYS F   7      40.765 -27.947  33.989  1.00 45.02 LIG 0.19  C 
BRANCH 52 53
ATOM     53  CB  CYS F   7      39.705 -28.989  33.597  1.00 44.51 LIG 0.11  C 
BRANCH 53 54
ATOM     54 SG   CYS F   7      38.045 -28.213  33.372  1.00 46.73 LIG-0.18  SA
ATOM     55 HG   CYS F   7      38.070 -27.087  33.786  1.00 46.73 LIG 0.10  HD
ENDBRANCH 53 54
ENDBRANCH 52 53
BRANCH 52 56
ATOM     56  C   CYS F   7      40.770 -26.676  33.117  1.00 45.05 LIG 0.20  C 
ATOM     57 OXT  CYS F   7      40.981 -26.718  31.895  1.00 44.33 LIG-0.65  OA
ATOM     58 O    CYS F   7      40.613 -25.570  33.671  1.00 44.51 LIG-0.65  OA
ENDBRANCH 52 56
ENDBRANCH 49 52
ENDBRANCH 43 48
ENDBRANCH 40 41
BRANCH 40 59
ATOM     59  CB  THR F   5      37.361 -27.209  36.799  1.00 46.83 LIG 0.15  C 
ATOM     60  CG2 THR F   5      36.927 -28.568  37.326  1.00 46.88 LIG 0.04  C 
BRANCH 59 61
ATOM     61 OG1  THR F   5      36.243 -26.514  36.229  1.00 48.31 LIG-0.39  OA
ATOM     62 HG1  THR F   5      36.516 -25.971  35.650  1.00 48.31 LIG 0.21  HD
ENDBRANCH 59 61
ENDBRANCH 40 59
ENDBRANCH 37 40
ENDBRANCH 1 36
TORSDOF 26
ENDMDL
MODEL 11
USER: ADFR SOLUTION from run 160
USER: SCORE 16.743325 LL:  -5.543 LR: -12.972 RR:   0.000 FEB:  -5.217
USER: RMSD 10.659732
USER: SEED 159
USER: STATUS searching
USER: GENES 28
USER: genes 0 Translation |==|  0.40078 0.78839 0.71665
USER: genes 1 Rotation |==|  0.36405 0.78767 0.15029 0.66270
USER: genes 2 Torsion [C]-CA--N-[C] |==|  0.57012
USER: genes 3 Torsion [N]-C--CA-[N] |==|  0.87883
USER: genes 4 Torsion [C]-CA--CB-[SG] |==|  0.25019
USER: genes 5 Torsion [CA]-CB--SG-[HG] |==|  0.81790
USER: genes 6 Torsion [C]-CA--N-[C] |==|  0.85359
USER: genes 7 Torsion [N]-C--CA-[N] |==|  0.35823
USER: genes 8 Torsion [C]-CA--CB-[CG] |==|  0.77449
USER: genes 9 Torsion [CA]-CB--CG-[CD] |==|  0.77808
USER: genes 10 Torsion [CB]-CG--CD-[OE1] |==|  0.43262
USER: genes 11 Torsion [C]-CA--N-[C] |==|  0.65232
USER: genes 12 Torsion [N]-C--CA-[N] |==|  0.81872
USER: genes 13 Torsion [C]-CA--CB-[OG] |==|  0.73485
USER: genes 14 Torsion [CA]-CB--OG-[HG] |==|  0.24223
USER: genes 15 Torsion [C]-CA--N-[H1] |==|  0.77426
USER: genes 16 Torsion [N]-CA--CB-[OG1] |==|  0.76868
USER: genes 17 Torsion [CA]-CB--OG1-[HG1] |==|  0.04480
USER: genes 18 Torsion [N]-CA--C-[N] |==|  0.38631
USER: genes 19 Torsion [C]-N--CA-[CB] |==|  0.14725
USER: genes 20 Torsion [N]-CA--C-[N] |==|  0.28861
USER: genes 21 Torsion [N]-CA--C-[N] |==|  0.26282
USER: genes 22 Torsion [C]-N--CA-[CB] |==|  0.34412
USER: genes 23 Torsion [N]-CA--CB-[SG] |==|  0.43971
USER: genes 24 Torsion [CA]-CB--SG-[HG] |==|  0.82533
USER: genes 25 Torsion [N]-CA--C-[OXT] |==|  0.15731
USER: genes 26 Torsion [N]-CA--CB-[OG1] |==|  0.76555
USER: genes 27 Torsion [CA]-CB--OG1-[HG1] |==|  0.02621
ROOT
ATOM      1  CA  THR F   4      37.634 -22.330  39.356  1.00 50.77 LIG 0.20  C 
ENDROOT
BRANCH 1 2
ATOM      2  N   THR F   4      36.583 -23.349  39.279  1.00 51.40 LIG-0.34  N 
ATOM      3 H    THR F   4      36.794 -24.097  39.647  1.00 51.40 LIG 0.16  HD
ATOM      4  C   CYS F   3      35.408 -23.121  38.687  1.00 52.18 LIG 0.24  C 
ATOM      5 O    CYS F   3      35.068 -22.012  38.266  1.00 51.89 LIG-0.27  OA
BRANCH 4 6
ATOM      6  CA  CYS F   3      34.443 -24.307  38.591  1.00 52.92 LIG 0.18  C 
BRANCH 6 7
ATOM      7  CB  CYS F   3      33.711 -24.537  39.921  1.00 52.86 LIG 0.10  C 
BRANCH 7 8
ATOM      8 SG   CYS F   3      32.136 -23.623  40.081  1.00 55.16 LIG-0.18  SA
ATOM      9 HG   CYS F   3      32.359 -22.444  40.104  1.00 55.16 LIG 0.10  HD
ENDBRANCH 7 8
ENDBRANCH 6 7
BRANCH 6 10
ATOM     10  N   CYS F   3      35.184 -25.505  38.183  1.00 53.02 LIG-0.34  N 
ATOM     11 H    CYS F   3      35.068 -26.182  38.700  1.00 53.02 LIG 0.16  HD
ATOM     12  C   GLU F   2      35.966 -25.529  37.105  1.00 53.57 LIG 0.24  C 
ATOM     13 O    GLU F   2      36.007 -24.614  36.277  1.00 53.07 LIG-0.27  OA
BRANCH 12 14
ATOM     14  CA  GLU F   2      36.871 -26.754  36.953  1.00 54.00 LIG 0.18  C 
BRANCH 14 15
ATOM     15  CB  GLU F   2      38.303 -26.280  37.244  1.00 54.10 LIG 0.04  C 
BRANCH 15 16
ATOM     16  CG  GLU F   2      39.046 -25.588  36.110  1.00 55.55 LIG 0.12  C 
BRANCH 16 17
ATOM     17  CD  GLU F   2      39.628 -26.580  35.097  1.00 57.36 LIG 0.17  C 
ATOM     18 OE1  GLU F   2      39.856 -26.215  33.918  1.00 58.39 LIG-0.65  OA
ATOM     19 OE2  GLU F   2      39.881 -27.742  35.479  1.00 58.95 LIG-0.65  OA
ENDBRANCH 16 17
ENDBRANCH 15 16
ENDBRANCH 14 15
BRANCH 14 20
ATOM     20  N   GLU F   2      36.772 -27.400  35.635  1.00 53.99 LIG-0.35  N 
ATOM     21 H    GLU F   2      36.918 -26.859  34.982  1.00 53.99 LIG 0.16  HD
ATOM     22  C   SER F   1      36.488 -28.692  35.448  1.00 54.35 LIG 0.25  C 
ATOM     23 O    SER F   1      36.170 -29.468  36.359  1.00 54.45 LIG-0.27  OA
BRANCH 22 24
ATOM     24  CA  SER F   1      36.548 -29.188  33.997  1.00 54.58 LIG 0.30  C 
BRANCH 24 25
ATOM     25  CB  SER F   1      37.943 -28.951  33.408  1.00 54.63 LIG 0.21  C 
BRANCH 25 26
ATOM     26 OG   SER F   1      37.989 -27.732  32.680  1.00 54.91 LIG-0.40  OA
ATOM     27 HG   SER F   1      38.174 -27.100  33.203  1.00 54.91 LIG 0.21  HD
ENDBRANCH 25 26
ENDBRANCH 24 25
BRANCH 24 28
ATOM     28  N   SER F   1      35.501 -28.546  33.143  1.00 54.74 LIG-0.06  N 
ATOM     29 H1   SER F   1      34.724 -28.964  33.261  1.00 54.74 LIG 0.28  HD
ATOM     30 H2   SER F   1      35.415 -27.690  33.371  1.00 54.74 LIG 0.28  HD
ATOM     31 H3   SER F   1      35.740 -28.602  32.288  1.00 54.74 LIG 0.28  HD
ENDBRANCH 24 28
ENDBRANCH 22 24
ENDBRANCH 14 20
ENDBRANCH 12 14
ENDBRANCH 6 10
ENDBRANCH 4 6
ENDBRANCH 1 2
BRANCH 1 32
ATOM     32  CB  THR F   4      37.489 -21.390  40.565  1.00 51.21 LIG 0.15  C 
ATOM     33  CG2 THR F   4      38.852 -20.809  40.941  1.00 50.61 LIG 0.04  C 
BRANCH 32 34
ATOM     34 OG1  THR F   4      36.563 -20.341  40.262  1.00 51.15 LIG-0.39  OA
ATOM     35 HG1  THR F   4      36.113 -20.551  39.584  1.00 51.15 LIG 0.21  HD
ENDBRANCH 32 34
ENDBRANCH 1 32
BRANCH 1 36
ATOM     36  C   THR F   4      38.959 -23.062  39.487  1.00 49.53 LIG 0.24  C 
ATOM     37  N   THR F   5      39.975 -22.573  38.787  1.00 47.76 LIG-0.34  N 
ATOM     38 H    THR F   5      39.942 -21.814  38.383  1.00 47.76 LIG 0.16  HD
ATOM     39 O    THR F   4      39.033 -24.063  40.192  1.00 50.01 LIG-0.27  OA
BRANCH 37 40
ATOM     40  CA  THR F   5      41.251 -23.262  38.626  1.00 46.83 LIG 0.20  C 
BRANCH 40 41
ATOM     41  C   THR F   5      42.099 -22.499  37.608  1.00 45.74 LIG 0.24  C 
ATOM     42  N   PRO F   6      43.102 -21.747  38.087  1.00 45.40 LIG-0.34  N 
ATOM     43  CA  PRO F   6      44.071 -21.154  37.156  1.00 45.02 LIG 0.18  C 
ATOM     44  CD  PRO F   6      43.334 -21.315  39.478  1.00 45.45 LIG 0.13  C 
ATOM     45  CB  PRO F   6      45.074 -20.455  38.077  1.00 45.11 LIG 0.04  C 
ATOM     46  CG  PRO F   6      44.310 -20.157  39.322  1.00 45.75 LIG 0.02  C 
ATOM     47 O    THR F   5      41.839 -22.574  36.407  1.00 44.21 LIG-0.27  OA
BRANCH 43 48
ATOM     48  C   PRO F   6      44.763 -22.262  36.381  1.00 45.08 LIG 0.24  C 
ATOM     49  N   CYS F   7      44.269 -22.593  35.190  1.00 44.40 LIG-0.34  N 
ATOM     50 H    CYS F   7      43.636 -22.178  34.782  1.00 44.40 LIG 0.16  HD
ATOM     51 O    PRO F   6      45.739 -22.821  36.885  1.00 44.91 LIG-0.27  OA
BRANCH 49 52
ATOM     52  CA  CYS F   7      44.821 -23.749  34.489  1.00 45.02 LIG 0.19  C 
BRANCH 52 53
ATOM     53  CB  CYS F   7      43.707 -24.754  34.155  1.00 44.51 LIG 0.11  C 
BRANCH 53 54
ATOM     54 SG   CYS F   7      44.194 -25.865  32.764  1.00 46.73 LIG-0.18  SA
ATOM     55 HG   CYS F   7      44.362 -25.213  31.771  1.00 46.73 LIG 0.10  HD
ENDBRANCH 53 54
ENDBRANCH 52 53
BRANCH 52 56
ATOM     56  C   CYS F   7      45.728 -23.375  33.299  1.00 45.05 LIG 0.20  C 
ATOM     57 OXT  CYS F   7      46.722 -22.645  33.435  1.00 44.33 LIG-0.65  OA
ATOM     58 O    CYS F   7      45.416 -23.776  32.161  1.00 44.51 LIG-0.65  OA
ENDBRANCH 52 56
ENDBRANCH 49 52
ENDBRANCH 43 48
ENDBRANCH 40 41
BRANCH 40 59
ATOM     59  CB  THR F   5      41.020 -24.691  38.107  1.00 46.83 LIG 0.15  C 
ATOM     60  CG2 THR F   5      42.205 -25.218  37.312  1.00 46.88 LIG 0.04  C 
BRANCH 59 61
ATOM     61 OG1  THR F   5      40.736 -25.558  39.214  1.00 48.31 LIG-0.39  OA
ATOM     62 HG1  THR F   5      40.625 -25.098  39.909  1.00 48.31 LIG 0.21  HD
ENDBRANCH 59 61
ENDBRANCH 40 59
ENDBRANCH 37 40
ENDBRANCH 1 36
TORSDOF 26
ENDMDL
MODEL 12
USER: ADFR SOLUTION from run 184
USER: SCORE 15.715486 LL:  -6.125 LR: -12.951 RR:   0.000 FEB:  -5.196
USER: RMSD 8.016296
USER: SEED 183
USER: STATUS no improvement in best in 8 clusters for 5 generations
USER: GENES 28
USER: genes 0 Translation |==|  0.23699 0.69647 0.70044
USER: genes 1 Rotation |==|  0.48329 0.52950 0.19263 0.89291
USER: genes 2 Torsion [C]-CA--N-[C] |==|  0.68136
USER: genes 3 Torsion [N]-C--CA-[N] |==|  0.59922
USER: genes 4 Torsion [C]-CA--CB-[SG] |==|  0.35244
USER: genes 5 Torsion [CA]-CB--SG-[HG] |==|  0.84613
USER: genes 6 Torsion [C]-CA--N-[C] |==|  0.72991
USER: genes 7 Torsion [N]-C--CA-[N] |==|  0.59341
USER: genes 8 Torsion [C]-CA--CB-[CG] |==|  0.72557
USER: genes 9 Torsion [CA]-CB--CG-[CD] |==|  0.78474
USER: genes 10 Torsion [CB]-CG--CD-[OE1] |==|  0.47673
USER: genes 11 Torsion [C]-CA--N-[C] |==|  0.61308
USER: genes 12 Torsion [N]-C--CA-[N] |==|  0.26172
USER: genes 13 Torsion [C]-CA--CB-[OG] |==|  0.59171
USER: genes 14 Torsion [CA]-CB--OG-[HG] |==|  0.83479
USER: genes 15 Torsion [C]-CA--N-[H1] |==|  0.07300
USER: genes 16 Torsion [N]-CA--CB-[OG1] |==|  0.34376
USER: genes 17 Torsion [CA]-CB--OG1-[HG1] |==|  0.22548
USER: genes 18 Torsion [N]-CA--C-[N] |==|  0.83026
USER: genes 19 Torsion [C]-N--CA-[CB] |==|  0.47946
USER: genes 20 Torsion [N]-CA--C-[N] |==|  0.87848
USER: genes 21 Torsion [N]-CA--C-[N] |==|  0.92156
USER: genes 22 Torsion [C]-N--CA-[CB] |==|  0.41793
USER: genes 23 Torsion [N]-CA--CB-[SG] |==|  0.22796
USER: genes 24 Torsion [CA]-CB--SG-[HG] |==|  0.35325
USER: genes 25 Torsion [N]-CA--C-[OXT] |==|  0.55286
USER: genes 26 Torsion [N]-CA--CB-[OG1] |==|  0.96665
USER: genes 27 Torsion [CA]-CB--OG1-[HG1] |==|  0.26307
ROOT
ATOM      1  CA  THR F   4      33.334 -23.846  38.967  1.00 50.77 LIG 0.20  C 
ENDROOT
BRANCH 1 2
ATOM      2  N   THR F   4      33.709 -25.241  38.719  1.00 51.40 LIG-0.34  N 
ATOM      3 H    THR F   4      33.225 -25.814  39.140  1.00 51.40 LIG 0.16  HD
ATOM      4  C   CYS F   3      34.716 -25.577  37.909  1.00 52.18 LIG 0.24  C 
ATOM      5 O    CYS F   3      35.329 -24.759  37.218  1.00 51.89 LIG-0.27  OA
BRANCH 4 6
ATOM      6  CA  CYS F   3      35.063 -27.067  37.822  1.00 52.92 LIG 0.18  C 
BRANCH 6 7
ATOM      7  CB  CYS F   3      34.549 -27.830  39.051  1.00 52.86 LIG 0.10  C 
BRANCH 7 8
ATOM      8 SG   CYS F   3      33.516 -29.286  38.656  1.00 55.16 LIG-0.18  SA
ATOM      9 HG   CYS F   3      32.601 -28.950  37.956  1.00 55.16 LIG 0.10  HD
ENDBRANCH 7 8
ENDBRANCH 6 7
BRANCH 6 10
ATOM     10  N   CYS F   3      36.514 -27.221  37.676  1.00 53.02 LIG-0.34  N 
ATOM     11 H    CYS F   3      36.946 -27.187  38.418  1.00 53.02 LIG 0.16  HD
ATOM     12  C   GLU F   2      37.098 -27.396  36.492  1.00 53.57 LIG 0.24  C 
ATOM     13 O    GLU F   2      36.469 -27.605  35.450  1.00 53.07 LIG-0.27  OA
BRANCH 12 14
ATOM     14  CA  GLU F   2      38.624 -27.280  36.467  1.00 54.00 LIG 0.18  C 
BRANCH 14 15
ATOM     15  CB  GLU F   2      39.020 -26.432  37.685  1.00 54.10 LIG 0.04  C 
BRANCH 15 16
ATOM     16  CG  GLU F   2      39.301 -24.956  37.437  1.00 55.55 LIG 0.12  C 
BRANCH 16 17
ATOM     17  CD  GLU F   2      40.681 -24.717  36.814  1.00 57.36 LIG 0.17  C 
ATOM     18 OE1  GLU F   2      40.998 -23.574  36.406  1.00 58.39 LIG-0.65  OA
ATOM     19 OE2  GLU F   2      41.475 -25.678  36.740  1.00 58.95 LIG-0.65  OA
ENDBRANCH 16 17
ENDBRANCH 15 16
ENDBRANCH 14 15
BRANCH 14 20
ATOM     20  N   GLU F   2      39.152 -26.711  35.217  1.00 53.99 LIG-0.35  N 
ATOM     21 H    GLU F   2      38.682 -26.055  34.920  1.00 53.99 LIG 0.16  HD
ATOM     22  C   SER F   1      40.246 -27.152  34.590  1.00 54.35 LIG 0.25  C 
ATOM     23 O    SER F   1      40.880 -28.159  34.934  1.00 54.45 LIG-0.27  OA
BRANCH 22 24
ATOM     24  CA  SER F   1      40.687 -26.343  33.363  1.00 54.58 LIG 0.30  C 
BRANCH 24 25
ATOM     25  CB  SER F   1      41.213 -27.278  32.268  1.00 54.63 LIG 0.21  C 
BRANCH 25 26
ATOM     26 OG   SER F   1      42.253 -26.657  31.525  1.00 54.91 LIG-0.40  OA
ATOM     27 HG   SER F   1      41.963 -25.953  31.170  1.00 54.91 LIG 0.21  HD
ENDBRANCH 25 26
ENDBRANCH 24 25
BRANCH 24 28
ATOM     28  N   SER F   1      41.712 -25.312  33.712  1.00 54.74 LIG-0.06  N 
ATOM     29 H1   SER F   1      42.161 -25.571  34.435  1.00 54.74 LIG 0.28  HD
ATOM     30 H2   SER F   1      42.278 -25.214  33.031  1.00 54.74 LIG 0.28  HD
ATOM     31 H3   SER F   1      41.309 -24.536  33.876  1.00 54.74 LIG 0.28  HD
ENDBRANCH 24 28
ENDBRANCH 22 24
ENDBRANCH 14 20
ENDBRANCH 12 14
ENDBRANCH 6 10
ENDBRANCH 4 6
ENDBRANCH 1 2
BRANCH 1 32
ATOM     32  CB  THR F   4      31.847 -23.555  38.700  1.00 51.21 LIG 0.15  C 
ATOM     33  CG2 THR F   4      31.130 -24.838  38.281  1.00 50.61 LIG 0.04  C 
BRANCH 32 34
ATOM     34 OG1  THR F   4      31.239 -23.000  39.872  1.00 51.15 LIG-0.39  OA
ATOM     35 HG1  THR F   4      31.411 -22.179  39.916  1.00 51.15 LIG 0.21  HD
ENDBRANCH 32 34
ENDBRANCH 1 32
BRANCH 1 36
ATOM     36  C   THR F   4      33.611 -23.563  40.434  1.00 49.53 LIG 0.24  C 
ATOM     37  N   THR F   5      32.938 -24.295  41.313  1.00 47.76 LIG-0.34  N 
ATOM     38 H    THR F   5      32.470 -24.980  41.089  1.00 47.76 LIG 0.16  HD
ATOM     39 O    THR F   4      34.402 -22.678  40.744  1.00 50.01 LIG-0.27  OA
BRANCH 37 40
ATOM     40  CA  THR F   5      32.918 -24.020  42.747  1.00 46.83 LIG 0.20  C 
BRANCH 40 41
ATOM     41  C   THR F   5      34.309 -24.292  43.321  1.00 45.74 LIG 0.24  C 
ATOM     42  N   PRO F   6      34.932 -25.408  42.914  1.00 45.40 LIG-0.34  N 
ATOM     43  CA  PRO F   6      36.341 -25.622  43.270  1.00 45.02 LIG 0.18  C 
ATOM     44  CD  PRO F   6      34.356 -26.569  42.209  1.00 45.45 LIG 0.13  C 
ATOM     45  CB  PRO F   6      36.693 -26.937  42.569  1.00 45.11 LIG 0.04  C 
ATOM     46  CG  PRO F   6      35.396 -27.658  42.430  1.00 45.75 LIG 0.02  C 
ATOM     47 O    THR F   5      34.805 -23.512  44.136  1.00 44.21 LIG-0.27  OA
BRANCH 43 48
ATOM     48  C   PRO F   6      37.178 -24.490  42.701  1.00 45.08 LIG 0.24  C 
ATOM     49  N   CYS F   7      36.743 -23.886  41.596  1.00 44.40 LIG-0.34  N 
ATOM     50 H    CYS F   7      35.984 -24.027  41.219  1.00 44.40 LIG 0.16  HD
ATOM     51 O    PRO F   6      38.230 -24.185  43.267  1.00 44.91 LIG-0.27  OA
BRANCH 49 52
ATOM     52  CA  CYS F   7      37.597 -22.896  40.946  1.00 45.02 LIG 0.19  C 
BRANCH 52 53
ATOM     53  CB  CYS F   7      37.326 -22.868  39.433  1.00 44.51 LIG 0.11  C 
BRANCH 53 54
ATOM     54 SG   CYS F   7      35.848 -21.838  39.031  1.00 46.73 LIG-0.18  SA
ATOM     55 HG   CYS F   7      36.142 -21.025  38.198  1.00 46.73 LIG 0.10  HD
ENDBRANCH 53 54
ENDBRANCH 52 53
BRANCH 52 56
ATOM     56  C   CYS F   7      37.574 -21.514  41.630  1.00 45.05 LIG 0.20  C 
ATOM     57 OXT  CYS F   7      37.944 -20.485  41.044  1.00 44.33 LIG-0.65  OA
ATOM     58 O    CYS F   7      37.224 -21.444  42.824  1.00 44.51 LIG-0.65  OA
ENDBRANCH 52 56
ENDBRANCH 49 52
ENDBRANCH 43 48
ENDBRANCH 40 41
BRANCH 40 59
ATOM     59  CB  THR F   5      31.903 -24.938  43.448  1.00 46.83 LIG 0.15  C 
ATOM     60  CG2 THR F   5      31.033 -24.186  44.443  1.00 46.88 LIG 0.04  C 
BRANCH 59 61
ATOM     61 OG1  THR F   5      31.088 -25.585  42.460  1.00 48.31 LIG-0.39  OA
ATOM     62 HG1  THR F   5      31.412 -26.338  42.279  1.00 48.31 LIG 0.21  HD
ENDBRANCH 59 61
ENDBRANCH 40 59
ENDBRANCH 37 40
ENDBRANCH 1 36
TORSDOF 26
ENDMDL
MODEL 13
USER: ADFR SOLUTION from run 116
USER: SCORE 18.153984 LL:  -6.342 LR: -12.937 RR:   0.000 FEB:  -5.181
USER: RMSD 12.281754
USER: SEED 115
USER: STATUS searching
USER: GENES 28
USER: genes 0 Translation |==|  0.25153 0.73436 0.68397
USER: genes 1 Rotation |==|  0.77741 0.24222 0.81552 0.58390
USER: genes 2 Torsion [C]-CA--N-[C] |==|  0.79965
USER: genes 3 Torsion [N]-C--CA-[N] |==|  0.85556
USER: genes 4 Torsion [C]-CA--CB-[SG] |==|  0.51284
USER: genes 5 Torsion [CA]-CB--SG-[HG] |==|  0.44396
USER: genes 6 Torsion [C]-CA--N-[C] |==|  0.23155
USER: genes 7 Torsion [N]-C--CA-[N] |==|  0.04995
USER: genes 8 Torsion [C]-CA--CB-[CG] |==|  0.77847
USER: genes 9 Torsion [CA]-CB--CG-[CD] |==|  0.81679
USER: genes 10 Torsion [CB]-CG--CD-[OE1] |==|  0.84501
USER: genes 11 Torsion [C]-CA--N-[C] |==|  0.67144
USER: genes 12 Torsion [N]-C--CA-[N] |==|  0.10135
USER: genes 13 Torsion [C]-CA--CB-[OG] |==|  0.16155
USER: genes 14 Torsion [CA]-CB--OG-[HG] |==|  0.24982
USER: genes 15 Torsion [C]-CA--N-[H1] |==|  0.72042
USER: genes 16 Torsion [N]-CA--CB-[OG1] |==|  0.54331
USER: genes 17 Torsion [CA]-CB--OG1-[HG1] |==|  0.44268
USER: genes 18 Torsion [N]-CA--C-[N] |==|  0.93421
USER: genes 19 Torsion [C]-N--CA-[CB] |==|  0.76633
USER: genes 20 Torsion [N]-CA--C-[N] |==|  0.25683
USER: genes 21 Torsion [N]-CA--C-[N] |==|  0.29303
USER: genes 22 Torsion [C]-N--CA-[CB] |==|  0.22585
USER: genes 23 Torsion [N]-CA--CB-[SG] |==|  0.15895
USER: genes 24 Torsion [CA]-CB--SG-[HG] |==|  0.87260
USER: genes 25 Torsion [N]-CA--C-[OXT] |==|  0.08637
USER: genes 26 Torsion [N]-CA--CB-[OG1] |==|  0.88974
USER: genes 27 Torsion [CA]-CB--OG1-[HG1] |==|  0.28911
ROOT
ATOM      1  CA  THR F   4      33.716 -23.221  38.571  1.00 50.77 LIG 0.20  C 
ENDROOT
BRANCH 1 2
ATOM      2  N   THR F   4      33.108 -23.628  39.841  1.00 51.40 LIG-0.34  N 
ATOM      3 H    THR F   4      33.481 -23.282  40.535  1.00 51.40 LIG 0.16  HD
ATOM      4  C   CYS F   3      32.067 -24.463  39.900  1.00 52.18 LIG 0.24  C 
ATOM      5 O    CYS F   3      31.463 -24.861  38.901  1.00 51.89 LIG-0.27  OA
BRANCH 4 6
ATOM      6  CA  CYS F   3      31.598 -24.882  41.297  1.00 52.92 LIG 0.18  C 
BRANCH 6 7
ATOM      7  CB  CYS F   3      30.917 -23.716  42.028  1.00 52.86 LIG 0.10  C 
BRANCH 7 8
ATOM      8 SG   CYS F   3      30.441 -24.084  43.754  1.00 55.16 LIG-0.18  SA
ATOM      9 HG   CYS F   3      30.293 -23.057  44.356  1.00 55.16 LIG 0.10  HD
ENDBRANCH 7 8
ENDBRANCH 6 7
BRANCH 6 10
ATOM     10  N   CYS F   3      32.742 -25.388  42.062  1.00 53.02 LIG-0.34  N 
ATOM     11 H    CYS F   3      32.819 -26.244  42.052  1.00 53.02 LIG 0.16  HD
ATOM     12  C   GLU F   2      33.580 -24.582  42.711  1.00 53.57 LIG 0.24  C 
ATOM     13 O    GLU F   2      33.564 -23.352  42.594  1.00 53.07 LIG-0.27  OA
BRANCH 12 14
ATOM     14  CA  GLU F   2      34.563 -25.257  43.671  1.00 54.00 LIG 0.18  C 
BRANCH 14 15
ATOM     15  CB  GLU F   2      35.897 -24.509  43.531  1.00 54.10 LIG 0.04  C 
BRANCH 15 16
ATOM     16  CG  GLU F   2      36.767 -24.867  42.334  1.00 55.55 LIG 0.12  C 
BRANCH 16 17
ATOM     17  CD  GLU F   2      37.295 -26.304  42.399  1.00 57.36 LIG 0.17  C 
ATOM     18 OE1  GLU F   2      37.948 -26.690  43.398  1.00 58.39 LIG-0.65  OA
ATOM     19 OE2  GLU F   2      37.045 -27.073  41.448  1.00 58.95 LIG-0.65  OA
ENDBRANCH 16 17
ENDBRANCH 15 16
ENDBRANCH 14 15
BRANCH 14 20
ATOM     20  N   GLU F   2      34.724 -26.700  43.432  1.00 53.99 LIG-0.35  N 
ATOM     21 H    GLU F   2      35.038 -26.879  42.652  1.00 53.99 LIG 0.16  HD
ATOM     22  C   SER F   1      34.419 -27.650  44.320  1.00 54.35 LIG 0.25  C 
ATOM     23 O    SER F   1      33.867 -27.429  45.406  1.00 54.45 LIG-0.27  OA
BRANCH 22 24
ATOM     24  CA  SER F   1      34.772 -29.086  43.911  1.00 54.58 LIG 0.30  C 
BRANCH 24 25
ATOM     25  CB  SER F   1      34.842 -29.992  45.146  1.00 54.63 LIG 0.21  C 
BRANCH 25 26
ATOM     26 OG   SER F   1      33.610 -29.985  45.854  1.00 54.91 LIG-0.40  OA
ATOM     27 HG   SER F   1      33.113 -30.595  45.558  1.00 54.91 LIG 0.21  HD
ENDBRANCH 25 26
ENDBRANCH 24 25
BRANCH 24 28
ATOM     28  N   SER F   1      36.051 -29.151  43.139  1.00 54.74 LIG-0.06  N 
ATOM     29 H1   SER F   1      35.871 -29.220  42.270  1.00 54.74 LIG 0.28  HD
ATOM     30 H2   SER F   1      36.524 -28.411  43.286  1.00 54.74 LIG 0.28  HD
ATOM     31 H3   SER F   1      36.521 -29.859  43.402  1.00 54.74 LIG 0.28  HD
ENDBRANCH 24 28
ENDBRANCH 22 24
ENDBRANCH 14 20
ENDBRANCH 12 14
ENDBRANCH 6 10
ENDBRANCH 4 6
ENDBRANCH 1 2
BRANCH 1 32
ATOM     32  CB  THR F   4      34.713 -22.058  38.714  1.00 51.21 LIG 0.15  C 
ATOM     33  CG2 THR F   4      36.006 -22.554  39.361  1.00 50.61 LIG 0.04  C 
BRANCH 32 34
ATOM     34 OG1  THR F   4      34.982 -21.485  37.429  1.00 51.15 LIG-0.39  OA
ATOM     35 HG1  THR F   4      35.283 -20.706  37.527  1.00 51.15 LIG 0.21  HD
ENDBRANCH 32 34
ENDBRANCH 1 32
BRANCH 1 36
ATOM     36  C   THR F   4      34.473 -24.424  38.033  1.00 49.53 LIG 0.24  C 
ATOM     37  N   THR F   5      34.853 -25.329  38.926  1.00 47.76 LIG-0.34  N 
ATOM     38 H    THR F   5      34.584 -25.322  39.743  1.00 47.76 LIG 0.16  HD
ATOM     39 O    THR F   4      34.721 -24.500  36.834  1.00 50.01 LIG-0.27  OA
BRANCH 37 40
ATOM     40  CA  THR F   5      35.763 -26.430  38.625  1.00 46.83 LIG 0.20  C 
BRANCH 40 41
ATOM     41  C   THR F   5      36.802 -25.947  37.612  1.00 45.74 LIG 0.24  C 
ATOM     42  N   PRO F   6      37.951 -25.457  38.100  1.00 45.40 LIG-0.34  N 
ATOM     43  CA  PRO F   6      39.063 -25.166  37.184  1.00 45.02 LIG 0.18  C 
ATOM     44  CD  PRO F   6      38.253 -25.045  39.485  1.00 45.45 LIG 0.13  C 
ATOM     45  CB  PRO F   6      40.188 -24.711  38.116  1.00 45.11 LIG 0.04  C 
ATOM     46  CG  PRO F   6      39.495 -24.180  39.325  1.00 45.75 LIG 0.02  C 
ATOM     47 O    THR F   5      36.560 -26.000  36.405  1.00 44.21 LIG-0.27  OA
BRANCH 43 48
ATOM     48  C   PRO F   6      39.467 -26.443  36.468  1.00 45.08 LIG 0.24  C 
ATOM     49  N   CYS F   7      39.115 -26.581  35.191  1.00 44.40 LIG-0.34  N 
ATOM     50 H    CYS F   7      38.744 -25.973  34.709  1.00 44.40 LIG 0.16  HD
ATOM     51 O    PRO F   6      40.088 -27.306  37.093  1.00 44.91 LIG-0.27  OA
BRANCH 49 52
ATOM     52  CA  CYS F   7      39.361 -27.855  34.520  1.00 45.02 LIG 0.19  C 
BRANCH 52 53
ATOM     53  CB  CYS F   7      38.252 -28.862  34.863  1.00 44.51 LIG 0.11  C 
BRANCH 53 54
ATOM     54 SG   CYS F   7      36.585 -28.214  34.407  1.00 46.73 LIG-0.18  SA
ATOM     55 HG   CYS F   7      36.481 -27.078  34.780  1.00 46.73 LIG 0.10  HD
ENDBRANCH 53 54
ENDBRANCH 52 53
BRANCH 52 56
ATOM     56  C   CYS F   7      39.658 -27.713  33.015  1.00 45.05 LIG 0.20  C 
ATOM     57 OXT  CYS F   7      40.226 -26.713  32.548  1.00 44.33 LIG-0.65  OA
ATOM     58 O    CYS F   7      39.264 -28.608  32.241  1.00 44.51 LIG-0.65  OA
ENDBRANCH 52 56
ENDBRANCH 49 52
ENDBRANCH 43 48
ENDBRANCH 40 41
BRANCH 40 59
ATOM     59  CB  THR F   5      34.985 -27.608  38.014  1.00 46.83 LIG 0.15  C 
ATOM     60  CG2 THR F   5      35.769 -28.911  38.069  1.00 46.88 LIG 0.04  C 
BRANCH 59 61
ATOM     61 OG1  THR F   5      33.730 -27.751  38.695  1.00 48.31 LIG-0.39  OA
ATOM     62 HG1  THR F   5      33.113 -27.451  38.210  1.00 48.31 LIG 0.21  HD
ENDBRANCH 59 61
ENDBRANCH 40 59
ENDBRANCH 37 40
ENDBRANCH 1 36
TORSDOF 26
ENDMDL
MODEL 14
USER: ADFR SOLUTION from run 26
USER: SCORE 16.856067 LL:  -5.113 LR: -12.910 RR:   0.000 FEB:  -5.155
USER: RMSD 11.752457
USER: SEED 25
USER: STATUS no improvement in best in 17 clusters for 5 generations
USER: GENES 28
USER: genes 0 Translation |==|  0.36412 0.77067 0.70366
USER: genes 1 Rotation |==|  0.41859 0.82570 0.14393 0.60252
USER: genes 2 Torsion [C]-CA--N-[C] |==|  0.69291
USER: genes 3 Torsion [N]-C--CA-[N] |==|  0.91065
USER: genes 4 Torsion [C]-CA--CB-[SG] |==|  0.75558
USER: genes 5 Torsion [CA]-CB--SG-[HG] |==|  0.44582
USER: genes 6 Torsion [C]-CA--N-[C] |==|  0.83799
USER: genes 7 Torsion [N]-C--CA-[N] |==|  0.97356
USER: genes 8 Torsion [C]-CA--CB-[CG] |==|  0.44029
USER: genes 9 Torsion [CA]-CB--CG-[CD] |==|  0.58970
USER: genes 10 Torsion [CB]-CG--CD-[OE1] |==|  0.57364
USER: genes 11 Torsion [C]-CA--N-[C] |==|  0.79133
USER: genes 12 Torsion [N]-C--CA-[N] |==|  0.42187
USER: genes 13 Torsion [C]-CA--CB-[OG] |==|  0.81714
USER: genes 14 Torsion [CA]-CB--OG-[HG] |==|  0.06556
USER: genes 15 Torsion [C]-CA--N-[H1] |==|  0.91638
USER: genes 16 Torsion [N]-CA--CB-[OG1] |==|  0.76188
USER: genes 17 Torsion [CA]-CB--OG1-[HG1] |==|  0.03417
USER: genes 18 Torsion [N]-CA--C-[N] |==|  0.37436
USER: genes 19 Torsion [C]-N--CA-[CB] |==|  0.22804
USER: genes 20 Torsion [N]-CA--C-[N] |==|  0.41112
USER: genes 21 Torsion [N]-CA--C-[N] |==|  0.89491
USER: genes 22 Torsion [C]-N--CA-[CB] |==|  0.25078
USER: genes 23 Torsion [N]-CA--CB-[SG] |==|  0.65367
USER: genes 24 Torsion [CA]-CB--SG-[HG] |==|  0.86235
USER: genes 25 Torsion [N]-CA--C-[OXT] |==|  0.02619
USER: genes 26 Torsion [N]-CA--CB-[OG1] |==|  0.92855
USER: genes 27 Torsion [CA]-CB--OG1-[HG1] |==|  0.40936
ROOT
ATOM      1  CA  THR F   4      36.671 -22.622  39.044  1.00 50.77 LIG 0.20  C 
ENDROOT
BRANCH 1 2
ATOM      2  N   THR F   4      35.337 -23.215  38.922  1.00 51.40 LIG-0.34  N 
ATOM      3 H    THR F   4      35.081 -23.649  39.620  1.00 51.40 LIG 0.16  HD
ATOM      4  C   CYS F   3      34.595 -23.086  37.819  1.00 52.18 LIG 0.24  C 
ATOM      5 O    CYS F   3      34.917 -22.366  36.870  1.00 51.89 LIG-0.27  OA
BRANCH 4 6
ATOM      6  CA  CYS F   3      33.263 -23.843  37.791  1.00 52.92 LIG 0.18  C 
BRANCH 6 7
ATOM      7  CB  CYS F   3      32.120 -22.975  38.335  1.00 52.86 LIG 0.10  C 
BRANCH 7 8
ATOM      8 SG   CYS F   3      31.891 -23.080  40.146  1.00 55.16 LIG-0.18  SA
ATOM      9 HG   CYS F   3      31.270 -22.127  40.527  1.00 55.16 LIG 0.10  HD
ENDBRANCH 7 8
ENDBRANCH 6 7
BRANCH 6 10
ATOM     10  N   CYS F   3      33.394 -25.085  38.559  1.00 53.02 LIG-0.34  N 
ATOM     11 H    CYS F   3      32.838 -25.154  39.211  1.00 53.02 LIG 0.16  HD
ATOM     12  C   GLU F   2      34.297 -26.017  38.262  1.00 53.57 LIG 0.24  C 
ATOM     13 O    GLU F   2      34.983 -25.993  37.235  1.00 53.07 LIG-0.27  OA
BRANCH 12 14
ATOM     14  CA  GLU F   2      34.490 -27.128  39.298  1.00 54.00 LIG 0.18  C 
BRANCH 14 15
ATOM     15  CB  GLU F   2      34.004 -28.429  38.641  1.00 54.10 LIG 0.04  C 
BRANCH 15 16
ATOM     16  CG  GLU F   2      34.528 -29.734  39.223  1.00 55.55 LIG 0.12  C 
BRANCH 16 17
ATOM     17  CD  GLU F   2      34.682 -30.831  38.163  1.00 57.36 LIG 0.17  C 
ATOM     18 OE1  GLU F   2      34.612 -32.039  38.493  1.00 58.39 LIG-0.65  OA
ATOM     19 OE2  GLU F   2      34.860 -30.489  36.976  1.00 58.95 LIG-0.65  OA
ENDBRANCH 16 17
ENDBRANCH 15 16
ENDBRANCH 14 15
BRANCH 14 20
ATOM     20  N   GLU F   2      33.799 -26.873  40.571  1.00 53.99 LIG-0.35  N 
ATOM     21 H    GLU F   2      33.088 -27.347  40.670  1.00 53.99 LIG 0.16  HD
ATOM     22  C   SER F   1      34.214 -26.000  41.493  1.00 54.35 LIG 0.25  C 
ATOM     23 O    SER F   1      35.170 -25.230  41.333  1.00 54.45 LIG-0.27  OA
BRANCH 22 24
ATOM     24  CA  SER F   1      33.410 -25.973  42.799  1.00 54.58 LIG 0.30  C 
BRANCH 24 25
ATOM     25  CB  SER F   1      32.182 -25.067  42.653  1.00 54.63 LIG 0.21  C 
BRANCH 25 26
ATOM     26 OG   SER F   1      32.567 -23.712  42.472  1.00 54.91 LIG-0.40  OA
ATOM     27 HG   SER F   1      33.347 -23.681  42.162  1.00 54.91 LIG 0.21  HD
ENDBRANCH 25 26
ENDBRANCH 24 25
BRANCH 24 28
ATOM     28  N   SER F   1      34.246 -25.541  43.962  1.00 54.74 LIG-0.06  N 
ATOM     29 H1   SER F   1      35.091 -25.785  43.828  1.00 54.74 LIG 0.28  HD
ATOM     30 H2   SER F   1      34.203 -24.656  44.046  1.00 54.74 LIG 0.28  HD
ATOM     31 H3   SER F   1      33.941 -25.924  44.705  1.00 54.74 LIG 0.28  HD
ENDBRANCH 24 28
ENDBRANCH 22 24
ENDBRANCH 14 20
ENDBRANCH 12 14
ENDBRANCH 6 10
ENDBRANCH 4 6
ENDBRANCH 1 2
BRANCH 1 32
ATOM     32  CB  THR F   4      36.868 -21.815  40.339  1.00 51.21 LIG 0.15  C 
ATOM     33  CG2 THR F   4      38.344 -21.819  40.738  1.00 50.61 LIG 0.04  C 
BRANCH 32 34
ATOM     34 OG1  THR F   4      36.401 -20.474  40.156  1.00 51.15 LIG-0.39  OA
ATOM     35 HG1  THR F   4      35.959 -20.426  39.443  1.00 51.15 LIG 0.21  HD
ENDBRANCH 32 34
ENDBRANCH 1 32
BRANCH 1 36
ATOM     36  C   THR F   4      37.670 -23.767  39.049  1.00 49.53 LIG 0.24  C 
ATOM     37  N   THR F   5      38.743 -23.617  38.281  1.00 47.76 LIG-0.34  N 
ATOM     38 H    THR F   5      38.945 -22.873  37.900  1.00 47.76 LIG 0.16  HD
ATOM     39 O    THR F   4      37.445 -24.769  39.720  1.00 50.01 LIG-0.27  OA
BRANCH 37 40
ATOM     40  CA  THR F   5      39.692 -24.690  38.000  1.00 46.83 LIG 0.20  C 
BRANCH 40 41
ATOM     41  C   THR F   5      41.020 -24.072  37.563  1.00 45.74 LIG 0.24  C 
ATOM     42  N   PRO F   6      42.140 -24.737  37.883  1.00 45.40 LIG-0.34  N 
ATOM     43  CA  PRO F   6      43.426 -24.303  37.321  1.00 45.02 LIG 0.18  C 
ATOM     44  CD  PRO F   6      42.302 -25.840  38.849  1.00 45.45 LIG 0.13  C 
ATOM     45  CB  PRO F   6      44.419 -25.340  37.851  1.00 45.11 LIG 0.04  C 
ATOM     46  CG  PRO F   6      43.802 -25.857  39.106  1.00 45.75 LIG 0.02  C 
ATOM     47 O    THR F   5      41.034 -22.997  36.961  1.00 44.21 LIG-0.27  OA
BRANCH 43 48
ATOM     48  C   PRO F   6      43.360 -24.376  35.805  1.00 45.08 LIG 0.24  C 
ATOM     49  N   CYS F   7      42.696 -25.392  35.257  1.00 44.40 LIG-0.34  N 
ATOM     50 H    CYS F   7      42.231 -25.972  35.688  1.00 44.40 LIG 0.16  HD
ATOM     51 O    PRO F   6      43.932 -23.508  35.142  1.00 44.91 LIG-0.27  OA
BRANCH 49 52
ATOM     52  CA  CYS F   7      42.739 -25.568  33.808  1.00 45.02 LIG 0.19  C 
BRANCH 52 53
ATOM     53  CB  CYS F   7      43.917 -26.473  33.415  1.00 44.51 LIG 0.11  C 
BRANCH 53 54
ATOM     54 SG   CYS F   7      45.023 -25.650  32.187  1.00 46.73 LIG-0.18  SA
ATOM     55 HG   CYS F   7      44.363 -25.207  31.288  1.00 46.73 LIG 0.10  HD
ENDBRANCH 53 54
ENDBRANCH 52 53
BRANCH 52 56
ATOM     56  C   CYS F   7      41.385 -25.972  33.194  1.00 45.05 LIG 0.20  C 
ATOM     57 OXT  CYS F   7      40.334 -25.961  33.855  1.00 44.33 LIG-0.65  OA
ATOM     58 O    CYS F   7      41.359 -26.375  32.014  1.00 44.51 LIG-0.65  OA
ENDBRANCH 52 56
ENDBRANCH 49 52
ENDBRANCH 43 48
ENDBRANCH 40 41
BRANCH 40 59
ATOM     59  CB  THR F   5      39.162 -25.581  36.864  1.00 46.83 LIG 0.15  C 
ATOM     60  CG2 THR F   5      39.609 -27.029  37.007  1.00 46.88 LIG 0.04  C 
BRANCH 59 61
ATOM     61 OG1  THR F   5      37.730 -25.502  36.828  1.00 48.31 LIG-0.39  OA
ATOM     62 HG1  THR F   5      37.465 -25.580  36.035  1.00 48.31 LIG 0.21  HD
ENDBRANCH 59 61
ENDBRANCH 40 59
ENDBRANCH 37 40
ENDBRANCH 1 36
TORSDOF 26
ENDMDL
MODEL 15
USER: ADFR SOLUTION from run 55
USER: SCORE 16.427102 LL:  -4.617 LR: -12.845 RR:   0.000 FEB:  -5.089
USER: RMSD 11.979800
USER: SEED 54
USER: STATUS no improvement in best in 8 clusters for 5 generations
USER: GENES 28
USER: genes 0 Translation |==|  0.43208 0.71107 0.70452
USER: genes 1 Rotation |==|  0.23788 0.77019 0.26263 0.72792
USER: genes 2 Torsion [C]-CA--N-[C] |==|  0.79328
USER: genes 3 Torsion [N]-C--CA-[N] |==|  0.16539
USER: genes 4 Torsion [C]-CA--CB-[SG] |==|  0.07616
USER: genes 5 Torsion [CA]-CB--SG-[HG] |==|  0.77296
USER: genes 6 Torsion [C]-CA--N-[C] |==|  0.18253
USER: genes 7 Torsion [N]-C--CA-[N] |==|  0.37412
USER: genes 8 Torsion [C]-CA--CB-[CG] |==|  0.29978
USER: genes 9 Torsion [CA]-CB--CG-[CD] |==|  0.64768
USER: genes 10 Torsion [CB]-CG--CD-[OE1] |==|  0.53523
USER: genes 11 Torsion [C]-CA--N-[C] |==|  0.80878
USER: genes 12 Torsion [N]-C--CA-[N] |==|  0.31128
USER: genes 13 Torsion [C]-CA--CB-[OG] |==|  0.54073
USER: genes 14 Torsion [CA]-CB--OG-[HG] |==|  0.60231
USER: genes 15 Torsion [C]-CA--N-[H1] |==|  0.77358
USER: genes 16 Torsion [N]-CA--CB-[OG1] |==|  0.99041
USER: genes 17 Torsion [CA]-CB--OG1-[HG1] |==|  0.49948
USER: genes 18 Torsion [N]-CA--C-[N] |==|  0.99444
USER: genes 19 Torsion [C]-N--CA-[CB] |==|  0.53130
USER: genes 20 Torsion [N]-CA--C-[N] |==|  0.40649
USER: genes 21 Torsion [N]-CA--C-[N] |==|  0.85151
USER: genes 22 Torsion [C]-N--CA-[CB] |==|  0.79249
USER: genes 23 Torsion [N]-CA--CB-[SG] |==|  0.48550
USER: genes 24 Torsion [CA]-CB--SG-[HG] |==|  0.67605
USER: genes 25 Torsion [N]-CA--C-[OXT] |==|  0.58713
USER: genes 26 Torsion [N]-CA--CB-[OG1] |==|  0.49435
USER: genes 27 Torsion [CA]-CB--OG1-[HG1] |==|  0.94762
ROOT
ATOM      1  CA  THR F   4      38.455 -23.605  39.065  1.00 50.77 LIG 0.20  C 
ENDROOT
BRANCH 1 2
ATOM      2  N   THR F   4      38.232 -25.054  39.041  1.00 51.40 LIG-0.34  N 
ATOM      3 H    THR F   4      38.159 -25.410  39.820  1.00 51.40 LIG 0.16  HD
ATOM      4  C   CYS F   3      38.151 -25.745  37.901  1.00 52.18 LIG 0.24  C 
ATOM      5 O    CYS F   3      38.139 -25.213  36.788  1.00 51.89 LIG-0.27  OA
BRANCH 4 6
ATOM      6  CA  CYS F   3      38.018 -27.267  38.026  1.00 52.92 LIG 0.18  C 
BRANCH 6 7
ATOM      7  CB  CYS F   3      38.000 -27.937  36.645  1.00 52.86 LIG 0.10  C 
BRANCH 7 8
ATOM      8 SG   CYS F   3      38.887 -27.007  35.345  1.00 55.16 LIG-0.18  SA
ATOM      9 HG   CYS F   3      38.175 -26.142  34.915  1.00 55.16 LIG 0.10  HD
ENDBRANCH 7 8
ENDBRANCH 6 7
BRANCH 6 10
ATOM     10  N   CYS F   3      36.805 -27.587  38.783  1.00 53.02 LIG-0.34  N 
ATOM     11 H    CYS F   3      36.955 -27.962  39.543  1.00 53.02 LIG 0.16  HD
ATOM     12  C   GLU F   2      35.584 -27.317  38.326  1.00 53.57 LIG 0.24  C 
ATOM     13 O    GLU F   2      35.374 -26.638  37.316  1.00 53.07 LIG-0.27  OA
BRANCH 12 14
ATOM     14  CA  GLU F   2      34.418 -27.938  39.099  1.00 54.00 LIG 0.18  C 
BRANCH 14 15
ATOM     15  CB  GLU F   2      33.945 -29.150  38.282  1.00 54.10 LIG 0.04  C 
BRANCH 15 16
ATOM     16  CG  GLU F   2      34.267 -30.529  38.842  1.00 55.55 LIG 0.12  C 
BRANCH 16 17
ATOM     17  CD  GLU F   2      34.988 -31.422  37.826  1.00 57.36 LIG 0.17  C 
ATOM     18 OE1  GLU F   2      35.109 -32.651  38.043  1.00 58.39 LIG-0.65  OA
ATOM     19 OE2  GLU F   2      35.431 -30.898  36.782  1.00 58.95 LIG-0.65  OA
ENDBRANCH 16 17
ENDBRANCH 15 16
ENDBRANCH 14 15
BRANCH 14 20
ATOM     20  N   GLU F   2      33.317 -26.999  39.361  1.00 53.99 LIG-0.35  N 
ATOM     21 H    GLU F   2      32.602 -27.185  38.920  1.00 53.99 LIG 0.16  HD
ATOM     22  C   SER F   1      33.396 -25.957  40.193  1.00 54.35 LIG 0.25  C 
ATOM     23 O    SER F   1      34.439 -25.602  40.758  1.00 54.45 LIG-0.27  OA
BRANCH 22 24
ATOM     24  CA  SER F   1      32.096 -25.172  40.408  1.00 54.58 LIG 0.30  C 
BRANCH 24 25
ATOM     25  CB  SER F   1      32.304 -23.690  40.076  1.00 54.63 LIG 0.21  C 
BRANCH 25 26
ATOM     26 OG   SER F   1      31.237 -22.899  40.580  1.00 54.91 LIG-0.40  OA
ATOM     27 HG   SER F   1      31.066 -22.280  40.038  1.00 54.91 LIG 0.21  HD
ENDBRANCH 25 26
ENDBRANCH 24 25
BRANCH 24 28
ATOM     28  N   SER F   1      31.570 -25.329  41.800  1.00 54.74 LIG-0.06  N 
ATOM     29 H1   SER F   1      31.122 -26.096  41.863  1.00 54.74 LIG 0.28  HD
ATOM     30 H2   SER F   1      32.249 -25.335  42.375  1.00 54.74 LIG 0.28  HD
ATOM     31 H3   SER F   1      31.026 -24.651  41.990  1.00 54.74 LIG 0.28  HD
ENDBRANCH 24 28
ENDBRANCH 22 24
ENDBRANCH 14 20
ENDBRANCH 12 14
ENDBRANCH 6 10
ENDBRANCH 4 6
ENDBRANCH 1 2
BRANCH 1 32
ATOM     32  CB  THR F   4      38.190 -22.967  40.439  1.00 51.21 LIG 0.15  C 
ATOM     33  CG2 THR F   4      37.181 -21.826  40.300  1.00 50.61 LIG 0.04  C 
BRANCH 32 34
ATOM     34 OG1  THR F   4      37.704 -23.956  41.353  1.00 51.15 LIG-0.39  OA
ATOM     35 HG1  THR F   4      37.564 -23.602  42.102  1.00 51.15 LIG 0.21  HD
ENDBRANCH 32 34
ENDBRANCH 1 32
BRANCH 1 36
ATOM     36  C   THR F   4      39.915 -23.373  38.714  1.00 49.53 LIG 0.24  C 
ATOM     37  N   THR F   5      40.654 -24.458  38.514  1.00 47.76 LIG-0.34  N 
ATOM     38 H    THR F   5      40.317 -25.247  38.451  1.00 47.76 LIG 0.16  HD
ATOM     39 O    THR F   4      40.353 -22.228  38.656  1.00 50.01 LIG-0.27  OA
BRANCH 37 40
ATOM     40  CA  THR F   5      42.107 -24.433  38.379  1.00 46.83 LIG 0.20  C 
BRANCH 40 41
ATOM     41  C   THR F   5      42.489 -23.361  37.358  1.00 45.74 LIG 0.24  C 
ATOM     42  N   PRO F   6      43.640 -22.702  37.563  1.00 45.40 LIG-0.34  N 
ATOM     43  CA  PRO F   6      44.159 -21.809  36.519  1.00 45.02 LIG 0.18  C 
ATOM     44  CD  PRO F   6      44.459 -22.656  38.789  1.00 45.45 LIG 0.13  C 
ATOM     45  CB  PRO F   6      45.493 -21.324  37.090  1.00 45.11 LIG 0.04  C 
ATOM     46  CG  PRO F   6      45.340 -21.435  38.570  1.00 45.75 LIG 0.02  C 
ATOM     47 O    THR F   5      41.744 -23.119  36.407  1.00 44.21 LIG-0.27  OA
BRANCH 43 48
ATOM     48  C   PRO F   6      44.399 -22.609  35.250  1.00 45.08 LIG 0.24  C 
ATOM     49  N   CYS F   7      45.157 -23.701  35.334  1.00 44.40 LIG-0.34  N 
ATOM     50 H    CYS F   7      45.460 -24.040  36.063  1.00 44.40 LIG 0.16  HD
ATOM     51 O    PRO F   6      43.902 -22.213  34.193  1.00 44.91 LIG-0.27  OA
BRANCH 49 52
ATOM     52  CA  CYS F   7      45.524 -24.406  34.109  1.00 45.02 LIG 0.19  C 
BRANCH 52 53
ATOM     53  CB  CYS F   7      44.322 -25.194  33.565  1.00 44.51 LIG 0.11  C 
BRANCH 53 54
ATOM     54 SG   CYS F   7      44.704 -25.971  31.936  1.00 46.73 LIG-0.18  SA
ATOM     55 HG   CYS F   7      43.990 -25.505  31.092  1.00 46.73 LIG 0.10  HD
ENDBRANCH 53 54
ENDBRANCH 52 53
BRANCH 52 56
ATOM     56  C   CYS F   7      46.231 -23.513  33.070  1.00 45.05 LIG 0.20  C 
ATOM     57 OXT  CYS F   7      46.114 -23.705  31.850  1.00 44.33 LIG-0.65  OA
ATOM     58 O    CYS F   7      46.987 -22.608  33.475  1.00 44.51 LIG-0.65  OA
ENDBRANCH 52 56
ENDBRANCH 49 52
ENDBRANCH 43 48
ENDBRANCH 40 41
BRANCH 40 59
ATOM     59  CB  THR F   5      42.616 -25.796  37.881  1.00 46.83 LIG 0.15  C 
ATOM     60  CG2 THR F   5      41.944 -26.228  36.586  1.00 46.88 LIG 0.04  C 
BRANCH 59 61
ATOM     61 OG1  THR F   5      44.039 -25.737  37.710  1.00 48.31 LIG-0.39  OA
ATOM     62 HG1  THR F   5      44.282 -24.935  37.659  1.00 48.31 LIG 0.21  HD
ENDBRANCH 59 61
ENDBRANCH 40 59
ENDBRANCH 37 40
ENDBRANCH 1 36
TORSDOF 26
ENDMDL
MODEL 16
USER: ADFR SOLUTION from run 15
USER: SCORE 16.645923 LL:  -6.038 LR: -12.812 RR:   0.000 FEB:  -5.056
USER: RMSD 12.253992
USER: SEED 769796
USER: STATUS no improvement in best in 12 clusters for 5 generations
USER: GENES 28
USER: genes 0 Translation |==|  0.33832 0.52976 0.62710
USER: genes 1 Rotation |==|  0.20453 0.63469 0.12358 0.55352
USER: genes 2 Torsion [C]-CA--N-[C] |==|  0.82570
USER: genes 3 Torsion [N]-C--CA-[N] |==|  0.03889
USER: genes 4 Torsion [C]-CA--CB-[SG] |==|  0.35371
USER: genes 5 Torsion [CA]-CB--SG-[HG] |==|  0.41668
USER: genes 6 Torsion [C]-CA--N-[C] |==|  0.74426
USER: genes 7 Torsion [N]-C--CA-[N] |==|  0.92877
USER: genes 8 Torsion [C]-CA--CB-[CG] |==|  0.48355
USER: genes 9 Torsion [CA]-CB--CG-[CD] |==|  0.15537
USER: genes 10 Torsion [CB]-CG--CD-[OE1] |==|  0.22920
USER: genes 11 Torsion [C]-CA--N-[C] |==|  0.71290
USER: genes 12 Torsion [N]-C--CA-[N] |==|  0.29814
USER: genes 13 Torsion [C]-CA--CB-[OG] |==|  0.77587
USER: genes 14 Torsion [CA]-CB--OG-[HG] |==|  0.10913
USER: genes 15 Torsion [C]-CA--N-[H1] |==|  0.82416
USER: genes 16 Torsion [N]-CA--CB-[OG1] |==|  0.54929
USER: genes 17 Torsion [CA]-CB--OG1-[HG1] |==|  0.85185
USER: genes 18 Torsion [N]-CA--C-[N] |==|  0.46008
USER: genes 19 Torsion [C]-N--CA-[CB] |==|  0.32518
USER: genes 20 Torsion [N]-CA--C-[N] |==|  0.21406
USER: genes 21 Torsion [N]-CA--C-[N] |==|  0.34633
USER: genes 22 Torsion [C]-N--CA-[CB] |==|  0.18236
USER: genes 23 Torsion [N]-CA--CB-[SG] |==|  0.09190
USER: genes 24 Torsion [CA]-CB--SG-[HG] |==|  0.13267
USER: genes 25 Torsion [N]-CA--C-[OXT] |==|  0.19377
USER: genes 26 Torsion [N]-CA--CB-[OG1] |==|  0.13254
USER: genes 27 Torsion [CA]-CB--OG1-[HG1] |==|  0.07730
ROOT
ATOM      1  CA  THR F   4      35.994 -26.597  37.206  1.00 50.77 LIG 0.20  C 
ENDROOT
BRANCH 1 2
ATOM      2  N   THR F   4      35.422 -27.293  38.362  1.00 51.40 LIG-0.34  N 
ATOM      3 H    THR F   4      35.139 -26.769  38.983  1.00 51.40 LIG 0.16  HD
ATOM      4  C   CYS F   3      35.353 -28.625  38.431  1.00 52.18 LIG 0.24  C 
ATOM      5 O    CYS F   3      35.651 -29.367  37.491  1.00 51.89 LIG-0.27  OA
BRANCH 4 6
ATOM      6  CA  CYS F   3      34.825 -29.221  39.741  1.00 52.92 LIG 0.18  C 
BRANCH 6 7
ATOM      7  CB  CYS F   3      33.846 -30.373  39.471  1.00 52.86 LIG 0.10  C 
BRANCH 7 8
ATOM      8 SG   CYS F   3      34.250 -31.925  40.349  1.00 55.16 LIG-0.18  SA
ATOM      9 HG   CYS F   3      33.239 -32.529  40.579  1.00 55.16 LIG 0.10  HD
ENDBRANCH 7 8
ENDBRANCH 6 7
BRANCH 6 10
ATOM     10  N   CYS F   3      34.190 -28.164  40.534  1.00 53.02 LIG-0.34  N 
ATOM     11 H    CYS F   3      33.357 -28.046  40.356  1.00 53.02 LIG 0.16  HD
ATOM     12  C   GLU F   2      34.855 -27.458  41.446  1.00 53.57 LIG 0.24  C 
ATOM     13 O    GLU F   2      36.001 -27.734  41.814  1.00 53.07 LIG-0.27  OA
BRANCH 12 14
ATOM     14  CA  GLU F   2      34.137 -26.226  42.004  1.00 54.00 LIG 0.18  C 
BRANCH 14 15
ATOM     15  CB  GLU F   2      33.504 -26.653  43.337  1.00 54.10 LIG 0.04  C 
BRANCH 15 16
ATOM     16  CG  GLU F   2      32.842 -25.563  44.168  1.00 55.55 LIG 0.12  C 
BRANCH 16 17
ATOM     17  CD  GLU F   2      31.760 -24.807  43.390  1.00 57.36 LIG 0.17  C 
ATOM     18 OE1  GLU F   2      30.603 -25.283  43.296  1.00 58.39 LIG-0.65  OA
ATOM     19 OE2  GLU F   2      32.056 -23.709  42.873  1.00 58.95 LIG-0.65  OA
ENDBRANCH 16 17
ENDBRANCH 15 16
ENDBRANCH 14 15
BRANCH 14 20
ATOM     20  N   GLU F   2      33.136 -25.661  41.087  1.00 53.99 LIG-0.35  N 
ATOM     21 H    GLU F   2      32.406 -26.115  41.063  1.00 53.99 LIG 0.16  HD
ATOM     22  C   SER F   1      33.320 -24.557  40.357  1.00 54.35 LIG 0.25  C 
ATOM     23 O    SER F   1      34.394 -23.945  40.290  1.00 54.45 LIG-0.27  OA
BRANCH 22 24
ATOM     24  CA  SER F   1      32.105 -24.076  39.553  1.00 54.58 LIG 0.30  C 
BRANCH 24 25
ATOM     25  CB  SER F   1      32.492 -23.842  38.088  1.00 54.63 LIG 0.21  C 
BRANCH 25 26
ATOM     26 OG   SER F   1      33.129 -22.583  37.924  1.00 54.91 LIG-0.40  OA
ATOM     27 HG   SER F   1      33.640 -22.440  38.575  1.00 54.91 LIG 0.21  HD
ENDBRANCH 25 26
ENDBRANCH 24 25
BRANCH 24 28
ATOM     28  N   SER F   1      31.499 -22.841  40.140  1.00 54.74 LIG-0.06  N 
ATOM     29 H1   SER F   1      31.189 -23.020  40.955  1.00 54.74 LIG 0.28  HD
ATOM     30 H2   SER F   1      32.117 -22.202  40.191  1.00 54.74 LIG 0.28  HD
ATOM     31 H3   SER F   1      30.829 -22.564  39.623  1.00 54.74 LIG 0.28  HD
ENDBRANCH 24 28
ENDBRANCH 22 24
ENDBRANCH 14 20
ENDBRANCH 12 14
ENDBRANCH 6 10
ENDBRANCH 4 6
ENDBRANCH 1 2
BRANCH 1 32
ATOM     32  CB  THR F   4      35.932 -25.064  37.322  1.00 51.21 LIG 0.15  C 
ATOM     33  CG2 THR F   4      37.002 -24.569  38.295  1.00 50.61 LIG 0.04  C 
BRANCH 32 34
ATOM     34 OG1  THR F   4      36.113 -24.468  36.032  1.00 51.15 LIG-0.39  OA
ATOM     35 HG1  THR F   4      36.818 -24.763  35.683  1.00 51.15 LIG 0.21  HD
ENDBRANCH 32 34
ENDBRANCH 1 32
BRANCH 1 36
ATOM     36  C   THR F   4      37.456 -27.001  37.121  1.00 49.53 LIG 0.24  C 
ATOM     37  N   THR F   5      38.081 -26.719  35.983  1.00 47.76 LIG-0.34  N 
ATOM     38 H    THR F   5      37.736 -26.222  35.372  1.00 47.76 LIG 0.16  HD
ATOM     39 O    THR F   4      37.985 -27.579  38.065  1.00 50.01 LIG-0.27  OA
BRANCH 37 40
ATOM     40  CA  THR F   5      39.411 -27.217  35.646  1.00 46.83 LIG 0.20  C 
BRANCH 40 41
ATOM     41  C   THR F   5      40.320 -26.027  35.341  1.00 45.74 LIG 0.24  C 
ATOM     42  N   PRO F   6      40.787 -25.329  36.387  1.00 45.40 LIG-0.34  N 
ATOM     43  CA  PRO F   6      41.819 -24.306  36.174  1.00 45.02 LIG 0.18  C 
ATOM     44  CD  PRO F   6      40.321 -25.361  37.787  1.00 45.45 LIG 0.13  C 
ATOM     45  CB  PRO F   6      42.130 -23.806  37.587  1.00 45.11 LIG 0.04  C 
ATOM     46  CG  PRO F   6      40.890 -24.076  38.371  1.00 45.75 LIG 0.02  C 
ATOM     47 O    THR F   5      40.582 -25.732  34.174  1.00 44.21 LIG-0.27  OA
BRANCH 43 48
ATOM     48  C   PRO F   6      43.052 -24.957  35.571  1.00 45.08 LIG 0.24  C 
ATOM     49  N   CYS F   7      43.521 -24.467  34.425  1.00 44.40 LIG-0.34  N 
ATOM     50 H    CYS F   7      43.232 -23.758  34.034  1.00 44.40 LIG 0.16  HD
ATOM     51 O    PRO F   6      43.560 -25.919  36.151  1.00 44.91 LIG-0.27  OA
BRANCH 49 52
ATOM     52  CA  CYS F   7      44.612 -25.163  33.750  1.00 45.02 LIG 0.19  C 
BRANCH 52 53
ATOM     53  CB  CYS F   7      44.147 -26.547  33.269  1.00 44.51 LIG 0.11  C 
BRANCH 53 54
ATOM     54 SG   CYS F   7      42.367 -26.531  32.784  1.00 46.73 LIG-0.18  SA
ATOM     55 HG   CYS F   7      42.154 -25.590  32.071  1.00 46.73 LIG 0.10  HD
ENDBRANCH 53 54
ENDBRANCH 52 53
BRANCH 52 56
ATOM     56  C   CYS F   7      45.316 -24.312  32.674  1.00 45.05 LIG 0.20  C 
ATOM     57 OXT  CYS F   7      46.025 -23.337  32.968  1.00 44.33 LIG-0.65  OA
ATOM     58 O    CYS F   7      45.118 -24.582  31.473  1.00 44.51 LIG-0.65  OA
ENDBRANCH 52 56
ENDBRANCH 49 52
ENDBRANCH 43 48
ENDBRANCH 40 41
BRANCH 40 59
ATOM     59  CB  THR F   5      39.338 -28.118  34.402  1.00 46.83 LIG 0.15  C 
ATOM     60  CG2 THR F   5      38.751 -29.488  34.712  1.00 46.88 LIG 0.04  C 
BRANCH 59 61
ATOM     61 OG1  THR F   5      38.567 -27.463  33.386  1.00 48.31 LIG-0.39  OA
ATOM     62 HG1  THR F   5      38.626 -26.630  33.482  1.00 48.31 LIG 0.21  HD
ENDBRANCH 59 61
ENDBRANCH 40 59
ENDBRANCH 37 40
ENDBRANCH 1 36
TORSDOF 26
ENDMDL
MODEL 17
USER: ADFR SOLUTION from run 155
USER: SCORE 16.300095 LL:  -4.995 LR: -12.776 RR:   0.000 FEB:  -5.020
USER: RMSD 11.992698
USER: SEED 154
USER: STATUS no improvement in best in 3 clusters for 5 generations
USER: GENES 28
USER: genes 0 Translation |==|  0.43689 0.57866 0.60704
USER: genes 1 Rotation |==|  0.74357 0.14154 0.74902 0.51287
USER: genes 2 Torsion [C]-CA--N-[C] |==|  0.69144
USER: genes 3 Torsion [N]-C--CA-[N] |==|  0.42691
USER: genes 4 Torsion [C]-CA--CB-[SG] |==|  0.53830
USER: genes 5 Torsion [CA]-CB--SG-[HG] |==|  0.71312
USER: genes 6 Torsion [C]-CA--N-[C] |==|  0.80387
USER: genes 7 Torsion [N]-C--CA-[N] |==|  0.32399
USER: genes 8 Torsion [C]-CA--CB-[CG] |==|  0.12507
USER: genes 9 Torsion [CA]-CB--CG-[CD] |==|  0.68494
USER: genes 10 Torsion [CB]-CG--CD-[OE1] |==|  0.81014
USER: genes 11 Torsion [C]-CA--N-[C] |==|  0.22120
USER: genes 12 Torsion [N]-C--CA-[N] |==|  0.33500
USER: genes 13 Torsion [C]-CA--CB-[OG] |==|  0.13844
USER: genes 14 Torsion [CA]-CB--OG-[HG] |==|  0.23075
USER: genes 15 Torsion [C]-CA--N-[H1] |==|  0.77725
USER: genes 16 Torsion [N]-CA--CB-[OG1] |==|  0.79914
USER: genes 17 Torsion [CA]-CB--OG1-[HG1] |==|  0.02629
USER: genes 18 Torsion [N]-CA--C-[N] |==|  0.35474
USER: genes 19 Torsion [C]-N--CA-[CB] |==|  0.76548
USER: genes 20 Torsion [N]-CA--C-[N] |==|  0.21593
USER: genes 21 Torsion [N]-CA--C-[N] |==|  0.84329
USER: genes 22 Torsion [C]-N--CA-[CB] |==|  0.19836
USER: genes 23 Torsion [N]-CA--CB-[SG] |==|  0.75041
USER: genes 24 Torsion [CA]-CB--SG-[HG] |==|  0.93858
USER: genes 25 Torsion [N]-CA--C-[OXT] |==|  0.54666
USER: genes 26 Torsion [N]-CA--CB-[OG1] |==|  0.86859
USER: genes 27 Torsion [CA]-CB--OG1-[HG1] |==|  0.68699
ROOT
ATOM      1  CA  THR F   4      38.581 -25.790  36.725  1.00 50.77 LIG 0.20  C 
ENDROOT
BRANCH 1 2
ATOM      2  N   THR F   4      37.705 -26.644  37.531  1.00 51.40 LIG-0.34  N 
ATOM      3 H    THR F   4      38.125 -27.181  38.057  1.00 51.40 LIG 0.16  HD
ATOM      4  C   CYS F   3      36.374 -26.583  37.446  1.00 52.18 LIG 0.24  C 
ATOM      5 O    CYS F   3      35.777 -25.733  36.781  1.00 51.89 LIG-0.27  OA
BRANCH 4 6
ATOM      6  CA  CYS F   3      35.583 -27.604  38.272  1.00 52.92 LIG 0.18  C 
BRANCH 6 7
ATOM      7  CB  CYS F   3      35.468 -28.946  37.534  1.00 52.86 LIG 0.10  C 
BRANCH 7 8
ATOM      8 SG   CYS F   3      34.227 -30.088  38.238  1.00 55.16 LIG-0.18  SA
ATOM      9 HG   CYS F   3      34.782 -30.943  38.870  1.00 55.16 LIG 0.10  HD
ENDBRANCH 7 8
ENDBRANCH 6 7
BRANCH 6 10
ATOM     10  N   CYS F   3      34.258 -27.057  38.581  1.00 53.02 LIG-0.34  N 
ATOM     11 H    CYS F   3      33.614 -27.442  38.161  1.00 53.02 LIG 0.16  HD
ATOM     12  C   GLU F   2      34.081 -26.054  39.438  1.00 53.57 LIG 0.24  C 
ATOM     13 O    GLU F   2      34.981 -25.612  40.159  1.00 53.07 LIG-0.27  OA
BRANCH 12 14
ATOM     14  CA  GLU F   2      32.687 -25.422  39.463  1.00 54.00 LIG 0.18  C 
BRANCH 14 15
ATOM     15  CB  GLU F   2      32.870 -23.941  39.096  1.00 54.10 LIG 0.04  C 
BRANCH 15 16
ATOM     16  CG  GLU F   2      33.783 -23.629  37.918  1.00 55.55 LIG 0.12  C 
BRANCH 16 17
ATOM     17  CD  GLU F   2      35.054 -22.884  38.342  1.00 57.36 LIG 0.17  C 
ATOM     18 OE1  GLU F   2      34.981 -21.706  38.764  1.00 58.39 LIG-0.65  OA
ATOM     19 OE2  GLU F   2      36.147 -23.484  38.269  1.00 58.95 LIG-0.65  OA
ENDBRANCH 16 17
ENDBRANCH 15 16
ENDBRANCH 14 15
BRANCH 14 20
ATOM     20  N   GLU F   2      31.991 -25.579  40.749  1.00 53.99 LIG-0.35  N 
ATOM     21 H    GLU F   2      31.412 -26.214  40.744  1.00 53.99 LIG 0.16  HD
ATOM     22  C   SER F   1      32.220 -24.823  41.827  1.00 54.35 LIG 0.25  C 
ATOM     23 O    SER F   1      32.968 -23.837  41.833  1.00 54.45 LIG-0.27  OA
BRANCH 22 24
ATOM     24  CA  SER F   1      31.468 -25.229  43.101  1.00 54.58 LIG 0.30  C 
BRANCH 24 25
ATOM     25  CB  SER F   1      30.490 -24.125  43.520  1.00 54.63 LIG 0.21  C 
BRANCH 25 26
ATOM     26 OG   SER F   1      29.685 -23.715  42.423  1.00 54.91 LIG-0.40  OA
ATOM     27 HG   SER F   1      29.036 -24.242  42.340  1.00 54.91 LIG 0.21  HD
ENDBRANCH 25 26
ENDBRANCH 24 25
BRANCH 24 28
ATOM     28  N   SER F   1      32.402 -25.557  44.222  1.00 54.74 LIG-0.06  N 
ATOM     29 H1   SER F   1      32.714 -26.384  44.118  1.00 54.74 LIG 0.28  HD
ATOM     30 H2   SER F   1      33.081 -24.982  44.221  1.00 54.74 LIG 0.28  HD
ATOM     31 H3   SER F   1      31.967 -25.500  44.997  1.00 54.74 LIG 0.28  HD
ENDBRANCH 24 28
ENDBRANCH 22 24
ENDBRANCH 14 20
ENDBRANCH 12 14
ENDBRANCH 6 10
ENDBRANCH 4 6
ENDBRANCH 1 2
BRANCH 1 32
ATOM     32  CB  THR F   4      39.658 -25.064  37.550  1.00 51.21 LIG 0.15  C 
ATOM     33  CG2 THR F   4      40.729 -24.490  36.622  1.00 50.61 LIG 0.04  C 
BRANCH 32 34
ATOM     34 OG1  THR F   4      39.058 -24.022  38.328  1.00 51.15 LIG-0.39  OA
ATOM     35 HG1  THR F   4      38.222 -24.088  38.288  1.00 51.15 LIG 0.21  HD
ENDBRANCH 32 34
ENDBRANCH 1 32
BRANCH 1 36
ATOM     36  C   THR F   4      39.286 -26.692  35.725  1.00 49.53 LIG 0.24  C 
ATOM     37  N   THR F   5      39.213 -26.329  34.450  1.00 47.76 LIG-0.34  N 
ATOM     38 H    THR F   5      38.904 -25.567  34.198  1.00 47.76 LIG 0.16  HD
ATOM     39 O    THR F   4      39.858 -27.704  36.116  1.00 50.01 LIG-0.27  OA
BRANCH 37 40
ATOM     40  CA  THR F   5      39.643 -27.177  33.343  1.00 46.83 LIG 0.20  C 
BRANCH 40 41
ATOM     41  C   THR F   5      39.343 -28.635  33.692  1.00 45.74 LIG 0.24  C 
ATOM     42  N   PRO F   6      38.072 -29.045  33.567  1.00 45.40 LIG-0.34  N 
ATOM     43  CA  PRO F   6      37.756 -30.475  33.692  1.00 45.02 LIG 0.18  C 
ATOM     44  CD  PRO F   6      36.858 -28.221  33.417  1.00 45.45 LIG 0.13  C 
ATOM     45  CB  PRO F   6      36.253 -30.537  33.416  1.00 45.11 LIG 0.04  C 
ATOM     46  CG  PRO F   6      35.738 -29.186  33.781  1.00 45.75 LIG 0.02  C 
ATOM     47 O    THR F   5      40.246 -29.375  34.087  1.00 44.21 LIG-0.27  OA
BRANCH 43 48
ATOM     48  C   PRO F   6      38.512 -31.249  32.627  1.00 45.08 LIG 0.24  C 
ATOM     49  N   CYS F   7      38.331 -30.900  31.354  1.00 44.40 LIG-0.34  N 
ATOM     50 H    CYS F   7      37.881 -30.218  31.086  1.00 44.40 LIG 0.16  HD
ATOM     51 O    PRO F   6      39.248 -32.176  32.973  1.00 44.91 LIG-0.27  OA
BRANCH 49 52
ATOM     52  CA  CYS F   7      38.929 -31.717  30.302  1.00 45.02 LIG 0.19  C 
BRANCH 52 53
ATOM     53  CB  CYS F   7      38.192 -33.062  30.187  1.00 44.51 LIG 0.11  C 
BRANCH 53 54
ATOM     54 SG   CYS F   7      38.943 -34.340  31.287  1.00 46.73 LIG-0.18  SA
ATOM     55 HG   CYS F   7      40.076 -34.034  31.541  1.00 46.73 LIG 0.10  HD
ENDBRANCH 53 54
ENDBRANCH 52 53
BRANCH 52 56
ATOM     56  C   CYS F   7      39.113 -30.969  28.967  1.00 45.05 LIG 0.20  C 
ATOM     57 OXT  CYS F   7      39.312 -31.569  27.900  1.00 44.33 LIG-0.65  OA
ATOM     58 O    CYS F   7      39.117 -29.722  28.976  1.00 44.51 LIG-0.65  OA
ENDBRANCH 52 56
ENDBRANCH 49 52
ENDBRANCH 43 48
ENDBRANCH 40 41
BRANCH 40 59
ATOM     59  CB  THR F   5      41.157 -27.023  33.116  1.00 46.83 LIG 0.15  C 
ATOM     60  CG2 THR F   5      41.621 -27.694  31.831  1.00 46.88 LIG 0.04  C 
BRANCH 59 61
ATOM     61 OG1  THR F   5      41.494 -25.629  33.100  1.00 48.31 LIG-0.39  OA
ATOM     62 HG1  THR F   5      41.743 -25.409  32.329  1.00 48.31 LIG 0.21  HD
ENDBRANCH 59 61
ENDBRANCH 40 59
ENDBRANCH 37 40
ENDBRANCH 1 36
TORSDOF 26
ENDMDL
MODEL 18
USER: ADFR SOLUTION from run 188
USER: SCORE 16.953655 LL:  -5.627 LR: -12.731 RR:   0.000 FEB:  -4.976
USER: RMSD 5.580709
USER: SEED 187
USER: STATUS searching
USER: GENES 28
USER: genes 0 Translation |==|  0.36054 0.40034 0.62111
USER: genes 1 Rotation |==|  0.20493 0.57232 0.70753 0.83858
USER: genes 2 Torsion [C]-CA--N-[C] |==|  0.71689
USER: genes 3 Torsion [N]-C--CA-[N] |==|  0.03388
USER: genes 4 Torsion [C]-CA--CB-[SG] |==|  0.09537
USER: genes 5 Torsion [CA]-CB--SG-[HG] |==|  0.14665
USER: genes 6 Torsion [C]-CA--N-[C] |==|  0.54663
USER: genes 7 Torsion [N]-C--CA-[N] |==|  0.50977
USER: genes 8 Torsion [C]-CA--CB-[CG] |==|  0.48853
USER: genes 9 Torsion [CA]-CB--CG-[CD] |==|  0.22072
USER: genes 10 Torsion [CB]-CG--CD-[OE1] |==|  0.67875
USER: genes 11 Torsion [C]-CA--N-[C] |==|  0.63538
USER: genes 12 Torsion [N]-C--CA-[N] |==|  0.16110
USER: genes 13 Torsion [C]-CA--CB-[OG] |==|  0.47954
USER: genes 14 Torsion [CA]-CB--OG-[HG] |==|  0.44600
USER: genes 15 Torsion [C]-CA--N-[H1] |==|  0.02458
USER: genes 16 Torsion [N]-CA--CB-[OG1] |==|  0.51314
USER: genes 17 Torsion [CA]-CB--OG1-[HG1] |==|  0.89777
USER: genes 18 Torsion [N]-CA--C-[N] |==|  0.96553
USER: genes 19 Torsion [C]-N--CA-[CB] |==|  0.82778
USER: genes 20 Torsion [N]-CA--C-[N] |==|  0.44223
USER: genes 21 Torsion [N]-CA--C-[N] |==|  0.82765
USER: genes 22 Torsion [C]-N--CA-[CB] |==|  0.16573
USER: genes 23 Torsion [N]-CA--CB-[SG] |==|  0.50607
USER: genes 24 Torsion [CA]-CB--SG-[HG] |==|  0.33447
USER: genes 25 Torsion [N]-CA--C-[OXT] |==|  0.03250
USER: genes 26 Torsion [N]-CA--CB-[OG1] |==|  0.62400
USER: genes 27 Torsion [CA]-CB--OG1-[HG1] |==|  0.67284
ROOT
ATOM      1  CA  THR F   4      36.577 -28.732  37.063  1.00 50.77 LIG 0.20  C 
ENDROOT
BRANCH 1 2
ATOM      2  N   THR F   4      37.480 -28.319  35.985  1.00 51.40 LIG-0.34  N 
ATOM      3 H    THR F   4      38.203 -27.941  36.258  1.00 51.40 LIG 0.16  HD
ATOM      4  C   CYS F   3      37.190 -28.517  34.696  1.00 52.18 LIG 0.24  C 
ATOM      5 O    CYS F   3      36.211 -29.162  34.315  1.00 51.89 LIG-0.27  OA
BRANCH 4 6
ATOM      6  CA  CYS F   3      38.176 -27.943  33.672  1.00 52.92 LIG 0.18  C 
BRANCH 6 7
ATOM      7  CB  CYS F   3      38.477 -28.959  32.561  1.00 52.86 LIG 0.10  C 
BRANCH 7 8
ATOM      8 SG   CYS F   3      37.062 -30.026  32.114  1.00 55.16 LIG-0.18  SA
ATOM      9 HG   CYS F   3      36.108 -29.342  31.863  1.00 55.16 LIG 0.10  HD
ENDBRANCH 7 8
ENDBRANCH 6 7
BRANCH 6 10
ATOM     10  N   CYS F   3      39.404 -27.532  34.358  1.00 53.02 LIG-0.34  N 
ATOM     11 H    CYS F   3      39.494 -27.865  35.145  1.00 53.02 LIG 0.16  HD
ATOM     12  C   GLU F   2      40.296 -26.715  33.800  1.00 53.57 LIG 0.24  C 
ATOM     13 O    GLU F   2      40.248 -26.367  32.616  1.00 53.07 LIG-0.27  OA
BRANCH 12 14
ATOM     14  CA  GLU F   2      41.388 -26.171  34.724  1.00 54.00 LIG 0.18  C 
BRANCH 14 15
ATOM     15  CB  GLU F   2      40.671 -25.542  35.928  1.00 54.10 LIG 0.04  C 
BRANCH 15 16
ATOM     16  CG  GLU F   2      41.548 -25.009  37.053  1.00 55.55 LIG 0.12  C 
BRANCH 16 17
ATOM     17  CD  GLU F   2      42.143 -23.632  36.733  1.00 57.36 LIG 0.17  C 
ATOM     18 OE1  GLU F   2      43.384 -23.495  36.613  1.00 58.39 LIG-0.65  OA
ATOM     19 OE2  GLU F   2      41.363 -22.669  36.580  1.00 58.95 LIG-0.65  OA
ENDBRANCH 16 17
ENDBRANCH 15 16
ENDBRANCH 14 15
BRANCH 14 20
ATOM     20  N   GLU F   2      42.291 -25.212  34.070  1.00 53.99 LIG-0.35  N 
ATOM     21 H    GLU F   2      41.874 -24.599  33.635  1.00 53.99 LIG 0.16  HD
ATOM     22  C   SER F   1      43.625 -25.270  34.132  1.00 54.35 LIG 0.25  C 
ATOM     23 O    SER F   1      44.252 -26.198  34.658  1.00 54.45 LIG-0.27  OA
BRANCH 22 24
ATOM     24  CA  SER F   1      44.376 -24.105  33.473  1.00 54.58 LIG 0.30  C 
BRANCH 24 25
ATOM     25  CB  SER F   1      45.890 -24.317  33.580  1.00 54.63 LIG 0.21  C 
BRANCH 25 26
ATOM     26 OG   SER F   1      46.596 -23.337  32.831  1.00 54.91 LIG-0.40  OA
ATOM     27 HG   SER F   1      47.390 -23.295  33.101  1.00 54.91 LIG 0.21  HD
ENDBRANCH 25 26
ENDBRANCH 24 25
BRANCH 24 28
ATOM     28  N   SER F   1      43.987 -22.785  34.061  1.00 54.74 LIG-0.06  N 
ATOM     29 H1   SER F   1      43.480 -22.918  34.780  1.00 54.74 LIG 0.28  HD
ATOM     30 H2   SER F   1      44.720 -22.337  34.294  1.00 54.74 LIG 0.28  HD
ATOM     31 H3   SER F   1      43.531 -22.315  33.459  1.00 54.74 LIG 0.28  HD
ENDBRANCH 24 28
ENDBRANCH 22 24
ENDBRANCH 14 20
ENDBRANCH 12 14
ENDBRANCH 6 10
ENDBRANCH 4 6
ENDBRANCH 1 2
BRANCH 1 32
ATOM     32  CB  THR F   4      37.306 -29.353  38.268  1.00 51.21 LIG 0.15  C 
ATOM     33  CG2 THR F   4      38.234 -28.319  38.906  1.00 50.61 LIG 0.04  C 
BRANCH 32 34
ATOM     34 OG1  THR F   4      36.353 -29.828  39.224  1.00 51.15 LIG-0.39  OA
ATOM     35 HG1  THR F   4      35.697 -29.303  39.252  1.00 51.15 LIG 0.21  HD
ENDBRANCH 32 34
ENDBRANCH 1 32
BRANCH 1 36
ATOM     36  C   THR F   4      35.854 -27.485  37.543  1.00 49.53 LIG 0.24  C 
ATOM     37  N   THR F   5      36.338 -26.323  37.120  1.00 47.76 LIG-0.34  N 
ATOM     38 H    THR F   5      36.938 -26.263  36.507  1.00 47.76 LIG 0.16  HD
ATOM     39 O    THR F   4      34.897 -27.591  38.303  1.00 50.01 LIG-0.27  OA
BRANCH 37 40
ATOM     40  CA  THR F   5      35.908 -25.030  37.643  1.00 46.83 LIG 0.20  C 
BRANCH 40 41
ATOM     41  C   THR F   5      36.137 -25.008  39.154  1.00 45.74 LIG 0.24  C 
ATOM     42  N   PRO F   6      36.215 -23.807  39.745  1.00 45.40 LIG-0.34  N 
ATOM     43  CA  PRO F   6      36.232 -23.719  41.211  1.00 45.02 LIG 0.18  C 
ATOM     44  CD  PRO F   6      36.399 -22.488  39.109  1.00 45.45 LIG 0.13  C 
ATOM     45  CB  PRO F   6      36.247 -22.213  41.482  1.00 45.11 LIG 0.04  C 
ATOM     46  CG  PRO F   6      36.858 -21.609  40.264  1.00 45.75 LIG 0.02  C 
ATOM     47 O    THR F   5      36.262 -26.065  39.776  1.00 44.21 LIG-0.27  OA
BRANCH 43 48
ATOM     48  C   PRO F   6      34.958 -24.333  41.764  1.00 45.08 LIG 0.24  C 
ATOM     49  N   CYS F   7      33.798 -23.772  41.429  1.00 44.40 LIG-0.34  N 
ATOM     50 H    CYS F   7      33.700 -23.136  40.859  1.00 44.40 LIG 0.16  HD
ATOM     51 O    PRO F   6      35.044 -25.311  42.510  1.00 44.91 LIG-0.27  OA
BRANCH 49 52
ATOM     52  CA  CYS F   7      32.570 -24.250  42.060  1.00 45.02 LIG 0.19  C 
BRANCH 52 53
ATOM     53  CB  CYS F   7      32.649 -24.070  43.585  1.00 44.51 LIG 0.11  C 
BRANCH 53 54
ATOM     54 SG   CYS F   7      31.139 -24.724  44.421  1.00 46.73 LIG-0.18  SA
ATOM     55 HG   CYS F   7      31.451 -25.589  45.192  1.00 46.73 LIG 0.10  HD
ENDBRANCH 53 54
ENDBRANCH 52 53
BRANCH 52 56
ATOM     56  C   CYS F   7      31.286 -23.695  41.413  1.00 45.05 LIG 0.20  C 
ATOM     57 OXT  CYS F   7      31.304 -23.094  40.327  1.00 44.33 LIG-0.65  OA
ATOM     58 O    CYS F   7      30.209 -23.807  42.030  1.00 44.51 LIG-0.65  OA
ENDBRANCH 52 56
ENDBRANCH 49 52
ENDBRANCH 43 48
ENDBRANCH 40 41
BRANCH 40 59
ATOM     59  CB  THR F   5      34.410 -24.819  37.365  1.00 46.83 LIG 0.15  C 
ATOM     60  CG2 THR F   5      33.551 -25.073  38.595  1.00 46.88 LIG 0.04  C 
BRANCH 59 61
ATOM     61 OG1  THR F   5      34.201 -23.486  36.878  1.00 48.31 LIG-0.39  OA
ATOM     62 HG1  THR F   5      33.709 -23.066  37.413  1.00 48.31 LIG 0.21  HD
ENDBRANCH 59 61
ENDBRANCH 40 59
ENDBRANCH 37 40
ENDBRANCH 1 36
TORSDOF 26
ENDMDL
MODEL 19
USER: ADFR SOLUTION from run 134
USER: SCORE 17.379904 LL:  -5.226 LR: -12.723 RR:   0.000 FEB:  -4.967
USER: RMSD 6.455366
USER: SEED 133
USER: STATUS no improvement in best in 2 clusters for 5 generations
USER: GENES 28
USER: genes 0 Translation |==|  0.37533 0.58532 0.65393
USER: genes 1 Rotation |==|  0.83900 0.61120 0.24424 0.73938
USER: genes 2 Torsion [C]-CA--N-[C] |==|  0.75470
USER: genes 3 Torsion [N]-C--CA-[N] |==|  0.42829
USER: genes 4 Torsion [C]-CA--CB-[SG] |==|  0.12304
USER: genes 5 Torsion [CA]-CB--SG-[HG] |==|  0.05566
USER: genes 6 Torsion [C]-CA--N-[C] |==|  0.55633
USER: genes 7 Torsion [N]-C--CA-[N] |==|  0.48969
USER: genes 8 Torsion [C]-CA--CB-[CG] |==|  0.52548
USER: genes 9 Torsion [CA]-CB--CG-[CD] |==|  0.23386
USER: genes 10 Torsion [CB]-CG--CD-[OE1] |==|  0.09907
USER: genes 11 Torsion [C]-CA--N-[C] |==|  0.58673
USER: genes 12 Torsion [N]-C--CA-[N] |==|  0.99498
USER: genes 13 Torsion [C]-CA--CB-[OG] |==|  0.70412
USER: genes 14 Torsion [CA]-CB--OG-[HG] |==|  0.22569
USER: genes 15 Torsion [C]-CA--N-[H1] |==|  0.55672
USER: genes 16 Torsion [N]-CA--CB-[OG1] |==|  0.04457
USER: genes 17 Torsion [CA]-CB--OG1-[HG1] |==|  0.63765
USER: genes 18 Torsion [N]-CA--C-[N] |==|  0.45977
USER: genes 19 Torsion [C]-N--CA-[CB] |==|  0.85420
USER: genes 20 Torsion [N]-CA--C-[N] |==|  0.37033
USER: genes 21 Torsion [N]-CA--C-[N] |==|  0.25752
USER: genes 22 Torsion [C]-N--CA-[CB] |==|  0.83636
USER: genes 23 Torsion [N]-CA--CB-[SG] |==|  0.86673
USER: genes 24 Torsion [CA]-CB--SG-[HG] |==|  0.02461
USER: genes 25 Torsion [N]-CA--C-[OXT] |==|  0.80753
USER: genes 26 Torsion [N]-CA--CB-[OG1] |==|  0.81975
USER: genes 27 Torsion [CA]-CB--OG1-[HG1] |==|  0.32878
ROOT
ATOM      1  CA  THR F   4      36.965 -25.680  37.850  1.00 50.77 LIG 0.20  C 
ENDROOT
BRANCH 1 2
ATOM      2  N   THR F   4      37.638 -25.832  36.557  1.00 51.40 LIG-0.34  N 
ATOM      3 H    THR F   4      37.163 -25.585  35.884  1.00 51.40 LIG 0.16  HD
ATOM      4  C   CYS F   3      38.880 -26.312  36.450  1.00 52.18 LIG 0.24  C 
ATOM      5 O    CYS F   3      39.598 -26.552  37.424  1.00 51.89 LIG-0.27  OA
BRANCH 4 6
ATOM      6  CA  CYS F   3      39.421 -26.512  35.030  1.00 52.92 LIG 0.18  C 
BRANCH 6 7
ATOM      7  CB  CYS F   3      38.949 -27.848  34.439  1.00 52.86 LIG 0.10  C 
BRANCH 7 8
ATOM      8 SG   CYS F   3      37.181 -28.213  34.722  1.00 55.16 LIG-0.18  SA
ATOM      9 HG   CYS F   3      36.597 -27.195  34.975  1.00 55.16 LIG 0.10  HD
ENDBRANCH 7 8
ENDBRANCH 6 7
BRANCH 6 10
ATOM     10  N   CYS F   3      40.885 -26.433  35.053  1.00 53.02 LIG-0.34  N 
ATOM     11 H    CYS F   3      41.231 -26.567  35.829  1.00 53.02 LIG 0.16  HD
ATOM     12  C   GLU F   2      41.604 -26.176  33.963  1.00 53.57 LIG 0.24  C 
ATOM     13 O    GLU F   2      41.123 -26.144  32.826  1.00 53.07 LIG-0.27  OA
BRANCH 12 14
ATOM     14  CA  GLU F   2      43.087 -25.869  34.186  1.00 54.00 LIG 0.18  C 
BRANCH 14 15
ATOM     15  CB  GLU F   2      43.147 -24.620  35.079  1.00 54.10 LIG 0.04  C 
BRANCH 15 16
ATOM     16  CG  GLU F   2      44.512 -23.977  35.276  1.00 55.55 LIG 0.12  C 
BRANCH 16 17
ATOM     17  CD  GLU F   2      44.877 -23.012  34.142  1.00 57.36 LIG 0.17  C 
ATOM     18 OE1  GLU F   2      43.988 -22.314  33.599  1.00 58.39 LIG-0.65  OA
ATOM     19 OE2  GLU F   2      46.073 -22.933  33.790  1.00 58.95 LIG-0.65  OA
ENDBRANCH 16 17
ENDBRANCH 15 16
ENDBRANCH 14 15
BRANCH 14 20
ATOM     20  N   GLU F   2      43.844 -25.679  32.940  1.00 53.99 LIG-0.35  N 
ATOM     21 H    GLU F   2      43.371 -25.345  32.304  1.00 53.99 LIG 0.16  HD
ATOM     22  C   SER F   1      45.135 -25.988  32.787  1.00 54.35 LIG 0.25  C 
ATOM     23 O    SER F   1      45.813 -26.568  33.646  1.00 54.45 LIG-0.27  OA
BRANCH 22 24
ATOM     24  CA  SER F   1      45.762 -25.603  31.440  1.00 54.58 LIG 0.30  C 
BRANCH 24 25
ATOM     25  CB  SER F   1      46.958 -24.669  31.654  1.00 54.63 LIG 0.21  C 
BRANCH 25 26
ATOM     26 OG   SER F   1      46.638 -23.337  31.280  1.00 54.91 LIG-0.40  OA
ATOM     27 HG   SER F   1      46.219 -22.963  31.906  1.00 54.91 LIG 0.21  HD
ENDBRANCH 25 26
ENDBRANCH 24 25
BRANCH 24 28
ATOM     28  N   SER F   1      44.764 -24.978  30.518  1.00 54.74 LIG-0.06  N 
ATOM     29 H1   SER F   1      45.057 -25.038  29.679  1.00 54.74 LIG 0.28  HD
ATOM     30 H2   SER F   1      43.985 -25.402  30.591  1.00 54.74 LIG 0.28  HD
ATOM     31 H3   SER F   1      44.657 -24.121  30.734  1.00 54.74 LIG 0.28  HD
ENDBRANCH 24 28
ENDBRANCH 22 24
ENDBRANCH 14 20
ENDBRANCH 12 14
ENDBRANCH 6 10
ENDBRANCH 4 6
ENDBRANCH 1 2
BRANCH 1 32
ATOM     32  CB  THR F   4      35.906 -24.565  37.863  1.00 51.21 LIG 0.15  C 
ATOM     33  CG2 THR F   4      36.429 -23.355  38.639  1.00 50.61 LIG 0.04  C 
BRANCH 32 34
ATOM     34 OG1  THR F   4      35.570 -24.193  36.522  1.00 51.15 LIG-0.39  OA
ATOM     35 HG1  THR F   4      35.609 -23.357  36.444  1.00 51.15 LIG 0.21  HD
ENDBRANCH 32 34
ENDBRANCH 1 32
BRANCH 1 36
ATOM     36  C   THR F   4      36.264 -26.996  38.146  1.00 49.53 LIG 0.24  C 
ATOM     37  N   THR F   5      35.846 -27.174  39.393  1.00 47.76 LIG-0.34  N 
ATOM     38 H    THR F   5      35.844 -26.545  39.980  1.00 47.76 LIG 0.16  HD
ATOM     39 O    THR F   4      36.137 -27.831  37.256  1.00 50.01 LIG-0.27  OA
BRANCH 37 40
ATOM     40  CA  THR F   5      35.349 -28.448  39.904  1.00 46.83 LIG 0.20  C 
BRANCH 40 41
ATOM     41  C   THR F   5      36.500 -29.453  39.930  1.00 45.74 LIG 0.24  C 
ATOM     42  N   PRO F   6      36.654 -30.180  41.047  1.00 45.40 LIG-0.34  N 
ATOM     43  CA  PRO F   6      37.608 -31.296  41.059  1.00 45.02 LIG 0.18  C 
ATOM     44  CD  PRO F   6      36.051 -29.952  42.374  1.00 45.45 LIG 0.13  C 
ATOM     45  CB  PRO F   6      37.434 -31.904  42.453  1.00 45.11 LIG 0.04  C 
ATOM     46  CG  PRO F   6      36.926 -30.786  43.299  1.00 45.75 LIG 0.02  C 
ATOM     47 O    THR F   5      37.252 -29.557  38.959  1.00 44.21 LIG-0.27  OA
BRANCH 43 48
ATOM     48  C   PRO F   6      37.209 -32.308  39.999  1.00 45.08 LIG 0.24  C 
ATOM     49  N   CYS F   7      37.755 -32.194  38.790  1.00 44.40 LIG-0.34  N 
ATOM     50 H    CYS F   7      38.379 -31.643  38.577  1.00 44.40 LIG 0.16  HD
ATOM     51 O    PRO F   6      36.388 -33.181  40.288  1.00 44.91 LIG-0.27  OA
BRANCH 49 52
ATOM     52  CA  CYS F   7      37.282 -33.059  37.713  1.00 45.02 LIG 0.19  C 
BRANCH 52 53
ATOM     53  CB  CYS F   7      37.474 -34.537  38.091  1.00 44.51 LIG 0.11  C 
BRANCH 53 54
ATOM     54 SG   CYS F   7      39.172 -34.853  38.742  1.00 46.73 LIG-0.18  SA
ATOM     55 HG   CYS F   7      39.739 -33.808  38.904  1.00 46.73 LIG 0.10  HD
ENDBRANCH 53 54
ENDBRANCH 52 53
BRANCH 52 56
ATOM     56  C   CYS F   7      35.869 -32.703  37.210  1.00 45.05 LIG 0.20  C 
ATOM     57 OXT  CYS F   7      34.858 -32.885  37.906  1.00 44.33 LIG-0.65  OA
ATOM     58 O    CYS F   7      35.740 -32.271  36.047  1.00 44.51 LIG-0.65  OA
ENDBRANCH 52 56
ENDBRANCH 49 52
ENDBRANCH 43 48
ENDBRANCH 40 41
BRANCH 40 59
ATOM     59  CB  THR F   5      34.238 -28.988  38.987  1.00 46.83 LIG 0.15  C 
ATOM     60  CG2 THR F   5      33.812 -30.400  39.363  1.00 46.88 LIG 0.04  C 
BRANCH 59 61
ATOM     61 OG1  THR F   5      33.113 -28.099  39.031  1.00 48.31 LIG-0.39  OA
ATOM     62 HG1  THR F   5      32.974 -27.786  38.264  1.00 48.31 LIG 0.21  HD
ENDBRANCH 59 61
ENDBRANCH 40 59
ENDBRANCH 37 40
ENDBRANCH 1 36
TORSDOF 26
ENDMDL
MODEL 20
USER: ADFR SOLUTION from run 89
USER: SCORE 16.219090 LL:  -4.748 LR: -12.665 RR:   0.000 FEB:  -4.909
USER: RMSD 12.002729
USER: SEED 88
USER: STATUS no improvement in best in 9 clusters for 5 generations
USER: GENES 28
USER: genes 0 Translation |==|  0.36007 0.75732 0.70737
USER: genes 1 Rotation |==|  0.39601 0.81391 0.15187 0.63947
USER: genes 2 Torsion [C]-CA--N-[C] |==|  0.62336
USER: genes 3 Torsion [N]-C--CA-[N] |==|  0.96085
USER: genes 4 Torsion [C]-CA--CB-[SG] |==|  0.84612
USER: genes 5 Torsion [CA]-CB--SG-[HG] |==|  0.36566
USER: genes 6 Torsion [C]-CA--N-[C] |==|  0.83277
USER: genes 7 Torsion [N]-C--CA-[N] |==|  0.96476
USER: genes 8 Torsion [C]-CA--CB-[CG] |==|  0.46786
USER: genes 9 Torsion [CA]-CB--CG-[CD] |==|  0.52784
USER: genes 10 Torsion [CB]-CG--CD-[OE1] |==|  0.15058
USER: genes 11 Torsion [C]-CA--N-[C] |==|  0.82144
USER: genes 12 Torsion [N]-C--CA-[N] |==|  0.33624
USER: genes 13 Torsion [C]-CA--CB-[OG] |==|  0.56682
USER: genes 14 Torsion [CA]-CB--OG-[HG] |==|  0.74172
USER: genes 15 Torsion [C]-CA--N-[H1] |==|  0.83315
USER: genes 16 Torsion [N]-CA--CB-[OG1] |==|  0.72176
USER: genes 17 Torsion [CA]-CB--OG1-[HG1] |==|  0.83219
USER: genes 18 Torsion [N]-CA--C-[N] |==|  0.38687
USER: genes 19 Torsion [C]-N--CA-[CB] |==|  0.12413
USER: genes 20 Torsion [N]-CA--C-[N] |==|  0.22778
USER: genes 21 Torsion [N]-CA--C-[N] |==|  0.35865
USER: genes 22 Torsion [C]-N--CA-[CB] |==|  0.30365
USER: genes 23 Torsion [N]-CA--CB-[SG] |==|  0.91988
USER: genes 24 Torsion [CA]-CB--SG-[HG] |==|  0.23365
USER: genes 25 Torsion [N]-CA--C-[OXT] |==|  0.43497
USER: genes 26 Torsion [N]-CA--CB-[OG1] |==|  0.46910
USER: genes 27 Torsion [CA]-CB--OG1-[HG1] |==|  0.21385
ROOT
ATOM      1  CA  THR F   4      36.565 -22.842  39.133  1.00 50.77 LIG 0.20  C 
ENDROOT
BRANCH 1 2
ATOM      2  N   THR F   4      35.362 -23.664  38.970  1.00 51.40 LIG-0.34  N 
ATOM      3 H    THR F   4      35.340 -24.357  39.479  1.00 51.40 LIG 0.16  HD
ATOM      4  C   CYS F   3      34.395 -23.350  38.104  1.00 52.18 LIG 0.24  C 
ATOM      5 O    CYS F   3      34.376 -22.295  37.465  1.00 51.89 LIG-0.27  OA
BRANCH 4 6
ATOM      6  CA  CYS F   3      33.243 -24.352  37.965  1.00 52.92 LIG 0.18  C 
BRANCH 6 7
ATOM      7  CB  CYS F   3      31.950 -23.800  38.584  1.00 52.86 LIG 0.10  C 
BRANCH 7 8
ATOM      8 SG   CYS F   3      32.109 -23.293  40.333  1.00 55.16 LIG-0.18  SA
ATOM      9 HG   CYS F   3      31.635 -22.201  40.477  1.00 55.16 LIG 0.10  HD
ENDBRANCH 7 8
ENDBRANCH 6 7
BRANCH 6 10
ATOM     10  N   CYS F   3      33.626 -25.622  38.588  1.00 53.02 LIG-0.34  N 
ATOM     11 H    CYS F   3      33.113 -25.863  39.235  1.00 53.02 LIG 0.16  HD
ATOM     12  C   GLU F   2      34.677 -26.330  38.180  1.00 53.57 LIG 0.24  C 
ATOM     13 O    GLU F   2      35.314 -26.068  37.155  1.00 53.07 LIG-0.27  OA
BRANCH 12 14
ATOM     14  CA  GLU F   2      35.105 -27.490  39.083  1.00 54.00 LIG 0.18  C 
BRANCH 14 15
ATOM     15  CB  GLU F   2      34.773 -28.783  38.323  1.00 54.10 LIG 0.04  C 
BRANCH 15 16
ATOM     16  CG  GLU F   2      35.344 -30.079  38.883  1.00 55.55 LIG 0.12  C 
BRANCH 16 17
ATOM     17  CD  GLU F   2      35.163 -31.263  37.926  1.00 57.36 LIG 0.17  C 
ATOM     18 OE1  GLU F   2      35.576 -31.186  36.744  1.00 58.39 LIG-0.65  OA
ATOM     19 OE2  GLU F   2      34.613 -32.298  38.358  1.00 58.95 LIG-0.65  OA
ENDBRANCH 16 17
ENDBRANCH 15 16
ENDBRANCH 14 15
BRANCH 14 20
ATOM     20  N   GLU F   2      34.474 -27.466  40.412  1.00 53.99 LIG-0.35  N 
ATOM     21 H    GLU F   2      33.959 -28.140  40.553  1.00 53.99 LIG 0.16  HD
ATOM     22  C   SER F   1      34.667 -26.507  41.321  1.00 54.35 LIG 0.25  C 
ATOM     23 O    SER F   1      35.316 -25.474  41.108  1.00 54.45 LIG-0.27  OA
BRANCH 22 24
ATOM     24  CA  SER F   1      34.003 -26.734  42.686  1.00 54.58 LIG 0.30  C 
BRANCH 24 25
ATOM     25  CB  SER F   1      32.931 -25.669  42.943  1.00 54.63 LIG 0.21  C 
BRANCH 25 26
ATOM     26 OG   SER F   1      32.702 -25.503  44.335  1.00 54.91 LIG-0.40  OA
ATOM     27 HG   SER F   1      32.068 -25.999  44.577  1.00 54.91 LIG 0.21  HD
ENDBRANCH 25 26
ENDBRANCH 24 25
BRANCH 24 28
ATOM     28  N   SER F   1      35.003 -26.753  43.798  1.00 54.74 LIG-0.06  N 
ATOM     29 H1   SER F   1      35.587 -27.411  43.661  1.00 54.74 LIG 0.28  HD
ATOM     30 H2   SER F   1      35.434 -25.975  43.824  1.00 54.74 LIG 0.28  HD
ATOM     31 H3   SER F   1      34.584 -26.886  44.571  1.00 54.74 LIG 0.28  HD
ENDBRANCH 24 28
ENDBRANCH 22 24
ENDBRANCH 14 20
ENDBRANCH 12 14
ENDBRANCH 6 10
ENDBRANCH 4 6
ENDBRANCH 1 2
BRANCH 1 32
ATOM     32  CB  THR F   4      36.567 -22.008  40.426  1.00 51.21 LIG 0.15  C 
ATOM     33  CG2 THR F   4      37.953 -22.048  41.071  1.00 50.61 LIG 0.04  C 
BRANCH 32 34
ATOM     34 OG1  THR F   4      36.187 -20.658  40.138  1.00 51.15 LIG-0.39  OA
ATOM     35 HG1  THR F   4      36.734 -20.322  39.597  1.00 51.15 LIG 0.21  HD
ENDBRANCH 32 34
ENDBRANCH 1 32
BRANCH 1 36
ATOM     36  C   THR F   4      37.750 -23.792  39.185  1.00 49.53 LIG 0.24  C 
ATOM     37  N   THR F   5      38.840 -23.411  38.530  1.00 47.76 LIG-0.34  N 
ATOM     38 H    THR F   5      38.936 -22.622  38.200  1.00 47.76 LIG 0.16  HD
ATOM     39 O    THR F   4      37.653 -24.854  39.790  1.00 50.01 LIG-0.27  OA
BRANCH 37 40
ATOM     40  CA  THR F   5      39.988 -24.282  38.296  1.00 46.83 LIG 0.20  C 
BRANCH 40 41
ATOM     41  C   THR F   5      40.855 -23.670  37.196  1.00 45.74 LIG 0.24  C 
ATOM     42  N   PRO F   6      41.713 -22.704  37.558  1.00 45.40 LIG-0.34  N 
ATOM     43  CA  PRO F   6      42.709 -22.220  36.593  1.00 45.02 LIG 0.18  C 
ATOM     44  CD  PRO F   6      41.745 -21.937  38.818  1.00 45.45 LIG 0.13  C 
ATOM     45  CB  PRO F   6      43.525 -21.204  37.395  1.00 45.11 LIG 0.04  C 
ATOM     46  CG  PRO F   6      42.601 -20.729  38.466  1.00 45.75 LIG 0.02  C 
ATOM     47 O    THR F   5      40.737 -24.053  36.031  1.00 44.21 LIG-0.27  OA
BRANCH 43 48
ATOM     48  C   PRO F   6      43.596 -23.377  36.167  1.00 45.08 LIG 0.24  C 
ATOM     49  N   CYS F   7      43.770 -23.584  34.863  1.00 44.40 LIG-0.34  N 
ATOM     50 H    CYS F   7      43.487 -23.069  34.236  1.00 44.40 LIG 0.16  HD
ATOM     51 O    PRO F   6      44.107 -24.088  37.036  1.00 44.91 LIG-0.27  OA
BRANCH 49 52
ATOM     52  CA  CYS F   7      44.496 -24.773  34.424  1.00 45.02 LIG 0.19  C 
BRANCH 52 53
ATOM     53  CB  CYS F   7      43.534 -25.773  33.764  1.00 44.51 LIG 0.11  C 
BRANCH 53 54
ATOM     54 SG   CYS F   7      41.828 -25.625  34.453  1.00 46.73 LIG-0.18  SA
ATOM     55 HG   CYS F   7      41.241 -24.746  33.885  1.00 46.73 LIG 0.10  HD
ENDBRANCH 53 54
ENDBRANCH 52 53
BRANCH 52 56
ATOM     56  C   CYS F   7      45.759 -24.456  33.599  1.00 45.05 LIG 0.20  C 
ATOM     57 OXT  CYS F   7      46.702 -25.257  33.508  1.00 44.33 LIG-0.65  OA
ATOM     58 O    CYS F   7      45.854 -23.338  33.056  1.00 44.51 LIG-0.65  OA
ENDBRANCH 52 56
ENDBRANCH 49 52
ENDBRANCH 43 48
ENDBRANCH 40 41
BRANCH 40 59
ATOM     59  CB  THR F   5      39.514 -25.672  37.839  1.00 46.83 LIG 0.15  C 
ATOM     60  CG2 THR F   5      38.441 -25.592  36.763  1.00 46.88 LIG 0.04  C 
BRANCH 59 61
ATOM     61 OG1  THR F   5      40.639 -26.426  37.367  1.00 48.31 LIG-0.39  OA
ATOM     62 HG1  THR F   5      41.081 -26.709  38.023  1.00 48.31 LIG 0.21  HD
ENDBRANCH 59 61
ENDBRANCH 40 59
ENDBRANCH 37 40
ENDBRANCH 1 36
TORSDOF 26
ENDMDL
MODEL 21
USER: ADFR SOLUTION from run 184
USER: SCORE 15.068621 LL:  -5.450 LR: -12.640 RR:   0.000 FEB:  -4.884
USER: RMSD 8.195622
USER: SEED 183
USER: STATUS no improvement in best in 8 clusters for 5 generations
USER: GENES 28
USER: genes 0 Translation |==|  0.23946 0.71530 0.69803
USER: genes 1 Rotation |==|  0.50206 0.55592 0.19827 0.89475
USER: genes 2 Torsion [C]-CA--N-[C] |==|  0.67884
USER: genes 3 Torsion [N]-C--CA-[N] |==|  0.52721
USER: genes 4 Torsion [C]-CA--CB-[SG] |==|  0.28258
USER: genes 5 Torsion [CA]-CB--SG-[HG] |==|  0.90867
USER: genes 6 Torsion [C]-CA--N-[C] |==|  0.25189
USER: genes 7 Torsion [N]-C--CA-[N] |==|  0.94994
USER: genes 8 Torsion [C]-CA--CB-[CG] |==|  0.62462
USER: genes 9 Torsion [CA]-CB--CG-[CD] |==|  0.82876
USER: genes 10 Torsion [CB]-CG--CD-[OE1] |==|  0.95386
USER: genes 11 Torsion [C]-CA--N-[C] |==|  0.83065
USER: genes 12 Torsion [N]-C--CA-[N] |==|  0.76613
USER: genes 13 Torsion [C]-CA--CB-[OG] |==|  0.42662
USER: genes 14 Torsion [CA]-CB--OG-[HG] |==|  0.03229
USER: genes 15 Torsion [C]-CA--N-[H1] |==|  0.79185
USER: genes 16 Torsion [N]-CA--CB-[OG1] |==|  0.35598
USER: genes 17 Torsion [CA]-CB--OG1-[HG1] |==|  0.39997
USER: genes 18 Torsion [N]-CA--C-[N] |==|  0.81164
USER: genes 19 Torsion [C]-N--CA-[CB] |==|  0.50066
USER: genes 20 Torsion [N]-CA--C-[N] |==|  0.86811
USER: genes 21 Torsion [N]-CA--C-[N] |==|  0.83146
USER: genes 22 Torsion [C]-N--CA-[CB] |==|  0.32307
USER: genes 23 Torsion [N]-CA--CB-[SG] |==|  0.88971
USER: genes 24 Torsion [CA]-CB--SG-[HG] |==|  0.22230
USER: genes 25 Torsion [N]-CA--C-[OXT] |==|  0.83554
USER: genes 26 Torsion [N]-CA--CB-[OG1] |==|  0.95734
USER: genes 27 Torsion [CA]-CB--OG1-[HG1] |==|  0.27502
ROOT
ATOM      1  CA  THR F   4      33.399 -23.536  38.909  1.00 50.77 LIG 0.20  C 
ENDROOT
BRANCH 1 2
ATOM      2  N   THR F   4      33.781 -24.882  38.475  1.00 51.40 LIG-0.34  N 
ATOM      3 H    THR F   4      33.328 -25.512  38.847  1.00 51.40 LIG 0.16  HD
ATOM      4  C   CYS F   3      34.748 -25.097  37.580  1.00 52.18 LIG 0.24  C 
ATOM      5 O    CYS F   3      35.311 -24.189  36.963  1.00 51.89 LIG-0.27  OA
BRANCH 4 6
ATOM      6  CA  CYS F   3      35.112 -26.558  37.295  1.00 52.92 LIG 0.18  C 
BRANCH 6 7
ATOM      7  CB  CYS F   3      35.287 -27.351  38.598  1.00 52.86 LIG 0.10  C 
BRANCH 7 8
ATOM      8 SG   CYS F   3      33.860 -28.408  39.032  1.00 55.16 LIG-0.18  SA
ATOM      9 HG   CYS F   3      32.846 -27.884  38.661  1.00 55.16 LIG 0.10  HD
ENDBRANCH 7 8
ENDBRANCH 6 7
BRANCH 6 10
ATOM     10  N   CYS F   3      36.331 -26.605  36.481  1.00 53.02 LIG-0.34  N 
ATOM     11 H    CYS F   3      36.187 -26.588  35.634  1.00 53.02 LIG 0.16  HD
ATOM     12  C   GLU F   2      37.547 -26.669  37.019  1.00 53.57 LIG 0.24  C 
ATOM     13 O    GLU F   2      37.762 -26.531  38.227  1.00 53.07 LIG-0.27  OA
BRANCH 12 14
ATOM     14  CA  GLU F   2      38.698 -26.973  36.057  1.00 54.00 LIG 0.18  C 
BRANCH 14 15
ATOM     15  CB  GLU F   2      39.454 -25.652  35.846  1.00 54.10 LIG 0.04  C 
BRANCH 15 16
ATOM     16  CG  GLU F   2      39.841 -25.298  34.416  1.00 55.55 LIG 0.12  C 
BRANCH 16 17
ATOM     17  CD  GLU F   2      40.789 -26.327  33.792  1.00 57.36 LIG 0.17  C 
ATOM     18 OE1  GLU F   2      41.404 -27.141  34.522  1.00 58.39 LIG-0.65  OA
ATOM     19 OE2  GLU F   2      40.918 -26.341  32.550  1.00 58.95 LIG-0.65  OA
ENDBRANCH 16 17
ENDBRANCH 15 16
ENDBRANCH 14 15
BRANCH 14 20
ATOM     20  N   GLU F   2      38.261 -27.555  34.779  1.00 53.99 LIG-0.35  N 
ATOM     21 H    GLU F   2      38.468 -27.072  34.099  1.00 53.99 LIG 0.16  HD
ATOM     22  C   SER F   1      37.608 -28.715  34.664  1.00 54.35 LIG 0.25  C 
ATOM     23 O    SER F   1      37.203 -29.379  35.627  1.00 54.45 LIG-0.27  OA
BRANCH 22 24
ATOM     24  CA  SER F   1      37.346 -29.197  33.230  1.00 54.58 LIG 0.30  C 
BRANCH 24 25
ATOM     25  CB  SER F   1      38.561 -28.912  32.340  1.00 54.63 LIG 0.21  C 
BRANCH 25 26
ATOM     26 OG   SER F   1      38.622 -29.826  31.254  1.00 54.91 LIG-0.40  OA
ATOM     27 HG   SER F   1      37.900 -30.253  31.206  1.00 54.91 LIG 0.21  HD
ENDBRANCH 25 26
ENDBRANCH 24 25
BRANCH 24 28
ATOM     28  N   SER F   1      36.113 -28.581  32.650  1.00 54.74 LIG-0.06  N 
ATOM     29 H1   SER F   1      35.393 -28.963  33.007  1.00 54.74 LIG 0.28  HD
ATOM     30 H2   SER F   1      36.104 -27.709  32.828  1.00 54.74 LIG 0.28  HD
ATOM     31 H3   SER F   1      36.107 -28.703  31.768  1.00 54.74 LIG 0.28  HD
ENDBRANCH 24 28
ENDBRANCH 22 24
ENDBRANCH 14 20
ENDBRANCH 12 14
ENDBRANCH 6 10
ENDBRANCH 4 6
ENDBRANCH 1 2
BRANCH 1 32
ATOM     32  CB  THR F   4      31.899 -23.238  38.735  1.00 51.21 LIG 0.15  C 
ATOM     33  CG2 THR F   4      31.164 -24.501  38.288  1.00 50.61 LIG 0.04  C 
BRANCH 32 34
ATOM     34 OG1  THR F   4      31.352 -22.747  39.964  1.00 51.15 LIG-0.39  OA
ATOM     35 HG1  THR F   4      30.771 -22.163  39.799  1.00 51.15 LIG 0.21  HD
ENDBRANCH 32 34
ENDBRANCH 1 32
BRANCH 1 36
ATOM     36  C   THR F   4      33.728 -23.433  40.389  1.00 49.53 LIG 0.24  C 
ATOM     37  N   THR F   5      33.000 -24.182  41.208  1.00 47.76 LIG-0.34  N 
ATOM     38 H    THR F   5      32.462 -24.792  40.929  1.00 47.76 LIG 0.16  HD
ATOM     39 O    THR F   4      34.609 -22.667  40.765  1.00 50.01 LIG-0.27  OA
BRANCH 37 40
ATOM     40  CA  THR F   5      33.033 -24.055  42.662  1.00 46.83 LIG 0.20  C 
BRANCH 40 41
ATOM     41  C   THR F   5      34.454 -24.336  43.150  1.00 45.74 LIG 0.24  C 
ATOM     42  N   PRO F   6      35.064 -25.427  42.664  1.00 45.40 LIG-0.34  N 
ATOM     43  CA  PRO F   6      36.492 -25.641  42.936  1.00 45.02 LIG 0.18  C 
ATOM     44  CD  PRO F   6      34.462 -26.564  41.941  1.00 45.45 LIG 0.13  C 
ATOM     45  CB  PRO F   6      36.819 -26.920  42.162  1.00 45.11 LIG 0.04  C 
ATOM     46  CG  PRO F   6      35.522 -27.650  42.060  1.00 45.75 LIG 0.02  C 
ATOM     47 O    THR F   5      34.985 -23.587  43.971  1.00 44.21 LIG-0.27  OA
BRANCH 43 48
ATOM     48  C   PRO F   6      37.288 -24.476  42.373  1.00 45.08 LIG 0.24  C 
ATOM     49  N   CYS F   7      37.224 -24.251  41.062  1.00 44.40 LIG-0.34  N 
ATOM     50 H    CYS F   7      36.705 -24.661  40.513  1.00 44.40 LIG 0.16  HD
ATOM     51 O    PRO F   6      37.973 -23.797  43.141  1.00 44.91 LIG-0.27  OA
BRANCH 49 52
ATOM     52  CA  CYS F   7      38.090 -23.233  40.473  1.00 45.02 LIG 0.19  C 
BRANCH 52 53
ATOM     53  CB  CYS F   7      39.074 -23.877  39.483  1.00 44.51 LIG 0.11  C 
BRANCH 53 54
ATOM     54 SG   CYS F   7      39.707 -25.492  40.114  1.00 46.73 LIG-0.18  SA
ATOM     55 HG   CYS F   7      38.890 -26.348  39.913  1.00 46.73 LIG 0.10  HD
ENDBRANCH 53 54
ENDBRANCH 52 53
BRANCH 52 56
ATOM     56  C   CYS F   7      37.324 -22.016  39.919  1.00 45.05 LIG 0.20  C 
ATOM     57 OXT  CYS F   7      36.465 -22.129  39.031  1.00 44.33 LIG-0.65  OA
ATOM     58 O    CYS F   7      37.621 -20.880  40.339  1.00 44.51 LIG-0.65  OA
ENDBRANCH 52 56
ENDBRANCH 49 52
ENDBRANCH 43 48
ENDBRANCH 40 41
BRANCH 40 59
ATOM     59  CB  THR F   5      32.077 -25.075  43.303  1.00 46.83 LIG 0.15  C 
ATOM     60  CG2 THR F   5      31.285 -24.481  44.459  1.00 46.88 LIG 0.04  C 
BRANCH 59 61
ATOM     61 OG1  THR F   5      31.188 -25.588  42.301  1.00 48.31 LIG-0.39  OA
ATOM     62 HG1  THR F   5      31.467 -26.334  42.034  1.00 48.31 LIG 0.21  HD
ENDBRANCH 59 61
ENDBRANCH 40 59
ENDBRANCH 37 40
ENDBRANCH 1 36
TORSDOF 26
ENDMDL
MODEL 22
USER: ADFR SOLUTION from run 88
USER: SCORE 16.322076 LL:  -4.263 LR: -12.629 RR:   0.000 FEB:  -4.873
USER: RMSD 11.401629
USER: SEED 87
USER: STATUS no improvement in best in 2 clusters for 5 generations
USER: GENES 28
USER: genes 0 Translation |==|  0.46395 0.44510 0.49090
USER: genes 1 Rotation |==|  0.80658 0.78903 0.76602 0.54122
USER: genes 2 Torsion [C]-CA--N-[C] |==|  0.76815
USER: genes 3 Torsion [N]-C--CA-[N] |==|  0.29265
USER: genes 4 Torsion [C]-CA--CB-[SG] |==|  0.13798
USER: genes 5 Torsion [CA]-CB--SG-[HG] |==|  0.06461
USER: genes 6 Torsion [C]-CA--N-[C] |==|  0.73663
USER: genes 7 Torsion [N]-C--CA-[N] |==|  0.43532
USER: genes 8 Torsion [C]-CA--CB-[CG] |==|  0.61004
USER: genes 9 Torsion [CA]-CB--CG-[CD] |==|  0.46882
USER: genes 10 Torsion [CB]-CG--CD-[OE1] |==|  0.86665
USER: genes 11 Torsion [C]-CA--N-[C] |==|  0.80978
USER: genes 12 Torsion [N]-C--CA-[N] |==|  0.05035
USER: genes 13 Torsion [C]-CA--CB-[OG] |==|  0.38461
USER: genes 14 Torsion [CA]-CB--OG-[HG] |==|  0.89910
USER: genes 15 Torsion [C]-CA--N-[H1] |==|  0.25765
USER: genes 16 Torsion [N]-CA--CB-[OG1] |==|  0.89468
USER: genes 17 Torsion [CA]-CB--OG1-[HG1] |==|  0.12674
USER: genes 18 Torsion [N]-CA--C-[N] |==|  0.40693
USER: genes 19 Torsion [C]-N--CA-[CB] |==|  0.85556
USER: genes 20 Torsion [N]-CA--C-[N] |==|  0.32800
USER: genes 21 Torsion [N]-CA--C-[N] |==|  0.22670
USER: genes 22 Torsion [C]-N--CA-[CB] |==|  0.20870
USER: genes 23 Torsion [N]-CA--CB-[SG] |==|  0.68111
USER: genes 24 Torsion [CA]-CB--SG-[HG] |==|  0.15176
USER: genes 25 Torsion [N]-CA--C-[OXT] |==|  0.81026
USER: genes 26 Torsion [N]-CA--CB-[OG1] |==|  0.87670
USER: genes 27 Torsion [CA]-CB--OG1-[HG1] |==|  0.23128
ROOT
ATOM      1  CA  THR F   4      39.292 -27.994  33.937  1.00 50.77 LIG 0.20  C 
ENDROOT
BRANCH 1 2
ATOM      2  N   THR F   4      38.859 -26.938  34.857  1.00 51.40 LIG-0.34  N 
ATOM      3 H    THR F   4      38.260 -26.413  34.532  1.00 51.40 LIG 0.16  HD
ATOM      4  C   CYS F   3      39.360 -26.814  36.089  1.00 52.18 LIG 0.24  C 
ATOM      5 O    CYS F   3      40.130 -27.638  36.591  1.00 51.89 LIG-0.27  OA
BRANCH 4 6
ATOM      6  CA  CYS F   3      38.893 -25.604  36.905  1.00 52.92 LIG 0.18  C 
BRANCH 6 7
ATOM      7  CB  CYS F   3      40.082 -24.868  37.538  1.00 52.86 LIG 0.10  C 
BRANCH 7 8
ATOM      8 SG   CYS F   3      41.438 -24.486  36.373  1.00 55.16 LIG-0.18  SA
ATOM      9 HG   CYS F   3      41.007 -24.459  35.253  1.00 55.16 LIG 0.10  HD
ENDBRANCH 7 8
ENDBRANCH 6 7
BRANCH 6 10
ATOM     10  N   CYS F   3      37.941 -26.048  37.928  1.00 53.02 LIG-0.34  N 
ATOM     11 H    CYS F   3      38.311 -26.326  38.653  1.00 53.02 LIG 0.16  HD
ATOM     12  C   GLU F   2      36.623 -26.018  37.740  1.00 53.57 LIG 0.24  C 
ATOM     13 O    GLU F   2      36.090 -25.472  36.769  1.00 53.07 LIG-0.27  OA
BRANCH 12 14
ATOM     14  CA  GLU F   2      35.773 -26.747  38.783  1.00 54.00 LIG 0.18  C 
BRANCH 14 15
ATOM     15  CB  GLU F   2      35.827 -28.241  38.426  1.00 54.10 LIG 0.04  C 
BRANCH 15 16
ATOM     16  CG  GLU F   2      34.536 -29.034  38.579  1.00 55.55 LIG 0.12  C 
BRANCH 16 17
ATOM     17  CD  GLU F   2      34.624 -30.426  37.944  1.00 57.36 LIG 0.17  C 
ATOM     18 OE1  GLU F   2      35.075 -30.561  36.782  1.00 58.39 LIG-0.65  OA
ATOM     19 OE2  GLU F   2      34.252 -31.411  38.616  1.00 58.95 LIG-0.65  OA
ENDBRANCH 16 17
ENDBRANCH 15 16
ENDBRANCH 14 15
BRANCH 14 20
ATOM     20  N   GLU F   2      34.388 -26.259  38.862  1.00 53.99 LIG-0.35  N 
ATOM     21 H    GLU F   2      33.812 -26.832  38.581  1.00 53.99 LIG 0.16  HD
ATOM     22  C   SER F   1      34.039 -25.054  39.320  1.00 54.35 LIG 0.25  C 
ATOM     23 O    SER F   1      34.849 -24.171  39.631  1.00 54.45 LIG-0.27  OA
BRANCH 22 24
ATOM     24  CA  SER F   1      32.531 -24.788  39.424  1.00 54.58 LIG 0.30  C 
BRANCH 24 25
ATOM     25  CB  SER F   1      32.217 -23.973  40.684  1.00 54.63 LIG 0.21  C 
BRANCH 25 26
ATOM     26 OG   SER F   1      31.247 -22.971  40.413  1.00 54.91 LIG-0.40  OA
ATOM     27 HG   SER F   1      31.371 -22.662  39.642  1.00 54.91 LIG 0.21  HD
ENDBRANCH 25 26
ENDBRANCH 24 25
BRANCH 24 28
ATOM     28  N   SER F   1      31.737 -26.055  39.406  1.00 54.74 LIG-0.06  N 
ATOM     29 H1   SER F   1      31.595 -26.329  40.241  1.00 54.74 LIG 0.28  HD
ATOM     30 H2   SER F   1      30.956 -25.911  39.005  1.00 54.74 LIG 0.28  HD
ATOM     31 H3   SER F   1      32.187 -26.681  38.962  1.00 54.74 LIG 0.28  HD
ENDBRANCH 24 28
ENDBRANCH 22 24
ENDBRANCH 14 20
ENDBRANCH 12 14
ENDBRANCH 6 10
ENDBRANCH 4 6
ENDBRANCH 1 2
BRANCH 1 32
ATOM     32  CB  THR F   4      38.263 -28.308  32.838  1.00 51.21 LIG 0.15  C 
ATOM     33  CG2 THR F   4      38.530 -29.695  32.253  1.00 50.61 LIG 0.04  C 
BRANCH 32 34
ATOM     34 OG1  THR F   4      36.937 -28.237  33.373  1.00 51.15 LIG-0.39  OA
ATOM     35 HG1  THR F   4      36.860 -27.543  33.841  1.00 51.15 LIG 0.21  HD
ENDBRANCH 32 34
ENDBRANCH 1 32
BRANCH 1 36
ATOM     36  C   THR F   4      40.563 -27.506  33.263  1.00 49.53 LIG 0.24  C 
ATOM     37  N   THR F   5      41.466 -28.433  32.965  1.00 47.76 LIG-0.34  N 
ATOM     38 H    THR F   5      41.305 -29.276  33.021  1.00 47.76 LIG 0.16  HD
ATOM     39 O    THR F   4      40.718 -26.308  33.050  1.00 50.01 LIG-0.27  OA
BRANCH 37 40
ATOM     40  CA  THR F   5      42.820 -28.127  32.514  1.00 46.83 LIG 0.20  C 
BRANCH 40 41
ATOM     41  C   THR F   5      43.587 -27.473  33.664  1.00 45.74 LIG 0.24  C 
ATOM     42  N   PRO F   6      44.671 -28.117  34.122  1.00 45.40 LIG-0.34  N 
ATOM     43  CA  PRO F   6      45.560 -27.448  35.081  1.00 45.02 LIG 0.18  C 
ATOM     44  CD  PRO F   6      45.076 -29.514  33.873  1.00 45.45 LIG 0.13  C 
ATOM     45  CB  PRO F   6      46.691 -28.458  35.289  1.00 45.11 LIG 0.04  C 
ATOM     46  CG  PRO F   6      46.083 -29.784  34.981  1.00 45.75 LIG 0.02  C 
ATOM     47 O    THR F   5      43.193 -26.409  34.144  1.00 44.21 LIG-0.27  OA
BRANCH 43 48
ATOM     48  C   PRO F   6      46.108 -26.178  34.453  1.00 45.08 LIG 0.24  C 
ATOM     49  N   CYS F   7      45.340 -25.090  34.473  1.00 44.40 LIG-0.34  N 
ATOM     50 H    CYS F   7      44.588 -25.020  34.883  1.00 44.40 LIG 0.16  HD
ATOM     51 O    PRO F   6      47.228 -26.204  33.938  1.00 44.91 LIG-0.27  OA
BRANCH 49 52
ATOM     52  CA  CYS F   7      45.779 -23.899  33.751  1.00 45.02 LIG 0.19  C 
BRANCH 52 53
ATOM     53  CB  CYS F   7      45.582 -24.089  32.238  1.00 44.51 LIG 0.11  C 
BRANCH 53 54
ATOM     54 SG   CYS F   7      47.196 -24.110  31.344  1.00 46.73 LIG-0.18  SA
ATOM     55 HG   CYS F   7      47.910 -24.945  31.825  1.00 46.73 LIG 0.10  HD
ENDBRANCH 53 54
ENDBRANCH 52 53
BRANCH 52 56
ATOM     56  C   CYS F   7      45.201 -22.586  34.315  1.00 45.05 LIG 0.20  C 
ATOM     57 OXT  CYS F   7      43.995 -22.308  34.228  1.00 44.33 LIG-0.65  OA
ATOM     58 O    CYS F   7      45.983 -21.758  34.822  1.00 44.51 LIG-0.65  OA
ENDBRANCH 52 56
ENDBRANCH 49 52
ENDBRANCH 43 48
ENDBRANCH 40 41
BRANCH 40 59
ATOM     59  CB  THR F   5      42.774 -27.149  31.328  1.00 46.83 LIG 0.15  C 
ATOM     60  CG2 THR F   5      44.116 -27.034  30.621  1.00 46.88 LIG 0.04  C 
BRANCH 59 61
ATOM     61 OG1  THR F   5      41.759 -27.569  30.406  1.00 48.31 LIG-0.39  OA
ATOM     62 HG1  THR F   5      41.011 -27.284  30.663  1.00 48.31 LIG 0.21  HD
ENDBRANCH 59 61
ENDBRANCH 40 59
ENDBRANCH 37 40
ENDBRANCH 1 36
TORSDOF 26
ENDMDL
MODEL 23
USER: ADFR SOLUTION from run 22
USER: SCORE 18.378604 LL:  -6.187 LR: -12.635 RR:   0.000 FEB:  -4.879
USER: RMSD 12.149927
USER: SEED 21
USER: STATUS no improvement in best in 7 clusters for 5 generations
USER: GENES 28
USER: genes 0 Translation |==|  0.37670 0.71555 0.68945
USER: genes 1 Rotation |==|  0.41229 0.84371 0.14808 0.51803
USER: genes 2 Torsion [C]-CA--N-[C] |==|  0.82010
USER: genes 3 Torsion [N]-C--CA-[N] |==|  0.91667
USER: genes 4 Torsion [C]-CA--CB-[SG] |==|  0.62463
USER: genes 5 Torsion [CA]-CB--SG-[HG] |==|  0.44416
USER: genes 6 Torsion [C]-CA--N-[C] |==|  0.81901
USER: genes 7 Torsion [N]-C--CA-[N] |==|  0.15009
USER: genes 8 Torsion [C]-CA--CB-[CG] |==|  0.47383
USER: genes 9 Torsion [CA]-CB--CG-[CD] |==|  0.15752
USER: genes 10 Torsion [CB]-CG--CD-[OE1] |==|  0.26747
USER: genes 11 Torsion [C]-CA--N-[C] |==|  0.76455
USER: genes 12 Torsion [N]-C--CA-[N] |==|  0.05640
USER: genes 13 Torsion [C]-CA--CB-[OG] |==|  0.74518
USER: genes 14 Torsion [CA]-CB--OG-[HG] |==|  0.01725
USER: genes 15 Torsion [C]-CA--N-[H1] |==|  0.07180
USER: genes 16 Torsion [N]-CA--CB-[OG1] |==|  0.84397
USER: genes 17 Torsion [CA]-CB--OG1-[HG1] |==|  0.94299
USER: genes 18 Torsion [N]-CA--C-[N] |==|  0.37529
USER: genes 19 Torsion [C]-N--CA-[CB] |==|  0.84974
USER: genes 20 Torsion [N]-CA--C-[N] |==|  0.39539
USER: genes 21 Torsion [N]-CA--C-[N] |==|  0.27082
USER: genes 22 Torsion [C]-N--CA-[CB] |==|  0.42777
USER: genes 23 Torsion [N]-CA--CB-[SG] |==|  0.18933
USER: genes 24 Torsion [CA]-CB--SG-[HG] |==|  0.73508
USER: genes 25 Torsion [N]-CA--C-[OXT] |==|  0.09075
USER: genes 26 Torsion [N]-CA--CB-[OG1] |==|  0.87761
USER: genes 27 Torsion [CA]-CB--OG1-[HG1] |==|  0.22785
ROOT
ATOM      1  CA  THR F   4      37.001 -23.531  38.703  1.00 50.77 LIG 0.20  C 
ENDROOT
BRANCH 1 2
ATOM      2  N   THR F   4      35.580 -23.800  38.938  1.00 51.40 LIG-0.34  N 
ATOM      3 H    THR F   4      35.308 -23.584  39.725  1.00 51.40 LIG 0.16  HD
ATOM      4  C   CYS F   3      34.789 -24.332  38.003  1.00 52.18 LIG 0.24  C 
ATOM      5 O    CYS F   3      35.155 -24.528  36.841  1.00 51.89 LIG-0.27  OA
BRANCH 4 6
ATOM      6  CA  CYS F   3      33.349 -24.653  38.418  1.00 52.92 LIG 0.18  C 
BRANCH 6 7
ATOM      7  CB  CYS F   3      32.406 -23.484  38.097  1.00 52.86 LIG 0.10  C 
BRANCH 7 8
ATOM      8 SG   CYS F   3      31.240 -23.068  39.442  1.00 55.16 LIG-0.18  SA
ATOM      9 HG   CYS F   3      30.833 -21.949  39.287  1.00 55.16 LIG 0.10  HD
ENDBRANCH 7 8
ENDBRANCH 6 7
BRANCH 6 10
ATOM     10  N   CYS F   3      33.317 -24.980  39.846  1.00 53.02 LIG-0.34  N 
ATOM     11 H    CYS F   3      32.875 -24.418  40.324  1.00 53.02 LIG 0.16  HD
ATOM     12  C   GLU F   2      33.923 -26.054  40.348  1.00 53.57 LIG 0.24  C 
ATOM     13 O    GLU F   2      34.418 -26.942  39.646  1.00 53.07 LIG-0.27  OA
BRANCH 12 14
ATOM     14  CA  GLU F   2      34.024 -26.125  41.874  1.00 54.00 LIG 0.18  C 
BRANCH 14 15
ATOM     15  CB  GLU F   2      34.691 -27.468  42.207  1.00 54.10 LIG 0.04  C 
BRANCH 15 16
ATOM     16  CG  GLU F   2      35.110 -27.691  43.654  1.00 55.55 LIG 0.12  C 
BRANCH 16 17
ATOM     17  CD  GLU F   2      33.940 -27.541  44.634  1.00 57.36 LIG 0.17  C 
ATOM     18 OE1  GLU F   2      33.316 -28.555  45.028  1.00 58.39 LIG-0.65  OA
ATOM     19 OE2  GLU F   2      33.642 -26.396  45.034  1.00 58.95 LIG-0.65  OA
ENDBRANCH 16 17
ENDBRANCH 15 16
ENDBRANCH 14 15
BRANCH 14 20
ATOM     20  N   GLU F   2      32.730 -25.979  42.558  1.00 53.99 LIG-0.35  N 
ATOM     21 H    GLU F   2      32.363 -26.733  42.749  1.00 53.99 LIG 0.16  HD
ATOM     22  C   SER F   1      32.165 -24.807  42.860  1.00 54.35 LIG 0.25  C 
ATOM     23 O    SER F   1      32.616 -23.710  42.504  1.00 54.45 LIG-0.27  OA
BRANCH 22 24
ATOM     24  CA  SER F   1      30.868 -24.880  43.677  1.00 54.58 LIG 0.30  C 
BRANCH 24 25
ATOM     25  CB  SER F   1      30.795 -23.713  44.669  1.00 54.63 LIG 0.21  C 
BRANCH 25 26
ATOM     26 OG   SER F   1      31.351 -24.077  45.925  1.00 54.91 LIG-0.40  OA
ATOM     27 HG   SER F   1      31.697 -24.840  45.868  1.00 54.91 LIG 0.21  HD
ENDBRANCH 25 26
ENDBRANCH 24 25
BRANCH 24 28
ATOM     28  N   SER F   1      30.729 -26.186  44.391  1.00 54.74 LIG-0.06  N 
ATOM     29 H1   SER F   1      31.536 -26.534  44.534  1.00 54.74 LIG 0.28  HD
ATOM     30 H2   SER F   1      30.319 -26.057  45.170  1.00 54.74 LIG 0.28  HD
ATOM     31 H3   SER F   1      30.249 -26.747  43.893  1.00 54.74 LIG 0.28  HD
ENDBRANCH 24 28
ENDBRANCH 22 24
ENDBRANCH 14 20
ENDBRANCH 12 14
ENDBRANCH 6 10
ENDBRANCH 4 6
ENDBRANCH 1 2
BRANCH 1 32
ATOM     32  CB  THR F   4      37.697 -22.833  39.884  1.00 51.21 LIG 0.15  C 
ATOM     33  CG2 THR F   4      39.159 -22.550  39.536  1.00 50.61 LIG 0.04  C 
BRANCH 32 34
ATOM     34 OG1  THR F   4      37.013 -21.616  40.204  1.00 51.15 LIG-0.39  OA
ATOM     35 HG1  THR F   4      36.556 -21.369  39.544  1.00 51.15 LIG 0.21  HD
ENDBRANCH 32 34
ENDBRANCH 1 32
BRANCH 1 36
ATOM     36  C   THR F   4      37.680 -24.874  38.488  1.00 49.53 LIG 0.24  C 
ATOM     37  N   THR F   5      38.535 -24.948  37.475  1.00 47.76 LIG-0.34  N 
ATOM     38 H    THR F   5      38.802 -24.257  37.038  1.00 47.76 LIG 0.16  HD
ATOM     39 O    THR F   4      37.402 -25.820  39.217  1.00 50.01 LIG-0.27  OA
BRANCH 37 40
ATOM     40  CA  THR F   5      39.112 -26.199  36.993  1.00 46.83 LIG 0.20  C 
BRANCH 40 41
ATOM     41  C   THR F   5      37.994 -27.069  36.419  1.00 45.74 LIG 0.24  C 
ATOM     42  N   PRO F   6      38.279 -27.789  35.324  1.00 45.40 LIG-0.34  N 
ATOM     43  CA  PRO F   6      37.318 -28.792  34.844  1.00 45.02 LIG 0.18  C 
ATOM     44  CD  PRO F   6      39.433 -27.650  34.415  1.00 45.45 LIG 0.13  C 
ATOM     45  CB  PRO F   6      38.031 -29.434  33.653  1.00 45.11 LIG 0.04  C 
ATOM     46  CG  PRO F   6      38.981 -28.393  33.166  1.00 45.75 LIG 0.02  C 
ATOM     47 O    THR F   5      36.881 -27.074  36.947  1.00 44.21 LIG-0.27  OA
BRANCH 43 48
ATOM     48  C   PRO F   6      37.090 -29.827  35.932  1.00 45.08 LIG 0.24  C 
ATOM     49  N   CYS F   7      36.020 -29.687  36.713  1.00 44.40 LIG-0.34  N 
ATOM     50 H    CYS F   7      35.398 -29.103  36.604  1.00 44.40 LIG 0.16  HD
ATOM     51 O    PRO F   6      37.906 -30.742  36.064  1.00 44.91 LIG-0.27  OA
BRANCH 49 52
ATOM     52  CA  CYS F   7      35.854 -30.580  37.856  1.00 45.02 LIG 0.19  C 
BRANCH 52 53
ATOM     53  CB  CYS F   7      35.003 -29.904  38.943  1.00 44.51 LIG 0.11  C 
BRANCH 53 54
ATOM     54 SG   CYS F   7      33.254 -29.688  38.394  1.00 46.73 LIG-0.18  SA
ATOM     55 HG   CYS F   7      33.110 -28.586  37.942  1.00 46.73 LIG 0.10  HD
ENDBRANCH 53 54
ENDBRANCH 52 53
BRANCH 52 56
ATOM     56  C   CYS F   7      35.396 -32.000  37.470  1.00 45.05 LIG 0.20  C 
ATOM     57 OXT  CYS F   7      35.737 -32.533  36.403  1.00 44.33 LIG-0.65  OA
ATOM     58 O    CYS F   7      34.614 -32.604  38.231  1.00 44.51 LIG-0.65  OA
ENDBRANCH 52 56
ENDBRANCH 49 52
ENDBRANCH 43 48
ENDBRANCH 40 41
BRANCH 40 59
ATOM     59  CB  THR F   5      39.781 -26.954  38.154  1.00 46.83 LIG 0.15  C 
ATOM     60  CG2 THR F   5      40.666 -28.094  37.670  1.00 46.88 LIG 0.04  C 
BRANCH 59 61
ATOM     61 OG1  THR F   5      40.545 -26.031  38.943  1.00 48.31 LIG-0.39  OA
ATOM     62 HG1  THR F   5      40.035 -25.634  39.480  1.00 48.31 LIG 0.21  HD
ENDBRANCH 59 61
ENDBRANCH 40 59
ENDBRANCH 37 40
ENDBRANCH 1 36
TORSDOF 26
ENDMDL
MODEL 24
USER: ADFR SOLUTION from run 189
USER: SCORE 18.047642 LL:  -6.050 LR: -12.601 RR:   0.000 FEB:  -4.845
USER: RMSD 12.228403
USER: SEED 188
USER: STATUS no improvement in best in 3 clusters for 5 generations
USER: GENES 28
USER: genes 0 Translation |==|  0.44228 0.48689 0.58692
USER: genes 1 Rotation |==|  0.74886 0.89901 0.66377 0.54514
USER: genes 2 Torsion [C]-CA--N-[C] |==|  0.64444
USER: genes 3 Torsion [N]-C--CA-[N] |==|  0.31328
USER: genes 4 Torsion [C]-CA--CB-[SG] |==|  0.52808
USER: genes 5 Torsion [CA]-CB--SG-[HG] |==|  0.83466
USER: genes 6 Torsion [C]-CA--N-[C] |==|  0.78441
USER: genes 7 Torsion [N]-C--CA-[N] |==|  0.00040
USER: genes 8 Torsion [C]-CA--CB-[CG] |==|  0.78848
USER: genes 9 Torsion [CA]-CB--CG-[CD] |==|  0.79150
USER: genes 10 Torsion [CB]-CG--CD-[OE1] |==|  0.76263
USER: genes 11 Torsion [C]-CA--N-[C] |==|  0.68936
USER: genes 12 Torsion [N]-C--CA-[N] |==|  0.12273
USER: genes 13 Torsion [C]-CA--CB-[OG] |==|  0.69932
USER: genes 14 Torsion [CA]-CB--OG-[HG] |==|  0.71802
USER: genes 15 Torsion [C]-CA--N-[H1] |==|  0.95703
USER: genes 16 Torsion [N]-CA--CB-[OG1] |==|  0.20265
USER: genes 17 Torsion [CA]-CB--OG1-[HG1] |==|  0.05811
USER: genes 18 Torsion [N]-CA--C-[N] |==|  0.44987
USER: genes 19 Torsion [C]-N--CA-[CB] |==|  0.77127
USER: genes 20 Torsion [N]-CA--C-[N] |==|  0.21465
USER: genes 21 Torsion [N]-CA--C-[N] |==|  0.89244
USER: genes 22 Torsion [C]-N--CA-[CB] |==|  0.78058
USER: genes 23 Torsion [N]-CA--CB-[SG] |==|  0.83863
USER: genes 24 Torsion [CA]-CB--SG-[HG] |==|  0.26168
USER: genes 25 Torsion [N]-CA--C-[OXT] |==|  0.57927
USER: genes 26 Torsion [N]-CA--CB-[OG1] |==|  0.15698
USER: genes 27 Torsion [CA]-CB--OG1-[HG1] |==|  0.14962
ROOT
ATOM      1  CA  THR F   4      38.723 -27.304  36.242  1.00 50.77 LIG 0.20  C 
ENDROOT
BRANCH 1 2
ATOM      2  N   THR F   4      37.974 -26.119  36.668  1.00 51.40 LIG-0.34  N 
ATOM      3 H    THR F   4      37.600 -25.689  36.023  1.00 51.40 LIG 0.16  HD
ATOM      4  C   CYS F   3      37.888 -25.751  37.949  1.00 52.18 LIG 0.24  C 
ATOM      5 O    CYS F   3      38.325 -26.434  38.879  1.00 51.89 LIG-0.27  OA
BRANCH 4 6
ATOM      6  CA  CYS F   3      37.158 -24.435  38.241  1.00 52.92 LIG 0.18  C 
BRANCH 6 7
ATOM      7  CB  CYS F   3      38.052 -23.469  39.033  1.00 52.86 LIG 0.10  C 
BRANCH 7 8
ATOM      8 SG   CYS F   3      37.181 -21.997  39.678  1.00 55.16 LIG-0.18  SA
ATOM      9 HG   CYS F   3      36.707 -21.380  38.765  1.00 55.16 LIG 0.10  HD
ENDBRANCH 7 8
ENDBRANCH 6 7
BRANCH 6 10
ATOM     10  N   CYS F   3      35.916 -24.719  38.966  1.00 53.02 LIG-0.34  N 
ATOM     11 H    CYS F   3      35.960 -24.562  39.810  1.00 53.02 LIG 0.16  HD
ATOM     12  C   GLU F   2      34.824 -25.179  38.360  1.00 53.57 LIG 0.24  C 
ATOM     13 O    GLU F   2      34.710 -25.251  37.132  1.00 53.07 LIG-0.27  OA
BRANCH 12 14
ATOM     14  CA  GLU F   2      33.699 -25.671  39.273  1.00 54.00 LIG 0.18  C 
BRANCH 14 15
ATOM     15  CB  GLU F   2      32.445 -24.867  38.897  1.00 54.10 LIG 0.04  C 
BRANCH 15 16
ATOM     16  CG  GLU F   2      32.372 -23.429  39.392  1.00 55.55 LIG 0.12  C 
BRANCH 16 17
ATOM     17  CD  GLU F   2      32.054 -23.338  40.888  1.00 57.36 LIG 0.17  C 
ATOM     18 OE1  GLU F   2      30.863 -23.362  41.281  1.00 58.39 LIG-0.65  OA
ATOM     19 OE2  GLU F   2      33.004 -23.256  41.695  1.00 58.95 LIG-0.65  OA
ENDBRANCH 16 17
ENDBRANCH 15 16
ENDBRANCH 14 15
BRANCH 14 20
ATOM     20  N   GLU F   2      34.008 -25.553  40.706  1.00 53.99 LIG-0.35  N 
ATOM     21 H    GLU F   2      34.052 -24.737  40.976  1.00 53.99 LIG 0.16  HD
ATOM     22  C   SER F   1      34.203 -26.591  41.524  1.00 54.35 LIG 0.25  C 
ATOM     23 O    SER F   1      34.252 -27.769  41.145  1.00 54.45 LIG-0.27  OA
BRANCH 22 24
ATOM     24  CA  SER F   1      34.400 -26.248  43.006  1.00 54.58 LIG 0.30  C 
BRANCH 24 25
ATOM     25  CB  SER F   1      34.312 -27.516  43.865  1.00 54.63 LIG 0.21  C 
BRANCH 25 26
ATOM     26 OG   SER F   1      33.107 -27.539  44.616  1.00 54.91 LIG-0.40  OA
ATOM     27 HG   SER F   1      33.267 -27.313  45.410  1.00 54.91 LIG 0.21  HD
ENDBRANCH 25 26
ENDBRANCH 24 25
BRANCH 24 28
ATOM     28  N   SER F   1      33.418 -25.224  43.479  1.00 54.74 LIG-0.06  N 
ATOM     29 H1   SER F   1      33.039 -24.829  42.777  1.00 54.74 LIG 0.28  HD
ATOM     30 H2   SER F   1      32.790 -25.620  43.971  1.00 54.74 LIG 0.28  HD
ATOM     31 H3   SER F   1      33.839 -24.614  43.971  1.00 54.74 LIG 0.28  HD
ENDBRANCH 24 28
ENDBRANCH 22 24
ENDBRANCH 14 20
ENDBRANCH 12 14
ENDBRANCH 6 10
ENDBRANCH 4 6
ENDBRANCH 1 2
BRANCH 1 32
ATOM     32  CB  THR F   4      37.830 -28.423  35.677  1.00 51.21 LIG 0.15  C 
ATOM     33  CG2 THR F   4      36.663 -28.690  36.627  1.00 50.61 LIG 0.04  C 
BRANCH 32 34
ATOM     34 OG1  THR F   4      37.348 -28.055  34.380  1.00 51.15 LIG-0.39  OA
ATOM     35 HG1  THR F   4      37.845 -27.463  34.053  1.00 51.15 LIG 0.21  HD
ENDBRANCH 32 34
ENDBRANCH 1 32
BRANCH 1 36
ATOM     36  C   THR F   4      39.672 -26.861  35.141  1.00 49.53 LIG 0.24  C 
ATOM     37  N   THR F   5      40.687 -27.674  34.874  1.00 47.76 LIG-0.34  N 
ATOM     38 H    THR F   5      40.747 -28.468  35.199  1.00 47.76 LIG 0.16  HD
ATOM     39 O    THR F   4      39.488 -25.788  34.575  1.00 50.01 LIG-0.27  OA
BRANCH 37 40
ATOM     40  CA  THR F   5      41.804 -27.315  34.006  1.00 46.83 LIG 0.20  C 
BRANCH 40 41
ATOM     41  C   THR F   5      42.140 -25.839  34.220  1.00 45.74 LIG 0.24  C 
ATOM     42  N   PRO F   6      42.830 -25.522  35.326  1.00 45.40 LIG-0.34  N 
ATOM     43  CA  PRO F   6      43.354 -24.159  35.487  1.00 45.02 LIG 0.18  C 
ATOM     44  CD  PRO F   6      43.069 -26.352  36.522  1.00 45.45 LIG 0.13  C 
ATOM     45  CB  PRO F   6      44.127 -24.224  36.807  1.00 45.11 LIG 0.04  C 
ATOM     46  CG  PRO F   6      43.489 -25.334  37.572  1.00 45.75 LIG 0.02  C 
ATOM     47 O    THR F   5      41.763 -24.994  33.406  1.00 44.21 LIG-0.27  OA
BRANCH 43 48
ATOM     48  C   PRO F   6      44.305 -23.851  34.344  1.00 45.08 LIG 0.24  C 
ATOM     49  N   CYS F   7      45.111 -24.823  33.922  1.00 44.40 LIG-0.34  N 
ATOM     50 H    CYS F   7      45.085 -25.640  34.188  1.00 44.40 LIG 0.16  HD
ATOM     51 O    PRO F   6      44.309 -22.716  33.862  1.00 44.91 LIG-0.27  OA
BRANCH 49 52
ATOM     52  CA  CYS F   7      46.134 -24.515  32.926  1.00 45.02 LIG 0.19  C 
BRANCH 52 53
ATOM     53  CB  CYS F   7      45.510 -24.449  31.523  1.00 44.51 LIG 0.11  C 
BRANCH 53 54
ATOM     54 SG   CYS F   7      44.675 -26.034  31.078  1.00 46.73 LIG-0.18  SA
ATOM     55 HG   CYS F   7      43.510 -25.963  31.354  1.00 46.73 LIG 0.10  HD
ENDBRANCH 53 54
ENDBRANCH 52 53
BRANCH 52 56
ATOM     56  C   CYS F   7      47.013 -23.305  33.297  1.00 45.05 LIG 0.20  C 
ATOM     57 OXT  CYS F   7      47.542 -22.588  32.434  1.00 44.33 LIG-0.65  OA
ATOM     58 O    CYS F   7      47.241 -23.078  34.502  1.00 44.51 LIG-0.65  OA
ENDBRANCH 52 56
ENDBRANCH 49 52
ENDBRANCH 43 48
ENDBRANCH 40 41
BRANCH 40 59
ATOM     59  CB  THR F   5      41.419 -27.527  32.532  1.00 46.83 LIG 0.15  C 
ATOM     60  CG2 THR F   5      41.199 -28.995  32.197  1.00 46.88 LIG 0.04  C 
BRANCH 59 61
ATOM     61 OG1  THR F   5      40.240 -26.766  32.235  1.00 48.31 LIG-0.39  OA
ATOM     62 HG1  THR F   5      40.363 -25.963  32.451  1.00 48.31 LIG 0.21  HD
ENDBRANCH 59 61
ENDBRANCH 40 59
ENDBRANCH 37 40
ENDBRANCH 1 36
TORSDOF 26
ENDMDL
MODEL 25
USER: ADFR SOLUTION from run 106
USER: SCORE 16.662864 LL:  -4.945 LR: -12.592 RR:   0.000 FEB:  -4.836
USER: RMSD 5.586045
USER: SEED 105
USER: STATUS no improvement in best in 16 clusters for 5 generations
USER: GENES 28
USER: genes 0 Translation |==|  0.36132 0.37674 0.57471
USER: genes 1 Rotation |==|  0.31784 0.59279 0.62940 0.93757
USER: genes 2 Torsion [C]-CA--N-[C] |==|  0.61114
USER: genes 3 Torsion [N]-C--CA-[N] |==|  0.00144
USER: genes 4 Torsion [C]-CA--CB-[SG] |==|  0.11476
USER: genes 5 Torsion [CA]-CB--SG-[HG] |==|  0.40560
USER: genes 6 Torsion [C]-CA--N-[C] |==|  0.58894
USER: genes 7 Torsion [N]-C--CA-[N] |==|  0.44635
USER: genes 8 Torsion [C]-CA--CB-[CG] |==|  0.44818
USER: genes 9 Torsion [CA]-CB--CG-[CD] |==|  0.20055
USER: genes 10 Torsion [CB]-CG--CD-[OE1] |==|  0.70212
USER: genes 11 Torsion [C]-CA--N-[C] |==|  0.71009
USER: genes 12 Torsion [N]-C--CA-[N] |==|  0.81520
USER: genes 13 Torsion [C]-CA--CB-[OG] |==|  0.70572
USER: genes 14 Torsion [CA]-CB--OG-[HG] |==|  0.23370
USER: genes 15 Torsion [C]-CA--N-[H1] |==|  0.64270
USER: genes 16 Torsion [N]-CA--CB-[OG1] |==|  0.13171
USER: genes 17 Torsion [CA]-CB--OG1-[HG1] |==|  0.03533
USER: genes 18 Torsion [N]-CA--C-[N] |==|  0.46312
USER: genes 19 Torsion [C]-N--CA-[CB] |==|  0.84976
USER: genes 20 Torsion [N]-CA--C-[N] |==|  0.39685
USER: genes 21 Torsion [N]-CA--C-[N] |==|  0.95933
USER: genes 22 Torsion [C]-N--CA-[CB] |==|  0.25914
USER: genes 23 Torsion [N]-CA--CB-[SG] |==|  0.22564
USER: genes 24 Torsion [CA]-CB--SG-[HG] |==|  0.20453
USER: genes 25 Torsion [N]-CA--C-[OXT] |==|  0.03196
USER: genes 26 Torsion [N]-CA--CB-[OG1] |==|  0.88882
USER: genes 27 Torsion [CA]-CB--OG1-[HG1] |==|  0.21865
ROOT
ATOM      1  CA  THR F   4      36.598 -29.122  35.949  1.00 50.77 LIG 0.20  C 
ENDROOT
BRANCH 1 2
ATOM      2  N   THR F   4      37.703 -28.750  35.062  1.00 51.40 LIG-0.34  N 
ATOM      3 H    THR F   4      38.382 -28.414  35.469  1.00 51.40 LIG 0.16  HD
ATOM      4  C   CYS F   3      37.646 -28.923  33.739  1.00 52.18 LIG 0.24  C 
ATOM      5 O    CYS F   3      36.721 -29.512  33.174  1.00 51.89 LIG-0.27  OA
BRANCH 4 6
ATOM      6  CA  CYS F   3      38.831 -28.395  32.923  1.00 52.92 LIG 0.18  C 
BRANCH 6 7
ATOM      7  CB  CYS F   3      39.462 -29.510  32.076  1.00 52.86 LIG 0.10  C 
BRANCH 7 8
ATOM      8 SG   CYS F   3      38.252 -30.625  31.278  1.00 55.16 LIG-0.18  SA
ATOM      9 HG   CYS F   3      38.677 -30.981  30.214  1.00 55.16 LIG 0.10  HD
ENDBRANCH 7 8
ENDBRANCH 6 7
BRANCH 6 10
ATOM     10  N   CYS F   3      39.817 -27.799  33.828  1.00 53.02 LIG-0.34  N 
ATOM     11 H    CYS F   3      39.854 -28.173  34.601  1.00 53.02 LIG 0.16  HD
ATOM     12  C   GLU F   2      40.583 -26.769  33.473  1.00 53.57 LIG 0.24  C 
ATOM     13 O    GLU F   2      40.645 -26.338  32.318  1.00 53.07 LIG-0.27  OA
BRANCH 12 14
ATOM     14  CA  GLU F   2      41.373 -26.093  34.597  1.00 54.00 LIG 0.18  C 
BRANCH 14 15
ATOM     15  CB  GLU F   2      40.369 -25.238  35.385  1.00 54.10 LIG 0.04  C 
BRANCH 15 16
ATOM     16  CG  GLU F   2      40.777 -24.811  36.788  1.00 55.55 LIG 0.12  C 
BRANCH 16 17
ATOM     17  CD  GLU F   2      41.870 -23.736  36.781  1.00 57.36 LIG 0.17  C 
ATOM     18 OE1  GLU F   2      43.044 -24.029  37.113  1.00 58.39 LIG-0.65  OA
ATOM     19 OE2  GLU F   2      41.564 -22.579  36.424  1.00 58.95 LIG-0.65  OA
ENDBRANCH 16 17
ENDBRANCH 15 16
ENDBRANCH 14 15
BRANCH 14 20
ATOM     20  N   GLU F   2      42.510 -25.291  34.119  1.00 53.99 LIG-0.35  N 
ATOM     21 H    GLU F   2      42.272 -24.540  33.775  1.00 53.99 LIG 0.16  HD
ATOM     22  C   SER F   1      43.788 -25.671  34.203  1.00 54.35 LIG 0.25  C 
ATOM     23 O    SER F   1      44.153 -26.787  34.595  1.00 54.45 LIG-0.27  OA
BRANCH 22 24
ATOM     24  CA  SER F   1      44.825 -24.635  33.750  1.00 54.58 LIG 0.30  C 
BRANCH 24 25
ATOM     25  CB  SER F   1      44.669 -23.337  34.550  1.00 54.63 LIG 0.21  C 
BRANCH 25 26
ATOM     26 OG   SER F   1      44.074 -22.318  33.759  1.00 54.91 LIG-0.40  OA
ATOM     27 HG   SER F   1      43.238 -22.401  33.778  1.00 54.91 LIG 0.21  HD
ENDBRANCH 25 26
ENDBRANCH 24 25
BRANCH 24 28
ATOM     28  N   SER F   1      44.738 -24.361  32.282  1.00 54.74 LIG-0.06  N 
ATOM     29 H1   SER F   1      45.545 -24.445  31.916  1.00 54.74 LIG 0.28  HD
ATOM     30 H2   SER F   1      44.179 -24.942  31.904  1.00 54.74 LIG 0.28  HD
ATOM     31 H3   SER F   1      44.438 -23.534  32.152  1.00 54.74 LIG 0.28  HD
ENDBRANCH 24 28
ENDBRANCH 22 24
ENDBRANCH 14 20
ENDBRANCH 12 14
ENDBRANCH 6 10
ENDBRANCH 4 6
ENDBRANCH 1 2
BRANCH 1 32
ATOM     32  CB  THR F   4      36.819 -30.461  36.675  1.00 51.21 LIG 0.15  C 
ATOM     33  CG2 THR F   4      36.619 -31.622  35.701  1.00 50.61 LIG 0.04  C 
BRANCH 32 34
ATOM     34 OG1  THR F   4      38.134 -30.500  37.239  1.00 51.15 LIG-0.39  OA
ATOM     35 HG1  THR F   4      38.470 -29.731  37.220  1.00 51.15 LIG 0.21  HD
ENDBRANCH 32 34
ENDBRANCH 1 32
BRANCH 1 36
ATOM     36  C   THR F   4      36.483 -28.032  37.001  1.00 49.53 LIG 0.24  C 
ATOM     37  N   THR F   5      35.378 -28.035  37.737  1.00 47.76 LIG-0.34  N 
ATOM     38 H    THR F   5      34.811 -28.682  37.725  1.00 47.76 LIG 0.16  HD
ATOM     39 O    THR F   4      37.376 -27.197  37.113  1.00 50.01 LIG-0.27  OA
BRANCH 37 40
ATOM     40  CA  THR F   5      35.005 -26.951  38.640  1.00 46.83 LIG 0.20  C 
BRANCH 40 41
ATOM     41  C   THR F   5      34.732 -25.693  37.814  1.00 45.74 LIG 0.24  C 
ATOM     42  N   PRO F   6      33.731 -24.899  38.221  1.00 45.40 LIG-0.34  N 
ATOM     43  CA  PRO F   6      33.550 -23.582  37.594  1.00 45.02 LIG 0.18  C 
ATOM     44  CD  PRO F   6      32.658 -25.204  39.187  1.00 45.45 LIG 0.13  C 
ATOM     45  CB  PRO F   6      32.382 -22.971  38.371  1.00 45.11 LIG 0.04  C 
ATOM     46  CG  PRO F   6      31.613 -24.138  38.892  1.00 45.75 LIG 0.02  C 
ATOM     47 O    THR F   5      35.406 -25.454  36.811  1.00 44.21 LIG-0.27  OA
BRANCH 43 48
ATOM     48  C   PRO F   6      34.804 -22.752  37.804  1.00 45.08 LIG 0.24  C 
ATOM     49  N   CYS F   7      35.684 -23.168  38.713  1.00 44.40 LIG-0.34  N 
ATOM     50 H    CYS F   7      35.643 -23.913  39.139  1.00 44.40 LIG 0.16  HD
ATOM     51 O    PRO F   6      34.954 -21.722  37.142  1.00 44.91 LIG-0.27  OA
BRANCH 49 52
ATOM     52  CA  CYS F   7      36.824 -22.315  39.039  1.00 45.02 LIG 0.19  C 
BRANCH 52 53
ATOM     53  CB  CYS F   7      36.496 -21.425  40.249  1.00 44.51 LIG 0.11  C 
BRANCH 53 54
ATOM     54 SG   CYS F   7      36.711 -22.339  41.838  1.00 46.73 LIG-0.18  SA
ATOM     55 HG   CYS F   7      37.882 -22.477  42.065  1.00 46.73 LIG 0.10  HD
ENDBRANCH 53 54
ENDBRANCH 52 53
BRANCH 52 56
ATOM     56  C   CYS F   7      38.157 -23.081  39.146  1.00 45.05 LIG 0.20  C 
ATOM     57 OXT  CYS F   7      38.272 -24.257  38.767  1.00 44.33 LIG-0.65  OA
ATOM     58 O    CYS F   7      39.131 -22.515  39.681  1.00 44.51 LIG-0.65  OA
ENDBRANCH 52 56
ENDBRANCH 49 52
ENDBRANCH 43 48
ENDBRANCH 40 41
BRANCH 40 59
ATOM     59  CB  THR F   5      36.152 -26.661  39.622  1.00 46.83 LIG 0.15  C 
ATOM     60  CG2 THR F   5      35.693 -25.856  40.828  1.00 46.88 LIG 0.04  C 
BRANCH 59 61
ATOM     61 OG1  THR F   5      36.740 -27.900  40.043  1.00 48.31 LIG-0.39  OA
ATOM     62 HG1  THR F   5      37.254 -28.184  39.442  1.00 48.31 LIG 0.21  HD
ENDBRANCH 59 61
ENDBRANCH 40 59
ENDBRANCH 37 40
ENDBRANCH 1 36
TORSDOF 26
ENDMDL
MODEL 26
USER: ADFR SOLUTION from run 107
USER: SCORE 16.476610 LL:  -6.054 LR: -12.574 RR:   0.000 FEB:  -4.818
USER: RMSD 12.557617
USER: SEED 106
USER: STATUS no improvement in best in 18 clusters for 5 generations
USER: GENES 28
USER: genes 0 Translation |==|  0.24582 0.62727 0.67681
USER: genes 1 Rotation |==|  0.14220 0.59383 0.22441 0.69294
USER: genes 2 Torsion [C]-CA--N-[C] |==|  0.84995
USER: genes 3 Torsion [N]-C--CA-[N] |==|  0.93493
USER: genes 4 Torsion [C]-CA--CB-[SG] |==|  0.03087
USER: genes 5 Torsion [CA]-CB--SG-[HG] |==|  0.92025
USER: genes 6 Torsion [C]-CA--N-[C] |==|  0.83889
USER: genes 7 Torsion [N]-C--CA-[N] |==|  0.90895
USER: genes 8 Torsion [C]-CA--CB-[CG] |==|  0.66184
USER: genes 9 Torsion [CA]-CB--CG-[CD] |==|  0.18217
USER: genes 10 Torsion [CB]-CG--CD-[OE1] |==|  0.55746
USER: genes 11 Torsion [C]-CA--N-[C] |==|  0.69048
USER: genes 12 Torsion [N]-C--CA-[N] |==|  0.04940
USER: genes 13 Torsion [C]-CA--CB-[OG] |==|  0.71537
USER: genes 14 Torsion [CA]-CB--OG-[HG] |==|  0.08776
USER: genes 15 Torsion [C]-CA--N-[H1] |==|  0.37573
USER: genes 16 Torsion [N]-CA--CB-[OG1] |==|  0.79383
USER: genes 17 Torsion [CA]-CB--OG1-[HG1] |==|  0.82957
USER: genes 18 Torsion [N]-CA--C-[N] |==|  0.87430
USER: genes 19 Torsion [C]-N--CA-[CB] |==|  0.34129
USER: genes 20 Torsion [N]-CA--C-[N] |==|  0.21258
USER: genes 21 Torsion [N]-CA--C-[N] |==|  0.75684
USER: genes 22 Torsion [C]-N--CA-[CB] |==|  0.39014
USER: genes 23 Torsion [N]-CA--CB-[SG] |==|  0.36439
USER: genes 24 Torsion [CA]-CB--SG-[HG] |==|  0.86724
USER: genes 25 Torsion [N]-CA--C-[OXT] |==|  0.71227
USER: genes 26 Torsion [N]-CA--CB-[OG1] |==|  0.84446
USER: genes 27 Torsion [CA]-CB--OG1-[HG1] |==|  0.65516
ROOT
ATOM      1  CA  THR F   4      33.566 -24.988  38.400  1.00 50.77 LIG 0.20  C 
ENDROOT
BRANCH 1 2
ATOM      2  N   THR F   4      33.887 -26.089  39.311  1.00 51.40 LIG-0.34  N 
ATOM      3 H    THR F   4      33.491 -26.040  40.074  1.00 51.40 LIG 0.16  HD
ATOM      4  C   CYS F   3      34.723 -27.075  38.974  1.00 52.18 LIG 0.24  C 
ATOM      5 O    CYS F   3      35.194 -27.203  37.841  1.00 51.89 LIG-0.27  OA
BRANCH 4 6
ATOM      6  CA  CYS F   3      35.047 -28.106  40.061  1.00 52.92 LIG 0.18  C 
BRANCH 6 7
ATOM      7  CB  CYS F   3      34.211 -29.382  39.883  1.00 52.86 LIG 0.10  C 
BRANCH 7 8
ATOM      8 SG   CYS F   3      33.315 -29.478  38.292  1.00 55.16 LIG-0.18  SA
ATOM      9 HG   CYS F   3      33.064 -28.370  37.906  1.00 55.16 LIG 0.10  HD
ENDBRANCH 7 8
ENDBRANCH 6 7
BRANCH 6 10
ATOM     10  N   CYS F   3      34.822 -27.508  41.380  1.00 53.02 LIG-0.34  N 
ATOM     11 H    CYS F   3      34.253 -27.933  41.865  1.00 53.02 LIG 0.16  HD
ATOM     12  C   GLU F   2      35.450 -26.405  41.782  1.00 53.57 LIG 0.24  C 
ATOM     13 O    GLU F   2      36.381 -25.890  41.155  1.00 53.07 LIG-0.27  OA
BRANCH 12 14
ATOM     14  CA  GLU F   2      34.927 -25.757  43.066  1.00 54.00 LIG 0.18  C 
BRANCH 14 15
ATOM     15  CB  GLU F   2      35.719 -26.380  44.226  1.00 54.10 LIG 0.04  C 
BRANCH 15 16
ATOM     16  CG  GLU F   2      34.916 -27.090  45.307  1.00 55.55 LIG 0.12  C 
BRANCH 16 17
ATOM     17  CD  GLU F   2      34.202 -28.341  44.784  1.00 57.36 LIG 0.17  C 
ATOM     18 OE1  GLU F   2      33.219 -28.811  45.405  1.00 58.39 LIG-0.65  OA
ATOM     19 OE2  GLU F   2      34.615 -28.862  43.726  1.00 58.95 LIG-0.65  OA
ENDBRANCH 16 17
ENDBRANCH 15 16
ENDBRANCH 14 15
BRANCH 14 20
ATOM     20  N   GLU F   2      33.477 -25.911  43.256  1.00 53.99 LIG-0.35  N 
ATOM     21 H    GLU F   2      33.242 -26.723  43.416  1.00 53.99 LIG 0.16  HD
ATOM     22  C   SER F   1      32.597 -24.908  43.192  1.00 54.35 LIG 0.25  C 
ATOM     23 O    SER F   1      32.891 -23.752  42.859  1.00 54.45 LIG-0.27  OA
BRANCH 22 24
ATOM     24  CA  SER F   1      31.145 -25.267  43.535  1.00 54.58 LIG 0.30  C 
BRANCH 24 25
ATOM     25  CB  SER F   1      30.488 -24.135  44.332  1.00 54.63 LIG 0.21  C 
BRANCH 25 26
ATOM     26 OG   SER F   1      30.423 -24.456  45.714  1.00 54.91 LIG-0.40  OA
ATOM     27 HG   SER F   1      31.080 -24.938  45.922  1.00 54.91 LIG 0.21  HD
ENDBRANCH 25 26
ENDBRANCH 24 25
BRANCH 24 28
ATOM     28  N   SER F   1      31.050 -26.560  44.281  1.00 54.74 LIG-0.06  N 
ATOM     29 H1   SER F   1      30.487 -26.468  44.964  1.00 54.74 LIG 0.28  HD
ATOM     30 H2   SER F   1      30.752 -27.197  43.735  1.00 54.74 LIG 0.28  HD
ATOM     31 H3   SER F   1      31.854 -26.785  44.588  1.00 54.74 LIG 0.28  HD
ENDBRANCH 24 28
ENDBRANCH 22 24
ENDBRANCH 14 20
ENDBRANCH 12 14
ENDBRANCH 6 10
ENDBRANCH 4 6
ENDBRANCH 1 2
BRANCH 1 32
ATOM     32  CB  THR F   4      32.720 -23.880  39.051  1.00 51.21 LIG 0.15  C 
ATOM     33  CG2 THR F   4      32.766 -22.615  38.193  1.00 50.61 LIG 0.04  C 
BRANCH 32 34
ATOM     34 OG1  THR F   4      31.369 -24.327  39.212  1.00 51.15 LIG-0.39  OA
ATOM     35 HG1  THR F   4      31.038 -24.499  38.459  1.00 51.15 LIG 0.21  HD
ENDBRANCH 32 34
ENDBRANCH 1 32
BRANCH 1 36
ATOM     36  C   THR F   4      34.884 -24.373  37.960  1.00 49.53 LIG 0.24  C 
ATOM     37  N   THR F   5      35.781 -24.156  38.915  1.00 47.76 LIG-0.34  N 
ATOM     38 H    THR F   5      35.693 -24.458  39.716  1.00 47.76 LIG 0.16  HD
ATOM     39 O    THR F   4      35.058 -24.084  36.781  1.00 50.01 LIG-0.27  OA
BRANCH 37 40
ATOM     40  CA  THR F   5      37.005 -23.387  38.714  1.00 46.83 LIG 0.20  C 
BRANCH 40 41
ATOM     41  C   THR F   5      38.207 -24.300  38.958  1.00 45.74 LIG 0.24  C 
ATOM     42  N   PRO F   6      38.519 -25.174  37.989  1.00 45.40 LIG-0.34  N 
ATOM     43  CA  PRO F   6      39.773 -25.934  38.074  1.00 45.02 LIG 0.18  C 
ATOM     44  CD  PRO F   6      37.698 -25.588  36.834  1.00 45.45 LIG 0.13  C 
ATOM     45  CB  PRO F   6      39.796 -26.740  36.774  1.00 45.11 LIG 0.04  C 
ATOM     46  CG  PRO F   6      38.363 -26.881  36.384  1.00 45.75 LIG 0.02  C 
ATOM     47 O    THR F   5      38.833 -24.229  40.016  1.00 44.21 LIG-0.27  OA
BRANCH 43 48
ATOM     48  C   PRO F   6      40.943 -24.966  38.105  1.00 45.08 LIG 0.24  C 
ATOM     49  N   CYS F   7      41.451 -24.563  36.941  1.00 44.40 LIG-0.34  N 
ATOM     50 H    CYS F   7      41.123 -24.741  36.168  1.00 44.40 LIG 0.16  HD
ATOM     51 O    PRO F   6      41.388 -24.603  39.196  1.00 44.91 LIG-0.27  OA
BRANCH 49 52
ATOM     52  CA  CYS F   7      42.665 -23.750  36.940  1.00 45.02 LIG 0.19  C 
BRANCH 52 53
ATOM     53  CB  CYS F   7      43.590 -24.174  35.789  1.00 44.51 LIG 0.11  C 
BRANCH 53 54
ATOM     54 SG   CYS F   7      44.172 -22.717  34.818  1.00 46.73 LIG-0.18  SA
ATOM     55 HG   CYS F   7      43.238 -22.012  34.555  1.00 46.73 LIG 0.10  HD
ENDBRANCH 53 54
ENDBRANCH 52 53
BRANCH 52 56
ATOM     56  C   CYS F   7      42.394 -22.235  37.024  1.00 45.05 LIG 0.20  C 
ATOM     57 OXT  CYS F   7      42.488 -21.496  36.031  1.00 44.33 LIG-0.65  OA
ATOM     58 O    CYS F   7      42.129 -21.735  38.134  1.00 44.51 LIG-0.65  OA
ENDBRANCH 52 56
ENDBRANCH 49 52
ENDBRANCH 43 48
ENDBRANCH 40 41
BRANCH 40 59
ATOM     59  CB  THR F   5      37.063 -22.215  39.708  1.00 46.83 LIG 0.15  C 
ATOM     60  CG2 THR F   5      38.308 -21.360  39.525  1.00 46.88 LIG 0.04  C 
BRANCH 59 61
ATOM     61 OG1  THR F   5      35.882 -21.413  39.564  1.00 48.31 LIG-0.39  OA
ATOM     62 HG1  THR F   5      36.101 -20.617  39.406  1.00 48.31 LIG 0.21  HD
ENDBRANCH 59 61
ENDBRANCH 40 59
ENDBRANCH 37 40
ENDBRANCH 1 36
TORSDOF 26
ENDMDL
MODEL 27
USER: ADFR SOLUTION from run 164
USER: SCORE 16.654880 LL:  -5.019 LR: -12.538 RR:   0.000 FEB:  -4.782
USER: RMSD 11.580600
USER: SEED 163
USER: STATUS no improvement in best in 12 clusters for 5 generations
USER: GENES 28
USER: genes 0 Translation |==|  0.35839 0.77700 0.70362
USER: genes 1 Rotation |==|  0.40240 0.81134 0.14436 0.63062
USER: genes 2 Torsion [C]-CA--N-[C] |==|  0.66380
USER: genes 3 Torsion [N]-C--CA-[N] |==|  0.93318
USER: genes 4 Torsion [C]-CA--CB-[SG] |==|  0.77830
USER: genes 5 Torsion [CA]-CB--SG-[HG] |==|  0.33644
USER: genes 6 Torsion [C]-CA--N-[C] |==|  0.83044
USER: genes 7 Torsion [N]-C--CA-[N] |==|  0.96473
USER: genes 8 Torsion [C]-CA--CB-[CG] |==|  0.39882
USER: genes 9 Torsion [CA]-CB--CG-[CD] |==|  0.53963
USER: genes 10 Torsion [CB]-CG--CD-[OE1] |==|  0.18364
USER: genes 11 Torsion [C]-CA--N-[C] |==|  0.81916
USER: genes 12 Torsion [N]-C--CA-[N] |==|  0.82895
USER: genes 13 Torsion [C]-CA--CB-[OG] |==|  0.57816
USER: genes 14 Torsion [CA]-CB--OG-[HG] |==|  0.80367
USER: genes 15 Torsion [C]-CA--N-[H1] |==|  0.11085
USER: genes 16 Torsion [N]-CA--CB-[OG1] |==|  0.55563
USER: genes 17 Torsion [CA]-CB--OG1-[HG1] |==|  0.23782
USER: genes 18 Torsion [N]-CA--C-[N] |==|  0.54024
USER: genes 19 Torsion [C]-N--CA-[CB] |==|  0.88332
USER: genes 20 Torsion [N]-CA--C-[N] |==|  0.35354
USER: genes 21 Torsion [N]-CA--C-[N] |==|  0.33079
USER: genes 22 Torsion [C]-N--CA-[CB] |==|  0.22838
USER: genes 23 Torsion [N]-CA--CB-[SG] |==|  0.10417
USER: genes 24 Torsion [CA]-CB--SG-[HG] |==|  0.19433
USER: genes 25 Torsion [N]-CA--C-[OXT] |==|  0.36998
USER: genes 26 Torsion [N]-CA--CB-[OG1] |==|  0.86431
USER: genes 27 Torsion [CA]-CB--OG1-[HG1] |==|  0.24119
ROOT
ATOM      1  CA  THR F   4      36.521 -22.517  39.043  1.00 50.77 LIG 0.20  C 
ENDROOT
BRANCH 1 2
ATOM      2  N   THR F   4      35.282 -23.286  38.895  1.00 51.40 LIG-0.34  N 
ATOM      3 H    THR F   4      35.131 -23.835  39.540  1.00 51.40 LIG 0.16  HD
ATOM      4  C   CYS F   3      34.469 -23.136  37.846  1.00 52.18 LIG 0.24  C 
ATOM      5 O    CYS F   3      34.629 -22.266  36.987  1.00 51.89 LIG-0.27  OA
BRANCH 4 6
ATOM      6  CA  CYS F   3      33.261 -24.076  37.770  1.00 52.92 LIG 0.18  C 
BRANCH 6 7
ATOM      7  CB  CYS F   3      31.988 -23.386  38.282  1.00 52.86 LIG 0.10  C 
BRANCH 7 8
ATOM      8 SG   CYS F   3      31.839 -23.339  40.104  1.00 55.16 LIG-0.18  SA
ATOM      9 HG   CYS F   3      31.762 -22.198  40.469  1.00 55.16 LIG 0.10  HD
ENDBRANCH 7 8
ENDBRANCH 6 7
BRANCH 6 10
ATOM     10  N   CYS F   3      33.545 -25.294  38.534  1.00 53.02 LIG-0.34  N 
ATOM     11 H    CYS F   3      33.006 -25.429  39.190  1.00 53.02 LIG 0.16  HD
ATOM     12  C   GLU F   2      34.550 -26.112  38.228  1.00 53.57 LIG 0.24  C 
ATOM     13 O    GLU F   2      35.220 -26.005  37.196  1.00 53.07 LIG-0.27  OA
BRANCH 12 14
ATOM     14  CA  GLU F   2      34.882 -27.193  39.260  1.00 54.00 LIG 0.18  C 
BRANCH 14 15
ATOM     15  CB  GLU F   2      34.473 -28.536  38.634  1.00 54.10 LIG 0.04  C 
BRANCH 15 16
ATOM     16  CG  GLU F   2      35.359 -29.736  38.936  1.00 55.55 LIG 0.12  C 
BRANCH 16 17
ATOM     17  CD  GLU F   2      35.079 -30.922  38.006  1.00 57.36 LIG 0.17  C 
ATOM     18 OE1  GLU F   2      35.333 -30.835  36.781  1.00 58.39 LIG-0.65  OA
ATOM     19 OE2  GLU F   2      34.612 -31.969  38.502  1.00 58.95 LIG-0.65  OA
ENDBRANCH 16 17
ENDBRANCH 15 16
ENDBRANCH 14 15
BRANCH 14 20
ATOM     20  N   GLU F   2      34.233 -26.984  40.563  1.00 53.99 LIG-0.35  N 
ATOM     21 H    GLU F   2      33.662 -27.596  40.758  1.00 53.99 LIG 0.16  HD
ATOM     22  C   SER F   1      34.489 -25.955  41.376  1.00 54.35 LIG 0.25  C 
ATOM     23 O    SER F   1      35.224 -25.005  41.077  1.00 54.45 LIG-0.27  OA
BRANCH 22 24
ATOM     24  CA  SER F   1      33.787 -25.988  42.740  1.00 54.58 LIG 0.30  C 
BRANCH 24 25
ATOM     25  CB  SER F   1      34.233 -27.216  43.542  1.00 54.63 LIG 0.21  C 
BRANCH 25 26
ATOM     26 OG   SER F   1      33.215 -27.635  44.441  1.00 54.91 LIG-0.40  OA
ATOM     27 HG   SER F   1      33.143 -27.075  45.063  1.00 54.91 LIG 0.21  HD
ENDBRANCH 25 26
ENDBRANCH 24 25
BRANCH 24 28
ATOM     28  N   SER F   1      32.298 -25.963  42.603  1.00 54.74 LIG-0.06  N 
ATOM     29 H1   SER F   1      32.053 -26.476  41.918  1.00 54.74 LIG 0.28  HD
ATOM     30 H2   SER F   1      31.925 -26.270  43.351  1.00 54.74 LIG 0.28  HD
ATOM     31 H3   SER F   1      32.027 -25.128  42.458  1.00 54.74 LIG 0.28  HD
ENDBRANCH 24 28
ENDBRANCH 22 24
ENDBRANCH 14 20
ENDBRANCH 12 14
ENDBRANCH 6 10
ENDBRANCH 4 6
ENDBRANCH 1 2
BRANCH 1 32
ATOM     32  CB  THR F   4      36.557 -21.651  40.314  1.00 51.21 LIG 0.15  C 
ATOM     33  CG2 THR F   4      36.876 -22.520  41.530  1.00 50.61 LIG 0.04  C 
BRANCH 32 34
ATOM     34 OG1  THR F   4      37.532 -20.612  40.170  1.00 51.15 LIG-0.39  OA
ATOM     35 HG1  THR F   4      37.186 -19.954  39.778  1.00 51.15 LIG 0.21  HD
ENDBRANCH 32 34
ENDBRANCH 1 32
BRANCH 1 36
ATOM     36  C   THR F   4      37.660 -23.520  39.127  1.00 49.53 LIG 0.24  C 
ATOM     37  N   THR F   5      38.826 -23.053  39.557  1.00 47.76 LIG-0.34  N 
ATOM     38 H    THR F   5      38.918 -22.268  39.897  1.00 47.76 LIG 0.16  HD
ATOM     39 O    THR F   4      37.476 -24.682  38.780  1.00 50.01 LIG-0.27  OA
BRANCH 37 40
ATOM     40  CA  THR F   5      40.071 -23.812  39.501  1.00 46.83 LIG 0.20  C 
BRANCH 40 41
ATOM     41  C   THR F   5      40.599 -23.789  38.066  1.00 45.74 LIG 0.24  C 
ATOM     42  N   PRO F   6      41.867 -23.391  37.886  1.00 45.40 LIG-0.34  N 
ATOM     43  CA  PRO F   6      42.492 -23.538  36.565  1.00 45.02 LIG 0.18  C 
ATOM     44  CD  PRO F   6      42.749 -22.693  38.841  1.00 45.45 LIG 0.13  C 
ATOM     45  CB  PRO F   6      43.927 -23.055  36.789  1.00 45.11 LIG 0.04  C 
ATOM     46  CG  PRO F   6      43.841 -22.121  37.949  1.00 45.75 LIG 0.02  C 
ATOM     47 O    THR F   5      39.863 -24.109  37.131  1.00 44.21 LIG-0.27  OA
BRANCH 43 48
ATOM     48  C   PRO F   6      42.495 -25.006  36.173  1.00 45.08 LIG 0.24  C 
ATOM     49  N   CYS F   7      41.835 -25.359  35.071  1.00 44.40 LIG-0.34  N 
ATOM     50 H    CYS F   7      41.472 -24.815  34.514  1.00 44.40 LIG 0.16  HD
ATOM     51 O    PRO F   6      43.088 -25.813  36.892  1.00 44.91 LIG-0.27  OA
BRANCH 49 52
ATOM     52  CA  CYS F   7      41.698 -26.777  34.751  1.00 45.02 LIG 0.19  C 
BRANCH 52 53
ATOM     53  CB  CYS F   7      40.530 -27.392  35.540  1.00 44.51 LIG 0.11  C 
BRANCH 53 54
ATOM     54 SG   CYS F   7      39.117 -26.214  35.684  1.00 46.73 LIG-0.18  SA
ATOM     55 HG   CYS F   7      38.600 -26.075  34.610  1.00 46.73 LIG 0.10  HD
ENDBRANCH 53 54
ENDBRANCH 52 53
BRANCH 52 56
ATOM     56  C   CYS F   7      41.677 -27.070  33.238  1.00 45.05 LIG 0.20  C 
ATOM     57 OXT  CYS F   7      42.362 -27.974  32.734  1.00 44.33 LIG-0.65  OA
ATOM     58 O    CYS F   7      40.992 -26.338  32.497  1.00 44.51 LIG-0.65  OA
ENDBRANCH 52 56
ENDBRANCH 49 52
ENDBRANCH 43 48
ENDBRANCH 40 41
BRANCH 40 59
ATOM     59  CB  THR F   5      39.820 -25.272  39.914  1.00 46.83 LIG 0.15  C 
ATOM     60  CG2 THR F   5      41.112 -26.061  40.069  1.00 46.88 LIG 0.04  C 
BRANCH 59 61
ATOM     61 OG1  THR F   5      39.071 -25.296  41.137  1.00 48.31 LIG-0.39  OA
ATOM     62 HG1  THR F   5      38.250 -25.258  40.964  1.00 48.31 LIG 0.21  HD
ENDBRANCH 59 61
ENDBRANCH 40 59
ENDBRANCH 37 40
ENDBRANCH 1 36
TORSDOF 26
ENDMDL
MODEL 28
USER: ADFR SOLUTION from run 12
USER: SCORE 15.976247 LL:  -6.141 LR: -12.530 RR:   0.000 FEB:  -4.774
USER: RMSD 5.586616
USER: SEED 693774
USER: STATUS no improvement in best in 3 clusters for 5 generations
USER: GENES 28
USER: genes 0 Translation |==|  0.41662 0.56351 0.63433
USER: genes 1 Rotation |==|  0.76250 0.72054 0.32079 0.81677
USER: genes 2 Torsion [C]-CA--N-[C] |==|  0.78363
USER: genes 3 Torsion [N]-C--CA-[N] |==|  0.50742
USER: genes 4 Torsion [C]-CA--CB-[SG] |==|  0.55186
USER: genes 5 Torsion [CA]-CB--SG-[HG] |==|  0.95750
USER: genes 6 Torsion [C]-CA--N-[C] |==|  0.19177
USER: genes 7 Torsion [N]-C--CA-[N] |==|  0.84295
USER: genes 8 Torsion [C]-CA--CB-[CG] |==|  0.57100
USER: genes 9 Torsion [CA]-CB--CG-[CD] |==|  0.20008
USER: genes 10 Torsion [CB]-CG--CD-[OE1] |==|  0.13844
USER: genes 11 Torsion [C]-CA--N-[C] |==|  0.66669
USER: genes 12 Torsion [N]-C--CA-[N] |==|  0.02777
USER: genes 13 Torsion [C]-CA--CB-[OG] |==|  0.59438
USER: genes 14 Torsion [CA]-CB--OG-[HG] |==|  0.46596
USER: genes 15 Torsion [C]-CA--N-[H1] |==|  0.39594
USER: genes 16 Torsion [N]-CA--CB-[OG1] |==|  0.93162
USER: genes 17 Torsion [CA]-CB--OG1-[HG1] |==|  0.12278
USER: genes 18 Torsion [N]-CA--C-[N] |==|  0.44422
USER: genes 19 Torsion [C]-N--CA-[CB] |==|  0.46139
USER: genes 20 Torsion [N]-CA--C-[N] |==|  0.87803
USER: genes 21 Torsion [N]-CA--C-[N] |==|  0.92441
USER: genes 22 Torsion [C]-N--CA-[CB] |==|  0.48044
USER: genes 23 Torsion [N]-CA--CB-[SG] |==|  0.55529
USER: genes 24 Torsion [CA]-CB--SG-[HG] |==|  0.12299
USER: genes 25 Torsion [N]-CA--C-[OXT] |==|  0.76499
USER: genes 26 Torsion [N]-CA--CB-[OG1] |==|  0.99444
USER: genes 27 Torsion [CA]-CB--OG1-[HG1] |==|  0.76280
ROOT
ATOM      1  CA  THR F   4      38.049 -26.040  37.380  1.00 50.77 LIG 0.20  C 
ENDROOT
BRANCH 1 2
ATOM      2  N   THR F   4      38.583 -25.853  36.028  1.00 51.40 LIG-0.34  N 
ATOM      3 H    THR F   4      37.987 -25.882  35.408  1.00 51.40 LIG 0.16  HD
ATOM      4  C   CYS F   3      39.883 -25.655  35.795  1.00 52.18 LIG 0.24  C 
ATOM      5 O    CYS F   3      40.714 -25.497  36.693  1.00 51.89 LIG-0.27  OA
BRANCH 4 6
ATOM      6  CA  CYS F   3      40.316 -25.577  34.327  1.00 52.92 LIG 0.18  C 
BRANCH 6 7
ATOM      7  CB  CYS F   3      39.854 -26.814  33.545  1.00 52.86 LIG 0.10  C 
BRANCH 7 8
ATOM      8 SG   CYS F   3      40.747 -27.088  31.973  1.00 55.16 LIG-0.18  SA
ATOM      9 HG   CYS F   3      41.341 -26.090  31.671  1.00 55.16 LIG 0.10  HD
ENDBRANCH 7 8
ENDBRANCH 6 7
BRANCH 6 10
ATOM     10  N   CYS F   3      41.772 -25.423  34.258  1.00 53.02 LIG-0.34  N 
ATOM     11 H    CYS F   3      42.030 -24.652  33.977  1.00 53.02 LIG 0.16  HD
ATOM     12  C   GLU F   2      42.612 -26.397  34.602  1.00 53.57 LIG 0.24  C 
ATOM     13 O    GLU F   2      42.248 -27.441  35.154  1.00 53.07 LIG-0.27  OA
BRANCH 12 14
ATOM     14  CA  GLU F   2      44.083 -26.186  34.233  1.00 54.00 LIG 0.18  C 
BRANCH 14 15
ATOM     15  CB  GLU F   2      44.583 -25.009  35.085  1.00 54.10 LIG 0.04  C 
BRANCH 15 16
ATOM     16  CG  GLU F   2      45.757 -24.211  34.536  1.00 55.55 LIG 0.12  C 
BRANCH 16 17
ATOM     17  CD  GLU F   2      45.366 -23.338  33.338  1.00 57.36 LIG 0.17  C 
ATOM     18 OE1  GLU F   2      44.363 -22.588  33.407  1.00 58.39 LIG-0.65  OA
ATOM     19 OE2  GLU F   2      46.076 -23.384  32.311  1.00 58.95 LIG-0.65  OA
ENDBRANCH 16 17
ENDBRANCH 15 16
ENDBRANCH 14 15
BRANCH 14 20
ATOM     20  N   GLU F   2      44.303 -25.949  32.799  1.00 53.99 LIG-0.35  N 
ATOM     21 H    GLU F   2      43.894 -25.252  32.505  1.00 53.99 LIG 0.16  HD
ATOM     22  C   SER F   1      45.058 -26.723  32.014  1.00 54.35 LIG 0.25  C 
ATOM     23 O    SER F   1      45.571 -27.788  32.382  1.00 54.45 LIG-0.27  OA
BRANCH 22 24
ATOM     24  CA  SER F   1      45.249 -26.232  30.573  1.00 54.58 LIG 0.30  C 
BRANCH 24 25
ATOM     25  CB  SER F   1      46.724 -26.325  30.166  1.00 54.63 LIG 0.21  C 
BRANCH 25 26
ATOM     26 OG   SER F   1      47.078 -25.266  29.287  1.00 54.91 LIG-0.40  OA
ATOM     27 HG   SER F   1      47.914 -25.234  29.210  1.00 54.91 LIG 0.21  HD
ENDBRANCH 25 26
ENDBRANCH 24 25
BRANCH 24 28
ATOM     28  N   SER F   1      44.738 -24.839  30.384  1.00 54.74 LIG-0.06  N 
ATOM     29 H1   SER F   1      45.277 -24.397  29.830  1.00 54.74 LIG 0.28  HD
ATOM     30 H2   SER F   1      43.918 -24.867  30.041  1.00 54.74 LIG 0.28  HD
ATOM     31 H3   SER F   1      44.716 -24.422  31.170  1.00 54.74 LIG 0.28  HD
ENDBRANCH 24 28
ENDBRANCH 22 24
ENDBRANCH 14 20
ENDBRANCH 12 14
ENDBRANCH 6 10
ENDBRANCH 4 6
ENDBRANCH 1 2
BRANCH 1 32
ATOM     32  CB  THR F   4      36.526 -25.840  37.471  1.00 51.21 LIG 0.15  C 
ATOM     33  CG2 THR F   4      36.158 -25.237  38.826  1.00 50.61 LIG 0.04  C 
BRANCH 32 34
ATOM     34 OG1  THR F   4      36.080 -24.992  36.407  1.00 51.15 LIG-0.39  OA
ATOM     35 HG1  THR F   4      36.449 -25.225  35.689  1.00 51.15 LIG 0.21  HD
ENDBRANCH 32 34
ENDBRANCH 1 32
BRANCH 1 36
ATOM     36  C   THR F   4      38.359 -27.471  37.788  1.00 49.53 LIG 0.24  C 
ATOM     37  N   THR F   5      38.340 -27.730  39.090  1.00 47.76 LIG-0.34  N 
ATOM     38 H    THR F   5      38.044 -27.171  39.673  1.00 47.76 LIG 0.16  HD
ATOM     39 O    THR F   4      38.633 -28.303  36.930  1.00 50.01 LIG-0.27  OA
BRANCH 37 40
ATOM     40  CA  THR F   5      38.814 -28.982  39.672  1.00 46.83 LIG 0.20  C 
BRANCH 40 41
ATOM     41  C   THR F   5      37.786 -30.077  39.393  1.00 45.74 LIG 0.24  C 
ATOM     42  N   PRO F   6      36.494 -29.765  39.573  1.00 45.40 LIG-0.34  N 
ATOM     43  CA  PRO F   6      35.452 -30.703  39.132  1.00 45.02 LIG 0.18  C 
ATOM     44  CD  PRO F   6      35.926 -28.601  40.281  1.00 45.45 LIG 0.13  C 
ATOM     45  CB  PRO F   6      34.148 -29.962  39.436  1.00 45.11 LIG 0.04  C 
ATOM     46  CG  PRO F   6      34.488 -29.024  40.544  1.00 45.75 LIG 0.02  C 
ATOM     47 O    THR F   5      38.156 -31.197  39.036  1.00 44.21 LIG-0.27  OA
BRANCH 43 48
ATOM     48  C   PRO F   6      35.584 -30.928  37.636  1.00 45.08 LIG 0.24  C 
ATOM     49  N   CYS F   7      36.122 -29.955  36.902  1.00 44.40 LIG-0.34  N 
ATOM     50 H    CYS F   7      36.477 -29.237  37.214  1.00 44.40 LIG 0.16  HD
ATOM     51 O    PRO F   6      35.177 -31.988  37.155  1.00 44.91 LIG-0.27  OA
BRANCH 49 52
ATOM     52  CA  CYS F   7      36.127 -30.083  35.448  1.00 45.02 LIG 0.19  C 
BRANCH 52 53
ATOM     53  CB  CYS F   7      36.631 -28.783  34.799  1.00 44.51 LIG 0.11  C 
BRANCH 53 54
ATOM     54 SG   CYS F   7      36.114 -28.666  33.031  1.00 46.73 LIG-0.18  SA
ATOM     55 HG   CYS F   7      34.963 -28.990  32.928  1.00 46.73 LIG 0.10  HD
ENDBRANCH 53 54
ENDBRANCH 52 53
BRANCH 52 56
ATOM     56  C   CYS F   7      36.820 -31.364  34.943  1.00 45.05 LIG 0.20  C 
ATOM     57 OXT  CYS F   7      38.048 -31.426  34.779  1.00 44.33 LIG-0.65  OA
ATOM     58 O    CYS F   7      36.114 -32.345  34.638  1.00 44.51 LIG-0.65  OA
ENDBRANCH 52 56
ENDBRANCH 49 52
ENDBRANCH 43 48
ENDBRANCH 40 41
BRANCH 40 59
ATOM     59  CB  THR F   5      38.977 -28.829  41.194  1.00 46.83 LIG 0.15  C 
ATOM     60  CG2 THR F   5      40.377 -29.192  41.667  1.00 46.88 LIG 0.04  C 
BRANCH 59 61
ATOM     61 OG1  THR F   5      38.655 -27.484  41.573  1.00 48.31 LIG-0.39  OA
ATOM     62 HG1  THR F   5      39.334 -26.998  41.485  1.00 48.31 LIG 0.21  HD
ENDBRANCH 59 61
ENDBRANCH 40 59
ENDBRANCH 37 40
ENDBRANCH 1 36
TORSDOF 26
ENDMDL
MODEL 29
USER: ADFR SOLUTION from run 49
USER: SCORE 15.259375 LL:  -5.211 LR: -12.515 RR:   0.000 FEB:  -4.759
USER: RMSD 5.725332
USER: SEED 48
USER: STATUS no improvement in best in 6 clusters for 5 generations
USER: GENES 28
USER: genes 0 Translation |==|  0.32545 0.50598 0.64330
USER: genes 1 Rotation |==|  0.14710 0.54335 0.56526 0.84543
USER: genes 2 Torsion [C]-CA--N-[C] |==|  0.72070
USER: genes 3 Torsion [N]-C--CA-[N] |==|  0.54168
USER: genes 4 Torsion [C]-CA--CB-[SG] |==|  0.59365
USER: genes 5 Torsion [CA]-CB--SG-[HG] |==|  0.30349
USER: genes 6 Torsion [C]-CA--N-[C] |==|  0.63249
USER: genes 7 Torsion [N]-C--CA-[N] |==|  0.35556
USER: genes 8 Torsion [C]-CA--CB-[CG] |==|  0.65206
USER: genes 9 Torsion [CA]-CB--CG-[CD] |==|  0.77572
USER: genes 10 Torsion [CB]-CG--CD-[OE1] |==|  0.08083
USER: genes 11 Torsion [C]-CA--N-[C] |==|  0.84885
USER: genes 12 Torsion [N]-C--CA-[N] |==|  0.55048
USER: genes 13 Torsion [C]-CA--CB-[OG] |==|  0.62262
USER: genes 14 Torsion [CA]-CB--OG-[HG] |==|  0.71050
USER: genes 15 Torsion [C]-CA--N-[H1] |==|  0.71491
USER: genes 16 Torsion [N]-CA--CB-[OG1] |==|  0.04165
USER: genes 17 Torsion [CA]-CB--OG1-[HG1] |==|  0.21594
USER: genes 18 Torsion [N]-CA--C-[N] |==|  0.55255
USER: genes 19 Torsion [C]-N--CA-[CB] |==|  0.44086
USER: genes 20 Torsion [N]-CA--C-[N] |==|  0.87575
USER: genes 21 Torsion [N]-CA--C-[N] |==|  0.81278
USER: genes 22 Torsion [C]-N--CA-[CB] |==|  0.20279
USER: genes 23 Torsion [N]-CA--CB-[SG] |==|  0.75777
USER: genes 24 Torsion [CA]-CB--SG-[HG] |==|  0.29578
USER: genes 25 Torsion [N]-CA--C-[OXT] |==|  0.48227
USER: genes 26 Torsion [N]-CA--CB-[OG1] |==|  0.34739
USER: genes 27 Torsion [CA]-CB--OG1-[HG1] |==|  0.22543
ROOT
ATOM      1  CA  THR F   4      35.656 -26.989  37.595  1.00 50.77 LIG 0.20  C 
ENDROOT
BRANCH 1 2
ATOM      2  N   THR F   4      37.034 -27.073  37.103  1.00 51.40 LIG-0.34  N 
ATOM      3 H    THR F   4      37.627 -26.840  37.681  1.00 51.40 LIG 0.16  HD
ATOM      4  C   CYS F   3      37.327 -27.478  35.865  1.00 52.18 LIG 0.24  C 
ATOM      5 O    CYS F   3      36.483 -27.923  35.082  1.00 51.89 LIG-0.27  OA
BRANCH 4 6
ATOM      6  CA  CYS F   3      38.801 -27.420  35.451  1.00 52.92 LIG 0.18  C 
BRANCH 6 7
ATOM      7  CB  CYS F   3      39.465 -26.125  35.940  1.00 52.86 LIG 0.10  C 
BRANCH 7 8
ATOM      8 SG   CYS F   3      40.750 -25.467  34.819  1.00 55.16 LIG-0.18  SA
ATOM      9 HG   CYS F   3      40.349 -24.465  34.294  1.00 55.16 LIG 0.10  HD
ENDBRANCH 7 8
ENDBRANCH 6 7
BRANCH 6 10
ATOM     10  N   CYS F   3      38.902 -27.546  33.994  1.00 53.02 LIG-0.34  N 
ATOM     11 H    CYS F   3      38.363 -27.036  33.560  1.00 53.02 LIG 0.16  HD
ATOM     12  C   GLU F   2      39.757 -28.380  33.406  1.00 53.57 LIG 0.24  C 
ATOM     13 O    GLU F   2      40.639 -28.990  34.020  1.00 53.07 LIG-0.27  OA
BRANCH 12 14
ATOM     14  CA  GLU F   2      39.570 -28.594  31.902  1.00 54.00 LIG 0.18  C 
BRANCH 14 15
ATOM     15  CB  GLU F   2      39.021 -30.018  31.726  1.00 54.10 LIG 0.04  C 
BRANCH 15 16
ATOM     16  CG  GLU F   2      39.792 -30.945  30.797  1.00 55.55 LIG 0.12  C 
BRANCH 16 17
ATOM     17  CD  GLU F   2      39.462 -30.704  29.319  1.00 57.36 LIG 0.17  C 
ATOM     18 OE1  GLU F   2      39.113 -29.564  28.930  1.00 58.39 LIG-0.65  OA
ATOM     19 OE2  GLU F   2      39.566 -31.660  28.523  1.00 58.95 LIG-0.65  OA
ENDBRANCH 16 17
ENDBRANCH 15 16
ENDBRANCH 14 15
BRANCH 14 20
ATOM     20  N   GLU F   2      40.798 -28.387  31.120  1.00 53.99 LIG-0.35  N 
ATOM     21 H    GLU F   2      40.999 -29.059  30.623  1.00 53.99 LIG 0.16  HD
ATOM     22  C   SER F   1      41.540 -27.276  31.160  1.00 54.35 LIG 0.25  C 
ATOM     23 O    SER F   1      41.336 -26.338  31.942  1.00 54.45 LIG-0.27  OA
BRANCH 22 24
ATOM     24  CA  SER F   1      42.718 -27.222  30.179  1.00 54.58 LIG 0.30  C 
BRANCH 24 25
ATOM     25  CB  SER F   1      43.378 -28.600  30.057  1.00 54.63 LIG 0.21  C 
BRANCH 25 26
ATOM     26 OG   SER F   1      44.794 -28.493  30.090  1.00 54.91 LIG-0.40  OA
ATOM     27 HG   SER F   1      45.101 -28.591  29.315  1.00 54.91 LIG 0.21  HD
ENDBRANCH 25 26
ENDBRANCH 24 25
BRANCH 24 28
ATOM     28  N   SER F   1      43.727 -26.190  30.572  1.00 54.74 LIG-0.06  N 
ATOM     29 H1   SER F   1      43.631 -25.470  30.057  1.00 54.74 LIG 0.28  HD
ATOM     30 H2   SER F   1      43.604 -25.963  31.424  1.00 54.74 LIG 0.28  HD
ATOM     31 H3   SER F   1      44.546 -26.521  30.469  1.00 54.74 LIG 0.28  HD
ENDBRANCH 24 28
ENDBRANCH 22 24
ENDBRANCH 14 20
ENDBRANCH 12 14
ENDBRANCH 6 10
ENDBRANCH 4 6
ENDBRANCH 1 2
BRANCH 1 32
ATOM     32  CB  THR F   4      35.497 -27.453  39.054  1.00 51.21 LIG 0.15  C 
ATOM     33  CG2 THR F   4      34.800 -28.813  39.096  1.00 50.61 LIG 0.04  C 
BRANCH 32 34
ATOM     34 OG1  THR F   4      36.779 -27.527  39.687  1.00 51.15 LIG-0.39  OA
ATOM     35 HG1  THR F   4      37.034 -26.754  39.895  1.00 51.15 LIG 0.21  HD
ENDBRANCH 32 34
ENDBRANCH 1 32
BRANCH 1 36
ATOM     36  C   THR F   4      35.243 -25.529  37.520  1.00 49.53 LIG 0.24  C 
ATOM     37  N   THR F   5      34.202 -25.171  38.262  1.00 47.76 LIG-0.34  N 
ATOM     38 H    THR F   5      33.851 -25.687  38.854  1.00 47.76 LIG 0.16  HD
ATOM     39 O    THR F   4      35.851 -24.761  36.781  1.00 50.01 LIG-0.27  OA
BRANCH 37 40
ATOM     40  CA  THR F   5      33.540 -23.875  38.155  1.00 46.83 LIG 0.20  C 
BRANCH 40 41
ATOM     41  C   THR F   5      34.333 -22.849  38.965  1.00 45.74 LIG 0.24  C 
ATOM     42  N   PRO F   6      34.744 -23.219  40.187  1.00 45.40 LIG-0.34  N 
ATOM     43  CA  PRO F   6      35.675 -22.358  40.930  1.00 45.02 LIG 0.18  C 
ATOM     44  CD  PRO F   6      34.300 -24.375  40.989  1.00 45.45 LIG 0.13  C 
ATOM     45  CB  PRO F   6      35.954 -23.150  42.210  1.00 45.11 LIG 0.04  C 
ATOM     46  CG  PRO F   6      34.754 -24.015  42.396  1.00 45.75 LIG 0.02  C 
ATOM     47 O    THR F   5      34.553 -21.729  38.500  1.00 44.21 LIG-0.27  OA
BRANCH 43 48
ATOM     48  C   PRO F   6      36.956 -22.199  40.129  1.00 45.08 LIG 0.24  C 
ATOM     49  N   CYS F   7      37.728 -23.271  39.966  1.00 44.40 LIG-0.34  N 
ATOM     50 H    CYS F   7      37.525 -24.071  40.208  1.00 44.40 LIG 0.16  HD
ATOM     51 O    PRO F   6      37.240 -21.087  39.676  1.00 44.91 LIG-0.27  OA
BRANCH 49 52
ATOM     52  CA  CYS F   7      39.033 -23.116  39.328  1.00 45.02 LIG 0.19  C 
BRANCH 52 53
ATOM     53  CB  CYS F   7      40.015 -22.419  40.283  1.00 44.51 LIG 0.11  C 
BRANCH 53 54
ATOM     54 SG   CYS F   7      39.903 -20.582  40.145  1.00 46.73 LIG-0.18  SA
ATOM     55 HG   CYS F   7      39.346 -20.141  41.113  1.00 46.73 LIG 0.10  HD
ENDBRANCH 53 54
ENDBRANCH 52 53
BRANCH 52 56
ATOM     56  C   CYS F   7      39.567 -24.413  38.689  1.00 45.05 LIG 0.20  C 
ATOM     57 OXT  CYS F   7      40.604 -24.431  38.007  1.00 44.33 LIG-0.65  OA
ATOM     58 O    CYS F   7      38.904 -25.461  38.819  1.00 44.51 LIG-0.65  OA
ENDBRANCH 52 56
ENDBRANCH 49 52
ENDBRANCH 43 48
ENDBRANCH 40 41
BRANCH 40 59
ATOM     59  CB  THR F   5      32.113 -23.960  38.722  1.00 46.83 LIG 0.15  C 
ATOM     60  CG2 THR F   5      31.794 -25.338  39.283  1.00 46.88 LIG 0.04  C 
BRANCH 59 61
ATOM     61 OG1  THR F   5      31.944 -22.957  39.734  1.00 48.31 LIG-0.39  OA
ATOM     62 HG1  THR F   5      31.780 -22.218  39.370  1.00 48.31 LIG 0.21  HD
ENDBRANCH 59 61
ENDBRANCH 40 59
ENDBRANCH 37 40
ENDBRANCH 1 36
TORSDOF 26
ENDMDL
MODEL 30
USER: ADFR SOLUTION from run 160
USER: SCORE 16.846667 LL:  -5.920 LR: -12.437 RR:   0.000 FEB:  -4.681
USER: RMSD 11.630388
USER: SEED 159
USER: STATUS searching
USER: GENES 28
USER: genes 0 Translation |==|  0.39570 0.79688 0.71938
USER: genes 1 Rotation |==|  0.37219 0.80734 0.14887 0.62615
USER: genes 2 Torsion [C]-CA--N-[C] |==|  0.60607
USER: genes 3 Torsion [N]-C--CA-[N] |==|  0.90580
USER: genes 4 Torsion [C]-CA--CB-[SG] |==|  0.34520
USER: genes 5 Torsion [CA]-CB--SG-[HG] |==|  0.68274
USER: genes 6 Torsion [C]-CA--N-[C] |==|  0.83333
USER: genes 7 Torsion [N]-C--CA-[N] |==|  0.17783
USER: genes 8 Torsion [C]-CA--CB-[CG] |==|  0.73084
USER: genes 9 Torsion [CA]-CB--CG-[CD] |==|  0.80304
USER: genes 10 Torsion [CB]-CG--CD-[OE1] |==|  0.32228
USER: genes 11 Torsion [C]-CA--N-[C] |==|  0.76368
USER: genes 12 Torsion [N]-C--CA-[N] |==|  0.85714
USER: genes 13 Torsion [C]-CA--CB-[OG] |==|  0.66908
USER: genes 14 Torsion [CA]-CB--OG-[HG] |==|  0.28160
USER: genes 15 Torsion [C]-CA--N-[H1] |==|  0.24308
USER: genes 16 Torsion [N]-CA--CB-[OG1] |==|  0.78938
USER: genes 17 Torsion [CA]-CB--OG1-[HG1] |==|  0.99776
USER: genes 18 Torsion [N]-CA--C-[N] |==|  0.40265
USER: genes 19 Torsion [C]-N--CA-[CB] |==|  0.16383
USER: genes 20 Torsion [N]-CA--C-[N] |==|  0.27044
USER: genes 21 Torsion [N]-CA--C-[N] |==|  0.26998
USER: genes 22 Torsion [C]-N--CA-[CB] |==|  0.32885
USER: genes 23 Torsion [N]-CA--CB-[SG] |==|  0.45996
USER: genes 24 Torsion [CA]-CB--SG-[HG] |==|  0.77702
USER: genes 25 Torsion [N]-CA--C-[OXT] |==|  0.13602
USER: genes 26 Torsion [N]-CA--CB-[OG1] |==|  0.76707
USER: genes 27 Torsion [CA]-CB--OG1-[HG1] |==|  0.02624
ROOT
ATOM      1  CA  THR F   4      37.500 -22.190  39.421  1.00 50.77 LIG 0.20  C 
ENDROOT
BRANCH 1 2
ATOM      2  N   THR F   4      36.311 -23.046  39.420  1.00 51.40 LIG-0.34  N 
ATOM      3 H    THR F   4      36.386 -23.751  39.906  1.00 51.40 LIG 0.16  HD
ATOM      4  C   CYS F   3      35.215 -22.745  38.719  1.00 52.18 LIG 0.24  C 
ATOM      5 O    CYS F   3      35.069 -21.676  38.119  1.00 51.89 LIG-0.27  OA
BRANCH 4 6
ATOM      6  CA  CYS F   3      34.084 -23.780  38.728  1.00 52.92 LIG 0.18  C 
BRANCH 6 7
ATOM      7  CB  CYS F   3      33.121 -23.540  39.899  1.00 52.86 LIG 0.10  C 
BRANCH 7 8
ATOM      8 SG   CYS F   3      31.373 -23.334  39.406  1.00 55.16 LIG-0.18  SA
ATOM      9 HG   CYS F   3      31.017 -22.215  39.655  1.00 55.16 LIG 0.10  HD
ENDBRANCH 7 8
ENDBRANCH 6 7
BRANCH 6 10
ATOM     10  N   CYS F   3      34.660 -25.126  38.785  1.00 53.02 LIG-0.34  N 
ATOM     11 H    CYS F   3      34.421 -25.580  39.475  1.00 53.02 LIG 0.16  HD
ATOM     12  C   GLU F   2      35.479 -25.595  37.845  1.00 53.57 LIG 0.24  C 
ATOM     13 O    GLU F   2      35.693 -25.008  36.780  1.00 53.07 LIG-0.27  OA
BRANCH 12 14
ATOM     14  CA  GLU F   2      36.200 -26.906  38.167  1.00 54.00 LIG 0.18  C 
BRANCH 14 15
ATOM     15  CB  GLU F   2      37.211 -27.140  37.035  1.00 54.10 LIG 0.04  C 
BRANCH 15 16
ATOM     16  CG  GLU F   2      36.782 -28.066  35.906  1.00 55.55 LIG 0.12  C 
BRANCH 16 17
ATOM     17  CD  GLU F   2      36.711 -29.533  36.344  1.00 57.36 LIG 0.17  C 
ATOM     18 OE1  GLU F   2      35.613 -30.139  36.342  1.00 58.39 LIG-0.65  OA
ATOM     19 OE2  GLU F   2      37.769 -30.104  36.685  1.00 58.95 LIG-0.65  OA
ENDBRANCH 16 17
ENDBRANCH 15 16
ENDBRANCH 14 15
BRANCH 14 20
ATOM     20  N   GLU F   2      35.295 -28.053  38.330  1.00 53.99 LIG-0.35  N 
ATOM     21 H    GLU F   2      35.200 -28.513  37.610  1.00 53.99 LIG 0.16  HD
ATOM     22  C   SER F   1      34.673 -28.367  39.470  1.00 54.35 LIG 0.25  C 
ATOM     23 O    SER F   1      34.705 -27.666  40.490  1.00 54.45 LIG-0.27  OA
BRANCH 22 24
ATOM     24  CA  SER F   1      33.863 -29.670  39.454  1.00 54.58 LIG 0.30  C 
BRANCH 24 25
ATOM     25  CB  SER F   1      34.801 -30.883  39.444  1.00 54.63 LIG 0.21  C 
BRANCH 25 26
ATOM     26 OG   SER F   1      34.605 -31.669  38.276  1.00 54.91 LIG-0.40  OA
ATOM     27 HG   SER F   1      35.215 -31.504  37.722  1.00 54.91 LIG 0.21  HD
ENDBRANCH 25 26
ENDBRANCH 24 25
BRANCH 24 28
ATOM     28  N   SER F   1      32.917 -29.727  38.296  1.00 54.74 LIG-0.06  N 
ATOM     29 H1   SER F   1      33.334 -30.069  37.588  1.00 54.74 LIG 0.28  HD
ATOM     30 H2   SER F   1      32.221 -30.241  38.506  1.00 54.74 LIG 0.28  HD
ATOM     31 H3   SER F   1      32.633 -28.906  38.105  1.00 54.74 LIG 0.28  HD
ENDBRANCH 24 28
ENDBRANCH 22 24
ENDBRANCH 14 20
ENDBRANCH 12 14
ENDBRANCH 6 10
ENDBRANCH 4 6
ENDBRANCH 1 2
BRANCH 1 32
ATOM     32  CB  THR F   4      37.594 -21.274  40.654  1.00 51.21 LIG 0.15  C 
ATOM     33  CG2 THR F   4      39.024 -20.755  40.812  1.00 50.61 LIG 0.04  C 
BRANCH 32 34
ATOM     34 OG1  THR F   4      36.676 -20.183  40.525  1.00 51.15 LIG-0.39  OA
ATOM     35 HG1  THR F   4      36.268 -20.245  39.793  1.00 51.15 LIG 0.21  HD
ENDBRANCH 32 34
ENDBRANCH 1 32
BRANCH 1 36
ATOM     36  C   THR F   4      38.711 -23.107  39.425  1.00 49.53 LIG 0.24  C 
ATOM     37  N   THR F   5      39.771 -22.688  38.744  1.00 47.76 LIG-0.34  N 
ATOM     38 H    THR F   5      39.836 -21.893  38.424  1.00 47.76 LIG 0.16  HD
ATOM     39 O    THR F   4      38.660 -24.181  40.017  1.00 50.01 LIG-0.27  OA
BRANCH 37 40
ATOM     40  CA  THR F   5      40.934 -23.524  38.464  1.00 46.83 LIG 0.20  C 
BRANCH 40 41
ATOM     41  C   THR F   5      41.928 -22.722  37.624  1.00 45.74 LIG 0.24  C 
ATOM     42  N   PRO F   6      42.940 -22.128  38.274  1.00 45.40 LIG-0.34  N 
ATOM     43  CA  PRO F   6      44.033 -21.515  37.507  1.00 45.02 LIG 0.18  C 
ATOM     44  CD  PRO F   6      43.081 -21.893  39.724  1.00 45.45 LIG 0.13  C 
ATOM     45  CB  PRO F   6      45.003 -21.029  38.587  1.00 45.11 LIG 0.04  C 
ATOM     46  CG  PRO F   6      44.156 -20.818  39.797  1.00 45.75 LIG 0.02  C 
ATOM     47 O    THR F   5      41.771 -22.624  36.406  1.00 44.21 LIG-0.27  OA
BRANCH 43 48
ATOM     48  C   PRO F   6      44.701 -22.578  36.651  1.00 45.08 LIG 0.24  C 
ATOM     49  N   CYS F   7      44.327 -22.679  35.377  1.00 44.40 LIG-0.34  N 
ATOM     50 H    CYS F   7      43.795 -22.140  34.971  1.00 44.40 LIG 0.16  HD
ATOM     51 O    PRO F   6      45.546 -23.313  37.166  1.00 44.91 LIG-0.27  OA
BRANCH 49 52
ATOM     52  CA  CYS F   7      44.844 -23.782  34.572  1.00 45.02 LIG 0.19  C 
BRANCH 52 53
ATOM     53  CB  CYS F   7      43.690 -24.673  34.083  1.00 44.51 LIG 0.11  C 
BRANCH 53 54
ATOM     54 SG   CYS F   7      44.236 -25.808  32.734  1.00 46.73 LIG-0.18  SA
ATOM     55 HG   CYS F   7      44.257 -25.211  31.693  1.00 46.73 LIG 0.10  HD
ENDBRANCH 53 54
ENDBRANCH 52 53
BRANCH 52 56
ATOM     56  C   CYS F   7      45.823 -23.337  33.468  1.00 45.05 LIG 0.20  C 
ATOM     57 OXT  CYS F   7      46.773 -22.574  33.702  1.00 44.33 LIG-0.65  OA
ATOM     58 O    CYS F   7      45.617 -23.713  32.297  1.00 44.51 LIG-0.65  OA
ENDBRANCH 52 56
ENDBRANCH 49 52
ENDBRANCH 43 48
ENDBRANCH 40 41
BRANCH 40 59
ATOM     59  CB  THR F   5      40.510 -24.773  37.673  1.00 46.83 LIG 0.15  C 
ATOM     60  CG2 THR F   5      41.637 -25.324  36.812  1.00 46.88 LIG 0.04  C 
BRANCH 59 61
ATOM     61 OG1  THR F   5      40.043 -25.776  38.585  1.00 48.31 LIG-0.39  OA
ATOM     62 HG1  THR F   5      39.970 -25.444  39.353  1.00 48.31 LIG 0.21  HD
ENDBRANCH 59 61
ENDBRANCH 40 59
ENDBRANCH 37 40
ENDBRANCH 1 36
TORSDOF 26
ENDMDL
MODEL 31
USER: ADFR SOLUTION from run 155
USER: SCORE 17.141546 LL:  -5.216 LR: -12.424 RR:   0.000 FEB:  -4.668
USER: RMSD 12.075357
USER: SEED 154
USER: STATUS no improvement in best in 3 clusters for 5 generations
USER: GENES 28
USER: genes 0 Translation |==|  0.44318 0.54953 0.58668
USER: genes 1 Rotation |==|  0.76738 0.14845 0.73351 0.51971
USER: genes 2 Torsion [C]-CA--N-[C] |==|  0.68773
USER: genes 3 Torsion [N]-C--CA-[N] |==|  0.39311
USER: genes 4 Torsion [C]-CA--CB-[SG] |==|  0.49430
USER: genes 5 Torsion [CA]-CB--SG-[HG] |==|  0.74950
USER: genes 6 Torsion [C]-CA--N-[C] |==|  0.84115
USER: genes 7 Torsion [N]-C--CA-[N] |==|  0.36345
USER: genes 8 Torsion [C]-CA--CB-[CG] |==|  0.48529
USER: genes 9 Torsion [CA]-CB--CG-[CD] |==|  0.18259
USER: genes 10 Torsion [CB]-CG--CD-[OE1] |==|  0.08876
USER: genes 11 Torsion [C]-CA--N-[C] |==|  0.86044
USER: genes 12 Torsion [N]-C--CA-[N] |==|  0.17006
USER: genes 13 Torsion [C]-CA--CB-[OG] |==|  0.75557
USER: genes 14 Torsion [CA]-CB--OG-[HG] |==|  0.85204
USER: genes 15 Torsion [C]-CA--N-[H1] |==|  0.75866
USER: genes 16 Torsion [N]-CA--CB-[OG1] |==|  0.79892
USER: genes 17 Torsion [CA]-CB--OG1-[HG1] |==|  0.57759
USER: genes 18 Torsion [N]-CA--C-[N] |==|  0.35113
USER: genes 19 Torsion [C]-N--CA-[CB] |==|  0.77778
USER: genes 20 Torsion [N]-CA--C-[N] |==|  0.20252
USER: genes 21 Torsion [N]-CA--C-[N] |==|  0.81376
USER: genes 22 Torsion [C]-N--CA-[CB] |==|  0.29684
USER: genes 23 Torsion [N]-CA--CB-[SG] |==|  0.99072
USER: genes 24 Torsion [CA]-CB--SG-[HG] |==|  0.03467
USER: genes 25 Torsion [N]-CA--C-[OXT] |==|  0.53372
USER: genes 26 Torsion [N]-CA--CB-[OG1] |==|  0.89199
USER: genes 27 Torsion [CA]-CB--OG1-[HG1] |==|  0.54325
ROOT
ATOM      1  CA  THR F   4      38.746 -26.271  36.236  1.00 50.77 LIG 0.20  C 
ENDROOT
BRANCH 1 2
ATOM      2  N   THR F   4      38.011 -27.195  37.104  1.00 51.40 LIG-0.34  N 
ATOM      3 H    THR F   4      38.515 -27.723  37.560  1.00 51.40 LIG 0.16  HD
ATOM      4  C   CYS F   3      36.678 -27.205  37.170  1.00 52.18 LIG 0.24  C 
ATOM      5 O    CYS F   3      35.967 -26.369  36.605  1.00 51.89 LIG-0.27  OA
BRANCH 4 6
ATOM      6  CA  CYS F   3      36.038 -28.291  38.041  1.00 52.92 LIG 0.18  C 
BRANCH 6 7
ATOM      7  CB  CYS F   3      35.634 -29.511  37.200  1.00 52.86 LIG 0.10  C 
BRANCH 7 8
ATOM      8 SG   CYS F   3      34.915 -30.886  38.166  1.00 55.16 LIG-0.18  SA
ATOM      9 HG   CYS F   3      35.789 -31.629  38.517  1.00 55.16 LIG 0.10  HD
ENDBRANCH 7 8
ENDBRANCH 6 7
BRANCH 6 10
ATOM     10  N   CYS F   3      34.882 -27.731  38.746  1.00 53.02 LIG-0.34  N 
ATOM     11 H    CYS F   3      34.145 -28.147  38.597  1.00 53.02 LIG 0.16  HD
ATOM     12  C   GLU F   2      34.977 -26.670  39.545  1.00 53.57 LIG 0.24  C 
ATOM     13 O    GLU F   2      36.056 -26.173  39.886  1.00 53.07 LIG-0.27  OA
BRANCH 12 14
ATOM     14  CA  GLU F   2      33.657 -26.045  40.002  1.00 54.00 LIG 0.18  C 
BRANCH 14 15
ATOM     15  CB  GLU F   2      33.493 -24.738  39.211  1.00 54.10 LIG 0.04  C 
BRANCH 15 16
ATOM     16  CG  GLU F   2      32.186 -23.980  39.393  1.00 55.55 LIG 0.12  C 
BRANCH 16 17
ATOM     17  CD  GLU F   2      32.015 -23.436  40.816  1.00 57.36 LIG 0.17  C 
ATOM     18 OE1  GLU F   2      33.020 -23.086  41.481  1.00 58.39 LIG-0.65  OA
ATOM     19 OE2  GLU F   2      30.860 -23.338  41.281  1.00 58.95 LIG-0.65  OA
ENDBRANCH 16 17
ENDBRANCH 15 16
ENDBRANCH 14 15
BRANCH 14 20
ATOM     20  N   GLU F   2      33.585 -25.812  41.453  1.00 53.99 LIG-0.35  N 
ATOM     21 H    GLU F   2      33.339 -25.013  41.654  1.00 53.99 LIG 0.16  HD
ATOM     22  C   SER F   1      33.869 -26.732  42.379  1.00 54.35 LIG 0.25  C 
ATOM     23 O    SER F   1      34.327 -27.853  42.122  1.00 54.45 LIG-0.27  OA
BRANCH 22 24
ATOM     24  CA  SER F   1      33.619 -26.316  43.835  1.00 54.58 LIG 0.30  C 
BRANCH 24 25
ATOM     25  CB  SER F   1      34.097 -27.411  44.794  1.00 54.63 LIG 0.21  C 
BRANCH 25 26
ATOM     26 OG   SER F   1      33.071 -28.364  45.032  1.00 54.91 LIG-0.40  OA
ATOM     27 HG   SER F   1      32.374 -27.969  45.285  1.00 54.91 LIG 0.21  HD
ENDBRANCH 25 26
ENDBRANCH 24 25
BRANCH 24 28
ATOM     28  N   SER F   1      32.181 -25.990  44.084  1.00 54.74 LIG-0.06  N 
ATOM     29 H1   SER F   1      32.031 -25.135  43.887  1.00 54.74 LIG 0.28  HD
ATOM     30 H2   SER F   1      31.666 -26.506  43.574  1.00 54.74 LIG 0.28  HD
ATOM     31 H3   SER F   1      31.988 -26.134  44.941  1.00 54.74 LIG 0.28  HD
ENDBRANCH 24 28
ENDBRANCH 22 24
ENDBRANCH 14 20
ENDBRANCH 12 14
ENDBRANCH 6 10
ENDBRANCH 4 6
ENDBRANCH 1 2
BRANCH 1 32
ATOM     32  CB  THR F   4      39.849 -25.487  36.970  1.00 51.21 LIG 0.15  C 
ATOM     33  CG2 THR F   4      40.785 -24.829  35.956  1.00 50.61 LIG 0.04  C 
BRANCH 32 34
ATOM     34 OG1  THR F   4      39.262 -24.500  37.825  1.00 51.15 LIG-0.39  OA
ATOM     35 HG1  THR F   4      39.794 -23.857  37.918  1.00 51.15 LIG 0.21  HD
ENDBRANCH 32 34
ENDBRANCH 1 32
BRANCH 1 36
ATOM     36  C   THR F   4      39.407 -27.106  35.152  1.00 49.53 LIG 0.24  C 
ATOM     37  N   THR F   5      39.163 -26.745  33.898  1.00 47.76 LIG-0.34  N 
ATOM     38 H    THR F   5      38.767 -26.009  33.693  1.00 47.76 LIG 0.16  HD
ATOM     39 O    THR F   4      40.099 -28.070  35.463  1.00 50.01 LIG-0.27  OA
BRANCH 37 40
ATOM     40  CA  THR F   5      39.536 -27.548  32.738  1.00 46.83 LIG 0.20  C 
BRANCH 40 41
ATOM     41  C   THR F   5      39.290 -29.023  33.060  1.00 45.74 LIG 0.24  C 
ATOM     42  N   PRO F   6      38.015 -29.436  33.106  1.00 45.40 LIG-0.34  N 
ATOM     43  CA  PRO F   6      37.721 -30.871  33.210  1.00 45.02 LIG 0.18  C 
ATOM     44  CD  PRO F   6      36.791 -28.614  33.174  1.00 45.45 LIG 0.13  C 
ATOM     45  CB  PRO F   6      36.193 -30.931  33.156  1.00 45.11 LIG 0.04  C 
ATOM     46  CG  PRO F   6      35.738 -29.602  33.655  1.00 45.75 LIG 0.02  C 
ATOM     47 O    THR F   5      40.241 -29.773  33.284  1.00 44.21 LIG-0.27  OA
BRANCH 43 48
ATOM     48  C   PRO F   6      38.312 -31.591  32.010  1.00 45.08 LIG 0.24  C 
ATOM     49  N   CYS F   7      37.790 -31.338  30.811  1.00 44.40 LIG-0.34  N 
ATOM     50 H    CYS F   7      37.196 -30.740  30.644  1.00 44.40 LIG 0.16  HD
ATOM     51 O    PRO F   6      39.235 -32.389  32.189  1.00 44.91 LIG-0.27  OA
BRANCH 49 52
ATOM     52  CA  CYS F   7      38.238 -32.122  29.663  1.00 45.02 LIG 0.19  C 
BRANCH 52 53
ATOM     53  CB  CYS F   7      37.145 -33.115  29.235  1.00 44.51 LIG 0.11  C 
BRANCH 53 54
ATOM     54 SG   CYS F   7      35.691 -33.050  30.370  1.00 46.73 LIG-0.18  SA
ATOM     55 HG   CYS F   7      35.775 -32.082  31.073  1.00 46.73 LIG 0.10  HD
ENDBRANCH 53 54
ENDBRANCH 52 53
BRANCH 52 56
ATOM     56  C   CYS F   7      38.813 -31.266  28.518  1.00 45.05 LIG 0.20  C 
ATOM     57 OXT  CYS F   7      39.033 -31.738  27.391  1.00 44.33 LIG-0.65  OA
ATOM     58 O    CYS F   7      39.117 -30.080  28.752  1.00 44.51 LIG-0.65  OA
ENDBRANCH 52 56
ENDBRANCH 49 52
ENDBRANCH 43 48
ENDBRANCH 40 41
BRANCH 40 59
ATOM     59  CB  THR F   5      41.027 -27.352  32.416  1.00 46.83 LIG 0.15  C 
ATOM     60  CG2 THR F   5      41.375 -27.788  31.000  1.00 46.88 LIG 0.04  C 
BRANCH 59 61
ATOM     61 OG1  THR F   5      41.378 -25.976  32.614  1.00 48.31 LIG-0.39  OA
ATOM     62 HG1  THR F   5      42.115 -25.818  32.244  1.00 48.31 LIG 0.21  HD
ENDBRANCH 59 61
ENDBRANCH 40 59
ENDBRANCH 37 40
ENDBRANCH 1 36
TORSDOF 26
ENDMDL
MODEL 32
USER: ADFR SOLUTION from run 104
USER: SCORE 16.551052 LL:  -5.085 LR: -12.397 RR:   0.000 FEB:  -4.641
USER: RMSD 6.516105
USER: SEED 103
USER: STATUS searching
USER: GENES 28
USER: genes 0 Translation |==|  0.37807 0.56548 0.64480
USER: genes 1 Rotation |==|  0.85666 0.61569 0.24856 0.71492
USER: genes 2 Torsion [C]-CA--N-[C] |==|  0.73275
USER: genes 3 Torsion [N]-C--CA-[N] |==|  0.44179
USER: genes 4 Torsion [C]-CA--CB-[SG] |==|  0.48912
USER: genes 5 Torsion [CA]-CB--SG-[HG] |==|  0.07189
USER: genes 6 Torsion [C]-CA--N-[C] |==|  0.55006
USER: genes 7 Torsion [N]-C--CA-[N] |==|  0.50213
USER: genes 8 Torsion [C]-CA--CB-[CG] |==|  0.53983
USER: genes 9 Torsion [CA]-CB--CG-[CD] |==|  0.21848
USER: genes 10 Torsion [CB]-CG--CD-[OE1] |==|  0.10830
USER: genes 11 Torsion [C]-CA--N-[C] |==|  0.67802
USER: genes 12 Torsion [N]-C--CA-[N] |==|  0.89765
USER: genes 13 Torsion [C]-CA--CB-[OG] |==|  0.68556
USER: genes 14 Torsion [CA]-CB--OG-[HG] |==|  0.27334
USER: genes 15 Torsion [C]-CA--N-[H1] |==|  0.90695
USER: genes 16 Torsion [N]-CA--CB-[OG1] |==|  0.04466
USER: genes 17 Torsion [CA]-CB--OG1-[HG1] |==|  0.05175
USER: genes 18 Torsion [N]-CA--C-[N] |==|  0.40587
USER: genes 19 Torsion [C]-N--CA-[CB] |==|  0.83776
USER: genes 20 Torsion [N]-CA--C-[N] |==|  0.45151
USER: genes 21 Torsion [N]-CA--C-[N] |==|  0.28493
USER: genes 22 Torsion [C]-N--CA-[CB] |==|  0.28361
USER: genes 23 Torsion [N]-CA--CB-[SG] |==|  0.39507
USER: genes 24 Torsion [CA]-CB--SG-[HG] |==|  0.37297
USER: genes 25 Torsion [N]-CA--C-[OXT] |==|  0.46978
USER: genes 26 Torsion [N]-CA--CB-[OG1] |==|  0.89344
USER: genes 27 Torsion [CA]-CB--OG1-[HG1] |==|  0.50911
ROOT
ATOM      1  CA  THR F   4      37.037 -26.008  37.631  1.00 50.77 LIG 0.20  C 
ENDROOT
BRANCH 1 2
ATOM      2  N   THR F   4      37.728 -26.043  36.339  1.00 51.40 LIG-0.34  N 
ATOM      3 H    THR F   4      37.240 -25.801  35.674  1.00 51.40 LIG 0.16  HD
ATOM      4  C   CYS F   3      39.004 -26.422  36.222  1.00 52.18 LIG 0.24  C 
ATOM      5 O    CYS F   3      39.731 -26.654  37.191  1.00 51.89 LIG-0.27  OA
BRANCH 4 6
ATOM      6  CA  CYS F   3      39.569 -26.510  34.800  1.00 52.92 LIG 0.18  C 
BRANCH 6 7
ATOM      7  CB  CYS F   3      39.105 -27.793  34.097  1.00 52.86 LIG 0.10  C 
BRANCH 7 8
ATOM      8 SG   CYS F   3      39.638 -27.931  32.354  1.00 55.16 LIG-0.18  SA
ATOM      9 HG   CYS F   3      40.640 -27.291  32.190  1.00 55.16 LIG 0.10  HD
ENDBRANCH 7 8
ENDBRANCH 6 7
BRANCH 6 10
ATOM     10  N   CYS F   3      41.032 -26.437  34.854  1.00 53.02 LIG-0.34  N 
ATOM     11 H    CYS F   3      41.363 -26.603  35.630  1.00 53.02 LIG 0.16  HD
ATOM     12  C   GLU F   2      41.773 -26.139  33.788  1.00 53.57 LIG 0.24  C 
ATOM     13 O    GLU F   2      41.313 -26.060  32.644  1.00 53.07 LIG-0.27  OA
BRANCH 12 14
ATOM     14  CA  GLU F   2      43.252 -25.846  34.051  1.00 54.00 LIG 0.18  C 
BRANCH 14 15
ATOM     15  CB  GLU F   2      43.297 -24.709  35.083  1.00 54.10 LIG 0.04  C 
BRANCH 15 16
ATOM     16  CG  GLU F   2      44.631 -23.999  35.270  1.00 55.55 LIG 0.12  C 
BRANCH 16 17
ATOM     17  CD  GLU F   2      44.916 -22.981  34.161  1.00 57.36 LIG 0.17  C 
ATOM     18 OE1  GLU F   2      43.988 -22.269  33.706  1.00 58.39 LIG-0.65  OA
ATOM     19 OE2  GLU F   2      46.087 -22.870  33.741  1.00 58.95 LIG-0.65  OA
ENDBRANCH 16 17
ENDBRANCH 15 16
ENDBRANCH 14 15
BRANCH 14 20
ATOM     20  N   GLU F   2      44.011 -25.507  32.838  1.00 53.99 LIG-0.35  N 
ATOM     21 H    GLU F   2      43.745 -24.778  32.466  1.00 53.99 LIG 0.16  HD
ATOM     22  C   SER F   1      45.013 -26.241  32.346  1.00 54.35 LIG 0.25  C 
ATOM     23 O    SER F   1      45.346 -27.345  32.796  1.00 54.45 LIG-0.27  OA
BRANCH 22 24
ATOM     24  CA  SER F   1      45.746 -25.647  31.136  1.00 54.58 LIG 0.30  C 
BRANCH 24 25
ATOM     25  CB  SER F   1      46.872 -24.714  31.597  1.00 54.63 LIG 0.21  C 
BRANCH 25 26
ATOM     26 OG   SER F   1      46.593 -23.366  31.243  1.00 54.91 LIG-0.40  OA
ATOM     27 HG   SER F   1      46.271 -22.963  31.906  1.00 54.91 LIG 0.21  HD
ENDBRANCH 25 26
ENDBRANCH 24 25
BRANCH 24 28
ATOM     28  N   SER F   1      44.813 -24.930  30.213  1.00 54.74 LIG-0.06  N 
ATOM     29 H1   SER F   1      44.021 -25.336  30.216  1.00 54.74 LIG 0.28  HD
ATOM     30 H2   SER F   1      44.715 -24.088  30.485  1.00 54.74 LIG 0.28  HD
ATOM     31 H3   SER F   1      45.147 -24.937  29.388  1.00 54.74 LIG 0.28  HD
ENDBRANCH 24 28
ENDBRANCH 22 24
ENDBRANCH 14 20
ENDBRANCH 12 14
ENDBRANCH 6 10
ENDBRANCH 4 6
ENDBRANCH 1 2
BRANCH 1 32
ATOM     32  CB  THR F   4      36.028 -24.853  37.755  1.00 51.21 LIG 0.15  C 
ATOM     33  CG2 THR F   4      36.589 -23.764  38.669  1.00 50.61 LIG 0.04  C 
BRANCH 32 34
ATOM     34 OG1  THR F   4      35.736 -24.318  36.459  1.00 51.15 LIG-0.39  OA
ATOM     35 HG1  THR F   4      35.955 -24.875  35.870  1.00 51.15 LIG 0.21  HD
ENDBRANCH 32 34
ENDBRANCH 1 32
BRANCH 1 36
ATOM     36  C   THR F   4      36.273 -27.314  37.765  1.00 49.53 LIG 0.24  C 
ATOM     37  N   THR F   5      36.169 -27.814  38.991  1.00 47.76 LIG-0.34  N 
ATOM     38 H    THR F   5      36.398 -27.376  39.695  1.00 47.76 LIG 0.16  HD
ATOM     39 O    THR F   4      35.816 -27.857  36.765  1.00 50.01 LIG-0.27  OA
BRANCH 37 40
ATOM     40  CA  THR F   5      35.660 -29.151  39.278  1.00 46.83 LIG 0.20  C 
BRANCH 40 41
ATOM     41  C   THR F   5      36.562 -30.180  38.594  1.00 45.74 LIG 0.24  C 
ATOM     42  N   PRO F   6      36.480 -31.448  39.023  1.00 45.40 LIG-0.34  N 
ATOM     43  CA  PRO F   6      37.166 -32.511  38.278  1.00 45.02 LIG 0.18  C 
ATOM     44  CD  PRO F   6      35.853 -31.954  40.259  1.00 45.45 LIG 0.13  C 
ATOM     45  CB  PRO F   6      36.772 -33.787  39.025  1.00 45.11 LIG 0.04  C 
ATOM     46  CG  PRO F   6      36.463 -33.340  40.414  1.00 45.75 LIG 0.02  C 
ATOM     47 O    THR F   5      37.336 -29.828  37.703  1.00 44.21 LIG-0.27  OA
BRANCH 43 48
ATOM     48  C   PRO F   6      36.628 -32.554  36.858  1.00 45.08 LIG 0.24  C 
ATOM     49  N   CYS F   7      37.371 -32.016  35.892  1.00 44.40 LIG-0.34  N 
ATOM     50 H    CYS F   7      38.170 -31.715  35.990  1.00 44.40 LIG 0.16  HD
ATOM     51 O    PRO F   6      35.525 -33.067  36.654  1.00 44.91 LIG-0.27  OA
BRANCH 49 52
ATOM     52  CA  CYS F   7      36.816 -31.912  34.545  1.00 45.02 LIG 0.19  C 
BRANCH 52 53
ATOM     53  CB  CYS F   7      36.351 -30.473  34.268  1.00 44.51 LIG 0.11  C 
BRANCH 53 54
ATOM     54 SG   CYS F   7      36.703 -29.973  32.527  1.00 46.73 LIG-0.18  SA
ATOM     55 HG   CYS F   7      35.738 -29.432  32.063  1.00 46.73 LIG 0.10  HD
ENDBRANCH 53 54
ENDBRANCH 52 53
BRANCH 52 56
ATOM     56  C   CYS F   7      37.723 -32.517  33.455  1.00 45.05 LIG 0.20  C 
ATOM     57 OXT  CYS F   7      37.325 -32.693  32.293  1.00 44.33 LIG-0.65  OA
ATOM     58 O    CYS F   7      38.870 -32.889  33.770  1.00 44.51 LIG-0.65  OA
ENDBRANCH 52 56
ENDBRANCH 49 52
ENDBRANCH 43 48
ENDBRANCH 40 41
BRANCH 40 59
ATOM     59  CB  THR F   5      34.231 -29.302  38.730  1.00 46.83 LIG 0.15  C 
ATOM     60  CG2 THR F   5      33.485 -30.464  39.370  1.00 46.88 LIG 0.04  C 
BRANCH 59 61
ATOM     61 OG1  THR F   5      33.514 -28.077  38.932  1.00 48.31 LIG-0.39  OA
ATOM     62 HG1  THR F   5      32.719 -28.171  38.674  1.00 48.31 LIG 0.21  HD
ENDBRANCH 59 61
ENDBRANCH 40 59
ENDBRANCH 37 40
ENDBRANCH 1 36
TORSDOF 26
ENDMDL
MODEL 33
USER: ADFR SOLUTION from run 152
USER: SCORE 15.952850 LL:  -5.462 LR: -12.369 RR:   0.000 FEB:  -4.613
USER: RMSD 7.128464
USER: SEED 151
USER: STATUS no improvement in best in 5 clusters for 5 generations
USER: GENES 28
USER: genes 0 Translation |==|  0.33621 0.74911 0.68873
USER: genes 1 Rotation |==|  0.59588 0.46513 0.38077 0.97474
USER: genes 2 Torsion [C]-CA--N-[C] |==|  0.76858
USER: genes 3 Torsion [N]-C--CA-[N] |==|  0.16262
USER: genes 4 Torsion [C]-CA--CB-[SG] |==|  0.62140
USER: genes 5 Torsion [CA]-CB--SG-[HG] |==|  0.77341
USER: genes 6 Torsion [C]-CA--N-[C] |==|  0.73804
USER: genes 7 Torsion [N]-C--CA-[N] |==|  0.13590
USER: genes 8 Torsion [C]-CA--CB-[CG] |==|  0.49009
USER: genes 9 Torsion [CA]-CB--CG-[CD] |==|  0.17612
USER: genes 10 Torsion [CB]-CG--CD-[OE1] |==|  0.24444
USER: genes 11 Torsion [C]-CA--N-[C] |==|  0.14167
USER: genes 12 Torsion [N]-C--CA-[N] |==|  0.88173
USER: genes 13 Torsion [C]-CA--CB-[OG] |==|  0.61601
USER: genes 14 Torsion [CA]-CB--OG-[HG] |==|  0.24294
USER: genes 15 Torsion [C]-CA--N-[H1] |==|  0.58070
USER: genes 16 Torsion [N]-CA--CB-[OG1] |==|  0.96865
USER: genes 17 Torsion [CA]-CB--OG1-[HG1] |==|  0.43895
USER: genes 18 Torsion [N]-CA--C-[N] |==|  0.60877
USER: genes 19 Torsion [C]-N--CA-[CB] |==|  0.52222
USER: genes 20 Torsion [N]-CA--C-[N] |==|  0.43894
USER: genes 21 Torsion [N]-CA--C-[N] |==|  0.34529
USER: genes 22 Torsion [C]-N--CA-[CB] |==|  0.34683
USER: genes 23 Torsion [N]-CA--CB-[SG] |==|  0.92856
USER: genes 24 Torsion [CA]-CB--SG-[HG] |==|  0.24431
USER: genes 25 Torsion [N]-CA--C-[OXT] |==|  0.62296
USER: genes 26 Torsion [N]-CA--CB-[OG1] |==|  0.83626
USER: genes 27 Torsion [CA]-CB--OG1-[HG1] |==|  0.88311
ROOT
ATOM      1  CA  THR F   4      35.939 -22.978  38.686  1.00 50.77 LIG 0.20  C 
ENDROOT
BRANCH 1 2
ATOM      2  N   THR F   4      37.274 -23.576  38.614  1.00 51.40 LIG-0.34  N 
ATOM      3 H    THR F   4      37.285 -24.370  38.283  1.00 51.40 LIG 0.16  HD
ATOM      4  C   CYS F   3      38.368 -22.934  39.030  1.00 52.18 LIG 0.24  C 
ATOM      5 O    CYS F   3      38.362 -21.754  39.393  1.00 51.89 LIG-0.27  OA
BRANCH 4 6
ATOM      6  CA  CYS F   3      39.685 -23.717  38.991  1.00 52.92 LIG 0.18  C 
BRANCH 6 7
ATOM      7  CB  CYS F   3      40.849 -22.873  39.531  1.00 52.86 LIG 0.10  C 
BRANCH 7 8
ATOM      8 SG   CYS F   3      42.380 -22.979  38.538  1.00 55.16 LIG-0.18  SA
ATOM      9 HG   CYS F   3      42.981 -23.974  38.834  1.00 55.16 LIG 0.10  HD
ENDBRANCH 7 8
ENDBRANCH 6 7
BRANCH 6 10
ATOM     10  N   CYS F   3      39.947 -24.158  37.618  1.00 53.02 LIG-0.34  N 
ATOM     11 H    CYS F   3      40.350 -23.574  37.133  1.00 53.02 LIG 0.16  HD
ATOM     12  C   GLU F   2      39.587 -25.360  37.172  1.00 53.57 LIG 0.24  C 
ATOM     13 O    GLU F   2      39.156 -26.254  37.908  1.00 53.07 LIG-0.27  OA
BRANCH 12 14
ATOM     14  CA  GLU F   2      39.690 -25.582  35.661  1.00 54.00 LIG 0.18  C 
BRANCH 14 15
ATOM     15  CB  GLU F   2      39.418 -27.074  35.417  1.00 54.10 LIG 0.04  C 
BRANCH 15 16
ATOM     16  CG  GLU F   2      39.380 -27.541  33.969  1.00 55.55 LIG 0.12  C 
BRANCH 16 17
ATOM     17  CD  GLU F   2      40.726 -27.363  33.258  1.00 57.36 LIG 0.17  C 
ATOM     18 OE1  GLU F   2      41.591 -28.270  33.311  1.00 58.39 LIG-0.65  OA
ATOM     19 OE2  GLU F   2      40.928 -26.308  32.620  1.00 58.95 LIG-0.65  OA
ENDBRANCH 16 17
ENDBRANCH 15 16
ENDBRANCH 14 15
BRANCH 14 20
ATOM     20  N   GLU F   2      40.981 -25.167  35.091  1.00 53.99 LIG-0.35  N 
ATOM     21 H    GLU F   2      40.898 -24.648  34.410  1.00 53.99 LIG 0.16  HD
ATOM     22  C   SER F   1      42.171 -25.545  35.565  1.00 54.35 LIG 0.25  C 
ATOM     23 O    SER F   1      42.321 -26.373  36.473  1.00 54.45 LIG-0.27  OA
BRANCH 22 24
ATOM     24  CA  SER F   1      43.393 -24.905  34.894  1.00 54.58 LIG 0.30  C 
BRANCH 24 25
ATOM     25  CB  SER F   1      43.647 -23.506  35.467  1.00 54.63 LIG 0.21  C 
BRANCH 25 26
ATOM     26 OG   SER F   1      43.988 -22.588  34.437  1.00 54.91 LIG-0.40  OA
ATOM     27 HG   SER F   1      43.287 -22.255  34.115  1.00 54.91 LIG 0.21  HD
ENDBRANCH 25 26
ENDBRANCH 24 25
BRANCH 24 28
ATOM     28  N   SER F   1      43.248 -24.846  33.407  1.00 54.74 LIG-0.06  N 
ATOM     29 H1   SER F   1      44.052 -24.883  33.027  1.00 54.74 LIG 0.28  HD
ATOM     30 H2   SER F   1      42.757 -25.534  33.128  1.00 54.74 LIG 0.28  HD
ATOM     31 H3   SER F   1      42.847 -24.085  33.177  1.00 54.74 LIG 0.28  HD
ENDBRANCH 24 28
ENDBRANCH 22 24
ENDBRANCH 14 20
ENDBRANCH 12 14
ENDBRANCH 6 10
ENDBRANCH 4 6
ENDBRANCH 1 2
BRANCH 1 32
ATOM     32  CB  THR F   4      34.933 -23.603  37.703  1.00 51.21 LIG 0.15  C 
ATOM     33  CG2 THR F   4      34.168 -22.502  36.967  1.00 50.61 LIG 0.04  C 
BRANCH 32 34
ATOM     34 OG1  THR F   4      35.619 -24.446  36.771  1.00 51.15 LIG-0.39  OA
ATOM     35 HG1  THR F   4      35.080 -25.002  36.445  1.00 51.15 LIG 0.21  HD
ENDBRANCH 32 34
ENDBRANCH 1 32
BRANCH 1 36
ATOM     36  C   THR F   4      35.421 -23.209  40.096  1.00 49.53 LIG 0.24  C 
ATOM     37  N   THR F   5      34.134 -23.513  40.209  1.00 47.76 LIG-0.34  N 
ATOM     38 H    THR F   5      33.637 -23.702  39.533  1.00 47.76 LIG 0.16  HD
ATOM     39 O    THR F   4      36.181 -23.085  41.051  1.00 50.01 LIG-0.27  OA
BRANCH 37 40
ATOM     40  CA  THR F   5      33.424 -23.559  41.483  1.00 46.83 LIG 0.20  C 
BRANCH 40 41
ATOM     41  C   THR F   5      34.192 -24.467  42.443  1.00 45.74 LIG 0.24  C 
ATOM     42  N   PRO F   6      33.977 -24.293  43.756  1.00 45.40 LIG-0.34  N 
ATOM     43  CA  PRO F   6      34.527 -25.260  44.716  1.00 45.02 LIG 0.18  C 
ATOM     44  CD  PRO F   6      33.320 -23.156  44.430  1.00 45.45 LIG 0.13  C 
ATOM     45  CB  PRO F   6      34.006 -24.763  46.066  1.00 45.11 LIG 0.04  C 
ATOM     46  CG  PRO F   6      33.774 -23.302  45.875  1.00 45.75 LIG 0.02  C 
ATOM     47 O    THR F   5      34.984 -25.302  42.004  1.00 44.21 LIG-0.27  OA
BRANCH 43 48
ATOM     48  C   PRO F   6      33.962 -26.637  44.417  1.00 45.08 LIG 0.24  C 
ATOM     49  N   CYS F   7      34.821 -27.631  44.197  1.00 44.40 LIG-0.34  N 
ATOM     50 H    CYS F   7      35.674 -27.579  44.287  1.00 44.40 LIG 0.16  HD
ATOM     51 O    PRO F   6      32.738 -26.783  44.373  1.00 44.91 LIG-0.27  OA
BRANCH 49 52
ATOM     52  CA  CYS F   7      34.310 -28.929  43.764  1.00 45.02 LIG 0.19  C 
BRANCH 52 53
ATOM     53  CB  CYS F   7      34.991 -29.363  42.457  1.00 44.51 LIG 0.11  C 
BRANCH 53 54
ATOM     54 SG   CYS F   7      35.588 -27.908  41.491  1.00 46.73 LIG-0.18  SA
ATOM     55 HG   CYS F   7      36.698 -27.620  41.845  1.00 46.73 LIG 0.10  HD
ENDBRANCH 53 54
ENDBRANCH 52 53
BRANCH 52 56
ATOM     56  C   CYS F   7      34.314 -29.996  44.876  1.00 45.05 LIG 0.20  C 
ATOM     57 OXT  CYS F   7      34.705 -31.156  44.673  1.00 44.33 LIG-0.65  OA
ATOM     58 O    CYS F   7      33.857 -29.694  45.996  1.00 44.51 LIG-0.65  OA
ENDBRANCH 52 56
ENDBRANCH 49 52
ENDBRANCH 43 48
ENDBRANCH 40 41
BRANCH 40 59
ATOM     59  CB  THR F   5      32.011 -24.133  41.281  1.00 46.83 LIG 0.15  C 
ATOM     60  CG2 THR F   5      31.239 -24.246  42.587  1.00 46.88 LIG 0.04  C 
BRANCH 59 61
ATOM     61 OG1  THR F   5      31.295 -23.313  40.348  1.00 48.31 LIG-0.39  OA
ATOM     62 HG1  THR F   5      31.445 -22.503  40.514  1.00 48.31 LIG 0.21  HD
ENDBRANCH 59 61
ENDBRANCH 40 59
ENDBRANCH 37 40
ENDBRANCH 1 36
TORSDOF 26
ENDMDL
MODEL 34
USER: ADFR SOLUTION from run 160
USER: SCORE 16.118737 LL:  -5.317 LR: -12.344 RR:   0.000 FEB:  -4.589
USER: RMSD 11.283763
USER: SEED 159
USER: STATUS searching
USER: GENES 28
USER: genes 0 Translation |==|  0.39740 0.80026 0.72337
USER: genes 1 Rotation |==|  0.36445 0.80413 0.14741 0.62171
USER: genes 2 Torsion [C]-CA--N-[C] |==|  0.57801
USER: genes 3 Torsion [N]-C--CA-[N] |==|  0.88172
USER: genes 4 Torsion [C]-CA--CB-[SG] |==|  0.33577
USER: genes 5 Torsion [CA]-CB--SG-[HG] |==|  0.79131
USER: genes 6 Torsion [C]-CA--N-[C] |==|  0.85296
USER: genes 7 Torsion [N]-C--CA-[N] |==|  0.43954
USER: genes 8 Torsion [C]-CA--CB-[CG] |==|  0.30471
USER: genes 9 Torsion [CA]-CB--CG-[CD] |==|  0.76114
USER: genes 10 Torsion [CB]-CG--CD-[OE1] |==|  0.18757
USER: genes 11 Torsion [C]-CA--N-[C] |==|  0.56843
USER: genes 12 Torsion [N]-C--CA-[N] |==|  0.19835
USER: genes 13 Torsion [C]-CA--CB-[OG] |==|  0.42995
USER: genes 14 Torsion [CA]-CB--OG-[HG] |==|  0.77524
USER: genes 15 Torsion [C]-CA--N-[H1] |==|  0.77557
USER: genes 16 Torsion [N]-CA--CB-[OG1] |==|  0.77376
USER: genes 17 Torsion [CA]-CB--OG1-[HG1] |==|  0.04320
USER: genes 18 Torsion [N]-CA--C-[N] |==|  0.40341
USER: genes 19 Torsion [C]-N--CA-[CB] |==|  0.16402
USER: genes 20 Torsion [N]-CA--C-[N] |==|  0.26998
USER: genes 21 Torsion [N]-CA--C-[N] |==|  0.26988
USER: genes 22 Torsion [C]-N--CA-[CB] |==|  0.32894
USER: genes 23 Torsion [N]-CA--CB-[SG] |==|  0.46014
USER: genes 24 Torsion [CA]-CB--SG-[HG] |==|  0.77691
USER: genes 25 Torsion [N]-CA--C-[OXT] |==|  0.13674
USER: genes 26 Torsion [N]-CA--CB-[OG1] |==|  0.76717
USER: genes 27 Torsion [CA]-CB--OG1-[HG1] |==|  0.02605
ROOT
ATOM      1  CA  THR F   4      37.545 -22.134  39.517  1.00 50.77 LIG 0.20  C 
ENDROOT
BRANCH 1 2
ATOM      2  N   THR F   4      36.363 -22.999  39.570  1.00 51.40 LIG-0.34  N 
ATOM      3 H    THR F   4      36.500 -23.756  39.956  1.00 51.40 LIG 0.16  HD
ATOM      4  C   CYS F   3      35.186 -22.632  39.059  1.00 52.18 LIG 0.24  C 
ATOM      5 O    CYS F   3      34.965 -21.503  38.613  1.00 51.89 LIG-0.27  OA
BRANCH 4 6
ATOM      6  CA  CYS F   3      34.064 -23.676  39.093  1.00 52.92 LIG 0.18  C 
BRANCH 6 7
ATOM      7  CB  CYS F   3      33.402 -23.734  40.478  1.00 52.86 LIG 0.10  C 
BRANCH 7 8
ATOM      8 SG   CYS F   3      31.609 -23.377  40.470  1.00 55.16 LIG-0.18  SA
ATOM      9 HG   CYS F   3      31.436 -22.198  40.327  1.00 55.16 LIG 0.10  HD
ENDBRANCH 7 8
ENDBRANCH 6 7
BRANCH 6 10
ATOM     10  N   CYS F   3      34.605 -24.984  38.712  1.00 53.02 LIG-0.34  N 
ATOM     11 H    CYS F   3      34.437 -25.610  39.276  1.00 53.02 LIG 0.16  HD
ATOM     12  C   GLU F   2      35.295 -25.172  37.589  1.00 53.57 LIG 0.24  C 
ATOM     13 O    GLU F   2      35.398 -24.315  36.706  1.00 53.07 LIG-0.27  OA
BRANCH 12 14
ATOM     14  CA  GLU F   2      36.013 -26.517  37.453  1.00 54.00 LIG 0.18  C 
BRANCH 14 15
ATOM     15  CB  GLU F   2      37.289 -26.421  38.303  1.00 54.10 LIG 0.04  C 
BRANCH 15 16
ATOM     16  CG  GLU F   2      37.332 -27.250  39.579  1.00 55.55 LIG 0.12  C 
BRANCH 16 17
ATOM     17  CD  GLU F   2      36.697 -26.527  40.772  1.00 57.36 LIG 0.17  C 
ATOM     18 OE1  GLU F   2      35.463 -26.305  40.789  1.00 58.39 LIG-0.65  OA
ATOM     19 OE2  GLU F   2      37.434 -26.184  41.721  1.00 58.95 LIG-0.65  OA
ENDBRANCH 16 17
ENDBRANCH 15 16
ENDBRANCH 14 15
BRANCH 14 20
ATOM     20  N   GLU F   2      36.317 -26.885  36.061  1.00 53.99 LIG-0.35  N 
ATOM     21 H    GLU F   2      36.375 -26.205  35.537  1.00 53.99 LIG 0.16  HD
ATOM     22  C   SER F   1      36.490 -28.139  35.634  1.00 54.35 LIG 0.25  C 
ATOM     23 O    SER F   1      36.309 -29.140  36.339  1.00 54.45 LIG-0.27  OA
BRANCH 22 24
ATOM     24  CA  SER F   1      36.914 -28.294  34.167  1.00 54.58 LIG 0.30  C 
BRANCH 24 25
ATOM     25  CB  SER F   1      36.716 -29.741  33.703  1.00 54.63 LIG 0.21  C 
BRANCH 25 26
ATOM     26 OG   SER F   1      36.535 -29.805  32.295  1.00 54.91 LIG-0.40  OA
ATOM     27 HG   SER F   1      35.738 -29.618  32.106  1.00 54.91 LIG 0.21  HD
ENDBRANCH 25 26
ENDBRANCH 24 25
BRANCH 24 28
ATOM     28  N   SER F   1      38.327 -27.859  33.944  1.00 54.74 LIG-0.06  N 
ATOM     29 H1   SER F   1      38.358 -26.972  33.873  1.00 54.74 LIG 0.28  HD
ATOM     30 H2   SER F   1      38.830 -28.119  34.631  1.00 54.74 LIG 0.28  HD
ATOM     31 H3   SER F   1      38.636 -28.227  33.195  1.00 54.74 LIG 0.28  HD
ENDBRANCH 24 28
ENDBRANCH 22 24
ENDBRANCH 14 20
ENDBRANCH 12 14
ENDBRANCH 6 10
ENDBRANCH 4 6
ENDBRANCH 1 2
BRANCH 1 32
ATOM     32  CB  THR F   4      37.665 -21.187  40.724  1.00 51.21 LIG 0.15  C 
ATOM     33  CG2 THR F   4      39.122 -20.763  40.912  1.00 50.61 LIG 0.04  C 
BRANCH 32 34
ATOM     34 OG1  THR F   4      36.830 -20.040  40.531  1.00 51.15 LIG-0.39  OA
ATOM     35 HG1  THR F   4      36.281 -20.193  39.915  1.00 51.15 LIG 0.21  HD
ENDBRANCH 32 34
ENDBRANCH 1 32
BRANCH 1 36
ATOM     36  C   THR F   4      38.764 -23.041  39.510  1.00 49.53 LIG 0.24  C 
ATOM     37  N   THR F   5      39.802 -22.628  38.793  1.00 47.76 LIG-0.34  N 
ATOM     38 H    THR F   5      39.852 -21.839  38.455  1.00 47.76 LIG 0.16  HD
ATOM     39 O    THR F   4      38.736 -24.102  40.125  1.00 50.01 LIG-0.27  OA
BRANCH 37 40
ATOM     40  CA  THR F   5      40.965 -23.461  38.502  1.00 46.83 LIG 0.20  C 
BRANCH 40 41
ATOM     41  C   THR F   5      41.931 -22.668  37.622  1.00 45.74 LIG 0.24  C 
ATOM     42  N   PRO F   6      42.953 -22.050  38.235  1.00 45.40 LIG-0.34  N 
ATOM     43  CA  PRO F   6      44.022 -21.444  37.430  1.00 45.02 LIG 0.18  C 
ATOM     44  CD  PRO F   6      43.124 -21.782  39.676  1.00 45.45 LIG 0.13  C 
ATOM     45  CB  PRO F   6      45.010 -20.925  38.477  1.00 45.11 LIG 0.04  C 
ATOM     46  CG  PRO F   6      44.189 -20.695  39.700  1.00 45.75 LIG 0.02  C 
ATOM     47 O    THR F   5      41.746 -22.598  36.406  1.00 44.21 LIG-0.27  OA
BRANCH 43 48
ATOM     48  C   PRO F   6      44.680 -22.519  36.583  1.00 45.08 LIG 0.24  C 
ATOM     49  N   CYS F   7      44.278 -22.652  35.320  1.00 44.40 LIG-0.34  N 
ATOM     50 H    CYS F   7      43.731 -22.128  34.915  1.00 44.40 LIG 0.16  HD
ATOM     51 O    PRO F   6      45.544 -23.234  37.094  1.00 44.91 LIG-0.27  OA
BRANCH 49 52
ATOM     52  CA  CYS F   7      44.787 -23.768  34.527  1.00 45.02 LIG 0.19  C 
BRANCH 52 53
ATOM     53  CB  CYS F   7      43.631 -24.681  34.086  1.00 44.51 LIG 0.11  C 
BRANCH 53 54
ATOM     54 SG   CYS F   7      44.158 -25.841  32.751  1.00 46.73 LIG-0.18  SA
ATOM     55 HG   CYS F   7      44.150 -25.269  31.696  1.00 46.73 LIG 0.10  HD
ENDBRANCH 53 54
ENDBRANCH 52 53
BRANCH 52 56
ATOM     56  C   CYS F   7      45.737 -23.338  33.392  1.00 45.05 LIG 0.20  C 
ATOM     57 OXT  CYS F   7      46.687 -22.565  33.588  1.00 44.33 LIG-0.65  OA
ATOM     58 O    CYS F   7      45.504 -23.738  32.234  1.00 44.51 LIG-0.65  OA
ENDBRANCH 52 56
ENDBRANCH 49 52
ENDBRANCH 43 48
ENDBRANCH 40 41
BRANCH 40 59
ATOM     59  CB  THR F   5      40.533 -24.729  37.747  1.00 46.83 LIG 0.15  C 
ATOM     60  CG2 THR F   5      41.643 -25.289  36.871  1.00 46.88 LIG 0.04  C 
BRANCH 59 61
ATOM     61 OG1  THR F   5      40.095 -25.717  38.690  1.00 48.31 LIG-0.39  OA
ATOM     62 HG1  THR F   5      40.038 -25.370  39.453  1.00 48.31 LIG 0.21  HD
ENDBRANCH 59 61
ENDBRANCH 40 59
ENDBRANCH 37 40
ENDBRANCH 1 36
TORSDOF 26
ENDMDL
MODEL 35
USER: ADFR SOLUTION from run 83
USER: SCORE 16.995689 LL:  -6.587 LR: -12.303 RR:   0.000 FEB:  -4.547
USER: RMSD 4.321565
USER: SEED 82
USER: STATUS no improvement in best in 5 clusters for 5 generations
USER: GENES 28
USER: genes 0 Translation |==|  0.42406 0.43829 0.51817
USER: genes 1 Rotation |==|  0.48689 0.38185 0.55790 0.98220
USER: genes 2 Torsion [C]-CA--N-[C] |==|  0.78708
USER: genes 3 Torsion [N]-C--CA-[N] |==|  0.17094
USER: genes 4 Torsion [C]-CA--CB-[SG] |==|  0.24187
USER: genes 5 Torsion [CA]-CB--SG-[HG] |==|  0.66863
USER: genes 6 Torsion [C]-CA--N-[C] |==|  0.13260
USER: genes 7 Torsion [N]-C--CA-[N] |==|  0.50556
USER: genes 8 Torsion [C]-CA--CB-[CG] |==|  0.56544
USER: genes 9 Torsion [CA]-CB--CG-[CD] |==|  0.25222
USER: genes 10 Torsion [CB]-CG--CD-[OE1] |==|  0.21183
USER: genes 11 Torsion [C]-CA--N-[C] |==|  0.58167
USER: genes 12 Torsion [N]-C--CA-[N] |==|  0.07737
USER: genes 13 Torsion [C]-CA--CB-[OG] |==|  0.61646
USER: genes 14 Torsion [CA]-CB--OG-[HG] |==|  0.54940
USER: genes 15 Torsion [C]-CA--N-[H1] |==|  0.37982
USER: genes 16 Torsion [N]-CA--CB-[OG1] |==|  0.07103
USER: genes 17 Torsion [CA]-CB--OG1-[HG1] |==|  0.06632
USER: genes 18 Torsion [N]-CA--C-[N] |==|  0.21539
USER: genes 19 Torsion [C]-N--CA-[CB] |==|  0.21881
USER: genes 20 Torsion [N]-CA--C-[N] |==|  0.43171
USER: genes 21 Torsion [N]-CA--C-[N] |==|  0.91793
USER: genes 22 Torsion [C]-N--CA-[CB] |==|  0.35658
USER: genes 23 Torsion [N]-CA--CB-[SG] |==|  0.95546
USER: genes 24 Torsion [CA]-CB--SG-[HG] |==|  0.07450
USER: genes 25 Torsion [N]-CA--C-[OXT] |==|  0.40711
USER: genes 26 Torsion [N]-CA--CB-[OG1] |==|  0.09364
USER: genes 27 Torsion [CA]-CB--OG1-[HG1] |==|  0.27134
ROOT
ATOM      1  CA  THR F   4      38.245 -28.106  34.592  1.00 50.77 LIG 0.20  C 
ENDROOT
BRANCH 1 2
ATOM      2  N   THR F   4      39.564 -27.710  35.093  1.00 51.40 LIG-0.34  N 
ATOM      3 H    THR F   4      40.103 -28.368  35.220  1.00 51.40 LIG 0.16  HD
ATOM      4  C   CYS F   3      39.885 -26.435  35.327  1.00 52.18 LIG 0.24  C 
ATOM      5 O    CYS F   3      39.151 -25.488  35.032  1.00 51.89 LIG-0.27  OA
BRANCH 4 6
ATOM      6  CA  CYS F   3      41.263 -26.174  35.945  1.00 52.92 LIG 0.18  C 
BRANCH 6 7
ATOM      7  CB  CYS F   3      41.455 -24.684  36.264  1.00 52.86 LIG 0.10  C 
BRANCH 7 8
ATOM      8 SG   CYS F   3      40.837 -24.181  37.908  1.00 55.16 LIG-0.18  SA
ATOM      9 HG   CYS F   3      39.979 -23.352  37.777  1.00 55.16 LIG 0.10  HD
ENDBRANCH 7 8
ENDBRANCH 6 7
BRANCH 6 10
ATOM     10  N   CYS F   3      42.304 -26.657  35.033  1.00 53.02 LIG-0.34  N 
ATOM     11 H    CYS F   3      42.908 -27.137  35.413  1.00 53.02 LIG 0.16  HD
ATOM     12  C   GLU F   2      42.304 -26.371  33.732  1.00 53.57 LIG 0.24  C 
ATOM     13 O    GLU F   2      41.358 -25.821  33.160  1.00 53.07 LIG-0.27  OA
BRANCH 12 14
ATOM     14  CA  GLU F   2      43.579 -26.720  32.962  1.00 54.00 LIG 0.18  C 
BRANCH 14 15
ATOM     15  CB  GLU F   2      44.739 -26.030  33.696  1.00 54.10 LIG 0.04  C 
BRANCH 15 16
ATOM     16  CG  GLU F   2      45.996 -25.742  32.886  1.00 55.55 LIG 0.12  C 
BRANCH 16 17
ATOM     17  CD  GLU F   2      45.966 -24.359  32.227  1.00 57.36 LIG 0.17  C 
ATOM     18 OE1  GLU F   2      46.177 -23.330  32.913  1.00 58.39 LIG-0.65  OA
ATOM     19 OE2  GLU F   2      45.744 -24.289  31.000  1.00 58.95 LIG-0.65  OA
ENDBRANCH 16 17
ENDBRANCH 15 16
ENDBRANCH 14 15
BRANCH 14 20
ATOM     20  N   GLU F   2      43.534 -26.338  31.542  1.00 53.99 LIG-0.35  N 
ATOM     21 H    GLU F   2      43.037 -25.652  31.393  1.00 53.99 LIG 0.16  HD
ATOM     22  C   SER F   1      44.190 -26.975  30.568  1.00 54.35 LIG 0.25  C 
ATOM     23 O    SER F   1      44.826 -28.025  30.736  1.00 54.45 LIG-0.27  OA
BRANCH 22 24
ATOM     24  CA  SER F   1      44.098 -26.343  29.173  1.00 54.58 LIG 0.30  C 
BRANCH 24 25
ATOM     25  CB  SER F   1      45.351 -26.672  28.353  1.00 54.63 LIG 0.21  C 
BRANCH 25 26
ATOM     26 OG   SER F   1      45.796 -25.535  27.626  1.00 54.91 LIG-0.40  OA
ATOM     27 HG   SER F   1      46.314 -25.781  27.011  1.00 54.91 LIG 0.21  HD
ENDBRANCH 25 26
ENDBRANCH 24 25
BRANCH 24 28
ATOM     28  N   SER F   1      43.888 -24.864  29.242  1.00 54.74 LIG-0.06  N 
ATOM     29 H1   SER F   1      44.410 -24.461  28.645  1.00 54.74 LIG 0.28  HD
ATOM     30 H2   SER F   1      43.036 -24.676  29.065  1.00 54.74 LIG 0.28  HD
ATOM     31 H3   SER F   1      44.092 -24.573  30.058  1.00 54.74 LIG 0.28  HD
ENDBRANCH 24 28
ENDBRANCH 22 24
ENDBRANCH 14 20
ENDBRANCH 12 14
ENDBRANCH 6 10
ENDBRANCH 4 6
ENDBRANCH 1 2
BRANCH 1 32
ATOM     32  CB  THR F   4      38.205 -29.541  34.036  1.00 51.21 LIG 0.15  C 
ATOM     33  CG2 THR F   4      38.381 -29.517  32.518  1.00 50.61 LIG 0.04  C 
BRANCH 32 34
ATOM     34 OG1  THR F   4      39.231 -30.331  34.648  1.00 51.15 LIG-0.39  OA
ATOM     35 HG1  THR F   4      39.436 -29.997  35.391  1.00 51.15 LIG 0.21  HD
ENDBRANCH 32 34
ENDBRANCH 1 32
BRANCH 1 36
ATOM     36  C   THR F   4      37.281 -28.032  35.765  1.00 49.53 LIG 0.24  C 
ATOM     37  N   THR F   5      36.866 -26.819  36.111  1.00 47.76 LIG-0.34  N 
ATOM     38 H    THR F   5      37.015 -26.120  35.633  1.00 47.76 LIG 0.16  HD
ATOM     39 O    THR F   4      36.953 -29.059  36.349  1.00 50.01 LIG-0.27  OA
BRANCH 37 40
ATOM     40  CA  THR F   5      36.115 -26.540  37.331  1.00 46.83 LIG 0.20  C 
BRANCH 40 41
ATOM     41  C   THR F   5      35.432 -25.180  37.190  1.00 45.74 LIG 0.24  C 
ATOM     42  N   PRO F   6      34.334 -24.965  37.930  1.00 45.40 LIG-0.34  N 
ATOM     43  CA  PRO F   6      33.752 -23.618  37.991  1.00 45.02 LIG 0.18  C 
ATOM     44  CD  PRO F   6      33.515 -25.955  38.655  1.00 45.45 LIG 0.13  C 
ATOM     45  CB  PRO F   6      32.591 -23.770  38.976  1.00 45.11 LIG 0.04  C 
ATOM     46  CG  PRO F   6      32.211 -25.210  38.902  1.00 45.75 LIG 0.02  C 
ATOM     47 O    THR F   5      35.880 -24.341  36.406  1.00 44.21 LIG-0.27  OA
BRANCH 43 48
ATOM     48  C   PRO F   6      34.783 -22.652  38.549  1.00 45.08 LIG 0.24  C 
ATOM     49  N   CYS F   7      35.688 -23.129  39.403  1.00 44.40 LIG-0.34  N 
ATOM     50 H    CYS F   7      35.790 -23.958  39.606  1.00 44.40 LIG 0.16  HD
ATOM     51 O    PRO F   6      34.737 -21.468  38.208  1.00 44.91 LIG-0.27  OA
BRANCH 49 52
ATOM     52  CA  CYS F   7      36.597 -22.199  40.066  1.00 45.02 LIG 0.19  C 
BRANCH 52 53
ATOM     53  CB  CYS F   7      36.577 -22.425  41.587  1.00 44.51 LIG 0.11  C 
BRANCH 53 54
ATOM     54 SG   CYS F   7      35.111 -23.421  42.102  1.00 46.73 LIG-0.18  SA
ATOM     55 HG   CYS F   7      34.762 -24.121  41.192  1.00 46.73 LIG 0.10  HD
ENDBRANCH 53 54
ENDBRANCH 52 53
BRANCH 52 56
ATOM     56  C   CYS F   7      38.005 -22.159  39.441  1.00 45.05 LIG 0.20  C 
ATOM     57 OXT  CYS F   7      38.680 -21.118  39.408  1.00 44.33 LIG-0.65  OA
ATOM     58 O    CYS F   7      38.451 -23.192  38.904  1.00 44.51 LIG-0.65  OA
ENDBRANCH 52 56
ENDBRANCH 49 52
ENDBRANCH 43 48
ENDBRANCH 40 41
BRANCH 40 59
ATOM     59  CB  THR F   5      37.067 -26.494  38.539  1.00 46.83 LIG 0.15  C 
ATOM     60  CG2 THR F   5      37.253 -27.860  39.182  1.00 46.88 LIG 0.04  C 
BRANCH 59 61
ATOM     61 OG1  THR F   5      38.332 -25.960  38.126  1.00 48.31 LIG-0.39  OA
ATOM     62 HG1  THR F   5      38.366 -25.142  38.313  1.00 48.31 LIG 0.21  HD
ENDBRANCH 59 61
ENDBRANCH 40 59
ENDBRANCH 37 40
ENDBRANCH 1 36
TORSDOF 26
ENDMDL
MODEL 36
USER: ADFR SOLUTION from run 163
USER: SCORE 15.466434 LL:  -5.473 LR: -12.278 RR:   0.000 FEB:  -4.523
USER: RMSD 11.423755
USER: SEED 162
USER: STATUS no improvement in best in 9 clusters for 5 generations
USER: GENES 28
USER: genes 0 Translation |==|  0.38735 0.65688 0.67603
USER: genes 1 Rotation |==|  0.71137 0.18317 0.82328 0.52083
USER: genes 2 Torsion [C]-CA--N-[C] |==|  0.66808
USER: genes 3 Torsion [N]-C--CA-[N] |==|  0.89159
USER: genes 4 Torsion [C]-CA--CB-[SG] |==|  0.41621
USER: genes 5 Torsion [CA]-CB--SG-[HG] |==|  0.07887
USER: genes 6 Torsion [C]-CA--N-[C] |==|  0.78869
USER: genes 7 Torsion [N]-C--CA-[N] |==|  0.34827
USER: genes 8 Torsion [C]-CA--CB-[CG] |==|  0.62378
USER: genes 9 Torsion [CA]-CB--CG-[CD] |==|  0.19711
USER: genes 10 Torsion [CB]-CG--CD-[OE1] |==|  0.47350
USER: genes 11 Torsion [C]-CA--N-[C] |==|  0.64767
USER: genes 12 Torsion [N]-C--CA-[N] |==|  0.87718
USER: genes 13 Torsion [C]-CA--CB-[OG] |==|  0.74164
USER: genes 14 Torsion [CA]-CB--OG-[HG] |==|  0.48300
USER: genes 15 Torsion [C]-CA--N-[H1] |==|  0.40338
USER: genes 16 Torsion [N]-CA--CB-[OG1] |==|  0.14897
USER: genes 17 Torsion [CA]-CB--OG1-[HG1] |==|  0.13713
USER: genes 18 Torsion [N]-CA--C-[N] |==|  0.29737
USER: genes 19 Torsion [C]-N--CA-[CB] |==|  0.37665
USER: genes 20 Torsion [N]-CA--C-[N] |==|  0.40390
USER: genes 21 Torsion [N]-CA--C-[N] |==|  0.75958
USER: genes 22 Torsion [C]-N--CA-[CB] |==|  0.23986
USER: genes 23 Torsion [N]-CA--CB-[SG] |==|  0.80317
USER: genes 24 Torsion [CA]-CB--SG-[HG] |==|  0.06842
USER: genes 25 Torsion [N]-CA--C-[OXT] |==|  0.95650
USER: genes 26 Torsion [N]-CA--CB-[OG1] |==|  0.93444
USER: genes 27 Torsion [CA]-CB--OG1-[HG1] |==|  0.20174
ROOT
ATOM      1  CA  THR F   4      37.281 -24.499  38.381  1.00 50.77 LIG 0.20  C 
ENDROOT
BRANCH 1 2
ATOM      2  N   THR F   4      36.237 -25.068  39.237  1.00 51.40 LIG-0.34  N 
ATOM      3 H    THR F   4      36.538 -25.510  39.911  1.00 51.40 LIG 0.16  HD
ATOM      4  C   CYS F   3      34.936 -24.907  38.981  1.00 52.18 LIG 0.24  C 
ATOM      5 O    CYS F   3      34.510 -24.176  38.083  1.00 51.89 LIG-0.27  OA
BRANCH 4 6
ATOM      6  CA  CYS F   3      33.955 -25.641  39.902  1.00 52.92 LIG 0.18  C 
BRANCH 6 7
ATOM      7  CB  CYS F   3      33.684 -24.835  41.180  1.00 52.86 LIG 0.10  C 
BRANCH 7 8
ATOM      8 SG   CYS F   3      32.020 -25.090  41.891  1.00 55.16 LIG-0.18  SA
ATOM      9 HG   CYS F   3      31.628 -26.189  41.610  1.00 55.16 LIG 0.10  HD
ENDBRANCH 7 8
ENDBRANCH 6 7
BRANCH 6 10
ATOM     10  N   CYS F   3      34.489 -26.969  40.219  1.00 53.02 LIG-0.34  N 
ATOM     11 H    CYS F   3      34.820 -27.033  41.010  1.00 53.02 LIG 0.16  HD
ATOM     12  C   GLU F   2      34.458 -27.978  39.351  1.00 53.57 LIG 0.24  C 
ATOM     13 O    GLU F   2      33.842 -27.933  38.282  1.00 53.07 LIG-0.27  OA
BRANCH 12 14
ATOM     14  CA  GLU F   2      35.278 -29.217  39.723  1.00 54.00 LIG 0.18  C 
BRANCH 14 15
ATOM     15  CB  GLU F   2      36.446 -29.285  38.727  1.00 54.10 LIG 0.04  C 
BRANCH 15 16
ATOM     16  CG  GLU F   2      36.760 -30.647  38.124  1.00 55.55 LIG 0.12  C 
BRANCH 16 17
ATOM     17  CD  GLU F   2      35.692 -31.109  37.127  1.00 57.36 LIG 0.17  C 
ATOM     18 OE1  GLU F   2      35.892 -32.121  36.413  1.00 58.39 LIG-0.65  OA
ATOM     19 OE2  GLU F   2      34.624 -30.464  37.057  1.00 58.95 LIG-0.65  OA
ENDBRANCH 16 17
ENDBRANCH 15 16
ENDBRANCH 14 15
BRANCH 14 20
ATOM     20  N   GLU F   2      34.496 -30.462  39.726  1.00 53.99 LIG-0.35  N 
ATOM     21 H    GLU F   2      34.070 -30.595  38.991  1.00 53.99 LIG 0.16  HD
ATOM     22  C   SER F   1      34.438 -31.314  40.754  1.00 54.35 LIG 0.25  C 
ATOM     23 O    SER F   1      34.952 -31.098  41.859  1.00 54.45 LIG-0.27  OA
BRANCH 22 24
ATOM     24  CA  SER F   1      33.656 -32.611  40.506  1.00 54.58 LIG 0.30  C 
BRANCH 24 25
ATOM     25  CB  SER F   1      34.513 -33.611  39.721  1.00 54.63 LIG 0.21  C 
BRANCH 25 26
ATOM     26 OG   SER F   1      34.283 -33.493  38.324  1.00 54.91 LIG-0.40  OA
ATOM     27 HG   SER F   1      34.819 -33.988  37.908  1.00 54.91 LIG 0.21  HD
ENDBRANCH 25 26
ENDBRANCH 24 25
BRANCH 24 28
ATOM     28  N   SER F   1      32.363 -32.358  39.799  1.00 54.74 LIG-0.06  N 
ATOM     29 H1   SER F   1      32.188 -33.034  39.248  1.00 54.74 LIG 0.28  HD
ATOM     30 H2   SER F   1      31.707 -32.284  40.396  1.00 54.74 LIG 0.28  HD
ATOM     31 H3   SER F   1      32.423 -31.603  39.331  1.00 54.74 LIG 0.28  HD
ENDBRANCH 24 28
ENDBRANCH 22 24
ENDBRANCH 14 20
ENDBRANCH 12 14
ENDBRANCH 6 10
ENDBRANCH 4 6
ENDBRANCH 1 2
BRANCH 1 32
ATOM     32  CB  THR F   4      38.229 -23.542  39.124  1.00 51.21 LIG 0.15  C 
ATOM     33  CG2 THR F   4      37.479 -22.273  39.529  1.00 50.61 LIG 0.04  C 
BRANCH 32 34
ATOM     34 OG1  THR F   4      38.775 -24.192  40.277  1.00 51.15 LIG-0.39  OA
ATOM     35 HG1  THR F   4      39.076 -24.945  40.058  1.00 51.15 LIG 0.21  HD
ENDBRANCH 32 34
ENDBRANCH 1 32
BRANCH 1 36
ATOM     36  C   THR F   4      38.107 -25.661  37.852  1.00 49.53 LIG 0.24  C 
ATOM     37  N   THR F   5      37.937 -25.971  36.573  1.00 47.76 LIG-0.34  N 
ATOM     38 H    THR F   5      37.493 -25.476  36.027  1.00 47.76 LIG 0.16  HD
ATOM     39 O    THR F   4      38.857 -26.268  38.609  1.00 50.01 LIG-0.27  OA
BRANCH 37 40
ATOM     40  CA  THR F   5      38.481 -27.176  35.955  1.00 46.83 LIG 0.20  C 
BRANCH 40 41
ATOM     41  C   THR F   5      39.681 -26.789  35.091  1.00 45.74 LIG 0.24  C 
ATOM     42  N   PRO F   6      40.697 -27.663  35.026  1.00 45.40 LIG-0.34  N 
ATOM     43  CA  PRO F   6      41.782 -27.442  34.061  1.00 45.02 LIG 0.18  C 
ATOM     44  CD  PRO F   6      40.958 -28.825  35.897  1.00 45.45 LIG 0.13  C 
ATOM     45  CB  PRO F   6      42.680 -28.669  34.241  1.00 45.11 LIG 0.04  C 
ATOM     46  CG  PRO F   6      42.426 -29.128  35.637  1.00 45.75 LIG 0.02  C 
ATOM     47 O    THR F   5      39.698 -25.705  34.505  1.00 44.21 LIG-0.27  OA
BRANCH 43 48
ATOM     48  C   PRO F   6      41.206 -27.423  32.656  1.00 45.08 LIG 0.24  C 
ATOM     49  N   CYS F   7      41.067 -28.586  32.022  1.00 44.40 LIG-0.34  N 
ATOM     50 H    CYS F   7      41.201 -29.361  32.370  1.00 44.40 LIG 0.16  HD
ATOM     51 O    PRO F   6      40.906 -26.340  32.150  1.00 44.91 LIG-0.27  OA
BRANCH 49 52
ATOM     52  CA  CYS F   7      40.654 -28.586  30.621  1.00 45.02 LIG 0.19  C 
BRANCH 52 53
ATOM     53  CB  CYS F   7      41.879 -28.438  29.704  1.00 44.51 LIG 0.11  C 
BRANCH 53 54
ATOM     54 SG   CYS F   7      42.594 -26.740  29.799  1.00 46.73 LIG-0.18  SA
ATOM     55 HG   CYS F   7      42.306 -26.243  30.853  1.00 46.73 LIG 0.10  HD
ENDBRANCH 53 54
ENDBRANCH 52 53
BRANCH 52 56
ATOM     56  C   CYS F   7      39.712 -29.750  30.254  1.00 45.05 LIG 0.20  C 
ATOM     57 OXT  CYS F   7      39.577 -30.742  30.987  1.00 44.33 LIG-0.65  OA
ATOM     58 O    CYS F   7      39.114 -29.713  29.161  1.00 44.51 LIG-0.65  OA
ENDBRANCH 52 56
ENDBRANCH 49 52
ENDBRANCH 43 48
ENDBRANCH 40 41
BRANCH 40 59
ATOM     59  CB  THR F   5      37.419 -27.838  35.060  1.00 46.83 LIG 0.15  C 
ATOM     60  CG2 THR F   5      37.534 -29.355  35.049  1.00 46.88 LIG 0.04  C 
BRANCH 59 61
ATOM     61 OG1  THR F   5      36.113 -27.440  35.502  1.00 48.31 LIG-0.39  OA
ATOM     62 HG1  THR F   5      35.979 -26.637  35.292  1.00 48.31 LIG 0.21  HD
ENDBRANCH 59 61
ENDBRANCH 40 59
ENDBRANCH 37 40
ENDBRANCH 1 36
TORSDOF 26
ENDMDL
MODEL 37
USER: ADFR SOLUTION from run 135
USER: SCORE 16.087514 LL:  -5.424 LR: -12.279 RR:   0.000 FEB:  -4.523
USER: RMSD 12.106218
USER: SEED 134
USER: STATUS no improvement in best in 3 clusters for 5 generations
USER: GENES 28
USER: genes 0 Translation |==|  0.49608 0.59912 0.55533
USER: genes 1 Rotation |==|  0.34698 0.93841 0.32412 0.55873
USER: genes 2 Torsion [C]-CA--N-[C] |==|  0.22778
USER: genes 3 Torsion [N]-C--CA-[N] |==|  0.91835
USER: genes 4 Torsion [C]-CA--CB-[SG] |==|  0.82663
USER: genes 5 Torsion [CA]-CB--SG-[HG] |==|  0.09383
USER: genes 6 Torsion [C]-CA--N-[C] |==|  0.68675
USER: genes 7 Torsion [N]-C--CA-[N] |==|  0.46316
USER: genes 8 Torsion [C]-CA--CB-[CG] |==|  0.79604
USER: genes 9 Torsion [CA]-CB--CG-[CD] |==|  0.79023
USER: genes 10 Torsion [CB]-CG--CD-[OE1] |==|  0.76955
USER: genes 11 Torsion [C]-CA--N-[C] |==|  0.54794
USER: genes 12 Torsion [N]-C--CA-[N] |==|  0.97703
USER: genes 13 Torsion [C]-CA--CB-[OG] |==|  0.28474
USER: genes 14 Torsion [CA]-CB--OG-[HG] |==|  0.62848
USER: genes 15 Torsion [C]-CA--N-[H1] |==|  0.18862
USER: genes 16 Torsion [N]-CA--CB-[OG1] |==|  0.86809
USER: genes 17 Torsion [CA]-CB--OG1-[HG1] |==|  0.46353
USER: genes 18 Torsion [N]-CA--C-[N] |==|  0.86050
USER: genes 19 Torsion [C]-N--CA-[CB] |==|  0.53934
USER: genes 20 Torsion [N]-CA--C-[N] |==|  0.36838
USER: genes 21 Torsion [N]-CA--C-[N] |==|  0.49892
USER: genes 22 Torsion [C]-N--CA-[CB] |==|  0.85241
USER: genes 23 Torsion [N]-CA--CB-[SG] |==|  0.26065
USER: genes 24 Torsion [CA]-CB--SG-[HG] |==|  0.58755
USER: genes 25 Torsion [N]-CA--C-[OXT] |==|  0.75486
USER: genes 26 Torsion [N]-CA--CB-[OG1] |==|  0.47529
USER: genes 27 Torsion [CA]-CB--OG1-[HG1] |==|  0.80150
ROOT
ATOM      1  CA  THR F   4      40.135 -25.452  35.484  1.00 50.77 LIG 0.20  C 
ENDROOT
BRANCH 1 2
ATOM      2  N   THR F   4      38.898 -26.232  35.581  1.00 51.40 LIG-0.34  N 
ATOM      3 H    THR F   4      38.215 -25.852  35.222  1.00 51.40 LIG 0.16  HD
ATOM      4  C   CYS F   3      38.851 -27.426  36.179  1.00 52.18 LIG 0.24  C 
ATOM      5 O    CYS F   3      39.855 -28.017  36.586  1.00 51.89 LIG-0.27  OA
BRANCH 4 6
ATOM      6  CA  CYS F   3      37.472 -28.083  36.298  1.00 52.92 LIG 0.18  C 
BRANCH 6 7
ATOM      7  CB  CYS F   3      37.206 -29.032  35.121  1.00 52.86 LIG 0.10  C 
BRANCH 7 8
ATOM      8 SG   CYS F   3      37.171 -28.213  33.487  1.00 55.16 LIG-0.18  SA
ATOM      9 HG   CYS F   3      37.952 -27.302  33.479  1.00 55.16 LIG 0.10  HD
ENDBRANCH 7 8
ENDBRANCH 6 7
BRANCH 6 10
ATOM     10  N   CYS F   3      36.443 -27.043  36.380  1.00 53.02 LIG-0.34  N 
ATOM     11 H    CYS F   3      36.351 -26.583  35.659  1.00 53.02 LIG 0.16  HD
ATOM     12  C   GLU F   2      35.721 -26.836  37.479  1.00 53.57 LIG 0.24  C 
ATOM     13 O    GLU F   2      35.739 -27.594  38.454  1.00 53.07 LIG-0.27  OA
BRANCH 12 14
ATOM     14  CA  GLU F   2      34.876 -25.560  37.505  1.00 54.00 LIG 0.18  C 
BRANCH 14 15
ATOM     15  CB  GLU F   2      35.860 -24.385  37.618  1.00 54.10 LIG 0.04  C 
BRANCH 15 16
ATOM     16  CG  GLU F   2      36.534 -24.175  38.967  1.00 55.55 LIG 0.12  C 
BRANCH 16 17
ATOM     17  CD  GLU F   2      35.593 -23.550  40.002  1.00 57.36 LIG 0.17  C 
ATOM     18 OE1  GLU F   2      35.421 -22.308  40.029  1.00 58.39 LIG-0.65  OA
ATOM     19 OE2  GLU F   2      34.998 -24.306  40.799  1.00 58.95 LIG-0.65  OA
ENDBRANCH 16 17
ENDBRANCH 15 16
ENDBRANCH 14 15
BRANCH 14 20
ATOM     20  N   GLU F   2      33.878 -25.535  38.585  1.00 53.99 LIG-0.35  N 
ATOM     21 H    GLU F   2      34.037 -26.110  39.204  1.00 53.99 LIG 0.16  HD
ATOM     22  C   SER F   1      32.827 -24.711  38.621  1.00 54.35 LIG 0.25  C 
ATOM     23 O    SER F   1      32.514 -23.949  37.696  1.00 54.45 LIG-0.27  OA
BRANCH 22 24
ATOM     24  CA  SER F   1      31.973 -24.771  39.894  1.00 54.58 LIG 0.30  C 
BRANCH 24 25
ATOM     25  CB  SER F   1      32.041 -23.437  40.647  1.00 54.63 LIG 0.21  C 
BRANCH 25 26
ATOM     26 OG   SER F   1      30.865 -22.670  40.432  1.00 54.91 LIG-0.40  OA
ATOM     27 HG   SER F   1      31.076 -21.876  40.253  1.00 54.91 LIG 0.21  HD
ENDBRANCH 25 26
ENDBRANCH 24 25
BRANCH 24 28
ATOM     28  N   SER F   1      32.378 -25.899  40.787  1.00 54.74 LIG-0.06  N 
ATOM     29 H1   SER F   1      33.188 -25.740  41.120  1.00 54.74 LIG 0.28  HD
ATOM     30 H2   SER F   1      31.794 -25.975  41.455  1.00 54.74 LIG 0.28  HD
ATOM     31 H3   SER F   1      32.393 -26.657  40.321  1.00 54.74 LIG 0.28  HD
ENDBRANCH 24 28
ENDBRANCH 22 24
ENDBRANCH 14 20
ENDBRANCH 12 14
ENDBRANCH 6 10
ENDBRANCH 4 6
ENDBRANCH 1 2
BRANCH 1 32
ATOM     32  CB  THR F   4      41.028 -25.562  36.732  1.00 51.21 LIG 0.15  C 
ATOM     33  CG2 THR F   4      42.153 -24.528  36.662  1.00 50.61 LIG 0.04  C 
BRANCH 32 34
ATOM     34 OG1  THR F   4      40.243 -25.370  37.914  1.00 51.15 LIG-0.39  OA
ATOM     35 HG1  THR F   4      40.687 -25.605  38.587  1.00 51.15 LIG 0.21  HD
ENDBRANCH 32 34
ENDBRANCH 1 32
BRANCH 1 36
ATOM     36  C   THR F   4      40.916 -25.999  34.300  1.00 49.53 LIG 0.24  C 
ATOM     37  N   THR F   5      41.086 -27.316  34.263  1.00 47.76 LIG-0.34  N 
ATOM     38 H    THR F   5      40.676 -27.855  34.794  1.00 47.76 LIG 0.16  HD
ATOM     39 O    THR F   4      41.369 -25.228  33.461  1.00 50.01 LIG-0.27  OA
BRANCH 37 40
ATOM     40  CA  THR F   5      41.979 -27.989  33.326  1.00 46.83 LIG 0.20  C 
BRANCH 40 41
ATOM     41  C   THR F   5      41.745 -27.420  31.926  1.00 45.74 LIG 0.24  C 
ATOM     42  N   PRO F   6      42.829 -27.078  31.215  1.00 45.40 LIG-0.34  N 
ATOM     43  CA  PRO F   6      42.683 -26.717  29.798  1.00 45.02 LIG 0.18  C 
ATOM     44  CD  PRO F   6      44.214 -26.898  31.692  1.00 45.45 LIG 0.13  C 
ATOM     45  CB  PRO F   6      44.122 -26.474  29.338  1.00 45.11 LIG 0.04  C 
ATOM     46  CG  PRO F   6      44.863 -26.093  30.575  1.00 45.75 LIG 0.02  C 
ATOM     47 O    THR F   5      40.598 -27.276  31.501  1.00 44.21 LIG-0.27  OA
BRANCH 43 48
ATOM     48  C   PRO F   6      42.088 -27.892  29.042  1.00 45.08 LIG 0.24  C 
ATOM     49  N   CYS F   7      41.873 -27.750  27.735  1.00 44.40 LIG-0.34  N 
ATOM     50 H    CYS F   7      42.116 -27.074  27.263  1.00 44.40 LIG 0.16  HD
ATOM     51 O    PRO F   6      41.813 -28.922  29.662  1.00 44.91 LIG-0.27  OA
BRANCH 49 52
ATOM     52  CA  CYS F   7      41.169 -28.806  27.013  1.00 45.02 LIG 0.19  C 
BRANCH 52 53
ATOM     53  CB  CYS F   7      41.846 -30.164  27.259  1.00 44.51 LIG 0.11  C 
BRANCH 53 54
ATOM     54 SG   CYS F   7      41.055 -31.069  28.660  1.00 46.73 LIG-0.18  SA
ATOM     55 HG   CYS F   7      41.878 -31.739  29.220  1.00 46.73 LIG 0.10  HD
ENDBRANCH 53 54
ENDBRANCH 52 53
BRANCH 52 56
ATOM     56  C   CYS F   7      39.644 -28.797  27.237  1.00 45.05 LIG 0.20  C 
ATOM     57 OXT  CYS F   7      39.114 -29.411  28.177  1.00 44.33 LIG-0.65  OA
ATOM     58 O    CYS F   7      38.922 -28.201  26.414  1.00 44.51 LIG-0.65  OA
ENDBRANCH 52 56
ENDBRANCH 49 52
ENDBRANCH 43 48
ENDBRANCH 40 41
BRANCH 40 59
ATOM     59  CB  THR F   5      41.684 -29.498  33.304  1.00 46.83 LIG 0.15  C 
ATOM     60  CG2 THR F   5      40.198 -29.796  33.162  1.00 46.88 LIG 0.04  C 
BRANCH 59 61
ATOM     61 OG1  THR F   5      42.420 -30.110  32.236  1.00 48.31 LIG-0.39  OA
ATOM     62 HG1  THR F   5      42.083 -29.886  31.500  1.00 48.31 LIG 0.21  HD
ENDBRANCH 59 61
ENDBRANCH 40 59
ENDBRANCH 37 40
ENDBRANCH 1 36
TORSDOF 26
ENDMDL
MODEL 38
USER: ADFR SOLUTION from run 174
USER: SCORE 16.554849 LL:  -5.585 LR: -12.225 RR:   0.000 FEB:  -4.469
USER: RMSD 6.572279
USER: SEED 173
USER: STATUS searching
USER: GENES 28
USER: genes 0 Translation |==|  0.39524 0.54286 0.62742
USER: genes 1 Rotation |==|  0.89586 0.68017 0.32495 0.67376
USER: genes 2 Torsion [C]-CA--N-[C] |==|  0.77431
USER: genes 3 Torsion [N]-C--CA-[N] |==|  0.39661
USER: genes 4 Torsion [C]-CA--CB-[SG] |==|  0.63446
USER: genes 5 Torsion [CA]-CB--SG-[HG] |==|  0.77905
USER: genes 6 Torsion [C]-CA--N-[C] |==|  0.82461
USER: genes 7 Torsion [N]-C--CA-[N] |==|  0.09010
USER: genes 8 Torsion [C]-CA--CB-[CG] |==|  0.49847
USER: genes 9 Torsion [CA]-CB--CG-[CD] |==|  0.28830
USER: genes 10 Torsion [CB]-CG--CD-[OE1] |==|  0.76515
USER: genes 11 Torsion [C]-CA--N-[C] |==|  0.17778
USER: genes 12 Torsion [N]-C--CA-[N] |==|  0.31784
USER: genes 13 Torsion [C]-CA--CB-[OG] |==|  0.64561
USER: genes 14 Torsion [CA]-CB--OG-[HG] |==|  0.39574
USER: genes 15 Torsion [C]-CA--N-[H1] |==|  0.56895
USER: genes 16 Torsion [N]-CA--CB-[OG1] |==|  0.08014
USER: genes 17 Torsion [CA]-CB--OG1-[HG1] |==|  0.04496
USER: genes 18 Torsion [N]-CA--C-[N] |==|  0.94318
USER: genes 19 Torsion [C]-N--CA-[CB] |==|  0.53005
USER: genes 20 Torsion [N]-CA--C-[N] |==|  0.88058
USER: genes 21 Torsion [N]-CA--C-[N] |==|  0.23078
USER: genes 22 Torsion [C]-N--CA-[CB] |==|  0.17203
USER: genes 23 Torsion [N]-CA--CB-[SG] |==|  0.19767
USER: genes 24 Torsion [CA]-CB--SG-[HG] |==|  0.90921
USER: genes 25 Torsion [N]-CA--C-[OXT] |==|  0.42613
USER: genes 26 Torsion [N]-CA--CB-[OG1] |==|  0.78412
USER: genes 27 Torsion [CA]-CB--OG1-[HG1] |==|  0.74025
ROOT
ATOM      1  CA  THR F   4      37.488 -26.381  37.214  1.00 50.77 LIG 0.20  C 
ENDROOT
BRANCH 1 2
ATOM      2  N   THR F   4      38.303 -25.798  36.145  1.00 51.40 LIG-0.34  N 
ATOM      3 H    THR F   4      37.882 -25.233  35.651  1.00 51.40 LIG 0.16  HD
ATOM      4  C   CYS F   3      39.586 -26.124  35.966  1.00 52.18 LIG 0.24  C 
ATOM      5 O    CYS F   3      40.215 -26.842  36.747  1.00 51.89 LIG-0.27  OA
BRANCH 4 6
ATOM      6  CA  CYS F   3      40.288 -25.515  34.748  1.00 52.92 LIG 0.18  C 
BRANCH 6 7
ATOM      7  CB  CYS F   3      40.235 -26.466  33.543  1.00 52.86 LIG 0.10  C 
BRANCH 7 8
ATOM      8 SG   CYS F   3      41.842 -26.713  32.708  1.00 55.16 LIG-0.18  SA
ATOM      9 HG   CYS F   3      42.067 -25.779  31.989  1.00 55.16 LIG 0.10  HD
ENDBRANCH 7 8
ENDBRANCH 6 7
BRANCH 6 10
ATOM     10  N   CYS F   3      41.673 -25.187  35.100  1.00 53.02 LIG-0.34  N 
ATOM     11 H    CYS F   3      42.262 -25.626  34.653  1.00 53.02 LIG 0.16  HD
ATOM     12  C   GLU F   2      41.979 -24.286  36.031  1.00 53.57 LIG 0.24  C 
ATOM     13 O    GLU F   2      41.144 -23.543  36.556  1.00 53.07 LIG-0.27  OA
BRANCH 12 14
ATOM     14  CA  GLU F   2      43.445 -24.238  36.471  1.00 54.00 LIG 0.18  C 
BRANCH 14 15
ATOM     15  CB  GLU F   2      43.691 -22.825  37.022  1.00 54.10 LIG 0.04  C 
BRANCH 15 16
ATOM     16  CG  GLU F   2      45.089 -22.521  37.543  1.00 55.55 LIG 0.12  C 
BRANCH 16 17
ATOM     17  CD  GLU F   2      45.907 -21.667  36.568  1.00 57.36 LIG 0.17  C 
ATOM     18 OE1  GLU F   2      46.535 -22.210  35.629  1.00 58.39 LIG-0.65  OA
ATOM     19 OE2  GLU F   2      45.916 -20.428  36.727  1.00 58.95 LIG-0.65  OA
ENDBRANCH 16 17
ENDBRANCH 15 16
ENDBRANCH 14 15
BRANCH 14 20
ATOM     20  N   GLU F   2      44.394 -24.573  35.398  1.00 53.99 LIG-0.35  N 
ATOM     21 H    GLU F   2      44.843 -25.289  35.556  1.00 53.99 LIG 0.16  HD
ATOM     22  C   SER F   1      44.557 -23.854  34.284  1.00 54.35 LIG 0.25  C 
ATOM     23 O    SER F   1      44.005 -22.765  34.078  1.00 54.45 LIG-0.27  OA
BRANCH 22 24
ATOM     24  CA  SER F   1      45.517 -24.443  33.242  1.00 54.58 LIG 0.30  C 
BRANCH 24 25
ATOM     25  CB  SER F   1      46.654 -23.458  32.945  1.00 54.63 LIG 0.21  C 
BRANCH 25 26
ATOM     26 OG   SER F   1      46.776 -23.226  31.549  1.00 54.91 LIG-0.40  OA
ATOM     27 HG   SER F   1      46.969 -22.419  31.414  1.00 54.91 LIG 0.21  HD
ENDBRANCH 25 26
ENDBRANCH 24 25
BRANCH 24 28
ATOM     28  N   SER F   1      44.808 -24.822  31.981  1.00 54.74 LIG-0.06  N 
ATOM     29 H1   SER F   1      45.269 -25.458  31.560  1.00 54.74 LIG 0.28  HD
ATOM     30 H2   SER F   1      43.995 -25.127  32.177  1.00 54.74 LIG 0.28  HD
ATOM     31 H3   SER F   1      44.738 -24.109  31.453  1.00 54.74 LIG 0.28  HD
ENDBRANCH 24 28
ENDBRANCH 22 24
ENDBRANCH 14 20
ENDBRANCH 12 14
ENDBRANCH 6 10
ENDBRANCH 4 6
ENDBRANCH 1 2
BRANCH 1 32
ATOM     32  CB  THR F   4      36.242 -25.546  37.560  1.00 51.21 LIG 0.15  C 
ATOM     33  CG2 THR F   4      36.559 -24.586  38.707  1.00 50.61 LIG 0.04  C 
BRANCH 32 34
ATOM     34 OG1  THR F   4      35.803 -24.821  36.406  1.00 51.15 LIG-0.39  OA
ATOM     35 HG1  THR F   4      36.158 -25.147  35.718  1.00 51.15 LIG 0.21  HD
ENDBRANCH 32 34
ENDBRANCH 1 32
BRANCH 1 36
ATOM     36  C   THR F   4      37.019 -27.742  36.726  1.00 49.53 LIG 0.24  C 
ATOM     37  N   THR F   5      37.041 -27.937  35.413  1.00 47.76 LIG-0.34  N 
ATOM     38 H    THR F   5      37.416 -27.391  34.866  1.00 47.76 LIG 0.16  HD
ATOM     39 O    THR F   4      36.625 -28.576  37.535  1.00 50.01 LIG-0.27  OA
BRANCH 37 40
ATOM     40  CA  THR F   5      36.434 -29.092  34.758  1.00 46.83 LIG 0.20  C 
BRANCH 40 41
ATOM     41  C   THR F   5      36.907 -30.364  35.463  1.00 45.74 LIG 0.24  C 
ATOM     42  N   PRO F   6      38.206 -30.437  35.789  1.00 45.40 LIG-0.34  N 
ATOM     43  CA  PRO F   6      38.679 -31.536  36.640  1.00 45.02 LIG 0.18  C 
ATOM     44  CD  PRO F   6      39.315 -29.589  35.311  1.00 45.45 LIG 0.13  C 
ATOM     45  CB  PRO F   6      40.164 -31.225  36.839  1.00 45.11 LIG 0.04  C 
ATOM     46  CG  PRO F   6      40.550 -30.414  35.649  1.00 45.75 LIG 0.02  C 
ATOM     47 O    THR F   5      36.111 -31.276  35.692  1.00 44.21 LIG-0.27  OA
BRANCH 43 48
ATOM     48  C   PRO F   6      37.954 -31.483  37.974  1.00 45.08 LIG 0.24  C 
ATOM     49  N   CYS F   7      36.746 -32.039  38.051  1.00 44.40 LIG-0.34  N 
ATOM     50 H    CYS F   7      36.371 -32.499  37.430  1.00 44.40 LIG 0.16  HD
ATOM     51 O    PRO F   6      38.498 -30.918  38.925  1.00 44.91 LIG-0.27  OA
BRANCH 49 52
ATOM     52  CA  CYS F   7      35.967 -31.876  39.276  1.00 45.02 LIG 0.19  C 
BRANCH 52 53
ATOM     53  CB  CYS F   7      35.666 -30.389  39.523  1.00 44.51 LIG 0.11  C 
BRANCH 53 54
ATOM     54 SG   CYS F   7      34.435 -29.738  38.312  1.00 46.73 LIG-0.18  SA
ATOM     55 HG   CYS F   7      34.572 -30.300  37.261  1.00 46.73 LIG 0.10  HD
ENDBRANCH 53 54
ENDBRANCH 52 53
BRANCH 52 56
ATOM     56  C   CYS F   7      34.738 -32.802  39.354  1.00 45.05 LIG 0.20  C 
ATOM     57 OXT  CYS F   7      34.257 -33.165  40.439  1.00 44.33 LIG-0.65  OA
ATOM     58 O    CYS F   7      34.252 -33.242  38.294  1.00 44.51 LIG-0.65  OA
ENDBRANCH 52 56
ENDBRANCH 49 52
ENDBRANCH 43 48
ENDBRANCH 40 41
BRANCH 40 59
ATOM     59  CB  THR F   5      36.867 -29.151  33.284  1.00 46.83 LIG 0.15  C 
ATOM     60  CG2 THR F   5      36.701 -30.541  32.687  1.00 46.88 LIG 0.04  C 
BRANCH 59 61
ATOM     61 OG1  THR F   5      36.113 -28.192  32.529  1.00 48.31 LIG-0.39  OA
ATOM     62 HG1  THR F   5      35.435 -28.564  32.201  1.00 48.31 LIG 0.21  HD
ENDBRANCH 59 61
ENDBRANCH 40 59
ENDBRANCH 37 40
ENDBRANCH 1 36
TORSDOF 26
ENDMDL
MODEL 39
USER: ADFR SOLUTION from run 163
USER: SCORE 16.698550 LL:  -5.435 LR: -12.220 RR:   0.000 FEB:  -4.464
USER: RMSD 12.280169
USER: SEED 162
USER: STATUS no improvement in best in 9 clusters for 5 generations
USER: GENES 28
USER: genes 0 Translation |==|  0.33688 0.54173 0.64006
USER: genes 1 Rotation |==|  0.19111 0.54653 0.11588 0.56981
USER: genes 2 Torsion [C]-CA--N-[C] |==|  0.77511
USER: genes 3 Torsion [N]-C--CA-[N] |==|  0.08061
USER: genes 4 Torsion [C]-CA--CB-[SG] |==|  0.91393
USER: genes 5 Torsion [CA]-CB--SG-[HG] |==|  0.68278
USER: genes 6 Torsion [C]-CA--N-[C] |==|  0.67267
USER: genes 7 Torsion [N]-C--CA-[N] |==|  0.95481
USER: genes 8 Torsion [C]-CA--CB-[CG] |==|  0.60138
USER: genes 9 Torsion [CA]-CB--CG-[CD] |==|  0.88707
USER: genes 10 Torsion [CB]-CG--CD-[OE1] |==|  0.37038
USER: genes 11 Torsion [C]-CA--N-[C] |==|  0.69479
USER: genes 12 Torsion [N]-C--CA-[N] |==|  0.32415
USER: genes 13 Torsion [C]-CA--CB-[OG] |==|  0.73925
USER: genes 14 Torsion [CA]-CB--OG-[HG] |==|  0.81625
USER: genes 15 Torsion [C]-CA--N-[H1] |==|  0.77075
USER: genes 16 Torsion [N]-CA--CB-[OG1] |==|  0.48373
USER: genes 17 Torsion [CA]-CB--OG1-[HG1] |==|  0.09239
USER: genes 18 Torsion [N]-CA--C-[N] |==|  0.46103
USER: genes 19 Torsion [C]-N--CA-[CB] |==|  0.51667
USER: genes 20 Torsion [N]-CA--C-[N] |==|  0.40522
USER: genes 21 Torsion [N]-CA--C-[N] |==|  0.77794
USER: genes 22 Torsion [C]-N--CA-[CB] |==|  0.25996
USER: genes 23 Torsion [N]-CA--CB-[SG] |==|  0.02564
USER: genes 24 Torsion [CA]-CB--SG-[HG] |==|  0.19288
USER: genes 25 Torsion [N]-CA--C-[OXT] |==|  0.42488
USER: genes 26 Torsion [N]-CA--CB-[OG1] |==|  0.83218
USER: genes 27 Torsion [CA]-CB--OG1-[HG1] |==|  0.21502
ROOT
ATOM      1  CA  THR F   4      35.956 -26.399  37.517  1.00 50.77 LIG 0.20  C 
ENDROOT
BRANCH 1 2
ATOM      2  N   THR F   4      35.511 -26.935  38.807  1.00 51.40 LIG-0.34  N 
ATOM      3 H    THR F   4      35.287 -26.332  39.378  1.00 51.40 LIG 0.16  HD
ATOM      4  C   CYS F   3      35.463 -28.246  39.058  1.00 52.18 LIG 0.24  C 
ATOM      5 O    CYS F   3      35.672 -29.106  38.199  1.00 51.89 LIG-0.27  OA
BRANCH 4 6
ATOM      6  CA  CYS F   3      35.076 -28.662  40.481  1.00 52.92 LIG 0.18  C 
BRANCH 6 7
ATOM      7  CB  CYS F   3      34.400 -30.040  40.492  1.00 52.86 LIG 0.10  C 
BRANCH 7 8
ATOM      8 SG   CYS F   3      33.446 -30.422  38.980  1.00 55.16 LIG-0.18  SA
ATOM      9 HG   CYS F   3      32.280 -30.502  39.252  1.00 55.16 LIG 0.10  HD
ENDBRANCH 7 8
ENDBRANCH 6 7
BRANCH 6 10
ATOM     10  N   CYS F   3      34.201 -27.640  41.065  1.00 53.02 LIG-0.34  N 
ATOM     11 H    CYS F   3      33.458 -27.535  40.646  1.00 53.02 LIG 0.16  HD
ATOM     12  C   GLU F   2      34.539 -26.944  42.148  1.00 53.57 LIG 0.24  C 
ATOM     13 O    GLU F   2      35.528 -27.205  42.840  1.00 53.07 LIG-0.27  OA
BRANCH 12 14
ATOM     14  CA  GLU F   2      33.651 -25.743  42.486  1.00 54.00 LIG 0.18  C 
BRANCH 14 15
ATOM     15  CB  GLU F   2      32.822 -26.143  43.715  1.00 54.10 LIG 0.04  C 
BRANCH 15 16
ATOM     16  CG  GLU F   2      31.388 -25.636  43.776  1.00 55.55 LIG 0.12  C 
BRANCH 16 17
ATOM     17  CD  GLU F   2      31.256 -24.186  43.295  1.00 57.36 LIG 0.17  C 
ATOM     18 OE1  GLU F   2      30.348 -23.870  42.490  1.00 58.39 LIG-0.65  OA
ATOM     19 OE2  GLU F   2      32.060 -23.338  43.736  1.00 58.95 LIG-0.65  OA
ENDBRANCH 16 17
ENDBRANCH 15 16
ENDBRANCH 14 15
BRANCH 14 20
ATOM     20  N   GLU F   2      32.793 -25.312  41.371  1.00 53.99 LIG-0.35  N 
ATOM     21 H    GLU F   2      32.163 -25.870  41.195  1.00 53.99 LIG 0.16  HD
ATOM     22  C   SER F   1      32.958 -24.175  40.689  1.00 54.35 LIG 0.25  C 
ATOM     23 O    SER F   1      33.916 -23.407  40.848  1.00 54.45 LIG-0.27  OA
BRANCH 22 24
ATOM     24  CA  SER F   1      31.883 -23.862  39.640  1.00 54.58 LIG 0.30  C 
BRANCH 24 25
ATOM     25  CB  SER F   1      32.509 -23.765  38.244  1.00 54.63 LIG 0.21  C 
BRANCH 25 26
ATOM     26 OG   SER F   1      32.838 -22.421  37.926  1.00 54.91 LIG-0.40  OA
ATOM     27 HG   SER F   1      32.133 -21.968  37.859  1.00 54.91 LIG 0.21  HD
ENDBRANCH 25 26
ENDBRANCH 24 25
BRANCH 24 28
ATOM     28  N   SER F   1      31.130 -22.612  39.966  1.00 54.74 LIG-0.06  N 
ATOM     29 H1   SER F   1      30.488 -22.796  40.555  1.00 54.74 LIG 0.28  HD
ATOM     30 H2   SER F   1      31.688 -22.012  40.315  1.00 54.74 LIG 0.28  HD
ATOM     31 H3   SER F   1      30.766 -22.282  39.224  1.00 54.74 LIG 0.28  HD
ENDBRANCH 24 28
ENDBRANCH 22 24
ENDBRANCH 14 20
ENDBRANCH 12 14
ENDBRANCH 6 10
ENDBRANCH 4 6
ENDBRANCH 1 2
BRANCH 1 32
ATOM     32  CB  THR F   4      35.490 -24.956  37.259  1.00 51.21 LIG 0.15  C 
ATOM     33  CG2 THR F   4      35.870 -24.064  38.441  1.00 50.61 LIG 0.04  C 
BRANCH 32 34
ATOM     34 OG1  THR F   4      36.075 -24.462  36.049  1.00 51.15 LIG-0.39  OA
ATOM     35 HG1  THR F   4      36.163 -25.093  35.502  1.00 51.15 LIG 0.21  HD
ENDBRANCH 32 34
ENDBRANCH 1 32
BRANCH 1 36
ATOM     36  C   THR F   4      37.476 -26.405  37.532  1.00 49.53 LIG 0.24  C 
ATOM     37  N   THR F   5      38.078 -26.231  36.362  1.00 47.76 LIG-0.34  N 
ATOM     38 H    THR F   5      37.656 -25.997  35.650  1.00 47.76 LIG 0.16  HD
ATOM     39 O    THR F   4      38.074 -26.591  38.587  1.00 50.01 LIG-0.27  OA
BRANCH 37 40
ATOM     40  CA  THR F   5      39.510 -26.418  36.154  1.00 46.83 LIG 0.20  C 
BRANCH 40 41
ATOM     41  C   THR F   5      40.271 -25.546  37.153  1.00 45.74 LIG 0.24  C 
ATOM     42  N   PRO F   6      41.431 -26.025  37.625  1.00 45.40 LIG-0.34  N 
ATOM     43  CA  PRO F   6      42.303 -25.155  38.427  1.00 45.02 LIG 0.18  C 
ATOM     44  CD  PRO F   6      41.949 -27.404  37.545  1.00 45.45 LIG 0.13  C 
ATOM     45  CB  PRO F   6      43.530 -26.027  38.700  1.00 45.11 LIG 0.04  C 
ATOM     46  CG  PRO F   6      43.031 -27.430  38.615  1.00 45.75 LIG 0.02  C 
ATOM     47 O    THR F   5      39.806 -24.461  37.506  1.00 44.21 LIG-0.27  OA
BRANCH 43 48
ATOM     48  C   PRO F   6      42.700 -23.946  37.598  1.00 45.08 LIG 0.24  C 
ATOM     49  N   CYS F   7      43.682 -24.092  36.710  1.00 44.40 LIG-0.34  N 
ATOM     50 H    CYS F   7      44.060 -24.836  36.507  1.00 44.40 LIG 0.16  HD
ATOM     51 O    PRO F   6      42.115 -22.877  37.787  1.00 44.91 LIG-0.27  OA
BRANCH 49 52
ATOM     52  CA  CYS F   7      44.183 -22.915  36.006  1.00 45.02 LIG 0.19  C 
BRANCH 52 53
ATOM     53  CB  CYS F   7      45.396 -22.327  36.744  1.00 44.51 LIG 0.11  C 
BRANCH 53 54
ATOM     54 SG   CYS F   7      45.974 -23.445  38.093  1.00 46.73 LIG-0.18  SA
ATOM     55 HG   CYS F   7      46.460 -24.432  37.615  1.00 46.73 LIG 0.10  HD
ENDBRANCH 53 54
ENDBRANCH 52 53
BRANCH 52 56
ATOM     56  C   CYS F   7      44.396 -23.142  34.496  1.00 45.05 LIG 0.20  C 
ATOM     57 OXT  CYS F   7      44.331 -22.213  33.676  1.00 44.33 LIG-0.65  OA
ATOM     58 O    CYS F   7      44.583 -24.305  34.087  1.00 44.51 LIG-0.65  OA
ENDBRANCH 52 56
ENDBRANCH 49 52
ENDBRANCH 43 48
ENDBRANCH 40 41
BRANCH 40 59
ATOM     59  CB  THR F   5      39.898 -25.992  34.727  1.00 46.83 LIG 0.15  C 
ATOM     60  CG2 THR F   5      41.396 -26.090  34.481  1.00 46.88 LIG 0.04  C 
BRANCH 59 61
ATOM     61 OG1  THR F   5      39.183 -26.799  33.781  1.00 48.31 LIG-0.39  OA
ATOM     62 HG1  THR F   5      38.390 -26.526  33.723  1.00 48.31 LIG 0.21  HD
ENDBRANCH 59 61
ENDBRANCH 40 59
ENDBRANCH 37 40
ENDBRANCH 1 36
TORSDOF 26
ENDMDL
MODEL 40
USER: ADFR SOLUTION from run 25
USER: SCORE 17.963162 LL:  -6.272 LR: -12.213 RR:   0.000 FEB:  -4.458
USER: RMSD 12.389439
USER: SEED 24
USER: STATUS no improvement in best in 6 clusters for 5 generations
USER: GENES 28
USER: genes 0 Translation |==|  0.38848 0.74307 0.70291
USER: genes 1 Rotation |==|  0.39635 0.85779 0.17141 0.55723
USER: genes 2 Torsion [C]-CA--N-[C] |==|  0.80823
USER: genes 3 Torsion [N]-C--CA-[N] |==|  0.95885
USER: genes 4 Torsion [C]-CA--CB-[SG] |==|  0.63884
USER: genes 5 Torsion [CA]-CB--SG-[HG] |==|  0.27129
USER: genes 6 Torsion [C]-CA--N-[C] |==|  0.74444
USER: genes 7 Torsion [N]-C--CA-[N] |==|  0.19102
USER: genes 8 Torsion [C]-CA--CB-[CG] |==|  0.47334
USER: genes 9 Torsion [CA]-CB--CG-[CD] |==|  0.16488
USER: genes 10 Torsion [CB]-CG--CD-[OE1] |==|  0.27258
USER: genes 11 Torsion [C]-CA--N-[C] |==|  0.75945
USER: genes 12 Torsion [N]-C--CA-[N] |==|  0.05744
USER: genes 13 Torsion [C]-CA--CB-[OG] |==|  0.72207
USER: genes 14 Torsion [CA]-CB--OG-[HG] |==|  0.07167
USER: genes 15 Torsion [C]-CA--N-[H1] |==|  0.10995
USER: genes 16 Torsion [N]-CA--CB-[OG1] |==|  0.99796
USER: genes 17 Torsion [CA]-CB--OG1-[HG1] |==|  0.04541
USER: genes 18 Torsion [N]-CA--C-[N] |==|  0.44499
USER: genes 19 Torsion [C]-N--CA-[CB] |==|  0.85534
USER: genes 20 Torsion [N]-CA--C-[N] |==|  0.41040
USER: genes 21 Torsion [N]-CA--C-[N] |==|  0.26315
USER: genes 22 Torsion [C]-N--CA-[CB] |==|  0.37010
USER: genes 23 Torsion [N]-CA--CB-[SG] |==|  0.02226
USER: genes 24 Torsion [CA]-CB--SG-[HG] |==|  0.04797
USER: genes 25 Torsion [N]-CA--C-[OXT] |==|  0.48823
USER: genes 26 Torsion [N]-CA--CB-[OG1] |==|  0.67141
USER: genes 27 Torsion [CA]-CB--OG1-[HG1] |==|  0.66356
ROOT
ATOM      1  CA  THR F   4      37.311 -23.077  39.026  1.00 50.77 LIG 0.20  C 
ENDROOT
BRANCH 1 2
ATOM      2  N   THR F   4      35.938 -23.576  39.149  1.00 51.40 LIG-0.34  N 
ATOM      3 H    THR F   4      35.630 -23.562  39.952  1.00 51.40 LIG 0.16  HD
ATOM      4  C   CYS F   3      35.240 -24.012  38.098  1.00 52.18 LIG 0.24  C 
ATOM      5 O    CYS F   3      35.642 -23.920  36.935  1.00 51.89 LIG-0.27  OA
BRANCH 4 6
ATOM      6  CA  CYS F   3      33.854 -24.600  38.386  1.00 52.92 LIG 0.18  C 
BRANCH 6 7
ATOM      7  CB  CYS F   3      32.740 -23.656  37.910  1.00 52.86 LIG 0.10  C 
BRANCH 7 8
ATOM      8 SG   CYS F   3      31.453 -23.320  39.163  1.00 55.16 LIG-0.18  SA
ATOM      9 HG   CYS F   3      31.687 -22.277  39.707  1.00 55.16 LIG 0.10  HD
ENDBRANCH 7 8
ENDBRANCH 6 7
BRANCH 6 10
ATOM     10  N   CYS F   3      33.733 -24.877  39.820  1.00 53.02 LIG-0.34  N 
ATOM     11 H    CYS F   3      33.447 -24.212  40.283  1.00 53.02 LIG 0.16  HD
ATOM     12  C   GLU F   2      34.042 -26.060  40.348  1.00 53.57 LIG 0.24  C 
ATOM     13 O    GLU F   2      34.297 -27.059  39.669  1.00 53.07 LIG-0.27  OA
BRANCH 12 14
ATOM     14  CA  GLU F   2      34.115 -26.121  41.876  1.00 54.00 LIG 0.18  C 
BRANCH 14 15
ATOM     15  CB  GLU F   2      34.774 -27.463  42.230  1.00 54.10 LIG 0.04  C 
BRANCH 15 16
ATOM     16  CG  GLU F   2      35.169 -27.676  43.685  1.00 55.55 LIG 0.12  C 
BRANCH 16 17
ATOM     17  CD  GLU F   2      33.973 -27.581  44.639  1.00 57.36 LIG 0.17  C 
ATOM     18 OE1  GLU F   2      33.404 -28.624  45.041  1.00 58.39 LIG-0.65  OA
ATOM     19 OE2  GLU F   2      33.596 -26.449  45.010  1.00 58.95 LIG-0.65  OA
ENDBRANCH 16 17
ENDBRANCH 15 16
ENDBRANCH 14 15
BRANCH 14 20
ATOM     20  N   GLU F   2      32.809 -25.970  42.535  1.00 53.99 LIG-0.35  N 
ATOM     21 H    GLU F   2      32.426 -26.721  42.702  1.00 53.99 LIG 0.16  HD
ATOM     22  C   SER F   1      32.256 -24.795  42.852  1.00 54.35 LIG 0.25  C 
ATOM     23 O    SER F   1      32.732 -23.699  42.529  1.00 54.45 LIG-0.27  OA
BRANCH 22 24
ATOM     24  CA  SER F   1      30.941 -24.865  43.638  1.00 54.58 LIG 0.30  C 
BRANCH 24 25
ATOM     25  CB  SER F   1      30.860 -23.714  44.648  1.00 54.63 LIG 0.21  C 
BRANCH 25 26
ATOM     26 OG   SER F   1      31.203 -24.156  45.953  1.00 54.91 LIG-0.40  OA
ATOM     27 HG   SER F   1      31.708 -24.826  45.899  1.00 54.91 LIG 0.21  HD
ENDBRANCH 25 26
ENDBRANCH 24 25
BRANCH 24 28
ATOM     28  N   SER F   1      30.769 -26.181  44.327  1.00 54.74 LIG-0.06  N 
ATOM     29 H1   SER F   1      31.551 -26.447  44.658  1.00 54.74 LIG 0.28  HD
ATOM     30 H2   SER F   1      30.180 -26.096  44.989  1.00 54.74 LIG 0.28  HD
ATOM     31 H3   SER F   1      30.474 -26.785  43.744  1.00 54.74 LIG 0.28  HD
ENDBRANCH 24 28
ENDBRANCH 22 24
ENDBRANCH 14 20
ENDBRANCH 12 14
ENDBRANCH 6 10
ENDBRANCH 4 6
ENDBRANCH 1 2
BRANCH 1 32
ATOM     32  CB  THR F   4      37.852 -22.447  40.321  1.00 51.21 LIG 0.15  C 
ATOM     33  CG2 THR F   4      38.286 -21.005  40.058  1.00 50.61 LIG 0.04  C 
BRANCH 32 34
ATOM     34 OG1  THR F   4      36.850 -22.491  41.343  1.00 51.15 LIG-0.39  OA
ATOM     35 HG1  THR F   4      36.251 -23.039  41.125  1.00 51.15 LIG 0.21  HD
ENDBRANCH 32 34
ENDBRANCH 1 32
BRANCH 1 36
ATOM     36  C   THR F   4      38.189 -24.268  38.681  1.00 49.53 LIG 0.24  C 
ATOM     37  N   THR F   5      39.368 -23.994  38.135  1.00 47.76 LIG-0.34  N 
ATOM     38 H    THR F   5      39.688 -23.197  38.092  1.00 47.76 LIG 0.16  HD
ATOM     39 O    THR F   4      37.781 -25.406  38.889  1.00 50.01 LIG-0.27  OA
BRANCH 37 40
ATOM     40  CA  THR F   5      40.243 -25.005  37.551  1.00 46.83 LIG 0.20  C 
BRANCH 40 41
ATOM     41  C   THR F   5      39.575 -25.572  36.299  1.00 45.74 LIG 0.24  C 
ATOM     42  N   PRO F   6      40.379 -25.962  35.298  1.00 45.40 LIG-0.34  N 
ATOM     43  CA  PRO F   6      39.815 -26.697  34.158  1.00 45.02 LIG 0.18  C 
ATOM     44  CD  PRO F   6      41.811 -25.660  35.108  1.00 45.45 LIG 0.13  C 
ATOM     45  CB  PRO F   6      41.037 -27.020  33.296  1.00 45.11 LIG 0.04  C 
ATOM     46  CG  PRO F   6      42.035 -25.964  33.633  1.00 45.75 LIG 0.02  C 
ATOM     47 O    THR F   5      38.347 -25.639  36.229  1.00 44.21 LIG-0.27  OA
BRANCH 43 48
ATOM     48  C   PRO F   6      39.178 -27.982  34.658  1.00 45.08 LIG 0.24  C 
ATOM     49  N   CYS F   7      37.871 -27.972  34.915  1.00 44.40 LIG-0.34  N 
ATOM     50 H    CYS F   7      37.337 -27.320  34.748  1.00 44.40 LIG 0.16  HD
ATOM     51 O    PRO F   6      39.889 -28.975  34.821  1.00 44.91 LIG-0.27  OA
BRANCH 49 52
ATOM     52  CA  CYS F   7      37.261 -29.146  35.533  1.00 45.02 LIG 0.19  C 
BRANCH 52 53
ATOM     53  CB  CYS F   7      36.349 -28.725  36.697  1.00 44.51 LIG 0.11  C 
BRANCH 53 54
ATOM     54 SG   CYS F   7      36.148 -26.892  36.768  1.00 46.73 LIG-0.18  SA
ATOM     55 HG   CYS F   7      36.478 -26.412  35.719  1.00 46.73 LIG 0.10  HD
ENDBRANCH 53 54
ENDBRANCH 52 53
BRANCH 52 56
ATOM     56  C   CYS F   7      36.608 -30.108  34.521  1.00 45.05 LIG 0.20  C 
ATOM     57 OXT  CYS F   7      36.113 -31.191  34.869  1.00 44.33 LIG-0.65  OA
ATOM     58 O    CYS F   7      36.631 -29.809  33.311  1.00 44.51 LIG-0.65  OA
ENDBRANCH 52 56
ENDBRANCH 49 52
ENDBRANCH 43 48
ENDBRANCH 40 41
BRANCH 40 59
ATOM     59  CB  THR F   5      40.472 -26.149  38.553  1.00 46.83 LIG 0.15  C 
ATOM     60  CG2 THR F   5      39.972 -27.487  38.029  1.00 46.88 LIG 0.04  C 
BRANCH 59 61
ATOM     61 OG1  THR F   5      41.869 -26.228  38.871  1.00 48.31 LIG-0.39  OA
ATOM     62 HG1  THR F   5      42.159 -26.991  38.670  1.00 48.31 LIG 0.21  HD
ENDBRANCH 59 61
ENDBRANCH 40 59
ENDBRANCH 37 40
ENDBRANCH 1 36
TORSDOF 26
ENDMDL
MODEL 41
USER: ADFR SOLUTION from run 87
USER: SCORE 16.660919 LL:  -5.038 LR: -12.191 RR:   0.000 FEB:  -4.435
USER: RMSD 4.832963
USER: SEED 86
USER: STATUS no improvement in best in 8 clusters for 5 generations
USER: GENES 28
USER: genes 0 Translation |==|  0.44510 0.49573 0.52967
USER: genes 1 Rotation |==|  0.47842 0.43099 0.52325 0.99420
USER: genes 2 Torsion [C]-CA--N-[C] |==|  0.60952
USER: genes 3 Torsion [N]-C--CA-[N] |==|  0.42112
USER: genes 4 Torsion [C]-CA--CB-[SG] |==|  0.63510
USER: genes 5 Torsion [CA]-CB--SG-[HG] |==|  0.23801
USER: genes 6 Torsion [C]-CA--N-[C] |==|  0.66967
USER: genes 7 Torsion [N]-C--CA-[N] |==|  0.94109
USER: genes 8 Torsion [C]-CA--CB-[CG] |==|  0.63955
USER: genes 9 Torsion [CA]-CB--CG-[CD] |==|  0.30865
USER: genes 10 Torsion [CB]-CG--CD-[OE1] |==|  0.88778
USER: genes 11 Torsion [C]-CA--N-[C] |==|  0.70312
USER: genes 12 Torsion [N]-C--CA-[N] |==|  0.03780
USER: genes 13 Torsion [C]-CA--CB-[OG] |==|  0.60108
USER: genes 14 Torsion [CA]-CB--OG-[HG] |==|  0.73483
USER: genes 15 Torsion [C]-CA--N-[H1] |==|  0.60607
USER: genes 16 Torsion [N]-CA--CB-[OG1] |==|  0.22204
USER: genes 17 Torsion [CA]-CB--OG1-[HG1] |==|  0.16559
USER: genes 18 Torsion [N]-CA--C-[N] |==|  0.46660
USER: genes 19 Torsion [C]-N--CA-[CB] |==|  0.86225
USER: genes 20 Torsion [N]-CA--C-[N] |==|  0.37408
USER: genes 21 Torsion [N]-CA--C-[N] |==|  0.38416
USER: genes 22 Torsion [C]-N--CA-[CB] |==|  0.16912
USER: genes 23 Torsion [N]-CA--CB-[SG] |==|  0.11185
USER: genes 24 Torsion [CA]-CB--SG-[HG] |==|  0.35694
USER: genes 25 Torsion [N]-CA--C-[OXT] |==|  0.92875
USER: genes 26 Torsion [N]-CA--CB-[OG1] |==|  0.89842
USER: genes 27 Torsion [CA]-CB--OG1-[HG1] |==|  0.42811
ROOT
ATOM      1  CA  THR F   4      38.797 -27.158  34.868  1.00 50.77 LIG 0.20  C 
ENDROOT
BRANCH 1 2
ATOM      2  N   THR F   4      40.232 -26.966  35.094  1.00 51.40 LIG-0.34  N 
ATOM      3 H    THR F   4      40.515 -27.284  35.841  1.00 51.40 LIG 0.16  HD
ATOM      4  C   CYS F   3      41.018 -26.348  34.208  1.00 52.18 LIG 0.24  C 
ATOM      5 O    CYS F   3      40.631 -26.000  33.089  1.00 51.89 LIG-0.27  OA
BRANCH 4 6
ATOM      6  CA  CYS F   3      42.478 -26.126  34.618  1.00 52.92 LIG 0.18  C 
BRANCH 6 7
ATOM      7  CB  CYS F   3      42.634 -24.836  35.436  1.00 52.86 LIG 0.10  C 
BRANCH 7 8
ATOM      8 SG   CYS F   3      43.990 -23.748  34.872  1.00 55.16 LIG-0.18  SA
ATOM      9 HG   CYS F   3      43.593 -23.037  33.990  1.00 55.16 LIG 0.10  HD
ENDBRANCH 7 8
ENDBRANCH 6 7
BRANCH 6 10
ATOM     10  N   CYS F   3      43.320 -26.096  33.419  1.00 53.02 LIG-0.34  N 
ATOM     11 H    CYS F   3      43.124 -25.465  32.869  1.00 53.02 LIG 0.16  HD
ATOM     12  C   GLU F   2      44.299 -26.974  33.210  1.00 53.57 LIG 0.24  C 
ATOM     13 O    GLU F   2      44.684 -27.776  34.068  1.00 53.07 LIG-0.27  OA
BRANCH 12 14
ATOM     14  CA  GLU F   2      44.916 -26.982  31.810  1.00 54.00 LIG 0.18  C 
BRANCH 14 15
ATOM     15  CB  GLU F   2      46.252 -26.231  31.915  1.00 54.10 LIG 0.04  C 
BRANCH 15 16
ATOM     16  CG  GLU F   2      46.507 -25.128  30.898  1.00 55.55 LIG 0.12  C 
BRANCH 16 17
ATOM     17  CD  GLU F   2      46.503 -23.732  31.531  1.00 57.36 LIG 0.17  C 
ATOM     18 OE1  GLU F   2      45.658 -23.444  32.413  1.00 58.39 LIG-0.65  OA
ATOM     19 OE2  GLU F   2      47.363 -22.907  31.158  1.00 58.95 LIG-0.65  OA
ENDBRANCH 16 17
ENDBRANCH 15 16
ENDBRANCH 14 15
BRANCH 14 20
ATOM     20  N   GLU F   2      44.046 -26.395  30.779  1.00 53.99 LIG-0.35  N 
ATOM     21 H    GLU F   2      43.990 -25.538  30.832  1.00 53.99 LIG 0.16  HD
ATOM     22  C   SER F   1      43.399 -27.100  29.847  1.00 54.35 LIG 0.25  C 
ATOM     23 O    SER F   1      43.375 -28.338  29.811  1.00 54.45 LIG-0.27  OA
BRANCH 22 24
ATOM     24  CA  SER F   1      42.637 -26.282  28.797  1.00 54.58 LIG 0.30  C 
BRANCH 24 25
ATOM     25  CB  SER F   1      42.852 -26.873  27.398  1.00 54.63 LIG 0.21  C 
BRANCH 25 26
ATOM     26 OG   SER F   1      42.931 -25.847  26.419  1.00 54.91 LIG-0.40  OA
ATOM     27 HG   SER F   1      42.175 -25.735  26.068  1.00 54.91 LIG 0.21  HD
ENDBRANCH 25 26
ENDBRANCH 24 25
BRANCH 24 28
ATOM     28  N   SER F   1      43.024 -24.838  28.823  1.00 54.74 LIG-0.06  N 
ATOM     29 H1   SER F   1      42.304 -24.334  28.683  1.00 54.74 LIG 0.28  HD
ATOM     30 H2   SER F   1      43.375 -24.639  29.616  1.00 54.74 LIG 0.28  HD
ATOM     31 H3   SER F   1      43.625 -24.680  28.185  1.00 54.74 LIG 0.28  HD
ENDBRANCH 24 28
ENDBRANCH 22 24
ENDBRANCH 14 20
ENDBRANCH 12 14
ENDBRANCH 6 10
ENDBRANCH 4 6
ENDBRANCH 1 2
BRANCH 1 32
ATOM     32  CB  THR F   4      38.437 -28.573  34.382  1.00 51.21 LIG 0.15  C 
ATOM     33  CG2 THR F   4      39.452 -29.041  33.338  1.00 50.61 LIG 0.04  C 
BRANCH 32 34
ATOM     34 OG1  THR F   4      38.405 -29.479  35.491  1.00 51.15 LIG-0.39  OA
ATOM     35 HG1  THR F   4      37.833 -29.220  36.048  1.00 51.15 LIG 0.21  HD
ENDBRANCH 32 34
ENDBRANCH 1 32
BRANCH 1 36
ATOM     36  C   THR F   4      38.101 -26.930  36.199  1.00 49.53 LIG 0.24  C 
ATOM     37  N   THR F   5      36.779 -26.814  36.161  1.00 47.76 LIG-0.34  N 
ATOM     38 H    THR F   5      36.315 -26.986  35.458  1.00 47.76 LIG 0.16  HD
ATOM     39 O    THR F   4      38.766 -26.836  37.226  1.00 50.01 LIG-0.27  OA
BRANCH 37 40
ATOM     40  CA  THR F   5      35.972 -26.385  37.300  1.00 46.83 LIG 0.20  C 
BRANCH 40 41
ATOM     41  C   THR F   5      36.241 -24.903  37.564  1.00 45.74 LIG 0.24  C 
ATOM     42  N   PRO F   6      35.177 -24.117  37.785  1.00 45.40 LIG-0.34  N 
ATOM     43  CA  PRO F   6      35.378 -22.736  38.242  1.00 45.02 LIG 0.18  C 
ATOM     44  CD  PRO F   6      33.754 -24.413  37.527  1.00 45.45 LIG 0.13  C 
ATOM     45  CB  PRO F   6      33.955 -22.213  38.448  1.00 45.11 LIG 0.04  C 
ATOM     46  CG  PRO F   6      33.107 -23.036  37.537  1.00 45.75 LIG 0.02  C 
ATOM     47 O    THR F   5      37.395 -24.472  37.550  1.00 44.21 LIG-0.27  OA
BRANCH 43 48
ATOM     48  C   PRO F   6      36.122 -22.750  39.566  1.00 45.08 LIG 0.24  C 
ATOM     49  N   CYS F   7      37.088 -21.851  39.749  1.00 44.40 LIG-0.34  N 
ATOM     50 H    CYS F   7      37.275 -21.207  39.212  1.00 44.40 LIG 0.16  HD
ATOM     51 O    PRO F   6      35.820 -23.596  40.410  1.00 44.91 LIG-0.27  OA
BRANCH 49 52
ATOM     52  CA  CYS F   7      37.916 -21.934  40.949  1.00 45.02 LIG 0.19  C 
BRANCH 52 53
ATOM     53  CB  CYS F   7      38.668 -23.274  40.987  1.00 44.51 LIG 0.11  C 
BRANCH 53 54
ATOM     54 SG   CYS F   7      39.291 -23.747  39.316  1.00 46.73 LIG-0.18  SA
ATOM     55 HG   CYS F   7      40.460 -24.009  39.383  1.00 46.73 LIG 0.10  HD
ENDBRANCH 53 54
ENDBRANCH 52 53
BRANCH 52 56
ATOM     56  C   CYS F   7      38.801 -20.693  41.177  1.00 45.05 LIG 0.20  C 
ATOM     57 OXT  CYS F   7      39.163 -19.963  40.241  1.00 44.33 LIG-0.65  OA
ATOM     58 O    CYS F   7      39.208 -20.452  42.330  1.00 44.51 LIG-0.65  OA
ENDBRANCH 52 56
ENDBRANCH 49 52
ENDBRANCH 43 48
ENDBRANCH 40 41
BRANCH 40 59
ATOM     59  CB  THR F   5      36.354 -27.191  38.553  1.00 46.83 LIG 0.15  C 
ATOM     60  CG2 THR F   5      35.262 -27.167  39.612  1.00 46.88 LIG 0.04  C 
BRANCH 59 61
ATOM     61 OG1  THR F   5      36.654 -28.541  38.175  1.00 48.31 LIG-0.39  OA
ATOM     62 HG1  THR F   5      37.180 -28.879  38.737  1.00 48.31 LIG 0.21  HD
ENDBRANCH 59 61
ENDBRANCH 40 59
ENDBRANCH 37 40
ENDBRANCH 1 36
TORSDOF 26
ENDMDL
MODEL 42
USER: ADFR SOLUTION from run 52
USER: SCORE 16.034885 LL:  -4.925 LR: -12.134 RR:   0.000 FEB:  -4.378
USER: RMSD 6.737891
USER: SEED 51
USER: STATUS no improvement in best in 9 clusters for 5 generations
USER: GENES 28
USER: genes 0 Translation |==|  0.49681 0.50249 0.51658
USER: genes 1 Rotation |==|  0.63018 0.37848 0.03288 0.50916
USER: genes 2 Torsion [C]-CA--N-[C] |==|  0.67635
USER: genes 3 Torsion [N]-C--CA-[N] |==|  0.51999
USER: genes 4 Torsion [C]-CA--CB-[SG] |==|  0.93348
USER: genes 5 Torsion [CA]-CB--SG-[HG] |==|  0.23490
USER: genes 6 Torsion [C]-CA--N-[C] |==|  0.76879
USER: genes 7 Torsion [N]-C--CA-[N] |==|  0.94278
USER: genes 8 Torsion [C]-CA--CB-[CG] |==|  0.86334
USER: genes 9 Torsion [CA]-CB--CG-[CD] |==|  0.79405
USER: genes 10 Torsion [CB]-CG--CD-[OE1] |==|  0.97252
USER: genes 11 Torsion [C]-CA--N-[C] |==|  0.81568
USER: genes 12 Torsion [N]-C--CA-[N] |==|  0.57795
USER: genes 13 Torsion [C]-CA--CB-[OG] |==|  0.70327
USER: genes 14 Torsion [CA]-CB--OG-[HG] |==|  0.48564
USER: genes 15 Torsion [C]-CA--N-[H1] |==|  0.52779
USER: genes 16 Torsion [N]-CA--CB-[OG1] |==|  0.87574
USER: genes 17 Torsion [CA]-CB--OG1-[HG1] |==|  0.41526
USER: genes 18 Torsion [N]-CA--C-[N] |==|  0.23539
USER: genes 19 Torsion [C]-N--CA-[CB] |==|  0.85298
USER: genes 20 Torsion [N]-CA--C-[N] |==|  0.33598
USER: genes 21 Torsion [N]-CA--C-[N] |==|  0.53059
USER: genes 22 Torsion [C]-N--CA-[CB] |==|  0.26064
USER: genes 23 Torsion [N]-CA--CB-[SG] |==|  0.74893
USER: genes 24 Torsion [CA]-CB--SG-[HG] |==|  0.68858
USER: genes 25 Torsion [N]-CA--C-[OXT] |==|  0.25119
USER: genes 26 Torsion [N]-CA--CB-[OG1] |==|  0.86470
USER: genes 27 Torsion [CA]-CB--OG1-[HG1] |==|  0.19999
ROOT
ATOM      1  CA  THR F   4      40.154 -27.047  34.554  1.00 50.77 LIG 0.20  C 
ENDROOT
BRANCH 1 2
ATOM      2  N   THR F   4      38.975 -27.403  33.759  1.00 51.40 LIG-0.34  N 
ATOM      3 H    THR F   4      38.480 -26.732  33.547  1.00 51.40 LIG 0.16  HD
ATOM      4  C   CYS F   3      38.706 -28.662  33.405  1.00 52.18 LIG 0.24  C 
ATOM      5 O    CYS F   3      39.479 -29.601  33.611  1.00 51.89 LIG-0.27  OA
BRANCH 4 6
ATOM      6  CA  CYS F   3      37.387 -28.903  32.663  1.00 52.92 LIG 0.18  C 
BRANCH 6 7
ATOM      7  CB  CYS F   3      36.209 -28.247  33.397  1.00 52.86 LIG 0.10  C 
BRANCH 7 8
ATOM      8 SG   CYS F   3      36.488 -27.985  35.184  1.00 55.16 LIG-0.18  SA
ATOM      9 HG   CYS F   3      37.078 -26.953  35.350  1.00 55.16 LIG 0.10  HD
ENDBRANCH 7 8
ENDBRANCH 6 7
BRANCH 6 10
ATOM     10  N   CYS F   3      37.174 -30.344  32.506  1.00 53.02 LIG-0.34  N 
ATOM     11 H    CYS F   3      36.664 -30.690  33.105  1.00 53.02 LIG 0.16  HD
ATOM     12  C   GLU F   2      37.728 -31.046  31.519  1.00 53.57 LIG 0.24  C 
ATOM     13 O    GLU F   2      38.326 -30.526  30.571  1.00 53.07 LIG-0.27  OA
BRANCH 12 14
ATOM     14  CA  GLU F   2      37.630 -32.569  31.632  1.00 54.00 LIG 0.18  C 
BRANCH 14 15
ATOM     15  CB  GLU F   2      36.518 -33.010  30.668  1.00 54.10 LIG 0.04  C 
BRANCH 15 16
ATOM     16  CG  GLU F   2      35.194 -32.263  30.752  1.00 55.55 LIG 0.12  C 
BRANCH 16 17
ATOM     17  CD  GLU F   2      34.379 -32.648  31.992  1.00 57.36 LIG 0.17  C 
ATOM     18 OE1  GLU F   2      34.732 -33.622  32.699  1.00 58.39 LIG-0.65  OA
ATOM     19 OE2  GLU F   2      33.376 -31.963  32.281  1.00 58.95 LIG-0.65  OA
ENDBRANCH 16 17
ENDBRANCH 15 16
ENDBRANCH 14 15
BRANCH 14 20
ATOM     20  N   GLU F   2      37.378 -33.044  33.001  1.00 53.99 LIG-0.35  N 
ATOM     21 H    GLU F   2      36.608 -33.415  33.094  1.00 53.99 LIG 0.16  HD
ATOM     22  C   SER F   1      38.242 -32.921  34.013  1.00 54.35 LIG 0.25  C 
ATOM     23 O    SER F   1      39.309 -32.298  33.938  1.00 54.45 LIG-0.27  OA
BRANCH 22 24
ATOM     24  CA  SER F   1      37.828 -33.586  35.332  1.00 54.58 LIG 0.30  C 
BRANCH 24 25
ATOM     25  CB  SER F   1      36.300 -33.640  35.448  1.00 54.63 LIG 0.21  C 
BRANCH 25 26
ATOM     26 OG   SER F   1      35.828 -32.698  36.401  1.00 54.91 LIG-0.40  OA
ATOM     27 HG   SER F   1      34.988 -32.693  36.398  1.00 54.91 LIG 0.21  HD
ENDBRANCH 25 26
ENDBRANCH 24 25
BRANCH 24 28
ATOM     28  N   SER F   1      38.421 -32.895  36.518  1.00 54.74 LIG-0.06  N 
ATOM     29 H1   SER F   1      38.283 -33.386  37.248  1.00 54.74 LIG 0.28  HD
ATOM     30 H2   SER F   1      39.296 -32.789  36.393  1.00 54.74 LIG 0.28  HD
ATOM     31 H3   SER F   1      38.038 -32.099  36.620  1.00 54.74 LIG 0.28  HD
ENDBRANCH 24 28
ENDBRANCH 22 24
ENDBRANCH 14 20
ENDBRANCH 12 14
ENDBRANCH 6 10
ENDBRANCH 4 6
ENDBRANCH 1 2
BRANCH 1 32
ATOM     32  CB  THR F   4      41.046 -25.986  33.886  1.00 51.21 LIG 0.15  C 
ATOM     33  CG2 THR F   4      42.397 -25.914  34.599  1.00 50.61 LIG 0.04  C 
BRANCH 32 34
ATOM     34 OG1  THR F   4      41.227 -26.301  32.501  1.00 51.15 LIG-0.39  OA
ATOM     35 HG1  THR F   4      41.326 -25.591  32.062  1.00 51.15 LIG 0.21  HD
ENDBRANCH 32 34
ENDBRANCH 1 32
BRANCH 1 36
ATOM     36  C   THR F   4      39.651 -26.475  35.869  1.00 49.53 LIG 0.24  C 
ATOM     37  N   THR F   5      39.360 -27.353  36.821  1.00 47.76 LIG-0.34  N 
ATOM     38 H    THR F   5      39.561 -28.187  36.765  1.00 47.76 LIG 0.16  HD
ATOM     39 O    THR F   4      39.510 -25.263  35.991  1.00 50.01 LIG-0.27  OA
BRANCH 37 40
ATOM     40  CA  THR F   5      38.671 -27.003  38.060  1.00 46.83 LIG 0.20  C 
BRANCH 40 41
ATOM     41  C   THR F   5      37.243 -26.573  37.725  1.00 45.74 LIG 0.24  C 
ATOM     42  N   PRO F   6      36.245 -27.273  38.286  1.00 45.40 LIG-0.34  N 
ATOM     43  CA  PRO F   6      34.863 -26.789  38.166  1.00 45.02 LIG 0.18  C 
ATOM     44  CD  PRO F   6      36.315 -28.586  38.956  1.00 45.45 LIG 0.13  C 
ATOM     45  CB  PRO F   6      34.055 -27.798  38.985  1.00 45.11 LIG 0.04  C 
ATOM     46  CG  PRO F   6      34.866 -29.050  38.960  1.00 45.75 LIG 0.02  C 
ATOM     47 O    THR F   5      37.045 -25.632  36.955  1.00 44.21 LIG-0.27  OA
BRANCH 43 48
ATOM     48  C   PRO F   6      34.761 -25.410  38.795  1.00 45.08 LIG 0.24  C 
ATOM     49  N   CYS F   7      33.546 -24.899  38.985  1.00 44.40 LIG-0.34  N 
ATOM     50 H    CYS F   7      32.806 -25.317  38.856  1.00 44.40 LIG 0.16  HD
ATOM     51 O    PRO F   6      35.798 -24.811  39.089  1.00 44.91 LIG-0.27  OA
BRANCH 49 52
ATOM     52  CA  CYS F   7      33.420 -23.521  39.451  1.00 45.02 LIG 0.19  C 
BRANCH 52 53
ATOM     53  CB  CYS F   7      33.258 -22.566  38.257  1.00 44.51 LIG 0.11  C 
BRANCH 53 54
ATOM     54 SG   CYS F   7      34.891 -21.954  37.654  1.00 46.73 LIG-0.18  SA
ATOM     55 HG   CYS F   7      34.987 -20.780  37.880  1.00 46.73 LIG 0.10  HD
ENDBRANCH 53 54
ENDBRANCH 52 53
BRANCH 52 56
ATOM     56  C   CYS F   7      32.373 -23.338  40.567  1.00 45.05 LIG 0.20  C 
ATOM     57 OXT  CYS F   7      32.671 -23.430  41.768  1.00 44.33 LIG-0.65  OA
ATOM     58 O    CYS F   7      31.184 -23.148  40.246  1.00 44.51 LIG-0.65  OA
ENDBRANCH 52 56
ENDBRANCH 49 52
ENDBRANCH 43 48
ENDBRANCH 40 41
BRANCH 40 59
ATOM     59  CB  THR F   5      39.392 -25.836  38.754  1.00 46.83 LIG 0.15  C 
ATOM     60  CG2 THR F   5      38.842 -25.562  40.146  1.00 46.88 LIG 0.04  C 
BRANCH 59 61
ATOM     61 OG1  THR F   5      40.797 -26.116  38.819  1.00 48.31 LIG-0.39  OA
ATOM     62 HG1  THR F   5      41.132 -26.048  38.051  1.00 48.31 LIG 0.21  HD
ENDBRANCH 59 61
ENDBRANCH 40 59
ENDBRANCH 37 40
ENDBRANCH 1 36
TORSDOF 26
ENDMDL
MODEL 43
USER: ADFR SOLUTION from run 164
USER: SCORE 17.241788 LL:  -5.551 LR: -12.101 RR:   0.000 FEB:  -4.346
USER: RMSD 11.204669
USER: SEED 163
USER: STATUS no improvement in best in 12 clusters for 5 generations
USER: GENES 28
USER: genes 0 Translation |==|  0.37761 0.73454 0.69119
USER: genes 1 Rotation |==|  0.41834 0.85838 0.16919 0.57389
USER: genes 2 Torsion [C]-CA--N-[C] |==|  0.70073
USER: genes 3 Torsion [N]-C--CA-[N] |==|  0.93473
USER: genes 4 Torsion [C]-CA--CB-[SG] |==|  0.73048
USER: genes 5 Torsion [CA]-CB--SG-[HG] |==|  0.43346
USER: genes 6 Torsion [C]-CA--N-[C] |==|  0.84356
USER: genes 7 Torsion [N]-C--CA-[N] |==|  0.96328
USER: genes 8 Torsion [C]-CA--CB-[CG] |==|  0.41146
USER: genes 9 Torsion [CA]-CB--CG-[CD] |==|  0.64140
USER: genes 10 Torsion [CB]-CG--CD-[OE1] |==|  0.08409
USER: genes 11 Torsion [C]-CA--N-[C] |==|  0.80797
USER: genes 12 Torsion [N]-C--CA-[N] |==|  0.88716
USER: genes 13 Torsion [C]-CA--CB-[OG] |==|  0.62369
USER: genes 14 Torsion [CA]-CB--OG-[HG] |==|  0.71950
USER: genes 15 Torsion [C]-CA--N-[H1] |==|  0.04840
USER: genes 16 Torsion [N]-CA--CB-[OG1] |==|  0.99887
USER: genes 17 Torsion [CA]-CB--OG1-[HG1] |==|  0.19519
USER: genes 18 Torsion [N]-CA--C-[N] |==|  0.47656
USER: genes 19 Torsion [C]-N--CA-[CB] |==|  0.86108
USER: genes 20 Torsion [N]-CA--C-[N] |==|  0.38615
USER: genes 21 Torsion [N]-CA--C-[N] |==|  0.28143
USER: genes 22 Torsion [C]-N--CA-[CB] |==|  0.36914
USER: genes 23 Torsion [N]-CA--CB-[SG] |==|  0.91685
USER: genes 24 Torsion [CA]-CB--SG-[HG] |==|  0.19686
USER: genes 25 Torsion [N]-CA--C-[OXT] |==|  0.52330
USER: genes 26 Torsion [N]-CA--CB-[OG1] |==|  0.73768
USER: genes 27 Torsion [CA]-CB--OG1-[HG1] |==|  0.18227
ROOT
ATOM      1  CA  THR F   4      37.025 -23.218  38.745  1.00 50.77 LIG 0.20  C 
ENDROOT
BRANCH 1 2
ATOM      2  N   THR F   4      35.638 -23.689  38.710  1.00 51.40 LIG-0.34  N 
ATOM      3 H    THR F   4      35.413 -24.168  39.389  1.00 51.40 LIG 0.16  HD
ATOM      4  C   CYS F   3      34.808 -23.393  37.707  1.00 52.18 LIG 0.24  C 
ATOM      5 O    CYS F   3      35.099 -22.612  36.798  1.00 51.89 LIG-0.27  OA
BRANCH 4 6
ATOM      6  CA  CYS F   3      33.417 -24.036  37.750  1.00 52.92 LIG 0.18  C 
BRANCH 6 7
ATOM      7  CB  CYS F   3      32.369 -23.055  38.292  1.00 52.86 LIG 0.10  C 
BRANCH 7 8
ATOM      8 SG   CYS F   3      32.005 -23.250  40.073  1.00 55.16 LIG-0.18  SA
ATOM      9 HG   CYS F   3      31.576 -22.217  40.510  1.00 55.16 LIG 0.10  HD
ENDBRANCH 7 8
ENDBRANCH 6 7
BRANCH 6 10
ATOM     10  N   CYS F   3      33.470 -25.254  38.564  1.00 53.02 LIG-0.34  N 
ATOM     11 H    CYS F   3      32.914 -25.262  39.219  1.00 53.02 LIG 0.16  HD
ATOM     12  C   GLU F   2      34.311 -26.253  38.302  1.00 53.57 LIG 0.24  C 
ATOM     13 O    GLU F   2      34.993 -26.313  37.274  1.00 53.07 LIG-0.27  OA
BRANCH 12 14
ATOM     14  CA  GLU F   2      34.435 -27.334  39.379  1.00 54.00 LIG 0.18  C 
BRANCH 14 15
ATOM     15  CB  GLU F   2      33.778 -28.600  38.807  1.00 54.10 LIG 0.04  C 
BRANCH 15 16
ATOM     16  CG  GLU F   2      34.357 -29.937  39.248  1.00 55.55 LIG 0.12  C 
BRANCH 16 17
ATOM     17  CD  GLU F   2      34.676 -30.858  38.065  1.00 57.36 LIG 0.17  C 
ATOM     18 OE1  GLU F   2      35.008 -30.369  36.958  1.00 58.39 LIG-0.65  OA
ATOM     19 OE2  GLU F   2      34.613 -32.093  38.238  1.00 58.95 LIG-0.65  OA
ENDBRANCH 16 17
ENDBRANCH 15 16
ENDBRANCH 14 15
BRANCH 14 20
ATOM     20  N   GLU F   2      33.841 -26.952  40.669  1.00 53.99 LIG-0.35  N 
ATOM     21 H    GLU F   2      33.132 -27.401  40.860  1.00 53.99 LIG 0.16  HD
ATOM     22  C   SER F   1      34.335 -26.010  41.477  1.00 54.35 LIG 0.25  C 
ATOM     23 O    SER F   1      35.288 -25.277  41.181  1.00 54.45 LIG-0.27  OA
BRANCH 22 24
ATOM     24  CA  SER F   1      33.627 -25.848  42.829  1.00 54.58 LIG 0.30  C 
BRANCH 24 25
ATOM     25  CB  SER F   1      34.155 -26.878  43.835  1.00 54.63 LIG 0.21  C 
BRANCH 25 26
ATOM     26 OG   SER F   1      33.089 -27.479  44.556  1.00 54.91 LIG-0.40  OA
ATOM     27 HG   SER F   1      33.030 -27.125  45.316  1.00 54.91 LIG 0.21  HD
ENDBRANCH 25 26
ENDBRANCH 24 25
BRANCH 24 28
ATOM     28  N   SER F   1      32.141 -25.955  42.699  1.00 54.74 LIG-0.06  N 
ATOM     29 H1   SER F   1      31.937 -26.338  41.922  1.00 54.74 LIG 0.28  HD
ATOM     30 H2   SER F   1      31.819 -26.449  43.366  1.00 54.74 LIG 0.28  HD
ATOM     31 H3   SER F   1      31.781 -25.142  42.732  1.00 54.74 LIG 0.28  HD
ENDBRANCH 24 28
ENDBRANCH 22 24
ENDBRANCH 14 20
ENDBRANCH 12 14
ENDBRANCH 6 10
ENDBRANCH 4 6
ENDBRANCH 1 2
BRANCH 1 32
ATOM     32  CB  THR F   4      37.438 -22.623  40.102  1.00 51.21 LIG 0.15  C 
ATOM     33  CG2 THR F   4      37.918 -21.183  39.918  1.00 50.61 LIG 0.04  C 
BRANCH 32 34
ATOM     34 OG1  THR F   4      36.333 -22.671  41.013  1.00 51.15 LIG-0.39  OA
ATOM     35 HG1  THR F   4      36.184 -23.468  41.232  1.00 51.15 LIG 0.21  HD
ENDBRANCH 32 34
ENDBRANCH 1 32
BRANCH 1 36
ATOM     36  C   THR F   4      37.912 -24.422  38.472  1.00 49.53 LIG 0.24  C 
ATOM     37  N   THR F   5      39.204 -24.173  38.288  1.00 47.76 LIG-0.34  N 
ATOM     38 H    THR F   5      39.558 -23.404  38.441  1.00 47.76 LIG 0.16  HD
ATOM     39 O    THR F   4      37.416 -25.541  38.406  1.00 50.01 LIG-0.27  OA
BRANCH 37 40
ATOM     40  CA  THR F   5      40.158 -25.169  37.811  1.00 46.83 LIG 0.20  C 
BRANCH 40 41
ATOM     41  C   THR F   5      39.852 -25.484  36.347  1.00 45.74 LIG 0.24  C 
ATOM     42  N   PRO F   6      40.898 -25.624  35.519  1.00 45.40 LIG-0.34  N 
ATOM     43  CA  PRO F   6      40.680 -26.122  34.154  1.00 45.02 LIG 0.18  C 
ATOM     44  CD  PRO F   6      42.302 -25.234  35.748  1.00 45.45 LIG 0.13  C 
ATOM     45  CB  PRO F   6      42.093 -26.210  33.573  1.00 45.11 LIG 0.04  C 
ATOM     46  CG  PRO F   6      42.889 -25.212  34.344  1.00 45.75 LIG 0.02  C 
ATOM     47 O    THR F   5      38.684 -25.580  35.966  1.00 44.21 LIG-0.27  OA
BRANCH 43 48
ATOM     48  C   PRO F   6      40.059 -27.506  34.220  1.00 45.08 LIG 0.24  C 
ATOM     49  N   CYS F   7      38.748 -27.613  34.012  1.00 44.40 LIG-0.34  N 
ATOM     50 H    CYS F   7      38.231 -26.974  33.764  1.00 44.40 LIG 0.16  HD
ATOM     51 O    PRO F   6      40.782 -28.471  34.478  1.00 44.91 LIG-0.27  OA
BRANCH 49 52
ATOM     52  CA  CYS F   7      38.101 -28.907  34.213  1.00 45.02 LIG 0.19  C 
BRANCH 52 53
ATOM     53  CB  CYS F   7      36.821 -28.740  35.048  1.00 44.51 LIG 0.11  C 
BRANCH 53 54
ATOM     54 SG   CYS F   7      36.954 -27.316  36.213  1.00 46.73 LIG-0.18  SA
ATOM     55 HG   CYS F   7      36.924 -26.288  35.595  1.00 46.73 LIG 0.10  HD
ENDBRANCH 53 54
ENDBRANCH 52 53
BRANCH 52 56
ATOM     56  C   CYS F   7      37.921 -29.717  32.914  1.00 45.05 LIG 0.20  C 
ATOM     57 OXT  CYS F   7      37.257 -30.764  32.879  1.00 44.33 LIG-0.65  OA
ATOM     58 O    CYS F   7      38.509 -29.333  31.884  1.00 44.51 LIG-0.65  OA
ENDBRANCH 52 56
ENDBRANCH 49 52
ENDBRANCH 43 48
ENDBRANCH 40 41
BRANCH 40 59
ATOM     59  CB  THR F   5      40.031 -26.462  38.634  1.00 46.83 LIG 0.15  C 
ATOM     60  CG2 THR F   5      40.215 -27.710  37.784  1.00 46.88 LIG 0.04  C 
BRANCH 59 61
ATOM     61 OG1  THR F   5      40.987 -26.440  39.703  1.00 48.31 LIG-0.39  OA
ATOM     62 HG1  THR F   5      40.794 -25.822  40.239  1.00 48.31 LIG 0.21  HD
ENDBRANCH 59 61
ENDBRANCH 40 59
ENDBRANCH 37 40
ENDBRANCH 1 36
TORSDOF 26
ENDMDL
MODEL 44
USER: ADFR SOLUTION from run 39
USER: SCORE 17.363371 LL:  -6.549 LR: -12.077 RR:   0.000 FEB:  -4.321
USER: RMSD 11.979773
USER: SEED 38
USER: STATUS no improvement in best in 18 clusters for 5 generations
USER: GENES 28
USER: genes 0 Translation |==|  0.25343 0.72737 0.71513
USER: genes 1 Rotation |==|  0.80902 0.24658 0.77536 0.62027
USER: genes 2 Torsion [C]-CA--N-[C] |==|  0.68806
USER: genes 3 Torsion [N]-C--CA-[N] |==|  0.83245
USER: genes 4 Torsion [C]-CA--CB-[SG] |==|  0.40049
USER: genes 5 Torsion [CA]-CB--SG-[HG] |==|  0.80651
USER: genes 6 Torsion [C]-CA--N-[C] |==|  0.21842
USER: genes 7 Torsion [N]-C--CA-[N] |==|  0.44338
USER: genes 8 Torsion [C]-CA--CB-[CG] |==|  0.48125
USER: genes 9 Torsion [CA]-CB--CG-[CD] |==|  0.16248
USER: genes 10 Torsion [CB]-CG--CD-[OE1] |==|  0.62636
USER: genes 11 Torsion [C]-CA--N-[C] |==|  0.66524
USER: genes 12 Torsion [N]-C--CA-[N] |==|  0.21243
USER: genes 13 Torsion [C]-CA--CB-[OG] |==|  0.59196
USER: genes 14 Torsion [CA]-CB--OG-[HG] |==|  0.39128
USER: genes 15 Torsion [C]-CA--N-[H1] |==|  0.10821
USER: genes 16 Torsion [N]-CA--CB-[OG1] |==|  0.57524
USER: genes 17 Torsion [CA]-CB--OG1-[HG1] |==|  0.44827
USER: genes 18 Torsion [N]-CA--C-[N] |==|  0.95088
USER: genes 19 Torsion [C]-N--CA-[CB] |==|  0.77222
USER: genes 20 Torsion [N]-CA--C-[N] |==|  0.24688
USER: genes 21 Torsion [N]-CA--C-[N] |==|  0.35419
USER: genes 22 Torsion [C]-N--CA-[CB] |==|  0.22614
USER: genes 23 Torsion [N]-CA--CB-[SG] |==|  0.26503
USER: genes 24 Torsion [CA]-CB--SG-[HG] |==|  0.48873
USER: genes 25 Torsion [N]-CA--C-[OXT] |==|  0.53306
USER: genes 26 Torsion [N]-CA--CB-[OG1] |==|  0.89582
USER: genes 27 Torsion [CA]-CB--OG1-[HG1] |==|  0.34916
ROOT
ATOM      1  CA  THR F   4      33.766 -23.336  39.319  1.00 50.77 LIG 0.20  C 
ENDROOT
BRANCH 1 2
ATOM      2  N   THR F   4      33.469 -23.740  40.697  1.00 51.40 LIG-0.34  N 
ATOM      3 H    THR F   4      34.166 -23.928  41.165  1.00 51.40 LIG 0.16  HD
ATOM      4  C   CYS F   3      32.222 -23.805  41.169  1.00 52.18 LIG 0.24  C 
ATOM      5 O    CYS F   3      31.237 -23.422  40.532  1.00 51.89 LIG-0.27  OA
BRANCH 4 6
ATOM      6  CA  CYS F   3      32.052 -24.340  42.595  1.00 52.92 LIG 0.18  C 
BRANCH 6 7
ATOM      7  CB  CYS F   3      32.751 -23.430  43.616  1.00 52.86 LIG 0.10  C 
BRANCH 7 8
ATOM      8 SG   CYS F   3      31.875 -23.279  45.214  1.00 55.16 LIG-0.18  SA
ATOM      9 HG   CYS F   3      30.863 -22.654  45.058  1.00 55.16 LIG 0.10  HD
ENDBRANCH 7 8
ENDBRANCH 6 7
BRANCH 6 10
ATOM     10  N   CYS F   3      32.572 -25.708  42.666  1.00 53.02 LIG-0.34  N 
ATOM     11 H    CYS F   3      31.963 -26.315  42.648  1.00 53.02 LIG 0.16  HD
ATOM     12  C   GLU F   2      33.873 -25.975  42.752  1.00 53.57 LIG 0.24  C 
ATOM     13 O    GLU F   2      34.751 -25.117  42.616  1.00 53.07 LIG-0.27  OA
BRANCH 12 14
ATOM     14  CA  GLU F   2      34.248 -27.423  43.079  1.00 54.00 LIG 0.18  C 
BRANCH 14 15
ATOM     15  CB  GLU F   2      34.008 -27.609  44.584  1.00 54.10 LIG 0.04  C 
BRANCH 15 16
ATOM     16  CG  GLU F   2      34.156 -29.019  45.139  1.00 55.55 LIG 0.12  C 
BRANCH 16 17
ATOM     17  CD  GLU F   2      35.551 -29.605  44.888  1.00 57.36 LIG 0.17  C 
ATOM     18 OE1  GLU F   2      35.673 -30.778  44.462  1.00 58.39 LIG-0.65  OA
ATOM     19 OE2  GLU F   2      36.547 -28.883  45.103  1.00 58.95 LIG-0.65  OA
ENDBRANCH 16 17
ENDBRANCH 15 16
ENDBRANCH 14 15
BRANCH 14 20
ATOM     20  N   GLU F   2      35.626 -27.775  42.703  1.00 53.99 LIG-0.35  N 
ATOM     21 H    GLU F   2      36.217 -27.288  43.094  1.00 53.99 LIG 0.16  HD
ATOM     22  C   SER F   1      35.949 -28.747  41.846  1.00 54.35 LIG 0.25  C 
ATOM     23 O    SER F   1      35.121 -29.391  41.188  1.00 54.45 LIG-0.27  OA
BRANCH 22 24
ATOM     24  CA  SER F   1      37.449 -29.025  41.682  1.00 54.58 LIG 0.30  C 
BRANCH 24 25
ATOM     25  CB  SER F   1      37.716 -29.763  40.365  1.00 54.63 LIG 0.21  C 
BRANCH 25 26
ATOM     26 OG   SER F   1      38.811 -30.658  40.496  1.00 54.91 LIG-0.40  OA
ATOM     27 HG   SER F   1      38.647 -31.366  40.075  1.00 54.91 LIG 0.21  HD
ENDBRANCH 25 26
ENDBRANCH 24 25
BRANCH 24 28
ATOM     28  N   SER F   1      38.005 -29.794  42.838  1.00 54.74 LIG-0.06  N 
ATOM     29 H1   SER F   1      37.414 -30.408  43.098  1.00 54.74 LIG 0.28  HD
ATOM     30 H2   SER F   1      38.760 -30.196  42.592  1.00 54.74 LIG 0.28  HD
ATOM     31 H3   SER F   1      38.171 -29.238  43.513  1.00 54.74 LIG 0.28  HD
ENDBRANCH 24 28
ENDBRANCH 22 24
ENDBRANCH 14 20
ENDBRANCH 12 14
ENDBRANCH 6 10
ENDBRANCH 4 6
ENDBRANCH 1 2
BRANCH 1 32
ATOM     32  CB  THR F   4      34.819 -22.219  39.221  1.00 51.21 LIG 0.15  C 
ATOM     33  CG2 THR F   4      36.224 -22.821  39.243  1.00 50.61 LIG 0.04  C 
BRANCH 32 34
ATOM     34 OG1  THR F   4      34.617 -21.461  38.023  1.00 51.15 LIG-0.39  OA
ATOM     35 HG1  THR F   4      35.008 -20.720  38.090  1.00 51.15 LIG 0.21  HD
ENDBRANCH 32 34
ENDBRANCH 1 32
BRANCH 1 36
ATOM     36  C   THR F   4      34.313 -24.560  38.604  1.00 49.53 LIG 0.24  C 
ATOM     37  N   THR F   5      34.747 -25.550  39.375  1.00 47.76 LIG-0.34  N 
ATOM     38 H    THR F   5      34.614 -25.573  40.225  1.00 47.76 LIG 0.16  HD
ATOM     39 O    THR F   4      34.359 -24.579  37.378  1.00 50.01 LIG-0.27  OA
BRANCH 37 40
ATOM     40  CA  THR F   5      35.492 -26.700  38.872  1.00 46.83 LIG 0.20  C 
BRANCH 40 41
ATOM     41  C   THR F   5      36.434 -26.231  37.764  1.00 45.74 LIG 0.24  C 
ATOM     42  N   PRO F   6      37.657 -25.822  38.132  1.00 45.40 LIG-0.34  N 
ATOM     43  CA  PRO F   6      38.671 -25.552  37.103  1.00 45.02 LIG 0.18  C 
ATOM     44  CD  PRO F   6      38.138 -25.484  39.485  1.00 45.45 LIG 0.13  C 
ATOM     45  CB  PRO F   6      39.920 -25.195  37.913  1.00 45.11 LIG 0.04  C 
ATOM     46  CG  PRO F   6      39.401 -24.679  39.213  1.00 45.75 LIG 0.02  C 
ATOM     47 O    THR F   5      36.053 -26.220  36.592  1.00 44.21 LIG-0.27  OA
BRANCH 43 48
ATOM     48  C   PRO F   6      38.918 -26.817  36.300  1.00 45.08 LIG 0.24  C 
ATOM     49  N   CYS F   7      38.831 -26.742  34.973  1.00 44.40 LIG-0.34  N 
ATOM     50 H    CYS F   7      38.724 -26.018  34.523  1.00 44.40 LIG 0.16  HD
ATOM     51 O    PRO F   6      39.173 -27.863  36.901  1.00 44.91 LIG-0.27  OA
BRANCH 49 52
ATOM     52  CA  CYS F   7      38.918 -27.968  34.186  1.00 45.02 LIG 0.19  C 
BRANCH 52 53
ATOM     53  CB  CYS F   7      37.560 -28.687  34.163  1.00 44.51 LIG 0.11  C 
BRANCH 53 54
ATOM     54 SG   CYS F   7      36.588 -28.249  32.656  1.00 46.73 LIG-0.18  SA
ATOM     55 HG   CYS F   7      35.573 -28.888  32.635  1.00 46.73 LIG 0.10  HD
ENDBRANCH 53 54
ENDBRANCH 52 53
BRANCH 52 56
ATOM     56  C   CYS F   7      39.563 -27.768  32.800  1.00 45.05 LIG 0.20  C 
ATOM     57 OXT  CYS F   7      39.521 -28.646  31.923  1.00 44.33 LIG-0.65  OA
ATOM     58 O    CYS F   7      40.192 -26.715  32.580  1.00 44.51 LIG-0.65  OA
ENDBRANCH 52 56
ENDBRANCH 49 52
ENDBRANCH 43 48
ENDBRANCH 40 41
BRANCH 40 59
ATOM     59  CB  THR F   5      34.524 -27.745  38.292  1.00 46.83 LIG 0.15  C 
ATOM     60  CG2 THR F   5      35.153 -29.126  38.194  1.00 46.88 LIG 0.04  C 
BRANCH 59 61
ATOM     61 OG1  THR F   5      33.338 -27.793  39.098  1.00 48.31 LIG-0.39  OA
ATOM     62 HG1  THR F   5      32.664 -27.676  38.612  1.00 48.31 LIG 0.21  HD
ENDBRANCH 59 61
ENDBRANCH 40 59
ENDBRANCH 37 40
ENDBRANCH 1 36
TORSDOF 26
ENDMDL
MODEL 45
USER: ADFR SOLUTION from run 50
USER: SCORE 16.532678 LL:  -5.624 LR: -12.049 RR:   0.000 FEB:  -4.293
USER: RMSD 4.968918
USER: SEED 49
USER: STATUS no improvement in best in 5 clusters for 5 generations
USER: GENES 28
USER: genes 0 Translation |==|  0.51867 0.62530 0.56241
USER: genes 1 Rotation |==|  0.58919 0.41673 0.58554 0.97728
USER: genes 2 Torsion [C]-CA--N-[C] |==|  0.79273
USER: genes 3 Torsion [N]-C--CA-[N] |==|  0.10898
USER: genes 4 Torsion [C]-CA--CB-[SG] |==|  0.16169
USER: genes 5 Torsion [CA]-CB--SG-[HG] |==|  0.43457
USER: genes 6 Torsion [C]-CA--N-[C] |==|  0.16963
USER: genes 7 Torsion [N]-C--CA-[N] |==|  0.89542
USER: genes 8 Torsion [C]-CA--CB-[CG] |==|  0.50451
USER: genes 9 Torsion [CA]-CB--CG-[CD] |==|  0.97387
USER: genes 10 Torsion [CB]-CG--CD-[OE1] |==|  0.32538
USER: genes 11 Torsion [C]-CA--N-[C] |==|  0.80326
USER: genes 12 Torsion [N]-C--CA-[N] |==|  0.09251
USER: genes 13 Torsion [C]-CA--CB-[OG] |==|  0.62320
USER: genes 14 Torsion [CA]-CB--OG-[HG] |==|  0.61977
USER: genes 15 Torsion [C]-CA--N-[H1] |==|  0.45100
USER: genes 16 Torsion [N]-CA--CB-[OG1] |==|  0.81435
USER: genes 17 Torsion [CA]-CB--OG1-[HG1] |==|  0.96738
USER: genes 18 Torsion [N]-CA--C-[N] |==|  0.39465
USER: genes 19 Torsion [C]-N--CA-[CB] |==|  0.23808
USER: genes 20 Torsion [N]-CA--C-[N] |==|  0.41523
USER: genes 21 Torsion [N]-CA--C-[N] |==|  0.91536
USER: genes 22 Torsion [C]-N--CA-[CB] |==|  0.86051
USER: genes 23 Torsion [N]-CA--CB-[SG] |==|  0.84797
USER: genes 24 Torsion [CA]-CB--SG-[HG] |==|  0.16927
USER: genes 25 Torsion [N]-CA--C-[OXT] |==|  0.69856
USER: genes 26 Torsion [N]-CA--CB-[OG1] |==|  0.88033
USER: genes 27 Torsion [CA]-CB--OG1-[HG1] |==|  0.16561
ROOT
ATOM      1  CA  THR F   4      40.728 -25.021  35.654  1.00 50.77 LIG 0.20  C 
ENDROOT
BRANCH 1 2
ATOM      2  N   THR F   4      42.039 -24.518  36.073  1.00 51.40 LIG-0.34  N 
ATOM      3 H    THR F   4      42.697 -25.027  35.853  1.00 51.40 LIG 0.16  HD
ATOM      4  C   CYS F   3      42.184 -23.370  36.740  1.00 52.18 LIG 0.24  C 
ATOM      5 O    CYS F   3      41.253 -22.588  36.949  1.00 51.89 LIG-0.27  OA
BRANCH 4 6
ATOM      6  CA  CYS F   3      43.601 -23.016  37.205  1.00 52.92 LIG 0.18  C 
BRANCH 6 7
ATOM      7  CB  CYS F   3      43.716 -21.525  37.551  1.00 52.86 LIG 0.10  C 
BRANCH 7 8
ATOM      8 SG   CYS F   3      42.559 -20.962  38.849  1.00 55.16 LIG-0.18  SA
ATOM      9 HG   CYS F   3      42.995 -19.975  39.373  1.00 55.16 LIG 0.10  HD
ENDBRANCH 7 8
ENDBRANCH 6 7
BRANCH 6 10
ATOM     10  N   CYS F   3      44.562 -23.392  36.163  1.00 53.02 LIG-0.34  N 
ATOM     11 H    CYS F   3      45.139 -23.978  36.414  1.00 53.02 LIG 0.16  HD
ATOM     12  C   GLU F   2      44.533 -22.865  34.941  1.00 53.57 LIG 0.24  C 
ATOM     13 O    GLU F   2      43.613 -22.149  34.533  1.00 53.07 LIG-0.27  OA
BRANCH 12 14
ATOM     14  CA  GLU F   2      45.744 -23.154  34.050  1.00 54.00 LIG 0.18  C 
BRANCH 14 15
ATOM     15  CB  GLU F   2      45.476 -24.506  33.371  1.00 54.10 LIG 0.04  C 
BRANCH 15 16
ATOM     16  CG  GLU F   2      46.563 -25.043  32.450  1.00 55.55 LIG 0.12  C 
BRANCH 16 17
ATOM     17  CD  GLU F   2      47.666 -24.013  32.178  1.00 57.36 LIG 0.17  C 
ATOM     18 OE1  GLU F   2      48.843 -24.240  32.546  1.00 58.39 LIG-0.65  OA
ATOM     19 OE2  GLU F   2      47.363 -22.963  31.574  1.00 58.95 LIG-0.65  OA
ENDBRANCH 16 17
ENDBRANCH 15 16
ENDBRANCH 14 15
BRANCH 14 20
ATOM     20  N   GLU F   2      47.023 -23.157  34.776  1.00 53.99 LIG-0.35  N 
ATOM     21 H    GLU F   2      47.365 -23.943  34.854  1.00 53.99 LIG 0.16  HD
ATOM     22  C   SER F   1      47.611 -22.065  35.272  1.00 54.35 LIG 0.25  C 
ATOM     23 O    SER F   1      47.094 -20.940  35.270  1.00 54.45 LIG-0.27  OA
BRANCH 22 24
ATOM     24  CA  SER F   1      48.998 -22.275  35.894  1.00 54.58 LIG 0.30  C 
BRANCH 24 25
ATOM     25  CB  SER F   1      49.788 -20.961  35.898  1.00 54.63 LIG 0.21  C 
BRANCH 25 26
ATOM     26 OG   SER F   1      51.127 -21.170  35.472  1.00 54.91 LIG-0.40  OA
ATOM     27 HG   SER F   1      51.650 -20.738  35.968  1.00 54.91 LIG 0.21  HD
ENDBRANCH 25 26
ENDBRANCH 24 25
BRANCH 24 28
ATOM     28  N   SER F   1      49.768 -23.349  35.194  1.00 54.74 LIG-0.06  N 
ATOM     29 H1   SER F   1      50.632 -23.276  35.396  1.00 54.74 LIG 0.28  HD
ATOM     30 H2   SER F   1      49.470 -24.146  35.453  1.00 54.74 LIG 0.28  HD
ATOM     31 H3   SER F   1      49.662 -23.265  34.314  1.00 54.74 LIG 0.28  HD
ENDBRANCH 24 28
ENDBRANCH 22 24
ENDBRANCH 14 20
ENDBRANCH 12 14
ENDBRANCH 6 10
ENDBRANCH 4 6
ENDBRANCH 1 2
BRANCH 1 32
ATOM     32  CB  THR F   4      40.810 -26.165  34.629  1.00 51.21 LIG 0.15  C 
ATOM     33  CG2 THR F   4      39.423 -26.772  34.411  1.00 50.61 LIG 0.04  C 
BRANCH 32 34
ATOM     34 OG1  THR F   4      41.343 -25.678  33.393  1.00 51.15 LIG-0.39  OA
ATOM     35 HG1  THR F   4      41.360 -24.838  33.406  1.00 51.15 LIG 0.21  HD
ENDBRANCH 32 34
ENDBRANCH 1 32
BRANCH 1 36
ATOM     36  C   THR F   4      40.036 -25.554  36.897  1.00 49.53 LIG 0.24  C 
ATOM     37  N   THR F   5      38.729 -25.336  36.983  1.00 47.76 LIG-0.34  N 
ATOM     38 H    THR F   5      38.262 -25.032  36.328  1.00 47.76 LIG 0.16  HD
ATOM     39 O    THR F   4      40.692 -26.124  37.762  1.00 50.01 LIG-0.27  OA
BRANCH 37 40
ATOM     40  CA  THR F   5      37.945 -25.586  38.189  1.00 46.83 LIG 0.20  C 
BRANCH 40 41
ATOM     41  C   THR F   5      36.491 -25.834  37.790  1.00 45.74 LIG 0.24  C 
ATOM     42  N   PRO F   6      35.772 -26.655  38.570  1.00 45.40 LIG-0.34  N 
ATOM     43  CA  PRO F   6      34.324 -26.774  38.357  1.00 45.02 LIG 0.18  C 
ATOM     44  CD  PRO F   6      36.259 -27.590  39.603  1.00 45.45 LIG 0.13  C 
ATOM     45  CB  PRO F   6      33.873 -27.722  39.471  1.00 45.11 LIG 0.04  C 
ATOM     46  CG  PRO F   6      35.081 -28.533  39.798  1.00 45.75 LIG 0.02  C 
ATOM     47 O    THR F   5      36.028 -25.304  36.778  1.00 44.21 LIG-0.27  OA
BRANCH 43 48
ATOM     48  C   PRO F   6      33.678 -25.412  38.542  1.00 45.08 LIG 0.24  C 
ATOM     49  N   CYS F   7      34.245 -24.563  39.397  1.00 44.40 LIG-0.34  N 
ATOM     50 H    CYS F   7      34.995 -24.688  39.798  1.00 44.40 LIG 0.16  HD
ATOM     51 O    PRO F   6      32.651 -25.150  37.912  1.00 44.91 LIG-0.27  OA
BRANCH 49 52
ATOM     52  CA  CYS F   7      33.566 -23.307  39.704  1.00 45.02 LIG 0.19  C 
BRANCH 52 53
ATOM     53  CB  CYS F   7      33.160 -22.588  38.408  1.00 44.51 LIG 0.11  C 
BRANCH 53 54
ATOM     54 SG   CYS F   7      34.608 -22.341  37.290  1.00 46.73 LIG-0.18  SA
ATOM     55 HG   CYS F   7      35.067 -23.407  36.988  1.00 46.73 LIG 0.10  HD
ENDBRANCH 53 54
ENDBRANCH 52 53
BRANCH 52 56
ATOM     56  C   CYS F   7      32.434 -23.453  40.740  1.00 45.05 LIG 0.20  C 
ATOM     57 OXT  CYS F   7      31.238 -23.359  40.423  1.00 44.33 LIG-0.65  OA
ATOM     58 O    CYS F   7      32.737 -23.614  41.939  1.00 44.51 LIG-0.65  OA
ENDBRANCH 52 56
ENDBRANCH 49 52
ENDBRANCH 43 48
ENDBRANCH 40 41
BRANCH 40 59
ATOM     59  CB  THR F   5      38.004 -24.364  39.121  1.00 46.83 LIG 0.15  C 
ATOM     60  CG2 THR F   5      37.503 -24.680  40.522  1.00 46.88 LIG 0.04  C 
BRANCH 59 61
ATOM     61 OG1  THR F   5      39.349 -23.870  39.171  1.00 48.31 LIG-0.39  OA
ATOM     62 HG1  THR F   5      39.597 -23.652  38.398  1.00 48.31 LIG 0.21  HD
ENDBRANCH 59 61
ENDBRANCH 40 59
ENDBRANCH 37 40
ENDBRANCH 1 36
TORSDOF 26
ENDMDL
MODEL 46
USER: ADFR SOLUTION from run 114
USER: SCORE 16.822037 LL:  -6.052 LR: -12.041 RR:   0.000 FEB:  -4.285
USER: RMSD 8.427160
USER: SEED 113
USER: STATUS no improvement in best in 2 clusters for 5 generations
USER: GENES 28
USER: genes 0 Translation |==|  0.24319 0.69236 0.67304
USER: genes 1 Rotation |==|  0.29399 0.62020 0.27907 0.87987
USER: genes 2 Torsion [C]-CA--N-[C] |==|  0.82809
USER: genes 3 Torsion [N]-C--CA-[N] |==|  0.41667
USER: genes 4 Torsion [C]-CA--CB-[SG] |==|  0.77430
USER: genes 5 Torsion [CA]-CB--SG-[HG] |==|  0.70899
USER: genes 6 Torsion [C]-CA--N-[C] |==|  0.52496
USER: genes 7 Torsion [N]-C--CA-[N] |==|  0.14410
USER: genes 8 Torsion [C]-CA--CB-[CG] |==|  0.34571
USER: genes 9 Torsion [CA]-CB--CG-[CD] |==|  0.75423
USER: genes 10 Torsion [CB]-CG--CD-[OE1] |==|  0.92791
USER: genes 11 Torsion [C]-CA--N-[C] |==|  0.14305
USER: genes 12 Torsion [N]-C--CA-[N] |==|  0.33515
USER: genes 13 Torsion [C]-CA--CB-[OG] |==|  0.31350
USER: genes 14 Torsion [CA]-CB--OG-[HG] |==|  0.11891
USER: genes 15 Torsion [C]-CA--N-[H1] |==|  0.32251
USER: genes 16 Torsion [N]-CA--CB-[OG1] |==|  0.37726
USER: genes 17 Torsion [CA]-CB--OG1-[HG1] |==|  0.25720
USER: genes 18 Torsion [N]-CA--C-[N] |==|  0.89093
USER: genes 19 Torsion [C]-N--CA-[CB] |==|  0.48373
USER: genes 20 Torsion [N]-CA--C-[N] |==|  0.48617
USER: genes 21 Torsion [N]-CA--C-[N] |==|  0.52598
USER: genes 22 Torsion [C]-N--CA-[CB] |==|  0.84255
USER: genes 23 Torsion [N]-CA--CB-[SG] |==|  0.58234
USER: genes 24 Torsion [CA]-CB--SG-[HG] |==|  0.30682
USER: genes 25 Torsion [N]-CA--C-[OXT] |==|  0.52764
USER: genes 26 Torsion [N]-CA--CB-[OG1] |==|  0.19622
USER: genes 27 Torsion [CA]-CB--OG1-[HG1] |==|  0.16008
ROOT
ATOM      1  CA  THR F   4      33.497 -23.914  38.309  1.00 50.77 LIG 0.20  C 
ENDROOT
BRANCH 1 2
ATOM      2  N   THR F   4      34.119 -25.234  38.171  1.00 51.40 LIG-0.34  N 
ATOM      3 H    THR F   4      33.709 -25.861  38.594  1.00 51.40 LIG 0.16  HD
ATOM      4  C   CYS F   3      35.226 -25.429  37.449  1.00 52.18 LIG 0.24  C 
ATOM      5 O    CYS F   3      35.741 -24.552  36.751  1.00 51.89 LIG-0.27  OA
BRANCH 4 6
ATOM      6  CA  CYS F   3      35.825 -26.840  37.475  1.00 52.92 LIG 0.18  C 
BRANCH 6 7
ATOM      7  CB  CYS F   3      36.787 -27.013  38.660  1.00 52.86 LIG 0.10  C 
BRANCH 7 8
ATOM      8 SG   CYS F   3      38.464 -26.344  38.372  1.00 55.16 LIG-0.18  SA
ATOM      9 HG   CYS F   3      39.227 -27.249  38.174  1.00 55.16 LIG 0.10  HD
ENDBRANCH 7 8
ENDBRANCH 6 7
BRANCH 6 10
ATOM     10  N   CYS F   3      36.504 -27.102  36.202  1.00 53.02 LIG-0.34  N 
ATOM     11 H    CYS F   3      36.574 -26.412  35.694  1.00 53.02 LIG 0.16  HD
ATOM     12  C   GLU F   2      36.965 -28.307  35.873  1.00 53.57 LIG 0.24  C 
ATOM     13 O    GLU F   2      37.008 -29.255  36.664  1.00 53.07 LIG-0.27  OA
BRANCH 12 14
ATOM     14  CA  GLU F   2      37.412 -28.488  34.421  1.00 54.00 LIG 0.18  C 
BRANCH 14 15
ATOM     15  CB  GLU F   2      38.009 -29.899  34.318  1.00 54.10 LIG 0.04  C 
BRANCH 15 16
ATOM     16  CG  GLU F   2      37.414 -30.827  33.267  1.00 55.55 LIG 0.12  C 
BRANCH 16 17
ATOM     17  CD  GLU F   2      36.218 -31.625  33.798  1.00 57.36 LIG 0.17  C 
ATOM     18 OE1  GLU F   2      36.118 -31.867  35.025  1.00 58.39 LIG-0.65  OA
ATOM     19 OE2  GLU F   2      35.351 -32.009  32.985  1.00 58.95 LIG-0.65  OA
ENDBRANCH 16 17
ENDBRANCH 15 16
ENDBRANCH 14 15
BRANCH 14 20
ATOM     20  N   GLU F   2      38.363 -27.463  33.964  1.00 53.99 LIG-0.35  N 
ATOM     21 H    GLU F   2      38.127 -27.088  33.227  1.00 53.99 LIG 0.16  HD
ATOM     22  C   SER F   1      39.484 -27.133  34.612  1.00 54.35 LIG 0.25  C 
ATOM     23 O    SER F   1      39.903 -27.727  35.614  1.00 54.45 LIG-0.27  OA
BRANCH 22 24
ATOM     24  CA  SER F   1      40.276 -25.958  34.024  1.00 54.58 LIG 0.30  C 
BRANCH 24 25
ATOM     25  CB  SER F   1      41.647 -26.431  33.528  1.00 54.63 LIG 0.21  C 
BRANCH 25 26
ATOM     26 OG   SER F   1      41.738 -26.338  32.114  1.00 54.91 LIG-0.40  OA
ATOM     27 HG   SER F   1      41.403 -25.611  31.858  1.00 54.91 LIG 0.21  HD
ENDBRANCH 25 26
ENDBRANCH 24 25
BRANCH 24 28
ATOM     28  N   SER F   1      40.429 -24.839  35.005  1.00 54.74 LIG-0.06  N 
ATOM     29 H1   SER F   1      41.290 -24.730  35.199  1.00 54.74 LIG 0.28  HD
ATOM     30 H2   SER F   1      40.108 -24.088  34.651  1.00 54.74 LIG 0.28  HD
ATOM     31 H3   SER F   1      39.979 -25.032  35.748  1.00 54.74 LIG 0.28  HD
ENDBRANCH 24 28
ENDBRANCH 22 24
ENDBRANCH 14 20
ENDBRANCH 12 14
ENDBRANCH 6 10
ENDBRANCH 4 6
ENDBRANCH 1 2
BRANCH 1 32
ATOM     32  CB  THR F   4      32.219 -23.926  39.167  1.00 51.21 LIG 0.15  C 
ATOM     33  CG2 THR F   4      32.118 -25.243  39.935  1.00 50.61 LIG 0.04  C 
BRANCH 32 34
ATOM     34 OG1  THR F   4      32.228 -22.817  40.073  1.00 51.15 LIG-0.39  OA
ATOM     35 HG1  THR F   4      31.831 -22.165  39.722  1.00 51.15 LIG 0.21  HD
ENDBRANCH 32 34
ENDBRANCH 1 32
BRANCH 1 36
ATOM     36  C   THR F   4      34.511 -23.011  38.991  1.00 49.53 LIG 0.24  C 
ATOM     37  N   THR F   5      35.229 -23.559  39.964  1.00 47.76 LIG-0.34  N 
ATOM     38 H    THR F   5      35.229 -24.404  40.125  1.00 47.76 LIG 0.16  HD
ATOM     39 O    THR F   4      34.609 -21.838  38.648  1.00 50.01 LIG-0.27  OA
BRANCH 37 40
ATOM     40  CA  THR F   5      36.090 -22.796  40.862  1.00 46.83 LIG 0.20  C 
BRANCH 40 41
ATOM     41  C   THR F   5      37.250 -22.213  40.056  1.00 45.74 LIG 0.24  C 
ATOM     42  N   PRO F   6      38.093 -21.392  40.700  1.00 45.40 LIG-0.34  N 
ATOM     43  CA  PRO F   6      39.333 -20.962  40.040  1.00 45.02 LIG 0.18  C 
ATOM     44  CD  PRO F   6      37.904 -20.734  42.007  1.00 45.45 LIG 0.13  C 
ATOM     45  CB  PRO F   6      40.036 -20.120  41.107  1.00 45.11 LIG 0.04  C 
ATOM     46  CG  PRO F   6      38.939 -19.618  41.985  1.00 45.75 LIG 0.02  C 
ATOM     47 O    THR F   5      37.372 -22.487  38.861  1.00 44.21 LIG-0.27  OA
BRANCH 43 48
ATOM     48  C   PRO F   6      40.172 -22.184  39.708  1.00 45.08 LIG 0.24  C 
ATOM     49  N   CYS F   7      41.417 -21.988  39.278  1.00 44.40 LIG-0.34  N 
ATOM     50 H    CYS F   7      41.818 -21.229  39.247  1.00 44.40 LIG 0.16  HD
ATOM     51 O    PRO F   6      39.669 -23.303  39.831  1.00 44.91 LIG-0.27  OA
BRANCH 49 52
ATOM     52  CA  CYS F   7      42.195 -23.133  38.813  1.00 45.02 LIG 0.19  C 
BRANCH 52 53
ATOM     53  CB  CYS F   7      42.281 -24.203  39.914  1.00 44.51 LIG 0.11  C 
BRANCH 53 54
ATOM     54 SG   CYS F   7      43.845 -25.175  39.792  1.00 46.73 LIG-0.18  SA
ATOM     55 HG   CYS F   7      44.558 -24.904  40.718  1.00 46.73 LIG 0.10  HD
ENDBRANCH 53 54
ENDBRANCH 52 53
BRANCH 52 56
ATOM     56  C   CYS F   7      41.753 -23.662  37.435  1.00 45.05 LIG 0.20  C 
ATOM     57 OXT  CYS F   7      42.181 -24.732  36.974  1.00 44.33 LIG-0.65  OA
ATOM     58 O    CYS F   7      40.987 -22.963  36.743  1.00 44.51 LIG-0.65  OA
ENDBRANCH 52 56
ENDBRANCH 49 52
ENDBRANCH 43 48
ENDBRANCH 40 41
BRANCH 40 59
ATOM     59  CB  THR F   5      36.658 -23.714  41.958  1.00 46.83 LIG 0.15  C 
ATOM     60  CG2 THR F   5      35.571 -24.499  42.677  1.00 46.88 LIG 0.04  C 
BRANCH 59 61
ATOM     61 OG1  THR F   5      37.618 -24.607  41.377  1.00 48.31 LIG-0.39  OA
ATOM     62 HG1  THR F   5      38.225 -24.162  41.003  1.00 48.31 LIG 0.21  HD
ENDBRANCH 59 61
ENDBRANCH 40 59
ENDBRANCH 37 40
ENDBRANCH 1 36
TORSDOF 26
ENDMDL
MODEL 47
USER: ADFR SOLUTION from run 153
USER: SCORE 16.623411 LL:  -4.971 LR: -12.027 RR:   0.000 FEB:  -4.271
USER: RMSD 11.249196
USER: SEED 152
USER: STATUS no improvement in best in 20 clusters for 5 generations
USER: GENES 28
USER: genes 0 Translation |==|  0.33945 0.76890 0.70588
USER: genes 1 Rotation |==|  0.38368 0.81623 0.15335 0.62766
USER: genes 2 Torsion [C]-CA--N-[C] |==|  0.69636
USER: genes 3 Torsion [N]-C--CA-[N] |==|  0.90538
USER: genes 4 Torsion [C]-CA--CB-[SG] |==|  0.82269
USER: genes 5 Torsion [CA]-CB--SG-[HG] |==|  0.34314
USER: genes 6 Torsion [C]-CA--N-[C] |==|  0.83600
USER: genes 7 Torsion [N]-C--CA-[N] |==|  0.95379
USER: genes 8 Torsion [C]-CA--CB-[CG] |==|  0.38925
USER: genes 9 Torsion [CA]-CB--CG-[CD] |==|  0.57952
USER: genes 10 Torsion [CB]-CG--CD-[OE1] |==|  0.18489
USER: genes 11 Torsion [C]-CA--N-[C] |==|  0.82680
USER: genes 12 Torsion [N]-C--CA-[N] |==|  0.79794
USER: genes 13 Torsion [C]-CA--CB-[OG] |==|  0.48636
USER: genes 14 Torsion [CA]-CB--OG-[HG] |==|  0.19844
USER: genes 15 Torsion [C]-CA--N-[H1] |==|  0.55578
USER: genes 16 Torsion [N]-CA--CB-[OG1] |==|  0.55987
USER: genes 17 Torsion [CA]-CB--OG1-[HG1] |==|  0.23124
USER: genes 18 Torsion [N]-CA--C-[N] |==|  0.05105
USER: genes 19 Torsion [C]-N--CA-[CB] |==|  0.53333
USER: genes 20 Torsion [N]-CA--C-[N] |==|  0.43920
USER: genes 21 Torsion [N]-CA--C-[N] |==|  0.91919
USER: genes 22 Torsion [C]-N--CA-[CB] |==|  0.47646
USER: genes 23 Torsion [N]-CA--CB-[SG] |==|  0.30344
USER: genes 24 Torsion [CA]-CB--SG-[HG] |==|  0.98709
USER: genes 25 Torsion [N]-CA--C-[OXT] |==|  0.42326
USER: genes 26 Torsion [N]-CA--CB-[OG1] |==|  0.55021
USER: genes 27 Torsion [CA]-CB--OG1-[HG1] |==|  0.43217
ROOT
ATOM      1  CA  THR F   4      36.024 -22.651  39.097  1.00 50.77 LIG 0.20  C 
ENDROOT
BRANCH 1 2
ATOM      2  N   THR F   4      34.811 -23.472  39.028  1.00 51.40 LIG-0.34  N 
ATOM      3 H    THR F   4      34.648 -23.918  39.744  1.00 51.40 LIG 0.16  HD
ATOM      4  C   CYS F   3      34.038 -23.512  37.939  1.00 52.18 LIG 0.24  C 
ATOM      5 O    CYS F   3      34.211 -22.782  36.960  1.00 51.89 LIG-0.27  OA
BRANCH 4 6
ATOM      6  CA  CYS F   3      32.858 -24.490  37.968  1.00 52.92 LIG 0.18  C 
BRANCH 6 7
ATOM      7  CB  CYS F   3      31.603 -23.829  38.556  1.00 52.86 LIG 0.10  C 
BRANCH 7 8
ATOM      8 SG   CYS F   3      31.767 -23.328  40.307  1.00 55.16 LIG-0.18  SA
ATOM      9 HG   CYS F   3      31.535 -22.156  40.411  1.00 55.16 LIG 0.10  HD
ENDBRANCH 7 8
ENDBRANCH 6 7
BRANCH 6 10
ATOM     10  N   CYS F   3      33.234 -25.682  38.733  1.00 53.02 LIG-0.34  N 
ATOM     11 H    CYS F   3      32.731 -25.835  39.413  1.00 53.02 LIG 0.16  HD
ATOM     12  C   GLU F   2      34.266 -26.453  38.394  1.00 53.57 LIG 0.24  C 
ATOM     13 O    GLU F   2      34.885 -26.328  37.333  1.00 53.07 LIG-0.27  OA
BRANCH 12 14
ATOM     14  CA  GLU F   2      34.694 -27.503  39.423  1.00 54.00 LIG 0.18  C 
BRANCH 14 15
ATOM     15  CB  GLU F   2      34.237 -28.864  38.877  1.00 54.10 LIG 0.04  C 
BRANCH 15 16
ATOM     16  CG  GLU F   2      35.189 -30.038  39.062  1.00 55.55 LIG 0.12  C 
BRANCH 16 17
ATOM     17  CD  GLU F   2      35.037 -31.097  37.965  1.00 57.36 LIG 0.17  C 
ATOM     18 OE1  GLU F   2      35.350 -30.826  36.781  1.00 58.39 LIG-0.65  OA
ATOM     19 OE2  GLU F   2      34.613 -32.227  38.284  1.00 58.95 LIG-0.65  OA
ENDBRANCH 16 17
ENDBRANCH 15 16
ENDBRANCH 14 15
BRANCH 14 20
ATOM     20  N   GLU F   2      34.164 -27.256  40.773  1.00 53.99 LIG-0.35  N 
ATOM     21 H    GLU F   2      33.645 -27.882  41.052  1.00 53.99 LIG 0.16  HD
ATOM     22  C   SER F   1      34.447 -26.177  41.508  1.00 54.35 LIG 0.25  C 
ATOM     23 O    SER F   1      35.102 -25.211  41.094  1.00 54.45 LIG-0.27  OA
BRANCH 22 24
ATOM     24  CA  SER F   1      33.882 -26.171  42.934  1.00 54.58 LIG 0.30  C 
BRANCH 24 25
ATOM     25  CB  SER F   1      34.238 -27.476  43.656  1.00 54.63 LIG 0.21  C 
BRANCH 25 26
ATOM     26 OG   SER F   1      33.818 -27.438  45.013  1.00 54.91 LIG-0.40  OA
ATOM     27 HG   SER F   1      32.980 -27.489  45.049  1.00 54.91 LIG 0.21  HD
ENDBRANCH 25 26
ENDBRANCH 24 25
BRANCH 24 28
ATOM     28  N   SER F   1      32.403 -25.949  42.949  1.00 54.74 LIG-0.06  N 
ATOM     29 H1   SER F   1      32.153 -25.665  43.754  1.00 54.74 LIG 0.28  HD
ATOM     30 H2   SER F   1      32.188 -25.338  42.339  1.00 54.74 LIG 0.28  HD
ATOM     31 H3   SER F   1      31.986 -26.713  42.762  1.00 54.74 LIG 0.28  HD
ENDBRANCH 24 28
ENDBRANCH 22 24
ENDBRANCH 14 20
ENDBRANCH 12 14
ENDBRANCH 6 10
ENDBRANCH 4 6
ENDBRANCH 1 2
BRANCH 1 32
ATOM     32  CB  THR F   4      36.115 -21.800  40.376  1.00 51.21 LIG 0.15  C 
ATOM     33  CG2 THR F   4      36.596 -22.661  41.544  1.00 50.61 LIG 0.04  C 
BRANCH 32 34
ATOM     34 OG1  THR F   4      37.004 -20.697  40.167  1.00 51.15 LIG-0.39  OA
ATOM     35 HG1  THR F   4      36.590 -20.071  39.790  1.00 51.15 LIG 0.21  HD
ENDBRANCH 32 34
ENDBRANCH 1 32
BRANCH 1 36
ATOM     36  C   THR F   4      37.208 -23.603  39.082  1.00 49.53 LIG 0.24  C 
ATOM     37  N   THR F   5      36.971 -24.833  38.642  1.00 47.76 LIG-0.34  N 
ATOM     38 H    THR F   5      36.234 -25.059  38.262  1.00 47.76 LIG 0.16  HD
ATOM     39 O    THR F   4      38.301 -23.221  39.489  1.00 50.01 LIG-0.27  OA
BRANCH 37 40
ATOM     40  CA  THR F   5      37.927 -25.930  38.755  1.00 46.83 LIG 0.20  C 
BRANCH 40 41
ATOM     41  C   THR F   5      39.289 -25.451  38.253  1.00 45.74 LIG 0.24  C 
ATOM     42  N   PRO F   6      40.370 -26.123  38.677  1.00 45.40 LIG-0.34  N 
ATOM     43  CA  PRO F   6      41.681 -25.841  38.077  1.00 45.02 LIG 0.18  C 
ATOM     44  CD  PRO F   6      40.467 -27.085  39.791  1.00 45.45 LIG 0.13  C 
ATOM     45  CB  PRO F   6      42.613 -26.844  38.760  1.00 45.11 LIG 0.04  C 
ATOM     46  CG  PRO F   6      41.962 -27.145  40.067  1.00 45.75 LIG 0.02  C 
ATOM     47 O    THR F   5      39.364 -24.474  37.506  1.00 44.21 LIG-0.27  OA
BRANCH 43 48
ATOM     48  C   PRO F   6      41.619 -26.123  36.586  1.00 45.08 LIG 0.24  C 
ATOM     49  N   CYS F   7      40.767 -27.054  36.161  1.00 44.40 LIG-0.34  N 
ATOM     50 H    CYS F   7      40.188 -27.458  36.651  1.00 44.40 LIG 0.16  HD
ATOM     51 O    PRO F   6      42.364 -25.496  35.829  1.00 44.91 LIG-0.27  OA
BRANCH 49 52
ATOM     52  CA  CYS F   7      40.790 -27.449  34.755  1.00 45.02 LIG 0.19  C 
BRANCH 52 53
ATOM     53  CB  CYS F   7      39.885 -28.671  34.528  1.00 44.51 LIG 0.11  C 
BRANCH 53 54
ATOM     54 SG   CYS F   7      38.366 -28.221  33.582  1.00 46.73 LIG-0.18  SA
ATOM     55 HG   CYS F   7      38.340 -27.034  33.407  1.00 46.73 LIG 0.10  HD
ENDBRANCH 53 54
ENDBRANCH 52 53
BRANCH 52 56
ATOM     56  C   CYS F   7      40.546 -26.279  33.781  1.00 45.05 LIG 0.20  C 
ATOM     57 OXT  CYS F   7      41.003 -26.279  32.627  1.00 44.33 LIG-0.65  OA
ATOM     58 O    CYS F   7      39.919 -25.282  34.189  1.00 44.51 LIG-0.65  OA
ENDBRANCH 52 56
ENDBRANCH 49 52
ENDBRANCH 43 48
ENDBRANCH 40 41
BRANCH 40 59
ATOM     59  CB  THR F   5      37.471 -27.120  37.894  1.00 46.83 LIG 0.15  C 
ATOM     60  CG2 THR F   5      37.706 -26.884  36.409  1.00 46.88 LIG 0.04  C 
BRANCH 59 61
ATOM     61 OG1  THR F   5      38.153 -28.306  38.325  1.00 48.31 LIG-0.39  OA
ATOM     62 HG1  THR F   5      37.699 -28.981  38.118  1.00 48.31 LIG 0.21  HD
ENDBRANCH 59 61
ENDBRANCH 40 59
ENDBRANCH 37 40
ENDBRANCH 1 36
TORSDOF 26
ENDMDL
MODEL 48
USER: ADFR SOLUTION from run 87
USER: SCORE 16.692425 LL:  -5.202 LR: -12.031 RR:   0.000 FEB:  -4.275
USER: RMSD 4.410661
USER: SEED 86
USER: STATUS no improvement in best in 8 clusters for 5 generations
USER: GENES 28
USER: genes 0 Translation |==|  0.44244 0.49142 0.52817
USER: genes 1 Rotation |==|  0.49169 0.42211 0.52983 0.99293
USER: genes 2 Torsion [C]-CA--N-[C] |==|  0.60082
USER: genes 3 Torsion [N]-C--CA-[N] |==|  0.41760
USER: genes 4 Torsion [C]-CA--CB-[SG] |==|  0.63456
USER: genes 5 Torsion [CA]-CB--SG-[HG] |==|  0.20381
USER: genes 6 Torsion [C]-CA--N-[C] |==|  0.67140
USER: genes 7 Torsion [N]-C--CA-[N] |==|  0.93928
USER: genes 8 Torsion [C]-CA--CB-[CG] |==|  0.63793
USER: genes 9 Torsion [CA]-CB--CG-[CD] |==|  0.31630
USER: genes 10 Torsion [CB]-CG--CD-[OE1] |==|  0.88500
USER: genes 11 Torsion [C]-CA--N-[C] |==|  0.70332
USER: genes 12 Torsion [N]-C--CA-[N] |==|  0.04167
USER: genes 13 Torsion [C]-CA--CB-[OG] |==|  0.57856
USER: genes 14 Torsion [CA]-CB--OG-[HG] |==|  0.73721
USER: genes 15 Torsion [C]-CA--N-[H1] |==|  0.60804
USER: genes 16 Torsion [N]-CA--CB-[OG1] |==|  0.24724
USER: genes 17 Torsion [CA]-CB--OG1-[HG1] |==|  0.19798
USER: genes 18 Torsion [N]-CA--C-[N] |==|  0.45294
USER: genes 19 Torsion [C]-N--CA-[CB] |==|  0.84653
USER: genes 20 Torsion [N]-CA--C-[N] |==|  0.34464
USER: genes 21 Torsion [N]-CA--C-[N] |==|  0.89583
USER: genes 22 Torsion [C]-N--CA-[CB] |==|  0.37799
USER: genes 23 Torsion [N]-CA--CB-[SG] |==|  0.03119
USER: genes 24 Torsion [CA]-CB--SG-[HG] |==|  0.32346
USER: genes 25 Torsion [N]-CA--C-[OXT] |==|  0.93930
USER: genes 26 Torsion [N]-CA--CB-[OG1] |==|  0.89828
USER: genes 27 Torsion [CA]-CB--OG1-[HG1] |==|  0.43225
ROOT
ATOM      1  CA  THR F   4      38.727 -27.229  34.832  1.00 50.77 LIG 0.20  C 
ENDROOT
BRANCH 1 2
ATOM      2  N   THR F   4      40.147 -27.000  35.114  1.00 51.40 LIG-0.34  N 
ATOM      3 H    THR F   4      40.408 -27.309  35.874  1.00 51.40 LIG 0.16  HD
ATOM      4  C   CYS F   3      40.951 -26.364  34.259  1.00 52.18 LIG 0.24  C 
ATOM      5 O    CYS F   3      40.601 -26.029  33.124  1.00 51.89 LIG-0.27  OA
BRANCH 4 6
ATOM      6  CA  CYS F   3      42.387 -26.104  34.726  1.00 52.92 LIG 0.18  C 
BRANCH 6 7
ATOM      7  CB  CYS F   3      42.484 -24.792  35.518  1.00 52.86 LIG 0.10  C 
BRANCH 7 8
ATOM      8 SG   CYS F   3      43.846 -23.693  34.991  1.00 55.16 LIG-0.18  SA
ATOM      9 HG   CYS F   3      43.569 -23.189  33.938  1.00 55.16 LIG 0.10  HD
ENDBRANCH 7 8
ENDBRANCH 6 7
BRANCH 6 10
ATOM     10  N   CYS F   3      43.281 -26.085  33.564  1.00 53.02 LIG-0.34  N 
ATOM     11 H    CYS F   3      43.102 -25.465  32.995  1.00 53.02 LIG 0.16  HD
ATOM     12  C   GLU F   2      44.277 -26.956  33.414  1.00 53.57 LIG 0.24  C 
ATOM     13 O    GLU F   2      44.632 -27.738  34.301  1.00 53.07 LIG-0.27  OA
BRANCH 12 14
ATOM     14  CA  GLU F   2      44.954 -26.980  32.041  1.00 54.00 LIG 0.18  C 
BRANCH 14 15
ATOM     15  CB  GLU F   2      46.269 -26.200  32.187  1.00 54.10 LIG 0.04  C 
BRANCH 15 16
ATOM     16  CG  GLU F   2      46.552 -25.123  31.149  1.00 55.55 LIG 0.12  C 
BRANCH 16 17
ATOM     17  CD  GLU F   2      46.556 -23.713  31.750  1.00 57.36 LIG 0.17  C 
ATOM     18 OE1  GLU F   2      45.692 -23.389  32.600  1.00 58.39 LIG-0.65  OA
ATOM     19 OE2  GLU F   2      47.443 -22.913  31.386  1.00 58.95 LIG-0.65  OA
ENDBRANCH 16 17
ENDBRANCH 15 16
ENDBRANCH 14 15
BRANCH 14 20
ATOM     20  N   GLU F   2      44.118 -26.435  30.961  1.00 53.99 LIG-0.35  N 
ATOM     21 H    GLU F   2      44.043 -25.578  30.992  1.00 53.99 LIG 0.16  HD
ATOM     22  C   SER F   1      43.526 -27.174  30.019  1.00 54.35 LIG 0.25  C 
ATOM     23 O    SER F   1      43.527 -28.412  30.011  1.00 54.45 LIG-0.27  OA
BRANCH 22 24
ATOM     24  CA  SER F   1      42.793 -26.396  28.919  1.00 54.58 LIG 0.30  C 
BRANCH 24 25
ATOM     25  CB  SER F   1      43.052 -27.034  27.549  1.00 54.63 LIG 0.21  C 
BRANCH 25 26
ATOM     26 OG   SER F   1      42.973 -26.065  26.513  1.00 54.91 LIG-0.40  OA
ATOM     27 HG   SER F   1      42.198 -26.065  26.187  1.00 54.91 LIG 0.21  HD
ENDBRANCH 25 26
ENDBRANCH 24 25
BRANCH 24 28
ATOM     28  N   SER F   1      43.176 -24.950  28.906  1.00 54.74 LIG-0.06  N 
ATOM     29 H1   SER F   1      42.458 -24.453  28.737  1.00 54.74 LIG 0.28  HD
ATOM     30 H2   SER F   1      43.512 -24.725  29.699  1.00 54.74 LIG 0.28  HD
ATOM     31 H3   SER F   1      43.788 -24.811  28.275  1.00 54.74 LIG 0.28  HD
ENDBRANCH 24 28
ENDBRANCH 22 24
ENDBRANCH 14 20
ENDBRANCH 12 14
ENDBRANCH 6 10
ENDBRANCH 4 6
ENDBRANCH 1 2
BRANCH 1 32
ATOM     32  CB  THR F   4      38.434 -28.629  34.264  1.00 51.21 LIG 0.15  C 
ATOM     33  CG2 THR F   4      39.608 -29.102  33.407  1.00 50.61 LIG 0.04  C 
BRANCH 32 34
ATOM     34 OG1  THR F   4      38.191 -29.550  35.334  1.00 51.15 LIG-0.39  OA
ATOM     35 HG1  THR F   4      37.448 -29.380  35.687  1.00 51.15 LIG 0.21  HD
ENDBRANCH 32 34
ENDBRANCH 1 32
BRANCH 1 36
ATOM     36  C   THR F   4      37.982 -27.093  36.149  1.00 49.53 LIG 0.24  C 
ATOM     37  N   THR F   5      36.668 -26.919  36.069  1.00 47.76 LIG-0.34  N 
ATOM     38 H    THR F   5      36.230 -27.008  35.334  1.00 47.76 LIG 0.16  HD
ATOM     39 O    THR F   4      38.604 -27.120  37.206  1.00 50.01 LIG-0.27  OA
BRANCH 37 40
ATOM     40  CA  THR F   5      35.829 -26.561  37.208  1.00 46.83 LIG 0.20  C 
BRANCH 40 41
ATOM     41  C   THR F   5      36.239 -25.176  37.707  1.00 45.74 LIG 0.24  C 
ATOM     42  N   PRO F   6      35.282 -24.238  37.770  1.00 45.40 LIG-0.34  N 
ATOM     43  CA  PRO F   6      35.565 -22.955  38.427  1.00 45.02 LIG 0.18  C 
ATOM     44  CD  PRO F   6      33.940 -24.261  37.156  1.00 45.45 LIG 0.13  C 
ATOM     45  CB  PRO F   6      34.229 -22.213  38.361  1.00 45.11 LIG 0.04  C 
ATOM     46  CG  PRO F   6      33.522 -22.798  37.185  1.00 45.75 LIG 0.02  C 
ATOM     47 O    THR F   5      37.411 -24.951  38.013  1.00 44.21 LIG-0.27  OA
BRANCH 43 48
ATOM     48  C   PRO F   6      35.947 -23.208  39.875  1.00 45.08 LIG 0.24  C 
ATOM     49  N   CYS F   7      35.307 -24.175  40.530  1.00 44.40 LIG-0.34  N 
ATOM     50 H    CYS F   7      34.748 -24.726  40.180  1.00 44.40 LIG 0.16  HD
ATOM     51 O    PRO F   6      36.817 -22.504  40.393  1.00 44.91 LIG-0.27  OA
BRANCH 49 52
ATOM     52  CA  CYS F   7      35.549 -24.343  41.960  1.00 45.02 LIG 0.19  C 
BRANCH 52 53
ATOM     53  CB  CYS F   7      34.222 -24.569  42.703  1.00 44.51 LIG 0.11  C 
BRANCH 53 54
ATOM     54 SG   CYS F   7      32.834 -24.883  41.528  1.00 46.73 LIG-0.18  SA
ATOM     55 HG   CYS F   7      32.406 -25.991  41.701  1.00 46.73 LIG 0.10  HD
ENDBRANCH 53 54
ENDBRANCH 52 53
BRANCH 52 56
ATOM     56  C   CYS F   7      36.651 -25.371  42.284  1.00 45.05 LIG 0.20  C 
ATOM     57 OXT  CYS F   7      36.980 -26.257  41.479  1.00 44.33 LIG-0.65  OA
ATOM     58 O    CYS F   7      37.183 -25.342  43.411  1.00 44.51 LIG-0.65  OA
ENDBRANCH 52 56
ENDBRANCH 49 52
ENDBRANCH 43 48
ENDBRANCH 40 41
BRANCH 40 59
ATOM     59  CB  THR F   5      36.021 -27.576  38.347  1.00 46.83 LIG 0.15  C 
ATOM     60  CG2 THR F   5      34.860 -27.570  39.330  1.00 46.88 LIG 0.04  C 
BRANCH 59 61
ATOM     61 OG1  THR F   5      36.196 -28.886  37.790  1.00 48.31 LIG-0.39  OA
ATOM     62 HG1  THR F   5      36.619 -29.368  38.334  1.00 48.31 LIG 0.21  HD
ENDBRANCH 59 61
ENDBRANCH 40 59
ENDBRANCH 37 40
ENDBRANCH 1 36
TORSDOF 26
ENDMDL
MODEL 49
USER: ADFR SOLUTION from run 24
USER: SCORE 16.391949 LL:  -5.907 LR: -11.990 RR:   0.000 FEB:  -4.234
USER: RMSD 11.655198
USER: SEED 23
USER: STATUS searching
USER: GENES 28
USER: genes 0 Translation |==|  0.38058 0.70003 0.68941
USER: genes 1 Rotation |==|  0.45275 0.86380 0.16260 0.53975
USER: genes 2 Torsion [C]-CA--N-[C] |==|  0.78111
USER: genes 3 Torsion [N]-C--CA-[N] |==|  0.88857
USER: genes 4 Torsion [C]-CA--CB-[SG] |==|  0.64281
USER: genes 5 Torsion [CA]-CB--SG-[HG] |==|  0.42607
USER: genes 6 Torsion [C]-CA--N-[C] |==|  0.85930
USER: genes 7 Torsion [N]-C--CA-[N] |==|  0.46093
USER: genes 8 Torsion [C]-CA--CB-[CG] |==|  0.29566
USER: genes 9 Torsion [CA]-CB--CG-[CD] |==|  0.72681
USER: genes 10 Torsion [CB]-CG--CD-[OE1] |==|  0.42789
USER: genes 11 Torsion [C]-CA--N-[C] |==|  0.82104
USER: genes 12 Torsion [N]-C--CA-[N] |==|  0.34681
USER: genes 13 Torsion [C]-CA--CB-[OG] |==|  0.59504
USER: genes 14 Torsion [CA]-CB--OG-[HG] |==|  0.69505
USER: genes 15 Torsion [C]-CA--N-[H1] |==|  0.98367
USER: genes 16 Torsion [N]-CA--CB-[OG1] |==|  0.15665
USER: genes 17 Torsion [CA]-CB--OG1-[HG1] |==|  0.08735
USER: genes 18 Torsion [N]-CA--C-[N] |==|  0.29366
USER: genes 19 Torsion [C]-N--CA-[CB] |==|  0.25555
USER: genes 20 Torsion [N]-CA--C-[N] |==|  0.41442
USER: genes 21 Torsion [N]-CA--C-[N] |==|  0.73863
USER: genes 22 Torsion [C]-N--CA-[CB] |==|  0.25736
USER: genes 23 Torsion [N]-CA--CB-[SG] |==|  0.77442
USER: genes 24 Torsion [CA]-CB--SG-[HG] |==|  0.12619
USER: genes 25 Torsion [N]-CA--C-[OXT] |==|  0.52393
USER: genes 26 Torsion [N]-CA--CB-[OG1] |==|  0.98612
USER: genes 27 Torsion [CA]-CB--OG1-[HG1] |==|  0.18750
ROOT
ATOM      1  CA  THR F   4      37.103 -23.788  38.702  1.00 50.77 LIG 0.20  C 
ENDROOT
BRANCH 1 2
ATOM      2  N   THR F   4      35.650 -23.978  38.678  1.00 51.40 LIG-0.34  N 
ATOM      3 H    THR F   4      35.290 -24.023  39.458  1.00 51.40 LIG 0.16  HD
ATOM      4  C   CYS F   3      34.961 -24.074  37.538  1.00 52.18 LIG 0.24  C 
ATOM      5 O    CYS F   3      35.465 -23.892  36.427  1.00 51.89 LIG-0.27  OA
BRANCH 4 6
ATOM      6  CA  CYS F   3      33.463 -24.374  37.661  1.00 52.92 LIG 0.18  C 
BRANCH 6 7
ATOM      7  CB  CYS F   3      32.661 -23.093  37.931  1.00 52.86 LIG 0.10  C 
BRANCH 7 8
ATOM      8 SG   CYS F   3      31.530 -23.201  39.363  1.00 55.16 LIG-0.18  SA
ATOM      9 HG   CYS F   3      31.354 -22.105  39.818  1.00 55.16 LIG 0.10  HD
ENDBRANCH 7 8
ENDBRANCH 6 7
BRANCH 6 10
ATOM     10  N   CYS F   3      33.252 -25.363  38.722  1.00 53.02 LIG-0.34  N 
ATOM     11 H    CYS F   3      32.654 -25.136  39.298  1.00 53.02 LIG 0.16  HD
ATOM     12  C   GLU F   2      33.931 -26.507  38.780  1.00 53.57 LIG 0.24  C 
ATOM     13 O    GLU F   2      34.668 -26.903  37.871  1.00 53.07 LIG-0.27  OA
BRANCH 12 14
ATOM     14  CA  GLU F   2      33.792 -27.313  40.074  1.00 54.00 LIG 0.18  C 
BRANCH 14 15
ATOM     15  CB  GLU F   2      34.545 -26.530  41.161  1.00 54.10 LIG 0.04  C 
BRANCH 15 16
ATOM     16  CG  GLU F   2      33.700 -25.798  42.195  1.00 55.55 LIG 0.12  C 
BRANCH 16 17
ATOM     17  CD  GLU F   2      33.537 -24.309  41.872  1.00 57.36 LIG 0.17  C 
ATOM     18 OE1  GLU F   2      32.535 -23.681  42.291  1.00 58.39 LIG-0.65  OA
ATOM     19 OE2  GLU F   2      34.426 -23.744  41.201  1.00 58.95 LIG-0.65  OA
ENDBRANCH 16 17
ENDBRANCH 15 16
ENDBRANCH 14 15
BRANCH 14 20
ATOM     20  N   GLU F   2      34.284 -28.694  39.963  1.00 53.99 LIG-0.35  N 
ATOM     21 H    GLU F   2      34.962 -28.853  40.468  1.00 53.99 LIG 0.16  HD
ATOM     22  C   SER F   1      33.747 -29.624  39.168  1.00 54.35 LIG 0.25  C 
ATOM     23 O    SER F   1      32.841 -29.398  38.354  1.00 54.45 LIG-0.27  OA
BRANCH 22 24
ATOM     24  CA  SER F   1      34.341 -31.034  39.290  1.00 54.58 LIG 0.30  C 
BRANCH 24 25
ATOM     25  CB  SER F   1      35.110 -31.403  38.016  1.00 54.63 LIG 0.21  C 
BRANCH 25 26
ATOM     26 OG   SER F   1      34.991 -32.790  37.733  1.00 54.91 LIG-0.40  OA
ATOM     27 HG   SER F   1      35.729 -33.168  37.866  1.00 54.91 LIG 0.21  HD
ENDBRANCH 25 26
ENDBRANCH 24 25
BRANCH 24 28
ATOM     28  N   SER F   1      33.293 -32.059  39.587  1.00 54.74 LIG-0.06  N 
ATOM     29 H1   SER F   1      32.512 -31.654  39.726  1.00 54.74 LIG 0.28  HD
ATOM     30 H2   SER F   1      33.219 -32.617  38.898  1.00 54.74 LIG 0.28  HD
ATOM     31 H3   SER F   1      33.523 -32.516  40.315  1.00 54.74 LIG 0.28  HD
ENDBRANCH 24 28
ENDBRANCH 22 24
ENDBRANCH 14 20
ENDBRANCH 12 14
ENDBRANCH 6 10
ENDBRANCH 4 6
ENDBRANCH 1 2
BRANCH 1 32
ATOM     32  CB  THR F   4      37.632 -23.277  40.054  1.00 51.21 LIG 0.15  C 
ATOM     33  CG2 THR F   4      37.102 -21.868  40.323  1.00 50.61 LIG 0.04  C 
BRANCH 32 34
ATOM     34 OG1  THR F   4      37.240 -24.170  41.102  1.00 51.15 LIG-0.39  OA
ATOM     35 HG1  THR F   4      37.196 -24.953  40.801  1.00 51.15 LIG 0.21  HD
ENDBRANCH 32 34
ENDBRANCH 1 32
BRANCH 1 36
ATOM     36  C   THR F   4      37.736 -25.143  38.433  1.00 49.53 LIG 0.24  C 
ATOM     37  N   THR F   5      38.264 -25.318  37.228  1.00 47.76 LIG-0.34  N 
ATOM     38 H    THR F   5      38.370 -24.676  36.666  1.00 47.76 LIG 0.16  HD
ATOM     39 O    THR F   4      37.714 -26.008  39.302  1.00 50.01 LIG-0.27  OA
BRANCH 37 40
ATOM     40  CA  THR F   5      38.720 -26.611  36.726  1.00 46.83 LIG 0.20  C 
BRANCH 40 41
ATOM     41  C   THR F   5      39.892 -26.383  35.770  1.00 45.74 LIG 0.24  C 
ATOM     42  N   PRO F   6      40.822 -27.347  35.701  1.00 45.40 LIG-0.34  N 
ATOM     43  CA  PRO F   6      41.859 -27.281  34.662  1.00 45.02 LIG 0.18  C 
ATOM     44  CD  PRO F   6      41.038 -28.476  36.627  1.00 45.45 LIG 0.13  C 
ATOM     45  CB  PRO F   6      42.657 -28.571  34.867  1.00 45.11 LIG 0.04  C 
ATOM     46  CG  PRO F   6      42.455 -28.924  36.302  1.00 45.75 LIG 0.02  C 
ATOM     47 O    THR F   5      39.964 -25.341  35.117  1.00 44.21 LIG-0.27  OA
BRANCH 43 48
ATOM     48  C   PRO F   6      41.198 -27.292  33.295  1.00 45.08 LIG 0.24  C 
ATOM     49  N   CYS F   7      41.058 -28.464  32.678  1.00 44.40 LIG-0.34  N 
ATOM     50 H    CYS F   7      41.238 -29.231  33.022  1.00 44.40 LIG 0.16  HD
ATOM     51 O    PRO F   6      40.832 -26.223  32.802  1.00 44.91 LIG-0.27  OA
BRANCH 49 52
ATOM     52  CA  CYS F   7      40.560 -28.489  31.306  1.00 45.02 LIG 0.19  C 
BRANCH 52 53
ATOM     53  CB  CYS F   7      41.733 -28.467  30.312  1.00 44.51 LIG 0.11  C 
BRANCH 53 54
ATOM     54 SG   CYS F   7      42.375 -26.755  30.061  1.00 46.73 LIG-0.18  SA
ATOM     55 HG   CYS F   7      42.490 -26.211  31.124  1.00 46.73 LIG 0.10  HD
ENDBRANCH 53 54
ENDBRANCH 52 53
BRANCH 52 56
ATOM     56  C   CYS F   7      39.518 -29.594  31.045  1.00 45.05 LIG 0.20  C 
ATOM     57 OXT  CYS F   7      39.110 -29.857  29.903  1.00 44.33 LIG-0.65  OA
ATOM     58 O    CYS F   7      39.032 -30.199  32.021  1.00 44.51 LIG-0.65  OA
ENDBRANCH 52 56
ENDBRANCH 49 52
ENDBRANCH 43 48
ENDBRANCH 40 41
BRANCH 40 59
ATOM     59  CB  THR F   5      37.585 -27.312  35.961  1.00 46.83 LIG 0.15  C 
ATOM     60  CG2 THR F   5      37.343 -28.731  36.456  1.00 46.88 LIG 0.04  C 
BRANCH 59 61
ATOM     61 OG1  THR F   5      36.386 -26.533  36.074  1.00 48.31 LIG-0.39  OA
ATOM     62 HG1  THR F   5      36.481 -25.810  35.658  1.00 48.31 LIG 0.21  HD
ENDBRANCH 59 61
ENDBRANCH 40 59
ENDBRANCH 37 40
ENDBRANCH 1 36
TORSDOF 26
ENDMDL
MODEL 50
USER: ADFR SOLUTION from run 160
USER: SCORE 16.984535 LL:  -6.107 LR: -11.991 RR:   0.000 FEB:  -4.235
USER: RMSD 10.878043
USER: SEED 159
USER: STATUS searching
USER: GENES 28
USER: genes 0 Translation |==|  0.37006 0.77467 0.70443
USER: genes 1 Rotation |==|  0.39087 0.80781 0.16350 0.67352
USER: genes 2 Torsion [C]-CA--N-[C] |==|  0.60386
USER: genes 3 Torsion [N]-C--CA-[N] |==|  0.94810
USER: genes 4 Torsion [C]-CA--CB-[SG] |==|  0.91699
USER: genes 5 Torsion [CA]-CB--SG-[HG] |==|  0.33125
USER: genes 6 Torsion [C]-CA--N-[C] |==|  0.82614
USER: genes 7 Torsion [N]-C--CA-[N] |==|  0.14263
USER: genes 8 Torsion [C]-CA--CB-[CG] |==|  0.75985
USER: genes 9 Torsion [CA]-CB--CG-[CD] |==|  0.80401
USER: genes 10 Torsion [CB]-CG--CD-[OE1] |==|  0.31497
USER: genes 11 Torsion [C]-CA--N-[C] |==|  0.71445
USER: genes 12 Torsion [N]-C--CA-[N] |==|  0.87351
USER: genes 13 Torsion [C]-CA--CB-[OG] |==|  0.69747
USER: genes 14 Torsion [CA]-CB--OG-[HG] |==|  0.27034
USER: genes 15 Torsion [C]-CA--N-[H1] |==|  0.23069
USER: genes 16 Torsion [N]-CA--CB-[OG1] |==|  0.56985
USER: genes 17 Torsion [CA]-CB--OG1-[HG1] |==|  0.22901
USER: genes 18 Torsion [N]-CA--C-[N] |==|  0.51768
USER: genes 19 Torsion [C]-N--CA-[CB] |==|  0.86667
USER: genes 20 Torsion [N]-CA--C-[N] |==|  0.38771
USER: genes 21 Torsion [N]-CA--C-[N] |==|  0.33667
USER: genes 22 Torsion [C]-N--CA-[CB] |==|  0.23846
USER: genes 23 Torsion [N]-CA--CB-[SG] |==|  0.09047
USER: genes 24 Torsion [CA]-CB--SG-[HG] |==|  0.25376
USER: genes 25 Torsion [N]-CA--C-[OXT] |==|  0.37086
USER: genes 26 Torsion [N]-CA--CB-[OG1] |==|  0.76548
USER: genes 27 Torsion [CA]-CB--OG1-[HG1] |==|  0.02618
ROOT
ATOM      1  CA  THR F   4      36.827 -22.556  39.062  1.00 50.77 LIG 0.20  C 
ENDROOT
BRANCH 1 2
ATOM      2  N   THR F   4      35.751 -23.514  38.791  1.00 51.40 LIG-0.34  N 
ATOM      3 H    THR F   4      35.836 -24.263  39.204  1.00 51.40 LIG 0.16  HD
ATOM      4  C   CYS F   3      34.736 -23.233  37.970  1.00 52.18 LIG 0.24  C 
ATOM      5 O    CYS F   3      34.557 -22.118  37.473  1.00 51.89 LIG-0.27  OA
BRANCH 4 6
ATOM      6  CA  CYS F   3      33.737 -24.363  37.698  1.00 52.92 LIG 0.18  C 
BRANCH 6 7
ATOM      7  CB  CYS F   3      32.428 -24.144  38.470  1.00 52.86 LIG 0.10  C 
BRANCH 7 8
ATOM      8 SG   CYS F   3      32.626 -23.242  40.048  1.00 55.16 LIG-0.18  SA
ATOM      9 HG   CYS F   3      31.990 -22.225  40.010  1.00 55.16 LIG 0.10  HD
ENDBRANCH 7 8
ENDBRANCH 6 7
BRANCH 6 10
ATOM     10  N   CYS F   3      34.349 -25.647  38.050  1.00 53.02 LIG-0.34  N 
ATOM     11 H    CYS F   3      33.946 -26.065  38.685  1.00 53.02 LIG 0.16  HD
ATOM     12  C   GLU F   2      35.432 -26.116  37.434  1.00 53.57 LIG 0.24  C 
ATOM     13 O    GLU F   2      35.912 -25.598  36.420  1.00 53.07 LIG-0.27  OA
BRANCH 12 14
ATOM     14  CA  GLU F   2      36.104 -27.332  38.076  1.00 54.00 LIG 0.18  C 
BRANCH 14 15
ATOM     15  CB  GLU F   2      37.230 -27.765  37.125  1.00 54.10 LIG 0.04  C 
BRANCH 15 16
ATOM     16  CG  GLU F   2      36.854 -28.716  35.997  1.00 55.55 LIG 0.12  C 
BRANCH 16 17
ATOM     17  CD  GLU F   2      36.529 -30.126  36.501  1.00 57.36 LIG 0.17  C 
ATOM     18 OE1  GLU F   2      35.362 -30.575  36.406  1.00 58.39 LIG-0.65  OA
ATOM     19 OE2  GLU F   2      37.453 -30.811  36.988  1.00 58.95 LIG-0.65  OA
ENDBRANCH 16 17
ENDBRANCH 15 16
ENDBRANCH 14 15
BRANCH 14 20
ATOM     20  N   GLU F   2      35.177 -28.439  38.356  1.00 53.99 LIG-0.35  N 
ATOM     21 H    GLU F   2      34.971 -28.893  37.655  1.00 53.99 LIG 0.16  HD
ATOM     22  C   SER F   1      34.693 -28.729  39.567  1.00 54.35 LIG 0.25  C 
ATOM     23 O    SER F   1      34.886 -28.034  40.573  1.00 54.45 LIG-0.27  OA
BRANCH 22 24
ATOM     24  CA  SER F   1      33.831 -29.996  39.658  1.00 54.58 LIG 0.30  C 
BRANCH 24 25
ATOM     25  CB  SER F   1      34.719 -31.246  39.678  1.00 54.63 LIG 0.21  C 
BRANCH 25 26
ATOM     26 OG   SER F   1      34.613 -31.965  38.457  1.00 54.91 LIG-0.40  OA
ATOM     27 HG   SER F   1      35.253 -31.758  37.953  1.00 54.91 LIG 0.21  HD
ENDBRANCH 25 26
ENDBRANCH 24 25
BRANCH 24 28
ATOM     28  N   SER F   1      32.835 -30.076  38.545  1.00 54.74 LIG-0.06  N 
ATOM     29 H1   SER F   1      33.225 -30.414  37.820  1.00 54.74 LIG 0.28  HD
ATOM     30 H2   SER F   1      32.159 -30.600  38.789  1.00 54.74 LIG 0.28  HD
ATOM     31 H3   SER F   1      32.527 -29.261  38.363  1.00 54.74 LIG 0.28  HD
ENDBRANCH 24 28
ENDBRANCH 22 24
ENDBRANCH 14 20
ENDBRANCH 12 14
ENDBRANCH 6 10
ENDBRANCH 4 6
ENDBRANCH 1 2
BRANCH 1 32
ATOM     32  CB  THR F   4      36.639 -21.779  40.377  1.00 51.21 LIG 0.15  C 
ATOM     33  CG2 THR F   4      37.153 -22.610  41.553  1.00 50.61 LIG 0.04  C 
BRANCH 32 34
ATOM     34 OG1  THR F   4      37.328 -20.526  40.308  1.00 51.15 LIG-0.39  OA
ATOM     35 HG1  THR F   4      36.851 -19.965  39.906  1.00 51.15 LIG 0.21  HD
ENDBRANCH 32 34
ENDBRANCH 1 32
BRANCH 1 36
ATOM     36  C   THR F   4      38.117 -23.352  39.169  1.00 49.53 LIG 0.24  C 
ATOM     37  N   THR F   5      39.197 -22.677  39.544  1.00 47.76 LIG-0.34  N 
ATOM     38 H    THR F   5      39.165 -21.870  39.840  1.00 47.76 LIG 0.16  HD
ATOM     39 O    THR F   4      38.121 -24.546  38.889  1.00 50.01 LIG-0.27  OA
BRANCH 37 40
ATOM     40  CA  THR F   5      40.549 -23.224  39.496  1.00 46.83 LIG 0.20  C 
BRANCH 40 41
ATOM     41  C   THR F   5      40.985 -23.336  38.035  1.00 45.74 LIG 0.24  C 
ATOM     42  N   PRO F   6      42.251 -23.002  37.746  1.00 45.40 LIG-0.34  N 
ATOM     43  CA  PRO F   6      42.786 -23.277  36.405  1.00 45.02 LIG 0.18  C 
ATOM     44  CD  PRO F   6      43.215 -22.264  38.585  1.00 45.45 LIG 0.13  C 
ATOM     45  CB  PRO F   6      44.247 -22.832  36.502  1.00 45.11 LIG 0.04  C 
ATOM     46  CG  PRO F   6      44.266 -21.806  37.584  1.00 45.75 LIG 0.02  C 
ATOM     47 O    THR F   5      40.181 -23.701  37.176  1.00 44.21 LIG-0.27  OA
BRANCH 43 48
ATOM     48  C   PRO F   6      42.715 -24.770  36.136  1.00 45.08 LIG 0.24  C 
ATOM     49  N   CYS F   7      42.011 -25.182  35.083  1.00 44.40 LIG-0.34  N 
ATOM     50 H    CYS F   7      41.655 -24.669  34.492  1.00 44.40 LIG 0.16  HD
ATOM     51 O    PRO F   6      43.294 -25.542  36.904  1.00 44.91 LIG-0.27  OA
BRANCH 49 52
ATOM     52  CA  CYS F   7      41.804 -26.614  34.884  1.00 45.02 LIG 0.19  C 
BRANCH 52 53
ATOM     53  CB  CYS F   7      40.579 -27.092  35.679  1.00 44.51 LIG 0.11  C 
BRANCH 53 54
ATOM     54 SG   CYS F   7      39.289 -25.777  35.789  1.00 46.73 LIG-0.18  SA
ATOM     55 HG   CYS F   7      38.523 -25.890  34.872  1.00 46.73 LIG 0.10  HD
ENDBRANCH 53 54
ENDBRANCH 52 53
BRANCH 52 56
ATOM     56  C   CYS F   7      41.817 -27.040  33.403  1.00 45.05 LIG 0.20  C 
ATOM     57 OXT  CYS F   7      42.461 -28.023  33.007  1.00 44.33 LIG-0.65  OA
ATOM     58 O    CYS F   7      41.204 -26.338  32.574  1.00 44.51 LIG-0.65  OA
ENDBRANCH 52 56
ENDBRANCH 49 52
ENDBRANCH 43 48
ENDBRANCH 40 41
BRANCH 40 59
ATOM     59  CB  THR F   5      40.576 -24.626  40.130  1.00 46.83 LIG 0.15  C 
ATOM     60  CG2 THR F   5      41.685 -25.498  39.561  1.00 46.88 LIG 0.04  C 
BRANCH 59 61
ATOM     61 OG1  THR F   5      40.720 -24.500  41.552  1.00 48.31 LIG-0.39  OA
ATOM     62 HG1  THR F   5      40.633 -23.694  41.772  1.00 48.31 LIG 0.21  HD
ENDBRANCH 59 61
ENDBRANCH 40 59
ENDBRANCH 37 40
ENDBRANCH 1 36
TORSDOF 26
ENDMDL
MODEL 51
USER: ADFR SOLUTION from run 103
USER: SCORE 16.101355 LL:  -6.753 LR: -11.930 RR:   0.000 FEB:  -4.175
USER: RMSD 8.796705
USER: SEED 102
USER: STATUS no improvement in best in 3 clusters for 5 generations
USER: GENES 28
USER: genes 0 Translation |==|  0.21329 0.67246 0.70056
USER: genes 1 Rotation |==|  0.24885 0.63084 0.28452 0.85124
USER: genes 2 Torsion [C]-CA--N-[C] |==|  0.83630
USER: genes 3 Torsion [N]-C--CA-[N] |==|  0.46438
USER: genes 4 Torsion [C]-CA--CB-[SG] |==|  0.16979
USER: genes 5 Torsion [CA]-CB--SG-[HG] |==|  0.68239
USER: genes 6 Torsion [C]-CA--N-[C] |==|  0.20144
USER: genes 7 Torsion [N]-C--CA-[N] |==|  0.10252
USER: genes 8 Torsion [C]-CA--CB-[CG] |==|  0.46108
USER: genes 9 Torsion [CA]-CB--CG-[CD] |==|  0.23508
USER: genes 10 Torsion [CB]-CG--CD-[OE1] |==|  0.86266
USER: genes 11 Torsion [C]-CA--N-[C] |==|  0.75000
USER: genes 12 Torsion [N]-C--CA-[N] |==|  0.98869
USER: genes 13 Torsion [C]-CA--CB-[OG] |==|  0.51964
USER: genes 14 Torsion [CA]-CB--OG-[HG] |==|  0.97600
USER: genes 15 Torsion [C]-CA--N-[H1] |==|  0.74763
USER: genes 16 Torsion [N]-CA--CB-[OG1] |==|  0.46633
USER: genes 17 Torsion [CA]-CB--OG1-[HG1] |==|  0.00110
USER: genes 18 Torsion [N]-CA--C-[N] |==|  0.89683
USER: genes 19 Torsion [C]-N--CA-[CB] |==|  0.46678
USER: genes 20 Torsion [N]-CA--C-[N] |==|  0.52045
USER: genes 21 Torsion [N]-CA--C-[N] |==|  0.93666
USER: genes 22 Torsion [C]-N--CA-[CB] |==|  0.17418
USER: genes 23 Torsion [N]-CA--CB-[SG] |==|  0.71893
USER: genes 24 Torsion [CA]-CB--SG-[HG] |==|  0.06927
USER: genes 25 Torsion [N]-CA--C-[OXT] |==|  0.51862
USER: genes 26 Torsion [N]-CA--CB-[OG1] |==|  0.05001
USER: genes 27 Torsion [CA]-CB--OG1-[HG1] |==|  0.29996
ROOT
ATOM      1  CA  THR F   4      32.712 -24.242  38.970  1.00 50.77 LIG 0.20  C 
ENDROOT
BRANCH 1 2
ATOM      2  N   THR F   4      33.312 -25.579  38.954  1.00 51.40 LIG-0.34  N 
ATOM      3 H    THR F   4      32.945 -26.135  39.499  1.00 51.40 LIG 0.16  HD
ATOM      4  C   CYS F   3      34.338 -25.893  38.159  1.00 52.18 LIG 0.24  C 
ATOM      5 O    CYS F   3      34.782 -25.130  37.297  1.00 51.89 LIG-0.27  OA
BRANCH 4 6
ATOM      6  CA  CYS F   3      34.932 -27.296  38.320  1.00 52.92 LIG 0.18  C 
BRANCH 6 7
ATOM      7  CB  CYS F   3      35.675 -27.435  39.656  1.00 52.86 LIG 0.10  C 
BRANCH 7 8
ATOM      8 SG   CYS F   3      34.624 -27.188  41.131  1.00 55.16 LIG-0.18  SA
ATOM      9 HG   CYS F   3      34.978 -26.201  41.715  1.00 55.16 LIG 0.10  HD
ENDBRANCH 7 8
ENDBRANCH 6 7
BRANCH 6 10
ATOM     10  N   CYS F   3      35.821 -27.580  37.190  1.00 53.02 LIG-0.34  N 
ATOM     11 H    CYS F   3      35.503 -28.148  36.628  1.00 53.02 LIG 0.16  HD
ATOM     12  C   GLU F   2      37.013 -27.002  37.056  1.00 53.57 LIG 0.24  C 
ATOM     13 O    GLU F   2      37.399 -26.072  37.770  1.00 53.07 LIG-0.27  OA
BRANCH 12 14
ATOM     14  CA  GLU F   2      37.931 -27.585  35.978  1.00 54.00 LIG 0.18  C 
BRANCH 14 15
ATOM     15  CB  GLU F   2      38.976 -26.504  35.661  1.00 54.10 LIG 0.04  C 
BRANCH 15 16
ATOM     16  CG  GLU F   2      40.199 -26.939  34.866  1.00 55.55 LIG 0.12  C 
BRANCH 16 17
ATOM     17  CD  GLU F   2      39.950 -26.930  33.353  1.00 57.36 LIG 0.17  C 
ATOM     18 OE1  GLU F   2      38.933 -27.490  32.880  1.00 58.39 LIG-0.65  OA
ATOM     19 OE2  GLU F   2      40.772 -26.343  32.618  1.00 58.95 LIG-0.65  OA
ENDBRANCH 16 17
ENDBRANCH 15 16
ENDBRANCH 14 15
BRANCH 14 20
ATOM     20  N   GLU F   2      37.217 -28.018  34.767  1.00 53.99 LIG-0.35  N 
ATOM     21 H    GLU F   2      37.145 -27.397  34.177  1.00 53.99 LIG 0.16  HD
ATOM     22  C   SER F   1      36.724 -29.246  34.582  1.00 54.35 LIG 0.25  C 
ATOM     23 O    SER F   1      36.719 -30.127  35.452  1.00 54.45 LIG-0.27  OA
BRANCH 22 24
ATOM     24  CA  SER F   1      36.117 -29.522  33.200  1.00 54.58 LIG 0.30  C 
BRANCH 24 25
ATOM     25  CB  SER F   1      36.864 -30.667  32.506  1.00 54.63 LIG 0.21  C 
BRANCH 25 26
ATOM     26 OG   SER F   1      36.420 -30.826  31.166  1.00 54.91 LIG-0.40  OA
ATOM     27 HG   SER F   1      35.747 -30.341  31.034  1.00 54.91 LIG 0.21  HD
ENDBRANCH 25 26
ENDBRANCH 24 25
BRANCH 24 28
ATOM     28  N   SER F   1      36.109 -28.300  32.338  1.00 54.74 LIG-0.06  N 
ATOM     29 H1   SER F   1      35.343 -27.861  32.451  1.00 54.74 LIG 0.28  HD
ATOM     30 H2   SER F   1      36.789 -27.772  32.565  1.00 54.74 LIG 0.28  HD
ATOM     31 H3   SER F   1      36.191 -28.538  31.484  1.00 54.74 LIG 0.28  HD
ENDBRANCH 24 28
ENDBRANCH 22 24
ENDBRANCH 14 20
ENDBRANCH 12 14
ENDBRANCH 6 10
ENDBRANCH 4 6
ENDBRANCH 1 2
BRANCH 1 32
ATOM     32  CB  THR F   4      31.576 -24.092  39.997  1.00 51.21 LIG 0.15  C 
ATOM     33  CG2 THR F   4      32.000 -24.693  41.337  1.00 50.61 LIG 0.04  C 
BRANCH 32 34
ATOM     34 OG1  THR F   4      31.237 -22.710  40.152  1.00 51.15 LIG-0.39  OA
ATOM     35 HG1  THR F   4      31.720 -22.244  39.647  1.00 51.15 LIG 0.21  HD
ENDBRANCH 32 34
ENDBRANCH 1 32
BRANCH 1 36
ATOM     36  C   THR F   4      33.813 -23.263  39.342  1.00 49.53 LIG 0.24  C 
ATOM     37  N   THR F   5      34.694 -23.681  40.242  1.00 47.76 LIG-0.34  N 
ATOM     38 H    THR F   5      34.736 -24.497  40.512  1.00 47.76 LIG 0.16  HD
ATOM     39 O    THR F   4      33.832 -22.147  38.833  1.00 50.01 LIG-0.27  OA
BRANCH 37 40
ATOM     40  CA  THR F   5      35.683 -22.810  40.870  1.00 46.83 LIG 0.20  C 
BRANCH 40 41
ATOM     41  C   THR F   5      36.765 -22.471  39.843  1.00 45.74 LIG 0.24  C 
ATOM     42  N   PRO F   6      37.840 -21.802  40.285  1.00 45.40 LIG-0.34  N 
ATOM     43  CA  PRO F   6      38.997 -21.624  39.398  1.00 45.02 LIG 0.18  C 
ATOM     44  CD  PRO F   6      38.007 -21.086  41.564  1.00 45.45 LIG 0.13  C 
ATOM     45  CB  PRO F   6      40.017 -20.897  40.278  1.00 45.11 LIG 0.04  C 
ATOM     46  CG  PRO F   6      39.201 -20.179  41.299  1.00 45.75 LIG 0.02  C 
ATOM     47 O    THR F   5      36.620 -22.795  38.663  1.00 44.21 LIG-0.27  OA
BRANCH 43 48
ATOM     48  C   PRO F   6      39.536 -22.987  38.999  1.00 45.08 LIG 0.24  C 
ATOM     49  N   CYS F   7      39.262 -24.023  39.791  1.00 44.40 LIG-0.34  N 
ATOM     50 H    CYS F   7      38.738 -24.003  40.472  1.00 44.40 LIG 0.16  HD
ATOM     51 O    PRO F   6      40.214 -23.083  37.974  1.00 44.91 LIG-0.27  OA
BRANCH 49 52
ATOM     52  CA  CYS F   7      39.887 -25.313  39.513  1.00 45.02 LIG 0.19  C 
BRANCH 52 53
ATOM     53  CB  CYS F   7      41.415 -25.207  39.643  1.00 44.51 LIG 0.11  C 
BRANCH 53 54
ATOM     54 SG   CYS F   7      42.227 -25.076  37.991  1.00 46.73 LIG-0.18  SA
ATOM     55 HG   CYS F   7      41.450 -24.620  37.198  1.00 46.73 LIG 0.10  HD
ENDBRANCH 53 54
ENDBRANCH 52 53
BRANCH 52 56
ATOM     56  C   CYS F   7      39.255 -26.486  40.288  1.00 45.05 LIG 0.20  C 
ATOM     57 OXT  CYS F   7      39.740 -27.627  40.263  1.00 44.33 LIG-0.65  OA
ATOM     58 O    CYS F   7      38.194 -26.287  40.912  1.00 44.51 LIG-0.65  OA
ENDBRANCH 52 56
ENDBRANCH 49 52
ENDBRANCH 43 48
ENDBRANCH 40 41
BRANCH 40 59
ATOM     59  CB  THR F   5      36.338 -23.527  42.063  1.00 46.83 LIG 0.15  C 
ATOM     60  CG2 THR F   5      35.828 -23.009  43.400  1.00 46.88 LIG 0.04  C 
BRANCH 59 61
ATOM     61 OG1  THR F   5      36.107 -24.938  41.953  1.00 48.31 LIG-0.39  OA
ATOM     62 HG1  THR F   5      36.824 -25.324  41.745  1.00 48.31 LIG 0.21  HD
ENDBRANCH 59 61
ENDBRANCH 40 59
ENDBRANCH 37 40
ENDBRANCH 1 36
TORSDOF 26
ENDMDL
MODEL 52
USER: ADFR SOLUTION from run 65
USER: SCORE 16.644039 LL:  -6.274 LR: -11.921 RR:   0.000 FEB:  -4.165
USER: RMSD 5.167060
USER: SEED 64
USER: STATUS no improvement in best in 4 clusters for 5 generations
USER: GENES 28
USER: genes 0 Translation |==|  0.41195 0.55080 0.64225
USER: genes 1 Rotation |==|  0.71014 0.69154 0.26853 0.83997
USER: genes 2 Torsion [C]-CA--N-[C] |==|  0.83732
USER: genes 3 Torsion [N]-C--CA-[N] |==|  0.45494
USER: genes 4 Torsion [C]-CA--CB-[SG] |==|  0.21049
USER: genes 5 Torsion [CA]-CB--SG-[HG] |==|  0.04659
USER: genes 6 Torsion [C]-CA--N-[C] |==|  0.61934
USER: genes 7 Torsion [N]-C--CA-[N] |==|  0.48331
USER: genes 8 Torsion [C]-CA--CB-[CG] |==|  0.56007
USER: genes 9 Torsion [CA]-CB--CG-[CD] |==|  0.22886
USER: genes 10 Torsion [CB]-CG--CD-[OE1] |==|  0.70130
USER: genes 11 Torsion [C]-CA--N-[C] |==|  0.78581
USER: genes 12 Torsion [N]-C--CA-[N] |==|  0.86687
USER: genes 13 Torsion [C]-CA--CB-[OG] |==|  0.69276
USER: genes 14 Torsion [CA]-CB--OG-[HG] |==|  0.20317
USER: genes 15 Torsion [C]-CA--N-[H1] |==|  0.80965
USER: genes 16 Torsion [N]-CA--CB-[OG1] |==|  0.94483
USER: genes 17 Torsion [CA]-CB--OG1-[HG1] |==|  0.03259
USER: genes 18 Torsion [N]-CA--C-[N] |==|  0.35543
USER: genes 19 Torsion [C]-N--CA-[CB] |==|  0.43767
USER: genes 20 Torsion [N]-CA--C-[N] |==|  0.90300
USER: genes 21 Torsion [N]-CA--C-[N] |==|  0.93313
USER: genes 22 Torsion [C]-N--CA-[CB] |==|  0.35723
USER: genes 23 Torsion [N]-CA--CB-[SG] |==|  0.88934
USER: genes 24 Torsion [CA]-CB--SG-[HG] |==|  0.64611
USER: genes 25 Torsion [N]-CA--C-[OXT] |==|  0.48777
USER: genes 26 Torsion [N]-CA--CB-[OG1] |==|  0.93013
USER: genes 27 Torsion [CA]-CB--OG1-[HG1] |==|  0.90636
ROOT
ATOM      1  CA  THR F   4      37.927 -26.250  37.570  1.00 50.77 LIG 0.20  C 
ENDROOT
BRANCH 1 2
ATOM      2  N   THR F   4      38.360 -26.531  36.199  1.00 51.40 LIG-0.34  N 
ATOM      3 H    THR F   4      37.739 -26.445  35.610  1.00 51.40 LIG 0.16  HD
ATOM      4  C   CYS F   3      39.613 -26.889  35.905  1.00 52.18 LIG 0.24  C 
ATOM      5 O    CYS F   3      40.526 -26.896  36.735  1.00 51.89 LIG-0.27  OA
BRANCH 4 6
ATOM      6  CA  CYS F   3      39.902 -27.251  34.444  1.00 52.92 LIG 0.18  C 
BRANCH 6 7
ATOM      7  CB  CYS F   3      39.299 -28.616  34.081  1.00 52.86 LIG 0.10  C 
BRANCH 7 8
ATOM      8 SG   CYS F   3      37.488 -28.596  33.833  1.00 55.16 LIG-0.18  SA
ATOM      9 HG   CYS F   3      37.118 -27.466  33.676  1.00 55.16 LIG 0.10  HD
ENDBRANCH 7 8
ENDBRANCH 6 7
BRANCH 6 10
ATOM     10  N   CYS F   3      41.350 -27.237  34.218  1.00 53.02 LIG-0.34  N 
ATOM     11 H    CYS F   3      41.807 -27.605  34.847  1.00 53.02 LIG 0.16  HD
ATOM     12  C   GLU F   2      41.899 -26.699  33.131  1.00 53.57 LIG 0.24  C 
ATOM     13 O    GLU F   2      41.240 -26.316  32.158  1.00 53.07 LIG-0.27  OA
BRANCH 12 14
ATOM     14  CA  GLU F   2      43.420 -26.526  33.154  1.00 54.00 LIG 0.18  C 
BRANCH 14 15
ATOM     15  CB  GLU F   2      43.733 -25.551  34.299  1.00 54.10 LIG 0.04  C 
BRANCH 15 16
ATOM     16  CG  GLU F   2      45.066 -24.818  34.237  1.00 55.55 LIG 0.12  C 
BRANCH 16 17
ATOM     17  CD  GLU F   2      45.015 -23.582  33.332  1.00 57.36 LIG 0.17  C 
ATOM     18 OE1  GLU F   2      45.590 -23.594  32.217  1.00 58.39 LIG-0.65  OA
ATOM     19 OE2  GLU F   2      44.379 -22.582  33.726  1.00 58.95 LIG-0.65  OA
ENDBRANCH 16 17
ENDBRANCH 15 16
ENDBRANCH 14 15
BRANCH 14 20
ATOM     20  N   GLU F   2      43.980 -26.058  31.877  1.00 53.99 LIG-0.35  N 
ATOM     21 H    GLU F   2      44.184 -25.223  31.883  1.00 53.99 LIG 0.16  HD
ATOM     22  C   SER F   1      44.162 -26.834  30.804  1.00 54.35 LIG 0.25  C 
ATOM     23 O    SER F   1      43.780 -28.009  30.729  1.00 54.45 LIG-0.27  OA
BRANCH 22 24
ATOM     24  CA  SER F   1      44.866 -26.173  29.612  1.00 54.58 LIG 0.30  C 
BRANCH 24 25
ATOM     25  CB  SER F   1      46.371 -26.049  29.882  1.00 54.63 LIG 0.21  C 
BRANCH 25 26
ATOM     26 OG   SER F   1      46.744 -24.690  30.064  1.00 54.91 LIG-0.40  OA
ATOM     27 HG   SER F   1      46.472 -24.422  30.812  1.00 54.91 LIG 0.21  HD
ENDBRANCH 25 26
ENDBRANCH 24 25
BRANCH 24 28
ATOM     28  N   SER F   1      44.279 -24.838  29.284  1.00 54.74 LIG-0.06  N 
ATOM     29 H1   SER F   1      43.456 -24.946  28.961  1.00 54.74 LIG 0.28  HD
ATOM     30 H2   SER F   1      44.245 -24.339  30.021  1.00 54.74 LIG 0.28  HD
ATOM     31 H3   SER F   1      44.785 -24.432  28.675  1.00 54.74 LIG 0.28  HD
ENDBRANCH 24 28
ENDBRANCH 22 24
ENDBRANCH 14 20
ENDBRANCH 12 14
ENDBRANCH 6 10
ENDBRANCH 4 6
ENDBRANCH 1 2
BRANCH 1 32
ATOM     32  CB  THR F   4      36.429 -25.914  37.683  1.00 51.21 LIG 0.15  C 
ATOM     33  CG2 THR F   4      36.218 -24.809  38.719  1.00 50.61 LIG 0.04  C 
BRANCH 32 34
ATOM     34 OG1  THR F   4      35.922 -25.508  36.407  1.00 51.15 LIG-0.39  OA
ATOM     35 HG1  THR F   4      36.488 -25.682  35.811  1.00 51.15 LIG 0.21  HD
ENDBRANCH 32 34
ENDBRANCH 1 32
BRANCH 1 36
ATOM     36  C   THR F   4      38.188 -27.504  38.387  1.00 49.53 LIG 0.24  C 
ATOM     37  N   THR F   5      38.883 -27.345  39.507  1.00 47.76 LIG-0.34  N 
ATOM     38 H    THR F   5      39.070 -26.572  39.835  1.00 47.76 LIG 0.16  HD
ATOM     39 O    THR F   4      37.783 -28.589  37.983  1.00 50.01 LIG-0.27  OA
BRANCH 37 40
ATOM     40  CA  THR F   5      39.405 -28.454  40.299  1.00 46.83 LIG 0.20  C 
BRANCH 40 41
ATOM     41  C   THR F   5      38.296 -28.970  41.216  1.00 45.74 LIG 0.24  C 
ATOM     42  N   PRO F   6      37.437 -28.065  41.708  1.00 45.40 LIG-0.34  N 
ATOM     43  CA  PRO F   6      36.239 -28.518  42.427  1.00 45.02 LIG 0.18  C 
ATOM     44  CD  PRO F   6      37.572 -26.595  41.727  1.00 45.45 LIG 0.13  C 
ATOM     45  CB  PRO F   6      35.499 -27.217  42.749  1.00 45.11 LIG 0.04  C 
ATOM     46  CG  PRO F   6      36.559 -26.169  42.780  1.00 45.75 LIG 0.02  C 
ATOM     47 O    THR F   5      38.229 -30.169  41.492  1.00 44.21 LIG-0.27  OA
BRANCH 43 48
ATOM     48  C   PRO F   6      35.396 -29.378  41.502  1.00 45.08 LIG 0.24  C 
ATOM     49  N   CYS F   7      35.533 -29.203  40.188  1.00 44.40 LIG-0.34  N 
ATOM     50 H    CYS F   7      36.119 -28.698  39.813  1.00 44.40 LIG 0.16  HD
ATOM     51 O    PRO F   6      34.610 -30.190  41.995  1.00 44.91 LIG-0.27  OA
BRANCH 49 52
ATOM     52  CA  CYS F   7      34.634 -29.911  39.281  1.00 45.02 LIG 0.19  C 
BRANCH 52 53
ATOM     53  CB  CYS F   7      33.998 -28.927  38.285  1.00 44.51 LIG 0.11  C 
BRANCH 53 54
ATOM     54 SG   CYS F   7      33.548 -27.335  39.102  1.00 46.73 LIG-0.18  SA
ATOM     55 HG   CYS F   7      32.398 -27.079  38.875  1.00 46.73 LIG 0.10  HD
ENDBRANCH 53 54
ENDBRANCH 52 53
BRANCH 52 56
ATOM     56  C   CYS F   7      35.264 -31.161  38.636  1.00 45.05 LIG 0.20  C 
ATOM     57 OXT  CYS F   7      34.613 -31.921  37.903  1.00 44.33 LIG-0.65  OA
ATOM     58 O    CYS F   7      36.448 -31.442  38.908  1.00 44.51 LIG-0.65  OA
ENDBRANCH 52 56
ENDBRANCH 49 52
ENDBRANCH 43 48
ENDBRANCH 40 41
BRANCH 40 59
ATOM     59  CB  THR F   5      40.584 -27.978  41.164  1.00 46.83 LIG 0.15  C 
ATOM     60  CG2 THR F   5      41.620 -29.071  41.384  1.00 46.88 LIG 0.04  C 
BRANCH 59 61
ATOM     61 OG1  THR F   5      41.190 -26.832  40.551  1.00 48.31 LIG-0.39  OA
ATOM     62 HG1  THR F   5      41.142 -26.903  39.715  1.00 48.31 LIG 0.21  HD
ENDBRANCH 59 61
ENDBRANCH 40 59
ENDBRANCH 37 40
ENDBRANCH 1 36
TORSDOF 26
ENDMDL
MODEL 53
USER: ADFR SOLUTION from run 104
USER: SCORE 16.978955 LL:  -5.459 LR: -11.906 RR:   0.000 FEB:  -4.151
USER: RMSD 5.155364
USER: SEED 103
USER: STATUS searching
USER: GENES 28
USER: genes 0 Translation |==|  0.40069 0.58995 0.64960
USER: genes 1 Rotation |==|  0.70100 0.66695 0.26172 0.85349
USER: genes 2 Torsion [C]-CA--N-[C] |==|  0.83243
USER: genes 3 Torsion [N]-C--CA-[N] |==|  0.45570
USER: genes 4 Torsion [C]-CA--CB-[SG] |==|  0.31231
USER: genes 5 Torsion [CA]-CB--SG-[HG] |==|  0.97555
USER: genes 6 Torsion [C]-CA--N-[C] |==|  0.61902
USER: genes 7 Torsion [N]-C--CA-[N] |==|  0.48262
USER: genes 8 Torsion [C]-CA--CB-[CG] |==|  0.56626
USER: genes 9 Torsion [CA]-CB--CG-[CD] |==|  0.23352
USER: genes 10 Torsion [CB]-CG--CD-[OE1] |==|  0.17148
USER: genes 11 Torsion [C]-CA--N-[C] |==|  0.58366
USER: genes 12 Torsion [N]-C--CA-[N] |==|  0.02638
USER: genes 13 Torsion [C]-CA--CB-[OG] |==|  0.69810
USER: genes 14 Torsion [CA]-CB--OG-[HG] |==|  0.30309
USER: genes 15 Torsion [C]-CA--N-[H1] |==|  0.83368
USER: genes 16 Torsion [N]-CA--CB-[OG1] |==|  0.93337
USER: genes 17 Torsion [CA]-CB--OG1-[HG1] |==|  0.02889
USER: genes 18 Torsion [N]-CA--C-[N] |==|  0.91208
USER: genes 19 Torsion [C]-N--CA-[CB] |==|  0.85280
USER: genes 20 Torsion [N]-CA--C-[N] |==|  0.38551
USER: genes 21 Torsion [N]-CA--C-[N] |==|  0.29101
USER: genes 22 Torsion [C]-N--CA-[CB] |==|  0.44375
USER: genes 23 Torsion [N]-CA--CB-[SG] |==|  0.17177
USER: genes 24 Torsion [CA]-CB--SG-[HG] |==|  0.16865
USER: genes 25 Torsion [N]-CA--C-[OXT] |==|  0.79075
USER: genes 26 Torsion [N]-CA--CB-[OG1] |==|  0.88963
USER: genes 27 Torsion [CA]-CB--OG1-[HG1] |==|  0.16937
ROOT
ATOM      1  CA  THR F   4      37.631 -25.604  37.746  1.00 50.77 LIG 0.20  C 
ENDROOT
BRANCH 1 2
ATOM      2  N   THR F   4      38.137 -26.034  36.440  1.00 51.40 LIG-0.34  N 
ATOM      3 H    THR F   4      37.547 -26.021  35.814  1.00 51.40 LIG 0.16  HD
ATOM      4  C   CYS F   3      39.405 -26.409  36.253  1.00 52.18 LIG 0.24  C 
ATOM      5 O    CYS F   3      40.273 -26.313  37.124  1.00 51.89 LIG-0.27  OA
BRANCH 4 6
ATOM      6  CA  CYS F   3      39.771 -26.931  34.860  1.00 52.92 LIG 0.18  C 
BRANCH 6 7
ATOM      7  CB  CYS F   3      39.188 -28.332  34.620  1.00 52.86 LIG 0.10  C 
BRANCH 7 8
ATOM      8 SG   CYS F   3      37.877 -28.394  33.348  1.00 55.16 LIG-0.18  SA
ATOM      9 HG   CYS F   3      37.574 -27.277  33.031  1.00 55.16 LIG 0.10  HD
ENDBRANCH 7 8
ENDBRANCH 6 7
BRANCH 6 10
ATOM     10  N   CYS F   3      41.229 -26.935  34.710  1.00 53.02 LIG-0.34  N 
ATOM     11 H    CYS F   3      41.652 -27.226  35.400  1.00 53.02 LIG 0.16  HD
ATOM     12  C   GLU F   2      41.835 -26.520  33.599  1.00 53.57 LIG 0.24  C 
ATOM     13 O    GLU F   2      41.229 -26.256  32.556  1.00 53.07 LIG-0.27  OA
BRANCH 12 14
ATOM     14  CA  GLU F   2      43.352 -26.337  33.683  1.00 54.00 LIG 0.18  C 
BRANCH 14 15
ATOM     15  CB  GLU F   2      43.604 -25.231  34.719  1.00 54.10 LIG 0.04  C 
BRANCH 15 16
ATOM     16  CG  GLU F   2      44.916 -24.467  34.609  1.00 55.55 LIG 0.12  C 
BRANCH 16 17
ATOM     17  CD  GLU F   2      44.843 -23.316  33.601  1.00 57.36 LIG 0.17  C 
ATOM     18 OE1  GLU F   2      44.038 -22.371  33.781  1.00 58.39 LIG-0.65  OA
ATOM     19 OE2  GLU F   2      45.610 -23.338  32.615  1.00 58.95 LIG-0.65  OA
ENDBRANCH 16 17
ENDBRANCH 15 16
ENDBRANCH 14 15
BRANCH 14 20
ATOM     20  N   GLU F   2      43.980 -26.020  32.391  1.00 53.99 LIG-0.35  N 
ATOM     21 H    GLU F   2      43.461 -25.585  31.861  1.00 53.99 LIG 0.16  HD
ATOM     22  C   SER F   1      45.227 -26.363  32.054  1.00 54.35 LIG 0.25  C 
ATOM     23 O    SER F   1      45.958 -27.079  32.751  1.00 54.45 LIG-0.27  OA
BRANCH 22 24
ATOM     24  CA  SER F   1      45.725 -25.834  30.703  1.00 54.58 LIG 0.30  C 
BRANCH 24 25
ATOM     25  CB  SER F   1      47.128 -25.233  30.848  1.00 54.63 LIG 0.21  C 
BRANCH 25 26
ATOM     26 OG   SER F   1      47.090 -23.817  30.734  1.00 54.91 LIG-0.40  OA
ATOM     27 HG   SER F   1      47.238 -23.471  31.485  1.00 54.91 LIG 0.21  HD
ENDBRANCH 25 26
ENDBRANCH 24 25
BRANCH 24 28
ATOM     28  N   SER F   1      44.783 -24.834  30.112  1.00 54.74 LIG-0.06  N 
ATOM     29 H1   SER F   1      43.988 -25.213  29.987  1.00 54.74 LIG 0.28  HD
ATOM     30 H2   SER F   1      44.699 -24.142  30.665  1.00 54.74 LIG 0.28  HD
ATOM     31 H3   SER F   1      45.102 -24.552  29.331  1.00 54.74 LIG 0.28  HD
ENDBRANCH 24 28
ENDBRANCH 22 24
ENDBRANCH 14 20
ENDBRANCH 12 14
ENDBRANCH 6 10
ENDBRANCH 4 6
ENDBRANCH 1 2
BRANCH 1 32
ATOM     32  CB  THR F   4      36.138 -25.231  37.734  1.00 51.21 LIG 0.15  C 
ATOM     33  CG2 THR F   4      35.877 -24.088  38.714  1.00 50.61 LIG 0.04  C 
BRANCH 32 34
ATOM     34 OG1  THR F   4      35.738 -24.859  36.410  1.00 51.15 LIG-0.39  OA
ATOM     35 HG1  THR F   4      36.351 -25.049  35.868  1.00 51.15 LIG 0.21  HD
ENDBRANCH 32 34
ENDBRANCH 1 32
BRANCH 1 36
ATOM     36  C   THR F   4      37.815 -26.771  38.702  1.00 49.53 LIG 0.24  C 
ATOM     37  N   THR F   5      37.721 -27.986  38.174  1.00 47.76 LIG-0.34  N 
ATOM     38 H    THR F   5      37.691 -28.126  37.326  1.00 47.76 LIG 0.16  HD
ATOM     39 O    THR F   4      38.010 -26.557  39.894  1.00 50.01 LIG-0.27  OA
BRANCH 37 40
ATOM     40  CA  THR F   5      37.659 -29.209  38.968  1.00 46.83 LIG 0.20  C 
BRANCH 40 41
ATOM     41  C   THR F   5      36.350 -29.219  39.757  1.00 45.74 LIG 0.24  C 
ATOM     42  N   PRO F   6      35.691 -30.385  39.835  1.00 45.40 LIG-0.34  N 
ATOM     43  CA  PRO F   6      34.540 -30.508  40.740  1.00 45.02 LIG 0.18  C 
ATOM     44  CD  PRO F   6      35.892 -31.603  39.028  1.00 45.45 LIG 0.13  C 
ATOM     45  CB  PRO F   6      34.126 -31.974  40.600  1.00 45.11 LIG 0.04  C 
ATOM     46  CG  PRO F   6      34.602 -32.380  39.247  1.00 45.75 LIG 0.02  C 
ATOM     47 O    THR F   5      35.931 -28.182  40.274  1.00 44.21 LIG-0.27  OA
BRANCH 43 48
ATOM     48  C   PRO F   6      34.992 -30.230  42.164  1.00 45.08 LIG 0.24  C 
ATOM     49  N   CYS F   7      34.668 -29.056  42.704  1.00 44.40 LIG-0.34  N 
ATOM     50 H    CYS F   7      34.153 -28.469  42.345  1.00 44.40 LIG 0.16  HD
ATOM     51 O    PRO F   6      35.651 -31.087  42.757  1.00 44.91 LIG-0.27  OA
BRANCH 49 52
ATOM     52  CA  CYS F   7      35.211 -28.704  44.013  1.00 45.02 LIG 0.19  C 
BRANCH 52 53
ATOM     53  CB  CYS F   7      35.148 -27.183  44.225  1.00 44.51 LIG 0.11  C 
BRANCH 53 54
ATOM     54 SG   CYS F   7      33.409 -26.567  44.196  1.00 46.73 LIG-0.18  SA
ATOM     55 HG   CYS F   7      32.784 -27.088  45.078  1.00 46.73 LIG 0.10  HD
ENDBRANCH 53 54
ENDBRANCH 52 53
BRANCH 52 56
ATOM     56  C   CYS F   7      34.628 -29.539  45.170  1.00 45.05 LIG 0.20  C 
ATOM     57 OXT  CYS F   7      33.485 -29.341  45.612  1.00 44.33 LIG-0.65  OA
ATOM     58 O    CYS F   7      35.350 -30.400  45.710  1.00 44.51 LIG-0.65  OA
ENDBRANCH 52 56
ENDBRANCH 49 52
ENDBRANCH 43 48
ENDBRANCH 40 41
BRANCH 40 59
ATOM     59  CB  THR F   5      38.836 -29.259  39.957  1.00 46.83 LIG 0.15  C 
ATOM     60  CG2 THR F   5      39.075 -30.658  40.503  1.00 46.88 LIG 0.04  C 
BRANCH 59 61
ATOM     61 OG1  THR F   5      40.018 -28.765  39.312  1.00 48.31 LIG-0.39  OA
ATOM     62 HG1  THR F   5      39.897 -27.968  39.077  1.00 48.31 LIG 0.21  HD
ENDBRANCH 59 61
ENDBRANCH 40 59
ENDBRANCH 37 40
ENDBRANCH 1 36
TORSDOF 26
ENDMDL
MODEL 54
USER: ADFR SOLUTION from run 15
USER: SCORE 15.387981 LL:  -5.847 LR: -11.908 RR:   0.000 FEB:  -4.152
USER: RMSD 12.832375
USER: SEED 769796
USER: STATUS no improvement in best in 12 clusters for 5 generations
USER: GENES 28
USER: genes 0 Translation |==|  0.39957 0.52227 0.65448
USER: genes 1 Rotation |==|  0.45936 0.01878 0.61829 0.55273
USER: genes 2 Torsion [C]-CA--N-[C] |==|  0.83748
USER: genes 3 Torsion [N]-C--CA-[N] |==|  0.10879
USER: genes 4 Torsion [C]-CA--CB-[SG] |==|  0.58389
USER: genes 5 Torsion [CA]-CB--SG-[HG] |==|  0.28782
USER: genes 6 Torsion [C]-CA--N-[C] |==|  0.75387
USER: genes 7 Torsion [N]-C--CA-[N] |==|  0.28079
USER: genes 8 Torsion [C]-CA--CB-[CG] |==|  0.48605
USER: genes 9 Torsion [CA]-CB--CG-[CD] |==|  0.16212
USER: genes 10 Torsion [CB]-CG--CD-[OE1] |==|  0.24412
USER: genes 11 Torsion [C]-CA--N-[C] |==|  0.73889
USER: genes 12 Torsion [N]-C--CA-[N] |==|  0.05825
USER: genes 13 Torsion [C]-CA--CB-[OG] |==|  0.65565
USER: genes 14 Torsion [CA]-CB--OG-[HG] |==|  0.10580
USER: genes 15 Torsion [C]-CA--N-[H1] |==|  0.10912
USER: genes 16 Torsion [N]-CA--CB-[OG1] |==|  0.58822
USER: genes 17 Torsion [CA]-CB--OG1-[HG1] |==|  0.75996
USER: genes 18 Torsion [N]-CA--C-[N] |==|  0.43292
USER: genes 19 Torsion [C]-N--CA-[CB] |==|  0.43879
USER: genes 20 Torsion [N]-CA--C-[N] |==|  0.29956
USER: genes 21 Torsion [N]-CA--C-[N] |==|  0.84285
USER: genes 22 Torsion [C]-N--CA-[CB] |==|  0.19444
USER: genes 23 Torsion [N]-CA--CB-[SG] |==|  0.40667
USER: genes 24 Torsion [CA]-CB--SG-[HG] |==|  0.84510
USER: genes 25 Torsion [N]-CA--C-[OXT] |==|  0.19691
USER: genes 26 Torsion [N]-CA--CB-[OG1] |==|  0.81885
USER: genes 27 Torsion [CA]-CB--OG1-[HG1] |==|  0.99104
ROOT
ATOM      1  CA  THR F   4      37.602 -26.721  37.863  1.00 50.77 LIG 0.20  C 
ENDROOT
BRANCH 1 2
ATOM      2  N   THR F   4      36.244 -26.300  38.222  1.00 51.40 LIG-0.34  N 
ATOM      3 H    THR F   4      35.935 -26.680  38.929  1.00 51.40 LIG 0.16  HD
ATOM      4  C   CYS F   3      35.561 -25.404  37.504  1.00 52.18 LIG 0.24  C 
ATOM      5 O    CYS F   3      36.053 -24.776  36.563  1.00 51.89 LIG-0.27  OA
BRANCH 4 6
ATOM      6  CA  CYS F   3      34.116 -25.134  37.935  1.00 52.92 LIG 0.18  C 
BRANCH 6 7
ATOM      7  CB  CYS F   3      33.598 -23.814  37.344  1.00 52.86 LIG 0.10  C 
BRANCH 7 8
ATOM      8 SG   CYS F   3      32.354 -22.963  38.378  1.00 55.16 LIG-0.18  SA
ATOM      9 HG   CYS F   3      32.868 -22.035  38.940  1.00 55.16 LIG 0.10  HD
ENDBRANCH 7 8
ENDBRANCH 6 7
BRANCH 6 10
ATOM     10  N   CYS F   3      34.039 -25.121  39.399  1.00 53.02 LIG-0.34  N 
ATOM     11 H    CYS F   3      34.147 -24.343  39.749  1.00 53.02 LIG 0.16  HD
ATOM     12  C   GLU F   2      33.822 -26.224  40.113  1.00 53.57 LIG 0.24  C 
ATOM     13 O    GLU F   2      33.508 -27.307  39.608  1.00 53.07 LIG-0.27  OA
BRANCH 12 14
ATOM     14  CA  GLU F   2      34.026 -26.103  41.625  1.00 54.00 LIG 0.18  C 
BRANCH 14 15
ATOM     15  CB  GLU F   2      34.812 -27.349  42.062  1.00 54.10 LIG 0.04  C 
BRANCH 15 16
ATOM     16  CG  GLU F   2      35.249 -27.413  43.519  1.00 55.55 LIG 0.12  C 
BRANCH 16 17
ATOM     17  CD  GLU F   2      34.067 -27.330  44.492  1.00 57.36 LIG 0.17  C 
ATOM     18 OE1  GLU F   2      33.464 -28.373  44.840  1.00 58.39 LIG-0.65  OA
ATOM     19 OE2  GLU F   2      33.737 -26.209  44.933  1.00 58.95 LIG-0.65  OA
ENDBRANCH 16 17
ENDBRANCH 15 16
ENDBRANCH 14 15
BRANCH 14 20
ATOM     20  N   GLU F   2      32.771 -25.963  42.380  1.00 53.99 LIG-0.35  N 
ATOM     21 H    GLU F   2      32.408 -26.717  42.575  1.00 53.99 LIG 0.16  HD
ATOM     22  C   SER F   1      32.233 -24.793  42.736  1.00 54.35 LIG 0.25  C 
ATOM     23 O    SER F   1      32.674 -23.692  42.379  1.00 54.45 LIG-0.27  OA
BRANCH 22 24
ATOM     24  CA  SER F   1      30.981 -24.873  43.619  1.00 54.58 LIG 0.30  C 
BRANCH 24 25
ATOM     25  CB  SER F   1      30.962 -23.718  44.627  1.00 54.63 LIG 0.21  C 
BRANCH 25 26
ATOM     26 OG   SER F   1      30.863 -24.205  45.958  1.00 54.91 LIG-0.40  OA
ATOM     27 HG   SER F   1      31.323 -24.904  46.036  1.00 54.91 LIG 0.21  HD
ENDBRANCH 25 26
ENDBRANCH 24 25
BRANCH 24 28
ATOM     28  N   SER F   1      30.877 -26.188  44.325  1.00 54.74 LIG-0.06  N 
ATOM     29 H1   SER F   1      31.685 -26.446  44.594  1.00 54.74 LIG 0.28  HD
ATOM     30 H2   SER F   1      30.342 -26.105  45.031  1.00 54.74 LIG 0.28  HD
ATOM     31 H3   SER F   1      30.542 -26.797  43.769  1.00 54.74 LIG 0.28  HD
ENDBRANCH 24 28
ENDBRANCH 22 24
ENDBRANCH 14 20
ENDBRANCH 12 14
ENDBRANCH 6 10
ENDBRANCH 4 6
ENDBRANCH 1 2
BRANCH 1 32
ATOM     32  CB  THR F   4      38.174 -27.804  38.794  1.00 51.21 LIG 0.15  C 
ATOM     33  CG2 THR F   4      37.823 -29.192  38.258  1.00 50.61 LIG 0.04  C 
BRANCH 32 34
ATOM     34 OG1  THR F   4      39.593 -27.654  38.906  1.00 51.15 LIG-0.39  OA
ATOM     35 HG1  THR F   4      39.969 -28.066  38.277  1.00 51.15 LIG 0.21  HD
ENDBRANCH 32 34
ENDBRANCH 1 32
BRANCH 1 36
ATOM     36  C   THR F   4      37.534 -27.297  36.459  1.00 49.53 LIG 0.24  C 
ATOM     37  N   THR F   5      38.662 -27.279  35.759  1.00 47.76 LIG-0.34  N 
ATOM     38 H    THR F   5      39.424 -27.080  36.106  1.00 47.76 LIG 0.16  HD
ATOM     39 O    THR F   4      36.468 -27.721  36.026  1.00 50.01 LIG-0.27  OA
BRANCH 37 40
ATOM     40  CA  THR F   5      38.735 -27.592  34.335  1.00 46.83 LIG 0.20  C 
BRANCH 40 41
ATOM     41  C   THR F   5      38.799 -29.110  34.167  1.00 45.74 LIG 0.24  C 
ATOM     42  N   PRO F   6      37.705 -29.720  33.687  1.00 45.40 LIG-0.34  N 
ATOM     43  CA  PRO F   6      37.770 -31.139  33.314  1.00 45.02 LIG 0.18  C 
ATOM     44  CD  PRO F   6      36.338 -29.178  33.565  1.00 45.45 LIG 0.13  C 
ATOM     45  CB  PRO F   6      36.376 -31.429  32.753  1.00 45.11 LIG 0.04  C 
ATOM     46  CG  PRO F   6      35.484 -30.427  33.404  1.00 45.75 LIG 0.02  C 
ATOM     47 O    THR F   5      39.818 -29.725  34.484  1.00 44.21 LIG-0.27  OA
BRANCH 43 48
ATOM     48  C   PRO F   6      38.815 -31.323  32.228  1.00 45.08 LIG 0.24  C 
ATOM     49  N   CYS F   7      38.683 -30.615  31.108  1.00 44.40 LIG-0.34  N 
ATOM     50 H    CYS F   7      38.098 -29.999  30.976  1.00 44.40 LIG 0.16  HD
ATOM     51 O    PRO F   6      39.732 -32.127  32.413  1.00 44.91 LIG-0.27  OA
BRANCH 49 52
ATOM     52  CA  CYS F   7      39.587 -30.878  29.991  1.00 45.02 LIG 0.19  C 
BRANCH 52 53
ATOM     53  CB  CYS F   7      39.278 -32.247  29.365  1.00 44.51 LIG 0.11  C 
BRANCH 53 54
ATOM     54 SG   CYS F   7      39.577 -32.241  27.544  1.00 46.73 LIG-0.18  SA
ATOM     55 HG   CYS F   7      38.934 -31.364  27.036  1.00 46.73 LIG 0.10  HD
ENDBRANCH 53 54
ENDBRANCH 52 53
BRANCH 52 56
ATOM     56  C   CYS F   7      39.678 -29.715  28.983  1.00 45.05 LIG 0.20  C 
ATOM     57 OXT  CYS F   7      40.246 -28.648  29.260  1.00 44.33 LIG-0.65  OA
ATOM     58 O    CYS F   7      39.113 -29.837  27.878  1.00 44.51 LIG-0.65  OA
ENDBRANCH 52 56
ENDBRANCH 49 52
ENDBRANCH 43 48
ENDBRANCH 40 41
BRANCH 40 59
ATOM     59  CB  THR F   5      40.001 -26.970  33.721  1.00 46.83 LIG 0.15  C 
ATOM     60  CG2 THR F   5      40.233 -27.426  32.288  1.00 46.88 LIG 0.04  C 
BRANCH 59 61
ATOM     61 OG1  THR F   5      39.904 -25.540  33.781  1.00 48.31 LIG-0.39  OA
ATOM     62 HG1  THR F   5      39.157 -25.323  34.099  1.00 48.31 LIG 0.21  HD
ENDBRANCH 59 61
ENDBRANCH 40 59
ENDBRANCH 37 40
ENDBRANCH 1 36
TORSDOF 26
ENDMDL
MODEL 55
USER: ADFR SOLUTION from run 164
USER: SCORE 16.408489 LL:  -5.232 LR: -11.885 RR:   0.000 FEB:  -4.129
USER: RMSD 11.593338
USER: SEED 163
USER: STATUS no improvement in best in 12 clusters for 5 generations
USER: GENES 28
USER: genes 0 Translation |==|  0.37360 0.76732 0.72120
USER: genes 1 Rotation |==|  0.40095 0.86948 0.21627 0.65222
USER: genes 2 Torsion [C]-CA--N-[C] |==|  0.67600
USER: genes 3 Torsion [N]-C--CA-[N] |==|  0.99435
USER: genes 4 Torsion [C]-CA--CB-[SG] |==|  0.78282
USER: genes 5 Torsion [CA]-CB--SG-[HG] |==|  0.33451
USER: genes 6 Torsion [C]-CA--N-[C] |==|  0.77610
USER: genes 7 Torsion [N]-C--CA-[N] |==|  0.97651
USER: genes 8 Torsion [C]-CA--CB-[CG] |==|  0.38738
USER: genes 9 Torsion [CA]-CB--CG-[CD] |==|  0.57371
USER: genes 10 Torsion [CB]-CG--CD-[OE1] |==|  0.16343
USER: genes 11 Torsion [C]-CA--N-[C] |==|  0.80140
USER: genes 12 Torsion [N]-C--CA-[N] |==|  0.86252
USER: genes 13 Torsion [C]-CA--CB-[OG] |==|  0.61401
USER: genes 14 Torsion [CA]-CB--OG-[HG] |==|  0.81759
USER: genes 15 Torsion [C]-CA--N-[H1] |==|  0.52491
USER: genes 16 Torsion [N]-CA--CB-[OG1] |==|  0.96220
USER: genes 17 Torsion [CA]-CB--OG1-[HG1] |==|  0.29335
USER: genes 18 Torsion [N]-CA--C-[N] |==|  0.08699
USER: genes 19 Torsion [C]-N--CA-[CB] |==|  0.55000
USER: genes 20 Torsion [N]-CA--C-[N] |==|  0.35026
USER: genes 21 Torsion [N]-CA--C-[N] |==|  0.30509
USER: genes 22 Torsion [C]-N--CA-[CB] |==|  0.14920
USER: genes 23 Torsion [N]-CA--CB-[SG] |==|  0.59137
USER: genes 24 Torsion [CA]-CB--SG-[HG] |==|  0.78771
USER: genes 25 Torsion [N]-CA--C-[OXT] |==|  0.58474
USER: genes 26 Torsion [N]-CA--CB-[OG1] |==|  0.80983
USER: genes 27 Torsion [CA]-CB--OG1-[HG1] |==|  0.38128
ROOT
ATOM      1  CA  THR F   4      36.920 -22.677  39.465  1.00 50.77 LIG 0.20  C 
ENDROOT
BRANCH 1 2
ATOM      2  N   THR F   4      35.739 -23.471  39.114  1.00 51.40 LIG-0.34  N 
ATOM      3 H    THR F   4      35.655 -24.196  39.570  1.00 51.40 LIG 0.16  HD
ATOM      4  C   CYS F   3      34.878 -23.090  38.167  1.00 52.18 LIG 0.24  C 
ATOM      5 O    CYS F   3      34.938 -21.996  37.600  1.00 51.89 LIG-0.27  OA
BRANCH 4 6
ATOM      6  CA  CYS F   3      33.744 -24.065  37.833  1.00 52.92 LIG 0.18  C 
BRANCH 6 7
ATOM      7  CB  CYS F   3      32.370 -23.419  38.061  1.00 52.86 LIG 0.10  C 
BRANCH 7 8
ATOM      8 SG   CYS F   3      31.854 -23.347  39.814  1.00 55.16 LIG-0.18  SA
ATOM      9 HG   CYS F   3      31.678 -22.203  40.132  1.00 55.16 LIG 0.10  HD
ENDBRANCH 7 8
ENDBRANCH 6 7
BRANCH 6 10
ATOM     10  N   CYS F   3      33.896 -25.280  38.639  1.00 53.02 LIG-0.34  N 
ATOM     11 H    CYS F   3      33.391 -25.304  39.334  1.00 53.02 LIG 0.16  HD
ATOM     12  C   GLU F   2      34.743 -26.254  38.312  1.00 53.57 LIG 0.24  C 
ATOM     13 O    GLU F   2      35.346 -26.294  37.235  1.00 53.07 LIG-0.27  OA
BRANCH 12 14
ATOM     14  CA  GLU F   2      34.981 -27.330  39.375  1.00 54.00 LIG 0.18  C 
BRANCH 14 15
ATOM     15  CB  GLU F   2      34.428 -28.643  38.801  1.00 54.10 LIG 0.04  C 
BRANCH 15 16
ATOM     16  CG  GLU F   2      35.245 -29.904  39.049  1.00 55.55 LIG 0.12  C 
BRANCH 16 17
ATOM     17  CD  GLU F   2      35.022 -30.971  37.972  1.00 57.36 LIG 0.17  C 
ATOM     18 OE1  GLU F   2      35.269 -30.713  36.769  1.00 58.39 LIG-0.65  OA
ATOM     19 OE2  GLU F   2      34.607 -32.095  38.325  1.00 58.95 LIG-0.65  OA
ENDBRANCH 16 17
ENDBRANCH 15 16
ENDBRANCH 14 15
BRANCH 14 20
ATOM     20  N   GLU F   2      34.380 -27.014  40.679  1.00 53.99 LIG-0.35  N 
ATOM     21 H    GLU F   2      33.697 -27.503  40.863  1.00 53.99 LIG 0.16  HD
ATOM     22  C   SER F   1      34.831 -26.069  41.508  1.00 54.35 LIG 0.25  C 
ATOM     23 O    SER F   1      35.742 -25.280  41.226  1.00 54.45 LIG-0.27  OA
BRANCH 22 24
ATOM     24  CA  SER F   1      34.128 -25.980  42.869  1.00 54.58 LIG 0.30  C 
BRANCH 24 25
ATOM     25  CB  SER F   1      34.558 -27.144  43.770  1.00 54.63 LIG 0.21  C 
BRANCH 25 26
ATOM     26 OG   SER F   1      33.451 -27.668  44.489  1.00 54.91 LIG-0.40  OA
ATOM     27 HG   SER F   1      33.166 -27.088  45.027  1.00 54.91 LIG 0.21  HD
ENDBRANCH 25 26
ENDBRANCH 24 25
BRANCH 24 28
ATOM     28  N   SER F   1      32.640 -25.947  42.729  1.00 54.74 LIG-0.06  N 
ATOM     29 H1   SER F   1      32.270 -25.766  43.518  1.00 54.74 LIG 0.28  HD
ATOM     30 H2   SER F   1      32.411 -25.317  42.143  1.00 54.74 LIG 0.28  HD
ATOM     31 H3   SER F   1      32.350 -26.738  42.441  1.00 54.74 LIG 0.28  HD
ENDBRANCH 24 28
ENDBRANCH 22 24
ENDBRANCH 14 20
ENDBRANCH 12 14
ENDBRANCH 6 10
ENDBRANCH 4 6
ENDBRANCH 1 2
BRANCH 1 32
ATOM     32  CB  THR F   4      36.991 -22.312  40.958  1.00 51.21 LIG 0.15  C 
ATOM     33  CG2 THR F   4      37.381 -20.842  41.118  1.00 50.61 LIG 0.04  C 
BRANCH 32 34
ATOM     34 OG1  THR F   4      35.730 -22.567  41.585  1.00 51.15 LIG-0.39  OA
ATOM     35 HG1  THR F   4      35.786 -23.260  42.057  1.00 51.15 LIG 0.21  HD
ENDBRANCH 32 34
ENDBRANCH 1 32
BRANCH 1 36
ATOM     36  C   THR F   4      38.140 -23.519  39.130  1.00 49.53 LIG 0.24  C 
ATOM     37  N   THR F   5      38.016 -24.356  38.106  1.00 47.76 LIG-0.34  N 
ATOM     38 H    THR F   5      37.343 -24.343  37.571  1.00 47.76 LIG 0.16  HD
ATOM     39 O    THR F   4      39.155 -23.419  39.811  1.00 50.01 LIG-0.27  OA
BRANCH 37 40
ATOM     40  CA  THR F   5      39.000 -25.383  37.778  1.00 46.83 LIG 0.20  C 
BRANCH 40 41
ATOM     41  C   THR F   5      40.400 -24.785  37.912  1.00 45.74 LIG 0.24  C 
ATOM     42  N   PRO F   6      41.270 -25.431  38.703  1.00 45.40 LIG-0.34  N 
ATOM     43  CA  PRO F   6      42.681 -25.024  38.716  1.00 45.02 LIG 0.18  C 
ATOM     44  CD  PRO F   6      40.989 -26.485  39.698  1.00 45.45 LIG 0.13  C 
ATOM     45  CB  PRO F   6      43.339 -26.032  39.661  1.00 45.11 LIG 0.04  C 
ATOM     46  CG  PRO F   6      42.242 -26.487  40.562  1.00 45.75 LIG 0.02  C 
ATOM     47 O    THR F   5      40.686 -23.741  37.324  1.00 44.21 LIG-0.27  OA
BRANCH 43 48
ATOM     48  C   PRO F   6      43.256 -25.171  37.318  1.00 45.08 LIG 0.24  C 
ATOM     49  N   CYS F   7      43.547 -24.061  36.642  1.00 44.40 LIG-0.34  N 
ATOM     50 H    CYS F   7      43.513 -23.263  36.959  1.00 44.40 LIG 0.16  HD
ATOM     51 O    PRO F   6      43.416 -26.303  36.856  1.00 44.91 LIG-0.27  OA
BRANCH 49 52
ATOM     52  CA  CYS F   7      43.963 -24.168  35.246  1.00 45.02 LIG 0.19  C 
BRANCH 52 53
ATOM     53  CB  CYS F   7      42.928 -24.970  34.441  1.00 44.51 LIG 0.11  C 
BRANCH 53 54
ATOM     54 SG   CYS F   7      43.727 -25.945  33.094  1.00 46.73 LIG-0.18  SA
ATOM     55 HG   CYS F   7      44.015 -25.214  32.187  1.00 46.73 LIG 0.10  HD
ENDBRANCH 53 54
ENDBRANCH 52 53
BRANCH 52 56
ATOM     56  C   CYS F   7      44.365 -22.821  34.615  1.00 45.05 LIG 0.20  C 
ATOM     57 OXT  CYS F   7      44.209 -22.589  33.406  1.00 44.33 LIG-0.65  OA
ATOM     58 O    CYS F   7      44.913 -21.963  35.336  1.00 44.51 LIG-0.65  OA
ENDBRANCH 52 56
ENDBRANCH 49 52
ENDBRANCH 43 48
ENDBRANCH 40 41
BRANCH 40 59
ATOM     59  CB  THR F   5      38.802 -25.862  36.330  1.00 46.83 LIG 0.15  C 
ATOM     60  CG2 THR F   5      39.957 -26.723  35.842  1.00 46.88 LIG 0.04  C 
BRANCH 59 61
ATOM     61 OG1  THR F   5      37.566 -26.585  36.235  1.00 48.31 LIG-0.39  OA
ATOM     62 HG1  THR F   5      37.163 -26.358  35.533  1.00 48.31 LIG 0.21  HD
ENDBRANCH 59 61
ENDBRANCH 40 59
ENDBRANCH 37 40
ENDBRANCH 1 36
TORSDOF 26
ENDMDL
MODEL 56
USER: ADFR SOLUTION from run 23
USER: SCORE 17.597102 LL:  -6.514 LR: -11.867 RR:   0.000 FEB:  -4.111
USER: RMSD 12.096643
USER: SEED 22
USER: STATUS no improvement in best in 6 clusters for 5 generations
USER: GENES 28
USER: genes 0 Translation |==|  0.24792 0.73079 0.69839
USER: genes 1 Rotation |==|  0.79033 0.24628 0.79880 0.60978
USER: genes 2 Torsion [C]-CA--N-[C] |==|  0.82778
USER: genes 3 Torsion [N]-C--CA-[N] |==|  0.91848
USER: genes 4 Torsion [C]-CA--CB-[SG] |==|  0.54208
USER: genes 5 Torsion [CA]-CB--SG-[HG] |==|  0.37397
USER: genes 6 Torsion [C]-CA--N-[C] |==|  0.78355
USER: genes 7 Torsion [N]-C--CA-[N] |==|  0.85968
USER: genes 8 Torsion [C]-CA--CB-[CG] |==|  0.81885
USER: genes 9 Torsion [CA]-CB--CG-[CD] |==|  0.86533
USER: genes 10 Torsion [CB]-CG--CD-[OE1] |==|  0.80164
USER: genes 11 Torsion [C]-CA--N-[C] |==|  0.65263
USER: genes 12 Torsion [N]-C--CA-[N] |==|  0.16071
USER: genes 13 Torsion [C]-CA--CB-[OG] |==|  0.51091
USER: genes 14 Torsion [CA]-CB--OG-[HG] |==|  0.38835
USER: genes 15 Torsion [C]-CA--N-[H1] |==|  0.88352
USER: genes 16 Torsion [N]-CA--CB-[OG1] |==|  0.57248
USER: genes 17 Torsion [CA]-CB--OG1-[HG1] |==|  0.44707
USER: genes 18 Torsion [N]-CA--C-[N] |==|  0.92887
USER: genes 19 Torsion [C]-N--CA-[CB] |==|  0.77680
USER: genes 20 Torsion [N]-CA--C-[N] |==|  0.25764
USER: genes 21 Torsion [N]-CA--C-[N] |==|  0.34521
USER: genes 22 Torsion [C]-N--CA-[CB] |==|  0.22910
USER: genes 23 Torsion [N]-CA--CB-[SG] |==|  0.24418
USER: genes 24 Torsion [CA]-CB--SG-[HG] |==|  0.44026
USER: genes 25 Torsion [N]-CA--C-[OXT] |==|  0.03450
USER: genes 26 Torsion [N]-CA--CB-[OG1] |==|  0.89909
USER: genes 27 Torsion [CA]-CB--OG1-[HG1] |==|  0.30749
ROOT
ATOM      1  CA  THR F   4      33.621 -23.280  38.917  1.00 50.77 LIG 0.20  C 
ENDROOT
BRANCH 1 2
ATOM      2  N   THR F   4      33.163 -23.633  40.264  1.00 51.40 LIG-0.34  N 
ATOM      3 H    THR F   4      33.542 -23.184  40.892  1.00 51.40 LIG 0.16  HD
ATOM      4  C   CYS F   3      32.237 -24.571  40.481  1.00 52.18 LIG 0.24  C 
ATOM      5 O    CYS F   3      31.613 -25.126  39.573  1.00 51.89 LIG-0.27  OA
BRANCH 4 6
ATOM      6  CA  CYS F   3      31.927 -24.909  41.943  1.00 52.92 LIG 0.18  C 
BRANCH 6 7
ATOM      7  CB  CYS F   3      30.738 -24.088  42.462  1.00 52.86 LIG 0.10  C 
BRANCH 7 8
ATOM      8 SG   CYS F   3      30.561 -24.086  44.282  1.00 55.16 LIG-0.18  SA
ATOM      9 HG   CYS F   3      30.352 -22.968  44.662  1.00 55.16 LIG 0.10  HD
ENDBRANCH 7 8
ENDBRANCH 6 7
BRANCH 6 10
ATOM     10  N   CYS F   3      33.123 -24.679  42.759  1.00 53.02 LIG-0.34  N 
ATOM     11 H    CYS F   3      33.104 -23.946  43.208  1.00 53.02 LIG 0.16  HD
ATOM     12  C   GLU F   2      34.141 -25.536  42.792  1.00 53.57 LIG 0.24  C 
ATOM     13 O    GLU F   2      34.099 -26.658  42.277  1.00 53.07 LIG-0.27  OA
BRANCH 12 14
ATOM     14  CA  GLU F   2      35.419 -25.044  43.477  1.00 54.00 LIG 0.18  C 
BRANCH 14 15
ATOM     15  CB  GLU F   2      35.129 -25.024  44.985  1.00 54.10 LIG 0.04  C 
BRANCH 15 16
ATOM     16  CG  GLU F   2      34.072 -24.042  45.473  1.00 55.55 LIG 0.12  C 
BRANCH 16 17
ATOM     17  CD  GLU F   2      34.280 -22.630  44.915  1.00 57.36 LIG 0.17  C 
ATOM     18 OE1  GLU F   2      35.235 -21.926  45.322  1.00 58.39 LIG-0.65  OA
ATOM     19 OE2  GLU F   2      33.490 -22.213  44.042  1.00 58.95 LIG-0.65  OA
ENDBRANCH 16 17
ENDBRANCH 15 16
ENDBRANCH 14 15
BRANCH 14 20
ATOM     20  N   GLU F   2      35.876 -23.731  42.997  1.00 53.99 LIG-0.35  N 
ATOM     21 H    GLU F   2      35.273 -23.121  43.056  1.00 53.99 LIG 0.16  HD
ATOM     22  C   SER F   1      37.099 -23.489  42.515  1.00 54.35 LIG 0.25  C 
ATOM     23 O    SER F   1      37.950 -24.366  42.319  1.00 54.45 LIG-0.27  OA
BRANCH 22 24
ATOM     24  CA  SER F   1      37.407 -22.024  42.177  1.00 54.58 LIG 0.30  C 
BRANCH 24 25
ATOM     25  CB  SER F   1      38.822 -21.894  41.600  1.00 54.63 LIG 0.21  C 
BRANCH 25 26
ATOM     26 OG   SER F   1      39.154 -20.533  41.366  1.00 54.91 LIG-0.40  OA
ATOM     27 HG   SER F   1      39.953 -20.397  41.588  1.00 54.91 LIG 0.21  HD
ENDBRANCH 25 26
ENDBRANCH 24 25
BRANCH 24 28
ATOM     28  N   SER F   1      37.238 -21.128  43.362  1.00 54.74 LIG-0.06  N 
ATOM     29 H1   SER F   1      36.504 -21.360  43.808  1.00 54.74 LIG 0.28  HD
ATOM     30 H2   SER F   1      37.946 -21.206  43.896  1.00 54.74 LIG 0.28  HD
ATOM     31 H3   SER F   1      37.164 -20.285  43.089  1.00 54.74 LIG 0.28  HD
ENDBRANCH 24 28
ENDBRANCH 22 24
ENDBRANCH 14 20
ENDBRANCH 12 14
ENDBRANCH 6 10
ENDBRANCH 4 6
ENDBRANCH 1 2
BRANCH 1 32
ATOM     32  CB  THR F   4      34.673 -22.157  38.902  1.00 51.21 LIG 0.15  C 
ATOM     33  CG2 THR F   4      36.065 -22.742  39.142  1.00 50.61 LIG 0.04  C 
BRANCH 32 34
ATOM     34 OG1  THR F   4      34.629 -21.463  37.651  1.00 51.15 LIG-0.39  OA
ATOM     35 HG1  THR F   4      34.999 -20.713  37.733  1.00 51.15 LIG 0.21  HD
ENDBRANCH 32 34
ENDBRANCH 1 32
BRANCH 1 36
ATOM     36  C   THR F   4      34.257 -24.525  38.322  1.00 49.53 LIG 0.24  C 
ATOM     37  N   THR F   5      34.746 -25.408  39.184  1.00 47.76 LIG-0.34  N 
ATOM     38 H    THR F   5      34.605 -25.361  40.031  1.00 47.76 LIG 0.16  HD
ATOM     39 O    THR F   4      34.317 -24.654  37.103  1.00 50.01 LIG-0.27  OA
BRANCH 37 40
ATOM     40  CA  THR F   5      35.571 -26.547  38.794  1.00 46.83 LIG 0.20  C 
BRANCH 40 41
ATOM     41  C   THR F   5      36.521 -26.109  37.680  1.00 45.74 LIG 0.24  C 
ATOM     42  N   PRO F   6      37.737 -25.676  38.046  1.00 45.40 LIG-0.34  N 
ATOM     43  CA  PRO F   6      38.760 -25.434  37.019  1.00 45.02 LIG 0.18  C 
ATOM     44  CD  PRO F   6      38.200 -25.286  39.391  1.00 45.45 LIG 0.13  C 
ATOM     45  CB  PRO F   6      39.996 -25.037  37.829  1.00 45.11 LIG 0.04  C 
ATOM     46  CG  PRO F   6      39.458 -24.480  39.104  1.00 45.75 LIG 0.02  C 
ATOM     47 O    THR F   5      36.154 -26.144  36.504  1.00 44.21 LIG-0.27  OA
BRANCH 43 48
ATOM     48  C   PRO F   6      39.027 -26.724  36.265  1.00 45.08 LIG 0.24  C 
ATOM     49  N   CYS F   7      38.889 -26.713  34.940  1.00 44.40 LIG-0.34  N 
ATOM     50 H    CYS F   7      38.738 -26.015  34.462  1.00 44.40 LIG 0.16  HD
ATOM     51 O    PRO F   6      39.343 -27.732  36.901  1.00 44.91 LIG-0.27  OA
BRANCH 49 52
ATOM     52  CA  CYS F   7      38.995 -27.971  34.205  1.00 45.02 LIG 0.19  C 
BRANCH 52 53
ATOM     53  CB  CYS F   7      37.658 -28.727  34.243  1.00 44.51 LIG 0.11  C 
BRANCH 53 54
ATOM     54 SG   CYS F   7      36.552 -28.214  32.856  1.00 46.73 LIG-0.18  SA
ATOM     55 HG   CYS F   7      35.738 -29.073  32.656  1.00 46.73 LIG 0.10  HD
ENDBRANCH 53 54
ENDBRANCH 52 53
BRANCH 52 56
ATOM     56  C   CYS F   7      39.606 -27.814  32.798  1.00 45.05 LIG 0.20  C 
ATOM     57 OXT  CYS F   7      40.170 -26.769  32.439  1.00 44.33 LIG-0.65  OA
ATOM     58 O    CYS F   7      39.478 -28.749  31.983  1.00 44.51 LIG-0.65  OA
ENDBRANCH 52 56
ENDBRANCH 49 52
ENDBRANCH 43 48
ENDBRANCH 40 41
BRANCH 40 59
ATOM     59  CB  THR F   5      34.684 -27.689  38.270  1.00 46.83 LIG 0.15  C 
ATOM     60  CG2 THR F   5      35.384 -29.038  38.325  1.00 46.88 LIG 0.04  C 
BRANCH 59 61
ATOM     61 OG1  THR F   5      33.465 -27.727  39.025  1.00 48.31 LIG-0.39  OA
ATOM     62 HG1  THR F   5      32.825 -27.486  38.537  1.00 48.31 LIG 0.21  HD
ENDBRANCH 59 61
ENDBRANCH 40 59
ENDBRANCH 37 40
ENDBRANCH 1 36
TORSDOF 26
ENDMDL
MODEL 57
USER: ADFR SOLUTION from run 41
USER: SCORE 16.845274 LL:  -6.393 LR: -11.844 RR:   0.000 FEB:  -4.088
USER: RMSD 4.792946
USER: SEED 40
USER: STATUS 1 or 2 clusters left
USER: GENES 28
USER: genes 0 Translation |==|  0.52742 0.55555 0.58585
USER: genes 1 Rotation |==|  0.69662 0.45951 0.04224 0.51264
USER: genes 2 Torsion [C]-CA--N-[C] |==|  0.73007
USER: genes 3 Torsion [N]-C--CA-[N] |==|  0.35339
USER: genes 4 Torsion [C]-CA--CB-[SG] |==|  0.12896
USER: genes 5 Torsion [CA]-CB--SG-[HG] |==|  0.16917
USER: genes 6 Torsion [C]-CA--N-[C] |==|  0.82700
USER: genes 7 Torsion [N]-C--CA-[N] |==|  0.02358
USER: genes 8 Torsion [C]-CA--CB-[CG] |==|  0.60262
USER: genes 9 Torsion [CA]-CB--CG-[CD] |==|  0.21753
USER: genes 10 Torsion [CB]-CG--CD-[OE1] |==|  0.74608
USER: genes 11 Torsion [C]-CA--N-[C] |==|  0.72416
USER: genes 12 Torsion [N]-C--CA-[N] |==|  0.92529
USER: genes 13 Torsion [C]-CA--CB-[OG] |==|  0.79043
USER: genes 14 Torsion [CA]-CB--OG-[HG] |==|  0.02579
USER: genes 15 Torsion [C]-CA--N-[H1] |==|  0.87627
USER: genes 16 Torsion [N]-CA--CB-[OG1] |==|  0.84079
USER: genes 17 Torsion [CA]-CB--OG1-[HG1] |==|  0.18758
USER: genes 18 Torsion [N]-CA--C-[N] |==|  0.92310
USER: genes 19 Torsion [C]-N--CA-[CB] |==|  0.25307
USER: genes 20 Torsion [N]-CA--C-[N] |==|  0.34641
USER: genes 21 Torsion [N]-CA--C-[N] |==|  0.92418
USER: genes 22 Torsion [C]-N--CA-[CB] |==|  0.82923
USER: genes 23 Torsion [N]-CA--CB-[SG] |==|  0.82857
USER: genes 24 Torsion [CA]-CB--SG-[HG] |==|  0.68458
USER: genes 25 Torsion [N]-CA--C-[OXT] |==|  0.69403
USER: genes 26 Torsion [N]-CA--CB-[OG1] |==|  0.86239
USER: genes 27 Torsion [CA]-CB--OG1-[HG1] |==|  0.97447
ROOT
ATOM      1  CA  THR F   4      40.958 -26.171  36.216  1.00 50.77 LIG 0.20  C 
ENDROOT
BRANCH 1 2
ATOM      2  N   THR F   4      40.075 -26.406  35.071  1.00 51.40 LIG-0.34  N 
ATOM      3 H    THR F   4      39.710 -25.693  34.757  1.00 51.40 LIG 0.16  HD
ATOM      4  C   CYS F   3      39.865 -27.626  34.569  1.00 52.18 LIG 0.24  C 
ATOM      5 O    CYS F   3      40.481 -28.626  34.945  1.00 51.89 LIG-0.27  OA
BRANCH 4 6
ATOM      6  CA  CYS F   3      38.839 -27.738  33.436  1.00 52.92 LIG 0.18  C 
BRANCH 6 7
ATOM      7  CB  CYS F   3      37.569 -28.460  33.907  1.00 52.86 LIG 0.10  C 
BRANCH 7 8
ATOM      8 SG   CYS F   3      36.923 -27.875  35.514  1.00 55.16 LIG-0.18  SA
ATOM      9 HG   CYS F   3      36.638 -26.712  35.431  1.00 55.16 LIG 0.10  HD
ENDBRANCH 7 8
ENDBRANCH 6 7
BRANCH 6 10
ATOM     10  N   CYS F   3      39.448 -28.431  32.296  1.00 53.02 LIG-0.34  N 
ATOM     11 H    CYS F   3      39.065 -29.174  32.093  1.00 53.02 LIG 0.16  HD
ATOM     12  C   GLU F   2      40.500 -27.944  31.642  1.00 53.57 LIG 0.24  C 
ATOM     13 O    GLU F   2      40.947 -26.807  31.829  1.00 53.07 LIG-0.27  OA
BRANCH 12 14
ATOM     14  CA  GLU F   2      41.181 -28.892  30.652  1.00 54.00 LIG 0.18  C 
BRANCH 14 15
ATOM     15  CB  GLU F   2      41.363 -28.105  29.345  1.00 54.10 LIG 0.04  C 
BRANCH 15 16
ATOM     16  CG  GLU F   2      41.180 -28.875  28.044  1.00 55.55 LIG 0.12  C 
BRANCH 16 17
ATOM     17  CD  GLU F   2      39.704 -29.094  27.694  1.00 57.36 LIG 0.17  C 
ATOM     18 OE1  GLU F   2      39.113 -30.131  28.079  1.00 58.39 LIG-0.65  OA
ATOM     19 OE2  GLU F   2      39.112 -28.213  27.035  1.00 58.95 LIG-0.65  OA
ENDBRANCH 16 17
ENDBRANCH 15 16
ENDBRANCH 14 15
BRANCH 14 20
ATOM     20  N   GLU F   2      40.442 -30.144  30.431  1.00 53.99 LIG-0.35  N 
ATOM     21 H    GLU F   2      39.793 -30.059  29.874  1.00 53.99 LIG 0.16  HD
ATOM     22  C   SER F   1      40.733 -31.306  31.024  1.00 54.35 LIG 0.25  C 
ATOM     23 O    SER F   1      41.590 -31.435  31.907  1.00 54.45 LIG-0.27  OA
BRANCH 22 24
ATOM     24  CA  SER F   1      39.908 -32.516  30.566  1.00 54.58 LIG 0.30  C 
BRANCH 24 25
ATOM     25  CB  SER F   1      40.673 -33.312  29.502  1.00 54.63 LIG 0.21  C 
BRANCH 25 26
ATOM     26 OG   SER F   1      40.643 -32.646  28.247  1.00 54.91 LIG-0.40  OA
ATOM     27 HG   SER F   1      40.320 -31.876  28.346  1.00 54.91 LIG 0.21  HD
ENDBRANCH 25 26
ENDBRANCH 24 25
BRANCH 24 28
ATOM     28  N   SER F   1      38.561 -32.115  30.055  1.00 54.74 LIG-0.06  N 
ATOM     29 H1   SER F   1      38.201 -31.516  30.605  1.00 54.74 LIG 0.28  HD
ATOM     30 H2   SER F   1      38.645 -31.758  29.243  1.00 54.74 LIG 0.28  HD
ATOM     31 H3   SER F   1      38.035 -32.831  30.010  1.00 54.74 LIG 0.28  HD
ENDBRANCH 24 28
ENDBRANCH 22 24
ENDBRANCH 14 20
ENDBRANCH 12 14
ENDBRANCH 6 10
ENDBRANCH 4 6
ENDBRANCH 1 2
BRANCH 1 32
ATOM     32  CB  THR F   4      41.749 -24.855  36.121  1.00 51.21 LIG 0.15  C 
ATOM     33  CG2 THR F   4      42.655 -24.700  37.343  1.00 50.61 LIG 0.04  C 
BRANCH 32 34
ATOM     34 OG1  THR F   4      42.524 -24.837  34.917  1.00 51.15 LIG-0.39  OA
ATOM     35 HG1  THR F   4      42.010 -24.796  34.253  1.00 51.15 LIG 0.21  HD
ENDBRANCH 32 34
ENDBRANCH 1 32
BRANCH 1 36
ATOM     36  C   THR F   4      40.076 -26.099  37.452  1.00 49.53 LIG 0.24  C 
ATOM     37  N   THR F   5      38.829 -25.687  37.263  1.00 47.76 LIG-0.34  N 
ATOM     38 H    THR F   5      38.482 -25.589  36.482  1.00 47.76 LIG 0.16  HD
ATOM     39 O    THR F   4      40.541 -26.390  38.549  1.00 50.01 LIG-0.27  OA
BRANCH 37 40
ATOM     40  CA  THR F   5      37.913 -25.357  38.351  1.00 46.83 LIG 0.20  C 
BRANCH 40 41
ATOM     41  C   THR F   5      36.484 -25.660  37.902  1.00 45.74 LIG 0.24  C 
ATOM     42  N   PRO F   6      35.762 -26.486  38.673  1.00 45.40 LIG-0.34  N 
ATOM     43  CA  PRO F   6      34.327 -26.657  38.408  1.00 45.02 LIG 0.18  C 
ATOM     44  CD  PRO F   6      36.236 -27.381  39.747  1.00 45.45 LIG 0.13  C 
ATOM     45  CB  PRO F   6      33.862 -27.593  39.526  1.00 45.11 LIG 0.04  C 
ATOM     46  CG  PRO F   6      35.081 -28.357  39.919  1.00 45.75 LIG 0.02  C 
ATOM     47 O    THR F   5      36.045 -25.168  36.861  1.00 44.21 LIG-0.27  OA
BRANCH 43 48
ATOM     48  C   PRO F   6      33.631 -25.313  38.535  1.00 45.08 LIG 0.24  C 
ATOM     49  N   CYS F   7      34.174 -24.402  39.342  1.00 44.40 LIG-0.34  N 
ATOM     50 H    CYS F   7      34.932 -24.480  39.740  1.00 44.40 LIG 0.16  HD
ATOM     51 O    PRO F   6      32.589 -25.119  37.905  1.00 44.91 LIG-0.27  OA
BRANCH 49 52
ATOM     52  CA  CYS F   7      33.452 -23.159  39.597  1.00 45.02 LIG 0.19  C 
BRANCH 52 53
ATOM     53  CB  CYS F   7      33.252 -22.379  38.287  1.00 44.51 LIG 0.11  C 
BRANCH 53 54
ATOM     54 SG   CYS F   7      34.867 -21.906  37.530  1.00 46.73 LIG-0.18  SA
ATOM     55 HG   CYS F   7      34.988 -20.713  37.556  1.00 46.73 LIG 0.10  HD
ENDBRANCH 53 54
ENDBRANCH 52 53
BRANCH 52 56
ATOM     56  C   CYS F   7      32.171 -23.348  40.434  1.00 45.05 LIG 0.20  C 
ATOM     57 OXT  CYS F   7      31.040 -23.206  39.944  1.00 44.33 LIG-0.65  OA
ATOM     58 O    CYS F   7      32.283 -23.597  41.650  1.00 44.51 LIG-0.65  OA
ENDBRANCH 52 56
ENDBRANCH 49 52
ENDBRANCH 43 48
ENDBRANCH 40 41
BRANCH 40 59
ATOM     59  CB  THR F   5      38.019 -23.861  38.696  1.00 46.83 LIG 0.15  C 
ATOM     60  CG2 THR F   5      37.225 -23.497  39.942  1.00 46.88 LIG 0.04  C 
BRANCH 59 61
ATOM     61 OG1  THR F   5      39.399 -23.510  38.863  1.00 48.31 LIG-0.39  OA
ATOM     62 HG1  THR F   5      39.868 -24.207  38.865  1.00 48.31 LIG 0.21  HD
ENDBRANCH 59 61
ENDBRANCH 40 59
ENDBRANCH 37 40
ENDBRANCH 1 36
TORSDOF 26
ENDMDL
MODEL 58
USER: ADFR SOLUTION from run 153
USER: SCORE 16.852286 LL:  -5.849 LR: -11.839 RR:   0.000 FEB:  -4.083
USER: RMSD 12.177635
USER: SEED 152
USER: STATUS no improvement in best in 20 clusters for 5 generations
USER: GENES 28
USER: genes 0 Translation |==|  0.34214 0.78384 0.70574
USER: genes 1 Rotation |==|  0.36486 0.81400 0.15218 0.61028
USER: genes 2 Torsion [C]-CA--N-[C] |==|  0.73894
USER: genes 3 Torsion [N]-C--CA-[N] |==|  0.90255
USER: genes 4 Torsion [C]-CA--CB-[SG] |==|  0.77970
USER: genes 5 Torsion [CA]-CB--SG-[HG] |==|  0.34418
USER: genes 6 Torsion [C]-CA--N-[C] |==|  0.83494
USER: genes 7 Torsion [N]-C--CA-[N] |==|  0.01931
USER: genes 8 Torsion [C]-CA--CB-[CG] |==|  0.44784
USER: genes 9 Torsion [CA]-CB--CG-[CD] |==|  0.07029
USER: genes 10 Torsion [CB]-CG--CD-[OE1] |==|  0.20717
USER: genes 11 Torsion [C]-CA--N-[C] |==|  0.75456
USER: genes 12 Torsion [N]-C--CA-[N] |==|  0.19964
USER: genes 13 Torsion [C]-CA--CB-[OG] |==|  0.44677
USER: genes 14 Torsion [CA]-CB--OG-[HG] |==|  0.22295
USER: genes 15 Torsion [C]-CA--N-[H1] |==|  0.62623
USER: genes 16 Torsion [N]-CA--CB-[OG1] |==|  0.50786
USER: genes 17 Torsion [CA]-CB--OG1-[HG1] |==|  0.25767
USER: genes 18 Torsion [N]-CA--C-[N] |==|  0.13832
USER: genes 19 Torsion [C]-N--CA-[CB] |==|  0.52231
USER: genes 20 Torsion [N]-CA--C-[N] |==|  0.45343
USER: genes 21 Torsion [N]-CA--C-[N] |==|  0.84279
USER: genes 22 Torsion [C]-N--CA-[CB] |==|  0.17866
USER: genes 23 Torsion [N]-CA--CB-[SG] |==|  0.71618
USER: genes 24 Torsion [CA]-CB--SG-[HG] |==|  0.94705
USER: genes 25 Torsion [N]-CA--C-[OXT] |==|  0.26927
USER: genes 26 Torsion [N]-CA--CB-[OG1] |==|  0.93234
USER: genes 27 Torsion [CA]-CB--OG1-[HG1] |==|  0.29385
ROOT
ATOM      1  CA  THR F   4      36.094 -22.405  39.094  1.00 50.77 LIG 0.20  C 
ENDROOT
BRANCH 1 2
ATOM      2  N   THR F   4      34.882 -23.225  39.173  1.00 51.40 LIG-0.34  N 
ATOM      3 H    THR F   4      34.676 -23.469  39.972  1.00 51.40 LIG 0.16  HD
ATOM      4  C   CYS F   3      34.172 -23.557  38.092  1.00 52.18 LIG 0.24  C 
ATOM      5 O    CYS F   3      34.405 -23.108  36.967  1.00 51.89 LIG-0.27  OA
BRANCH 4 6
ATOM      6  CA  CYS F   3      32.987 -24.503  38.309  1.00 52.92 LIG 0.18  C 
BRANCH 6 7
ATOM      7  CB  CYS F   3      31.710 -23.723  38.656  1.00 52.86 LIG 0.10  C 
BRANCH 7 8
ATOM      8 SG   CYS F   3      31.613 -23.175  40.397  1.00 55.16 LIG-0.18  SA
ATOM      9 HG   CYS F   3      31.460 -21.986  40.435  1.00 55.16 LIG 0.10  HD
ENDBRANCH 7 8
ENDBRANCH 6 7
BRANCH 6 10
ATOM     10  N   CYS F   3      33.320 -25.465  39.364  1.00 53.02 LIG-0.34  N 
ATOM     11 H    CYS F   3      32.789 -25.442  40.039  1.00 53.02 LIG 0.16  HD
ATOM     12  C   GLU F   2      34.357 -26.296  39.273  1.00 53.57 LIG 0.24  C 
ATOM     13 O    GLU F   2      35.020 -26.440  38.241  1.00 53.07 LIG-0.27  OA
BRANCH 12 14
ATOM     14  CA  GLU F   2      34.733 -27.053  40.549  1.00 54.00 LIG 0.18  C 
BRANCH 14 15
ATOM     15  CB  GLU F   2      34.858 -28.534  40.159  1.00 54.10 LIG 0.04  C 
BRANCH 15 16
ATOM     16  CG  GLU F   2      35.635 -29.434  41.109  1.00 55.55 LIG 0.12  C 
BRANCH 16 17
ATOM     17  CD  GLU F   2      35.642 -28.905  42.548  1.00 57.36 LIG 0.17  C 
ATOM     18 OE1  GLU F   2      34.612 -29.002  43.258  1.00 58.39 LIG-0.65  OA
ATOM     19 OE2  GLU F   2      36.693 -28.396  42.990  1.00 58.95 LIG-0.65  OA
ENDBRANCH 16 17
ENDBRANCH 15 16
ENDBRANCH 14 15
BRANCH 14 20
ATOM     20  N   GLU F   2      33.778 -26.862  41.651  1.00 53.99 LIG-0.35  N 
ATOM     21 H    GLU F   2      33.158 -27.458  41.668  1.00 53.99 LIG 0.16  HD
ATOM     22  C   SER F   1      33.847 -25.872  42.546  1.00 54.35 LIG 0.25  C 
ATOM     23 O    SER F   1      34.662 -24.942  42.485  1.00 54.45 LIG-0.27  OA
BRANCH 22 24
ATOM     24  CA  SER F   1      32.818 -25.923  43.682  1.00 54.58 LIG 0.30  C 
BRANCH 24 25
ATOM     25  CB  SER F   1      32.744 -24.570  44.399  1.00 54.63 LIG 0.21  C 
BRANCH 25 26
ATOM     26 OG   SER F   1      31.534 -24.447  45.133  1.00 54.91 LIG-0.40  OA
ATOM     27 HG   SER F   1      31.606 -24.858  45.863  1.00 54.91 LIG 0.21  HD
ENDBRANCH 25 26
ENDBRANCH 24 25
BRANCH 24 28
ATOM     28  N   SER F   1      33.113 -27.019  44.656  1.00 54.74 LIG-0.06  N 
ATOM     29 H1   SER F   1      32.363 -27.460  44.844  1.00 54.74 LIG 0.28  HD
ATOM     30 H2   SER F   1      33.706 -27.580  44.301  1.00 54.74 LIG 0.28  HD
ATOM     31 H3   SER F   1      33.446 -26.670  45.403  1.00 54.74 LIG 0.28  HD
ENDBRANCH 24 28
ENDBRANCH 22 24
ENDBRANCH 14 20
ENDBRANCH 12 14
ENDBRANCH 6 10
ENDBRANCH 4 6
ENDBRANCH 1 2
BRANCH 1 32
ATOM     32  CB  THR F   4      36.302 -21.498  40.319  1.00 51.21 LIG 0.15  C 
ATOM     33  CG2 THR F   4      36.438 -22.348  41.582  1.00 50.61 LIG 0.04  C 
BRANCH 32 34
ATOM     34 OG1  THR F   4      37.466 -20.685  40.135  1.00 51.15 LIG-0.39  OA
ATOM     35 HG1  THR F   4      37.244 -19.950  39.794  1.00 51.15 LIG 0.21  HD
ENDBRANCH 32 34
ENDBRANCH 1 32
BRANCH 1 36
ATOM     36  C   THR F   4      37.275 -23.358  39.011  1.00 49.53 LIG 0.24  C 
ATOM     37  N   THR F   5      37.191 -24.324  38.104  1.00 47.76 LIG-0.34  N 
ATOM     38 H    THR F   5      36.577 -24.347  37.502  1.00 47.76 LIG 0.16  HD
ATOM     39 O    THR F   4      38.221 -23.223  39.779  1.00 50.01 LIG-0.27  OA
BRANCH 37 40
ATOM     40  CA  THR F   5      38.123 -25.444  38.027  1.00 46.83 LIG 0.20  C 
BRANCH 40 41
ATOM     41  C   THR F   5      39.549 -24.897  37.980  1.00 45.74 LIG 0.24  C 
ATOM     42  N   PRO F   6      40.544 -25.754  38.254  1.00 45.40 LIG-0.34  N 
ATOM     43  CA  PRO F   6      41.937 -25.345  38.031  1.00 45.02 LIG 0.18  C 
ATOM     44  CD  PRO F   6      40.453 -27.088  38.878  1.00 45.45 LIG 0.13  C 
ATOM     45  CB  PRO F   6      42.742 -26.599  38.379  1.00 45.11 LIG 0.04  C 
ATOM     46  CG  PRO F   6      41.880 -27.356  39.332  1.00 45.75 LIG 0.02  C 
ATOM     47 O    THR F   5      39.748 -23.709  37.719  1.00 44.21 LIG-0.27  OA
BRANCH 43 48
ATOM     48  C   PRO F   6      42.127 -24.997  36.564  1.00 45.08 LIG 0.24  C 
ATOM     49  N   CYS F   7      41.826 -25.926  35.658  1.00 44.40 LIG-0.34  N 
ATOM     50 H    CYS F   7      41.457 -26.683  35.827  1.00 44.40 LIG 0.16  HD
ATOM     51 O    PRO F   6      42.563 -23.883  36.268  1.00 44.91 LIG-0.27  OA
BRANCH 49 52
ATOM     52  CA  CYS F   7      42.136 -25.673  34.254  1.00 45.02 LIG 0.19  C 
BRANCH 52 53
ATOM     53  CB  CYS F   7      43.656 -25.559  34.054  1.00 44.51 LIG 0.11  C 
BRANCH 53 54
ATOM     54 SG   CYS F   7      44.185 -23.798  33.890  1.00 46.73 LIG-0.18  SA
ATOM     55 HG   CYS F   7      43.238 -23.121  33.601  1.00 46.73 LIG 0.10  HD
ENDBRANCH 53 54
ENDBRANCH 52 53
BRANCH 52 56
ATOM     56  C   CYS F   7      41.431 -26.640  33.282  1.00 45.05 LIG 0.20  C 
ATOM     57 OXT  CYS F   7      40.372 -26.338  32.708  1.00 44.33 LIG-0.65  OA
ATOM     58 O    CYS F   7      41.912 -27.777  33.115  1.00 44.51 LIG-0.65  OA
ENDBRANCH 52 56
ENDBRANCH 49 52
ENDBRANCH 43 48
ENDBRANCH 40 41
BRANCH 40 59
ATOM     59  CB  THR F   5      37.863 -26.262  36.751  1.00 46.83 LIG 0.15  C 
ATOM     60  CG2 THR F   5      38.149 -27.744  36.945  1.00 46.88 LIG 0.04  C 
BRANCH 59 61
ATOM     61 OG1  THR F   5      36.506 -26.067  36.331  1.00 48.31 LIG-0.39  OA
ATOM     62 HG1  THR F   5      36.490 -25.567  35.656  1.00 48.31 LIG 0.21  HD
ENDBRANCH 59 61
ENDBRANCH 40 59
ENDBRANCH 37 40
ENDBRANCH 1 36
TORSDOF 26
ENDMDL
