MODEL 1
USER: ADFR SOLUTION from run 72
USER: SCORE 18.761864 LL:  -4.667 LR: -17.830 RR:   0.000 FEB:  -9.776
USER: RMSD 13.248664
USER: SEED 71
USER: STATUS no improvement in best in 2 clusters for 5 generations
USER: GENES 29
USER: genes 0 Translation |==|  0.66072 0.50796 0.64846
USER: genes 1 Rotation |==|  0.65126 0.07070 0.31301 0.58865
USER: genes 2 Torsion [C]-N--CA-[CB] |==|  0.25556
USER: genes 3 Torsion [N]-CA--CB-[CG2] |==|  0.11231
USER: genes 4 Torsion [N]-CA--C-[N] |==|  0.31762
USER: genes 5 Torsion [C]-N--CA-[C] |==|  0.81522
USER: genes 6 Torsion [N]-CA--CB-[CG2] |==|  0.76372
USER: genes 7 Torsion [N]-CA--C-[N] |==|  0.38050
USER: genes 8 Torsion [C]-N--CA-[CB] |==|  0.86371
USER: genes 9 Torsion [N]-CA--CB-[SG] |==|  0.58375
USER: genes 10 Torsion [CA]-CB--SG-[HG] |==|  0.32289
USER: genes 11 Torsion [N]-CA--C-[N] |==|  0.75089
USER: genes 12 Torsion [C]-N--CA-[C] |==|  0.64202
USER: genes 13 Torsion [N]-CA--CB-[SG] |==|  0.01488
USER: genes 14 Torsion [CA]-CB--SG-[HG] |==|  0.12831
USER: genes 15 Torsion [N]-CA--C-[OXT] |==|  0.14691
USER: genes 16 Torsion [N]-C--CA-[N] |==|  0.35044
USER: genes 17 Torsion [C]-CA--N-[C] |==|  0.83471
USER: genes 18 Torsion [N]-C--CA-[N] |==|  0.88738
USER: genes 19 Torsion [C]-CA--N-[C] |==|  0.21442
USER: genes 20 Torsion [N]-C--CA-[N] |==|  0.66066
USER: genes 21 Torsion [C]-CA--CB-[CG2] |==|  0.24755
USER: genes 22 Torsion [CA]-CB--OG1-[HG1] |==|  0.44578
USER: genes 23 Torsion [C]-CA--N-[C] |==|  0.19426
USER: genes 24 Torsion [C]-CA--CB-[CG] |==|  0.40282
USER: genes 25 Torsion [CA]-CB--CG-[CD] |==|  0.81533
USER: genes 26 Torsion [CB]-CG--CD-[OE2] |==|  0.92759
USER: genes 27 Torsion [C]-CA--CB-[CG] |==|  0.20622
USER: genes 28 Torsion [CA]-CB--CG-[OD2] |==|  0.35397
ROOT
ATOM      1  C   ASP C   3      -4.289   0.610 -46.171  1.00 21.95 LIG 0.24  C 
ATOM      2 O    ASP C   3      -4.759   1.496 -45.457  1.00 22.02 LIG-0.27  OA
ATOM      3  N   VAL C   4      -4.687   0.354 -47.410  1.00 20.47 LIG-0.35  N 
ATOM      4 H    VAL C   4      -4.344  -0.263 -47.901  1.00 20.47 LIG 0.16  HD
ENDROOT
BRANCH 3 5
ATOM      5  CA  VAL C   4      -5.757   1.106 -48.058  1.00 19.37 LIG 0.18  C 
BRANCH 5 6
ATOM      6  CB  VAL C   4      -5.192   2.303 -48.851  1.00 19.50 LIG 0.01  C 
ATOM      7  CG2 VAL C   4      -3.901   1.902 -49.579  1.00 18.97 LIG 0.01  C 
ATOM      8  CG1 VAL C   4      -4.942   3.482 -47.931  1.00 20.24 LIG 0.01  C 
ENDBRANCH 5 6
BRANCH 5 9
ATOM      9  C   VAL C   4      -6.488   0.136 -48.978  1.00 18.84 LIG 0.24  C 
ATOM     10  N   VAL C   5      -7.754  -0.150 -48.672  1.00 18.10 LIG-0.35  N 
ATOM     11 H    VAL C   5      -8.185   0.247 -48.042  1.00 18.10 LIG 0.16  HD
ATOM     12 O    VAL C   4      -5.901  -0.327 -49.961  1.00 20.23 LIG-0.27  OA
BRANCH 10 13
ATOM     13  CA  VAL C   5      -8.540  -1.160 -49.369  1.00 17.69 LIG 0.18  C 
BRANCH 13 14
ATOM     14  CB  VAL C   5      -9.892  -1.396 -48.650  1.00 18.27 LIG 0.01  C 
ATOM     15  CG2 VAL C   5      -9.697  -2.433 -47.506  1.00 18.63 LIG 0.01  C 
ATOM     16  CG1 VAL C   5     -10.976  -1.855 -49.638  1.00 19.20 LIG 0.01  C 
ENDBRANCH 13 14
BRANCH 13 17
ATOM     17  C   VAL C   5      -8.778  -0.706 -50.813  1.00 17.55 LIG 0.24  C 
ATOM     18 O    VAL C   5      -9.067   0.476 -51.066  1.00 16.61 LIG-0.27  OA
ATOM     19  N   CYS C   6      -8.633  -1.642 -51.742  1.00 17.33 LIG-0.34  N 
ATOM     20 H    CYS C   6      -8.427  -2.457 -51.564  1.00 17.33 LIG 0.16  HD
BRANCH 19 21
ATOM     21  CA  CYS C   6      -8.813  -1.374 -53.171  1.00 17.84 LIG 0.18  C 
BRANCH 21 22
ATOM     22  CB  CYS C   6     -10.119  -0.628 -53.415  1.00 18.00 LIG 0.10  C 
BRANCH 22 23
ATOM     23 SG   CYS C   6     -10.834  -1.000 -55.015  1.00 23.34 LIG-0.18  SA
ATOM     24 HG   CYS C   6     -11.892  -1.546 -54.865  1.00 23.34 LIG 0.10  HD
ENDBRANCH 22 23
ENDBRANCH 21 22
BRANCH 21 25
ATOM     25  C   CYS C   6      -7.652  -0.553 -53.690  1.00 17.78 LIG 0.24  C 
ATOM     26 O    CYS C   6      -6.653  -1.108 -54.149  1.00 18.30 LIG-0.27  OA
ATOM     27  N   CYS C   7      -7.782   0.775 -53.627  1.00 17.97 LIG-0.34  N 
ATOM     28 H    CYS C   7      -8.455   1.180 -53.275  1.00 17.97 LIG 0.16  HD
BRANCH 27 29
ATOM     29  CA  CYS C   7      -6.749   1.662 -54.174  1.00 18.46 LIG 0.19  C 
BRANCH 29 30
ATOM     30  CB  CYS C   7      -7.259   2.280 -55.469  1.00 18.37 LIG 0.11  C 
BRANCH 30 31
ATOM     31 SG   CYS C   7      -8.986   1.839 -55.793  1.00 21.24 LIG-0.18  SA
ATOM     32 HG   CYS C   7      -9.630   1.983 -54.791  1.00 21.24 LIG 0.10  HD
ENDBRANCH 30 31
ENDBRANCH 29 30
BRANCH 29 33
ATOM     33  C   CYS C   7      -6.286   2.734 -53.185  1.00 18.64 LIG 0.20  C 
ATOM     34 OXT  CYS C   7      -5.900   2.425 -52.046  1.00 18.72 LIG-0.65  OA
ATOM     35 O    CYS C   7      -6.234   3.929 -53.523  1.00 19.07 LIG-0.65  OA
ENDBRANCH 29 33
ENDBRANCH 27 29
ENDBRANCH 21 25
ENDBRANCH 19 21
ENDBRANCH 13 17
ENDBRANCH 10 13
ENDBRANCH 5 9
ENDBRANCH 3 5
BRANCH 1 36
ATOM     36  CA  ASP C   3      -3.178  -0.266 -45.660  1.00 23.26 LIG 0.19  C 
BRANCH 36 37
ATOM     37  N   ASP C   3      -2.096   0.566 -45.182  1.00 23.08 LIG-0.35  N 
ATOM     38  C   GLU C   2      -1.501   1.410 -46.011  1.00 23.46 LIG 0.24  C 
ATOM     39 O    GLU C   2      -1.749   1.433 -47.211  1.00 23.95 LIG-0.27  OA
ATOM     40 H    ASP C   3      -1.890   0.463 -44.353  1.00 23.08 LIG 0.16  HD
BRANCH 38 41
ATOM     41  CA  GLU C   2      -0.484   2.360 -45.404  1.00 23.56 LIG 0.18  C 
BRANCH 41 42
ATOM     42  N   GLU C   2      -0.982   2.852 -44.112  1.00 23.07 LIG-0.35  N 
ATOM     43  C   THR C   1      -0.932   2.086 -43.022  1.00 23.69 LIG 0.24  C 
ATOM     44 O    THR C   1      -0.514   0.931 -43.027  1.00 24.29 LIG-0.27  OA
ATOM     45 H    GLU C   2      -1.297   3.652 -44.128  1.00 23.07 LIG 0.16  HD
BRANCH 43 46
ATOM     46  CA  THR C   1      -1.445   2.689 -41.725  1.00 23.89 LIG 0.20  C 
BRANCH 46 47
ATOM     47  CB  THR C   1      -1.931   4.124 -41.994  1.00 24.32 LIG 0.15  C 
ATOM     48  CG2 THR C   1      -3.415   4.120 -42.398  1.00 24.71 LIG 0.04  C 
BRANCH 47 49
ATOM     49 OG1  THR C   1      -1.770   4.913 -40.807  1.00 24.87 LIG-0.39  OA
ATOM     50 HG1  THR C   1      -1.775   5.729 -41.009  1.00 24.87 LIG 0.21  HD
ENDBRANCH 47 49
ENDBRANCH 46 47
BRANCH 46 51
ATOM     51  N   THR C   1      -0.368   2.652 -40.743  1.00 24.03 LIG-0.35  N 
ATOM     52 H    THR C   1      -0.493   2.092 -40.102  1.00 24.03 LIG 0.16  HD
ATOM     53  C   ACE C   0       0.709   3.426 -40.846  1.00 24.28 LIG 0.21  C 
ATOM     54 O    ACE C   0       0.868   4.229 -41.774  1.00 24.50 LIG-0.27  OA
ATOM     55  CH3 ACE C   0       1.818   3.085 -39.902  1.00 24.98 LIG 0.12  C 
ENDBRANCH 46 51
ENDBRANCH 43 46
ENDBRANCH 41 42
BRANCH 41 56
ATOM     56  CB  GLU C   2       0.869   1.647 -45.262  1.00 23.91 LIG 0.04  C 
BRANCH 56 57
ATOM     57  CG  GLU C   2       2.080   2.537 -45.486  1.00 27.13 LIG 0.12  C 
BRANCH 57 58
ATOM     58  CD  GLU C   2       2.203   3.037 -46.914  1.00 29.05 LIG 0.17  C 
ATOM     59 OE2  GLU C   2       1.695   2.354 -47.823  1.00 31.00 LIG-0.65  OA
ATOM     60 OE1  GLU C   2       2.810   4.103 -47.132  1.00 31.26 LIG-0.65  OA
ENDBRANCH 57 58
ENDBRANCH 56 57
ENDBRANCH 41 56
ENDBRANCH 38 41
ENDBRANCH 36 37
BRANCH 36 61
ATOM     61  CB  ASP C   3      -3.686  -1.178 -44.551  1.00 24.55 LIG 0.15  C 
BRANCH 61 62
ATOM     62  CG  ASP C   3      -4.547  -2.314 -45.081  1.00 28.69 LIG 0.17  C 
ATOM     63 OD2  ASP C   3      -4.258  -3.483 -44.751  1.00 33.40 LIG-0.65  OA
ATOM     64 OD1  ASP C   3      -5.505  -2.039 -45.839  1.00 33.84 LIG-0.65  OA
ENDBRANCH 61 62
ENDBRANCH 36 61
ENDBRANCH 1 36
TORSDOF 27
ENDMDL
MODEL 2
USER: ADFR SOLUTION from run 26
USER: SCORE 18.143113 LL:  -4.447 LR: -17.453 RR:   0.000 FEB:  -9.399
USER: RMSD 13.037838
USER: SEED 25
USER: STATUS 1 or 2 clusters left
USER: GENES 29
USER: genes 0 Translation |==|  0.65688 0.59022 0.56959
USER: genes 1 Rotation |==|  0.59157 0.08468 0.50970 0.76273
USER: genes 2 Torsion [C]-N--CA-[CB] |==|  0.21219
USER: genes 3 Torsion [N]-CA--CB-[CG2] |==|  0.42281
USER: genes 4 Torsion [N]-CA--C-[N] |==|  0.37869
USER: genes 5 Torsion [C]-N--CA-[C] |==|  0.69172
USER: genes 6 Torsion [N]-CA--CB-[CG2] |==|  0.03928
USER: genes 7 Torsion [N]-CA--C-[N] |==|  0.97944
USER: genes 8 Torsion [C]-N--CA-[CB] |==|  0.17475
USER: genes 9 Torsion [N]-CA--CB-[SG] |==|  0.59968
USER: genes 10 Torsion [CA]-CB--SG-[HG] |==|  0.25547
USER: genes 11 Torsion [N]-CA--C-[N] |==|  0.51922
USER: genes 12 Torsion [C]-N--CA-[C] |==|  0.63617
USER: genes 13 Torsion [N]-CA--CB-[SG] |==|  0.50080
USER: genes 14 Torsion [CA]-CB--SG-[HG] |==|  0.20861
USER: genes 15 Torsion [N]-CA--C-[OXT] |==|  0.07835
USER: genes 16 Torsion [N]-C--CA-[N] |==|  0.84582
USER: genes 17 Torsion [C]-CA--N-[C] |==|  0.74914
USER: genes 18 Torsion [N]-C--CA-[N] |==|  0.49540
USER: genes 19 Torsion [C]-CA--N-[C] |==|  0.80000
USER: genes 20 Torsion [N]-C--CA-[N] |==|  0.40174
USER: genes 21 Torsion [C]-CA--CB-[CG2] |==|  0.22359
USER: genes 22 Torsion [CA]-CB--OG1-[HG1] |==|  0.47875
USER: genes 23 Torsion [C]-CA--N-[C] |==|  0.22677
USER: genes 24 Torsion [C]-CA--CB-[CG] |==|  0.34267
USER: genes 25 Torsion [CA]-CB--CG-[CD] |==|  0.58837
USER: genes 26 Torsion [CB]-CG--CD-[OE2] |==|  0.12007
USER: genes 27 Torsion [C]-CA--CB-[CG] |==|  0.37621
USER: genes 28 Torsion [CA]-CB--CG-[OD2] |==|  0.72988
ROOT
ATOM      1  C   ASP C   3      -4.381   1.968 -48.360  1.00 21.95 LIG 0.24  C 
ATOM      2 O    ASP C   3      -4.925   3.070 -48.429  1.00 22.02 LIG-0.27  OA
ATOM      3  N   VAL C   4      -4.996   0.812 -48.577  1.00 20.47 LIG-0.35  N 
ATOM      4 H    VAL C   4      -4.602   0.049 -48.533  1.00 20.47 LIG 0.16  HD
ENDROOT
BRANCH 3 5
ATOM      5  CA  VAL C   4      -6.414   0.733 -48.914  1.00 19.37 LIG 0.18  C 
BRANCH 5 6
ATOM      6  CB  VAL C   4      -6.656   1.126 -50.386  1.00 19.50 LIG 0.01  C 
ATOM      7  CG2 VAL C   4      -7.909   0.424 -50.930  1.00 18.97 LIG 0.01  C 
ATOM      8  CG1 VAL C   4      -5.445   0.791 -51.235  1.00 20.24 LIG 0.01  C 
ENDBRANCH 5 6
BRANCH 5 9
ATOM      9  C   VAL C   4      -6.853  -0.702 -48.651  1.00 18.84 LIG 0.24  C 
ATOM     10  N   VAL C   5      -8.019  -0.873 -48.028  1.00 18.10 LIG-0.35  N 
ATOM     11 H    VAL C   5      -8.555  -0.223 -47.850  1.00 18.10 LIG 0.16  HD
ATOM     12 O    VAL C   4      -6.138  -1.635 -49.031  1.00 20.23 LIG-0.27  OA
BRANCH 10 13
ATOM     13  CA  VAL C   5      -8.511  -2.171 -47.583  1.00 17.69 LIG 0.18  C 
BRANCH 13 14
ATOM     14  CB  VAL C   5      -8.901  -2.127 -46.085  1.00 18.27 LIG 0.01  C 
ATOM     15  CG2 VAL C   5      -8.988  -0.646 -45.614  1.00 18.63 LIG 0.01  C 
ATOM     16  CG1 VAL C   5      -7.908  -2.926 -45.226  1.00 19.20 LIG 0.01  C 
ENDBRANCH 13 14
BRANCH 13 17
ATOM     17  C   VAL C   5      -9.719  -2.571 -48.436  1.00 17.55 LIG 0.24  C 
ATOM     18 O    VAL C   5     -10.234  -3.695 -48.317  1.00 16.61 LIG-0.27  OA
ATOM     19  N   CYS C   6     -10.169  -1.640 -49.269  1.00 17.33 LIG-0.34  N 
ATOM     20 H    CYS C   6      -9.814  -0.861 -49.344  1.00 17.33 LIG 0.16  HD
BRANCH 19 21
ATOM     21  CA  CYS C   6     -11.322  -1.854 -50.147  1.00 17.84 LIG 0.18  C 
BRANCH 21 22
ATOM     22  CB  CYS C   6     -12.583  -2.096 -49.325  1.00 18.00 LIG 0.10  C 
BRANCH 22 23
ATOM     23 SG   CYS C   6     -13.682  -3.287 -50.088  1.00 23.34 LIG-0.18  SA
ATOM     24 HG   CYS C   6     -13.431  -4.385 -49.675  1.00 23.34 LIG 0.10  HD
ENDBRANCH 22 23
ENDBRANCH 21 22
BRANCH 21 25
ATOM     25  C   CYS C   6     -11.519  -0.648 -51.040  1.00 17.78 LIG 0.24  C 
ATOM     26 O    CYS C   6     -10.687   0.260 -51.053  1.00 18.30 LIG-0.27  OA
ATOM     27  N   CYS C   7     -12.619  -0.637 -51.798  1.00 17.97 LIG-0.34  N 
ATOM     28 H    CYS C   7     -13.230  -1.242 -51.773  1.00 17.97 LIG 0.16  HD
BRANCH 27 29
ATOM     29  CA  CYS C   7     -12.866   0.448 -52.755  1.00 18.46 LIG 0.19  C 
BRANCH 29 30
ATOM     30  CB  CYS C   7     -12.581  -0.057 -54.163  1.00 18.37 LIG 0.11  C 
BRANCH 30 31
ATOM     31 SG   CYS C   7     -12.855   1.229 -55.409  1.00 21.24 LIG-0.18  SA
ATOM     32 HG   CYS C   7     -11.950   2.016 -55.378  1.00 21.24 LIG 0.10  HD
ENDBRANCH 30 31
ENDBRANCH 29 30
BRANCH 29 33
ATOM     33  C   CYS C   7     -14.273   1.042 -52.647  1.00 18.64 LIG 0.20  C 
ATOM     34 OXT  CYS C   7     -14.888   1.025 -51.569  1.00 18.72 LIG-0.65  OA
ATOM     35 O    CYS C   7     -14.801   1.604 -53.621  1.00 19.07 LIG-0.65  OA
ENDBRANCH 29 33
ENDBRANCH 27 29
ENDBRANCH 21 25
ENDBRANCH 19 21
ENDBRANCH 13 17
ENDBRANCH 10 13
ENDBRANCH 5 9
ENDBRANCH 3 5
BRANCH 1 36
ATOM     36  CA  ASP C   3      -2.920   1.863 -48.018  1.00 23.26 LIG 0.19  C 
BRANCH 36 37
ATOM     37  N   ASP C   3      -2.759   0.993 -46.874  1.00 23.08 LIG-0.35  N 
ATOM     38  C   GLU C   2      -2.779   1.503 -45.653  1.00 23.46 LIG 0.24  C 
ATOM     39 O    GLU C   2      -2.808   2.712 -45.448  1.00 23.95 LIG-0.27  OA
ATOM     40 H    ASP C   3      -2.655   0.159 -47.058  1.00 23.08 LIG 0.16  HD
BRANCH 38 41
ATOM     41  CA  GLU C   2      -2.763   0.515 -44.500  1.00 23.56 LIG 0.18  C 
BRANCH 41 42
ATOM     42  N   GLU C   2      -2.748   1.249 -43.226  1.00 23.07 LIG-0.35  N 
ATOM     43  C   THR C   1      -1.657   1.899 -42.822  1.00 23.69 LIG 0.24  C 
ATOM     44 O    THR C   1      -0.600   1.899 -43.449  1.00 24.29 LIG-0.27  OA
ATOM     45 H    GLU C   2      -3.486   1.218 -42.785  1.00 23.07 LIG 0.16  HD
BRANCH 43 46
ATOM     46  CA  THR C   1      -1.745   2.652 -41.505  1.00 23.89 LIG 0.20  C 
BRANCH 46 47
ATOM     47  CB  THR C   1      -2.143   4.111 -41.784  1.00 24.32 LIG 0.15  C 
ATOM     48  CG2 THR C   1      -3.661   4.220 -42.004  1.00 24.71 LIG 0.04  C 
BRANCH 47 49
ATOM     49 OG1  THR C   1      -1.771   4.930 -40.666  1.00 24.87 LIG-0.39  OA
ATOM     50 HG1  THR C   1      -1.891   5.739 -40.858  1.00 24.87 LIG 0.21  HD
ENDBRANCH 47 49
ENDBRANCH 46 47
BRANCH 46 51
ATOM     51  N   THR C   1      -0.453   2.556 -40.834  1.00 24.03 LIG-0.35  N 
ATOM     52 H    THR C   1      -0.414   1.945 -40.229  1.00 24.03 LIG 0.16  HD
ATOM     53  C   ACE C   0       0.564   3.353 -41.144  1.00 24.28 LIG 0.21  C 
ATOM     54 O    ACE C   0       0.486   4.229 -42.015  1.00 24.50 LIG-0.27  OA
ATOM     55  CH3 ACE C   0       1.876   2.958 -40.542  1.00 24.98 LIG 0.12  C 
ENDBRANCH 46 51
ENDBRANCH 43 46
ENDBRANCH 41 42
BRANCH 41 56
ATOM     56  CB  GLU C   2      -3.975  -0.422 -44.606  1.00 23.91 LIG 0.04  C 
BRANCH 56 57
ATOM     57  CG  GLU C   2      -3.629  -1.900 -44.655  1.00 27.13 LIG 0.12  C 
BRANCH 57 58
ATOM     58  CD  GLU C   2      -4.605  -2.721 -45.480  1.00 29.05 LIG 0.17  C 
ATOM     59 OE2  GLU C   2      -4.985  -2.259 -46.572  1.00 31.00 LIG-0.65  OA
ATOM     60 OE1  GLU C   2      -4.996  -3.818 -45.040  1.00 31.26 LIG-0.65  OA
ENDBRANCH 57 58
ENDBRANCH 56 57
ENDBRANCH 41 56
ENDBRANCH 38 41
ENDBRANCH 36 37
BRANCH 36 61
ATOM     61  CB  ASP C   3      -2.130   1.338 -49.210  1.00 24.55 LIG 0.15  C 
BRANCH 61 62
ATOM     62  CG  ASP C   3      -0.845   2.116 -49.444  1.00 28.69 LIG 0.17  C 
ATOM     63 OD2  ASP C   3      -0.847   3.025 -50.301  1.00 33.40 LIG-0.65  OA
ATOM     64 OD1  ASP C   3       0.172   1.809 -48.781  1.00 33.84 LIG-0.65  OA
ENDBRANCH 61 62
ENDBRANCH 36 61
ENDBRANCH 1 36
TORSDOF 27
ENDMDL
MODEL 3
USER: ADFR SOLUTION from run 148
USER: SCORE 19.240729 LL:  -3.989 LR: -17.440 RR:   0.000 FEB:  -9.386
USER: RMSD 6.674899
USER: SEED 147
USER: STATUS no improvement in best in 2 clusters for 5 generations
USER: GENES 29
USER: genes 0 Translation |==|  0.70101 0.54619 0.52943
USER: genes 1 Rotation |==|  0.54370 0.32553 0.07250 0.68680
USER: genes 2 Torsion [C]-N--CA-[CB] |==|  0.81658
USER: genes 3 Torsion [N]-CA--CB-[CG2] |==|  0.25772
USER: genes 4 Torsion [N]-CA--C-[N] |==|  0.51108
USER: genes 5 Torsion [C]-N--CA-[C] |==|  0.71402
USER: genes 6 Torsion [N]-CA--CB-[CG2] |==|  0.21310
USER: genes 7 Torsion [N]-CA--C-[N] |==|  0.06072
USER: genes 8 Torsion [C]-N--CA-[CB] |==|  0.52819
USER: genes 9 Torsion [N]-CA--CB-[SG] |==|  0.71609
USER: genes 10 Torsion [CA]-CB--SG-[HG] |==|  0.68196
USER: genes 11 Torsion [N]-CA--C-[N] |==|  0.40338
USER: genes 12 Torsion [C]-N--CA-[C] |==|  0.21303
USER: genes 13 Torsion [N]-CA--CB-[SG] |==|  0.82813
USER: genes 14 Torsion [CA]-CB--SG-[HG] |==|  0.80222
USER: genes 15 Torsion [N]-CA--C-[OXT] |==|  0.63214
USER: genes 16 Torsion [N]-C--CA-[N] |==|  0.92682
USER: genes 17 Torsion [C]-CA--N-[C] |==|  0.81448
USER: genes 18 Torsion [N]-C--CA-[N] |==|  0.57221
USER: genes 19 Torsion [C]-CA--N-[C] |==|  0.21851
USER: genes 20 Torsion [N]-C--CA-[N] |==|  0.42554
USER: genes 21 Torsion [C]-CA--CB-[CG2] |==|  0.53133
USER: genes 22 Torsion [CA]-CB--OG1-[HG1] |==|  0.17693
USER: genes 23 Torsion [C]-CA--N-[C] |==|  0.62836
USER: genes 24 Torsion [C]-CA--CB-[CG] |==|  0.38658
USER: genes 25 Torsion [CA]-CB--CG-[CD] |==|  0.59522
USER: genes 26 Torsion [CB]-CG--CD-[OE2] |==|  0.43628
USER: genes 27 Torsion [C]-CA--CB-[CG] |==|  0.07813
USER: genes 28 Torsion [CA]-CB--CG-[OD2] |==|  0.19364
ROOT
ATOM      1  C   ASP C   3      -3.322   1.241 -49.474  1.00 21.95 LIG 0.24  C 
ATOM      2 O    ASP C   3      -2.619   0.923 -48.515  1.00 22.02 LIG-0.27  OA
ATOM      3  N   VAL C   4      -4.475   1.889 -49.378  1.00 20.47 LIG-0.35  N 
ATOM      4 H    VAL C   4      -4.952   2.112 -50.057  1.00 20.47 LIG 0.16  HD
ENDROOT
BRANCH 3 5
ATOM      5  CA  VAL C   4      -5.044   2.286 -48.094  1.00 19.37 LIG 0.18  C 
BRANCH 5 6
ATOM      6  CB  VAL C   4      -5.441   1.051 -47.258  1.00 19.50 LIG 0.01  C 
ATOM      7  CG2 VAL C   4      -4.290   0.640 -46.328  1.00 18.97 LIG 0.01  C 
ATOM      8  CG1 VAL C   4      -5.835  -0.101 -48.162  1.00 20.24 LIG 0.01  C 
ENDBRANCH 5 6
BRANCH 5 9
ATOM      9  C   VAL C   4      -3.986   3.115 -47.377  1.00 18.84 LIG 0.24  C 
ATOM     10  N   VAL C   5      -4.270   3.516 -46.137  1.00 18.10 LIG-0.35  N 
ATOM     11 H    VAL C   5      -4.972   3.260 -45.711  1.00 18.10 LIG 0.16  HD
ATOM     12 O    VAL C   4      -2.921   3.366 -47.949  1.00 20.23 LIG-0.27  OA
BRANCH 10 13
ATOM     13  CA  VAL C   5      -3.426   4.427 -45.374  1.00 17.69 LIG 0.18  C 
BRANCH 13 14
ATOM     14  CB  VAL C   5      -4.282   5.509 -44.669  1.00 18.27 LIG 0.01  C 
ATOM     15  CG2 VAL C   5      -4.972   4.890 -43.418  1.00 18.63 LIG 0.01  C 
ATOM     16  CG1 VAL C   5      -5.314   6.118 -45.630  1.00 19.20 LIG 0.01  C 
ENDBRANCH 13 14
BRANCH 13 17
ATOM     17  C   VAL C   5      -2.626   3.626 -44.342  1.00 17.55 LIG 0.24  C 
ATOM     18 O    VAL C   5      -2.176   4.176 -43.323  1.00 16.61 LIG-0.27  OA
ATOM     19  N   CYS C   6      -2.476   2.333 -44.606  1.00 17.33 LIG-0.34  N 
ATOM     20 H    CYS C   6      -2.795   1.954 -45.309  1.00 17.33 LIG 0.16  HD
BRANCH 19 21
ATOM     21  CA  CYS C   6      -1.749   1.423 -43.719  1.00 17.84 LIG 0.18  C 
BRANCH 21 22
ATOM     22  CB  CYS C   6      -1.530   0.076 -44.398  1.00 18.00 LIG 0.10  C 
BRANCH 22 23
ATOM     23 SG   CYS C   6      -2.666  -1.180 -43.815  1.00 23.34 LIG-0.18  SA
ATOM     24 HG   CYS C   6      -2.055  -2.036 -43.237  1.00 23.34 LIG 0.10  HD
ENDBRANCH 22 23
ENDBRANCH 21 22
BRANCH 21 25
ATOM     25  C   CYS C   6      -0.413   2.028 -43.344  1.00 17.78 LIG 0.24  C 
ATOM     26 O    CYS C   6       0.206   2.720 -44.153  1.00 18.30 LIG-0.27  OA
ATOM     27  N   CYS C   7       0.034   1.775 -42.111  1.00 17.97 LIG-0.34  N 
ATOM     28 H    CYS C   7      -0.365   1.263 -41.546  1.00 17.97 LIG 0.16  HD
BRANCH 27 29
ATOM     29  CA  CYS C   7       1.280   2.377 -41.621  1.00 18.46 LIG 0.19  C 
BRANCH 29 30
ATOM     30  CB  CYS C   7       2.368   2.190 -42.670  1.00 18.37 LIG 0.11  C 
BRANCH 30 31
ATOM     31 SG   CYS C   7       2.712   0.439 -42.979  1.00 21.24 LIG-0.18  SA
ATOM     32 HG   CYS C   7       3.279  -0.031 -42.033  1.00 21.24 LIG 0.10  HD
ENDBRANCH 30 31
ENDBRANCH 29 30
BRANCH 29 33
ATOM     33  C   CYS C   7       1.127   3.849 -41.228  1.00 18.64 LIG 0.20  C 
ATOM     34 OXT  CYS C   7       1.945   4.698 -41.617  1.00 18.72 LIG-0.65  OA
ATOM     35 O    CYS C   7       0.152   4.229 -40.559  1.00 19.07 LIG-0.65  OA
ENDBRANCH 29 33
ENDBRANCH 27 29
ENDBRANCH 21 25
ENDBRANCH 19 21
ENDBRANCH 13 17
ENDBRANCH 10 13
ENDBRANCH 5 9
ENDBRANCH 3 5
BRANCH 1 36
ATOM     36  CA  ASP C   3      -2.889   0.905 -50.875  1.00 23.26 LIG 0.19  C 
BRANCH 36 37
ATOM     37  N   ASP C   3      -4.056   0.802 -51.723  1.00 23.08 LIG-0.35  N 
ATOM     38  C   GLU C   2      -4.924  -0.178 -51.529  1.00 23.46 LIG 0.24  C 
ATOM     39 O    GLU C   2      -4.720  -1.086 -50.730  1.00 23.95 LIG-0.27  OA
ATOM     40 H    ASP C   3      -4.125   1.408 -52.330  1.00 23.08 LIG 0.16  HD
BRANCH 38 41
ATOM     41  CA  GLU C   2      -6.201  -0.132 -52.350  1.00 23.56 LIG 0.18  C 
BRANCH 41 42
ATOM     42  N   GLU C   2      -7.270  -0.844 -51.635  1.00 23.07 LIG-0.35  N 
ATOM     43  C   THR C   1      -7.919  -0.269 -50.623  1.00 23.69 LIG 0.24  C 
ATOM     44 O    THR C   1      -7.652   0.853 -50.200  1.00 24.29 LIG-0.27  OA
ATOM     45 H    GLU C   2      -7.428  -1.639 -51.923  1.00 23.07 LIG 0.16  HD
BRANCH 43 46
ATOM     46  CA  THR C   1      -9.026  -1.073 -49.962  1.00 23.89 LIG 0.20  C 
BRANCH 46 47
ATOM     47  CB  THR C   1     -10.329  -0.888 -50.760  1.00 24.32 LIG 0.15  C 
ATOM     48  CG2 THR C   1     -11.524  -1.452 -49.972  1.00 24.71 LIG 0.04  C 
BRANCH 47 49
ATOM     49 OG1  THR C   1     -10.546   0.508 -51.005  1.00 24.87 LIG-0.39  OA
ATOM     50 HG1  THR C   1      -9.927   0.808 -51.488  1.00 24.87 LIG 0.21  HD
ENDBRANCH 47 49
ENDBRANCH 46 47
BRANCH 46 51
ATOM     51  N   THR C   1      -9.162  -0.620 -48.582  1.00 24.03 LIG-0.35  N 
ATOM     52 H    THR C   1      -9.174   0.235 -48.490  1.00 24.03 LIG 0.16  HD
ATOM     53  C   ACE C   0      -9.258  -1.473 -47.566  1.00 24.28 LIG 0.21  C 
ATOM     54 O    ACE C   0      -9.234  -2.701 -47.719  1.00 24.50 LIG-0.27  OA
ATOM     55  CH3 ACE C   0      -9.638  -0.851 -46.260  1.00 24.98 LIG 0.12  C 
ENDBRANCH 46 51
ENDBRANCH 43 46
ENDBRANCH 41 42
BRANCH 41 56
ATOM     56  CB  GLU C   2      -6.580   1.330 -52.634  1.00 23.91 LIG 0.04  C 
BRANCH 56 57
ATOM     57  CG  GLU C   2      -7.089   1.588 -54.042  1.00 27.13 LIG 0.12  C 
BRANCH 57 58
ATOM     58  CD  GLU C   2      -6.693   2.950 -54.585  1.00 29.05 LIG 0.17  C 
ATOM     59 OE2  GLU C   2      -6.663   3.105 -55.820  1.00 31.00 LIG-0.65  OA
ATOM     60 OE1  GLU C   2      -6.405   3.860 -53.785  1.00 31.26 LIG-0.65  OA
ENDBRANCH 57 58
ENDBRANCH 56 57
ENDBRANCH 41 56
ENDBRANCH 38 41
ENDBRANCH 36 37
BRANCH 36 61
ATOM     61  CB  ASP C   3      -1.930   1.963 -51.405  1.00 24.55 LIG 0.15  C 
BRANCH 61 62
ATOM     62  CG  ASP C   3      -1.140   2.640 -50.296  1.00 28.69 LIG 0.17  C 
ATOM     63 OD2  ASP C   3      -0.271   1.976 -49.693  1.00 33.40 LIG-0.65  OA
ATOM     64 OD1  ASP C   3      -1.398   3.833 -50.018  1.00 33.84 LIG-0.65  OA
ENDBRANCH 61 62
ENDBRANCH 36 61
ENDBRANCH 1 36
TORSDOF 27
ENDMDL
MODEL 4
USER: ADFR SOLUTION from run 139
USER: SCORE 19.963462 LL:  -5.858 LR: -17.295 RR:   0.000 FEB:  -9.241
USER: RMSD 13.219164
USER: SEED 138
USER: STATUS 1 or 2 clusters left
USER: GENES 29
USER: genes 0 Translation |==|  0.68279 0.50675 0.67548
USER: genes 1 Rotation |==|  0.17751 0.56124 0.77936 0.75339
USER: genes 2 Torsion [C]-N--CA-[CB] |==|  0.45553
USER: genes 3 Torsion [N]-CA--CB-[CG2] |==|  0.66730
USER: genes 4 Torsion [N]-CA--C-[N] |==|  0.94816
USER: genes 5 Torsion [C]-N--CA-[C] |==|  0.82732
USER: genes 6 Torsion [N]-CA--CB-[CG2] |==|  0.49286
USER: genes 7 Torsion [N]-CA--C-[N] |==|  0.85586
USER: genes 8 Torsion [C]-N--CA-[CB] |==|  0.82343
USER: genes 9 Torsion [N]-CA--CB-[SG] |==|  0.48868
USER: genes 10 Torsion [CA]-CB--SG-[HG] |==|  0.64030
USER: genes 11 Torsion [N]-CA--C-[N] |==|  0.72481
USER: genes 12 Torsion [C]-N--CA-[C] |==|  0.61018
USER: genes 13 Torsion [N]-CA--CB-[SG] |==|  0.40018
USER: genes 14 Torsion [CA]-CB--SG-[HG] |==|  0.02815
USER: genes 15 Torsion [N]-CA--C-[OXT] |==|  0.03797
USER: genes 16 Torsion [N]-C--CA-[N] |==|  0.98922
USER: genes 17 Torsion [C]-CA--N-[C] |==|  0.74249
USER: genes 18 Torsion [N]-C--CA-[N] |==|  0.98889
USER: genes 19 Torsion [C]-CA--N-[C] |==|  0.79070
USER: genes 20 Torsion [N]-C--CA-[N] |==|  0.17851
USER: genes 21 Torsion [C]-CA--CB-[CG2] |==|  0.27216
USER: genes 22 Torsion [CA]-CB--OG1-[HG1] |==|  0.49886
USER: genes 23 Torsion [C]-CA--N-[C] |==|  0.76363
USER: genes 24 Torsion [C]-CA--CB-[CG] |==|  0.35845
USER: genes 25 Torsion [CA]-CB--CG-[CD] |==|  0.90230
USER: genes 26 Torsion [CB]-CG--CD-[OE2] |==|  0.40619
USER: genes 27 Torsion [C]-CA--CB-[CG] |==|  0.21751
USER: genes 28 Torsion [CA]-CB--CG-[OD2] |==|  0.68621
ROOT
ATOM      1  C   ASP C   3      -3.759   0.590 -45.421  1.00 21.95 LIG 0.24  C 
ATOM      2 O    ASP C   3      -4.832   0.179 -45.862  1.00 22.02 LIG-0.27  OA
ATOM      3  N   VAL C   4      -3.501   1.861 -45.141  1.00 20.47 LIG-0.35  N 
ATOM      4 H    VAL C   4      -2.749   2.134 -44.825  1.00 20.47 LIG 0.16  HD
ENDROOT
BRANCH 3 5
ATOM      5  CA  VAL C   4      -4.482   2.922 -45.344  1.00 19.37 LIG 0.18  C 
BRANCH 5 6
ATOM      6  CB  VAL C   4      -4.080   4.202 -44.583  1.00 19.50 LIG 0.01  C 
ATOM      7  CG2 VAL C   4      -5.161   4.580 -43.560  1.00 18.97 LIG 0.01  C 
ATOM      8  CG1 VAL C   4      -3.837   5.345 -45.550  1.00 20.24 LIG 0.01  C 
ENDBRANCH 5 6
BRANCH 5 9
ATOM      9  C   VAL C   4      -4.555   3.177 -46.844  1.00 18.84 LIG 0.24  C 
ATOM     10  N   VAL C   5      -3.534   2.741 -47.582  1.00 18.10 LIG-0.35  N 
ATOM     11 H    VAL C   5      -2.896   2.261 -47.262  1.00 18.10 LIG 0.16  HD
ATOM     12 O    VAL C   4      -5.543   3.750 -47.315  1.00 20.23 LIG-0.27  OA
BRANCH 10 13
ATOM     13  CA  VAL C   5      -3.390   3.028 -49.004  1.00 17.69 LIG 0.18  C 
BRANCH 13 14
ATOM     14  CB  VAL C   5      -2.053   2.462 -49.546  1.00 18.27 LIG 0.01  C 
ATOM     15  CG2 VAL C   5      -1.960   2.728 -51.077  1.00 18.63 LIG 0.01  C 
ATOM     16  CG1 VAL C   5      -1.913   0.965 -49.231  1.00 19.20 LIG 0.01  C 
ENDBRANCH 13 14
BRANCH 13 17
ATOM     17  C   VAL C   5      -4.573   2.418 -49.763  1.00 17.55 LIG 0.24  C 
ATOM     18 O    VAL C   5      -5.236   3.104 -50.559  1.00 16.61 LIG-0.27  OA
ATOM     19  N   CYS C   6      -4.809   1.133 -49.526  1.00 17.33 LIG-0.34  N 
ATOM     20 H    CYS C   6      -4.343   0.660 -48.979  1.00 17.33 LIG 0.16  HD
BRANCH 19 21
ATOM     21  CA  CYS C   6      -5.893   0.394 -50.176  1.00 17.84 LIG 0.18  C 
BRANCH 21 22
ATOM     22  CB  CYS C   6      -7.247   0.970 -49.778  1.00 18.00 LIG 0.10  C 
BRANCH 22 23
ATOM     23 SG   CYS C   6      -8.607   0.180 -50.635  1.00 23.34 LIG-0.18  SA
ATOM     24 HG   CYS C   6      -9.315   1.019 -51.122  1.00 23.34 LIG 0.10  HD
ENDBRANCH 22 23
ENDBRANCH 21 22
BRANCH 21 25
ATOM     25  C   CYS C   6      -5.732   0.461 -51.679  1.00 17.78 LIG 0.24  C 
ATOM     26 O    CYS C   6      -4.950  -0.296 -52.256  1.00 18.30 LIG-0.27  OA
ATOM     27  N   CYS C   7      -6.476   1.365 -52.322  1.00 17.97 LIG-0.34  N 
ATOM     28 H    CYS C   7      -6.998   1.928 -51.933  1.00 17.97 LIG 0.16  HD
BRANCH 27 29
ATOM     29  CA  CYS C   7      -6.453   1.459 -53.786  1.00 18.46 LIG 0.19  C 
BRANCH 29 30
ATOM     30  CB  CYS C   7      -7.603   0.640 -54.356  1.00 18.37 LIG 0.11  C 
BRANCH 30 31
ATOM     31 SG   CYS C   7      -8.320   1.416 -55.828  1.00 21.24 LIG-0.18  SA
ATOM     32 HG   CYS C   7      -7.621   2.324 -56.183  1.00 21.24 LIG 0.10  HD
ENDBRANCH 30 31
ENDBRANCH 29 30
BRANCH 29 33
ATOM     33  C   CYS C   7      -6.483   2.901 -54.301  1.00 18.64 LIG 0.20  C 
ATOM     34 OXT  CYS C   7      -6.271   3.854 -53.534  1.00 18.72 LIG-0.65  OA
ATOM     35 O    CYS C   7      -6.664   3.140 -55.507  1.00 19.07 LIG-0.65  OA
ENDBRANCH 29 33
ENDBRANCH 27 29
ENDBRANCH 21 25
ENDBRANCH 19 21
ENDBRANCH 13 17
ENDBRANCH 10 13
ENDBRANCH 5 9
ENDBRANCH 3 5
BRANCH 1 36
ATOM     36  CA  ASP C   3      -2.631  -0.368 -45.156  1.00 23.26 LIG 0.19  C 
BRANCH 36 37
ATOM     37  N   ASP C   3      -1.466   0.374 -44.725  1.00 23.08 LIG-0.35  N 
ATOM     38  C   GLU C   2      -0.569   0.763 -45.616  1.00 23.46 LIG 0.24  C 
ATOM     39 O    GLU C   2      -0.619   0.415 -46.791  1.00 23.95 LIG-0.27  OA
ATOM     40 H    ASP C   3      -1.420   0.527 -43.880  1.00 23.08 LIG 0.16  HD
BRANCH 38 41
ATOM     41  CA  GLU C   2       0.542   1.670 -45.117  1.00 23.56 LIG 0.18  C 
BRANCH 41 42
ATOM     42  N   GLU C   2       0.306   2.001 -43.704  1.00 23.07 LIG-0.35  N 
ATOM     43  C   THR C   1      -0.631   2.882 -43.355  1.00 23.69 LIG 0.24  C 
ATOM     44 O    THR C   1      -1.320   3.494 -44.167  1.00 24.29 LIG-0.27  OA
ATOM     45 H    GLU C   2       0.813   1.586 -43.148  1.00 23.07 LIG 0.16  HD
BRANCH 43 46
ATOM     46  CA  THR C   1      -0.821   3.140 -41.869  1.00 23.89 LIG 0.20  C 
BRANCH 46 47
ATOM     47  CB  THR C   1      -2.044   4.052 -41.668  1.00 24.32 LIG 0.15  C 
ATOM     48  CG2 THR C   1      -3.283   3.214 -41.307  1.00 24.71 LIG 0.04  C 
BRANCH 47 49
ATOM     49 OG1  THR C   1      -1.780   4.979 -40.606  1.00 24.87 LIG-0.39  OA
ATOM     50 HG1  THR C   1      -2.445   5.481 -40.499  1.00 24.87 LIG 0.21  HD
ENDBRANCH 47 49
ENDBRANCH 46 47
BRANCH 46 51
ATOM     51  N   THR C   1       0.401   3.742 -41.347  1.00 24.03 LIG-0.35  N 
ATOM     52 H    THR C   1       0.387   4.602 -41.319  1.00 24.03 LIG 0.16  HD
ATOM     53  C   ACE C   0       1.436   3.007 -40.953  1.00 24.28 LIG 0.21  C 
ATOM     54 O    ACE C   0       1.437   1.770 -41.006  1.00 24.50 LIG-0.27  OA
ATOM     55  CH3 ACE C   0       2.498   3.764 -40.219  1.00 24.98 LIG 0.12  C 
ENDBRANCH 46 51
ENDBRANCH 43 46
ENDBRANCH 41 42
BRANCH 41 56
ATOM     56  CB  GLU C   2       1.901   0.985 -45.324  1.00 23.91 LIG 0.04  C 
BRANCH 56 57
ATOM     57  CG  GLU C   2       2.936   1.837 -46.037  1.00 27.13 LIG 0.12  C 
BRANCH 57 58
ATOM     58  CD  GLU C   2       2.342   2.741 -47.103  1.00 29.05 LIG 0.17  C 
ATOM     59 OE2  GLU C   2       2.866   3.855 -47.290  1.00 31.00 LIG-0.65  OA
ATOM     60 OE1  GLU C   2       1.351   2.346 -47.747  1.00 31.26 LIG-0.65  OA
ENDBRANCH 57 58
ENDBRANCH 56 57
ENDBRANCH 41 56
ENDBRANCH 38 41
ENDBRANCH 36 37
BRANCH 36 61
ATOM     61  CB  ASP C   3      -3.037  -1.391 -44.104  1.00 24.55 LIG 0.15  C 
BRANCH 61 62
ATOM     62  CG  ASP C   3      -3.921  -2.490 -44.672  1.00 28.69 LIG 0.17  C 
ATOM     63 OD2  ASP C   3      -5.109  -2.555 -44.291  1.00 33.40 LIG-0.65  OA
ATOM     64 OD1  ASP C   3      -3.424  -3.299 -45.489  1.00 33.84 LIG-0.65  OA
ENDBRANCH 61 62
ENDBRANCH 36 61
ENDBRANCH 1 36
TORSDOF 27
ENDMDL
MODEL 5
USER: ADFR SOLUTION from run 65
USER: SCORE 18.129897 LL:  -4.291 LR: -17.101 RR:   0.000 FEB:  -9.047
USER: RMSD 7.392011
USER: SEED 64
USER: STATUS no improvement in best in 3 clusters for 5 generations
USER: GENES 29
USER: genes 0 Translation |==|  0.62000 0.44432 0.64512
USER: genes 1 Rotation |==|  0.72592 0.58719 0.93529 0.54334
USER: genes 2 Torsion [C]-N--CA-[CB] |==|  0.17527
USER: genes 3 Torsion [N]-CA--CB-[CG2] |==|  0.58918
USER: genes 4 Torsion [N]-CA--C-[N] |==|  0.50249
USER: genes 5 Torsion [C]-N--CA-[C] |==|  0.53951
USER: genes 6 Torsion [N]-CA--CB-[CG2] |==|  0.11665
USER: genes 7 Torsion [N]-CA--C-[N] |==|  0.17497
USER: genes 8 Torsion [C]-N--CA-[CB] |==|  0.22132
USER: genes 9 Torsion [N]-CA--CB-[SG] |==|  0.78856
USER: genes 10 Torsion [CA]-CB--SG-[HG] |==|  0.30513
USER: genes 11 Torsion [N]-CA--C-[N] |==|  0.86454
USER: genes 12 Torsion [C]-N--CA-[C] |==|  0.68788
USER: genes 13 Torsion [N]-CA--CB-[SG] |==|  0.93259
USER: genes 14 Torsion [CA]-CB--SG-[HG] |==|  0.94460
USER: genes 15 Torsion [N]-CA--C-[OXT] |==|  0.28013
USER: genes 16 Torsion [N]-C--CA-[N] |==|  0.22265
USER: genes 17 Torsion [C]-CA--N-[C] |==|  0.61735
USER: genes 18 Torsion [N]-C--CA-[N] |==|  0.45080
USER: genes 19 Torsion [C]-CA--N-[C] |==|  0.73244
USER: genes 20 Torsion [N]-C--CA-[N] |==|  0.22451
USER: genes 21 Torsion [C]-CA--CB-[CG2] |==|  0.13591
USER: genes 22 Torsion [CA]-CB--OG1-[HG1] |==|  0.87676
USER: genes 23 Torsion [C]-CA--N-[C] |==|  0.75693
USER: genes 24 Torsion [C]-CA--CB-[CG] |==|  0.98893
USER: genes 25 Torsion [CA]-CB--CG-[CD] |==|  0.48845
USER: genes 26 Torsion [CB]-CG--CD-[OE2] |==|  0.49307
USER: genes 27 Torsion [C]-CA--CB-[CG] |==|  0.31718
USER: genes 28 Torsion [CA]-CB--CG-[OD2] |==|  0.28667
ROOT
ATOM      1  C   ASP C   3      -5.266  -0.440 -46.264  1.00 21.95 LIG 0.24  C 
ATOM      2 O    ASP C   3      -4.954  -1.536 -45.800  1.00 22.02 LIG-0.27  OA
ATOM      3  N   VAL C   4      -4.760   0.718 -45.860  1.00 20.47 LIG-0.35  N 
ATOM      4 H    VAL C   4      -4.980   1.477 -46.198  1.00 20.47 LIG 0.16  HD
ENDROOT
BRANCH 3 5
ATOM      5  CA  VAL C   4      -3.770   0.808 -44.791  1.00 19.37 LIG 0.18  C 
BRANCH 5 6
ATOM      6  CB  VAL C   4      -2.465   0.083 -45.181  1.00 19.50 LIG 0.01  C 
ATOM      7  CG2 VAL C   4      -1.792  -0.517 -43.938  1.00 18.97 LIG 0.01  C 
ATOM      8  CG1 VAL C   4      -1.521   1.031 -45.895  1.00 20.24 LIG 0.01  C 
ENDBRANCH 5 6
BRANCH 5 9
ATOM      9  C   VAL C   4      -3.520   2.289 -44.540  1.00 18.84 LIG 0.24  C 
ATOM     10  N   VAL C   5      -2.624   2.601 -43.603  1.00 18.10 LIG-0.35  N 
ATOM     11 H    VAL C   5      -2.137   2.012 -43.206  1.00 18.10 LIG 0.16  HD
ATOM     12 O    VAL C   4      -4.128   3.129 -45.211  1.00 20.23 LIG-0.27  OA
BRANCH 10 13
ATOM     13  CA  VAL C   5      -2.374   3.964 -43.151  1.00 17.69 LIG 0.18  C 
BRANCH 13 14
ATOM     14  CB  VAL C   5      -3.549   4.480 -42.284  1.00 18.27 LIG 0.01  C 
ATOM     15  CG2 VAL C   5      -4.015   3.351 -41.318  1.00 18.63 LIG 0.01  C 
ATOM     16  CG1 VAL C   5      -4.710   4.979 -43.158  1.00 19.20 LIG 0.01  C 
ENDBRANCH 13 14
BRANCH 13 17
ATOM     17  C   VAL C   5      -1.067   3.997 -42.351  1.00 17.55 LIG 0.24  C 
ATOM     18 O    VAL C   5      -1.071   4.293 -41.145  1.00 16.61 LIG-0.27  OA
ATOM     19  N   CYS C   6       0.029   3.673 -43.026  1.00 17.33 LIG-0.34  N 
ATOM     20 H    CYS C   6       0.027   3.462 -43.859  1.00 17.33 LIG 0.16  HD
BRANCH 19 21
ATOM     21  CA  CYS C   6       1.358   3.644 -42.410  1.00 17.84 LIG 0.18  C 
BRANCH 21 22
ATOM     22  CB  CYS C   6       1.553   2.356 -41.619  1.00 18.00 LIG 0.10  C 
BRANCH 22 23
ATOM     23 SG   CYS C   6       0.684   2.373 -40.053  1.00 23.34 LIG-0.18  SA
ATOM     24 HG   CYS C   6      -0.237   1.604 -40.097  1.00 23.34 LIG 0.10  HD
ENDBRANCH 22 23
ENDBRANCH 21 22
BRANCH 21 25
ATOM     25  C   CYS C   6       2.423   3.753 -43.479  1.00 17.78 LIG 0.24  C 
ATOM     26 O    CYS C   6       3.348   4.556 -43.357  1.00 18.30 LIG-0.27  OA
ATOM     27  N   CYS C   7       2.301   2.938 -44.531  1.00 17.97 LIG-0.34  N 
ATOM     28 H    CYS C   7       1.642   2.399 -44.653  1.00 17.97 LIG 0.16  HD
BRANCH 27 29
ATOM     29  CA  CYS C   7       3.321   2.909 -45.586  1.00 18.46 LIG 0.19  C 
BRANCH 29 30
ATOM     30  CB  CYS C   7       3.854   1.489 -45.723  1.00 18.37 LIG 0.11  C 
BRANCH 30 31
ATOM     31 SG   CYS C   7       3.637   0.536 -44.197  1.00 21.24 LIG-0.18  SA
ATOM     32 HG   CYS C   7       3.483   1.287 -43.275  1.00 21.24 LIG 0.10  HD
ENDBRANCH 30 31
ENDBRANCH 29 30
BRANCH 29 33
ATOM     33  C   CYS C   7       2.821   3.452 -46.927  1.00 18.64 LIG 0.20  C 
ATOM     34 OXT  CYS C   7       3.104   4.604 -47.291  1.00 18.72 LIG-0.65  OA
ATOM     35 O    CYS C   7       2.170   2.729 -47.701  1.00 19.07 LIG-0.65  OA
ENDBRANCH 29 33
ENDBRANCH 27 29
ENDBRANCH 21 25
ENDBRANCH 19 21
ENDBRANCH 13 17
ENDBRANCH 10 13
ENDBRANCH 5 9
ENDBRANCH 3 5
BRANCH 1 36
ATOM     36  CA  ASP C   3      -6.278  -0.346 -47.372  1.00 23.26 LIG 0.19  C 
BRANCH 36 37
ATOM     37  N   ASP C   3      -5.589  -0.197 -48.636  1.00 23.08 LIG-0.35  N 
ATOM     38  C   GLU C   2      -6.042   0.664 -49.533  1.00 23.46 LIG 0.24  C 
ATOM     39 O    GLU C   2      -7.101   1.264 -49.389  1.00 23.95 LIG-0.27  OA
ATOM     40 H    ASP C   3      -4.896  -0.697 -48.738  1.00 23.08 LIG 0.16  HD
BRANCH 38 41
ATOM     41  CA  GLU C   2      -5.182   0.882 -50.765  1.00 23.56 LIG 0.18  C 
BRANCH 41 42
ATOM     42  N   GLU C   2      -5.989   1.506 -51.823  1.00 23.07 LIG-0.35  N 
ATOM     43  C   THR C   1      -6.557   0.769 -52.777  1.00 23.69 LIG 0.24  C 
ATOM     44 O    THR C   1      -6.418  -0.448 -52.863  1.00 24.29 LIG-0.27  OA
ATOM     45 H    GLU C   2      -6.056   2.362 -51.766  1.00 23.07 LIG 0.16  HD
BRANCH 43 46
ATOM     46  CA  THR C   1      -7.396   1.500 -53.812  1.00 23.89 LIG 0.20  C 
BRANCH 46 47
ATOM     47  CB  THR C   1      -8.397   0.514 -54.438  1.00 24.32 LIG 0.15  C 
ATOM     48  CG2 THR C   1      -9.134  -0.271 -53.339  1.00 24.71 LIG 0.04  C 
BRANCH 47 49
ATOM     49 OG1  THR C   1      -9.357   1.239 -55.220  1.00 24.87 LIG-0.39  OA
ATOM     50 HG1  THR C   1      -9.613   1.915 -54.793  1.00 24.87 LIG 0.21  HD
ENDBRANCH 47 49
ENDBRANCH 46 47
BRANCH 46 51
ATOM     51  N   THR C   1      -6.499   2.075 -54.809  1.00 24.03 LIG-0.35  N 
ATOM     52 H    THR C   1      -6.358   1.569 -55.490  1.00 24.03 LIG 0.16  HD
ATOM     53  C   ACE C   0      -5.955   3.279 -54.657  1.00 24.28 LIG 0.21  C 
ATOM     54 O    ACE C   0      -6.166   3.988 -53.666  1.00 24.50 LIG-0.27  OA
ATOM     55  CH3 ACE C   0      -5.268   3.812 -55.875  1.00 24.98 LIG 0.12  C 
ENDBRANCH 46 51
ENDBRANCH 43 46
ENDBRANCH 41 42
BRANCH 41 56
ATOM     56  CB  GLU C   2      -3.960   1.737 -50.398  1.00 23.91 LIG 0.04  C 
BRANCH 56 57
ATOM     57  CG  GLU C   2      -3.944   2.234 -48.962  1.00 27.13 LIG 0.12  C 
BRANCH 57 58
ATOM     58  CD  GLU C   2      -2.678   2.991 -48.601  1.00 29.05 LIG 0.17  C 
ATOM     59 OE2  GLU C   2      -2.590   3.479 -47.459  1.00 31.00 LIG-0.65  OA
ATOM     60 OE1  GLU C   2      -1.776   3.104 -49.453  1.00 31.26 LIG-0.65  OA
ENDBRANCH 57 58
ENDBRANCH 56 57
ENDBRANCH 41 56
ENDBRANCH 38 41
ENDBRANCH 36 37
BRANCH 36 61
ATOM     61  CB  ASP C   3      -7.169  -1.580 -47.387  1.00 24.55 LIG 0.15  C 
BRANCH 61 62
ATOM     62  CG  ASP C   3      -8.616  -1.257 -47.047  1.00 28.69 LIG 0.17  C 
ATOM     63 OD2  ASP C   3      -9.450  -1.211 -47.975  1.00 33.40 LIG-0.65  OA
ATOM     64 OD1  ASP C   3      -8.917  -1.036 -45.851  1.00 33.84 LIG-0.65  OA
ENDBRANCH 61 62
ENDBRANCH 36 61
ENDBRANCH 1 36
TORSDOF 27
ENDMDL
MODEL 6
USER: ADFR SOLUTION from run 45
USER: SCORE 18.951067 LL:  -5.008 LR: -17.075 RR:   0.000 FEB:  -9.021
USER: RMSD 12.762855
USER: SEED 44
USER: STATUS no improvement in best in 3 clusters for 5 generations
USER: GENES 29
USER: genes 0 Translation |==|  0.68395 0.57624 0.47669
USER: genes 1 Rotation |==|  0.29331 0.12630 0.73165 0.61820
USER: genes 2 Torsion [C]-N--CA-[CB] |==|  0.50754
USER: genes 3 Torsion [N]-CA--CB-[CG2] |==|  0.92082
USER: genes 4 Torsion [N]-CA--C-[N] |==|  0.44696
USER: genes 5 Torsion [C]-N--CA-[C] |==|  0.55556
USER: genes 6 Torsion [N]-CA--CB-[CG2] |==|  0.09493
USER: genes 7 Torsion [N]-CA--C-[N] |==|  0.05771
USER: genes 8 Torsion [C]-N--CA-[CB] |==|  0.20785
USER: genes 9 Torsion [N]-CA--CB-[SG] |==|  0.77070
USER: genes 10 Torsion [CA]-CB--SG-[HG] |==|  0.35181
USER: genes 11 Torsion [N]-CA--C-[N] |==|  0.28617
USER: genes 12 Torsion [C]-N--CA-[C] |==|  0.55510
USER: genes 13 Torsion [N]-CA--CB-[SG] |==|  0.81222
USER: genes 14 Torsion [CA]-CB--SG-[HG] |==|  0.25390
USER: genes 15 Torsion [N]-CA--C-[OXT] |==|  0.01467
USER: genes 16 Torsion [N]-C--CA-[N] |==|  0.00718
USER: genes 17 Torsion [C]-CA--N-[C] |==|  0.68363
USER: genes 18 Torsion [N]-C--CA-[N] |==|  0.20776
USER: genes 19 Torsion [C]-CA--N-[C] |==|  0.75531
USER: genes 20 Torsion [N]-C--CA-[N] |==|  0.09273
USER: genes 21 Torsion [C]-CA--CB-[CG2] |==|  0.34117
USER: genes 22 Torsion [CA]-CB--OG1-[HG1] |==|  0.14318
USER: genes 23 Torsion [C]-CA--N-[C] |==|  0.73999
USER: genes 24 Torsion [C]-CA--CB-[CG] |==|  0.76744
USER: genes 25 Torsion [CA]-CB--CG-[CD] |==|  0.76201
USER: genes 26 Torsion [CB]-CG--CD-[OE2] |==|  0.46639
USER: genes 27 Torsion [C]-CA--CB-[CG] |==|  0.34727
USER: genes 28 Torsion [CA]-CB--CG-[OD2] |==|  0.38284
ROOT
ATOM      1  C   ASP C   3      -3.731   1.737 -50.938  1.00 21.95 LIG 0.24  C 
ATOM      2 O    ASP C   3      -3.351   1.744 -52.109  1.00 22.02 LIG-0.27  OA
ATOM      3  N   VAL C   4      -4.952   1.397 -50.547  1.00 20.47 LIG-0.35  N 
ATOM      4 H    VAL C   4      -5.202   1.388 -49.725  1.00 20.47 LIG 0.16  HD
ENDROOT
BRANCH 3 5
ATOM      5  CA  VAL C   4      -5.993   1.001 -51.491  1.00 19.37 LIG 0.18  C 
BRANCH 5 6
ATOM      6  CB  VAL C   4      -7.326   0.727 -50.762  1.00 19.50 LIG 0.01  C 
ATOM      7  CG2 VAL C   4      -7.064   0.253 -49.325  1.00 18.97 LIG 0.01  C 
ATOM      8  CG1 VAL C   4      -8.148  -0.298 -51.521  1.00 20.24 LIG 0.01  C 
ENDBRANCH 5 6
BRANCH 5 9
ATOM      9  C   VAL C   4      -6.141   2.140 -52.492  1.00 18.84 LIG 0.24  C 
ATOM     10  N   VAL C   5      -6.736   1.852 -53.650  1.00 18.10 LIG-0.35  N 
ATOM     11 H    VAL C   5      -7.102   1.091 -53.813  1.00 18.10 LIG 0.16  HD
ATOM     12 O    VAL C   4      -5.731   3.266 -52.195  1.00 20.23 LIG-0.27  OA
BRANCH 10 13
ATOM     13  CA  VAL C   5      -6.829   2.792 -54.761  1.00 17.69 LIG 0.18  C 
BRANCH 13 14
ATOM     14  CB  VAL C   5      -5.488   2.864 -55.534  1.00 18.27 LIG 0.01  C 
ATOM     15  CG2 VAL C   5      -4.810   1.463 -55.527  1.00 18.63 LIG 0.01  C 
ATOM     16  CG1 VAL C   5      -4.559   3.934 -54.941  1.00 19.20 LIG 0.01  C 
ENDBRANCH 13 14
BRANCH 13 17
ATOM     17  C   VAL C   5      -7.960   2.354 -55.697  1.00 17.55 LIG 0.24  C 
ATOM     18 O    VAL C   5      -7.983   2.729 -56.881  1.00 16.61 LIG-0.27  OA
ATOM     19  N   CYS C   6      -8.871   1.550 -55.163  1.00 17.33 LIG-0.34  N 
ATOM     20 H    CYS C   6      -8.848   1.287 -54.344  1.00 17.33 LIG 0.16  HD
BRANCH 19 21
ATOM     21  CA  CYS C   6     -10.011   1.030 -55.921  1.00 17.84 LIG 0.18  C 
BRANCH 21 22
ATOM     22  CB  CYS C   6      -9.562  -0.071 -56.874  1.00 18.00 LIG 0.10  C 
BRANCH 22 23
ATOM     23 SG   CYS C   6      -8.891   0.575 -58.404  1.00 23.34 LIG-0.18  SA
ATOM     24 HG   CYS C   6      -7.802   0.107 -58.593  1.00 23.34 LIG 0.10  HD
ENDBRANCH 22 23
ENDBRANCH 21 22
BRANCH 21 25
ATOM     25  C   CYS C   6     -11.057   0.488 -54.971  1.00 17.78 LIG 0.24  C 
ATOM     26 O    CYS C   6     -10.896  -0.605 -54.427  1.00 18.30 LIG-0.27  OA
ATOM     27  N   CYS C   7     -12.131   1.254 -54.763  1.00 17.97 LIG-0.34  N 
ATOM     28 H    CYS C   7     -12.280   2.000 -55.164  1.00 17.97 LIG 0.16  HD
BRANCH 27 29
ATOM     29  CA  CYS C   7     -13.167   0.856 -53.802  1.00 18.46 LIG 0.19  C 
BRANCH 29 30
ATOM     30  CB  CYS C   7     -12.650   1.088 -52.389  1.00 18.37 LIG 0.11  C 
BRANCH 30 31
ATOM     31 SG   CYS C   7     -11.289  -0.034 -51.975  1.00 21.24 LIG-0.18  SA
ATOM     32 HG   CYS C   7     -10.243   0.484 -52.255  1.00 21.24 LIG 0.10  HD
ENDBRANCH 30 31
ENDBRANCH 29 30
BRANCH 29 33
ATOM     33  C   CYS C   7     -14.508   1.559 -54.031  1.00 18.64 LIG 0.20  C 
ATOM     34 OXT  CYS C   7     -14.676   2.302 -55.011  1.00 18.72 LIG-0.65  OA
ATOM     35 O    CYS C   7     -15.469   1.354 -53.270  1.00 19.07 LIG-0.65  OA
ENDBRANCH 29 33
ENDBRANCH 27 29
ENDBRANCH 21 25
ENDBRANCH 19 21
ENDBRANCH 13 17
ENDBRANCH 10 13
ENDBRANCH 5 9
ENDBRANCH 3 5
BRANCH 1 36
ATOM     36  CA  ASP C   3      -2.787   2.122 -49.832  1.00 23.26 LIG 0.19  C 
BRANCH 36 37
ATOM     37  N   ASP C   3      -3.455   1.964 -48.559  1.00 23.08 LIG-0.35  N 
ATOM     38  C   GLU C   2      -3.714   3.029 -47.816  1.00 23.46 LIG 0.24  C 
ATOM     39 O    GLU C   2      -3.302   4.146 -48.107  1.00 23.95 LIG-0.27  OA
ATOM     40 H    ASP C   3      -3.654   1.155 -48.346  1.00 23.08 LIG 0.16  HD
BRANCH 38 41
ATOM     41  CA  GLU C   2      -4.554   2.805 -46.571  1.00 23.56 LIG 0.18  C 
BRANCH 41 42
ATOM     42  N   GLU C   2      -3.736   2.154 -45.538  1.00 23.07 LIG-0.35  N 
ATOM     43  C   THR C   1      -3.640   0.826 -45.476  1.00 23.69 LIG 0.24  C 
ATOM     44 O    THR C   1      -4.243   0.069 -46.233  1.00 24.29 LIG-0.27  OA
ATOM     45 H    GLU C   2      -3.341   2.695 -44.998  1.00 23.07 LIG 0.16  HD
BRANCH 43 46
ATOM     46  CA  THR C   1      -2.750   0.245 -44.391  1.00 23.89 LIG 0.20  C 
BRANCH 46 47
ATOM     47  CB  THR C   1      -3.212  -1.188 -44.072  1.00 24.32 LIG 0.15  C 
ATOM     48  CG2 THR C   1      -2.056  -2.181 -44.273  1.00 24.71 LIG 0.04  C 
BRANCH 47 49
ATOM     49 OG1  THR C   1      -3.656  -1.254 -42.710  1.00 24.87 LIG-0.39  OA
ATOM     50 HG1  THR C   1      -4.215  -0.643 -42.566  1.00 24.87 LIG 0.21  HD
ENDBRANCH 47 49
ENDBRANCH 46 47
BRANCH 46 51
ATOM     51  N   THR C   1      -2.821   1.115 -43.223  1.00 24.03 LIG-0.35  N 
ATOM     52 H    THR C   1      -3.474   0.940 -42.691  1.00 24.03 LIG 0.16  HD
ATOM     53  C   ACE C   0      -1.942   2.091 -43.015  1.00 24.28 LIG 0.21  C 
ATOM     54 O    ACE C   0      -1.012   2.330 -43.796  1.00 24.50 LIG-0.27  OA
ATOM     55  CH3 ACE C   0      -2.011   2.718 -41.659  1.00 24.98 LIG 0.12  C 
ENDBRANCH 46 51
ENDBRANCH 43 46
ENDBRANCH 41 42
BRANCH 41 56
ATOM     56  CB  GLU C   2      -5.127   4.146 -46.087  1.00 23.91 LIG 0.04  C 
BRANCH 56 57
ATOM     57  CG  GLU C   2      -4.183   4.960 -45.218  1.00 27.13 LIG 0.12  C 
BRANCH 57 58
ATOM     58  CD  GLU C   2      -4.241   4.582 -43.749  1.00 29.05 LIG 0.17  C 
ATOM     59 OE2  GLU C   2      -3.355   5.020 -42.992  1.00 31.00 LIG-0.65  OA
ATOM     60 OE1  GLU C   2      -5.164   3.846 -43.349  1.00 31.26 LIG-0.65  OA
ENDBRANCH 57 58
ENDBRANCH 56 57
ENDBRANCH 41 56
ENDBRANCH 38 41
ENDBRANCH 36 37
BRANCH 36 61
ATOM     61  CB  ASP C   3      -1.525   1.273 -49.888  1.00 24.55 LIG 0.15  C 
BRANCH 61 62
ATOM     62  CG  ASP C   3      -0.260   2.114 -49.957  1.00 28.69 LIG 0.17  C 
ATOM     63 OD2  ASP C   3       0.721   1.770 -49.265  1.00 33.40 LIG-0.65  OA
ATOM     64 OD1  ASP C   3      -0.252   3.127 -50.693  1.00 33.84 LIG-0.65  OA
ENDBRANCH 61 62
ENDBRANCH 36 61
ENDBRANCH 1 36
TORSDOF 27
ENDMDL
MODEL 7
USER: ADFR SOLUTION from run 89
USER: SCORE 19.560604 LL:  -5.000 LR: -17.011 RR:   0.000 FEB:  -8.957
USER: RMSD 13.127426
USER: SEED 88
USER: STATUS 1 or 2 clusters left
USER: GENES 29
USER: genes 0 Translation |==|  0.63806 0.62227 0.49872
USER: genes 1 Rotation |==|  0.90811 0.29431 0.30071 0.53774
USER: genes 2 Torsion [C]-N--CA-[CB] |==|  0.50579
USER: genes 3 Torsion [N]-CA--CB-[CG2] |==|  0.42500
USER: genes 4 Torsion [N]-CA--C-[N] |==|  0.37189
USER: genes 5 Torsion [C]-N--CA-[C] |==|  0.65729
USER: genes 6 Torsion [N]-CA--CB-[CG2] |==|  0.26312
USER: genes 7 Torsion [N]-CA--C-[N] |==|  0.97262
USER: genes 8 Torsion [C]-N--CA-[CB] |==|  0.86242
USER: genes 9 Torsion [N]-CA--CB-[SG] |==|  0.62484
USER: genes 10 Torsion [CA]-CB--SG-[HG] |==|  0.99236
USER: genes 11 Torsion [N]-CA--C-[N] |==|  0.29444
USER: genes 12 Torsion [C]-N--CA-[C] |==|  0.53558
USER: genes 13 Torsion [N]-CA--CB-[SG] |==|  0.10130
USER: genes 14 Torsion [CA]-CB--SG-[HG] |==|  0.07009
USER: genes 15 Torsion [N]-CA--C-[OXT] |==|  0.99966
USER: genes 16 Torsion [N]-C--CA-[N] |==|  0.43925
USER: genes 17 Torsion [C]-CA--N-[C] |==|  0.67157
USER: genes 18 Torsion [N]-C--CA-[N] |==|  0.21119
USER: genes 19 Torsion [C]-CA--N-[C] |==|  0.74535
USER: genes 20 Torsion [N]-C--CA-[N] |==|  0.13689
USER: genes 21 Torsion [C]-CA--CB-[CG2] |==|  0.38247
USER: genes 22 Torsion [CA]-CB--OG1-[HG1] |==|  0.05680
USER: genes 23 Torsion [C]-CA--N-[C] |==|  0.76843
USER: genes 24 Torsion [C]-CA--CB-[CG] |==|  0.49414
USER: genes 25 Torsion [CA]-CB--CG-[CD] |==|  0.20292
USER: genes 26 Torsion [CB]-CG--CD-[OE2] |==|  0.65623
USER: genes 27 Torsion [C]-CA--CB-[CG] |==|  0.41936
USER: genes 28 Torsion [CA]-CB--CG-[OD2] |==|  0.28139
ROOT
ATOM      1  C   ASP C   3      -4.832   2.496 -50.326  1.00 21.95 LIG 0.24  C 
ATOM      2 O    ASP C   3      -5.800   1.895 -49.860  1.00 22.02 LIG-0.27  OA
ATOM      3  N   VAL C   4      -4.781   3.000 -51.553  1.00 20.47 LIG-0.35  N 
ATOM      4 H    VAL C   4      -4.102   3.425 -51.863  1.00 20.47 LIG 0.16  HD
ENDROOT
BRANCH 3 5
ATOM      5  CA  VAL C   4      -5.888   2.875 -52.496  1.00 19.37 LIG 0.18  C 
BRANCH 5 6
ATOM      6  CB  VAL C   4      -5.529   3.508 -53.857  1.00 19.50 LIG 0.01  C 
ATOM      7  CG2 VAL C   4      -6.322   2.835 -54.987  1.00 18.97 LIG 0.01  C 
ATOM      8  CG1 VAL C   4      -4.038   3.406 -54.117  1.00 20.24 LIG 0.01  C 
ENDBRANCH 5 6
BRANCH 5 9
ATOM      9  C   VAL C   4      -6.180   1.388 -52.644  1.00 18.84 LIG 0.24  C 
ATOM     10  N   VAL C   5      -7.459   1.015 -52.586  1.00 18.10 LIG-0.35  N 
ATOM     11 H    VAL C   5      -8.110   1.576 -52.554  1.00 18.10 LIG 0.16  HD
ATOM     12 O    VAL C   4      -5.246   0.600 -52.825  1.00 20.23 LIG-0.27  OA
BRANCH 10 13
ATOM     13  CA  VAL C   5      -7.890  -0.377 -52.572  1.00 17.69 LIG 0.18  C 
BRANCH 13 14
ATOM     14  CB  VAL C   5      -8.575  -0.727 -51.227  1.00 18.27 LIG 0.01  C 
ATOM     15  CG2 VAL C   5     -10.116  -0.562 -51.372  1.00 18.63 LIG 0.01  C 
ATOM     16  CG1 VAL C   5      -8.028   0.137 -50.081  1.00 19.20 LIG 0.01  C 
ENDBRANCH 13 14
BRANCH 13 17
ATOM     17  C   VAL C   5      -8.855  -0.618 -53.738  1.00 17.55 LIG 0.24  C 
ATOM     18 O    VAL C   5      -9.226  -1.767 -54.026  1.00 16.61 LIG-0.27  OA
ATOM     19  N   CYS C   6      -9.264   0.470 -54.380  1.00 17.33 LIG-0.34  N 
ATOM     20 H    CYS C   6      -9.009   1.265 -54.174  1.00 17.33 LIG 0.16  HD
BRANCH 19 21
ATOM     21  CA  CYS C   6     -10.194   0.419 -55.510  1.00 17.84 LIG 0.18  C 
BRANCH 21 22
ATOM     22  CB  CYS C   6      -9.735  -0.612 -56.535  1.00 18.00 LIG 0.10  C 
BRANCH 22 23
ATOM     23 SG   CYS C   6      -9.833  -0.000 -58.216  1.00 23.34 LIG-0.18  SA
ATOM     24 HG   CYS C   6     -10.299   1.106 -58.213  1.00 23.34 LIG 0.10  HD
ENDBRANCH 22 23
ENDBRANCH 21 22
BRANCH 21 25
ATOM     25  C   CYS C   6     -11.581   0.067 -55.019  1.00 17.78 LIG 0.24  C 
ATOM     26 O    CYS C   6     -11.843  -1.082 -54.662  1.00 18.30 LIG-0.27  OA
ATOM     27  N   CYS C   7     -12.476   1.058 -54.992  1.00 17.97 LIG-0.34  N 
ATOM     28 H    CYS C   7     -12.324   1.857 -55.274  1.00 17.97 LIG 0.16  HD
BRANCH 27 29
ATOM     29  CA  CYS C   7     -13.827   0.842 -54.461  1.00 18.46 LIG 0.19  C 
BRANCH 29 30
ATOM     30  CB  CYS C   7     -13.739   0.603 -52.959  1.00 18.37 LIG 0.11  C 
BRANCH 30 31
ATOM     31 SG   CYS C   7     -12.450   1.618 -52.190  1.00 21.24 LIG-0.18  SA
ATOM     32 HG   CYS C   7     -12.258   2.596 -52.858  1.00 21.24 LIG 0.10  HD
ENDBRANCH 30 31
ENDBRANCH 29 30
BRANCH 29 33
ATOM     33  C   CYS C   7     -14.798   1.979 -54.791  1.00 18.64 LIG 0.20  C 
ATOM     34 OXT  CYS C   7     -14.422   2.964 -55.446  1.00 18.72 LIG-0.65  OA
ATOM     35 O    CYS C   7     -15.993   1.909 -54.459  1.00 19.07 LIG-0.65  OA
ENDBRANCH 29 33
ENDBRANCH 27 29
ENDBRANCH 21 25
ENDBRANCH 19 21
ENDBRANCH 13 17
ENDBRANCH 10 13
ENDBRANCH 5 9
ENDBRANCH 3 5
BRANCH 1 36
ATOM     36  CA  ASP C   3      -3.600   2.713 -49.492  1.00 23.26 LIG 0.19  C 
BRANCH 36 37
ATOM     37  N   ASP C   3      -3.947   2.601 -48.092  1.00 23.08 LIG-0.35  N 
ATOM     38  C   GLU C   2      -3.783   3.641 -47.290  1.00 23.46 LIG 0.24  C 
ATOM     39 O    GLU C   2      -3.229   4.672 -47.658  1.00 23.95 LIG-0.27  OA
ATOM     40 H    ASP C   3      -4.254   1.835 -47.848  1.00 23.08 LIG 0.16  HD
BRANCH 38 41
ATOM     41  CA  GLU C   2      -4.314   3.503 -45.874  1.00 23.56 LIG 0.18  C 
BRANCH 41 42
ATOM     42  N   GLU C   2      -3.406   2.654 -45.090  1.00 23.07 LIG-0.35  N 
ATOM     43  C   THR C   1      -3.595   1.337 -45.011  1.00 23.69 LIG 0.24  C 
ATOM     44 O    THR C   1      -4.540   0.758 -45.540  1.00 24.29 LIG-0.27  OA
ATOM     45 H    GLU C   2      -2.764   3.076 -44.702  1.00 23.07 LIG 0.16  HD
BRANCH 43 46
ATOM     46  CA  THR C   1      -2.589   0.539 -44.199  1.00 23.89 LIG 0.20  C 
BRANCH 46 47
ATOM     47  CB  THR C   1      -3.093  -0.907 -44.052  1.00 24.32 LIG 0.15  C 
ATOM     48  CG2 THR C   1      -1.936  -1.901 -44.250  1.00 24.71 LIG 0.04  C 
BRANCH 47 49
ATOM     49 OG1  THR C   1      -3.648  -1.089 -42.742  1.00 24.87 LIG-0.39  OA
ATOM     50 HG1  THR C   1      -3.849  -0.341 -42.416  1.00 24.87 LIG 0.21  HD
ENDBRANCH 47 49
ENDBRANCH 46 47
BRANCH 46 51
ATOM     51  N   THR C   1      -2.418   1.192 -42.906  1.00 24.03 LIG-0.35  N 
ATOM     52 H    THR C   1      -2.896   0.856 -42.275  1.00 24.03 LIG 0.16  HD
ATOM     53  C   ACE C   0      -1.590   2.219 -42.739  1.00 24.28 LIG 0.21  C 
ATOM     54 O    ACE C   0      -0.914   2.691 -43.662  1.00 24.50 LIG-0.27  OA
ATOM     55  CH3 ACE C   0      -1.351   2.603 -41.313  1.00 24.98 LIG 0.12  C 
ENDBRANCH 46 51
ENDBRANCH 43 46
ENDBRANCH 41 42
BRANCH 41 56
ATOM     56  CB  GLU C   2      -4.481   4.895 -45.246  1.00 23.91 LIG 0.04  C 
BRANCH 56 57
ATOM     57  CG  GLU C   2      -5.056   4.891 -43.841  1.00 27.13 LIG 0.12  C 
BRANCH 57 58
ATOM     58  CD  GLU C   2      -4.075   4.403 -42.790  1.00 29.05 LIG 0.17  C 
ATOM     59 OE2  GLU C   2      -4.409   3.441 -42.073  1.00 31.00 LIG-0.65  OA
ATOM     60 OE1  GLU C   2      -2.976   4.979 -42.674  1.00 31.26 LIG-0.65  OA
ENDBRANCH 57 58
ENDBRANCH 56 57
ENDBRANCH 41 56
ENDBRANCH 38 41
ENDBRANCH 36 37
BRANCH 36 61
ATOM     61  CB  ASP C   3      -2.522   1.703 -49.861  1.00 24.55 LIG 0.15  C 
BRANCH 61 62
ATOM     62  CG  ASP C   3      -1.118   2.241 -49.632  1.00 28.69 LIG 0.17  C 
ATOM     63 OD2  ASP C   3      -0.502   1.881 -48.607  1.00 33.40 LIG-0.65  OA
ATOM     64 OD1  ASP C   3      -0.636   3.036 -50.470  1.00 33.84 LIG-0.65  OA
ENDBRANCH 61 62
ENDBRANCH 36 61
ENDBRANCH 1 36
TORSDOF 27
ENDMDL
MODEL 8
USER: ADFR SOLUTION from run 106
USER: SCORE 20.357414 LL:  -5.616 LR: -16.979 RR:   0.000 FEB:  -8.925
USER: RMSD 12.806165
USER: SEED 105
USER: STATUS 1 or 2 clusters left
USER: GENES 29
USER: genes 0 Translation |==|  0.63661 0.65210 0.59900
USER: genes 1 Rotation |==|  0.58970 0.96845 0.35776 0.54767
USER: genes 2 Torsion [C]-N--CA-[CB] |==|  0.15538
USER: genes 3 Torsion [N]-CA--CB-[CG2] |==|  0.50612
USER: genes 4 Torsion [N]-CA--C-[N] |==|  0.14792
USER: genes 5 Torsion [C]-N--CA-[C] |==|  0.83324
USER: genes 6 Torsion [N]-CA--CB-[CG2] |==|  0.72385
USER: genes 7 Torsion [N]-CA--C-[N] |==|  0.93498
USER: genes 8 Torsion [C]-N--CA-[CB] |==|  0.25492
USER: genes 9 Torsion [N]-CA--CB-[SG] |==|  0.06517
USER: genes 10 Torsion [CA]-CB--SG-[HG] |==|  0.13576
USER: genes 11 Torsion [N]-CA--C-[N] |==|  0.86872
USER: genes 12 Torsion [C]-N--CA-[C] |==|  0.58563
USER: genes 13 Torsion [N]-CA--CB-[SG] |==|  0.00832
USER: genes 14 Torsion [CA]-CB--SG-[HG] |==|  0.07949
USER: genes 15 Torsion [N]-CA--C-[OXT] |==|  0.11772
USER: genes 16 Torsion [N]-C--CA-[N] |==|  0.16664
USER: genes 17 Torsion [C]-CA--N-[C] |==|  0.15288
USER: genes 18 Torsion [N]-C--CA-[N] |==|  0.80556
USER: genes 19 Torsion [C]-CA--N-[C] |==|  0.80775
USER: genes 20 Torsion [N]-C--CA-[N] |==|  0.42790
USER: genes 21 Torsion [C]-CA--CB-[CG2] |==|  0.22636
USER: genes 22 Torsion [CA]-CB--OG1-[HG1] |==|  0.38166
USER: genes 23 Torsion [C]-CA--N-[C] |==|  0.63467
USER: genes 24 Torsion [C]-CA--CB-[CG] |==|  0.09732
USER: genes 25 Torsion [CA]-CB--CG-[CD] |==|  0.49077
USER: genes 26 Torsion [CB]-CG--CD-[OE2] |==|  0.95735
USER: genes 27 Torsion [C]-CA--CB-[CG] |==|  0.49873
USER: genes 28 Torsion [CA]-CB--CG-[OD2] |==|  0.42331
ROOT
ATOM      1  C   ASP C   3      -4.867   2.989 -47.544  1.00 21.95 LIG 0.24  C 
ATOM      2 O    ASP C   3      -4.229   3.721 -48.300  1.00 22.02 LIG-0.27  OA
ATOM      3  N   VAL C   4      -5.496   1.883 -47.922  1.00 20.47 LIG-0.35  N 
ATOM      4 H    VAL C   4      -5.931   1.376 -47.381  1.00 20.47 LIG 0.16  HD
ENDROOT
BRANCH 3 5
ATOM      5  CA  VAL C   4      -5.503   1.423 -49.307  1.00 19.37 LIG 0.18  C 
BRANCH 5 6
ATOM      6  CB  VAL C   4      -4.066   1.250 -49.841  1.00 19.50 LIG 0.01  C 
ATOM      7  CG2 VAL C   4      -4.089   0.819 -51.315  1.00 18.97 LIG 0.01  C 
ATOM      8  CG1 VAL C   4      -3.302   0.244 -49.002  1.00 20.24 LIG 0.01  C 
ENDBRANCH 5 6
BRANCH 5 9
ATOM      9  C   VAL C   4      -6.259   0.101 -49.332  1.00 18.84 LIG 0.24  C 
ATOM     10  N   VAL C   5      -7.478   0.091 -48.791  1.00 18.10 LIG-0.35  N 
ATOM     11 H    VAL C   5      -7.873   0.804 -48.513  1.00 18.10 LIG 0.16  HD
ATOM     12 O    VAL C   4      -5.736  -0.888 -49.855  1.00 20.23 LIG-0.27  OA
BRANCH 10 13
ATOM     13  CA  VAL C   5      -8.269  -1.120 -48.614  1.00 17.69 LIG 0.18  C 
BRANCH 13 14
ATOM     14  CB  VAL C   5      -9.617  -0.799 -47.920  1.00 18.27 LIG 0.01  C 
ATOM     15  CG2 VAL C   5      -9.513  -1.136 -46.404  1.00 18.63 LIG 0.01  C 
ATOM     16  CG1 VAL C   5     -10.778  -1.558 -48.581  1.00 19.20 LIG 0.01  C 
ENDBRANCH 13 14
BRANCH 13 17
ATOM     17  C   VAL C   5      -8.515  -1.766 -49.981  1.00 17.55 LIG 0.24  C 
ATOM     18 O    VAL C   5      -8.787  -2.974 -50.071  1.00 16.61 LIG-0.27  OA
ATOM     19  N   CYS C   6      -8.436  -0.950 -51.025  1.00 17.33 LIG-0.34  N 
ATOM     20 H    CYS C   6      -8.254  -0.113 -50.959  1.00 17.33 LIG 0.16  HD
BRANCH 19 21
ATOM     21  CA  CYS C   6      -8.655  -1.402 -52.401  1.00 17.84 LIG 0.18  C 
BRANCH 21 22
ATOM     22  CB  CYS C   6     -10.117  -1.234 -52.794  1.00 18.00 LIG 0.10  C 
BRANCH 22 23
ATOM     23 SG   CYS C   6     -10.953   0.012 -51.816  1.00 23.34 LIG-0.18  SA
ATOM     24 HG   CYS C   6     -10.289   1.012 -51.789  1.00 23.34 LIG 0.10  HD
ENDBRANCH 22 23
ENDBRANCH 21 22
BRANCH 21 25
ATOM     25  C   CYS C   6      -7.778  -0.611 -53.348  1.00 17.78 LIG 0.24  C 
ATOM     26 O    CYS C   6      -7.119  -1.187 -54.215  1.00 18.30 LIG-0.27  OA
ATOM     27  N   CYS C   7      -7.771   0.715 -53.191  1.00 17.97 LIG-0.34  N 
ATOM     28 H    CYS C   7      -8.192   1.132 -52.567  1.00 17.97 LIG 0.16  HD
BRANCH 27 29
ATOM     29  CA  CYS C   7      -7.015   1.580 -54.105  1.00 18.46 LIG 0.19  C 
BRANCH 29 30
ATOM     30  CB  CYS C   7      -7.881   1.900 -55.316  1.00 18.37 LIG 0.11  C 
BRANCH 30 31
ATOM     31 SG   CYS C   7      -9.541   1.189 -55.166  1.00 21.24 LIG-0.18  SA
ATOM     32 HG   CYS C   7      -9.836   1.102 -54.006  1.00 21.24 LIG 0.10  HD
ENDBRANCH 30 31
ENDBRANCH 29 30
BRANCH 29 33
ATOM     33  C   CYS C   7      -6.491   2.855 -53.438  1.00 18.64 LIG 0.20  C 
ATOM     34 OXT  CYS C   7      -5.992   2.818 -52.302  1.00 18.72 LIG-0.65  OA
ATOM     35 O    CYS C   7      -6.503   3.939 -54.045  1.00 19.07 LIG-0.65  OA
ENDBRANCH 29 33
ENDBRANCH 27 29
ENDBRANCH 21 25
ENDBRANCH 19 21
ENDBRANCH 13 17
ENDBRANCH 10 13
ENDBRANCH 5 9
ENDBRANCH 3 5
BRANCH 1 36
ATOM     36  CA  ASP C   3      -4.969   3.316 -46.079  1.00 23.26 LIG 0.19  C 
BRANCH 36 37
ATOM     37  N   ASP C   3      -4.400   2.232 -45.308  1.00 23.08 LIG-0.35  N 
ATOM     38  C   GLU C   2      -3.161   1.833 -45.549  1.00 23.46 LIG 0.24  C 
ATOM     39 O    GLU C   2      -2.505   2.267 -46.490  1.00 23.95 LIG-0.27  OA
ATOM     40 H    ASP C   3      -4.919   1.893 -44.712  1.00 23.08 LIG 0.16  HD
BRANCH 38 41
ATOM     41  CA  GLU C   2      -2.578   0.803 -44.599  1.00 23.56 LIG 0.18  C 
BRANCH 41 42
ATOM     42  N   GLU C   2      -2.340   1.424 -43.288  1.00 23.07 LIG-0.35  N 
ATOM     43  C   THR C   1      -1.384   2.339 -43.128  1.00 23.69 LIG 0.24  C 
ATOM     44 O    THR C   1      -0.628   2.692 -44.029  1.00 24.29 LIG-0.27  OA
ATOM     45 H    GLU C   2      -2.858   1.148 -42.660  1.00 23.07 LIG 0.16  HD
BRANCH 43 46
ATOM     46  CA  THR C   1      -1.230   2.945 -41.743  1.00 23.89 LIG 0.20  C 
BRANCH 46 47
ATOM     47  CB  THR C   1      -2.236   4.097 -41.581  1.00 24.32 LIG 0.15  C 
ATOM     48  CG2 THR C   1      -3.625   3.547 -41.213  1.00 24.71 LIG 0.04  C 
BRANCH 47 49
ATOM     49 OG1  THR C   1      -1.791   4.979 -40.541  1.00 24.87 LIG-0.39  OA
ATOM     50 HG1  THR C   1      -1.901   5.776 -40.783  1.00 24.87 LIG 0.21  HD
ENDBRANCH 47 49
ENDBRANCH 46 47
BRANCH 46 51
ATOM     51  N   THR C   1       0.148   3.398 -41.591  1.00 24.03 LIG-0.35  N 
ATOM     52 H    THR C   1       0.440   3.870 -42.248  1.00 24.03 LIG 0.16  HD
ATOM     53  C   ACE C   0       0.875   3.098 -40.518  1.00 24.28 LIG 0.21  C 
ATOM     54 O    ACE C   0       0.438   2.415 -39.584  1.00 24.50 LIG-0.27  OA
ATOM     55  CH3 ACE C   0       2.168   3.843 -40.410  1.00 24.98 LIG 0.12  C 
ENDBRANCH 46 51
ENDBRANCH 43 46
ENDBRANCH 41 42
BRANCH 41 56
ATOM     56  CB  GLU C   2      -3.527  -0.401 -44.497  1.00 23.91 LIG 0.04  C 
BRANCH 56 57
ATOM     57  CG  GLU C   2      -4.253  -0.745 -45.787  1.00 27.13 LIG 0.12  C 
BRANCH 57 58
ATOM     58  CD  GLU C   2      -5.121  -1.986 -45.677  1.00 29.05 LIG 0.17  C 
ATOM     59 OE2  GLU C   2      -4.944  -2.745 -44.705  1.00 31.00 LIG-0.65  OA
ATOM     60 OE1  GLU C   2      -5.974  -2.208 -46.557  1.00 31.26 LIG-0.65  OA
ENDBRANCH 57 58
ENDBRANCH 56 57
ENDBRANCH 41 56
ENDBRANCH 38 41
ENDBRANCH 36 37
BRANCH 36 61
ATOM     61  CB  ASP C   3      -4.255   4.626 -45.775  1.00 24.55 LIG 0.15  C 
BRANCH 61 62
ATOM     62  CG  ASP C   3      -4.339   5.006 -44.305  1.00 28.69 LIG 0.17  C 
ATOM     63 OD2  ASP C   3      -3.425   5.705 -43.818  1.00 33.40 LIG-0.65  OA
ATOM     64 OD1  ASP C   3      -5.312   4.595 -43.633  1.00 33.84 LIG-0.65  OA
ENDBRANCH 61 62
ENDBRANCH 36 61
ENDBRANCH 1 36
TORSDOF 27
ENDMDL
MODEL 9
USER: ADFR SOLUTION from run 148
USER: SCORE 17.802855 LL:  -4.233 LR: -16.952 RR:   0.000 FEB:  -8.898
USER: RMSD 6.992283
USER: SEED 147
USER: STATUS no improvement in best in 2 clusters for 5 generations
USER: GENES 29
USER: genes 0 Translation |==|  0.70344 0.54558 0.52792
USER: genes 1 Rotation |==|  0.53389 0.33034 0.07023 0.68806
USER: genes 2 Torsion [C]-N--CA-[CB] |==|  0.81333
USER: genes 3 Torsion [N]-CA--CB-[CG2] |==|  0.25629
USER: genes 4 Torsion [N]-CA--C-[N] |==|  0.52326
USER: genes 5 Torsion [C]-N--CA-[C] |==|  0.71977
USER: genes 6 Torsion [N]-CA--CB-[CG2] |==|  0.21288
USER: genes 7 Torsion [N]-CA--C-[N] |==|  0.07368
USER: genes 8 Torsion [C]-N--CA-[CB] |==|  0.38413
USER: genes 9 Torsion [N]-CA--CB-[SG] |==|  0.83071
USER: genes 10 Torsion [CA]-CB--SG-[HG] |==|  0.87942
USER: genes 11 Torsion [N]-CA--C-[N] |==|  0.93076
USER: genes 12 Torsion [C]-N--CA-[C] |==|  0.70226
USER: genes 13 Torsion [N]-CA--CB-[SG] |==|  0.88759
USER: genes 14 Torsion [CA]-CB--SG-[HG] |==|  0.54875
USER: genes 15 Torsion [N]-CA--C-[OXT] |==|  0.65106
USER: genes 16 Torsion [N]-C--CA-[N] |==|  0.92774
USER: genes 17 Torsion [C]-CA--N-[C] |==|  0.80577
USER: genes 18 Torsion [N]-C--CA-[N] |==|  0.57912
USER: genes 19 Torsion [C]-CA--N-[C] |==|  0.23151
USER: genes 20 Torsion [N]-C--CA-[N] |==|  0.42285
USER: genes 21 Torsion [C]-CA--CB-[CG2] |==|  0.53195
USER: genes 22 Torsion [CA]-CB--OG1-[HG1] |==|  0.16615
USER: genes 23 Torsion [C]-CA--N-[C] |==|  0.62460
USER: genes 24 Torsion [C]-CA--CB-[CG] |==|  0.38083
USER: genes 25 Torsion [CA]-CB--CG-[CD] |==|  0.60288
USER: genes 26 Torsion [CB]-CG--CD-[OE2] |==|  0.43665
USER: genes 27 Torsion [C]-CA--CB-[CG] |==|  0.07092
USER: genes 28 Torsion [CA]-CB--CG-[OD2] |==|  0.19398
ROOT
ATOM      1  C   ASP C   3      -3.263   1.231 -49.516  1.00 21.95 LIG 0.24  C 
ATOM      2 O    ASP C   3      -2.523   0.901 -48.589  1.00 22.02 LIG-0.27  OA
ATOM      3  N   VAL C   4      -4.404   1.891 -49.367  1.00 20.47 LIG-0.35  N 
ATOM      4 H    VAL C   4      -4.908   2.123 -50.024  1.00 20.47 LIG 0.16  HD
ENDROOT
BRANCH 3 5
ATOM      5  CA  VAL C   4      -4.912   2.289 -48.058  1.00 19.37 LIG 0.18  C 
BRANCH 5 6
ATOM      6  CB  VAL C   4      -5.314   1.055 -47.222  1.00 19.50 LIG 0.01  C 
ATOM      7  CG2 VAL C   4      -4.137   0.591 -46.351  1.00 18.97 LIG 0.01  C 
ATOM      8  CG1 VAL C   4      -5.787  -0.069 -48.123  1.00 20.24 LIG 0.01  C 
ENDBRANCH 5 6
BRANCH 5 9
ATOM      9  C   VAL C   4      -3.804   3.078 -47.372  1.00 18.84 LIG 0.24  C 
ATOM     10  N   VAL C   5      -3.992   3.393 -46.090  1.00 18.10 LIG-0.35  N 
ATOM     11 H    VAL C   5      -4.657   3.103 -45.629  1.00 18.10 LIG 0.16  HD
ATOM     12 O    VAL C   4      -2.788   3.375 -48.008  1.00 20.23 LIG-0.27  OA
BRANCH 10 13
ATOM     13  CA  VAL C   5      -3.094   4.259 -45.336  1.00 17.69 LIG 0.18  C 
BRANCH 13 14
ATOM     14  CB  VAL C   5      -3.896   5.250 -44.456  1.00 18.27 LIG 0.01  C 
ATOM     15  CG2 VAL C   5      -4.445   4.505 -43.205  1.00 18.63 LIG 0.01  C 
ATOM     16  CG1 VAL C   5      -5.031   5.911 -45.253  1.00 19.20 LIG 0.01  C 
ENDBRANCH 13 14
BRANCH 13 17
ATOM     17  C   VAL C   5      -2.177   3.395 -44.464  1.00 17.55 LIG 0.24  C 
ATOM     18 O    VAL C   5      -1.706   3.841 -43.404  1.00 16.61 LIG-0.27  OA
ATOM     19  N   CYS C   6      -1.951   2.164 -44.908  1.00 17.33 LIG-0.34  N 
ATOM     20 H    CYS C   6      -2.284   1.857 -45.638  1.00 17.33 LIG 0.16  HD
BRANCH 19 21
ATOM     21  CA  CYS C   6      -1.108   1.206 -44.190  1.00 17.84 LIG 0.18  C 
BRANCH 21 22
ATOM     22  CB  CYS C   6      -1.739  -0.181 -44.209  1.00 18.00 LIG 0.10  C 
BRANCH 22 23
ATOM     23 SG   CYS C   6      -3.344  -0.218 -43.415  1.00 23.34 LIG-0.18  SA
ATOM     24 HG   CYS C   6      -3.300   0.413 -42.395  1.00 23.34 LIG 0.10  HD
ENDBRANCH 22 23
ENDBRANCH 21 22
BRANCH 21 25
ATOM     25  C   CYS C   6       0.264   1.151 -44.826  1.00 17.78 LIG 0.24  C 
ATOM     26 O    CYS C   6       1.241   0.792 -44.168  1.00 18.30 LIG-0.27  OA
ATOM     27  N   CYS C   7       0.343   1.502 -46.112  1.00 17.97 LIG-0.34  N 
ATOM     28 H    CYS C   7      -0.320   1.793 -46.577  1.00 17.97 LIG 0.16  HD
BRANCH 27 29
ATOM     29  CA  CYS C   7       1.612   1.410 -46.844  1.00 18.46 LIG 0.19  C 
BRANCH 29 30
ATOM     30  CB  CYS C   7       1.390   0.621 -48.127  1.00 18.37 LIG 0.11  C 
BRANCH 30 31
ATOM     31 SG   CYS C   7       0.294  -0.798 -47.866  1.00 21.24 LIG-0.18  SA
ATOM     32 HG   CYS C   7       0.415  -1.569 -48.777  1.00 21.24 LIG 0.10  HD
ENDBRANCH 30 31
ENDBRANCH 29 30
BRANCH 29 33
ATOM     33  C   CYS C   7       2.248   2.774 -47.127  1.00 18.64 LIG 0.20  C 
ATOM     34 OXT  CYS C   7       2.555   3.104 -48.283  1.00 18.72 LIG-0.65  OA
ATOM     35 O    CYS C   7       2.415   3.598 -46.212  1.00 19.07 LIG-0.65  OA
ENDBRANCH 29 33
ENDBRANCH 27 29
ENDBRANCH 21 25
ENDBRANCH 19 21
ENDBRANCH 13 17
ENDBRANCH 10 13
ENDBRANCH 5 9
ENDBRANCH 3 5
BRANCH 1 36
ATOM     36  CA  ASP C   3      -2.896   0.897 -50.936  1.00 23.26 LIG 0.19  C 
BRANCH 36 37
ATOM     37  N   ASP C   3      -4.099   0.819 -51.734  1.00 23.08 LIG-0.35  N 
ATOM     38  C   GLU C   2      -4.944  -0.184 -51.552  1.00 23.46 LIG 0.24  C 
ATOM     39 O    GLU C   2      -4.691  -1.127 -50.811  1.00 23.95 LIG-0.27  OA
ATOM     40 H    ASP C   3      -4.203   1.453 -52.306  1.00 23.08 LIG 0.16  HD
BRANCH 38 41
ATOM     41  CA  GLU C   2      -6.258  -0.116 -52.311  1.00 23.56 LIG 0.18  C 
BRANCH 41 42
ATOM     42  N   GLU C   2      -7.297  -0.831 -51.556  1.00 23.07 LIG-0.35  N 
ATOM     43  C   THR C   1      -7.958  -0.232 -50.566  1.00 23.69 LIG 0.24  C 
ATOM     44 O    THR C   1      -7.725   0.916 -50.195  1.00 24.29 LIG-0.27  OA
ATOM     45 H    GLU C   2      -7.431  -1.642 -51.808  1.00 23.07 LIG 0.16  HD
BRANCH 43 46
ATOM     46  CA  THR C   1      -9.034  -1.041 -49.861  1.00 23.89 LIG 0.20  C 
BRANCH 46 47
ATOM     47  CB  THR C   1     -10.354  -0.915 -50.642  1.00 24.32 LIG 0.15  C 
ATOM     48  CG2 THR C   1     -11.522  -1.477 -49.814  1.00 24.71 LIG 0.04  C 
BRANCH 47 49
ATOM     49 OG1  THR C   1     -10.607   0.466 -50.933  1.00 24.87 LIG-0.39  OA
ATOM     50 HG1  THR C   1      -9.976   0.776 -51.394  1.00 24.87 LIG 0.21  HD
ENDBRANCH 47 49
ENDBRANCH 46 47
BRANCH 46 51
ATOM     51  N   THR C   1      -9.159  -0.547 -48.494  1.00 24.03 LIG-0.35  N 
ATOM     52 H    THR C   1      -9.173   0.310 -48.428  1.00 24.03 LIG 0.16  HD
ATOM     53  C   ACE C   0      -9.243  -1.369 -47.452  1.00 24.28 LIG 0.21  C 
ATOM     54 O    ACE C   0      -9.217  -2.601 -47.568  1.00 24.50 LIG-0.27  OA
ATOM     55  CH3 ACE C   0      -9.615  -0.708 -46.162  1.00 24.98 LIG 0.12  C 
ENDBRANCH 46 51
ENDBRANCH 43 46
ENDBRANCH 41 42
BRANCH 41 56
ATOM     56  CB  GLU C   2      -6.637   1.352 -52.557  1.00 23.91 LIG 0.04  C 
BRANCH 56 57
ATOM     57  CG  GLU C   2      -7.164   1.643 -53.952  1.00 27.13 LIG 0.12  C 
BRANCH 57 58
ATOM     58  CD  GLU C   2      -6.716   2.989 -54.496  1.00 29.05 LIG 0.17  C 
ATOM     59 OE2  GLU C   2      -6.708   3.152 -55.730  1.00 31.00 LIG-0.65  OA
ATOM     60 OE1  GLU C   2      -6.368   3.879 -53.697  1.00 31.26 LIG-0.65  OA
ENDBRANCH 57 58
ENDBRANCH 56 57
ENDBRANCH 41 56
ENDBRANCH 38 41
ENDBRANCH 36 37
BRANCH 36 61
ATOM     61  CB  ASP C   3      -1.942   1.942 -51.499  1.00 24.55 LIG 0.15  C 
BRANCH 61 62
ATOM     62  CG  ASP C   3      -1.140   2.644 -50.415  1.00 28.69 LIG 0.17  C 
ATOM     63 OD2  ASP C   3      -0.263   1.993 -49.808  1.00 33.40 LIG-0.65  OA
ATOM     64 OD1  ASP C   3      -1.396   3.842 -50.159  1.00 33.84 LIG-0.65  OA
ENDBRANCH 61 62
ENDBRANCH 36 61
ENDBRANCH 1 36
TORSDOF 27
ENDMDL
MODEL 10
USER: ADFR SOLUTION from run 196
USER: SCORE 18.133535 LL:  -4.387 LR: -16.880 RR:   0.000 FEB:  -8.826
USER: RMSD 13.449365
USER: SEED 195
USER: STATUS no improvement in best in 4 clusters for 5 generations
USER: GENES 29
USER: genes 0 Translation |==|  0.66971 0.56625 0.63312
USER: genes 1 Rotation |==|  0.78202 0.16750 0.49062 0.74458
USER: genes 2 Torsion [C]-N--CA-[CB] |==|  0.86052
USER: genes 3 Torsion [N]-CA--CB-[CG2] |==|  0.78011
USER: genes 4 Torsion [N]-CA--C-[N] |==|  0.37511
USER: genes 5 Torsion [C]-N--CA-[C] |==|  0.53961
USER: genes 6 Torsion [N]-CA--CB-[CG2] |==|  0.43229
USER: genes 7 Torsion [N]-CA--C-[N] |==|  0.40072
USER: genes 8 Torsion [C]-N--CA-[CB] |==|  0.38226
USER: genes 9 Torsion [N]-CA--CB-[SG] |==|  0.05950
USER: genes 10 Torsion [CA]-CB--SG-[HG] |==|  0.98584
USER: genes 11 Torsion [N]-CA--C-[N] |==|  0.88889
USER: genes 12 Torsion [C]-N--CA-[C] |==|  0.58843
USER: genes 13 Torsion [N]-CA--CB-[SG] |==|  0.03310
USER: genes 14 Torsion [CA]-CB--SG-[HG] |==|  0.18963
USER: genes 15 Torsion [N]-CA--C-[OXT] |==|  0.07452
USER: genes 16 Torsion [N]-C--CA-[N] |==|  0.61810
USER: genes 17 Torsion [C]-CA--N-[C] |==|  0.13976
USER: genes 18 Torsion [N]-C--CA-[N] |==|  0.79036
USER: genes 19 Torsion [C]-CA--N-[C] |==|  0.21567
USER: genes 20 Torsion [N]-C--CA-[N] |==|  0.92506
USER: genes 21 Torsion [C]-CA--CB-[CG2] |==|  0.80054
USER: genes 22 Torsion [CA]-CB--OG1-[HG1] |==|  0.52875
USER: genes 23 Torsion [C]-CA--N-[C] |==|  0.81975
USER: genes 24 Torsion [C]-CA--CB-[CG] |==|  0.07779
USER: genes 25 Torsion [CA]-CB--CG-[CD] |==|  0.67652
USER: genes 26 Torsion [CB]-CG--CD-[OE2] |==|  0.53781
USER: genes 27 Torsion [C]-CA--CB-[CG] |==|  0.32543
USER: genes 28 Torsion [CA]-CB--CG-[OD2] |==|  0.36808
ROOT
ATOM      1  C   ASP C   3      -4.073   1.572 -46.597  1.00 21.95 LIG 0.24  C 
ATOM      2 O    ASP C   3      -5.136   2.000 -46.146  1.00 22.02 LIG-0.27  OA
ATOM      3  N   VAL C   4      -3.960   0.488 -47.352  1.00 20.47 LIG-0.35  N 
ATOM      4 H    VAL C   4      -3.212   0.204 -47.668  1.00 20.47 LIG 0.16  HD
ENDROOT
BRANCH 3 5
ATOM      5  CA  VAL C   4      -5.110  -0.332 -47.720  1.00 19.37 LIG 0.18  C 
BRANCH 5 6
ATOM      6  CB  VAL C   4      -5.952  -0.695 -46.479  1.00 19.50 LIG 0.01  C 
ATOM      7  CG2 VAL C   4      -5.299  -1.851 -45.708  1.00 18.97 LIG 0.01  C 
ATOM      8  CG1 VAL C   4      -7.369  -1.055 -46.881  1.00 20.24 LIG 0.01  C 
ENDBRANCH 5 6
BRANCH 5 9
ATOM      9  C   VAL C   4      -5.929   0.475 -48.720  1.00 18.84 LIG 0.24  C 
ATOM     10  N   VAL C   5      -6.368  -0.169 -49.801  1.00 18.10 LIG-0.35  N 
ATOM     11 H    VAL C   5      -6.280  -1.019 -49.909  1.00 18.10 LIG 0.16  HD
ATOM     12 O    VAL C   4      -6.167   1.665 -48.490  1.00 20.23 LIG-0.27  OA
BRANCH 10 13
ATOM     13  CA  VAL C   5      -7.043   0.491 -50.912  1.00 17.69 LIG 0.18  C 
BRANCH 13 14
ATOM     14  CB  VAL C   5      -6.041   1.327 -51.745  1.00 18.27 LIG 0.01  C 
ATOM     15  CG2 VAL C   5      -6.587   1.500 -53.192  1.00 18.63 LIG 0.01  C 
ATOM     16  CG1 VAL C   5      -4.646   0.683 -51.750  1.00 19.20 LIG 0.01  C 
ENDBRANCH 13 14
BRANCH 13 17
ATOM     17  C   VAL C   5      -7.715  -0.567 -51.793  1.00 17.55 LIG 0.24  C 
ATOM     18 O    VAL C   5      -7.190  -1.680 -51.959  1.00 16.61 LIG-0.27  OA
ATOM     19  N   CYS C   6      -8.877  -0.216 -52.330  1.00 17.33 LIG-0.34  N 
ATOM     20 H    CYS C   6      -9.242   0.554 -52.207  1.00 17.33 LIG 0.16  HD
BRANCH 19 21
ATOM     21  CA  CYS C   6      -9.656  -1.111 -53.188  1.00 17.84 LIG 0.18  C 
BRANCH 21 22
ATOM     22  CB  CYS C   6     -11.138  -1.033 -52.838  1.00 18.00 LIG 0.10  C 
BRANCH 22 23
ATOM     23 SG   CYS C   6     -11.563   0.483 -51.985  1.00 23.34 LIG-0.18  SA
ATOM     24 HG   CYS C   6     -10.565   1.112 -51.763  1.00 23.34 LIG 0.10  HD
ENDBRANCH 22 23
ENDBRANCH 21 22
BRANCH 21 25
ATOM     25  C   CYS C   6      -9.455  -0.735 -54.640  1.00 17.78 LIG 0.24  C 
ATOM     26 O    CYS C   6      -9.346  -1.610 -55.500  1.00 18.30 LIG-0.27  OA
ATOM     27  N   CYS C   7      -9.411   0.570 -54.921  1.00 17.97 LIG-0.34  N 
ATOM     28 H    CYS C   7      -9.446   1.194 -54.330  1.00 17.97 LIG 0.16  HD
BRANCH 27 29
ATOM     29  CA  CYS C   7      -9.297   1.041 -56.306  1.00 18.46 LIG 0.19  C 
BRANCH 29 30
ATOM     30  CB  CYS C   7     -10.691   1.155 -56.909  1.00 18.37 LIG 0.11  C 
BRANCH 30 31
ATOM     31 SG   CYS C   7     -11.985   1.018 -55.648  1.00 21.24 LIG-0.18  SA
ATOM     32 HG   CYS C   7     -11.953   1.982 -54.935  1.00 21.24 LIG 0.10  HD
ENDBRANCH 30 31
ENDBRANCH 29 30
BRANCH 29 33
ATOM     33  C   CYS C   7      -8.521   2.354 -56.437  1.00 18.64 LIG 0.20  C 
ATOM     34 OXT  CYS C   7      -7.662   2.670 -55.599  1.00 18.72 LIG-0.65  OA
ATOM     35 O    CYS C   7      -8.697   3.099 -57.416  1.00 19.07 LIG-0.65  OA
ENDBRANCH 29 33
ENDBRANCH 27 29
ENDBRANCH 21 25
ENDBRANCH 19 21
ENDBRANCH 13 17
ENDBRANCH 10 13
ENDBRANCH 5 9
ENDBRANCH 3 5
BRANCH 1 36
ATOM     36  CA  ASP C   3      -2.784   2.293 -46.311  1.00 23.26 LIG 0.19  C 
BRANCH 36 37
ATOM     37  N   ASP C   3      -2.757   2.689 -44.921  1.00 23.08 LIG-0.35  N 
ATOM     38  C   GLU C   2      -3.023   1.798 -43.979  1.00 23.46 LIG 0.24  C 
ATOM     39 O    GLU C   2      -3.415   0.666 -44.239  1.00 23.95 LIG-0.27  OA
ATOM     40 H    ASP C   3      -2.562   3.514 -44.777  1.00 23.08 LIG 0.16  HD
BRANCH 38 41
ATOM     41  CA  GLU C   2      -2.822   2.244 -42.541  1.00 23.56 LIG 0.18  C 
BRANCH 41 42
ATOM     42  N   GLU C   2      -1.385   2.273 -42.234  1.00 23.07 LIG-0.35  N 
ATOM     43  C   THR C   1      -0.614   3.275 -42.654  1.00 23.69 LIG 0.24  C 
ATOM     44 O    THR C   1      -1.030   4.203 -43.345  1.00 24.29 LIG-0.27  OA
ATOM     45 H    GLU C   2      -1.102   1.604 -41.773  1.00 23.07 LIG 0.16  HD
BRANCH 43 46
ATOM     46  CA  THR C   1       0.854   3.233 -42.265  1.00 23.89 LIG 0.20  C 
BRANCH 46 47
ATOM     47  CB  THR C   1       1.662   2.596 -43.409  1.00 24.32 LIG 0.15  C 
ATOM     48  CG2 THR C   1       1.381   1.086 -43.487  1.00 24.71 LIG 0.04  C 
BRANCH 47 49
ATOM     49 OG1  THR C   1       1.292   3.207 -44.653  1.00 24.87 LIG-0.39  OA
ATOM     50 HG1  THR C   1       1.623   2.769 -45.290  1.00 24.87 LIG 0.21  HD
ENDBRANCH 47 49
ENDBRANCH 46 47
BRANCH 46 51
ATOM     51  N   THR C   1       0.979   2.480 -41.022  1.00 24.03 LIG-0.35  N 
ATOM     52 H    THR C   1       1.420   1.745 -41.097  1.00 24.03 LIG 0.16  HD
ATOM     53  C   ACE C   0       0.448   2.909 -39.881  1.00 24.28 LIG 0.21  C 
ATOM     54 O    ACE C   0      -0.187   3.967 -39.795  1.00 24.50 LIG-0.27  OA
ATOM     55  CH3 ACE C   0       0.879   2.149 -38.666  1.00 24.98 LIG 0.12  C 
ENDBRANCH 46 51
ENDBRANCH 43 46
ENDBRANCH 41 42
BRANCH 41 56
ATOM     56  CB  GLU C   2      -3.480   3.615 -42.328  1.00 23.91 LIG 0.04  C 
BRANCH 56 57
ATOM     57  CG  GLU C   2      -4.664   3.897 -43.238  1.00 27.13 LIG 0.12  C 
BRANCH 57 58
ATOM     58  CD  GLU C   2      -4.435   5.066 -44.179  1.00 29.05 LIG 0.17  C 
ATOM     59 OE2  GLU C   2      -5.417   5.541 -44.778  1.00 31.00 LIG-0.65  OA
ATOM     60 OE1  GLU C   2      -3.279   5.507 -44.327  1.00 31.26 LIG-0.65  OA
ENDBRANCH 57 58
ENDBRANCH 56 57
ENDBRANCH 41 56
ENDBRANCH 38 41
ENDBRANCH 36 37
BRANCH 36 61
ATOM     61  CB  ASP C   3      -1.592   1.404 -46.642  1.00 24.55 LIG 0.15  C 
BRANCH 61 62
ATOM     62  CG  ASP C   3      -0.729   1.979 -47.753  1.00 28.69 LIG 0.17  C 
ATOM     63 OD2  ASP C   3       0.509   2.013 -47.589  1.00 33.40 LIG-0.65  OA
ATOM     64 OD1  ASP C   3      -1.289   2.410 -48.787  1.00 33.84 LIG-0.65  OA
ENDBRANCH 61 62
ENDBRANCH 36 61
ENDBRANCH 1 36
TORSDOF 27
ENDMDL
MODEL 11
USER: ADFR SOLUTION from run 31
USER: SCORE 19.484217 LL:  -5.144 LR: -16.825 RR:   0.000 FEB:  -8.771
USER: RMSD 13.165025
USER: SEED 30
USER: STATUS 1 or 2 clusters left
USER: GENES 29
USER: genes 0 Translation |==|  0.64518 0.66326 0.59854
USER: genes 1 Rotation |==|  0.63934 0.95964 0.37800 0.56661
USER: genes 2 Torsion [C]-N--CA-[CB] |==|  0.15565
USER: genes 3 Torsion [N]-CA--CB-[CG2] |==|  0.54590
USER: genes 4 Torsion [N]-CA--C-[N] |==|  0.02591
USER: genes 5 Torsion [C]-N--CA-[C] |==|  0.81479
USER: genes 6 Torsion [N]-CA--CB-[CG2] |==|  0.81650
USER: genes 7 Torsion [N]-CA--C-[N] |==|  0.42983
USER: genes 8 Torsion [C]-N--CA-[CB] |==|  0.24838
USER: genes 9 Torsion [N]-CA--CB-[SG] |==|  0.67118
USER: genes 10 Torsion [CA]-CB--SG-[HG] |==|  0.15664
USER: genes 11 Torsion [N]-CA--C-[N] |==|  0.10000
USER: genes 12 Torsion [C]-N--CA-[C] |==|  0.54905
USER: genes 13 Torsion [N]-CA--CB-[SG] |==|  0.69022
USER: genes 14 Torsion [CA]-CB--SG-[HG] |==|  0.24389
USER: genes 15 Torsion [N]-CA--C-[OXT] |==|  0.74556
USER: genes 16 Torsion [N]-C--CA-[N] |==|  0.26344
USER: genes 17 Torsion [C]-CA--N-[C] |==|  0.77668
USER: genes 18 Torsion [N]-C--CA-[N] |==|  0.13836
USER: genes 19 Torsion [C]-CA--N-[C] |==|  0.74912
USER: genes 20 Torsion [N]-C--CA-[N] |==|  0.44079
USER: genes 21 Torsion [C]-CA--CB-[CG2] |==|  0.19972
USER: genes 22 Torsion [CA]-CB--OG1-[HG1] |==|  0.50145
USER: genes 23 Torsion [C]-CA--N-[C] |==|  0.70805
USER: genes 24 Torsion [C]-CA--CB-[CG] |==|  0.20197
USER: genes 25 Torsion [CA]-CB--CG-[CD] |==|  0.54434
USER: genes 26 Torsion [CB]-CG--CD-[OE2] |==|  0.17169
USER: genes 27 Torsion [C]-CA--CB-[CG] |==|  0.59697
USER: genes 28 Torsion [CA]-CB--CG-[OD2] |==|  0.74967
ROOT
ATOM      1  C   ASP C   3      -4.662   3.173 -47.557  1.00 21.95 LIG 0.24  C 
ATOM      2 O    ASP C   3      -3.810   3.831 -48.154  1.00 22.02 LIG-0.27  OA
ATOM      3  N   VAL C   4      -5.392   2.212 -48.108  1.00 20.47 LIG-0.35  N 
ATOM      4 H    VAL C   4      -5.977   1.754 -47.677  1.00 20.47 LIG 0.16  HD
ENDROOT
BRANCH 3 5
ATOM      5  CA  VAL C   4      -5.263   1.842 -49.514  1.00 19.37 LIG 0.18  C 
BRANCH 5 6
ATOM      6  CB  VAL C   4      -3.807   1.461 -49.856  1.00 19.50 LIG 0.01  C 
ATOM      7  CG2 VAL C   4      -3.592   1.474 -51.376  1.00 18.97 LIG 0.01  C 
ATOM      8  CG1 VAL C   4      -3.462   0.101 -49.280  1.00 20.24 LIG 0.01  C 
ENDBRANCH 5 6
BRANCH 5 9
ATOM      9  C   VAL C   4      -6.206   0.671 -49.753  1.00 18.84 LIG 0.24  C 
ATOM     10  N   VAL C   5      -7.051   0.364 -48.768  1.00 18.10 LIG-0.35  N 
ATOM     11 H    VAL C   5      -7.137   0.843 -48.058  1.00 18.10 LIG 0.16  HD
ATOM     12 O    VAL C   4      -6.168   0.071 -50.832  1.00 20.23 LIG-0.27  OA
BRANCH 10 13
ATOM     13  CA  VAL C   5      -7.917  -0.808 -48.787  1.00 17.69 LIG 0.18  C 
BRANCH 13 14
ATOM     14  CB  VAL C   5      -8.619  -0.996 -47.419  1.00 18.27 LIG 0.01  C 
ATOM     15  CG2 VAL C   5      -7.556  -1.334 -46.333  1.00 18.63 LIG 0.01  C 
ATOM     16  CG1 VAL C   5      -9.704  -2.081 -47.493  1.00 19.20 LIG 0.01  C 
ENDBRANCH 13 14
BRANCH 13 17
ATOM     17  C   VAL C   5      -8.957  -0.649 -49.901  1.00 17.55 LIG 0.24  C 
ATOM     18 O    VAL C   5      -9.277   0.479 -50.312  1.00 16.61 LIG-0.27  OA
ATOM     19  N   CYS C   6      -9.455  -1.778 -50.389  1.00 17.33 LIG-0.34  N 
ATOM     20 H    CYS C   6      -9.227  -2.557 -50.107  1.00 17.33 LIG 0.16  HD
BRANCH 19 21
ATOM     21  CA  CYS C   6     -10.450  -1.805 -51.464  1.00 17.84 LIG 0.18  C 
BRANCH 21 22
ATOM     22  CB  CYS C   6      -9.766  -1.843 -52.825  1.00 18.00 LIG 0.10  C 
BRANCH 22 23
ATOM     23 SG   CYS C   6     -10.157  -0.414 -53.831  1.00 23.34 LIG-0.18  SA
ATOM     24 HG   CYS C   6      -9.863   0.587 -53.237  1.00 23.34 LIG 0.10  HD
ENDBRANCH 22 23
ENDBRANCH 21 22
BRANCH 21 25
ATOM     25  C   CYS C   6     -11.344  -3.016 -51.307  1.00 17.78 LIG 0.24  C 
ATOM     26 O    CYS C   6     -11.753  -3.620 -52.300  1.00 18.30 LIG-0.27  OA
ATOM     27  N   CYS C   7     -11.646  -3.380 -50.058  1.00 17.97 LIG-0.34  N 
ATOM     28 H    CYS C   7     -11.403  -2.948 -49.355  1.00 17.97 LIG 0.16  HD
BRANCH 27 29
ATOM     29  CA  CYS C   7     -12.441  -4.585 -49.795  1.00 18.46 LIG 0.19  C 
BRANCH 29 30
ATOM     30  CB  CYS C   7     -11.584  -5.815 -50.061  1.00 18.37 LIG 0.11  C 
BRANCH 30 31
ATOM     31 SG   CYS C   7     -12.156  -6.734 -51.514  1.00 21.24 LIG-0.18  SA
ATOM     32 HG   CYS C   7     -11.634  -6.291 -52.499  1.00 21.24 LIG 0.10  HD
ENDBRANCH 30 31
ENDBRANCH 29 30
BRANCH 29 33
ATOM     33  C   CYS C   7     -13.045  -4.617 -48.388  1.00 18.64 LIG 0.20  C 
ATOM     34 OXT  CYS C   7     -12.436  -5.152 -47.448  1.00 18.72 LIG-0.65  OA
ATOM     35 O    CYS C   7     -14.128  -4.057 -48.149  1.00 19.07 LIG-0.65  OA
ENDBRANCH 29 33
ENDBRANCH 27 29
ENDBRANCH 21 25
ENDBRANCH 19 21
ENDBRANCH 13 17
ENDBRANCH 10 13
ENDBRANCH 5 9
ENDBRANCH 3 5
BRANCH 1 36
ATOM     36  CA  ASP C   3      -4.929   3.425 -46.098  1.00 23.26 LIG 0.19  C 
BRANCH 36 37
ATOM     37  N   ASP C   3      -3.983   2.675 -45.303  1.00 23.08 LIG-0.35  N 
ATOM     38  C   GLU C   2      -4.188   1.386 -45.080  1.00 23.46 LIG 0.24  C 
ATOM     39 O    GLU C   2      -5.220   0.819 -45.422  1.00 23.95 LIG-0.27  OA
ATOM     40 H    ASP C   3      -3.312   3.125 -45.006  1.00 23.08 LIG 0.16  HD
BRANCH 38 41
ATOM     41  CA  GLU C   2      -3.077   0.629 -44.374  1.00 23.56 LIG 0.18  C 
BRANCH 41 42
ATOM     42  N   GLU C   2      -2.671   1.366 -43.169  1.00 23.07 LIG-0.35  N 
ATOM     43  C   THR C   1      -1.699   2.277 -43.218  1.00 23.69 LIG 0.24  C 
ATOM     44 O    THR C   1      -1.062   2.531 -44.237  1.00 24.29 LIG-0.27  OA
ATOM     45 H    GLU C   2      -3.107   1.159 -42.457  1.00 23.07 LIG 0.16  HD
BRANCH 43 46
ATOM     46  CA  THR C   1      -1.367   3.008 -41.927  1.00 23.89 LIG 0.20  C 
BRANCH 46 47
ATOM     47  CB  THR C   1      -2.410   4.113 -41.690  1.00 24.32 LIG 0.15  C 
ATOM     48  CG2 THR C   1      -3.761   3.497 -41.285  1.00 24.71 LIG 0.04  C 
BRANCH 47 49
ATOM     49 OG1  THR C   1      -1.958   4.981 -40.642  1.00 24.87 LIG-0.39  OA
ATOM     50 HG1  THR C   1      -2.530   5.581 -40.507  1.00 24.87 LIG 0.21  HD
ENDBRANCH 47 49
ENDBRANCH 46 47
BRANCH 46 51
ATOM     51  N   THR C   1      -0.016   3.546 -42.038  1.00 24.03 LIG-0.35  N 
ATOM     52 H    THR C   1       0.048   4.239 -42.544  1.00 24.03 LIG 0.16  HD
ATOM     53  C   ACE C   0       1.016   2.998 -41.404  1.00 24.28 LIG 0.21  C 
ATOM     54 O    ACE C   0       0.904   1.998 -40.684  1.00 24.50 LIG-0.27  OA
ATOM     55  CH3 ACE C   0       2.270   3.814 -41.426  1.00 24.98 LIG 0.12  C 
ENDBRANCH 46 51
ENDBRANCH 43 46
ENDBRANCH 41 42
BRANCH 41 56
ATOM     56  CB  GLU C   2      -3.552  -0.794 -44.042  1.00 23.91 LIG 0.04  C 
BRANCH 56 57
ATOM     57  CG  GLU C   2      -3.659  -1.720 -45.240  1.00 27.13 LIG 0.12  C 
BRANCH 57 58
ATOM     58  CD  GLU C   2      -4.478  -2.969 -44.964  1.00 29.05 LIG 0.17  C 
ATOM     59 OE2  GLU C   2      -5.676  -2.832 -44.656  1.00 31.00 LIG-0.65  OA
ATOM     60 OE1  GLU C   2      -3.928  -4.084 -45.049  1.00 31.26 LIG-0.65  OA
ENDBRANCH 57 58
ENDBRANCH 56 57
ENDBRANCH 41 56
ENDBRANCH 38 41
ENDBRANCH 36 37
BRANCH 36 61
ATOM     61  CB  ASP C   3      -4.833   4.913 -45.788  1.00 24.55 LIG 0.15  C 
BRANCH 61 62
ATOM     62  CG  ASP C   3      -4.258   5.184 -44.407  1.00 28.69 LIG 0.17  C 
ATOM     63 OD2  ASP C   3      -5.045   5.269 -43.441  1.00 33.40 LIG-0.65  OA
ATOM     64 OD1  ASP C   3      -3.019   5.325 -44.288  1.00 33.84 LIG-0.65  OA
ENDBRANCH 61 62
ENDBRANCH 36 61
ENDBRANCH 1 36
TORSDOF 27
ENDMDL
MODEL 12
USER: ADFR SOLUTION from run 97
USER: SCORE 18.852500 LL:  -4.614 LR: -16.644 RR:   0.000 FEB:  -8.589
USER: RMSD 13.109063
USER: SEED 96
USER: STATUS no improvement in best in 2 clusters for 5 generations
USER: GENES 29
USER: genes 0 Translation |==|  0.61206 0.46205 0.59270
USER: genes 1 Rotation |==|  0.86735 0.58702 0.18839 0.60187
USER: genes 2 Torsion [C]-N--CA-[CB] |==|  0.28325
USER: genes 3 Torsion [N]-CA--CB-[CG2] |==|  0.71849
USER: genes 4 Torsion [N]-CA--C-[N] |==|  0.36341
USER: genes 5 Torsion [C]-N--CA-[C] |==|  0.77406
USER: genes 6 Torsion [N]-CA--CB-[CG2] |==|  0.89073
USER: genes 7 Torsion [N]-CA--C-[N] |==|  0.21326
USER: genes 8 Torsion [C]-N--CA-[CB] |==|  0.77529
USER: genes 9 Torsion [N]-CA--CB-[SG] |==|  0.99390
USER: genes 10 Torsion [CA]-CB--SG-[HG] |==|  0.79543
USER: genes 11 Torsion [N]-CA--C-[N] |==|  0.14693
USER: genes 12 Torsion [C]-N--CA-[C] |==|  0.59313
USER: genes 13 Torsion [N]-CA--CB-[SG] |==|  0.13650
USER: genes 14 Torsion [CA]-CB--SG-[HG] |==|  0.00582
USER: genes 15 Torsion [N]-CA--C-[OXT] |==|  0.48234
USER: genes 16 Torsion [N]-C--CA-[N] |==|  0.44493
USER: genes 17 Torsion [C]-CA--N-[C] |==|  0.72357
USER: genes 18 Torsion [N]-C--CA-[N] |==|  0.39976
USER: genes 19 Torsion [C]-CA--N-[C] |==|  0.69654
USER: genes 20 Torsion [N]-C--CA-[N] |==|  0.44167
USER: genes 21 Torsion [C]-CA--CB-[CG2] |==|  0.17370
USER: genes 22 Torsion [CA]-CB--OG1-[HG1] |==|  0.63713
USER: genes 23 Torsion [C]-CA--N-[C] |==|  0.52805
USER: genes 24 Torsion [C]-CA--CB-[CG] |==|  0.28882
USER: genes 25 Torsion [CA]-CB--CG-[CD] |==|  0.69861
USER: genes 26 Torsion [CB]-CG--CD-[OE2] |==|  0.85041
USER: genes 27 Torsion [C]-CA--CB-[CG] |==|  0.50637
USER: genes 28 Torsion [CA]-CB--CG-[OD2] |==|  0.38022
ROOT
ATOM      1  C   ASP C   3      -5.457  -0.147 -47.719  1.00 21.95 LIG 0.24  C 
ATOM      2 O    ASP C   3      -5.090  -1.300 -47.491  1.00 22.02 LIG-0.27  OA
ATOM      3  N   VAL C   4      -6.612   0.176 -48.284  1.00 20.47 LIG-0.35  N 
ATOM      4 H    VAL C   4      -6.859   0.986 -48.430  1.00 20.47 LIG 0.16  HD
ENDROOT
BRANCH 3 5
ATOM      5  CA  VAL C   4      -7.579  -0.829 -48.715  1.00 19.37 LIG 0.18  C 
BRANCH 5 6
ATOM      6  CB  VAL C   4      -8.739  -0.951 -47.704  1.00 19.50 LIG 0.01  C 
ATOM      7  CG2 VAL C   4      -8.544  -2.185 -46.811  1.00 18.97 LIG 0.01  C 
ATOM      8  CG1 VAL C   4     -10.071  -1.019 -48.425  1.00 20.24 LIG 0.01  C 
ENDBRANCH 5 6
BRANCH 5 9
ATOM      9  C   VAL C   4      -8.089  -0.397 -50.084  1.00 18.84 LIG 0.24  C 
ATOM     10  N   VAL C   5      -8.091  -1.318 -51.047  1.00 18.10 LIG-0.35  N 
ATOM     11 H    VAL C   5      -7.898  -2.145 -50.905  1.00 18.10 LIG 0.16  HD
ATOM     12 O    VAL C   4      -8.491   0.760 -50.244  1.00 20.23 LIG-0.27  OA
BRANCH 10 13
ATOM     13  CA  VAL C   5      -8.416  -1.027 -52.438  1.00 17.69 LIG 0.18  C 
BRANCH 13 14
ATOM     14  CB  VAL C   5      -7.798  -2.089 -53.381  1.00 18.27 LIG 0.01  C 
ATOM     15  CG2 VAL C   5      -6.376  -2.468 -52.874  1.00 18.63 LIG 0.01  C 
ATOM     16  CG1 VAL C   5      -7.756  -1.588 -54.833  1.00 19.20 LIG 0.01  C 
ENDBRANCH 13 14
BRANCH 13 17
ATOM     17  C   VAL C   5      -9.939  -0.993 -52.602  1.00 17.55 LIG 0.24  C 
ATOM     18 O    VAL C   5     -10.544  -1.955 -53.103  1.00 16.61 LIG-0.27  OA
ATOM     19  N   CYS C   6     -10.541   0.104 -52.158  1.00 17.33 LIG-0.34  N 
ATOM     20 H    CYS C   6     -10.120   0.765 -51.806  1.00 17.33 LIG 0.16  HD
BRANCH 19 21
ATOM     21  CA  CYS C   6     -11.992   0.294 -52.228  1.00 17.84 LIG 0.18  C 
BRANCH 21 22
ATOM     22  CB  CYS C   6     -12.405   0.751 -53.623  1.00 18.00 LIG 0.10  C 
BRANCH 22 23
ATOM     23 SG   CYS C   6     -11.004   0.974 -54.716  1.00 23.34 LIG-0.18  SA
ATOM     24 HG   CYS C   6     -10.412   1.973 -54.410  1.00 23.34 LIG 0.10  HD
ENDBRANCH 22 23
ENDBRANCH 21 22
BRANCH 21 25
ATOM     25  C   CYS C   6     -12.698  -1.000 -51.886  1.00 17.78 LIG 0.24  C 
ATOM     26 O    CYS C   6     -13.540  -1.471 -52.651  1.00 18.30 LIG-0.27  OA
ATOM     27  N   CYS C   7     -12.352  -1.585 -50.736  1.00 17.97 LIG-0.34  N 
ATOM     28 H    CYS C   7     -11.795  -1.251 -50.171  1.00 17.97 LIG 0.16  HD
BRANCH 27 29
ATOM     29  CA  CYS C   7     -12.919  -2.881 -50.347  1.00 18.46 LIG 0.19  C 
BRANCH 29 30
ATOM     30  CB  CYS C   7     -12.047  -3.995 -50.910  1.00 18.37 LIG 0.11  C 
BRANCH 30 31
ATOM     31 SG   CYS C   7     -10.292  -3.727 -50.546  1.00 21.24 LIG-0.18  SA
ATOM     32 HG   CYS C   7     -10.167  -2.731 -49.890  1.00 21.24 LIG 0.10  HD
ENDBRANCH 30 31
ENDBRANCH 29 30
BRANCH 29 33
ATOM     33  C   CYS C   7     -13.111  -3.030 -48.836  1.00 18.64 LIG 0.20  C 
ATOM     34 OXT  CYS C   7     -13.689  -4.022 -48.363  1.00 18.72 LIG-0.65  OA
ATOM     35 O    CYS C   7     -12.642  -2.188 -48.051  1.00 19.07 LIG-0.65  OA
ENDBRANCH 29 33
ENDBRANCH 27 29
ENDBRANCH 21 25
ENDBRANCH 19 21
ENDBRANCH 13 17
ENDBRANCH 10 13
ENDBRANCH 5 9
ENDBRANCH 3 5
BRANCH 1 36
ATOM     36  CA  ASP C   3      -4.579   1.015 -47.343  1.00 23.26 LIG 0.19  C 
BRANCH 36 37
ATOM     37  N   ASP C   3      -3.617   0.585 -46.352  1.00 23.08 LIG-0.35  N 
ATOM     38  C   GLU C   2      -3.832   0.846 -45.072  1.00 23.46 LIG 0.24  C 
ATOM     39 O    GLU C   2      -4.762   1.549 -44.694  1.00 23.95 LIG-0.27  OA
ATOM     40 H    ASP C   3      -2.932   0.168 -46.661  1.00 23.08 LIG 0.16  HD
BRANCH 38 41
ATOM     41  CA  GLU C   2      -2.864   0.229 -44.078  1.00 23.56 LIG 0.18  C 
BRANCH 41 42
ATOM     42  N   GLU C   2      -2.637   1.166 -42.968  1.00 23.07 LIG-0.35  N 
ATOM     43  C   THR C   1      -1.468   1.791 -42.827  1.00 23.69 LIG 0.24  C 
ATOM     44 O    THR C   1      -0.508   1.604 -43.570  1.00 24.29 LIG-0.27  OA
ATOM     45 H    GLU C   2      -3.308   1.267 -42.440  1.00 23.07 LIG 0.16  HD
BRANCH 43 46
ATOM     46  CA  THR C   1      -1.336   2.762 -41.665  1.00 23.89 LIG 0.20  C 
BRANCH 46 47
ATOM     47  CB  THR C   1      -2.024   4.088 -42.035  1.00 24.32 LIG 0.15  C 
ATOM     48  CG2 THR C   1      -3.528   3.864 -42.269  1.00 24.71 LIG 0.04  C 
BRANCH 47 49
ATOM     49 OG1  THR C   1      -1.851   5.030 -40.968  1.00 24.87 LIG-0.39  OA
ATOM     50 HG1  THR C   1      -2.593   5.372 -40.772  1.00 24.87 LIG 0.21  HD
ENDBRANCH 47 49
ENDBRANCH 46 47
BRANCH 46 51
ATOM     51  N   THR C   1       0.082   2.944 -41.377  1.00 24.03 LIG-0.35  N 
ATOM     52 H    THR C   1       0.609   2.606 -41.967  1.00 24.03 LIG 0.16  HD
ATOM     53  C   ACE C   0       0.505   3.582 -40.290  1.00 24.28 LIG 0.21  C 
ATOM     54 O    ACE C   0      -0.270   4.058 -39.450  1.00 24.50 LIG-0.27  OA
ATOM     55  CH3 ACE C   0       1.968   3.895 -40.277  1.00 24.98 LIG 0.12  C 
ENDBRANCH 46 51
ENDBRANCH 43 46
ENDBRANCH 41 42
BRANCH 41 56
ATOM     56  CB  GLU C   2      -3.417  -1.117 -43.586  1.00 23.91 LIG 0.04  C 
BRANCH 56 57
ATOM     57  CG  GLU C   2      -2.744  -2.337 -44.192  1.00 27.13 LIG 0.12  C 
BRANCH 57 58
ATOM     58  CD  GLU C   2      -3.625  -3.081 -45.180  1.00 29.05 LIG 0.17  C 
ATOM     59 OE2  GLU C   2      -4.756  -3.442 -44.805  1.00 31.00 LIG-0.65  OA
ATOM     60 OE1  GLU C   2      -3.191  -3.310 -46.325  1.00 31.26 LIG-0.65  OA
ENDBRANCH 57 58
ENDBRANCH 56 57
ENDBRANCH 41 56
ENDBRANCH 38 41
ENDBRANCH 36 37
BRANCH 36 61
ATOM     61  CB  ASP C   3      -3.874   1.570 -48.573  1.00 24.55 LIG 0.15  C 
BRANCH 61 62
ATOM     62  CG  ASP C   3      -2.930   2.714 -48.236  1.00 28.69 LIG 0.17  C 
ATOM     63 OD2  ASP C   3      -1.806   2.738 -48.779  1.00 33.40 LIG-0.65  OA
ATOM     64 OD1  ASP C   3      -3.307   3.582 -47.416  1.00 33.84 LIG-0.65  OA
ENDBRANCH 61 62
ENDBRANCH 36 61
ENDBRANCH 1 36
TORSDOF 27
ENDMDL
MODEL 13
USER: ADFR SOLUTION from run 19
USER: SCORE 18.444983 LL:  -5.140 LR: -16.601 RR:   0.000 FEB:  -8.547
USER: RMSD 13.292658
USER: SEED 18
USER: STATUS 1 or 2 clusters left
USER: GENES 29
USER: genes 0 Translation |==|  0.62612 0.56723 0.56759
USER: genes 1 Rotation |==|  0.68097 0.12851 0.59481 0.76506
USER: genes 2 Torsion [C]-N--CA-[CB] |==|  0.78651
USER: genes 3 Torsion [N]-CA--CB-[CG2] |==|  0.87132
USER: genes 4 Torsion [N]-CA--C-[N] |==|  0.14628
USER: genes 5 Torsion [C]-N--CA-[C] |==|  0.74714
USER: genes 6 Torsion [N]-CA--CB-[CG2] |==|  0.88502
USER: genes 7 Torsion [N]-CA--C-[N] |==|  0.26756
USER: genes 8 Torsion [C]-N--CA-[CB] |==|  0.51421
USER: genes 9 Torsion [N]-CA--CB-[SG] |==|  0.96487
USER: genes 10 Torsion [CA]-CB--SG-[HG] |==|  0.08971
USER: genes 11 Torsion [N]-CA--C-[N] |==|  0.88857
USER: genes 12 Torsion [C]-N--CA-[C] |==|  0.59498
USER: genes 13 Torsion [N]-CA--CB-[SG] |==|  0.46582
USER: genes 14 Torsion [CA]-CB--SG-[HG] |==|  0.85951
USER: genes 15 Torsion [N]-CA--C-[OXT] |==|  0.10041
USER: genes 16 Torsion [N]-C--CA-[N] |==|  0.77223
USER: genes 17 Torsion [C]-CA--N-[C] |==|  0.76923
USER: genes 18 Torsion [N]-C--CA-[N] |==|  0.16328
USER: genes 19 Torsion [C]-CA--N-[C] |==|  0.62807
USER: genes 20 Torsion [N]-C--CA-[N] |==|  0.33934
USER: genes 21 Torsion [C]-CA--CB-[CG2] |==|  0.18473
USER: genes 22 Torsion [CA]-CB--OG1-[HG1] |==|  0.07817
USER: genes 23 Torsion [C]-CA--N-[C] |==|  0.70559
USER: genes 24 Torsion [C]-CA--CB-[CG] |==|  0.67510
USER: genes 25 Torsion [CA]-CB--CG-[CD] |==|  0.77089
USER: genes 26 Torsion [CB]-CG--CD-[OE2] |==|  0.95769
USER: genes 27 Torsion [C]-CA--CB-[CG] |==|  0.46846
USER: genes 28 Torsion [CA]-CB--CG-[OD2] |==|  0.23137
ROOT
ATOM      1  C   ASP C   3      -5.119   1.588 -48.415  1.00 21.95 LIG 0.24  C 
ATOM      2 O    ASP C   3      -6.136   2.270 -48.541  1.00 22.02 LIG-0.27  OA
ATOM      3  N   VAL C   4      -5.089   0.264 -48.491  1.00 20.47 LIG-0.35  N 
ATOM      4 H    VAL C   4      -4.370  -0.200 -48.409  1.00 20.47 LIG 0.16  HD
ENDROOT
BRANCH 3 5
ATOM      5  CA  VAL C   4      -6.289  -0.533 -48.722  1.00 19.37 LIG 0.18  C 
BRANCH 5 6
ATOM      6  CB  VAL C   4      -7.135  -0.646 -47.436  1.00 19.50 LIG 0.01  C 
ATOM      7  CG2 VAL C   4      -6.244  -0.992 -46.235  1.00 18.97 LIG 0.01  C 
ATOM      8  CG1 VAL C   4      -8.229  -1.684 -47.606  1.00 20.24 LIG 0.01  C 
ENDBRANCH 5 6
BRANCH 5 9
ATOM      9  C   VAL C   4      -7.071   0.153 -49.834  1.00 18.84 LIG 0.24  C 
ATOM     10  N   VAL C   5      -6.410   0.424 -50.960  1.00 18.10 LIG-0.35  N 
ATOM     11 H    VAL C   5      -5.605   0.156 -51.106  1.00 18.10 LIG 0.16  HD
ATOM     12 O    VAL C   4      -8.267   0.413 -49.664  1.00 20.23 LIG-0.27  OA
BRANCH 10 13
ATOM     13  CA  VAL C   5      -6.976   1.197 -52.058  1.00 17.69 LIG 0.18  C 
BRANCH 13 14
ATOM     14  CB  VAL C   5      -5.876   2.015 -52.778  1.00 18.27 LIG 0.01  C 
ATOM     15  CG2 VAL C   5      -4.911   2.629 -51.722  1.00 18.63 LIG 0.01  C 
ATOM     16  CG1 VAL C   5      -6.487   3.105 -53.673  1.00 19.20 LIG 0.01  C 
ENDBRANCH 13 14
BRANCH 13 17
ATOM     17  C   VAL C   5      -7.661   0.244 -53.044  1.00 17.55 LIG 0.24  C 
ATOM     18 O    VAL C   5      -7.001  -0.354 -53.910  1.00 16.61 LIG-0.27  OA
ATOM     19  N   CYS C   6      -8.971   0.098 -52.888  1.00 17.33 LIG-0.34  N 
ATOM     20 H    CYS C   6      -9.424   0.509 -52.283  1.00 17.33 LIG 0.16  HD
BRANCH 19 21
ATOM     21  CA  CYS C   6      -9.777  -0.782 -53.737  1.00 17.84 LIG 0.18  C 
BRANCH 21 22
ATOM     22  CB  CYS C   6     -11.256  -0.644 -53.400  1.00 18.00 LIG 0.10  C 
BRANCH 22 23
ATOM     23 SG   CYS C   6     -11.532   0.244 -51.869  1.00 23.34 LIG-0.18  SA
ATOM     24 HG   CYS C   6     -10.670   1.067 -51.722  1.00 23.34 LIG 0.10  HD
ENDBRANCH 22 23
ENDBRANCH 21 22
BRANCH 21 25
ATOM     25  C   CYS C   6      -9.551  -0.438 -55.194  1.00 17.78 LIG 0.24  C 
ATOM     26 O    CYS C   6      -9.467  -1.331 -56.038  1.00 18.30 LIG-0.27  OA
ATOM     27  N   CYS C   7      -9.460   0.860 -55.496  1.00 17.97 LIG-0.34  N 
ATOM     28 H    CYS C   7      -9.477   1.495 -54.915  1.00 17.97 LIG 0.16  HD
BRANCH 27 29
ATOM     29  CA  CYS C   7      -9.319   1.303 -56.888  1.00 18.46 LIG 0.19  C 
BRANCH 29 30
ATOM     30  CB  CYS C   7     -10.704   1.512 -57.486  1.00 18.37 LIG 0.11  C 
BRANCH 30 31
ATOM     31 SG   CYS C   7     -10.630   2.393 -59.067  1.00 21.24 LIG-0.18  SA
ATOM     32 HG   CYS C   7      -9.966   3.383 -58.943  1.00 21.24 LIG 0.10  HD
ENDBRANCH 30 31
ENDBRANCH 29 30
BRANCH 29 33
ATOM     33  C   CYS C   7      -8.449   2.553 -57.040  1.00 18.64 LIG 0.20  C 
ATOM     34 OXT  CYS C   7      -7.457   2.729 -56.315  1.00 18.72 LIG-0.65  OA
ATOM     35 O    CYS C   7      -8.687   3.387 -57.930  1.00 19.07 LIG-0.65  OA
ENDBRANCH 29 33
ENDBRANCH 27 29
ENDBRANCH 21 25
ENDBRANCH 19 21
ENDBRANCH 13 17
ENDBRANCH 10 13
ENDBRANCH 5 9
ENDBRANCH 3 5
BRANCH 1 36
ATOM     36  CA  ASP C   3      -3.791   2.248 -48.167  1.00 23.26 LIG 0.19  C 
BRANCH 36 37
ATOM     37  N   ASP C   3      -3.495   2.206 -46.752  1.00 23.08 LIG-0.35  N 
ATOM     38  C   GLU C   2      -4.004   3.125 -45.947  1.00 23.46 LIG 0.24  C 
ATOM     39 O    GLU C   2      -4.627   4.093 -46.369  1.00 23.95 LIG-0.27  OA
ATOM     40 H    ASP C   3      -2.983   1.561 -46.502  1.00 23.08 LIG 0.16  HD
BRANCH 38 41
ATOM     41  CA  GLU C   2      -3.782   2.927 -44.458  1.00 23.56 LIG 0.18  C 
BRANCH 41 42
ATOM     42  N   GLU C   2      -2.339   2.877 -44.180  1.00 23.07 LIG-0.35  N 
ATOM     43  C   THR C   1      -1.827   1.937 -43.386  1.00 23.69 LIG 0.24  C 
ATOM     44 O    THR C   1      -2.509   1.092 -42.812  1.00 24.29 LIG-0.27  OA
ATOM     45 H    GLU C   2      -1.877   3.491 -44.566  1.00 23.07 LIG 0.16  HD
BRANCH 43 46
ATOM     46  CA  THR C   1      -0.321   1.949 -43.179  1.00 23.89 LIG 0.20  C 
BRANCH 46 47
ATOM     47  CB  THR C   1       0.279   0.660 -43.767  1.00 24.32 LIG 0.15  C 
ATOM     48  CG2 THR C   1       0.119   0.644 -45.296  1.00 24.71 LIG 0.04  C 
BRANCH 47 49
ATOM     49 OG1  THR C   1       1.674   0.590 -43.440  1.00 24.87 LIG-0.39  OA
ATOM     50 HG1  THR C   1       1.815   1.003 -42.722  1.00 24.87 LIG 0.21  HD
ENDBRANCH 47 49
ENDBRANCH 46 47
BRANCH 46 51
ATOM     51  N   THR C   1      -0.055   2.074 -41.750  1.00 24.03 LIG-0.35  N 
ATOM     52 H    THR C   1      -0.206   1.357 -41.298  1.00 24.03 LIG 0.16  HD
ATOM     53  C   ACE C   0       0.384   3.207 -41.211  1.00 24.28 LIG 0.21  C 
ATOM     54 O    ACE C   0       0.591   4.229 -41.877  1.00 24.50 LIG-0.27  OA
ATOM     55  CH3 ACE C   0       0.840   3.089 -39.790  1.00 24.98 LIG 0.12  C 
ENDBRANCH 46 51
ENDBRANCH 43 46
ENDBRANCH 41 42
BRANCH 41 56
ATOM     56  CB  GLU C   2      -4.476   4.054 -43.678  1.00 23.91 LIG 0.04  C 
BRANCH 56 57
ATOM     57  CG  GLU C   2      -3.536   4.944 -42.882  1.00 27.13 LIG 0.12  C 
BRANCH 57 58
ATOM     58  CD  GLU C   2      -3.154   4.361 -41.533  1.00 29.05 LIG 0.17  C 
ATOM     59 OE2  GLU C   2      -3.830   3.416 -41.087  1.00 31.00 LIG-0.65  OA
ATOM     60 OE1  GLU C   2      -2.187   4.847 -40.916  1.00 31.26 LIG-0.65  OA
ENDBRANCH 57 58
ENDBRANCH 56 57
ENDBRANCH 41 56
ENDBRANCH 38 41
ENDBRANCH 36 37
BRANCH 36 61
ATOM     61  CB  ASP C   3      -2.695   1.557 -48.967  1.00 24.55 LIG 0.15  C 
BRANCH 61 62
ATOM     62  CG  ASP C   3      -1.393   2.344 -48.971  1.00 28.69 LIG 0.17  C 
ATOM     63 OD2  ASP C   3      -0.616   2.214 -48.002  1.00 33.40 LIG-0.65  OA
ATOM     64 OD1  ASP C   3      -1.154   3.104 -49.937  1.00 33.84 LIG-0.65  OA
ENDBRANCH 61 62
ENDBRANCH 36 61
ENDBRANCH 1 36
TORSDOF 27
ENDMDL
MODEL 14
USER: ADFR SOLUTION from run 98
USER: SCORE 18.741480 LL:  -4.612 LR: -16.596 RR:   0.000 FEB:  -8.542
USER: RMSD 13.564150
USER: SEED 97
USER: STATUS no improvement in best in 5 clusters for 5 generations
USER: GENES 29
USER: genes 0 Translation |==|  0.65598 0.61495 0.59428
USER: genes 1 Rotation |==|  0.72929 0.90177 0.31668 0.54896
USER: genes 2 Torsion [C]-N--CA-[CB] |==|  0.50580
USER: genes 3 Torsion [N]-CA--CB-[CG2] |==|  0.83217
USER: genes 4 Torsion [N]-CA--C-[N] |==|  0.46451
USER: genes 5 Torsion [C]-N--CA-[C] |==|  0.71468
USER: genes 6 Torsion [N]-CA--CB-[CG2] |==|  0.42647
USER: genes 7 Torsion [N]-CA--C-[N] |==|  0.85195
USER: genes 8 Torsion [C]-N--CA-[CB] |==|  0.23090
USER: genes 9 Torsion [N]-CA--CB-[SG] |==|  0.50256
USER: genes 10 Torsion [CA]-CB--SG-[HG] |==|  0.36260
USER: genes 11 Torsion [N]-CA--C-[N] |==|  0.34815
USER: genes 12 Torsion [C]-N--CA-[C] |==|  0.70415
USER: genes 13 Torsion [N]-CA--CB-[SG] |==|  0.83692
USER: genes 14 Torsion [CA]-CB--SG-[HG] |==|  0.29947
USER: genes 15 Torsion [N]-CA--C-[OXT] |==|  0.78672
USER: genes 16 Torsion [N]-C--CA-[N] |==|  0.31144
USER: genes 17 Torsion [C]-CA--N-[C] |==|  0.78439
USER: genes 18 Torsion [N]-C--CA-[N] |==|  0.18333
USER: genes 19 Torsion [C]-CA--N-[C] |==|  0.75773
USER: genes 20 Torsion [N]-C--CA-[N] |==|  0.40965
USER: genes 21 Torsion [C]-CA--CB-[CG2] |==|  0.20383
USER: genes 22 Torsion [CA]-CB--OG1-[HG1] |==|  0.46825
USER: genes 23 Torsion [C]-CA--N-[C] |==|  0.62147
USER: genes 24 Torsion [C]-CA--CB-[CG] |==|  0.17722
USER: genes 25 Torsion [CA]-CB--CG-[CD] |==|  0.47238
USER: genes 26 Torsion [CB]-CG--CD-[OE2] |==|  0.34304
USER: genes 27 Torsion [C]-CA--CB-[CG] |==|  0.50122
USER: genes 28 Torsion [CA]-CB--CG-[OD2] |==|  0.22828
ROOT
ATOM      1  C   ASP C   3      -4.402   2.376 -47.675  1.00 21.95 LIG 0.24  C 
ATOM      2 O    ASP C   3      -3.389   2.463 -48.369  1.00 22.02 LIG-0.27  OA
ATOM      3  N   VAL C   4      -5.507   1.736 -48.035  1.00 20.47 LIG-0.35  N 
ATOM      4 H    VAL C   4      -6.205   1.675 -47.537  1.00 20.47 LIG 0.16  HD
ENDROOT
BRANCH 3 5
ATOM      5  CA  VAL C   4      -5.637   1.068 -49.326  1.00 19.37 LIG 0.18  C 
BRANCH 5 6
ATOM      6  CB  VAL C   4      -7.043   0.454 -49.493  1.00 19.50 LIG 0.01  C 
ATOM      7  CG2 VAL C   4      -7.308  -0.588 -48.396  1.00 18.97 LIG 0.01  C 
ATOM      8  CG1 VAL C   4      -7.194  -0.169 -50.868  1.00 20.24 LIG 0.01  C 
ENDBRANCH 5 6
BRANCH 5 9
ATOM      9  C   VAL C   4      -5.367   2.116 -50.398  1.00 18.84 LIG 0.24  C 
ATOM     10  N   VAL C   5      -5.175   1.673 -51.641  1.00 18.10 LIG-0.35  N 
ATOM     11 H    VAL C   5      -5.279   0.849 -51.867  1.00 18.10 LIG 0.16  HD
ATOM     12 O    VAL C   4      -5.353   3.311 -50.088  1.00 20.23 LIG-0.27  OA
BRANCH 10 13
ATOM     13  CA  VAL C   5      -4.771   2.533 -52.747  1.00 17.69 LIG 0.18  C 
BRANCH 13 14
ATOM     14  CB  VAL C   5      -3.656   1.860 -53.587  1.00 18.27 LIG 0.01  C 
ATOM     15  CG2 VAL C   5      -3.706   2.403 -55.044  1.00 18.63 LIG 0.01  C 
ATOM     16  CG1 VAL C   5      -3.782   0.330 -53.558  1.00 19.20 LIG 0.01  C 
ENDBRANCH 13 14
BRANCH 13 17
ATOM     17  C   VAL C   5      -5.991   2.831 -53.624  1.00 17.55 LIG 0.24  C 
ATOM     18 O    VAL C   5      -6.292   4.001 -53.914  1.00 16.61 LIG-0.27  OA
ATOM     19  N   CYS C   6      -6.664   1.771 -54.054  1.00 17.33 LIG-0.34  N 
ATOM     20 H    CYS C   6      -6.449   0.962 -53.857  1.00 17.33 LIG 0.16  HD
BRANCH 19 21
ATOM     21  CA  CYS C   6      -7.848   1.878 -54.910  1.00 17.84 LIG 0.18  C 
BRANCH 21 22
ATOM     22  CB  CYS C   6      -7.439   2.028 -56.371  1.00 18.00 LIG 0.10  C 
BRANCH 22 23
ATOM     23 SG   CYS C   6      -8.848   2.190 -57.465  1.00 23.34 LIG-0.18  SA
ATOM     24 HG   CYS C   6      -8.685   3.132 -58.191  1.00 23.34 LIG 0.10  HD
ENDBRANCH 22 23
ENDBRANCH 21 22
BRANCH 21 25
ATOM     25  C   CYS C   6      -8.714   0.648 -54.747  1.00 17.78 LIG 0.24  C 
ATOM     26 O    CYS C   6      -8.238  -0.476 -54.911  1.00 18.30 LIG-0.27  OA
ATOM     27  N   CYS C   7      -9.991   0.855 -54.415  1.00 17.97 LIG-0.34  N 
ATOM     28 H    CYS C   7     -10.352   1.632 -54.334  1.00 17.97 LIG 0.16  HD
BRANCH 27 29
ATOM     29  CA  CYS C   7     -10.896  -0.272 -54.157  1.00 18.46 LIG 0.19  C 
BRANCH 29 30
ATOM     30  CB  CYS C   7     -11.588  -0.057 -52.817  1.00 18.37 LIG 0.11  C 
BRANCH 30 31
ATOM     31 SG   CYS C   7     -10.399   0.087 -51.458  1.00 21.24 LIG-0.18  SA
ATOM     32 HG   CYS C   7     -10.354   1.226 -51.084  1.00 21.24 LIG 0.10  HD
ENDBRANCH 30 31
ENDBRANCH 29 30
BRANCH 29 33
ATOM     33  C   CYS C   7     -11.910  -0.504 -55.280  1.00 18.64 LIG 0.20  C 
ATOM     34 OXT  CYS C   7     -12.903   0.231 -55.401  1.00 18.72 LIG-0.65  OA
ATOM     35 O    CYS C   7     -11.727  -1.396 -56.125  1.00 19.07 LIG-0.65  OA
ENDBRANCH 29 33
ENDBRANCH 27 29
ENDBRANCH 21 25
ENDBRANCH 19 21
ENDBRANCH 13 17
ENDBRANCH 10 13
ENDBRANCH 5 9
ENDBRANCH 3 5
BRANCH 1 36
ATOM     36  CA  ASP C   3      -4.445   3.011 -46.312  1.00 23.26 LIG 0.19  C 
BRANCH 36 37
ATOM     37  N   ASP C   3      -3.527   2.319 -45.434  1.00 23.08 LIG-0.35  N 
ATOM     38  C   GLU C   2      -3.869   1.150 -44.917  1.00 23.46 LIG 0.24  C 
ATOM     39 O    GLU C   2      -4.992   0.676 -45.054  1.00 23.95 LIG-0.27  OA
ATOM     40 H    ASP C   3      -2.780   2.722 -45.291  1.00 23.08 LIG 0.16  HD
BRANCH 38 41
ATOM     41  CA  GLU C   2      -2.798   0.409 -44.135  1.00 23.56 LIG 0.18  C 
BRANCH 41 42
ATOM     42  N   GLU C   2      -2.464   1.169 -42.922  1.00 23.07 LIG-0.35  N 
ATOM     43  C   THR C   1      -1.535   2.124 -42.946  1.00 23.69 LIG 0.24  C 
ATOM     44 O    THR C   1      -0.881   2.405 -43.947  1.00 24.29 LIG-0.27  OA
ATOM     45 H    GLU C   2      -2.910   0.943 -42.222  1.00 23.07 LIG 0.16  HD
BRANCH 43 46
ATOM     46  CA  THR C   1      -1.276   2.874 -41.650  1.00 23.89 LIG 0.20  C 
BRANCH 46 47
ATOM     47  CB  THR C   1      -2.199   4.103 -41.584  1.00 24.32 LIG 0.15  C 
ATOM     48  CG2 THR C   1      -3.647   3.671 -41.296  1.00 24.71 LIG 0.04  C 
BRANCH 47 49
ATOM     49 OG1  THR C   1      -1.755   4.980 -40.540  1.00 24.87 LIG-0.39  OA
ATOM     50 HG1  THR C   1      -2.154   5.716 -40.603  1.00 24.87 LIG 0.21  HD
ENDBRANCH 47 49
ENDBRANCH 46 47
BRANCH 46 51
ATOM     51  N   THR C   1       0.133   3.246 -41.607  1.00 24.03 LIG-0.35  N 
ATOM     52 H    THR C   1       0.439   3.558 -42.348  1.00 24.03 LIG 0.16  HD
ATOM     53  C   ACE C   0       0.867   3.107 -40.506  1.00 24.28 LIG 0.21  C 
ATOM     54 O    ACE C   0       0.409   2.652 -39.451  1.00 24.50 LIG-0.27  OA
ATOM     55  CH3 ACE C   0       2.210   3.763 -40.563  1.00 24.98 LIG 0.12  C 
ENDBRANCH 46 51
ENDBRANCH 43 46
ENDBRANCH 41 42
BRANCH 41 56
ATOM     56  CB  GLU C   2      -3.288  -1.009 -43.806  1.00 23.91 LIG 0.04  C 
BRANCH 56 57
ATOM     57  CG  GLU C   2      -3.527  -1.893 -45.018  1.00 27.13 LIG 0.12  C 
BRANCH 57 58
ATOM     58  CD  GLU C   2      -3.776  -3.348 -44.662  1.00 29.05 LIG 0.17  C 
ATOM     59 OE2  GLU C   2      -4.831  -3.879 -45.056  1.00 31.00 LIG-0.65  OA
ATOM     60 OE1  GLU C   2      -2.926  -3.960 -43.988  1.00 31.26 LIG-0.65  OA
ENDBRANCH 57 58
ENDBRANCH 56 57
ENDBRANCH 41 56
ENDBRANCH 38 41
ENDBRANCH 36 37
BRANCH 36 61
ATOM     61  CB  ASP C   3      -4.092   4.490 -46.403  1.00 24.55 LIG 0.15  C 
BRANCH 61 62
ATOM     62  CG  ASP C   3      -4.110   5.176 -45.046  1.00 28.69 LIG 0.17  C 
ATOM     63 OD2  ASP C   3      -3.104   5.074 -44.313  1.00 33.40 LIG-0.65  OA
ATOM     64 OD1  ASP C   3      -5.137   5.808 -44.706  1.00 33.84 LIG-0.65  OA
ENDBRANCH 61 62
ENDBRANCH 36 61
ENDBRANCH 1 36
TORSDOF 27
ENDMDL
MODEL 15
USER: ADFR SOLUTION from run 200
USER: SCORE 18.782972 LL:  -4.918 LR: -16.510 RR:   0.000 FEB:  -8.456
USER: RMSD 13.054420
USER: SEED 199
USER: STATUS searching
USER: GENES 29
USER: genes 0 Translation |==|  0.73223 0.59030 0.54839
USER: genes 1 Rotation |==|  0.53041 0.98916 0.48781 0.59825
USER: genes 2 Torsion [C]-N--CA-[CB] |==|  0.48361
USER: genes 3 Torsion [N]-CA--CB-[CG2] |==|  0.54705
USER: genes 4 Torsion [N]-CA--C-[N] |==|  0.50353
USER: genes 5 Torsion [C]-N--CA-[C] |==|  0.81031
USER: genes 6 Torsion [N]-CA--CB-[CG2] |==|  0.63383
USER: genes 7 Torsion [N]-CA--C-[N] |==|  0.97103
USER: genes 8 Torsion [C]-N--CA-[CB] |==|  0.24677
USER: genes 9 Torsion [N]-CA--CB-[SG] |==|  0.57344
USER: genes 10 Torsion [CA]-CB--SG-[HG] |==|  0.06369
USER: genes 11 Torsion [N]-CA--C-[N] |==|  0.16875
USER: genes 12 Torsion [C]-N--CA-[C] |==|  0.74552
USER: genes 13 Torsion [N]-CA--CB-[SG] |==|  0.41913
USER: genes 14 Torsion [CA]-CB--SG-[HG] |==|  0.83490
USER: genes 15 Torsion [N]-CA--C-[OXT] |==|  0.51645
USER: genes 16 Torsion [N]-C--CA-[N] |==|  0.38024
USER: genes 17 Torsion [C]-CA--N-[C] |==|  0.72593
USER: genes 18 Torsion [N]-C--CA-[N] |==|  0.21933
USER: genes 19 Torsion [C]-CA--N-[C] |==|  0.78885
USER: genes 20 Torsion [N]-C--CA-[N] |==|  0.09505
USER: genes 21 Torsion [C]-CA--CB-[CG2] |==|  0.26912
USER: genes 22 Torsion [CA]-CB--OG1-[HG1] |==|  0.47474
USER: genes 23 Torsion [C]-CA--N-[C] |==|  0.17595
USER: genes 24 Torsion [C]-CA--CB-[CG] |==|  0.18091
USER: genes 25 Torsion [CA]-CB--CG-[CD] |==|  0.07726
USER: genes 26 Torsion [CB]-CG--CD-[OE2] |==|  0.70873
USER: genes 27 Torsion [C]-CA--CB-[CG] |==|  0.68695
USER: genes 28 Torsion [CA]-CB--CG-[OD2] |==|  0.19766
ROOT
ATOM      1  C   ASP C   3      -2.573   1.969 -48.948  1.00 21.95 LIG 0.24  C 
ATOM      2 O    ASP C   3      -2.169   3.115 -49.146  1.00 22.02 LIG-0.27  OA
ATOM      3  N   VAL C   4      -2.690   1.042 -49.890  1.00 20.47 LIG-0.35  N 
ATOM      4 H    VAL C   4      -2.966   0.242 -49.736  1.00 20.47 LIG 0.16  HD
ENDROOT
BRANCH 3 5
ATOM      5  CA  VAL C   4      -2.359   1.300 -51.287  1.00 19.37 LIG 0.18  C 
BRANCH 5 6
ATOM      6  CB  VAL C   4      -2.450   0.008 -52.126  1.00 19.50 LIG 0.01  C 
ATOM      7  CG2 VAL C   4      -1.712   0.182 -53.461  1.00 18.97 LIG 0.01  C 
ATOM      8  CG1 VAL C   4      -3.899  -0.373 -52.363  1.00 20.24 LIG 0.01  C 
ENDBRANCH 5 6
BRANCH 5 9
ATOM      9  C   VAL C   4      -3.340   2.350 -51.790  1.00 18.84 LIG 0.24  C 
ATOM     10  N   VAL C   5      -3.230   2.718 -53.067  1.00 18.10 LIG-0.35  N 
ATOM     11 H    VAL C   5      -2.696   2.333 -53.621  1.00 18.10 LIG 0.16  HD
ATOM     12 O    VAL C   4      -4.194   2.801 -51.020  1.00 20.23 LIG-0.27  OA
BRANCH 10 13
ATOM     13  CA  VAL C   5      -3.999   3.805 -53.660  1.00 17.69 LIG 0.18  C 
BRANCH 13 14
ATOM     14  CB  VAL C   5      -3.470   4.145 -55.075  1.00 18.27 LIG 0.01  C 
ATOM     15  CG2 VAL C   5      -3.279   5.685 -55.201  1.00 18.63 LIG 0.01  C 
ATOM     16  CG1 VAL C   5      -4.410   3.610 -56.166  1.00 19.20 LIG 0.01  C 
ENDBRANCH 13 14
BRANCH 13 17
ATOM     17  C   VAL C   5      -5.475   3.399 -53.727  1.00 17.55 LIG 0.24  C 
ATOM     18 O    VAL C   5      -6.347   4.229 -54.034  1.00 16.61 LIG-0.27  OA
ATOM     19  N   CYS C   6      -5.735   2.125 -53.461  1.00 17.33 LIG-0.34  N 
ATOM     20 H    CYS C   6      -5.128   1.551 -53.256  1.00 17.33 LIG 0.16  HD
BRANCH 19 21
ATOM     21  CA  CYS C   6      -7.089   1.569 -53.492  1.00 17.84 LIG 0.18  C 
BRANCH 21 22
ATOM     22  CB  CYS C   6      -7.431   1.071 -54.891  1.00 18.00 LIG 0.10  C 
BRANCH 22 23
ATOM     23 SG   CYS C   6      -9.193   1.092 -55.217  1.00 23.34 LIG-0.18  SA
ATOM     24 HG   CYS C   6      -9.726   1.882 -54.487  1.00 23.34 LIG 0.10  HD
ENDBRANCH 22 23
ENDBRANCH 21 22
BRANCH 21 25
ATOM     25  C   CYS C   6      -7.201   0.429 -52.503  1.00 17.78 LIG 0.24  C 
ATOM     26 O    CYS C   6      -7.477  -0.707 -52.891  1.00 18.30 LIG-0.27  OA
ATOM     27  N   CYS C   7      -6.979   0.726 -51.220  1.00 17.97 LIG-0.34  N 
ATOM     28 H    CYS C   7      -6.824   1.519 -50.925  1.00 17.97 LIG 0.16  HD
BRANCH 27 29
ATOM     29  CA  CYS C   7      -6.986  -0.321 -50.191  1.00 18.46 LIG 0.19  C 
BRANCH 29 30
ATOM     30  CB  CYS C   7      -5.924  -0.000 -49.148  1.00 18.37 LIG 0.11  C 
BRANCH 30 31
ATOM     31 SG   CYS C   7      -6.365  -0.647 -47.514  1.00 21.24 LIG-0.18  SA
ATOM     32 HG   CYS C   7      -7.406  -0.168 -47.162  1.00 21.24 LIG 0.10  HD
ENDBRANCH 30 31
ENDBRANCH 29 30
BRANCH 29 33
ATOM     33  C   CYS C   7      -8.360  -0.526 -49.546  1.00 18.64 LIG 0.20  C 
ATOM     34 OXT  CYS C   7      -8.501  -1.299 -48.585  1.00 18.72 LIG-0.65  OA
ATOM     35 O    CYS C   7      -9.347   0.119 -49.937  1.00 19.07 LIG-0.65  OA
ENDBRANCH 29 33
ENDBRANCH 27 29
ENDBRANCH 21 25
ENDBRANCH 19 21
ENDBRANCH 13 17
ENDBRANCH 10 13
ENDBRANCH 5 9
ENDBRANCH 3 5
BRANCH 1 36
ATOM     36  CA  ASP C   3      -2.964   1.531 -47.564  1.00 23.26 LIG 0.19  C 
BRANCH 36 37
ATOM     37  N   ASP C   3      -1.991   2.025 -46.614  1.00 23.08 LIG-0.35  N 
ATOM     38  C   GLU C   2      -1.029   1.224 -46.183  1.00 23.46 LIG 0.24  C 
ATOM     39 O    GLU C   2      -0.996   0.031 -46.463  1.00 23.95 LIG-0.27  OA
ATOM     40 H    ASP C   3      -2.095   2.844 -46.373  1.00 23.08 LIG 0.16  HD
BRANCH 38 41
ATOM     41  CA  GLU C   2       0.045   1.854 -45.314  1.00 23.56 LIG 0.18  C 
BRANCH 41 42
ATOM     42  N   GLU C   2      -0.462   2.010 -43.943  1.00 23.07 LIG-0.35  N 
ATOM     43  C   THR C   1      -1.323   2.981 -43.638  1.00 23.69 LIG 0.24  C 
ATOM     44 O    THR C   1      -1.713   3.817 -44.449  1.00 24.29 LIG-0.27  OA
ATOM     45 H    GLU C   2      -0.160   1.435 -43.380  1.00 23.07 LIG 0.16  HD
BRANCH 43 46
ATOM     46  CA  THR C   1      -1.813   3.048 -42.201  1.00 23.89 LIG 0.20  C 
BRANCH 46 47
ATOM     47  CB  THR C   1      -2.279   4.481 -41.893  1.00 24.32 LIG 0.15  C 
ATOM     48  CG2 THR C   1      -3.803   4.596 -42.060  1.00 24.71 LIG 0.04  C 
BRANCH 47 49
ATOM     49 OG1  THR C   1      -1.928   4.818 -40.543  1.00 24.87 LIG-0.39  OA
ATOM     50 HG1  THR C   1      -2.068   5.637 -40.413  1.00 24.87 LIG 0.21  HD
ENDBRANCH 47 49
ENDBRANCH 46 47
BRANCH 46 51
ATOM     51  N   THR C   1      -0.726   2.626 -41.324  1.00 24.03 LIG-0.35  N 
ATOM     52 H    THR C   1      -0.891   1.910 -40.877  1.00 24.03 LIG 0.16  HD
ATOM     53  C   ACE C   0       0.415   3.304 -41.239  1.00 24.28 LIG 0.21  C 
ATOM     54 O    ACE C   0       0.631   4.335 -41.889  1.00 24.50 LIG-0.27  OA
ATOM     55  CH3 ACE C   0       1.505   2.603 -40.491  1.00 24.98 LIG 0.12  C 
ENDBRANCH 46 51
ENDBRANCH 43 46
ENDBRANCH 41 42
BRANCH 41 56
ATOM     56  CB  GLU C   2       1.316   0.991 -45.358  1.00 23.91 LIG 0.04  C 
BRANCH 56 57
ATOM     57  CG  GLU C   2       1.985   0.922 -46.720  1.00 27.13 LIG 0.12  C 
BRANCH 57 58
ATOM     58  CD  GLU C   2       1.736   2.151 -47.577  1.00 29.05 LIG 0.17  C 
ATOM     59 OE2  GLU C   2       0.927   2.058 -48.518  1.00 31.00 LIG-0.65  OA
ATOM     60 OE1  GLU C   2       2.349   3.204 -47.317  1.00 31.26 LIG-0.65  OA
ENDBRANCH 57 58
ENDBRANCH 56 57
ENDBRANCH 41 56
ENDBRANCH 38 41
ENDBRANCH 36 37
BRANCH 36 61
ATOM     61  CB  ASP C   3      -4.358   2.038 -47.218  1.00 24.55 LIG 0.15  C 
BRANCH 61 62
ATOM     62  CG  ASP C   3      -4.341   3.080 -46.111  1.00 28.69 LIG 0.17  C 
ATOM     63 OD2  ASP C   3      -3.884   4.214 -46.368  1.00 33.40 LIG-0.65  OA
ATOM     64 OD1  ASP C   3      -4.772   2.762 -44.980  1.00 33.84 LIG-0.65  OA
ENDBRANCH 61 62
ENDBRANCH 36 61
ENDBRANCH 1 36
TORSDOF 27
ENDMDL
MODEL 16
USER: ADFR SOLUTION from run 168
USER: SCORE 18.786070 LL:  -4.724 LR: -16.383 RR:   0.000 FEB:  -8.328
USER: RMSD 13.825855
USER: SEED 167
USER: STATUS 1 or 2 clusters left
USER: GENES 29
USER: genes 0 Translation |==|  0.66321 0.52797 0.65488
USER: genes 1 Rotation |==|  0.66231 0.12793 0.20877 0.52003
USER: genes 2 Torsion [C]-N--CA-[CB] |==|  0.21667
USER: genes 3 Torsion [N]-CA--CB-[CG2] |==|  0.10320
USER: genes 4 Torsion [N]-CA--C-[N] |==|  0.20659
USER: genes 5 Torsion [C]-N--CA-[C] |==|  0.54293
USER: genes 6 Torsion [N]-CA--CB-[CG2] |==|  0.07666
USER: genes 7 Torsion [N]-CA--C-[N] |==|  0.44833
USER: genes 8 Torsion [C]-N--CA-[CB] |==|  0.12472
USER: genes 9 Torsion [N]-CA--CB-[SG] |==|  0.64828
USER: genes 10 Torsion [CA]-CB--SG-[HG] |==|  0.76726
USER: genes 11 Torsion [N]-CA--C-[N] |==|  0.67183
USER: genes 12 Torsion [C]-N--CA-[C] |==|  0.56154
USER: genes 13 Torsion [N]-CA--CB-[SG] |==|  0.59399
USER: genes 14 Torsion [CA]-CB--SG-[HG] |==|  0.94412
USER: genes 15 Torsion [N]-CA--C-[OXT] |==|  0.44070
USER: genes 16 Torsion [N]-C--CA-[N] |==|  0.29715
USER: genes 17 Torsion [C]-CA--N-[C] |==|  0.81051
USER: genes 18 Torsion [N]-C--CA-[N] |==|  0.91563
USER: genes 19 Torsion [C]-CA--N-[C] |==|  0.82121
USER: genes 20 Torsion [N]-C--CA-[N] |==|  0.09817
USER: genes 21 Torsion [C]-CA--CB-[CG2] |==|  0.29115
USER: genes 22 Torsion [CA]-CB--OG1-[HG1] |==|  0.90238
USER: genes 23 Torsion [C]-CA--N-[C] |==|  0.17329
USER: genes 24 Torsion [C]-CA--CB-[CG] |==|  0.38508
USER: genes 25 Torsion [CA]-CB--CG-[CD] |==|  0.83263
USER: genes 26 Torsion [CB]-CG--CD-[OE2] |==|  0.38956
USER: genes 27 Torsion [C]-CA--CB-[CG] |==|  0.69852
USER: genes 28 Torsion [CA]-CB--CG-[OD2] |==|  0.34430
ROOT
ATOM      1  C   ASP C   3      -4.229   0.941 -45.993  1.00 21.95 LIG 0.24  C 
ATOM      2 O    ASP C   3      -4.729   1.375 -44.955  1.00 22.02 LIG-0.27  OA
ATOM      3  N   VAL C   4      -4.512   1.391 -47.208  1.00 20.47 LIG-0.35  N 
ATOM      4 H    VAL C   4      -4.148   1.084 -47.925  1.00 20.47 LIG 0.16  HD
ENDROOT
BRANCH 3 5
ATOM      5  CA  VAL C   4      -5.477   2.460 -47.441  1.00 19.37 LIG 0.18  C 
BRANCH 5 6
ATOM      6  CB  VAL C   4      -4.863   3.840 -47.121  1.00 19.50 LIG 0.01  C 
ATOM      7  CG2 VAL C   4      -3.388   3.882 -47.544  1.00 18.97 LIG 0.01  C 
ATOM      8  CG1 VAL C   4      -5.004   4.157 -45.645  1.00 20.24 LIG 0.01  C 
ENDBRANCH 5 6
BRANCH 5 9
ATOM      9  C   VAL C   4      -5.893   2.373 -48.903  1.00 18.84 LIG 0.24  C 
ATOM     10  N   VAL C   5      -6.717   1.379 -49.239  1.00 18.10 LIG-0.35  N 
ATOM     11 H    VAL C   5      -7.077   0.853 -48.660  1.00 18.10 LIG 0.16  HD
ATOM     12 O    VAL C   4      -5.477   3.215 -49.705  1.00 20.23 LIG-0.27  OA
BRANCH 10 13
ATOM     13  CA  VAL C   5      -7.096   1.078 -50.613  1.00 17.69 LIG 0.18  C 
BRANCH 13 14
ATOM     14  CB  VAL C   5      -5.924   0.408 -51.373  1.00 18.27 LIG 0.01  C 
ATOM     15  CG2 VAL C   5      -5.019  -0.354 -50.361  1.00 18.63 LIG 0.01  C 
ATOM     16  CG1 VAL C   5      -5.115   1.441 -52.174  1.00 19.20 LIG 0.01  C 
ENDBRANCH 13 14
BRANCH 13 17
ATOM     17  C   VAL C   5      -8.321   0.158 -50.608  1.00 17.55 LIG 0.24  C 
ATOM     18 O    VAL C   5      -8.637  -0.471 -49.584  1.00 16.61 LIG-0.27  OA
ATOM     19  N   CYS C   6      -9.007   0.106 -51.743  1.00 17.33 LIG-0.34  N 
ATOM     20 H    CYS C   6      -8.790   0.548 -52.448  1.00 17.33 LIG 0.16  HD
BRANCH 19 21
ATOM     21  CA  CYS C   6     -10.209  -0.714 -51.905  1.00 17.84 LIG 0.18  C 
BRANCH 21 22
ATOM     22  CB  CYS C   6     -11.130  -0.559 -50.700  1.00 18.00 LIG 0.10  C 
BRANCH 22 23
ATOM     23 SG   CYS C   6     -11.574  -2.132 -49.968  1.00 23.34 LIG-0.18  SA
ATOM     24 HG   CYS C   6     -12.502  -2.604 -50.565  1.00 23.34 LIG 0.10  HD
ENDBRANCH 22 23
ENDBRANCH 21 22
BRANCH 21 25
ATOM     25  C   CYS C   6     -10.945  -0.307 -53.164  1.00 17.78 LIG 0.24  C 
ATOM     26 O    CYS C   6     -10.406  -0.425 -54.265  1.00 18.30 LIG-0.27  OA
ATOM     27  N   CYS C   7     -12.183   0.168 -53.007  1.00 17.97 LIG-0.34  N 
ATOM     28 H    CYS C   7     -12.561   0.294 -52.244  1.00 17.97 LIG 0.16  HD
BRANCH 27 29
ATOM     29  CA  CYS C   7     -13.010   0.518 -54.168  1.00 18.46 LIG 0.19  C 
BRANCH 29 30
ATOM     30  CB  CYS C   7     -13.563  -0.758 -54.788  1.00 18.37 LIG 0.11  C 
BRANCH 30 31
ATOM     31 SG   CYS C   7     -13.712  -0.623 -56.589  1.00 21.24 LIG-0.18  SA
ATOM     32 HG   CYS C   7     -13.727   0.534 -56.904  1.00 21.24 LIG 0.10  HD
ENDBRANCH 30 31
ENDBRANCH 29 30
BRANCH 29 33
ATOM     33  C   CYS C   7     -14.128   1.511 -53.837  1.00 18.64 LIG 0.20  C 
ATOM     34 OXT  CYS C   7     -14.650   2.199 -54.729  1.00 18.72 LIG-0.65  OA
ATOM     35 O    CYS C   7     -14.572   1.604 -52.680  1.00 19.07 LIG-0.65  OA
ENDBRANCH 29 33
ENDBRANCH 27 29
ENDBRANCH 21 25
ENDBRANCH 19 21
ENDBRANCH 13 17
ENDBRANCH 10 13
ENDBRANCH 5 9
ENDBRANCH 3 5
BRANCH 1 36
ATOM     36  CA  ASP C   3      -3.215  -0.169 -45.939  1.00 23.26 LIG 0.19  C 
BRANCH 36 37
ATOM     37  N   ASP C   3      -1.968   0.349 -45.422  1.00 23.08 LIG-0.35  N 
ATOM     38  C   GLU C   2      -1.264   1.208 -46.142  1.00 23.46 LIG 0.24  C 
ATOM     39 O    GLU C   2      -1.566   1.498 -47.295  1.00 23.95 LIG-0.27  OA
ATOM     40 H    ASP C   3      -1.743   0.058 -44.644  1.00 23.08 LIG 0.16  HD
BRANCH 38 41
ATOM     41  CA  GLU C   2      -0.052   1.829 -45.472  1.00 23.56 LIG 0.18  C 
BRANCH 41 42
ATOM     42  N   GLU C   2      -0.289   1.932 -44.025  1.00 23.07 LIG-0.35  N 
ATOM     43  C   THR C   1      -1.254   2.715 -43.543  1.00 23.69 LIG 0.24  C 
ATOM     44 O    THR C   1      -1.969   3.420 -44.251  1.00 24.29 LIG-0.27  OA
ATOM     45 H    GLU C   2       0.235   1.455 -43.539  1.00 23.07 LIG 0.16  HD
BRANCH 43 46
ATOM     46  CA  THR C   1      -1.443   2.736 -42.035  1.00 23.89 LIG 0.20  C 
BRANCH 46 47
ATOM     47  CB  THR C   1      -2.153   4.040 -41.633  1.00 24.32 LIG 0.15  C 
ATOM     48  CG2 THR C   1      -3.626   3.764 -41.286  1.00 24.71 LIG 0.04  C 
BRANCH 47 49
ATOM     49 OG1  THR C   1      -1.500   4.607 -40.489  1.00 24.87 LIG-0.39  OA
ATOM     50 HG1  THR C   1      -1.228   3.990 -39.987  1.00 24.87 LIG 0.21  HD
ENDBRANCH 47 49
ENDBRANCH 46 47
BRANCH 46 51
ATOM     51  N   THR C   1      -0.133   2.610 -41.406  1.00 24.03 LIG-0.35  N 
ATOM     52 H    THR C   1      -0.039   1.904 -40.925  1.00 24.03 LIG 0.16  HD
ATOM     53  C   ACE C   0       0.821   3.521 -41.574  1.00 24.28 LIG 0.21  C 
ATOM     54 O    ACE C   0       0.663   4.534 -42.268  1.00 24.50 LIG-0.27  OA
ATOM     55  CH3 ACE C   0       2.169   3.116 -41.068  1.00 24.98 LIG 0.12  C 
ENDBRANCH 46 51
ENDBRANCH 43 46
ENDBRANCH 41 42
BRANCH 41 56
ATOM     56  CB  GLU C   2       1.198   0.993 -45.788  1.00 23.91 LIG 0.04  C 
BRANCH 56 57
ATOM     57  CG  GLU C   2       2.441   1.808 -46.100  1.00 27.13 LIG 0.12  C 
BRANCH 57 58
ATOM     58  CD  GLU C   2       2.279   2.717 -47.306  1.00 29.05 LIG 0.17  C 
ATOM     59 OE2  GLU C   2       2.775   3.857 -47.255  1.00 31.00 LIG-0.65  OA
ATOM     60 OE1  GLU C   2       1.654   2.298 -48.299  1.00 31.26 LIG-0.65  OA
ENDBRANCH 57 58
ENDBRANCH 56 57
ENDBRANCH 41 56
ENDBRANCH 38 41
ENDBRANCH 36 37
BRANCH 36 61
ATOM     61  CB  ASP C   3      -3.723  -1.314 -45.073  1.00 24.55 LIG 0.15  C 
BRANCH 61 62
ATOM     62  CG  ASP C   3      -2.982  -1.415 -43.749  1.00 28.69 LIG 0.17  C 
ATOM     63 OD2  ASP C   3      -3.645  -1.377 -42.691  1.00 33.40 LIG-0.65  OA
ATOM     64 OD1  ASP C   3      -1.734  -1.519 -43.766  1.00 33.84 LIG-0.65  OA
ENDBRANCH 61 62
ENDBRANCH 36 61
ENDBRANCH 1 36
TORSDOF 27
ENDMDL
MODEL 17
USER: ADFR SOLUTION from run 98
USER: SCORE 18.508080 LL:  -4.597 LR: -16.341 RR:   0.000 FEB:  -8.287
USER: RMSD 13.917738
USER: SEED 97
USER: STATUS no improvement in best in 5 clusters for 5 generations
USER: GENES 29
USER: genes 0 Translation |==|  0.66419 0.62823 0.59527
USER: genes 1 Rotation |==|  0.69370 0.92969 0.34579 0.56376
USER: genes 2 Torsion [C]-N--CA-[CB] |==|  0.49218
USER: genes 3 Torsion [N]-CA--CB-[CG2] |==|  0.61248
USER: genes 4 Torsion [N]-CA--C-[N] |==|  0.48851
USER: genes 5 Torsion [C]-N--CA-[C] |==|  0.65735
USER: genes 6 Torsion [N]-CA--CB-[CG2] |==|  0.44234
USER: genes 7 Torsion [N]-CA--C-[N] |==|  0.82214
USER: genes 8 Torsion [C]-N--CA-[CB] |==|  0.82109
USER: genes 9 Torsion [N]-CA--CB-[SG] |==|  0.83660
USER: genes 10 Torsion [CA]-CB--SG-[HG] |==|  0.63728
USER: genes 11 Torsion [N]-CA--C-[N] |==|  0.51449
USER: genes 12 Torsion [C]-N--CA-[C] |==|  0.53718
USER: genes 13 Torsion [N]-CA--CB-[SG] |==|  0.78927
USER: genes 14 Torsion [CA]-CB--SG-[HG] |==|  0.34113
USER: genes 15 Torsion [N]-CA--C-[OXT] |==|  0.70308
USER: genes 16 Torsion [N]-C--CA-[N] |==|  0.29103
USER: genes 17 Torsion [C]-CA--N-[C] |==|  0.77533
USER: genes 18 Torsion [N]-C--CA-[N] |==|  0.16715
USER: genes 19 Torsion [C]-CA--N-[C] |==|  0.76209
USER: genes 20 Torsion [N]-C--CA-[N] |==|  0.40912
USER: genes 21 Torsion [C]-CA--CB-[CG2] |==|  0.20430
USER: genes 22 Torsion [CA]-CB--OG1-[HG1] |==|  0.46188
USER: genes 23 Torsion [C]-CA--N-[C] |==|  0.62623
USER: genes 24 Torsion [C]-CA--CB-[CG] |==|  0.17698
USER: genes 25 Torsion [CA]-CB--CG-[CD] |==|  0.47307
USER: genes 26 Torsion [CB]-CG--CD-[OE2] |==|  0.33608
USER: genes 27 Torsion [C]-CA--CB-[CG] |==|  0.51866
USER: genes 28 Torsion [CA]-CB--CG-[OD2] |==|  0.25816
ROOT
ATOM      1  C   ASP C   3      -4.205   2.595 -47.647  1.00 21.95 LIG 0.24  C 
ATOM      2 O    ASP C   3      -3.211   2.945 -48.283  1.00 22.02 LIG-0.27  OA
ATOM      3  N   VAL C   4      -5.150   1.789 -48.115  1.00 20.47 LIG-0.35  N 
ATOM      4 H    VAL C   4      -5.835   1.545 -47.657  1.00 20.47 LIG 0.16  HD
ENDROOT
BRANCH 3 5
ATOM      5  CA  VAL C   4      -5.108   1.236 -49.465  1.00 19.37 LIG 0.18  C 
BRANCH 5 6
ATOM      6  CB  VAL C   4      -6.295   0.281 -49.710  1.00 19.50 LIG 0.01  C 
ATOM      7  CG2 VAL C   4      -5.837  -0.952 -50.503  1.00 18.97 LIG 0.01  C 
ATOM      8  CG1 VAL C   4      -7.416   0.998 -50.437  1.00 20.24 LIG 0.01  C 
ENDBRANCH 5 6
BRANCH 5 9
ATOM      9  C   VAL C   4      -5.146   2.415 -50.429  1.00 18.84 LIG 0.24  C 
ATOM     10  N   VAL C   5      -5.031   2.137 -51.728  1.00 18.10 LIG-0.35  N 
ATOM     11 H    VAL C   5      -5.021   1.334 -52.036  1.00 18.10 LIG 0.16  HD
ATOM     12 O    VAL C   4      -5.296   3.557 -49.985  1.00 20.23 LIG-0.27  OA
BRANCH 10 13
ATOM     13  CA  VAL C   5      -4.910   3.158 -52.761  1.00 17.69 LIG 0.18  C 
BRANCH 13 14
ATOM     14  CB  VAL C   5      -3.528   3.078 -53.456  1.00 18.27 LIG 0.01  C 
ATOM     15  CG2 VAL C   5      -3.605   3.775 -54.845  1.00 18.63 LIG 0.01  C 
ATOM     16  CG1 VAL C   5      -3.055   1.622 -53.589  1.00 19.20 LIG 0.01  C 
ENDBRANCH 13 14
BRANCH 13 17
ATOM     17  C   VAL C   5      -6.033   2.972 -53.787  1.00 17.55 LIG 0.24  C 
ATOM     18 O    VAL C   5      -6.891   3.854 -53.954  1.00 16.61 LIG-0.27  OA
ATOM     19  N   CYS C   6      -6.002   1.837 -54.474  1.00 17.33 LIG-0.34  N 
ATOM     20 H    CYS C   6      -5.402   1.231 -54.360  1.00 17.33 LIG 0.16  HD
BRANCH 19 21
ATOM     21  CA  CYS C   6      -6.993   1.505 -55.500  1.00 17.84 LIG 0.18  C 
BRANCH 21 22
ATOM     22  CB  CYS C   6      -8.377   1.359 -54.880  1.00 18.00 LIG 0.10  C 
BRANCH 22 23
ATOM     23 SG   CYS C   6      -8.433   0.091 -53.615  1.00 23.34 LIG-0.18  SA
ATOM     24 HG   CYS C   6      -9.365  -0.637 -53.820  1.00 23.34 LIG 0.10  HD
ENDBRANCH 22 23
ENDBRANCH 21 22
BRANCH 21 25
ATOM     25  C   CYS C   6      -7.020   2.587 -56.558  1.00 17.78 LIG 0.24  C 
ATOM     26 O    CYS C   6      -6.205   3.509 -56.526  1.00 18.30 LIG-0.27  OA
ATOM     27  N   CYS C   7      -7.954   2.475 -57.506  1.00 17.97 LIG-0.34  N 
ATOM     28 H    CYS C   7      -8.557   1.860 -57.523  1.00 17.97 LIG 0.16  HD
BRANCH 27 29
ATOM     29  CA  CYS C   7      -8.018   3.427 -58.621  1.00 18.46 LIG 0.19  C 
BRANCH 29 30
ATOM     30  CB  CYS C   7      -6.805   3.223 -59.519  1.00 18.37 LIG 0.11  C 
BRANCH 30 31
ATOM     31 SG   CYS C   7      -5.300   3.919 -58.788  1.00 21.24 LIG-0.18  SA
ATOM     32 HG   CYS C   7      -4.469   3.059 -58.688  1.00 21.24 LIG 0.10  HD
ENDBRANCH 30 31
ENDBRANCH 29 30
BRANCH 29 33
ATOM     33  C   CYS C   7      -9.324   3.344 -59.415  1.00 18.64 LIG 0.20  C 
ATOM     34 OXT  CYS C   7      -9.346   2.840 -60.550  1.00 18.72 LIG-0.65  OA
ATOM     35 O    CYS C   7     -10.395   3.726 -58.916  1.00 19.07 LIG-0.65  OA
ENDBRANCH 29 33
ENDBRANCH 27 29
ENDBRANCH 21 25
ENDBRANCH 19 21
ENDBRANCH 13 17
ENDBRANCH 10 13
ENDBRANCH 5 9
ENDBRANCH 3 5
BRANCH 1 36
ATOM     36  CA  ASP C   3      -4.412   3.075 -46.237  1.00 23.26 LIG 0.19  C 
BRANCH 36 37
ATOM     37  N   ASP C   3      -3.514   2.364 -45.354  1.00 23.08 LIG-0.35  N 
ATOM     38  C   GLU C   2      -3.828   1.148 -44.938  1.00 23.46 LIG 0.24  C 
ATOM     39 O    GLU C   2      -4.917   0.636 -45.174  1.00 23.95 LIG-0.27  OA
ATOM     40 H    ASP C   3      -2.796   2.788 -45.140  1.00 23.08 LIG 0.16  HD
BRANCH 38 41
ATOM     41  CA  GLU C   2      -2.769   0.402 -44.146  1.00 23.56 LIG 0.18  C 
BRANCH 41 42
ATOM     42  N   GLU C   2      -2.439   1.162 -42.931  1.00 23.07 LIG-0.35  N 
ATOM     43  C   THR C   1      -1.526   2.132 -42.957  1.00 23.69 LIG 0.24  C 
ATOM     44 O    THR C   1      -0.882   2.427 -43.961  1.00 24.29 LIG-0.27  OA
ATOM     45 H    GLU C   2      -2.878   0.927 -42.230  1.00 23.07 LIG 0.16  HD
BRANCH 43 46
ATOM     46  CA  THR C   1      -1.272   2.881 -41.660  1.00 23.89 LIG 0.20  C 
BRANCH 46 47
ATOM     47  CB  THR C   1      -2.211   4.098 -41.587  1.00 24.32 LIG 0.15  C 
ATOM     48  CG2 THR C   1      -3.651   3.647 -41.290  1.00 24.71 LIG 0.04  C 
BRANCH 47 49
ATOM     49 OG1  THR C   1      -1.771   4.979 -40.544  1.00 24.87 LIG-0.39  OA
ATOM     50 HG1  THR C   1      -2.157   5.721 -40.622  1.00 24.87 LIG 0.21  HD
ENDBRANCH 47 49
ENDBRANCH 46 47
BRANCH 46 51
ATOM     51  N   THR C   1       0.133   3.271 -41.622  1.00 24.03 LIG-0.35  N 
ATOM     52 H    THR C   1       0.425   3.611 -42.356  1.00 24.03 LIG 0.16  HD
ATOM     53  C   ACE C   0       0.881   3.108 -40.534  1.00 24.28 LIG 0.21  C 
ATOM     54 O    ACE C   0       0.443   2.613 -39.489  1.00 24.50 LIG-0.27  OA
ATOM     55  CH3 ACE C   0       2.215   3.784 -40.586  1.00 24.98 LIG 0.12  C 
ENDBRANCH 46 51
ENDBRANCH 43 46
ENDBRANCH 41 42
BRANCH 41 56
ATOM     56  CB  GLU C   2      -3.271  -1.013 -43.817  1.00 23.91 LIG 0.04  C 
BRANCH 56 57
ATOM     57  CG  GLU C   2      -3.508  -1.897 -45.029  1.00 27.13 LIG 0.12  C 
BRANCH 57 58
ATOM     58  CD  GLU C   2      -3.775  -3.349 -44.672  1.00 29.05 LIG 0.17  C 
ATOM     59 OE2  GLU C   2      -4.854  -3.855 -45.034  1.00 31.00 LIG-0.65  OA
ATOM     60 OE1  GLU C   2      -2.917  -3.982 -44.028  1.00 31.26 LIG-0.65  OA
ENDBRANCH 57 58
ENDBRANCH 56 57
ENDBRANCH 41 56
ENDBRANCH 38 41
ENDBRANCH 36 37
BRANCH 36 61
ATOM     61  CB  ASP C   3      -4.179   4.577 -46.146  1.00 24.55 LIG 0.15  C 
BRANCH 61 62
ATOM     62  CG  ASP C   3      -4.216   5.086 -44.714  1.00 28.69 LIG 0.17  C 
ATOM     63 OD2  ASP C   3      -3.141   5.165 -44.083  1.00 33.40 LIG-0.65  OA
ATOM     64 OD1  ASP C   3      -5.322   5.394 -44.214  1.00 33.84 LIG-0.65  OA
ENDBRANCH 61 62
ENDBRANCH 36 61
ENDBRANCH 1 36
TORSDOF 27
ENDMDL
MODEL 18
USER: ADFR SOLUTION from run 152
USER: SCORE 17.351648 LL:  -4.602 LR: -16.326 RR:   0.000 FEB:  -8.272
USER: RMSD 13.090221
USER: SEED 151
USER: STATUS 1 or 2 clusters left
USER: GENES 29
USER: genes 0 Translation |==|  0.60168 0.46705 0.58746
USER: genes 1 Rotation |==|  0.70285 0.71589 0.13063 0.66065
USER: genes 2 Torsion [C]-N--CA-[CB] |==|  0.38314
USER: genes 3 Torsion [N]-CA--CB-[CG2] |==|  0.06081
USER: genes 4 Torsion [N]-CA--C-[N] |==|  0.82278
USER: genes 5 Torsion [C]-N--CA-[C] |==|  0.63652
USER: genes 6 Torsion [N]-CA--CB-[CG2] |==|  0.29208
USER: genes 7 Torsion [N]-CA--C-[N] |==|  0.43325
USER: genes 8 Torsion [C]-N--CA-[CB] |==|  0.42410
USER: genes 9 Torsion [N]-CA--CB-[SG] |==|  0.49231
USER: genes 10 Torsion [CA]-CB--SG-[HG] |==|  0.03105
USER: genes 11 Torsion [N]-CA--C-[N] |==|  0.77415
USER: genes 12 Torsion [C]-N--CA-[C] |==|  0.14507
USER: genes 13 Torsion [N]-CA--CB-[SG] |==|  0.29816
USER: genes 14 Torsion [CA]-CB--SG-[HG] |==|  0.03040
USER: genes 15 Torsion [N]-CA--C-[OXT] |==|  0.05625
USER: genes 16 Torsion [N]-C--CA-[N] |==|  0.42099
USER: genes 17 Torsion [C]-CA--N-[C] |==|  0.80776
USER: genes 18 Torsion [N]-C--CA-[N] |==|  0.47222
USER: genes 19 Torsion [C]-CA--N-[C] |==|  0.75468
USER: genes 20 Torsion [N]-C--CA-[N] |==|  0.14574
USER: genes 21 Torsion [C]-CA--CB-[CG2] |==|  0.25109
USER: genes 22 Torsion [CA]-CB--OG1-[HG1] |==|  0.21433
USER: genes 23 Torsion [C]-CA--N-[C] |==|  0.14747
USER: genes 24 Torsion [C]-CA--CB-[CG] |==|  0.16296
USER: genes 25 Torsion [CA]-CB--CG-[CD] |==|  0.20384
USER: genes 26 Torsion [CB]-CG--CD-[OE2] |==|  0.23940
USER: genes 27 Torsion [C]-CA--CB-[CG] |==|  0.04742
USER: genes 28 Torsion [CA]-CB--CG-[OD2] |==|  0.23312
ROOT
ATOM      1  C   ASP C   3      -5.706  -0.065 -47.864  1.00 21.95 LIG 0.24  C 
ATOM      2 O    ASP C   3      -4.726  -0.774 -48.092  1.00 22.02 LIG-0.27  OA
ATOM      3  N   VAL C   4      -6.917  -0.526 -47.580  1.00 20.47 LIG-0.35  N 
ATOM      4 H    VAL C   4      -7.591  -0.019 -47.415  1.00 20.47 LIG 0.16  HD
ENDROOT
BRANCH 3 5
ATOM      5  CA  VAL C   4      -7.216  -1.953 -47.523  1.00 19.37 LIG 0.18  C 
BRANCH 5 6
ATOM      6  CB  VAL C   4      -8.123  -2.281 -46.318  1.00 19.50 LIG 0.01  C 
ATOM      7  CG2 VAL C   4      -8.881  -1.027 -45.860  1.00 18.97 LIG 0.01  C 
ATOM      8  CG1 VAL C   4      -7.307  -2.859 -45.177  1.00 20.24 LIG 0.01  C 
ENDBRANCH 5 6
BRANCH 5 9
ATOM      9  C   VAL C   4      -7.896  -2.318 -48.836  1.00 18.84 LIG 0.24  C 
ATOM     10  N   VAL C   5      -9.076  -1.748 -49.084  1.00 18.10 LIG-0.35  N 
ATOM     11 H    VAL C   5      -9.415  -1.136 -48.583  1.00 18.10 LIG 0.16  HD
ATOM     12 O    VAL C   4      -7.337  -3.097 -49.614  1.00 20.23 LIG-0.27  OA
BRANCH 10 13
ATOM     13  CA  VAL C   5      -9.913  -2.097 -50.224  1.00 17.69 LIG 0.18  C 
BRANCH 13 14
ATOM     14  CB  VAL C   5     -11.153  -2.906 -49.769  1.00 18.27 LIG 0.01  C 
ATOM     15  CG2 VAL C   5     -12.414  -1.995 -49.815  1.00 18.63 LIG 0.01  C 
ATOM     16  CG1 VAL C   5     -10.947  -3.500 -48.367  1.00 19.20 LIG 0.01  C 
ENDBRANCH 13 14
BRANCH 13 17
ATOM     17  C   VAL C   5     -10.349  -0.814 -50.940  1.00 17.55 LIG 0.24  C 
ATOM     18 O    VAL C   5     -10.368   0.272 -50.338  1.00 16.61 LIG-0.27  OA
ATOM     19  N   CYS C   6     -10.674  -0.951 -52.220  1.00 17.33 LIG-0.34  N 
ATOM     20 H    CYS C   6     -10.654  -1.703 -52.635  1.00 17.33 LIG 0.16  HD
BRANCH 19 21
ATOM     21  CA  CYS C   6     -11.102   0.175 -53.053  1.00 17.84 LIG 0.18  C 
BRANCH 21 22
ATOM     22  CB  CYS C   6     -10.766  -0.084 -54.517  1.00 18.00 LIG 0.10  C 
BRANCH 22 23
ATOM     23 SG   CYS C   6     -11.338   1.227 -55.595  1.00 23.34 LIG-0.18  SA
ATOM     24 HG   CYS C   6     -11.686   2.166 -54.934  1.00 23.34 LIG 0.10  HD
ENDBRANCH 22 23
ENDBRANCH 21 22
BRANCH 21 25
ATOM     25  C   CYS C   6     -12.592   0.391 -52.902  1.00 17.78 LIG 0.24  C 
ATOM     26 O    CYS C   6     -13.022   1.264 -52.148  1.00 18.30 LIG-0.27  OA
ATOM     27  N   CYS C   7     -13.388  -0.402 -53.624  1.00 17.97 LIG-0.34  N 
ATOM     28 H    CYS C   7     -13.108  -1.043 -54.126  1.00 17.97 LIG 0.16  HD
BRANCH 27 29
ATOM     29  CA  CYS C   7     -14.845  -0.225 -53.610  1.00 18.46 LIG 0.19  C 
BRANCH 29 30
ATOM     30  CB  CYS C   7     -15.391  -0.704 -52.271  1.00 18.37 LIG 0.11  C 
BRANCH 30 31
ATOM     31 SG   CYS C   7     -15.911   0.677 -51.221  1.00 21.24 LIG-0.18  SA
ATOM     32 HG   CYS C   7     -15.923   1.688 -51.866  1.00 21.24 LIG 0.10  HD
ENDBRANCH 30 31
ENDBRANCH 29 30
BRANCH 29 33
ATOM     33  C   CYS C   7     -15.284   1.211 -53.911  1.00 18.64 LIG 0.20  C 
ATOM     34 OXT  CYS C   7     -14.521   1.999 -54.493  1.00 18.72 LIG-0.65  OA
ATOM     35 O    CYS C   7     -16.431   1.595 -53.631  1.00 19.07 LIG-0.65  OA
ENDBRANCH 29 33
ENDBRANCH 27 29
ENDBRANCH 21 25
ENDBRANCH 19 21
ENDBRANCH 13 17
ENDBRANCH 10 13
ENDBRANCH 5 9
ENDBRANCH 3 5
BRANCH 1 36
ATOM     36  CA  ASP C   3      -5.578   1.434 -47.886  1.00 23.26 LIG 0.19  C 
BRANCH 36 37
ATOM     37  N   ASP C   3      -4.224   1.803 -47.536  1.00 23.08 LIG-0.35  N 
ATOM     38  C   GLU C   2      -3.792   1.615 -46.299  1.00 23.46 LIG 0.24  C 
ATOM     39 O    GLU C   2      -4.533   1.249 -45.394  1.00 23.95 LIG-0.27  OA
ATOM     40 H    ASP C   3      -3.757   2.137 -48.176  1.00 23.08 LIG 0.16  HD
BRANCH 38 41
ATOM     41  CA  GLU C   2      -2.318   1.876 -46.044  1.00 23.56 LIG 0.18  C 
BRANCH 41 42
ATOM     42  N   GLU C   2      -2.059   1.856 -44.597  1.00 23.07 LIG-0.35  N 
ATOM     43  C   THR C   1      -2.179   2.962 -43.864  1.00 23.69 LIG 0.24  C 
ATOM     44 O    THR C   1      -2.468   4.058 -44.337  1.00 24.29 LIG-0.27  OA
ATOM     45 H    GLU C   2      -1.832   1.088 -44.283  1.00 23.07 LIG 0.16  HD
BRANCH 43 46
ATOM     46  CA  THR C   1      -1.919   2.837 -42.372  1.00 23.89 LIG 0.20  C 
BRANCH 46 47
ATOM     47  CB  THR C   1      -1.976   4.235 -41.731  1.00 24.32 LIG 0.15  C 
ATOM     48  CG2 THR C   1      -3.408   4.552 -41.265  1.00 24.71 LIG 0.04  C 
BRANCH 47 49
ATOM     49 OG1  THR C   1      -1.095   4.279 -40.600  1.00 24.87 LIG-0.39  OA
ATOM     50 HG1  THR C   1      -0.301   4.354 -40.866  1.00 24.87 LIG 0.21  HD
ENDBRANCH 47 49
ENDBRANCH 46 47
BRANCH 46 51
ATOM     51  N   THR C   1      -0.618   2.203 -42.184  1.00 24.03 LIG-0.35  N 
ATOM     52 H    THR C   1      -0.633   1.513 -41.670  1.00 24.03 LIG 0.16  HD
ATOM     53  C   ACE C   0       0.484   2.667 -42.766  1.00 24.28 LIG 0.21  C 
ATOM     54 O    ACE C   0       0.484   3.665 -43.498  1.00 24.50 LIG-0.27  OA
ATOM     55  CH3 ACE C   0       1.671   1.762 -42.669  1.00 24.98 LIG 0.12  C 
ENDBRANCH 46 51
ENDBRANCH 43 46
ENDBRANCH 41 42
BRANCH 41 56
ATOM     56  CB  GLU C   2      -1.472   0.834 -46.791  1.00 23.91 LIG 0.04  C 
BRANCH 56 57
ATOM     57  CG  GLU C   2      -1.685   0.808 -48.295  1.00 27.13 LIG 0.12  C 
BRANCH 57 58
ATOM     58  CD  GLU C   2      -1.062   1.993 -49.012  1.00 29.05 LIG 0.17  C 
ATOM     59 OE2  GLU C   2       0.134   1.916 -49.349  1.00 31.00 LIG-0.65  OA
ATOM     60 OE1  GLU C   2      -1.761   3.000 -49.236  1.00 31.26 LIG-0.65  OA
ENDBRANCH 57 58
ENDBRANCH 56 57
ENDBRANCH 41 56
ENDBRANCH 38 41
ENDBRANCH 36 37
BRANCH 36 61
ATOM     61  CB  ASP C   3      -5.947   1.980 -49.258  1.00 24.55 LIG 0.15  C 
BRANCH 61 62
ATOM     62  CG  ASP C   3      -6.725   0.976 -50.095  1.00 28.69 LIG 0.17  C 
ATOM     63 OD2  ASP C   3      -7.960   0.892 -49.930  1.00 33.40 LIG-0.65  OA
ATOM     64 OD1  ASP C   3      -6.098   0.259 -50.908  1.00 33.84 LIG-0.65  OA
ENDBRANCH 61 62
ENDBRANCH 36 61
ENDBRANCH 1 36
TORSDOF 27
ENDMDL
MODEL 19
USER: ADFR SOLUTION from run 200
USER: SCORE 19.241183 LL:  -4.819 LR: -16.313 RR:   0.000 FEB:  -8.259
USER: RMSD 14.139447
USER: SEED 199
USER: STATUS searching
USER: GENES 29
USER: genes 0 Translation |==|  0.73829 0.59106 0.54021
USER: genes 1 Rotation |==|  0.49473 0.98797 0.51104 0.60832
USER: genes 2 Torsion [C]-N--CA-[CB] |==|  0.47849
USER: genes 3 Torsion [N]-CA--CB-[CG2] |==|  0.52841
USER: genes 4 Torsion [N]-CA--C-[N] |==|  0.46152
USER: genes 5 Torsion [C]-N--CA-[C] |==|  0.82225
USER: genes 6 Torsion [N]-CA--CB-[CG2] |==|  0.71154
USER: genes 7 Torsion [N]-CA--C-[N] |==|  0.87636
USER: genes 8 Torsion [C]-N--CA-[CB] |==|  0.81111
USER: genes 9 Torsion [N]-CA--CB-[SG] |==|  0.42913
USER: genes 10 Torsion [CA]-CB--SG-[HG] |==|  0.78150
USER: genes 11 Torsion [N]-CA--C-[N] |==|  0.21570
USER: genes 12 Torsion [C]-N--CA-[C] |==|  0.80711
USER: genes 13 Torsion [N]-CA--CB-[SG] |==|  0.41527
USER: genes 14 Torsion [CA]-CB--SG-[HG] |==|  0.99065
USER: genes 15 Torsion [N]-CA--C-[OXT] |==|  0.51998
USER: genes 16 Torsion [N]-C--CA-[N] |==|  0.37230
USER: genes 17 Torsion [C]-CA--N-[C] |==|  0.72010
USER: genes 18 Torsion [N]-C--CA-[N] |==|  0.21243
USER: genes 19 Torsion [C]-CA--N-[C] |==|  0.78330
USER: genes 20 Torsion [N]-C--CA-[N] |==|  0.09420
USER: genes 21 Torsion [C]-CA--CB-[CG2] |==|  0.26764
USER: genes 22 Torsion [CA]-CB--OG1-[HG1] |==|  0.47529
USER: genes 23 Torsion [C]-CA--N-[C] |==|  0.17578
USER: genes 24 Torsion [C]-CA--CB-[CG] |==|  0.18321
USER: genes 25 Torsion [CA]-CB--CG-[CD] |==|  0.07600
USER: genes 26 Torsion [CB]-CG--CD-[OE2] |==|  0.70903
USER: genes 27 Torsion [C]-CA--CB-[CG] |==|  0.69089
USER: genes 28 Torsion [CA]-CB--CG-[OD2] |==|  0.19908
ROOT
ATOM      1  C   ASP C   3      -2.427   1.981 -49.175  1.00 21.95 LIG 0.24  C 
ATOM      2 O    ASP C   3      -2.204   3.187 -49.288  1.00 22.02 LIG-0.27  OA
ATOM      3  N   VAL C   4      -2.360   1.109 -50.172  1.00 20.47 LIG-0.35  N 
ATOM      4 H    VAL C   4      -2.510   0.268 -50.077  1.00 20.47 LIG 0.16  HD
ENDROOT
BRANCH 3 5
ATOM      5  CA  VAL C   4      -2.022   1.504 -51.535  1.00 19.37 LIG 0.18  C 
BRANCH 5 6
ATOM      6  CB  VAL C   4      -1.830   0.268 -52.439  1.00 19.50 LIG 0.01  C 
ATOM      7  CG2 VAL C   4      -1.231   0.680 -53.792  1.00 18.97 LIG 0.01  C 
ATOM      8  CG1 VAL C   4      -3.147  -0.458 -52.637  1.00 20.24 LIG 0.01  C 
ENDBRANCH 5 6
BRANCH 5 9
ATOM      9  C   VAL C   4      -3.161   2.380 -52.040  1.00 18.84 LIG 0.24  C 
ATOM     10  N   VAL C   5      -2.937   3.082 -53.151  1.00 18.10 LIG-0.35  N 
ATOM     11 H    VAL C   5      -2.223   2.996 -53.624  1.00 18.10 LIG 0.16  HD
ATOM     12 O    VAL C   4      -4.233   2.394 -51.427  1.00 20.23 LIG-0.27  OA
BRANCH 10 13
ATOM     13  CA  VAL C   5      -3.871   4.067 -53.682  1.00 17.69 LIG 0.18  C 
BRANCH 13 14
ATOM     14  CB  VAL C   5      -3.258   4.807 -54.897  1.00 18.27 LIG 0.01  C 
ATOM     15  CG2 VAL C   5      -2.804   6.231 -54.462  1.00 18.63 LIG 0.01  C 
ATOM     16  CG1 VAL C   5      -4.251   4.873 -56.068  1.00 19.20 LIG 0.01  C 
ENDBRANCH 13 14
BRANCH 13 17
ATOM     17  C   VAL C   5      -5.169   3.362 -54.088  1.00 17.55 LIG 0.24  C 
ATOM     18 O    VAL C   5      -6.273   3.857 -53.808  1.00 16.61 LIG-0.27  OA
ATOM     19  N   CYS C   6      -5.021   2.227 -54.761  1.00 17.33 LIG-0.34  N 
ATOM     20 H    CYS C   6      -4.255   1.891 -54.959  1.00 17.33 LIG 0.16  HD
BRANCH 19 21
ATOM     21  CA  CYS C   6      -6.158   1.433 -55.233  1.00 17.84 LIG 0.18  C 
BRANCH 21 22
ATOM     22  CB  CYS C   6      -6.912   0.825 -54.057  1.00 18.00 LIG 0.10  C 
BRANCH 22 23
ATOM     23 SG   CYS C   6      -8.629   0.487 -54.441  1.00 23.34 LIG-0.18  SA
ATOM     24 HG   CYS C   6      -9.260   1.507 -54.386  1.00 23.34 LIG 0.10  HD
ENDBRANCH 22 23
ENDBRANCH 21 22
BRANCH 21 25
ATOM     25  C   CYS C   6      -7.093   2.305 -56.043  1.00 17.78 LIG 0.24  C 
ATOM     26 O    CYS C   6      -8.137   2.728 -55.545  1.00 18.30 LIG-0.27  OA
ATOM     27  N   CYS C   7      -6.719   2.582 -57.295  1.00 17.97 LIG-0.34  N 
ATOM     28 H    CYS C   7      -6.015   2.264 -57.673  1.00 17.97 LIG 0.16  HD
BRANCH 27 29
ATOM     29  CA  CYS C   7      -7.516   3.481 -58.139  1.00 18.46 LIG 0.19  C 
BRANCH 29 30
ATOM     30  CB  CYS C   7      -6.689   3.887 -59.351  1.00 18.37 LIG 0.11  C 
BRANCH 30 31
ATOM     31 SG   CYS C   7      -7.729   4.200 -60.802  1.00 21.24 LIG-0.18  SA
ATOM     32 HG   CYS C   7      -8.873   3.960 -60.535  1.00 21.24 LIG 0.10  HD
ENDBRANCH 30 31
ENDBRANCH 29 30
BRANCH 29 33
ATOM     33  C   CYS C   7      -8.864   2.886 -58.554  1.00 18.64 LIG 0.20  C 
ATOM     34 OXT  CYS C   7      -9.591   3.469 -59.374  1.00 18.72 LIG-0.65  OA
ATOM     35 O    CYS C   7      -9.229   1.780 -58.120  1.00 19.07 LIG-0.65  OA
ENDBRANCH 29 33
ENDBRANCH 27 29
ENDBRANCH 21 25
ENDBRANCH 19 21
ENDBRANCH 13 17
ENDBRANCH 10 13
ENDBRANCH 5 9
ENDBRANCH 3 5
BRANCH 1 36
ATOM     36  CA  ASP C   3      -2.796   1.401 -47.838  1.00 23.26 LIG 0.19  C 
BRANCH 36 37
ATOM     37  N   ASP C   3      -1.906   1.929 -46.827  1.00 23.08 LIG-0.35  N 
ATOM     38  C   GLU C   2      -0.893   1.195 -46.395  1.00 23.46 LIG 0.24  C 
ATOM     39 O    GLU C   2      -0.742   0.025 -46.730  1.00 23.95 LIG-0.27  OA
ATOM     40 H    ASP C   3      -2.091   2.723 -46.551  1.00 23.08 LIG 0.16  HD
BRANCH 38 41
ATOM     41  CA  GLU C   2       0.089   1.870 -45.454  1.00 23.56 LIG 0.18  C 
BRANCH 41 42
ATOM     42  N   GLU C   2      -0.504   1.965 -44.112  1.00 23.07 LIG-0.35  N 
ATOM     43  C   THR C   1      -1.412   2.899 -43.829  1.00 23.69 LIG 0.24  C 
ATOM     44 O    THR C   1      -1.779   3.751 -44.635  1.00 24.29 LIG-0.27  OA
ATOM     45 H    GLU C   2      -0.218   1.380 -43.550  1.00 23.07 LIG 0.16  HD
BRANCH 43 46
ATOM     46  CA  THR C   1      -1.989   2.903 -42.423  1.00 23.89 LIG 0.20  C 
BRANCH 46 47
ATOM     47  CB  THR C   1      -2.510   4.312 -42.095  1.00 24.32 LIG 0.15  C 
ATOM     48  CG2 THR C   1      -4.022   4.399 -42.363  1.00 24.71 LIG 0.04  C 
BRANCH 47 49
ATOM     49 OG1  THR C   1      -2.261   4.604 -40.713  1.00 24.87 LIG-0.39  OA
ATOM     50 HG1  THR C   1      -2.433   5.413 -40.562  1.00 24.87 LIG 0.21  HD
ENDBRANCH 47 49
ENDBRANCH 46 47
BRANCH 46 51
ATOM     51  N   THR C   1      -0.945   2.476 -41.497  1.00 24.03 LIG-0.35  N 
ATOM     52 H    THR C   1      -1.118   1.742 -41.084  1.00 24.03 LIG 0.16  HD
ATOM     53  C   ACE C   0       0.171   3.178 -41.320  1.00 24.28 LIG 0.21  C 
ATOM     54 O    ACE C   0       0.398   4.236 -41.921  1.00 24.50 LIG-0.27  OA
ATOM     55  CH3 ACE C   0       1.232   2.477 -40.532  1.00 24.98 LIG 0.12  C 
ENDBRANCH 46 51
ENDBRANCH 43 46
ENDBRANCH 41 42
BRANCH 41 56
ATOM     56  CB  GLU C   2       1.412   1.090 -45.441  1.00 23.91 LIG 0.04  C 
BRANCH 56 57
ATOM     57  CG  GLU C   2       2.170   1.109 -46.757  1.00 27.13 LIG 0.12  C 
BRANCH 57 58
ATOM     58  CD  GLU C   2       1.891   2.343 -47.596  1.00 29.05 LIG 0.17  C 
ATOM     59 OE2  GLU C   2       1.150   2.225 -48.589  1.00 31.00 LIG-0.65  OA
ATOM     60 OE1  GLU C   2       2.411   3.427 -47.270  1.00 31.26 LIG-0.65  OA
ENDBRANCH 57 58
ENDBRANCH 56 57
ENDBRANCH 41 56
ENDBRANCH 38 41
ENDBRANCH 36 37
BRANCH 36 61
ATOM     61  CB  ASP C   3      -4.245   1.721 -47.499  1.00 24.55 LIG 0.15  C 
BRANCH 61 62
ATOM     62  CG  ASP C   3      -4.370   2.700 -46.342  1.00 28.69 LIG 0.17  C 
ATOM     63 OD2  ASP C   3      -4.057   3.893 -46.536  1.00 33.40 LIG-0.65  OA
ATOM     64 OD1  ASP C   3      -4.769   2.274 -45.234  1.00 33.84 LIG-0.65  OA
ENDBRANCH 61 62
ENDBRANCH 36 61
ENDBRANCH 1 36
TORSDOF 27
ENDMDL
MODEL 20
USER: ADFR SOLUTION from run 167
USER: SCORE 18.338012 LL:  -5.020 LR: -16.263 RR:   0.000 FEB:  -8.209
USER: RMSD 12.640756
USER: SEED 166
USER: STATUS no improvement in best in 6 clusters for 5 generations
USER: GENES 29
USER: genes 0 Translation |==|  0.69458 0.64249 0.73723
USER: genes 1 Rotation |==|  0.69741 0.06278 0.42348 0.61838
USER: genes 2 Torsion [C]-N--CA-[CB] |==|  0.25172
USER: genes 3 Torsion [N]-CA--CB-[CG2] |==|  0.87620
USER: genes 4 Torsion [N]-CA--C-[N] |==|  0.35717
USER: genes 5 Torsion [C]-N--CA-[C] |==|  0.82141
USER: genes 6 Torsion [N]-CA--CB-[CG2] |==|  0.61406
USER: genes 7 Torsion [N]-CA--C-[N] |==|  0.90716
USER: genes 8 Torsion [C]-N--CA-[CB] |==|  0.22220
USER: genes 9 Torsion [N]-CA--CB-[SG] |==|  0.16990
USER: genes 10 Torsion [CA]-CB--SG-[HG] |==|  0.21645
USER: genes 11 Torsion [N]-CA--C-[N] |==|  0.48599
USER: genes 12 Torsion [C]-N--CA-[C] |==|  0.70337
USER: genes 13 Torsion [N]-CA--CB-[SG] |==|  0.79112
USER: genes 14 Torsion [CA]-CB--SG-[HG] |==|  0.95455
USER: genes 15 Torsion [N]-CA--C-[OXT] |==|  0.39371
USER: genes 16 Torsion [N]-C--CA-[N] |==|  0.00001
USER: genes 17 Torsion [C]-CA--N-[C] |==|  0.20506
USER: genes 18 Torsion [N]-C--CA-[N] |==|  0.12587
USER: genes 19 Torsion [C]-CA--N-[C] |==|  0.64245
USER: genes 20 Torsion [N]-C--CA-[N] |==|  0.45747
USER: genes 21 Torsion [C]-CA--CB-[CG2] |==|  0.27530
USER: genes 22 Torsion [CA]-CB--OG1-[HG1] |==|  0.41870
USER: genes 23 Torsion [C]-CA--N-[C] |==|  0.79678
USER: genes 24 Torsion [C]-CA--CB-[CG] |==|  0.82579
USER: genes 25 Torsion [CA]-CB--CG-[CD] |==|  0.40360
USER: genes 26 Torsion [CB]-CG--CD-[OE2] |==|  0.07629
USER: genes 27 Torsion [C]-CA--CB-[CG] |==|  0.36620
USER: genes 28 Torsion [CA]-CB--CG-[OD2] |==|  0.79031
ROOT
ATOM      1  C   ASP C   3      -3.476   2.830 -43.708  1.00 21.95 LIG 0.24  C 
ATOM      2 O    ASP C   3      -4.253   3.743 -43.428  1.00 22.02 LIG-0.27  OA
ATOM      3  N   VAL C   4      -3.602   2.034 -44.761  1.00 20.47 LIG-0.35  N 
ATOM      4 H    VAL C   4      -3.047   1.405 -44.950  1.00 20.47 LIG 0.16  HD
ENDROOT
BRANCH 3 5
ATOM      5  CA  VAL C   4      -4.707   2.157 -45.706  1.00 19.37 LIG 0.18  C 
BRANCH 5 6
ATOM      6  CB  VAL C   4      -4.344   3.112 -46.862  1.00 19.50 LIG 0.01  C 
ATOM      7  CG2 VAL C   4      -3.659   4.375 -46.320  1.00 18.97 LIG 0.01  C 
ATOM      8  CG1 VAL C   4      -5.580   3.477 -47.662  1.00 20.24 LIG 0.01  C 
ENDBRANCH 5 6
BRANCH 5 9
ATOM      9  C   VAL C   4      -5.004   0.756 -46.227  1.00 18.84 LIG 0.24  C 
ATOM     10  N   VAL C   5      -6.271   0.345 -46.166  1.00 18.10 LIG-0.35  N 
ATOM     11 H    VAL C   5      -6.919   0.858 -45.928  1.00 18.10 LIG 0.16  HD
ATOM     12 O    VAL C   4      -4.085   0.074 -46.692  1.00 20.23 LIG-0.27  OA
BRANCH 10 13
ATOM     13  CA  VAL C   5      -6.692  -1.011 -46.494  1.00 17.69 LIG 0.18  C 
BRANCH 13 14
ATOM     14  CB  VAL C   5      -8.196  -1.210 -46.181  1.00 18.27 LIG 0.01  C 
ATOM     15  CG2 VAL C   5      -8.411  -2.610 -45.534  1.00 18.63 LIG 0.01  C 
ATOM     16  CG1 VAL C   5      -9.056  -1.043 -47.443  1.00 19.20 LIG 0.01  C 
ENDBRANCH 13 14
BRANCH 13 17
ATOM     17  C   VAL C   5      -6.418  -1.279 -47.977  1.00 17.55 LIG 0.24  C 
ATOM     18 O    VAL C   5      -6.115  -2.418 -48.370  1.00 16.61 LIG-0.27  OA
ATOM     19  N   CYS C   6      -6.548  -0.234 -48.785  1.00 17.33 LIG-0.34  N 
ATOM     20 H    CYS C   6      -6.764   0.552 -48.510  1.00 17.33 LIG 0.16  HD
BRANCH 19 21
ATOM     21  CA  CYS C   6      -6.333  -0.319 -50.231  1.00 17.84 LIG 0.18  C 
BRANCH 21 22
ATOM     22  CB  CYS C   6      -7.560  -0.902 -50.921  1.00 18.00 LIG 0.10  C 
BRANCH 22 23
ATOM     23 SG   CYS C   6      -9.024   0.104 -50.686  1.00 23.34 LIG-0.18  SA
ATOM     24 HG   CYS C   6      -8.980   1.052 -51.420  1.00 23.34 LIG 0.10  HD
ENDBRANCH 22 23
ENDBRANCH 21 22
BRANCH 21 25
ATOM     25  C   CYS C   6      -6.039   1.057 -50.789  1.00 17.78 LIG 0.24  C 
ATOM     26 O    CYS C   6      -6.095   2.049 -50.061  1.00 18.30 LIG-0.27  OA
ATOM     27  N   CYS C   7      -5.718   1.122 -52.084  1.00 17.97 LIG-0.34  N 
ATOM     28 H    CYS C   7      -5.713   0.446 -52.617  1.00 17.97 LIG 0.16  HD
BRANCH 27 29
ATOM     29  CA  CYS C   7      -5.341   2.397 -52.705  1.00 18.46 LIG 0.19  C 
BRANCH 29 30
ATOM     30  CB  CYS C   7      -4.020   2.219 -53.442  1.00 18.37 LIG 0.11  C 
BRANCH 30 31
ATOM     31 SG   CYS C   7      -2.615   2.146 -52.301  1.00 21.24 LIG-0.18  SA
ATOM     32 HG   CYS C   7      -2.949   2.565 -51.227  1.00 21.24 LIG 0.10  HD
ENDBRANCH 30 31
ENDBRANCH 29 30
BRANCH 29 33
ATOM     33  C   CYS C   7      -6.424   2.966 -53.626  1.00 18.64 LIG 0.20  C 
ATOM     34 OXT  CYS C   7      -6.646   4.187 -53.666  1.00 18.72 LIG-0.65  OA
ATOM     35 O    CYS C   7      -7.061   2.223 -54.391  1.00 19.07 LIG-0.65  OA
ENDBRANCH 29 33
ENDBRANCH 27 29
ENDBRANCH 21 25
ENDBRANCH 19 21
ENDBRANCH 13 17
ENDBRANCH 10 13
ENDBRANCH 5 9
ENDBRANCH 3 5
BRANCH 1 36
ATOM     36  CA  ASP C   3      -2.281   2.558 -42.837  1.00 23.26 LIG 0.19  C 
BRANCH 36 37
ATOM     37  N   ASP C   3      -1.532   1.449 -43.386  1.00 23.08 LIG-0.35  N 
ATOM     38  C   GLU C   2      -0.804   1.625 -44.478  1.00 23.46 LIG 0.24  C 
ATOM     39 O    GLU C   2      -0.831   2.668 -45.122  1.00 23.95 LIG-0.27  OA
ATOM     40 H    ASP C   3      -1.604   0.708 -42.956  1.00 23.08 LIG 0.16  HD
BRANCH 38 41
ATOM     41  CA  GLU C   2       0.077   0.464 -44.905  1.00 23.56 LIG 0.18  C 
BRANCH 41 42
ATOM     42  N   GLU C   2      -0.690  -0.787 -44.830  1.00 23.07 LIG-0.35  N 
ATOM     43  C   THR C   1      -0.212  -1.846 -44.176  1.00 23.69 LIG 0.24  C 
ATOM     44 O    THR C   1       0.892  -1.865 -43.638  1.00 24.29 LIG-0.27  OA
ATOM     45 H    GLU C   2      -1.449  -0.769 -45.234  1.00 23.07 LIG 0.16  HD
BRANCH 43 46
ATOM     46  CA  THR C   1      -1.088  -3.087 -44.129  1.00 23.89 LIG 0.20  C 
BRANCH 46 47
ATOM     47  CB  THR C   1      -2.262  -2.839 -43.166  1.00 24.32 LIG 0.15  C 
ATOM     48  CG2 THR C   1      -3.527  -2.455 -43.952  1.00 24.71 LIG 0.04  C 
BRANCH 47 49
ATOM     49 OG1  THR C   1      -2.521  -4.032 -42.413  1.00 24.87 LIG-0.39  OA
ATOM     50 HG1  THR C   1      -2.838  -3.826 -41.662  1.00 24.87 LIG 0.21  HD
ENDBRANCH 47 49
ENDBRANCH 46 47
BRANCH 46 51
ATOM     51  N   THR C   1      -0.264  -4.215 -43.709  1.00 24.03 LIG-0.35  N 
ATOM     52 H    THR C   1      -0.412  -4.480 -42.904  1.00 24.03 LIG 0.16  HD
ATOM     53  C   ACE C   0       0.634  -4.772 -44.516  1.00 24.28 LIG 0.21  C 
ATOM     54 O    ACE C   0       0.835  -4.372 -45.670  1.00 24.50 LIG-0.27  OA
ATOM     55  CH3 ACE C   0       1.207  -6.062 -44.019  1.00 24.98 LIG 0.12  C 
ENDBRANCH 46 51
ENDBRANCH 43 46
ENDBRANCH 41 42
BRANCH 41 56
ATOM     56  CB  GLU C   2       0.617   0.720 -46.321  1.00 23.91 LIG 0.04  C 
BRANCH 56 57
ATOM     57  CG  GLU C   2      -0.450   0.809 -47.398  1.00 27.13 LIG 0.12  C 
BRANCH 57 58
ATOM     58  CD  GLU C   2      -0.118   1.806 -48.494  1.00 29.05 LIG 0.17  C 
ATOM     59 OE2  GLU C   2       1.082   2.041 -48.732  1.00 31.00 LIG-0.65  OA
ATOM     60 OE1  GLU C   2      -1.048   2.357 -49.113  1.00 31.26 LIG-0.65  OA
ENDBRANCH 57 58
ENDBRANCH 56 57
ENDBRANCH 41 56
ENDBRANCH 38 41
ENDBRANCH 36 37
BRANCH 36 61
ATOM     61  CB  ASP C   3      -1.405   3.800 -42.731  1.00 24.55 LIG 0.15  C 
BRANCH 61 62
ATOM     62  CG  ASP C   3      -1.018   4.118 -41.295  1.00 28.69 LIG 0.17  C 
ATOM     63 OD2  ASP C   3      -1.878   4.629 -40.546  1.00 33.40 LIG-0.65  OA
ATOM     64 OD1  ASP C   3       0.150   3.871 -40.919  1.00 33.84 LIG-0.65  OA
ENDBRANCH 61 62
ENDBRANCH 36 61
ENDBRANCH 1 36
TORSDOF 27
ENDMDL
MODEL 21
USER: ADFR SOLUTION from run 41
USER: SCORE 18.561414 LL:  -4.622 LR: -16.223 RR:   0.000 FEB:  -8.169
USER: RMSD 13.464351
USER: SEED 40
USER: STATUS 1 or 2 clusters left
USER: GENES 29
USER: genes 0 Translation |==|  0.68748 0.54411 0.60964
USER: genes 1 Rotation |==|  0.21214 0.23323 0.55025 0.80569
USER: genes 2 Torsion [C]-N--CA-[CB] |==|  0.76458
USER: genes 3 Torsion [N]-CA--CB-[CG2] |==|  0.14515
USER: genes 4 Torsion [N]-CA--C-[N] |==|  0.19280
USER: genes 5 Torsion [C]-N--CA-[C] |==|  0.54684
USER: genes 6 Torsion [N]-CA--CB-[CG2] |==|  0.61785
USER: genes 7 Torsion [N]-CA--C-[N] |==|  0.43927
USER: genes 8 Torsion [C]-N--CA-[CB] |==|  0.21298
USER: genes 9 Torsion [N]-CA--CB-[SG] |==|  0.32096
USER: genes 10 Torsion [CA]-CB--SG-[HG] |==|  0.73832
USER: genes 11 Torsion [N]-CA--C-[N] |==|  0.88333
USER: genes 12 Torsion [C]-N--CA-[C] |==|  0.56597
USER: genes 13 Torsion [N]-CA--CB-[SG] |==|  0.76169
USER: genes 14 Torsion [CA]-CB--SG-[HG] |==|  0.51927
USER: genes 15 Torsion [N]-CA--C-[OXT] |==|  0.46931
USER: genes 16 Torsion [N]-C--CA-[N] |==|  0.75577
USER: genes 17 Torsion [C]-CA--N-[C] |==|  0.82422
USER: genes 18 Torsion [N]-C--CA-[N] |==|  0.94888
USER: genes 19 Torsion [C]-CA--N-[C] |==|  0.79947
USER: genes 20 Torsion [N]-C--CA-[N] |==|  0.09299
USER: genes 21 Torsion [C]-CA--CB-[CG2] |==|  0.29945
USER: genes 22 Torsion [CA]-CB--OG1-[HG1] |==|  0.48757
USER: genes 23 Torsion [C]-CA--N-[C] |==|  0.16865
USER: genes 24 Torsion [C]-CA--CB-[CG] |==|  0.20615
USER: genes 25 Torsion [CA]-CB--CG-[CD] |==|  0.09853
USER: genes 26 Torsion [CB]-CG--CD-[OE2] |==|  0.11349
USER: genes 27 Torsion [C]-CA--CB-[CG] |==|  0.18897
USER: genes 28 Torsion [CA]-CB--CG-[OD2] |==|  0.02551
ROOT
ATOM      1  C   ASP C   3      -3.646   1.207 -47.248  1.00 21.95 LIG 0.24  C 
ATOM      2 O    ASP C   3      -3.324   1.613 -48.365  1.00 22.02 LIG-0.27  OA
ATOM      3  N   VAL C   4      -4.625   1.722 -46.516  1.00 20.47 LIG-0.35  N 
ATOM      4 H    VAL C   4      -4.846   1.423 -45.741  1.00 20.47 LIG 0.16  HD
ENDROOT
BRANCH 3 5
ATOM      5  CA  VAL C   4      -5.425   2.856 -46.967  1.00 19.37 LIG 0.18  C 
BRANCH 5 6
ATOM      6  CB  VAL C   4      -4.727   4.192 -46.637  1.00 19.50 LIG 0.01  C 
ATOM      7  CG2 VAL C   4      -3.285   4.189 -47.166  1.00 18.97 LIG 0.01  C 
ATOM      8  CG1 VAL C   4      -4.747   4.451 -45.143  1.00 20.24 LIG 0.01  C 
ENDBRANCH 5 6
BRANCH 5 9
ATOM      9  C   VAL C   4      -5.618   2.695 -48.469  1.00 18.84 LIG 0.24  C 
ATOM     10  N   VAL C   5      -6.400   1.695 -48.874  1.00 18.10 LIG-0.35  N 
ATOM     11 H    VAL C   5      -6.853   1.205 -48.331  1.00 18.10 LIG 0.16  HD
ATOM     12 O    VAL C   4      -5.069   3.489 -49.240  1.00 20.23 LIG-0.27  OA
BRANCH 10 13
ATOM     13  CA  VAL C   5      -6.573   1.325 -50.273  1.00 17.69 LIG 0.18  C 
BRANCH 13 14
ATOM     14  CB  VAL C   5      -5.326   0.571 -50.801  1.00 18.27 LIG 0.01  C 
ATOM     15  CG2 VAL C   5      -4.974   1.086 -52.226  1.00 18.63 LIG 0.01  C 
ATOM     16  CG1 VAL C   5      -5.551  -0.949 -50.797  1.00 19.20 LIG 0.01  C 
ENDBRANCH 13 14
BRANCH 13 17
ATOM     17  C   VAL C   5      -7.822   0.449 -50.413  1.00 17.55 LIG 0.24  C 
ATOM     18 O    VAL C   5      -8.286  -0.154 -49.430  1.00 16.61 LIG-0.27  OA
ATOM     19  N   CYS C   6      -8.364   0.407 -51.624  1.00 17.33 LIG-0.34  N 
ATOM     20 H    CYS C   6      -8.044   0.831 -52.300  1.00 17.33 LIG 0.16  HD
BRANCH 19 21
ATOM     21  CA  CYS C   6      -9.566  -0.372 -51.927  1.00 17.84 LIG 0.18  C 
BRANCH 21 22
ATOM     22  CB  CYS C   6     -10.810   0.340 -51.409  1.00 18.00 LIG 0.10  C 
BRANCH 22 23
ATOM     23 SG   CYS C   6     -11.912   0.844 -52.728  1.00 23.34 LIG-0.18  SA
ATOM     24 HG   CYS C   6     -11.673   1.979 -53.038  1.00 23.34 LIG 0.10  HD
ENDBRANCH 22 23
ENDBRANCH 21 22
BRANCH 21 25
ATOM     25  C   CYS C   6      -9.682  -0.580 -53.421  1.00 17.78 LIG 0.24  C 
ATOM     26 O    CYS C   6     -10.027  -1.672 -53.874  1.00 18.30 LIG-0.27  OA
ATOM     27  N   CYS C   7      -9.400   0.472 -54.196  1.00 17.97 LIG-0.34  N 
ATOM     28 H    CYS C   7      -9.120   1.230 -53.900  1.00 17.97 LIG 0.16  HD
BRANCH 27 29
ATOM     29  CA  CYS C   7      -9.556   0.399 -55.653  1.00 18.46 LIG 0.19  C 
BRANCH 29 30
ATOM     30  CB  CYS C   7     -11.028   0.561 -56.005  1.00 18.37 LIG 0.11  C 
BRANCH 30 31
ATOM     31 SG   CYS C   7     -11.915  -1.018 -55.936  1.00 21.24 LIG-0.18  SA
ATOM     32 HG   CYS C   7     -13.031  -0.868 -56.349  1.00 21.24 LIG 0.10  HD
ENDBRANCH 30 31
ENDBRANCH 29 30
BRANCH 29 33
ATOM     33  C   CYS C   7      -8.686   1.410 -56.406  1.00 18.64 LIG 0.20  C 
ATOM     34 OXT  CYS C   7      -8.551   1.339 -57.638  1.00 18.72 LIG-0.65  OA
ATOM     35 O    CYS C   7      -8.146   2.354 -55.804  1.00 19.07 LIG-0.65  OA
ENDBRANCH 29 33
ENDBRANCH 27 29
ENDBRANCH 21 25
ENDBRANCH 19 21
ENDBRANCH 13 17
ENDBRANCH 10 13
ENDBRANCH 5 9
ENDBRANCH 3 5
BRANCH 1 36
ATOM     36  CA  ASP C   3      -2.923   0.045 -46.627  1.00 23.26 LIG 0.19  C 
BRANCH 36 37
ATOM     37  N   ASP C   3      -1.836   0.541 -45.811  1.00 23.08 LIG-0.35  N 
ATOM     38  C   GLU C   2      -0.842   1.208 -46.376  1.00 23.46 LIG 0.24  C 
ATOM     39 O    GLU C   2      -0.739   1.324 -47.592  1.00 23.95 LIG-0.27  OA
ATOM     40 H    ASP C   3      -1.898   0.367 -44.971  1.00 23.08 LIG 0.16  HD
BRANCH 38 41
ATOM     41  CA  GLU C   2       0.179   1.833 -45.442  1.00 23.56 LIG 0.18  C 
BRANCH 41 42
ATOM     42  N   GLU C   2      -0.390   1.932 -44.090  1.00 23.07 LIG-0.35  N 
ATOM     43  C   THR C   1      -1.341   2.823 -43.810  1.00 23.69 LIG 0.24  C 
ATOM     44 O    THR C   1      -1.773   3.630 -44.629  1.00 24.29 LIG-0.27  OA
ATOM     45 H    GLU C   2      -0.060   1.380 -43.519  1.00 23.07 LIG 0.16  HD
BRANCH 43 46
ATOM     46  CA  THR C   1      -1.887   2.833 -42.392  1.00 23.89 LIG 0.20  C 
BRANCH 46 47
ATOM     47  CB  THR C   1      -2.469   4.224 -42.085  1.00 24.32 LIG 0.15  C 
ATOM     48  CG2 THR C   1      -4.006   4.163 -42.041  1.00 24.71 LIG 0.04  C 
BRANCH 47 49
ATOM     49 OG1  THR C   1      -1.981   4.676 -40.815  1.00 24.87 LIG-0.39  OA
ATOM     50 HG1  THR C   1      -2.249   5.460 -40.674  1.00 24.87 LIG 0.21  HD
ENDBRANCH 47 49
ENDBRANCH 46 47
BRANCH 46 51
ATOM     51  N   THR C   1      -0.805   2.480 -41.480  1.00 24.03 LIG-0.35  N 
ATOM     52 H    THR C   1      -0.948   1.767 -41.021  1.00 24.03 LIG 0.16  HD
ATOM     53  C   ACE C   0       0.302   3.211 -41.382  1.00 24.28 LIG 0.21  C 
ATOM     54 O    ACE C   0       0.487   4.237 -42.049  1.00 24.50 LIG-0.27  OA
ATOM     55  CH3 ACE C   0       1.403   2.577 -40.593  1.00 24.98 LIG 0.12  C 
ENDBRANCH 46 51
ENDBRANCH 43 46
ENDBRANCH 41 42
BRANCH 41 56
ATOM     56  CB  GLU C   2       1.471   1.003 -45.459  1.00 23.91 LIG 0.04  C 
BRANCH 56 57
ATOM     57  CG  GLU C   2       2.310   1.167 -46.715  1.00 27.13 LIG 0.12  C 
BRANCH 57 58
ATOM     58  CD  GLU C   2       2.277   2.575 -47.282  1.00 29.05 LIG 0.17  C 
ATOM     59 OE2  GLU C   2       2.326   3.531 -46.487  1.00 31.00 LIG-0.65  OA
ATOM     60 OE1  GLU C   2       2.198   2.729 -48.516  1.00 31.26 LIG-0.65  OA
ENDBRANCH 57 58
ENDBRANCH 56 57
ENDBRANCH 41 56
ENDBRANCH 38 41
ENDBRANCH 36 37
BRANCH 36 61
ATOM     61  CB  ASP C   3      -3.880  -0.797 -45.794  1.00 24.55 LIG 0.15  C 
BRANCH 61 62
ATOM     62  CG  ASP C   3      -4.911  -1.521 -46.646  1.00 28.69 LIG 0.17  C 
ATOM     63 OD2  ASP C   3      -4.772  -1.507 -47.888  1.00 33.40 LIG-0.65  OA
ATOM     64 OD1  ASP C   3      -5.868  -2.092 -46.076  1.00 33.84 LIG-0.65  OA
ENDBRANCH 61 62
ENDBRANCH 36 61
ENDBRANCH 1 36
TORSDOF 27
ENDMDL
MODEL 22
USER: ADFR SOLUTION from run 166
USER: SCORE 19.105595 LL:  -4.760 LR: -16.192 RR:   0.000 FEB:  -8.137
USER: RMSD 13.002818
USER: SEED 165
USER: STATUS no improvement in best in 9 clusters for 5 generations
USER: GENES 29
USER: genes 0 Translation |==|  0.62899 0.65528 0.58119
USER: genes 1 Rotation |==|  0.61711 0.96746 0.37049 0.53146
USER: genes 2 Torsion [C]-N--CA-[CB] |==|  0.14620
USER: genes 3 Torsion [N]-CA--CB-[CG2] |==|  0.52625
USER: genes 4 Torsion [N]-CA--C-[N] |==|  0.09467
USER: genes 5 Torsion [C]-N--CA-[C] |==|  0.75469
USER: genes 6 Torsion [N]-CA--CB-[CG2] |==|  0.84361
USER: genes 7 Torsion [N]-CA--C-[N] |==|  0.37461
USER: genes 8 Torsion [C]-N--CA-[CB] |==|  0.77628
USER: genes 9 Torsion [N]-CA--CB-[SG] |==|  0.58868
USER: genes 10 Torsion [CA]-CB--SG-[HG] |==|  0.25755
USER: genes 11 Torsion [N]-CA--C-[N] |==|  0.61212
USER: genes 12 Torsion [C]-N--CA-[C] |==|  0.53197
USER: genes 13 Torsion [N]-CA--CB-[SG] |==|  0.74604
USER: genes 14 Torsion [CA]-CB--SG-[HG] |==|  0.01821
USER: genes 15 Torsion [N]-CA--C-[OXT] |==|  0.58707
USER: genes 16 Torsion [N]-C--CA-[N] |==|  0.25223
USER: genes 17 Torsion [C]-CA--N-[C] |==|  0.75628
USER: genes 18 Torsion [N]-C--CA-[N] |==|  0.10746
USER: genes 19 Torsion [C]-CA--N-[C] |==|  0.14468
USER: genes 20 Torsion [N]-C--CA-[N] |==|  0.07829
USER: genes 21 Torsion [C]-CA--CB-[CG2] |==|  0.17269
USER: genes 22 Torsion [CA]-CB--OG1-[HG1] |==|  0.41848
USER: genes 23 Torsion [C]-CA--N-[C] |==|  0.64461
USER: genes 24 Torsion [C]-CA--CB-[CG] |==|  0.30752
USER: genes 25 Torsion [CA]-CB--CG-[CD] |==|  0.71363
USER: genes 26 Torsion [CB]-CG--CD-[OE2] |==|  0.70130
USER: genes 27 Torsion [C]-CA--CB-[CG] |==|  0.59601
USER: genes 28 Torsion [CA]-CB--CG-[OD2] |==|  0.20570
ROOT
ATOM      1  C   ASP C   3      -5.050   3.041 -48.038  1.00 21.95 LIG 0.24  C 
ATOM      2 O    ASP C   3      -4.343   3.745 -48.759  1.00 22.02 LIG-0.27  OA
ATOM      3  N   VAL C   4      -5.810   2.045 -48.474  1.00 20.47 LIG-0.35  N 
ATOM      4 H    VAL C   4      -6.294   1.556 -47.959  1.00 20.47 LIG 0.16  HD
ENDROOT
BRANCH 3 5
ATOM      5  CA  VAL C   4      -5.894   1.687 -49.887  1.00 19.37 LIG 0.18  C 
BRANCH 5 6
ATOM      6  CB  VAL C   4      -4.489   1.466 -50.486  1.00 19.50 LIG 0.01  C 
ATOM      7  CG2 VAL C   4      -4.574   1.322 -52.013  1.00 18.97 LIG 0.01  C 
ATOM      8  CG1 VAL C   4      -3.831   0.246 -49.871  1.00 20.24 LIG 0.01  C 
ENDBRANCH 5 6
BRANCH 5 9
ATOM      9  C   VAL C   4      -6.732   0.418 -49.974  1.00 18.84 LIG 0.24  C 
ATOM     10  N   VAL C   5      -7.722   0.286 -49.091  1.00 18.10 LIG-0.35  N 
ATOM     11 H    VAL C   5      -7.950   0.911 -48.545  1.00 18.10 LIG 0.16  HD
ATOM     12 O    VAL C   4      -6.482  -0.416 -50.850  1.00 20.23 LIG-0.27  OA
BRANCH 10 13
ATOM     13  CA  VAL C   5      -8.522  -0.925 -48.956  1.00 17.69 LIG 0.18  C 
BRANCH 13 14
ATOM     14  CB  VAL C   5      -9.016  -1.098 -47.497  1.00 18.27 LIG 0.01  C 
ATOM     15  CG2 VAL C   5      -7.794  -1.102 -46.533  1.00 18.63 LIG 0.01  C 
ATOM     16  CG1 VAL C   5      -9.854  -2.376 -47.340  1.00 19.20 LIG 0.01  C 
ENDBRANCH 13 14
BRANCH 13 17
ATOM     17  C   VAL C   5      -9.714  -0.851 -49.916  1.00 17.55 LIG 0.24  C 
ATOM     18 O    VAL C   5     -10.375   0.195 -50.025  1.00 16.61 LIG-0.27  OA
ATOM     19  N   CYS C   6      -9.960  -1.953 -50.613  1.00 17.33 LIG-0.34  N 
ATOM     20 H    CYS C   6      -9.496  -2.674 -50.540  1.00 17.33 LIG 0.16  HD
BRANCH 19 21
ATOM     21  CA  CYS C   6     -11.054  -2.049 -51.582  1.00 17.84 LIG 0.18  C 
BRANCH 21 22
ATOM     22  CB  CYS C   6     -12.377  -2.314 -50.872  1.00 18.00 LIG 0.10  C 
BRANCH 22 23
ATOM     23 SG   CYS C   6     -13.500  -3.301 -51.858  1.00 23.34 LIG-0.18  SA
ATOM     24 HG   CYS C   6     -13.357  -4.461 -51.587  1.00 23.34 LIG 0.10  HD
ENDBRANCH 22 23
ENDBRANCH 21 22
BRANCH 21 25
ATOM     25  C   CYS C   6     -11.151  -0.765 -52.378  1.00 17.78 LIG 0.24  C 
ATOM     26 O    CYS C   6     -10.130  -0.192 -52.761  1.00 18.30 LIG-0.27  OA
ATOM     27  N   CYS C   7     -12.380  -0.311 -52.635  1.00 17.97 LIG-0.34  N 
ATOM     28 H    CYS C   7     -13.103  -0.675 -52.343  1.00 17.97 LIG 0.16  HD
BRANCH 27 29
ATOM     29  CA  CYS C   7     -12.586   0.883 -53.464  1.00 18.46 LIG 0.19  C 
BRANCH 29 30
ATOM     30  CB  CYS C   7     -12.147   0.580 -54.890  1.00 18.37 LIG 0.11  C 
BRANCH 30 31
ATOM     31 SG   CYS C   7     -10.408   1.007 -55.167  1.00 21.24 LIG-0.18  SA
ATOM     32 HG   CYS C   7      -9.905   1.330 -54.127  1.00 21.24 LIG 0.10  HD
ENDBRANCH 30 31
ENDBRANCH 29 30
BRANCH 29 33
ATOM     33  C   CYS C   7     -14.022   1.411 -53.419  1.00 18.64 LIG 0.20  C 
ATOM     34 OXT  CYS C   7     -14.521   1.979 -54.404  1.00 18.72 LIG-0.65  OA
ATOM     35 O    CYS C   7     -14.734   1.230 -52.417  1.00 19.07 LIG-0.65  OA
ENDBRANCH 29 33
ENDBRANCH 27 29
ENDBRANCH 21 25
ENDBRANCH 19 21
ENDBRANCH 13 17
ENDBRANCH 10 13
ENDBRANCH 5 9
ENDBRANCH 3 5
BRANCH 1 36
ATOM     36  CA  ASP C   3      -5.089   3.275 -46.553  1.00 23.26 LIG 0.19  C 
BRANCH 36 37
ATOM     37  N   ASP C   3      -4.047   2.497 -45.920  1.00 23.08 LIG-0.35  N 
ATOM     38  C   GLU C   2      -4.290   1.248 -45.554  1.00 23.46 LIG 0.24  C 
ATOM     39 O    GLU C   2      -5.409   0.753 -45.619  1.00 23.95 LIG-0.27  OA
ATOM     40 H    ASP C   3      -3.297   2.905 -45.813  1.00 23.08 LIG 0.16  HD
BRANCH 38 41
ATOM     41  CA  GLU C   2      -3.107   0.444 -45.043  1.00 23.56 LIG 0.18  C 
BRANCH 41 42
ATOM     42  N   GLU C   2      -2.245   1.307 -44.223  1.00 23.07 LIG-0.35  N 
ATOM     43  C   THR C   1      -2.749   2.023 -43.219  1.00 23.69 LIG 0.24  C 
ATOM     44 O    THR C   1      -3.945   2.045 -42.937  1.00 24.29 LIG-0.27  OA
ATOM     45 H    GLU C   2      -1.415   1.303 -44.448  1.00 23.07 LIG 0.16  HD
BRANCH 43 46
ATOM     46  CA  THR C   1      -1.776   2.865 -42.410  1.00 23.89 LIG 0.20  C 
BRANCH 46 47
ATOM     47  CB  THR C   1      -2.511   4.100 -41.862  1.00 24.32 LIG 0.15  C 
ATOM     48  CG2 THR C   1      -3.646   3.672 -40.916  1.00 24.71 LIG 0.04  C 
BRANCH 47 49
ATOM     49 OG1  THR C   1      -1.586   4.926 -41.141  1.00 24.87 LIG-0.39  OA
ATOM     50 HG1  THR C   1      -1.831   5.729 -41.189  1.00 24.87 LIG 0.21  HD
ENDBRANCH 47 49
ENDBRANCH 46 47
BRANCH 46 51
ATOM     51  N   THR C   1      -0.658   3.232 -43.272  1.00 24.03 LIG-0.35  N 
ATOM     52 H    THR C   1      -0.891   3.592 -44.018  1.00 24.03 LIG 0.16  HD
ATOM     53  C   ACE C   0       0.606   3.019 -42.918  1.00 24.28 LIG 0.21  C 
ATOM     54 O    ACE C   0       0.920   2.494 -41.842  1.00 24.50 LIG-0.27  OA
ATOM     55  CH3 ACE C   0       1.622   3.675 -43.798  1.00 24.98 LIG 0.12  C 
ENDBRANCH 46 51
ENDBRANCH 43 46
ENDBRANCH 41 42
BRANCH 41 56
ATOM     56  CB  GLU C   2      -3.613  -0.774 -44.255  1.00 23.91 LIG 0.04  C 
BRANCH 56 57
ATOM     57  CG  GLU C   2      -3.367  -2.111 -44.931  1.00 27.13 LIG 0.12  C 
BRANCH 57 58
ATOM     58  CD  GLU C   2      -4.610  -2.695 -45.581  1.00 29.05 LIG 0.17  C 
ATOM     59 OE2  GLU C   2      -5.151  -3.677 -45.041  1.00 31.00 LIG-0.65  OA
ATOM     60 OE1  GLU C   2      -5.042  -2.180 -46.630  1.00 31.26 LIG-0.65  OA
ENDBRANCH 57 58
ENDBRANCH 56 57
ENDBRANCH 41 56
ENDBRANCH 38 41
ENDBRANCH 36 37
BRANCH 36 61
ATOM     61  CB  ASP C   3      -4.920   4.756 -46.242  1.00 24.55 LIG 0.15  C 
BRANCH 61 62
ATOM     62  CG  ASP C   3      -4.145   4.995 -44.955  1.00 28.69 LIG 0.17  C 
ATOM     63 OD2  ASP C   3      -2.911   4.803 -44.959  1.00 33.40 LIG-0.65  OA
ATOM     64 OD1  ASP C   3      -4.772   5.363 -43.936  1.00 33.84 LIG-0.65  OA
ENDBRANCH 61 62
ENDBRANCH 36 61
ENDBRANCH 1 36
TORSDOF 27
ENDMDL
MODEL 23
USER: ADFR SOLUTION from run 159
USER: SCORE 17.839580 LL:  -5.172 LR: -16.108 RR:   0.000 FEB:  -8.053
USER: RMSD 12.587960
USER: SEED 158
USER: STATUS no improvement in best in 7 clusters for 5 generations
USER: GENES 29
USER: genes 0 Translation |==|  0.65646 0.63068 0.56654
USER: genes 1 Rotation |==|  0.61124 0.07545 0.52952 0.73772
USER: genes 2 Torsion [C]-N--CA-[CB] |==|  0.23357
USER: genes 3 Torsion [N]-CA--CB-[CG2] |==|  0.41666
USER: genes 4 Torsion [N]-CA--C-[N] |==|  0.35934
USER: genes 5 Torsion [C]-N--CA-[C] |==|  0.69391
USER: genes 6 Torsion [N]-CA--CB-[CG2] |==|  0.62248
USER: genes 7 Torsion [N]-CA--C-[N] |==|  0.95489
USER: genes 8 Torsion [C]-N--CA-[CB] |==|  0.19755
USER: genes 9 Torsion [N]-CA--CB-[SG] |==|  0.74095
USER: genes 10 Torsion [CA]-CB--SG-[HG] |==|  0.27606
USER: genes 11 Torsion [N]-CA--C-[N] |==|  0.56044
USER: genes 12 Torsion [C]-N--CA-[C] |==|  0.58219
USER: genes 13 Torsion [N]-CA--CB-[SG] |==|  0.76984
USER: genes 14 Torsion [CA]-CB--SG-[HG] |==|  0.90188
USER: genes 15 Torsion [N]-CA--C-[OXT] |==|  0.04122
USER: genes 16 Torsion [N]-C--CA-[N] |==|  0.77125
USER: genes 17 Torsion [C]-CA--N-[C] |==|  0.84519
USER: genes 18 Torsion [N]-C--CA-[N] |==|  0.99444
USER: genes 19 Torsion [C]-CA--N-[C] |==|  0.81464
USER: genes 20 Torsion [N]-C--CA-[N] |==|  0.96745
USER: genes 21 Torsion [C]-CA--CB-[CG2] |==|  0.19248
USER: genes 22 Torsion [CA]-CB--OG1-[HG1] |==|  0.03686
USER: genes 23 Torsion [C]-CA--N-[C] |==|  0.79760
USER: genes 24 Torsion [C]-CA--CB-[CG] |==|  0.57974
USER: genes 25 Torsion [CA]-CB--CG-[CD] |==|  0.41592
USER: genes 26 Torsion [CB]-CG--CD-[OE2] |==|  0.79276
USER: genes 27 Torsion [C]-CA--CB-[CG] |==|  0.31610
USER: genes 28 Torsion [CA]-CB--CG-[OD2] |==|  0.86426
ROOT
ATOM      1  C   ASP C   3      -4.391   2.635 -48.444  1.00 21.95 LIG 0.24  C 
ATOM      2 O    ASP C   3      -5.032   3.676 -48.588  1.00 22.02 LIG-0.27  OA
ATOM      3  N   VAL C   4      -4.856   1.423 -48.718  1.00 20.47 LIG-0.35  N 
ATOM      4 H    VAL C   4      -4.395   0.705 -48.620  1.00 20.47 LIG 0.16  HD
ENDROOT
BRANCH 3 5
ATOM      5  CA  VAL C   4      -6.210   1.199 -49.214  1.00 19.37 LIG 0.18  C 
BRANCH 5 6
ATOM      6  CB  VAL C   4      -6.276   1.382 -50.745  1.00 19.50 LIG 0.01  C 
ATOM      7  CG2 VAL C   4      -7.369   0.486 -51.346  1.00 18.97 LIG 0.01  C 
ATOM      8  CG1 VAL C   4      -4.931   1.081 -51.377  1.00 20.24 LIG 0.01  C 
ENDBRANCH 5 6
BRANCH 5 9
ATOM      9  C   VAL C   4      -6.601  -0.218 -48.815  1.00 18.84 LIG 0.24  C 
ATOM     10  N   VAL C   5      -7.771  -0.369 -48.193  1.00 18.10 LIG-0.35  N 
ATOM     11 H    VAL C   5      -8.333   0.274 -48.089  1.00 18.10 LIG 0.16  HD
ATOM     12 O    VAL C   4      -5.846  -1.156 -49.089  1.00 20.23 LIG-0.27  OA
BRANCH 10 13
ATOM     13  CA  VAL C   5      -8.223  -1.634 -47.627  1.00 17.69 LIG 0.18  C 
BRANCH 13 14
ATOM     14  CB  VAL C   5      -8.658  -1.451 -46.152  1.00 18.27 LIG 0.01  C 
ATOM     15  CG2 VAL C   5      -8.088  -2.619 -45.294  1.00 18.63 LIG 0.01  C 
ATOM     16  CG1 VAL C   5     -10.188  -1.366 -46.028  1.00 19.20 LIG 0.01  C 
ENDBRANCH 13 14
BRANCH 13 17
ATOM     17  C   VAL C   5      -9.388  -2.173 -48.463  1.00 17.55 LIG 0.24  C 
ATOM     18 O    VAL C   5      -9.754  -3.354 -48.353  1.00 16.61 LIG-0.27  OA
ATOM     19  N   CYS C   6      -9.969  -1.296 -49.273  1.00 17.33 LIG-0.34  N 
ATOM     20 H    CYS C   6      -9.718  -0.476 -49.342  1.00 17.33 LIG 0.16  HD
BRANCH 19 21
ATOM     21  CA  CYS C   6     -11.103  -1.642 -50.132  1.00 17.84 LIG 0.18  C 
BRANCH 21 22
ATOM     22  CB  CYS C   6     -12.361  -1.856 -49.298  1.00 18.00 LIG 0.10  C 
BRANCH 22 23
ATOM     23 SG   CYS C   6     -12.603  -3.573 -48.848  1.00 23.34 LIG-0.18  SA
ATOM     24 HG   CYS C   6     -12.220  -3.750 -47.724  1.00 23.34 LIG 0.10  HD
ENDBRANCH 22 23
ENDBRANCH 21 22
BRANCH 21 25
ATOM     25  C   CYS C   6     -11.342  -0.538 -51.140  1.00 17.78 LIG 0.24  C 
ATOM     26 O    CYS C   6     -10.436   0.243 -51.433  1.00 18.30 LIG-0.27  OA
ATOM     27  N   CYS C   7     -12.561  -0.474 -51.680  1.00 17.97 LIG-0.34  N 
ATOM     28 H    CYS C   7     -13.217  -0.985 -51.460  1.00 17.97 LIG 0.16  HD
BRANCH 27 29
ATOM     29  CA  CYS C   7     -12.874   0.510 -52.724  1.00 18.46 LIG 0.19  C 
BRANCH 29 30
ATOM     30  CB  CYS C   7     -12.462  -0.053 -54.077  1.00 18.37 LIG 0.11  C 
BRANCH 30 31
ATOM     31 SG   CYS C   7     -10.697   0.196 -54.403  1.00 21.24 LIG-0.18  SA
ATOM     32 HG   CYS C   7     -10.348   1.245 -53.937  1.00 21.24 LIG 0.10  HD
ENDBRANCH 30 31
ENDBRANCH 29 30
BRANCH 29 33
ATOM     33  C   CYS C   7     -14.340   0.949 -52.722  1.00 18.64 LIG 0.20  C 
ATOM     34 OXT  CYS C   7     -15.074   0.709 -51.751  1.00 18.72 LIG-0.65  OA
ATOM     35 O    CYS C   7     -14.807   1.604 -53.670  1.00 19.07 LIG-0.65  OA
ENDBRANCH 29 33
ENDBRANCH 27 29
ENDBRANCH 21 25
ENDBRANCH 19 21
ENDBRANCH 13 17
ENDBRANCH 10 13
ENDBRANCH 5 9
ENDBRANCH 3 5
BRANCH 1 36
ATOM     36  CA  ASP C   3      -2.976   2.680 -47.936  1.00 23.26 LIG 0.19  C 
BRANCH 36 37
ATOM     37  N   ASP C   3      -2.970   2.401 -46.517  1.00 23.08 LIG-0.35  N 
ATOM     38  C   GLU C   2      -3.706   3.137 -45.700  1.00 23.46 LIG 0.24  C 
ATOM     39 O    GLU C   2      -4.309   4.135 -46.080  1.00 23.95 LIG-0.27  OA
ATOM     40 H    ASP C   3      -2.468   1.746 -46.273  1.00 23.08 LIG 0.16  HD
BRANCH 38 41
ATOM     41  CA  GLU C   2      -3.774   2.688 -44.251  1.00 23.56 LIG 0.18  C 
BRANCH 41 42
ATOM     42  N   GLU C   2      -3.003   1.448 -44.085  1.00 23.07 LIG-0.35  N 
ATOM     43  C   THR C   1      -3.399   0.313 -44.661  1.00 23.69 LIG 0.24  C 
ATOM     44 O    THR C   1      -4.430   0.215 -45.322  1.00 24.29 LIG-0.27  OA
ATOM     45 H    GLU C   2      -2.298   1.524 -43.598  1.00 23.07 LIG 0.16  HD
BRANCH 43 46
ATOM     46  CA  THR C   1      -2.523  -0.912 -44.456  1.00 23.89 LIG 0.20  C 
BRANCH 46 47
ATOM     47  CB  THR C   1      -3.262  -1.915 -43.554  1.00 24.32 LIG 0.15  C 
ATOM     48  CG2 THR C   1      -4.464  -2.520 -44.299  1.00 24.71 LIG 0.04  C 
BRANCH 47 49
ATOM     49 OG1  THR C   1      -2.365  -2.969 -43.177  1.00 24.87 LIG-0.39  OA
ATOM     50 HG1  THR C   1      -1.577  -2.747 -43.364  1.00 24.87 LIG 0.21  HD
ENDBRANCH 47 49
ENDBRANCH 46 47
BRANCH 46 51
ATOM     51  N   THR C   1      -1.258  -0.480 -43.872  1.00 24.03 LIG-0.35  N 
ATOM     52 H    THR C   1      -1.165  -0.684 -43.042  1.00 24.03 LIG 0.16  HD
ATOM     53  C   ACE C   0      -0.341   0.173 -44.579  1.00 24.28 LIG 0.21  C 
ATOM     54 O    ACE C   0      -0.496   0.462 -45.772  1.00 24.50 LIG-0.27  OA
ATOM     55  CH3 ACE C   0       0.985   0.318 -43.902  1.00 24.98 LIG 0.12  C 
ENDBRANCH 46 51
ENDBRANCH 43 46
ENDBRANCH 41 42
BRANCH 41 56
ATOM     56  CB  GLU C   2      -3.256   3.810 -43.338  1.00 23.91 LIG 0.04  C 
BRANCH 56 57
ATOM     57  CG  GLU C   2      -2.631   3.330 -42.039  1.00 27.13 LIG 0.12  C 
BRANCH 57 58
ATOM     58  CD  GLU C   2      -1.536   4.247 -41.523  1.00 29.05 LIG 0.17  C 
ATOM     59 OE2  GLU C   2      -0.432   4.229 -42.099  1.00 31.00 LIG-0.65  OA
ATOM     60 OE1  GLU C   2      -1.771   4.979 -40.542  1.00 31.26 LIG-0.65  OA
ENDBRANCH 57 58
ENDBRANCH 56 57
ENDBRANCH 41 56
ENDBRANCH 38 41
ENDBRANCH 36 37
BRANCH 36 61
ATOM     61  CB  ASP C   3      -2.108   1.679 -48.686  1.00 24.55 LIG 0.15  C 
BRANCH 61 62
ATOM     62  CG  ASP C   3      -1.043   2.354 -49.536  1.00 28.69 LIG 0.17  C 
ATOM     63 OD2  ASP C   3      -1.387   3.288 -50.290  1.00 33.40 LIG-0.65  OA
ATOM     64 OD1  ASP C   3       0.136   1.941 -49.461  1.00 33.84 LIG-0.65  OA
ENDBRANCH 61 62
ENDBRANCH 36 61
ENDBRANCH 1 36
TORSDOF 27
ENDMDL
MODEL 24
USER: ADFR SOLUTION from run 130
USER: SCORE 18.756160 LL:  -4.367 LR: -16.073 RR:   0.000 FEB:  -8.019
USER: RMSD 12.783771
USER: SEED 129
USER: STATUS 1 or 2 clusters left
USER: GENES 29
USER: genes 0 Translation |==|  0.66846 0.67030 0.75313
USER: genes 1 Rotation |==|  0.78805 0.11722 0.36258 0.54029
USER: genes 2 Torsion [C]-N--CA-[CB] |==|  0.24738
USER: genes 3 Torsion [N]-CA--CB-[CG2] |==|  0.14961
USER: genes 4 Torsion [N]-CA--C-[N] |==|  0.31507
USER: genes 5 Torsion [C]-N--CA-[C] |==|  0.69854
USER: genes 6 Torsion [N]-CA--CB-[CG2] |==|  0.18997
USER: genes 7 Torsion [N]-CA--C-[N] |==|  0.48888
USER: genes 8 Torsion [C]-N--CA-[CB] |==|  0.85594
USER: genes 9 Torsion [N]-CA--CB-[SG] |==|  0.55740
USER: genes 10 Torsion [CA]-CB--SG-[HG] |==|  0.70129
USER: genes 11 Torsion [N]-CA--C-[N] |==|  0.37126
USER: genes 12 Torsion [C]-N--CA-[C] |==|  0.80343
USER: genes 13 Torsion [N]-CA--CB-[SG] |==|  0.94562
USER: genes 14 Torsion [CA]-CB--SG-[HG] |==|  0.38416
USER: genes 15 Torsion [N]-CA--C-[OXT] |==|  0.25298
USER: genes 16 Torsion [N]-C--CA-[N] |==|  0.99327
USER: genes 17 Torsion [C]-CA--N-[C] |==|  0.78810
USER: genes 18 Torsion [N]-C--CA-[N] |==|  0.46598
USER: genes 19 Torsion [C]-CA--N-[C] |==|  0.66572
USER: genes 20 Torsion [N]-C--CA-[N] |==|  0.00421
USER: genes 21 Torsion [C]-CA--CB-[CG2] |==|  0.78785
USER: genes 22 Torsion [CA]-CB--OG1-[HG1] |==|  0.28527
USER: genes 23 Torsion [C]-CA--N-[C] |==|  0.74963
USER: genes 24 Torsion [C]-CA--CB-[CG] |==|  0.51342
USER: genes 25 Torsion [CA]-CB--CG-[CD] |==|  0.55784
USER: genes 26 Torsion [CB]-CG--CD-[OE2] |==|  0.83641
USER: genes 27 Torsion [C]-CA--CB-[CG] |==|  0.60024
USER: genes 28 Torsion [CA]-CB--CG-[OD2] |==|  0.66777
ROOT
ATOM      1  C   ASP C   3      -4.103   3.289 -43.267  1.00 21.95 LIG 0.24  C 
ATOM      2 O    ASP C   3      -5.160   3.748 -42.834  1.00 22.02 LIG-0.27  OA
ATOM      3  N   VAL C   4      -3.850   3.068 -44.550  1.00 20.47 LIG-0.35  N 
ATOM      4 H    VAL C   4      -3.104   2.755 -44.840  1.00 20.47 LIG 0.16  HD
ENDROOT
BRANCH 3 5
ATOM      5  CA  VAL C   4      -4.828   3.341 -45.598  1.00 19.37 LIG 0.18  C 
BRANCH 5 6
ATOM      6  CB  VAL C   4      -4.703   4.792 -46.109  1.00 19.50 LIG 0.01  C 
ATOM      7  CG2 VAL C   4      -3.260   5.084 -46.546  1.00 18.97 LIG 0.01  C 
ATOM      8  CG1 VAL C   4      -5.147   5.774 -45.042  1.00 20.24 LIG 0.01  C 
ENDBRANCH 5 6
BRANCH 5 9
ATOM      9  C   VAL C   4      -4.570   2.342 -46.718  1.00 18.84 LIG 0.24  C 
ATOM     10  N   VAL C   5      -5.517   1.431 -46.946  1.00 18.10 LIG-0.35  N 
ATOM     11 H    VAL C   5      -6.282   1.441 -46.550  1.00 18.10 LIG 0.16  HD
ATOM     12 O    VAL C   4      -3.525   2.419 -47.372  1.00 20.23 LIG-0.27  OA
BRANCH 10 13
ATOM     13  CA  VAL C   5      -5.362   0.327 -47.884  1.00 17.69 LIG 0.18  C 
BRANCH 13 14
ATOM     14  CB  VAL C   5      -5.744  -1.019 -47.218  1.00 18.27 LIG 0.01  C 
ATOM     15  CG2 VAL C   5      -7.276  -1.044 -46.943  1.00 18.63 LIG 0.01  C 
ATOM     16  CG1 VAL C   5      -4.943  -1.250 -45.928  1.00 19.20 LIG 0.01  C 
ENDBRANCH 13 14
BRANCH 13 17
ATOM     17  C   VAL C   5      -6.242   0.582 -49.112  1.00 17.55 LIG 0.24  C 
ATOM     18 O    VAL C   5      -6.982   1.578 -49.165  1.00 16.61 LIG-0.27  OA
ATOM     19  N   CYS C   6      -6.137  -0.309 -50.091  1.00 17.33 LIG-0.34  N 
ATOM     20 H    CYS C   6      -5.618  -0.994 -50.054  1.00 17.33 LIG 0.16  HD
BRANCH 19 21
ATOM     21  CA  CYS C   6      -6.899  -0.209 -51.338  1.00 17.84 LIG 0.18  C 
BRANCH 21 22
ATOM     22  CB  CYS C   6      -8.384  -0.033 -51.045  1.00 18.00 LIG 0.10  C 
BRANCH 22 23
ATOM     23 SG   CYS C   6      -9.417  -0.488 -52.435  1.00 23.34 LIG-0.18  SA
ATOM     24 HG   CYS C   6      -9.879   0.503 -52.932  1.00 23.34 LIG 0.10  HD
ENDBRANCH 22 23
ENDBRANCH 21 22
BRANCH 21 25
ATOM     25  C   CYS C   6      -6.398   0.963 -52.154  1.00 17.78 LIG 0.24  C 
ATOM     26 O    CYS C   6      -6.202   2.056 -51.620  1.00 18.30 LIG-0.27  OA
ATOM     27  N   CYS C   7      -6.183   0.740 -53.453  1.00 17.97 LIG-0.34  N 
ATOM     28 H    CYS C   7      -6.351  -0.003 -53.852  1.00 17.97 LIG 0.16  HD
BRANCH 27 29
ATOM     29  CA  CYS C   7      -5.625   1.787 -54.317  1.00 18.46 LIG 0.19  C 
BRANCH 29 30
ATOM     30  CB  CYS C   7      -5.135   1.155 -55.613  1.00 18.37 LIG 0.11  C 
BRANCH 30 31
ATOM     31 SG   CYS C   7      -4.872  -0.629 -55.435  1.00 21.24 LIG-0.18  SA
ATOM     32 HG   CYS C   7      -5.283  -1.194 -56.410  1.00 21.24 LIG 0.10  HD
ENDBRANCH 30 31
ENDBRANCH 29 30
BRANCH 29 33
ATOM     33  C   CYS C   7      -6.603   2.934 -54.588  1.00 18.64 LIG 0.20  C 
ATOM     34 OXT  CYS C   7      -6.629   3.933 -53.852  1.00 18.72 LIG-0.65  OA
ATOM     35 O    CYS C   7      -7.347   2.910 -55.582  1.00 19.07 LIG-0.65  OA
ENDBRANCH 29 33
ENDBRANCH 27 29
ENDBRANCH 21 25
ENDBRANCH 19 21
ENDBRANCH 13 17
ENDBRANCH 10 13
ENDBRANCH 5 9
ENDBRANCH 3 5
BRANCH 1 36
ATOM     36  CA  ASP C   3      -2.983   2.945 -42.323  1.00 23.26 LIG 0.19  C 
BRANCH 36 37
ATOM     37  N   ASP C   3      -1.882   2.384 -43.074  1.00 23.08 LIG-0.35  N 
ATOM     38  C   GLU C   2      -1.952   1.137 -43.510  1.00 23.46 LIG 0.24  C 
ATOM     39 O    GLU C   2      -2.870   0.385 -43.200  1.00 23.95 LIG-0.27  OA
ATOM     40 H    ASP C   3      -1.216   2.914 -43.201  1.00 23.08 LIG 0.16  HD
BRANCH 38 41
ATOM     41  CA  GLU C   2      -0.833   0.668 -44.423  1.00 23.56 LIG 0.18  C 
BRANCH 41 42
ATOM     42  N   GLU C   2      -0.902  -0.793 -44.573  1.00 23.07 LIG-0.35  N 
ATOM     43  C   THR C   1       0.120  -1.567 -44.209  1.00 23.69 LIG 0.24  C 
ATOM     44 O    THR C   1       1.179  -1.126 -43.770  1.00 24.29 LIG-0.27  OA
ATOM     45 H    GLU C   2      -1.638  -1.086 -44.906  1.00 23.07 LIG 0.16  HD
BRANCH 43 46
ATOM     46  CA  THR C   1      -0.053  -3.068 -44.376  1.00 23.89 LIG 0.20  C 
BRANCH 46 47
ATOM     47  CB  THR C   1       1.085  -3.613 -45.255  1.00 24.32 LIG 0.15  C 
ATOM     48  CG2 THR C   1       0.830  -3.272 -46.733  1.00 24.71 LIG 0.04  C 
BRANCH 47 49
ATOM     49 OG1  THR C   1       2.328  -3.026 -44.847  1.00 24.87 LIG-0.39  OA
ATOM     50 HG1  THR C   1       2.764  -3.580 -44.390  1.00 24.87 LIG 0.21  HD
ENDBRANCH 47 49
ENDBRANCH 46 47
BRANCH 46 51
ATOM     51  N   THR C   1      -1.365  -3.317 -44.963  1.00 24.03 LIG-0.35  N 
ATOM     52 H    THR C   1      -1.370  -3.332 -45.823  1.00 24.03 LIG 0.16  HD
ATOM     53  C   ACE C   0      -2.449  -3.503 -44.215  1.00 24.28 LIG 0.21  C 
ATOM     54 O    ACE C   0      -2.421  -3.473 -42.978  1.00 24.50 LIG-0.27  OA
ATOM     55  CH3 ACE C   0      -3.649  -3.989 -44.964  1.00 24.98 LIG 0.12  C 
ENDBRANCH 46 51
ENDBRANCH 43 46
ENDBRANCH 41 42
BRANCH 41 56
ATOM     56  CB  GLU C   2      -0.935   1.387 -45.777  1.00 23.91 LIG 0.04  C 
BRANCH 56 57
ATOM     57  CG  GLU C   2       0.064   0.917 -46.820  1.00 27.13 LIG 0.12  C 
BRANCH 57 58
ATOM     58  CD  GLU C   2       0.296   1.927 -47.930  1.00 29.05 LIG 0.17  C 
ATOM     59 OE2  GLU C   2      -0.681   2.288 -48.611  1.00 31.00 LIG-0.65  OA
ATOM     60 OE1  GLU C   2       1.449   2.356 -48.127  1.00 31.26 LIG-0.65  OA
ENDBRANCH 57 58
ENDBRANCH 56 57
ENDBRANCH 41 56
ENDBRANCH 38 41
ENDBRANCH 36 37
BRANCH 36 61
ATOM     61  CB  ASP C   3      -2.537   4.181 -41.554  1.00 24.55 LIG 0.15  C 
BRANCH 61 62
ATOM     62  CG  ASP C   3      -1.036   4.201 -41.306  1.00 28.69 LIG 0.17  C 
ATOM     63 OD2  ASP C   3      -0.627   4.217 -40.126  1.00 33.40 LIG-0.65  OA
ATOM     64 OD1  ASP C   3      -0.265   4.217 -42.293  1.00 33.84 LIG-0.65  OA
ENDBRANCH 61 62
ENDBRANCH 36 61
ENDBRANCH 1 36
TORSDOF 27
ENDMDL
MODEL 25
USER: ADFR SOLUTION from run 159
USER: SCORE 18.030456 LL:  -5.316 LR: -16.058 RR:   0.000 FEB:  -8.004
USER: RMSD 12.435616
USER: SEED 158
USER: STATUS no improvement in best in 7 clusters for 5 generations
USER: GENES 29
USER: genes 0 Translation |==|  0.68189 0.61490 0.53982
USER: genes 1 Rotation |==|  0.61551 0.11325 0.46473 0.79298
USER: genes 2 Torsion [C]-N--CA-[CB] |==|  0.24850
USER: genes 3 Torsion [N]-CA--CB-[CG2] |==|  0.35277
USER: genes 4 Torsion [N]-CA--C-[N] |==|  0.39752
USER: genes 5 Torsion [C]-N--CA-[C] |==|  0.70224
USER: genes 6 Torsion [N]-CA--CB-[CG2] |==|  0.60195
USER: genes 7 Torsion [N]-CA--C-[N] |==|  0.96111
USER: genes 8 Torsion [C]-N--CA-[CB] |==|  0.18391
USER: genes 9 Torsion [N]-CA--CB-[SG] |==|  0.62212
USER: genes 10 Torsion [CA]-CB--SG-[HG] |==|  0.27014
USER: genes 11 Torsion [N]-CA--C-[N] |==|  0.54431
USER: genes 12 Torsion [C]-N--CA-[C] |==|  0.59570
USER: genes 13 Torsion [N]-CA--CB-[SG] |==|  0.76346
USER: genes 14 Torsion [CA]-CB--SG-[HG] |==|  0.90514
USER: genes 15 Torsion [N]-CA--C-[OXT] |==|  0.06523
USER: genes 16 Torsion [N]-C--CA-[N] |==|  0.77537
USER: genes 17 Torsion [C]-CA--N-[C] |==|  0.82144
USER: genes 18 Torsion [N]-C--CA-[N] |==|  0.51599
USER: genes 19 Torsion [C]-CA--N-[C] |==|  0.74914
USER: genes 20 Torsion [N]-C--CA-[N] |==|  0.93906
USER: genes 21 Torsion [C]-CA--CB-[CG2] |==|  0.09298
USER: genes 22 Torsion [CA]-CB--OG1-[HG1] |==|  0.03260
USER: genes 23 Torsion [C]-CA--N-[C] |==|  0.81441
USER: genes 24 Torsion [C]-CA--CB-[CG] |==|  0.73836
USER: genes 25 Torsion [CA]-CB--CG-[CD] |==|  0.17980
USER: genes 26 Torsion [CB]-CG--CD-[OE2] |==|  0.79401
USER: genes 27 Torsion [C]-CA--CB-[CG] |==|  0.38641
USER: genes 28 Torsion [CA]-CB--CG-[OD2] |==|  0.96188
ROOT
ATOM      1  C   ASP C   3      -3.781   2.375 -49.186  1.00 21.95 LIG 0.24  C 
ATOM      2 O    ASP C   3      -4.312   3.461 -48.956  1.00 22.02 LIG-0.27  OA
ATOM      3  N   VAL C   4      -4.442   1.262 -49.478  1.00 20.47 LIG-0.35  N 
ATOM      4 H    VAL C   4      -4.057   0.512 -49.645  1.00 20.47 LIG 0.16  HD
ENDROOT
BRANCH 3 5
ATOM      5  CA  VAL C   4      -5.899   1.213 -49.543  1.00 19.37 LIG 0.18  C 
BRANCH 5 6
ATOM      6  CB  VAL C   4      -6.402   1.544 -50.964  1.00 19.50 LIG 0.01  C 
ATOM      7  CG2 VAL C   4      -7.344   0.443 -51.470  1.00 18.97 LIG 0.01  C 
ATOM      8  CG1 VAL C   4      -5.234   1.727 -51.914  1.00 20.24 LIG 0.01  C 
ENDBRANCH 5 6
BRANCH 5 9
ATOM      9  C   VAL C   4      -6.315  -0.193 -49.129  1.00 18.84 LIG 0.24  C 
ATOM     10  N   VAL C   5      -7.430  -0.305 -48.407  1.00 18.10 LIG-0.35  N 
ATOM     11 H    VAL C   5      -7.952   0.360 -48.244  1.00 18.10 LIG 0.16  HD
ATOM     12 O    VAL C   4      -5.629  -1.157 -49.483  1.00 20.23 LIG-0.27  OA
BRANCH 10 13
ATOM     13  CA  VAL C   5      -7.885  -1.559 -47.820  1.00 17.69 LIG 0.18  C 
BRANCH 13 14
ATOM     14  CB  VAL C   5      -8.251  -1.366 -46.327  1.00 18.27 LIG 0.01  C 
ATOM     15  CG2 VAL C   5      -7.835  -2.633 -45.524  1.00 18.63 LIG 0.01  C 
ATOM     16  CG1 VAL C   5      -9.747  -1.064 -46.154  1.00 19.20 LIG 0.01  C 
ENDBRANCH 13 14
BRANCH 13 17
ATOM     17  C   VAL C   5      -9.098  -2.071 -48.603  1.00 17.55 LIG 0.24  C 
ATOM     18 O    VAL C   5      -9.511  -3.232 -48.444  1.00 16.61 LIG-0.27  OA
ATOM     19  N   CYS C   6      -9.666  -1.195 -49.422  1.00 17.33 LIG-0.34  N 
ATOM     20 H    CYS C   6      -9.382  -0.390 -49.525  1.00 17.33 LIG 0.16  HD
BRANCH 19 21
ATOM     21  CA  CYS C   6     -10.841  -1.518 -50.235  1.00 17.84 LIG 0.18  C 
BRANCH 21 22
ATOM     22  CB  CYS C   6     -12.054  -1.770 -49.348  1.00 18.00 LIG 0.10  C 
BRANCH 22 23
ATOM     23 SG   CYS C   6     -12.995  -3.205 -49.862  1.00 23.34 LIG-0.18  SA
ATOM     24 HG   CYS C   6     -12.672  -4.154 -49.201  1.00 23.34 LIG 0.10  HD
ENDBRANCH 22 23
ENDBRANCH 21 22
BRANCH 21 25
ATOM     25  C   CYS C   6     -11.135  -0.380 -51.189  1.00 17.78 LIG 0.24  C 
ATOM     26 O    CYS C   6     -10.281   0.479 -51.416  1.00 18.30 LIG-0.27  OA
ATOM     27  N   CYS C   7     -12.344  -0.371 -51.757  1.00 17.97 LIG-0.34  N 
ATOM     28 H    CYS C   7     -12.966  -0.939 -51.582  1.00 17.97 LIG 0.16  HD
BRANCH 27 29
ATOM     29  CA  CYS C   7     -12.702   0.644 -52.755  1.00 18.46 LIG 0.19  C 
BRANCH 29 30
ATOM     30  CB  CYS C   7     -12.329   0.133 -54.140  1.00 18.37 LIG 0.11  C 
BRANCH 30 31
ATOM     31 SG   CYS C   7     -10.595   0.476 -54.541  1.00 21.24 LIG-0.18  SA
ATOM     32 HG   CYS C   7     -10.268   1.519 -54.047  1.00 21.24 LIG 0.10  HD
ENDBRANCH 30 31
ENDBRANCH 29 30
BRANCH 29 33
ATOM     33  C   CYS C   7     -14.173   1.064 -52.690  1.00 18.64 LIG 0.20  C 
ATOM     34 OXT  CYS C   7     -14.828   0.924 -51.645  1.00 18.72 LIG-0.65  OA
ATOM     35 O    CYS C   7     -14.722   1.605 -53.665  1.00 19.07 LIG-0.65  OA
ENDBRANCH 29 33
ENDBRANCH 27 29
ENDBRANCH 21 25
ENDBRANCH 19 21
ENDBRANCH 13 17
ENDBRANCH 10 13
ENDBRANCH 5 9
ENDBRANCH 3 5
BRANCH 1 36
ATOM     36  CA  ASP C   3      -2.283   2.243 -49.157  1.00 23.26 LIG 0.19  C 
BRANCH 36 37
ATOM     37  N   ASP C   3      -1.878   1.679 -47.888  1.00 23.08 LIG-0.35  N 
ATOM     38  C   GLU C   2      -2.096   2.353 -46.770  1.00 23.46 LIG 0.24  C 
ATOM     39 O    GLU C   2      -2.522   3.503 -46.771  1.00 23.95 LIG-0.27  OA
ATOM     40 H    ASP C   3      -1.504   0.905 -47.932  1.00 23.08 LIG 0.16  HD
BRANCH 38 41
ATOM     41  CA  GLU C   2      -1.791   1.634 -45.468  1.00 23.56 LIG 0.18  C 
BRANCH 41 42
ATOM     42  N   GLU C   2      -2.215   2.469 -44.335  1.00 23.07 LIG-0.35  N 
ATOM     43  C   THR C   1      -1.378   3.342 -43.776  1.00 23.69 LIG 0.24  C 
ATOM     44 O    THR C   1      -0.210   3.480 -44.130  1.00 24.29 LIG-0.27  OA
ATOM     45 H    GLU C   2      -3.027   2.343 -44.080  1.00 23.07 LIG 0.16  HD
BRANCH 43 46
ATOM     46  CA  THR C   1      -1.915   4.180 -42.628  1.00 23.89 LIG 0.20  C 
BRANCH 46 47
ATOM     47  CB  THR C   1      -1.440   3.575 -41.295  1.00 24.32 LIG 0.15  C 
ATOM     48  CG2 THR C   1      -0.043   2.952 -41.458  1.00 24.71 LIG 0.04  C 
BRANCH 47 49
ATOM     49 OG1  THR C   1      -1.381   4.604 -40.298  1.00 24.87 LIG-0.39  OA
ATOM     50 HG1  THR C   1      -1.765   5.295 -40.583  1.00 24.87 LIG 0.21  HD
ENDBRANCH 47 49
ENDBRANCH 46 47
BRANCH 46 51
ATOM     51  N   THR C   1      -3.370   4.215 -42.725  1.00 24.03 LIG-0.35  N 
ATOM     52 H    THR C   1      -3.776   3.810 -42.084  1.00 24.03 LIG 0.16  HD
ATOM     53  C   ACE C   0      -3.996   4.825 -43.727  1.00 24.28 LIG 0.21  C 
ATOM     54 O    ACE C   0      -3.393   5.398 -44.643  1.00 24.50 LIG-0.27  OA
ATOM     55  CH3 ACE C   0      -5.473   4.978 -43.541  1.00 24.98 LIG 0.12  C 
ENDBRANCH 46 51
ENDBRANCH 43 46
ENDBRANCH 41 42
BRANCH 41 56
ATOM     56  CB  GLU C   2      -2.485   0.263 -45.460  1.00 23.91 LIG 0.04  C 
BRANCH 56 57
ATOM     57  CG  GLU C   2      -3.848   0.248 -44.790  1.00 27.13 LIG 0.12  C 
BRANCH 57 58
ATOM     58  CD  GLU C   2      -4.882   1.094 -45.512  1.00 29.05 LIG 0.17  C 
ATOM     59 OE2  GLU C   2      -4.802   2.333 -45.415  1.00 31.00 LIG-0.65  OA
ATOM     60 OE1  GLU C   2      -5.776   0.527 -46.169  1.00 31.26 LIG-0.65  OA
ENDBRANCH 57 58
ENDBRANCH 56 57
ENDBRANCH 41 56
ENDBRANCH 38 41
ENDBRANCH 36 37
BRANCH 36 61
ATOM     61  CB  ASP C   3      -1.802   1.374 -50.311  1.00 24.55 LIG 0.15  C 
BRANCH 61 62
ATOM     62  CG  ASP C   3      -0.538   1.916 -50.960  1.00 28.69 LIG 0.17  C 
ATOM     63 OD2  ASP C   3      -0.186   3.084 -50.693  1.00 33.40 LIG-0.65  OA
ATOM     64 OD1  ASP C   3       0.096   1.178 -51.748  1.00 33.84 LIG-0.65  OA
ENDBRANCH 61 62
ENDBRANCH 36 61
ENDBRANCH 1 36
TORSDOF 27
ENDMDL
MODEL 26
USER: ADFR SOLUTION from run 16
USER: SCORE 18.702835 LL:  -4.384 LR: -16.061 RR:   0.000 FEB:  -8.007
USER: RMSD 5.333198
USER: SEED 442950
USER: STATUS no improvement in best in 3 clusters for 5 generations
USER: GENES 29
USER: genes 0 Translation |==|  0.58703 0.47756 0.60107
USER: genes 1 Rotation |==|  0.59411 0.79468 0.77146 0.78394
USER: genes 2 Torsion [C]-N--CA-[CB] |==|  0.74538
USER: genes 3 Torsion [N]-CA--CB-[CG2] |==|  0.48258
USER: genes 4 Torsion [N]-CA--C-[N] |==|  0.20578
USER: genes 5 Torsion [C]-N--CA-[C] |==|  0.79017
USER: genes 6 Torsion [N]-CA--CB-[CG2] |==|  0.89276
USER: genes 7 Torsion [N]-CA--C-[N] |==|  0.91968
USER: genes 8 Torsion [C]-N--CA-[CB] |==|  0.52778
USER: genes 9 Torsion [N]-CA--CB-[SG] |==|  0.99353
USER: genes 10 Torsion [CA]-CB--SG-[HG] |==|  0.09318
USER: genes 11 Torsion [N]-CA--C-[N] |==|  0.92246
USER: genes 12 Torsion [C]-N--CA-[C] |==|  0.85605
USER: genes 13 Torsion [N]-CA--CB-[SG] |==|  0.76655
USER: genes 14 Torsion [CA]-CB--SG-[HG] |==|  0.84614
USER: genes 15 Torsion [N]-CA--C-[OXT] |==|  0.25521
USER: genes 16 Torsion [N]-C--CA-[N] |==|  0.96553
USER: genes 17 Torsion [C]-CA--N-[C] |==|  0.73935
USER: genes 18 Torsion [N]-C--CA-[N] |==|  0.45150
USER: genes 19 Torsion [C]-CA--N-[C] |==|  0.57483
USER: genes 20 Torsion [N]-C--CA-[N] |==|  0.43247
USER: genes 21 Torsion [C]-CA--CB-[CG2] |==|  0.97156
USER: genes 22 Torsion [CA]-CB--OG1-[HG1] |==|  0.95574
USER: genes 23 Torsion [C]-CA--N-[C] |==|  0.74831
USER: genes 24 Torsion [C]-CA--CB-[CG] |==|  0.62061
USER: genes 25 Torsion [CA]-CB--CG-[CD] |==|  0.30726
USER: genes 26 Torsion [CB]-CG--CD-[OE2] |==|  0.11888
USER: genes 27 Torsion [C]-CA--CB-[CG] |==|  0.21968
USER: genes 28 Torsion [CA]-CB--CG-[OD2] |==|  0.09192
ROOT
ATOM      1  C   ASP C   3      -6.057   0.109 -47.486  1.00 21.95 LIG 0.24  C 
ATOM      2 O    ASP C   3      -6.259   0.482 -46.331  1.00 22.02 LIG-0.27  OA
ATOM      3  N   VAL C   4      -5.026   0.489 -48.229  1.00 20.47 LIG-0.35  N 
ATOM      4 H    VAL C   4      -4.892   0.214 -49.032  1.00 20.47 LIG 0.16  HD
ENDROOT
BRANCH 3 5
ATOM      5  CA  VAL C   4      -4.013   1.420 -47.742  1.00 19.37 LIG 0.18  C 
BRANCH 5 6
ATOM      6  CB  VAL C   4      -4.380   2.875 -48.100  1.00 19.50 LIG 0.01  C 
ATOM      7  CG2 VAL C   4      -3.391   3.853 -47.449  1.00 18.97 LIG 0.01  C 
ATOM      8  CG1 VAL C   4      -5.801   3.189 -47.671  1.00 20.24 LIG 0.01  C 
ENDBRANCH 5 6
BRANCH 5 9
ATOM      9  C   VAL C   4      -3.926   1.232 -46.233  1.00 18.84 LIG 0.24  C 
ATOM     10  N   VAL C   5      -3.318   0.129 -45.795  1.00 18.10 LIG-0.35  N 
ATOM     11 H    VAL C   5      -2.912  -0.421 -46.317  1.00 18.10 LIG 0.16  HD
ATOM     12 O    VAL C   4      -4.395   2.097 -45.486  1.00 20.23 LIG-0.27  OA
BRANCH 10 13
ATOM     13  CA  VAL C   5      -3.276  -0.262 -44.391  1.00 17.69 LIG 0.18  C 
BRANCH 13 14
ATOM     14  CB  VAL C   5      -2.895  -1.757 -44.248  1.00 18.27 LIG 0.01  C 
ATOM     15  CG2 VAL C   5      -3.582  -2.577 -45.378  1.00 18.63 LIG 0.01  C 
ATOM     16  CG1 VAL C   5      -3.271  -2.298 -42.860  1.00 19.20 LIG 0.01  C 
ENDBRANCH 13 14
BRANCH 13 17
ATOM     17  C   VAL C   5      -2.262   0.619 -43.654  1.00 17.55 LIG 0.24  C 
ATOM     18 O    VAL C   5      -2.392   0.856 -42.441  1.00 16.61 LIG-0.27  OA
ATOM     19  N   CYS C   6      -1.254   1.074 -44.388  1.00 17.33 LIG-0.34  N 
ATOM     20 H    CYS C   6      -1.163   0.903 -45.225  1.00 17.33 LIG 0.16  HD
BRANCH 19 21
ATOM     21  CA  CYS C   6      -0.192   1.919 -43.837  1.00 17.84 LIG 0.18  C 
BRANCH 21 22
ATOM     22  CB  CYS C   6       0.678   2.483 -44.954  1.00 18.00 LIG 0.10  C 
BRANCH 22 23
ATOM     23 SG   CYS C   6       0.184   1.894 -46.572  1.00 23.34 LIG-0.18  SA
ATOM     24 HG   CYS C   6      -1.006   1.742 -46.597  1.00 23.34 LIG 0.10  HD
ENDBRANCH 22 23
ENDBRANCH 21 22
BRANCH 21 25
ATOM     25  C   CYS C   6      -0.799   3.055 -43.041  1.00 17.78 LIG 0.24  C 
ATOM     26 O    CYS C   6      -0.175   3.566 -42.110  1.00 18.30 LIG-0.27  OA
ATOM     27  N   CYS C   7      -2.018   3.459 -43.408  1.00 17.97 LIG-0.34  N 
ATOM     28 H    CYS C   7      -2.485   3.089 -44.029  1.00 17.97 LIG 0.16  HD
BRANCH 27 29
ATOM     29  CA  CYS C   7      -2.664   4.603 -42.753  1.00 18.46 LIG 0.19  C 
BRANCH 29 30
ATOM     30  CB  CYS C   7      -4.067   4.773 -43.319  1.00 18.37 LIG 0.11  C 
BRANCH 30 31
ATOM     31 SG   CYS C   7      -4.062   5.729 -44.858  1.00 21.24 LIG-0.18  SA
ATOM     32 HG   CYS C   7      -3.524   6.785 -44.672  1.00 21.24 LIG 0.10  HD
ENDBRANCH 30 31
ENDBRANCH 29 30
BRANCH 29 33
ATOM     33  C   CYS C   7      -2.685   4.492 -41.226  1.00 18.64 LIG 0.20  C 
ATOM     34 OXT  CYS C   7      -1.771   4.979 -40.541  1.00 18.72 LIG-0.65  OA
ATOM     35 O    CYS C   7      -3.646   3.963 -40.642  1.00 19.07 LIG-0.65  OA
ENDBRANCH 29 33
ENDBRANCH 27 29
ENDBRANCH 21 25
ENDBRANCH 19 21
ENDBRANCH 13 17
ENDBRANCH 10 13
ENDBRANCH 5 9
ENDBRANCH 3 5
BRANCH 1 36
ATOM     36  CA  ASP C   3      -7.007  -0.850 -48.149  1.00 23.26 LIG 0.19  C 
BRANCH 36 37
ATOM     37  N   ASP C   3      -6.716  -0.908 -49.565  1.00 23.08 LIG-0.35  N 
ATOM     38  C   GLU C   2      -7.378  -0.126 -50.404  1.00 23.46 LIG 0.24  C 
ATOM     39 O    GLU C   2      -8.323   0.568 -50.045  1.00 23.95 LIG-0.27  OA
ATOM     40 H    ASP C   3      -6.105  -1.469 -49.793  1.00 23.08 LIG 0.16  HD
BRANCH 38 41
ATOM     41  CA  GLU C   2      -6.911  -0.125 -51.849  1.00 23.56 LIG 0.18  C 
BRANCH 41 42
ATOM     42  N   GLU C   2      -7.966   0.437 -52.704  1.00 23.07 LIG-0.35  N 
ATOM     43  C   THR C   1      -8.067   0.088 -53.987  1.00 23.69 LIG 0.24  C 
ATOM     44 O    THR C   1      -7.282  -0.676 -54.542  1.00 24.29 LIG-0.27  OA
ATOM     45 H    GLU C   2      -8.492   0.991 -52.310  1.00 23.07 LIG 0.16  HD
BRANCH 43 46
ATOM     46  CA  THR C   1      -9.206   0.700 -54.785  1.00 23.89 LIG 0.20  C 
BRANCH 46 47
ATOM     47  CB  THR C   1     -10.493  -0.100 -54.522  1.00 24.32 LIG 0.15  C 
ATOM     48  CG2 THR C   1     -10.173  -1.393 -53.753  1.00 24.71 LIG 0.04  C 
BRANCH 47 49
ATOM     49 OG1  THR C   1     -11.399   0.695 -53.744  1.00 24.87 LIG-0.39  OA
ATOM     50 HG1  THR C   1     -10.984   1.340 -53.402  1.00 24.87 LIG 0.21  HD
ENDBRANCH 47 49
ENDBRANCH 46 47
BRANCH 46 51
ATOM     51  N   THR C   1      -8.835   0.690 -56.196  1.00 24.03 LIG-0.35  N 
ATOM     52 H    THR C   1      -9.063  -0.025 -56.616  1.00 24.03 LIG 0.16  HD
ATOM     53  C   ACE C   0      -8.200   1.710 -56.766  1.00 24.28 LIG 0.21  C 
ATOM     54 O    ACE C   0      -7.877   2.729 -56.142  1.00 24.50 LIG-0.27  OA
ATOM     55  CH3 ACE C   0      -8.121   1.643 -58.258  1.00 24.98 LIG 0.12  C 
ENDBRANCH 46 51
ENDBRANCH 43 46
ENDBRANCH 41 42
BRANCH 41 56
ATOM     56  CB  GLU C   2      -5.598   0.664 -51.967  1.00 23.91 LIG 0.04  C 
BRANCH 56 57
ATOM     57  CG  GLU C   2      -5.530   1.602 -53.160  1.00 27.13 LIG 0.12  C 
BRANCH 57 58
ATOM     58  CD  GLU C   2      -5.562   3.070 -52.775  1.00 29.05 LIG 0.17  C 
ATOM     59 OE2  GLU C   2      -4.878   3.439 -51.802  1.00 31.00 LIG-0.65  OA
ATOM     60 OE1  GLU C   2      -6.271   3.854 -53.435  1.00 31.26 LIG-0.65  OA
ENDBRANCH 57 58
ENDBRANCH 56 57
ENDBRANCH 41 56
ENDBRANCH 38 41
ENDBRANCH 36 37
BRANCH 36 61
ATOM     61  CB  ASP C   3      -6.895  -2.232 -47.520  1.00 24.55 LIG 0.15  C 
BRANCH 61 62
ATOM     62  CG  ASP C   3      -7.643  -2.333 -46.200  1.00 28.69 LIG 0.17  C 
ATOM     63 OD2  ASP C   3      -8.690  -1.668 -46.057  1.00 33.40 LIG-0.65  OA
ATOM     64 OD1  ASP C   3      -7.176  -3.068 -45.300  1.00 33.84 LIG-0.65  OA
ENDBRANCH 61 62
ENDBRANCH 36 61
ENDBRANCH 1 36
TORSDOF 27
ENDMDL
MODEL 27
USER: ADFR SOLUTION from run 161
USER: SCORE 18.743079 LL:  -5.380 LR: -16.034 RR:   0.000 FEB:  -7.980
USER: RMSD 13.466778
USER: SEED 160
USER: STATUS no improvement in best in 1 clusters for 5 generations
USER: GENES 29
USER: genes 0 Translation |==|  0.65485 0.65833 0.59538
USER: genes 1 Rotation |==|  0.32142 0.93899 0.36676 0.58743
USER: genes 2 Torsion [C]-N--CA-[CB] |==|  0.51994
USER: genes 3 Torsion [N]-CA--CB-[CG2] |==|  0.19422
USER: genes 4 Torsion [N]-CA--C-[N] |==|  0.39916
USER: genes 5 Torsion [C]-N--CA-[C] |==|  0.77972
USER: genes 6 Torsion [N]-CA--CB-[CG2] |==|  0.88858
USER: genes 7 Torsion [N]-CA--C-[N] |==|  0.35047
USER: genes 8 Torsion [C]-N--CA-[CB] |==|  0.40700
USER: genes 9 Torsion [N]-CA--CB-[SG] |==|  0.14918
USER: genes 10 Torsion [CA]-CB--SG-[HG] |==|  0.90552
USER: genes 11 Torsion [N]-CA--C-[N] |==|  0.93065
USER: genes 12 Torsion [C]-N--CA-[C] |==|  0.61021
USER: genes 13 Torsion [N]-CA--CB-[SG] |==|  0.02857
USER: genes 14 Torsion [CA]-CB--SG-[HG] |==|  0.22612
USER: genes 15 Torsion [N]-CA--C-[OXT] |==|  0.53119
USER: genes 16 Torsion [N]-C--CA-[N] |==|  0.05000
USER: genes 17 Torsion [C]-CA--N-[C] |==|  0.77176
USER: genes 18 Torsion [N]-C--CA-[N] |==|  0.15443
USER: genes 19 Torsion [C]-CA--N-[C] |==|  0.74758
USER: genes 20 Torsion [N]-C--CA-[N] |==|  0.43722
USER: genes 21 Torsion [C]-CA--CB-[CG2] |==|  0.20639
USER: genes 22 Torsion [CA]-CB--OG1-[HG1] |==|  0.33052
USER: genes 23 Torsion [C]-CA--N-[C] |==|  0.61883
USER: genes 24 Torsion [C]-CA--CB-[CG] |==|  0.43079
USER: genes 25 Torsion [CA]-CB--CG-[CD] |==|  0.77339
USER: genes 26 Torsion [CB]-CG--CD-[OE2] |==|  0.82827
USER: genes 27 Torsion [C]-CA--CB-[CG] |==|  0.55280
USER: genes 28 Torsion [CA]-CB--CG-[OD2] |==|  0.26590
ROOT
ATOM      1  C   ASP C   3      -4.430   3.092 -47.644  1.00 21.95 LIG 0.24  C 
ATOM      2 O    ASP C   3      -4.826   3.844 -48.534  1.00 22.02 LIG-0.27  OA
ATOM      3  N   VAL C   4      -3.754   1.970 -47.855  1.00 20.47 LIG-0.35  N 
ATOM      4 H    VAL C   4      -3.476   1.457 -47.224  1.00 20.47 LIG 0.16  HD
ENDROOT
BRANCH 3 5
ATOM      5  CA  VAL C   4      -3.419   1.499 -49.195  1.00 19.37 LIG 0.18  C 
BRANCH 5 6
ATOM      6  CB  VAL C   4      -2.793   0.089 -49.147  1.00 19.50 LIG 0.01  C 
ATOM      7  CG2 VAL C   4      -3.848  -0.953 -48.753  1.00 18.97 LIG 0.01  C 
ATOM      8  CG1 VAL C   4      -1.623   0.057 -48.182  1.00 20.24 LIG 0.01  C 
ENDBRANCH 5 6
BRANCH 5 9
ATOM      9  C   VAL C   4      -4.711   1.497 -50.002  1.00 18.84 LIG 0.24  C 
ATOM     10  N   VAL C   5      -4.621   1.836 -51.288  1.00 18.10 LIG-0.35  N 
ATOM     11 H    VAL C   5      -3.870   1.971 -51.686  1.00 18.10 LIG 0.16  HD
ATOM     12 O    VAL C   4      -5.769   1.172 -49.453  1.00 20.23 LIG-0.27  OA
BRANCH 10 13
ATOM     13  CA  VAL C   5      -5.779   2.016 -52.155  1.00 17.69 LIG 0.18  C 
BRANCH 13 14
ATOM     14  CB  VAL C   5      -5.417   2.887 -53.383  1.00 18.27 LIG 0.01  C 
ATOM     15  CG2 VAL C   5      -4.482   4.049 -52.937  1.00 18.63 LIG 0.01  C 
ATOM     16  CG1 VAL C   5      -6.678   3.424 -54.078  1.00 19.20 LIG 0.01  C 
ENDBRANCH 13 14
BRANCH 13 17
ATOM     17  C   VAL C   5      -6.286   0.642 -52.608  1.00 17.55 LIG 0.24  C 
ATOM     18 O    VAL C   5      -5.514  -0.176 -53.133  1.00 16.61 LIG-0.27  OA
ATOM     19  N   CYS C   6      -7.571   0.399 -52.380  1.00 17.33 LIG-0.34  N 
ATOM     20 H    CYS C   6      -8.102   0.966 -52.010  1.00 17.33 LIG 0.16  HD
BRANCH 19 21
ATOM     21  CA  CYS C   6      -8.214  -0.866 -52.741  1.00 17.84 LIG 0.18  C 
BRANCH 21 22
ATOM     22  CB  CYS C   6      -9.302  -1.220 -51.735  1.00 18.00 LIG 0.10  C 
BRANCH 22 23
ATOM     23 SG   CYS C   6     -10.490   0.101 -51.514  1.00 23.34 LIG-0.18  SA
ATOM     24 HG   CYS C   6      -9.936   1.161 -51.621  1.00 23.34 LIG 0.10  HD
ENDBRANCH 22 23
ENDBRANCH 21 22
BRANCH 21 25
ATOM     25  C   CYS C   6      -8.815  -0.762 -54.126  1.00 17.78 LIG 0.24  C 
ATOM     26 O    CYS C   6      -8.993  -1.774 -54.805  1.00 18.30 LIG-0.27  OA
ATOM     27  N   CYS C   7      -9.136   0.464 -54.549  1.00 17.97 LIG-0.34  N 
ATOM     28 H    CYS C   7      -8.983   1.185 -54.105  1.00 17.97 LIG 0.16  HD
BRANCH 27 29
ATOM     29  CA  CYS C   7      -9.796   0.667 -55.844  1.00 18.46 LIG 0.19  C 
BRANCH 29 30
ATOM     30  CB  CYS C   7     -11.301   0.740 -55.630  1.00 18.37 LIG 0.11  C 
BRANCH 30 31
ATOM     31 SG   CYS C   7     -11.728   0.854 -53.873  1.00 21.24 LIG-0.18  SA
ATOM     32 HG   CYS C   7     -11.613   1.990 -53.506  1.00 21.24 LIG 0.10  HD
ENDBRANCH 30 31
ENDBRANCH 29 30
BRANCH 29 33
ATOM     33  C   CYS C   7      -9.278   1.893 -56.601  1.00 18.64 LIG 0.20  C 
ATOM     34 OXT  CYS C   7      -9.871   2.316 -57.606  1.00 18.72 LIG-0.65  OA
ATOM     35 O    CYS C   7      -8.287   2.520 -56.191  1.00 19.07 LIG-0.65  OA
ENDBRANCH 29 33
ENDBRANCH 27 29
ENDBRANCH 21 25
ENDBRANCH 19 21
ENDBRANCH 13 17
ENDBRANCH 10 13
ENDBRANCH 5 9
ENDBRANCH 3 5
BRANCH 1 36
ATOM     36  CA  ASP C   3      -4.692   3.421 -46.200  1.00 23.26 LIG 0.19  C 
BRANCH 36 37
ATOM     37  N   ASP C   3      -3.789   2.660 -45.365  1.00 23.08 LIG-0.35  N 
ATOM     38  C   GLU C   2      -4.077   1.405 -45.060  1.00 23.46 LIG 0.24  C 
ATOM     39 O    GLU C   2      -5.148   0.887 -45.357  1.00 23.95 LIG-0.27  OA
ATOM     40 H    ASP C   3      -3.087   3.082 -45.103  1.00 23.08 LIG 0.16  HD
BRANCH 38 41
ATOM     41  CA  GLU C   2      -3.011   0.621 -44.315  1.00 23.56 LIG 0.18  C 
BRANCH 41 42
ATOM     42  N   GLU C   2      -2.642   1.340 -43.087  1.00 23.07 LIG-0.35  N 
ATOM     43  C   THR C   1      -1.645   2.225 -43.084  1.00 23.69 LIG 0.24  C 
ATOM     44 O    THR C   1      -0.955   2.468 -44.071  1.00 24.29 LIG-0.27  OA
ATOM     45 H    GLU C   2      -3.115   1.141 -42.397  1.00 23.07 LIG 0.16  HD
BRANCH 43 46
ATOM     46  CA  THR C   1      -1.354   2.939 -41.775  1.00 23.89 LIG 0.20  C 
BRANCH 46 47
ATOM     47  CB  THR C   1      -2.358   4.091 -41.594  1.00 24.32 LIG 0.15  C 
ATOM     48  CG2 THR C   1      -3.742   3.540 -41.211  1.00 24.71 LIG 0.04  C 
BRANCH 47 49
ATOM     49 OG1  THR C   1      -1.897   4.968 -40.557  1.00 24.87 LIG-0.39  OA
ATOM     50 HG1  THR C   1      -1.771   5.736 -40.874  1.00 24.87 LIG 0.21  HD
ENDBRANCH 47 49
ENDBRANCH 46 47
BRANCH 46 51
ATOM     51  N   THR C   1       0.024   3.415 -41.807  1.00 24.03 LIG-0.35  N 
ATOM     52 H    THR C   1       0.259   3.767 -42.556  1.00 24.03 LIG 0.16  HD
ATOM     53  C   ACE C   0       0.833   3.305 -40.757  1.00 24.28 LIG 0.21  C 
ATOM     54 O    ACE C   0       0.477   2.790 -39.690  1.00 24.50 LIG-0.27  OA
ATOM     55  CH3 ACE C   0       2.119   4.061 -40.876  1.00 24.98 LIG 0.12  C 
ENDBRANCH 46 51
ENDBRANCH 43 46
ENDBRANCH 41 42
BRANCH 41 56
ATOM     56  CB  GLU C   2      -3.525  -0.795 -44.016  1.00 23.91 LIG 0.04  C 
BRANCH 56 57
ATOM     57  CG  GLU C   2      -2.436  -1.838 -43.834  1.00 27.13 LIG 0.12  C 
BRANCH 57 58
ATOM     58  CD  GLU C   2      -1.897  -2.381 -45.146  1.00 29.05 LIG 0.17  C 
ATOM     59 OE2  GLU C   2      -2.683  -2.982 -45.902  1.00 31.00 LIG-0.65  OA
ATOM     60 OE1  GLU C   2      -0.693  -2.215 -45.421  1.00 31.26 LIG-0.65  OA
ENDBRANCH 57 58
ENDBRANCH 56 57
ENDBRANCH 41 56
ENDBRANCH 38 41
ENDBRANCH 36 37
BRANCH 36 61
ATOM     61  CB  ASP C   3      -4.524   4.914 -45.955  1.00 24.55 LIG 0.15  C 
BRANCH 61 62
ATOM     62  CG  ASP C   3      -4.320   5.243 -44.484  1.00 28.69 LIG 0.17  C 
ATOM     63 OD2  ASP C   3      -3.152   5.377 -44.061  1.00 33.40 LIG-0.65  OA
ATOM     64 OD1  ASP C   3      -5.326   5.353 -43.748  1.00 33.84 LIG-0.65  OA
ENDBRANCH 61 62
ENDBRANCH 36 61
ENDBRANCH 1 36
TORSDOF 27
ENDMDL
MODEL 28
USER: ADFR SOLUTION from run 98
USER: SCORE 18.614160 LL:  -4.721 LR: -16.024 RR:   0.000 FEB:  -7.969
USER: RMSD 14.233496
USER: SEED 97
USER: STATUS no improvement in best in 5 clusters for 5 generations
USER: GENES 29
USER: genes 0 Translation |==|  0.67821 0.62689 0.59482
USER: genes 1 Rotation |==|  0.65596 0.94994 0.35366 0.54256
USER: genes 2 Torsion [C]-N--CA-[CB] |==|  0.49520
USER: genes 3 Torsion [N]-CA--CB-[CG2] |==|  0.62445
USER: genes 4 Torsion [N]-CA--C-[N] |==|  0.46694
USER: genes 5 Torsion [C]-N--CA-[C] |==|  0.65651
USER: genes 6 Torsion [N]-CA--CB-[CG2] |==|  0.44000
USER: genes 7 Torsion [N]-CA--C-[N] |==|  0.85258
USER: genes 8 Torsion [C]-N--CA-[CB] |==|  0.81108
USER: genes 9 Torsion [N]-CA--CB-[SG] |==|  0.75403
USER: genes 10 Torsion [CA]-CB--SG-[HG] |==|  0.63697
USER: genes 11 Torsion [N]-CA--C-[N] |==|  0.52714
USER: genes 12 Torsion [C]-N--CA-[C] |==|  0.53948
USER: genes 13 Torsion [N]-CA--CB-[SG] |==|  0.77620
USER: genes 14 Torsion [CA]-CB--SG-[HG] |==|  0.21348
USER: genes 15 Torsion [N]-CA--C-[OXT] |==|  0.90720
USER: genes 16 Torsion [N]-C--CA-[N] |==|  0.38532
USER: genes 17 Torsion [C]-CA--N-[C] |==|  0.86042
USER: genes 18 Torsion [N]-C--CA-[N] |==|  0.12551
USER: genes 19 Torsion [C]-CA--N-[C] |==|  0.15085
USER: genes 20 Torsion [N]-C--CA-[N] |==|  0.89492
USER: genes 21 Torsion [C]-CA--CB-[CG2] |==|  0.21753
USER: genes 22 Torsion [CA]-CB--OG1-[HG1] |==|  0.40639
USER: genes 23 Torsion [C]-CA--N-[C] |==|  0.66667
USER: genes 24 Torsion [C]-CA--CB-[CG] |==|  0.25482
USER: genes 25 Torsion [CA]-CB--CG-[CD] |==|  0.03701
USER: genes 26 Torsion [CB]-CG--CD-[OE2] |==|  0.19356
USER: genes 27 Torsion [C]-CA--CB-[CG] |==|  0.57050
USER: genes 28 Torsion [CA]-CB--CG-[OD2] |==|  0.20934
ROOT
ATOM      1  C   ASP C   3      -3.869   2.573 -47.660  1.00 21.95 LIG 0.24  C 
ATOM      2 O    ASP C   3      -3.015   3.096 -48.376  1.00 22.02 LIG-0.27  OA
ATOM      3  N   VAL C   4      -4.746   1.669 -48.076  1.00 20.47 LIG-0.35  N 
ATOM      4 H    VAL C   4      -5.332   1.304 -47.563  1.00 20.47 LIG 0.16  HD
ENDROOT
BRANCH 3 5
ATOM      5  CA  VAL C   4      -4.794   1.206 -49.459  1.00 19.37 LIG 0.18  C 
BRANCH 5 6
ATOM      6  CB  VAL C   4      -5.881   0.126 -49.644  1.00 19.50 LIG 0.01  C 
ATOM      7  CG2 VAL C   4      -5.340  -1.042 -50.481  1.00 18.97 LIG 0.01  C 
ATOM      8  CG1 VAL C   4      -7.118   0.719 -50.292  1.00 20.24 LIG 0.01  C 
ENDBRANCH 5 6
BRANCH 5 9
ATOM      9  C   VAL C   4      -5.081   2.425 -50.326  1.00 18.84 LIG 0.24  C 
ATOM     10  N   VAL C   5      -4.927   2.280 -51.643  1.00 18.10 LIG-0.35  N 
ATOM     11 H    VAL C   5      -4.759   1.522 -52.014  1.00 18.10 LIG 0.16  HD
ATOM     12 O    VAL C   4      -5.453   3.475 -49.793  1.00 20.23 LIG-0.27  OA
BRANCH 10 13
ATOM     13  CA  VAL C   5      -5.027   3.383 -52.590  1.00 17.69 LIG 0.18  C 
BRANCH 13 14
ATOM     14  CB  VAL C   5      -3.664   3.643 -53.278  1.00 18.27 LIG 0.01  C 
ATOM     15  CG2 VAL C   5      -3.895   4.399 -54.618  1.00 18.63 LIG 0.01  C 
ATOM     16  CG1 VAL C   5      -2.894   2.332 -53.504  1.00 19.20 LIG 0.01  C 
ENDBRANCH 13 14
BRANCH 13 17
ATOM     17  C   VAL C   5      -6.096   3.052 -53.637  1.00 17.55 LIG 0.24  C 
ATOM     18 O    VAL C   5      -7.013   3.854 -53.881  1.00 16.61 LIG-0.27  OA
ATOM     19  N   CYS C   6      -5.955   1.887 -54.256  1.00 17.33 LIG-0.34  N 
ATOM     20 H    CYS C   6      -5.315   1.337 -54.089  1.00 17.33 LIG 0.16  HD
BRANCH 19 21
ATOM     21  CA  CYS C   6      -6.881   1.422 -55.290  1.00 17.84 LIG 0.18  C 
BRANCH 21 22
ATOM     22  CB  CYS C   6      -8.248   1.118 -54.688  1.00 18.00 LIG 0.10  C 
BRANCH 22 23
ATOM     23 SG   CYS C   6      -8.379  -0.569 -54.098  1.00 23.34 LIG-0.18  SA
ATOM     24 HG   CYS C   6      -9.387  -1.064 -54.522  1.00 23.34 LIG 0.10  HD
ENDBRANCH 22 23
ENDBRANCH 21 22
BRANCH 21 25
ATOM     25  C   CYS C   6      -7.022   2.476 -56.367  1.00 17.78 LIG 0.24  C 
ATOM     26 O    CYS C   6      -6.269   3.451 -56.386  1.00 18.30 LIG-0.27  OA
ATOM     27  N   CYS C   7      -7.984   2.283 -57.273  1.00 17.97 LIG-0.34  N 
ATOM     28 H    CYS C   7      -8.545   1.631 -57.253  1.00 17.97 LIG 0.16  HD
BRANCH 27 29
ATOM     29  CA  CYS C   7      -8.155   3.206 -58.402  1.00 18.46 LIG 0.19  C 
BRANCH 29 30
ATOM     30  CB  CYS C   7      -6.979   3.047 -59.355  1.00 18.37 LIG 0.11  C 
BRANCH 30 31
ATOM     31 SG   CYS C   7      -5.518   3.954 -58.783  1.00 21.24 LIG-0.18  SA
ATOM     32 HG   CYS C   7      -4.994   3.346 -57.892  1.00 21.24 LIG 0.10  HD
ENDBRANCH 30 31
ENDBRANCH 29 30
BRANCH 29 33
ATOM     33  C   CYS C   7      -9.492   3.034 -59.127  1.00 18.64 LIG 0.20  C 
ATOM     34 OXT  CYS C   7     -10.023   1.916 -59.224  1.00 18.72 LIG-0.65  OA
ATOM     35 O    CYS C   7     -10.097   4.018 -59.583  1.00 19.07 LIG-0.65  OA
ENDBRANCH 29 33
ENDBRANCH 27 29
ENDBRANCH 21 25
ENDBRANCH 19 21
ENDBRANCH 13 17
ENDBRANCH 10 13
ENDBRANCH 5 9
ENDBRANCH 3 5
BRANCH 1 36
ATOM     36  CA  ASP C   3      -3.965   2.938 -46.204  1.00 23.26 LIG 0.19  C 
BRANCH 36 37
ATOM     37  N   ASP C   3      -2.633   3.051 -45.652  1.00 23.08 LIG-0.35  N 
ATOM     38  C   GLU C   2      -1.757   2.078 -45.842  1.00 23.46 LIG 0.24  C 
ATOM     39 O    GLU C   2      -2.065   1.015 -46.371  1.00 23.95 LIG-0.27  OA
ATOM     40 H    ASP C   3      -2.478   3.775 -45.212  1.00 23.08 LIG 0.16  HD
BRANCH 38 41
ATOM     41  CA  GLU C   2      -0.337   2.335 -45.372  1.00 23.56 LIG 0.18  C 
BRANCH 41 42
ATOM     42  N   GLU C   2      -0.365   2.932 -44.029  1.00 23.07 LIG-0.35  N 
ATOM     43  C   THR C   1      -1.016   2.338 -43.029  1.00 23.69 LIG 0.24  C 
ATOM     44 O    THR C   1      -1.656   1.298 -43.163  1.00 24.29 LIG-0.27  OA
ATOM     45 H    GLU C   2       0.064   3.673 -43.956  1.00 23.07 LIG 0.16  HD
BRANCH 43 46
ATOM     46  CA  THR C   1      -0.967   3.016 -41.670  1.00 23.89 LIG 0.20  C 
BRANCH 46 47
ATOM     47  CB  THR C   1      -2.062   4.095 -41.604  1.00 24.32 LIG 0.15  C 
ATOM     48  CG2 THR C   1      -3.434   3.450 -41.345  1.00 24.71 LIG 0.04  C 
BRANCH 47 49
ATOM     49 OG1  THR C   1      -1.766   5.011 -40.541  1.00 24.87 LIG-0.39  OA
ATOM     50 HG1  THR C   1      -2.024   5.782 -40.755  1.00 24.87 LIG 0.21  HD
ENDBRANCH 47 49
ENDBRANCH 46 47
BRANCH 46 51
ATOM     51  N   THR C   1       0.366   3.578 -41.485  1.00 24.03 LIG-0.35  N 
ATOM     52 H    THR C   1       0.589   4.162 -42.075  1.00 24.03 LIG 0.16  HD
ATOM     53  C   ACE C   0       1.155   3.206 -40.481  1.00 24.28 LIG 0.21  C 
ATOM     54 O    ACE C   0       0.818   2.359 -39.644  1.00 24.50 LIG-0.27  OA
ATOM     55  CH3 ACE C   0       2.374   4.053 -40.296  1.00 24.98 LIG 0.12  C 
ENDBRANCH 46 51
ENDBRANCH 43 46
ENDBRANCH 41 42
BRANCH 41 56
ATOM     56  CB  GLU C   2       0.461   1.022 -45.398  1.00 23.91 LIG 0.04  C 
BRANCH 56 57
ATOM     57  CG  GLU C   2       1.207   0.761 -46.695  1.00 27.13 LIG 0.12  C 
BRANCH 57 58
ATOM     58  CD  GLU C   2       1.289   1.979 -47.598  1.00 29.05 LIG 0.17  C 
ATOM     59 OE2  GLU C   2       2.009   2.930 -47.240  1.00 31.00 LIG-0.65  OA
ATOM     60 OE1  GLU C   2       0.636   1.992 -48.658  1.00 31.26 LIG-0.65  OA
ENDBRANCH 57 58
ENDBRANCH 56 57
ENDBRANCH 41 56
ENDBRANCH 38 41
ENDBRANCH 36 37
BRANCH 36 61
ATOM     61  CB  ASP C   3      -4.733   4.241 -46.031  1.00 24.55 LIG 0.15  C 
BRANCH 61 62
ATOM     62  CG  ASP C   3      -4.359   4.971 -44.750  1.00 28.69 LIG 0.17  C 
ATOM     63 OD2  ASP C   3      -3.267   5.575 -44.707  1.00 33.40 LIG-0.65  OA
ATOM     64 OD1  ASP C   3      -5.152   4.928 -43.781  1.00 33.84 LIG-0.65  OA
ENDBRANCH 61 62
ENDBRANCH 36 61
ENDBRANCH 1 36
TORSDOF 27
ENDMDL
MODEL 29
USER: ADFR SOLUTION from run 112
USER: SCORE 18.161186 LL:  -4.543 LR: -15.908 RR:   0.000 FEB:  -7.854
USER: RMSD 13.326942
USER: SEED 111
USER: STATUS searching
USER: GENES 29
USER: genes 0 Translation |==|  0.69955 0.65067 0.73830
USER: genes 1 Rotation |==|  0.69772 0.06062 0.42046 0.60736
USER: genes 2 Torsion [C]-N--CA-[CB] |==|  0.22627
USER: genes 3 Torsion [N]-CA--CB-[CG2] |==|  0.76976
USER: genes 4 Torsion [N]-CA--C-[N] |==|  0.38811
USER: genes 5 Torsion [C]-N--CA-[C] |==|  0.71745
USER: genes 6 Torsion [N]-CA--CB-[CG2] |==|  0.68526
USER: genes 7 Torsion [N]-CA--C-[N] |==|  0.87557
USER: genes 8 Torsion [C]-N--CA-[CB] |==|  0.85852
USER: genes 9 Torsion [N]-CA--CB-[SG] |==|  0.57460
USER: genes 10 Torsion [CA]-CB--SG-[HG] |==|  0.87903
USER: genes 11 Torsion [N]-CA--C-[N] |==|  0.36326
USER: genes 12 Torsion [C]-N--CA-[C] |==|  0.73677
USER: genes 13 Torsion [N]-CA--CB-[SG] |==|  0.13328
USER: genes 14 Torsion [CA]-CB--SG-[HG] |==|  0.10400
USER: genes 15 Torsion [N]-CA--C-[OXT] |==|  0.33498
USER: genes 16 Torsion [N]-C--CA-[N] |==|  0.99626
USER: genes 17 Torsion [C]-CA--N-[C] |==|  0.20731
USER: genes 18 Torsion [N]-C--CA-[N] |==|  0.12664
USER: genes 19 Torsion [C]-CA--N-[C] |==|  0.63424
USER: genes 20 Torsion [N]-C--CA-[N] |==|  0.46073
USER: genes 21 Torsion [C]-CA--CB-[CG2] |==|  0.29068
USER: genes 22 Torsion [CA]-CB--OG1-[HG1] |==|  0.35745
USER: genes 23 Torsion [C]-CA--N-[C] |==|  0.79571
USER: genes 24 Torsion [C]-CA--CB-[CG] |==|  0.22442
USER: genes 25 Torsion [CA]-CB--CG-[CD] |==|  0.60146
USER: genes 26 Torsion [CB]-CG--CD-[OE2] |==|  0.42533
USER: genes 27 Torsion [C]-CA--CB-[CG] |==|  0.35537
USER: genes 28 Torsion [CA]-CB--CG-[OD2] |==|  0.77344
ROOT
ATOM      1  C   ASP C   3      -3.357   2.965 -43.678  1.00 21.95 LIG 0.24  C 
ATOM      2 O    ASP C   3      -4.133   3.880 -43.402  1.00 22.02 LIG-0.27  OA
ATOM      3  N   VAL C   4      -3.453   2.199 -44.757  1.00 20.47 LIG-0.35  N 
ATOM      4 H    VAL C   4      -2.899   1.568 -44.942  1.00 20.47 LIG 0.16  HD
ENDROOT
BRANCH 3 5
ATOM      5  CA  VAL C   4      -4.522   2.360 -45.737  1.00 19.37 LIG 0.18  C 
BRANCH 5 6
ATOM      6  CB  VAL C   4      -4.202   3.505 -46.722  1.00 19.50 LIG 0.01  C 
ATOM      7  CG2 VAL C   4      -4.591   4.860 -46.114  1.00 18.97 LIG 0.01  C 
ATOM      8  CG1 VAL C   4      -4.916   3.288 -48.043  1.00 20.24 LIG 0.01  C 
ENDBRANCH 5 6
BRANCH 5 9
ATOM      9  C   VAL C   4      -4.659   1.031 -46.469  1.00 18.84 LIG 0.24  C 
ATOM     10  N   VAL C   5      -5.896   0.616 -46.742  1.00 18.10 LIG-0.35  N 
ATOM     11 H    VAL C   5      -6.594   1.098 -46.598  1.00 18.10 LIG 0.16  HD
ATOM     12 O    VAL C   4      -3.642   0.408 -46.791  1.00 20.23 LIG-0.27  OA
BRANCH 10 13
ATOM     13  CA  VAL C   5      -6.198  -0.692 -47.310  1.00 17.69 LIG 0.18  C 
BRANCH 13 14
ATOM     14  CB  VAL C   5      -7.413  -1.334 -46.595  1.00 18.27 LIG 0.01  C 
ATOM     15  CG2 VAL C   5      -6.945  -2.594 -45.808  1.00 18.63 LIG 0.01  C 
ATOM     16  CG1 VAL C   5      -8.527  -1.683 -47.593  1.00 19.20 LIG 0.01  C 
ENDBRANCH 13 14
BRANCH 13 17
ATOM     17  C   VAL C   5      -6.483  -0.537 -48.807  1.00 17.55 LIG 0.24  C 
ATOM     18 O    VAL C   5      -6.003  -1.335 -49.629  1.00 16.61 LIG-0.27  OA
ATOM     19  N   CYS C   6      -7.277   0.474 -49.141  1.00 17.33 LIG-0.34  N 
ATOM     20 H    CYS C   6      -7.613   1.020 -48.568  1.00 17.33 LIG 0.16  HD
BRANCH 19 21
ATOM     21  CA  CYS C   6      -7.658   0.757 -50.526  1.00 17.84 LIG 0.18  C 
BRANCH 21 22
ATOM     22  CB  CYS C   6      -6.425   0.817 -51.419  1.00 18.00 LIG 0.10  C 
BRANCH 22 23
ATOM     23 SG   CYS C   6      -6.667   1.859 -52.856  1.00 23.34 LIG-0.18  SA
ATOM     24 HG   CYS C   6      -7.747   1.641 -53.332  1.00 23.34 LIG 0.10  HD
ENDBRANCH 22 23
ENDBRANCH 21 22
BRANCH 21 25
ATOM     25  C   CYS C   6      -8.601  -0.315 -51.029  1.00 17.78 LIG 0.24  C 
ATOM     26 O    CYS C   6      -8.328  -1.506 -50.877  1.00 18.30 LIG-0.27  OA
ATOM     27  N   CYS C   7      -9.721   0.104 -51.625  1.00 17.97 LIG-0.34  N 
ATOM     28 H    CYS C   7      -9.910   0.930 -51.776  1.00 17.97 LIG 0.16  HD
BRANCH 27 29
ATOM     29  CA  CYS C   7     -10.737  -0.852 -52.080  1.00 18.46 LIG 0.19  C 
BRANCH 29 30
ATOM     30  CB  CYS C   7     -12.120  -0.283 -51.790  1.00 18.37 LIG 0.11  C 
BRANCH 30 31
ATOM     31 SG   CYS C   7     -12.271   1.436 -52.343  1.00 21.24 LIG-0.18  SA
ATOM     32 HG   CYS C   7     -11.674   1.579 -53.374  1.00 21.24 LIG 0.10  HD
ENDBRANCH 30 31
ENDBRANCH 29 30
BRANCH 29 33
ATOM     33  C   CYS C   7     -10.588  -1.240 -53.553  1.00 18.64 LIG 0.20  C 
ATOM     34 OXT  CYS C   7     -10.410  -2.423 -53.884  1.00 18.72 LIG-0.65  OA
ATOM     35 O    CYS C   7     -10.700  -0.385 -54.448  1.00 19.07 LIG-0.65  OA
ENDBRANCH 29 33
ENDBRANCH 27 29
ENDBRANCH 21 25
ENDBRANCH 19 21
ENDBRANCH 13 17
ENDBRANCH 10 13
ENDBRANCH 5 9
ENDBRANCH 3 5
BRANCH 1 36
ATOM     36  CA  ASP C   3      -2.197   2.655 -42.772  1.00 23.26 LIG 0.19  C 
BRANCH 36 37
ATOM     37  N   ASP C   3      -1.460   1.532 -43.308  1.00 23.08 LIG-0.35  N 
ATOM     38  C   GLU C   2      -0.681   1.701 -44.365  1.00 23.46 LIG 0.24  C 
ATOM     39 O    GLU C   2      -0.648   2.754 -44.993  1.00 23.95 LIG-0.27  OA
ATOM     40 H    ASP C   3      -1.573   0.787 -42.894  1.00 23.08 LIG 0.16  HD
BRANCH 38 41
ATOM     41  CA  GLU C   2       0.181   0.520 -44.774  1.00 23.56 LIG 0.18  C 
BRANCH 41 42
ATOM     42  N   GLU C   2      -0.628  -0.707 -44.758  1.00 23.07 LIG-0.35  N 
ATOM     43  C   THR C   1      -0.188  -1.810 -44.153  1.00 23.69 LIG 0.24  C 
ATOM     44 O    THR C   1       0.913  -1.892 -43.614  1.00 24.29 LIG-0.27  OA
ATOM     45 H    GLU C   2      -1.385  -0.645 -45.162  1.00 23.07 LIG 0.16  HD
BRANCH 43 46
ATOM     46  CA  THR C   1      -1.106  -3.022 -44.165  1.00 23.89 LIG 0.20  C 
BRANCH 46 47
ATOM     47  CB  THR C   1      -2.290  -2.767 -43.216  1.00 24.32 LIG 0.15  C 
ATOM     48  CG2 THR C   1      -3.562  -2.448 -44.020  1.00 24.71 LIG 0.04  C 
BRANCH 47 49
ATOM     49 OG1  THR C   1      -2.521  -3.935 -42.416  1.00 24.87 LIG-0.39  OA
ATOM     50 HG1  THR C   1      -2.552  -3.718 -41.605  1.00 24.87 LIG 0.21  HD
ENDBRANCH 47 49
ENDBRANCH 46 47
BRANCH 46 51
ATOM     51  N   THR C   1      -0.329  -4.191 -43.769  1.00 24.03 LIG-0.35  N 
ATOM     52 H    THR C   1      -0.498  -4.475 -42.974  1.00 24.03 LIG 0.16  HD
ATOM     53  C   ACE C   0       0.560  -4.756 -44.580  1.00 24.28 LIG 0.21  C 
ATOM     54 O    ACE C   0       0.792  -4.329 -45.719  1.00 24.50 LIG-0.27  OA
ATOM     55  CH3 ACE C   0       1.080  -6.079 -44.116  1.00 24.98 LIG 0.12  C 
ENDBRANCH 46 51
ENDBRANCH 43 46
ENDBRANCH 41 42
BRANCH 41 56
ATOM     56  CB  GLU C   2       0.794   0.783 -46.158  1.00 23.91 LIG 0.04  C 
BRANCH 56 57
ATOM     57  CG  GLU C   2       2.025   1.672 -46.145  1.00 27.13 LIG 0.12  C 
BRANCH 57 58
ATOM     58  CD  GLU C   2       2.107   2.604 -47.341  1.00 29.05 LIG 0.17  C 
ATOM     59 OE2  GLU C   2       2.728   3.675 -47.211  1.00 31.00 LIG-0.65  OA
ATOM     60 OE1  GLU C   2       1.550   2.274 -48.405  1.00 31.26 LIG-0.65  OA
ENDBRANCH 57 58
ENDBRANCH 56 57
ENDBRANCH 41 56
ENDBRANCH 38 41
ENDBRANCH 36 37
BRANCH 36 61
ATOM     61  CB  ASP C   3      -1.293   3.872 -42.628  1.00 24.55 LIG 0.15  C 
BRANCH 61 62
ATOM     62  CG  ASP C   3      -1.021   4.226 -41.174  1.00 28.69 LIG 0.17  C 
ATOM     63 OD2  ASP C   3      -1.878   4.887 -40.552  1.00 33.40 LIG-0.65  OA
ATOM     64 OD1  ASP C   3       0.057   3.854 -40.658  1.00 33.84 LIG-0.65  OA
ENDBRANCH 61 62
ENDBRANCH 36 61
ENDBRANCH 1 36
TORSDOF 27
ENDMDL
MODEL 30
USER: ADFR SOLUTION from run 12
USER: SCORE 18.403708 LL:  -5.032 LR: -15.912 RR:   0.000 FEB:  -7.858
USER: RMSD 12.618749
USER: SEED 316672
USER: STATUS no improvement in best in 2 clusters for 5 generations
USER: GENES 29
USER: genes 0 Translation |==|  0.59795 0.56693 0.51273
USER: genes 1 Rotation |==|  0.60914 0.95044 0.67054 0.57815
USER: genes 2 Torsion [C]-N--CA-[CB] |==|  0.23557
USER: genes 3 Torsion [N]-CA--CB-[CG2] |==|  0.45403
USER: genes 4 Torsion [N]-CA--C-[N] |==|  0.92876
USER: genes 5 Torsion [C]-N--CA-[C] |==|  0.55366
USER: genes 6 Torsion [N]-CA--CB-[CG2] |==|  0.09661
USER: genes 7 Torsion [N]-CA--C-[N] |==|  0.32899
USER: genes 8 Torsion [C]-N--CA-[CB] |==|  0.21729
USER: genes 9 Torsion [N]-CA--CB-[SG] |==|  0.14749
USER: genes 10 Torsion [CA]-CB--SG-[HG] |==|  0.74725
USER: genes 11 Torsion [N]-CA--C-[N] |==|  0.95063
USER: genes 12 Torsion [C]-N--CA-[C] |==|  0.19831
USER: genes 13 Torsion [N]-CA--CB-[SG] |==|  0.79929
USER: genes 14 Torsion [CA]-CB--SG-[HG] |==|  0.42821
USER: genes 15 Torsion [N]-CA--C-[OXT] |==|  0.55437
USER: genes 16 Torsion [N]-C--CA-[N] |==|  0.46488
USER: genes 17 Torsion [C]-CA--N-[C] |==|  0.73933
USER: genes 18 Torsion [N]-C--CA-[N] |==|  0.91976
USER: genes 19 Torsion [C]-CA--N-[C] |==|  0.68389
USER: genes 20 Torsion [N]-C--CA-[N] |==|  0.36782
USER: genes 21 Torsion [C]-CA--CB-[CG2] |==|  0.22599
USER: genes 22 Torsion [CA]-CB--OG1-[HG1] |==|  0.57324
USER: genes 23 Torsion [C]-CA--N-[C] |==|  0.65999
USER: genes 24 Torsion [C]-CA--CB-[CG] |==|  0.95786
USER: genes 25 Torsion [CA]-CB--CG-[CD] |==|  0.46610
USER: genes 26 Torsion [CB]-CG--CD-[OE2] |==|  0.37154
USER: genes 27 Torsion [C]-CA--CB-[CG] |==|  0.20920
USER: genes 28 Torsion [CA]-CB--CG-[OD2] |==|  0.03938
ROOT
ATOM      1  C   ASP C   3      -5.795   1.583 -49.938  1.00 21.95 LIG 0.24  C 
ATOM      2 O    ASP C   3      -5.201   2.440 -49.284  1.00 22.02 LIG-0.27  OA
ATOM      3  N   VAL C   4      -5.991   1.642 -51.248  1.00 20.47 LIG-0.35  N 
ATOM      4 H    VAL C   4      -6.401   1.032 -51.695  1.00 20.47 LIG 0.16  HD
ENDROOT
BRANCH 3 5
ATOM      5  CA  VAL C   4      -5.523   2.760 -52.060  1.00 19.37 LIG 0.18  C 
BRANCH 5 6
ATOM      6  CB  VAL C   4      -4.051   2.563 -52.478  1.00 19.50 LIG 0.01  C 
ATOM      7  CG2 VAL C   4      -3.693   3.500 -53.641  1.00 18.97 LIG 0.01  C 
ATOM      8  CG1 VAL C   4      -3.792   1.118 -52.859  1.00 20.24 LIG 0.01  C 
ENDBRANCH 5 6
BRANCH 5 9
ATOM      9  C   VAL C   4      -6.433   2.836 -53.279  1.00 18.84 LIG 0.24  C 
ATOM     10  N   VAL C   5      -7.033   1.707 -53.657  1.00 18.10 LIG-0.35  N 
ATOM     11 H    VAL C   5      -6.993   0.979 -53.199  1.00 18.10 LIG 0.16  HD
ATOM     12 O    VAL C   4      -6.592   3.919 -53.851  1.00 20.23 LIG-0.27  OA
BRANCH 10 13
ATOM     13  CA  VAL C   5      -7.820   1.585 -54.877  1.00 17.69 LIG 0.18  C 
BRANCH 13 14
ATOM     14  CB  VAL C   5      -6.898   1.455 -56.115  1.00 18.27 LIG 0.01  C 
ATOM     15  CG2 VAL C   5      -5.624   0.649 -55.730  1.00 18.63 LIG 0.01  C 
ATOM     16  CG1 VAL C   5      -6.534   2.834 -56.686  1.00 19.20 LIG 0.01  C 
ENDBRANCH 13 14
BRANCH 13 17
ATOM     17  C   VAL C   5      -8.736   0.361 -54.765  1.00 17.55 LIG 0.24  C 
ATOM     18 O    VAL C   5      -8.258  -0.776 -54.615  1.00 16.61 LIG-0.27  OA
ATOM     19  N   CYS C   6     -10.039   0.610 -54.818  1.00 17.33 LIG-0.34  N 
ATOM     20 H    CYS C   6     -10.366   1.398 -54.916  1.00 17.33 LIG 0.16  HD
BRANCH 19 21
ATOM     21  CA  CYS C   6     -11.050  -0.444 -54.716  1.00 17.84 LIG 0.18  C 
BRANCH 21 22
ATOM     22  CB  CYS C   6     -11.236  -0.869 -53.264  1.00 18.00 LIG 0.10  C 
BRANCH 22 23
ATOM     23 SG   CYS C   6     -11.572   0.518 -52.180  1.00 23.34 LIG-0.18  SA
ATOM     24 HG   CYS C   6     -10.539   0.945 -51.743  1.00 23.34 LIG 0.10  HD
ENDBRANCH 22 23
ENDBRANCH 21 22
BRANCH 21 25
ATOM     25  C   CYS C   6     -12.367   0.051 -55.274  1.00 17.78 LIG 0.24  C 
ATOM     26 O    CYS C   6     -13.253  -0.748 -55.582  1.00 18.30 LIG-0.27  OA
ATOM     27  N   CYS C   7     -12.504   1.373 -55.402  1.00 17.97 LIG-0.34  N 
ATOM     28 H    CYS C   7     -11.884   1.944 -55.230  1.00 17.97 LIG 0.16  HD
BRANCH 27 29
ATOM     29  CA  CYS C   7     -13.769   1.960 -55.861  1.00 18.46 LIG 0.19  C 
BRANCH 29 30
ATOM     30  CB  CYS C   7     -14.173   1.306 -57.175  1.00 18.37 LIG 0.11  C 
BRANCH 30 31
ATOM     31 SG   CYS C   7     -13.119   1.844 -58.547  1.00 21.24 LIG-0.18  SA
ATOM     32 HG   CYS C   7     -13.105   0.997 -59.397  1.00 21.24 LIG 0.10  HD
ENDBRANCH 30 31
ENDBRANCH 29 30
BRANCH 29 33
ATOM     33  C   CYS C   7     -14.891   1.870 -54.822  1.00 18.64 LIG 0.20  C 
ATOM     34 OXT  CYS C   7     -16.080   1.979 -55.161  1.00 18.72 LIG-0.65  OA
ATOM     35 O    CYS C   7     -14.634   1.629 -53.631  1.00 19.07 LIG-0.65  OA
ENDBRANCH 29 33
ENDBRANCH 27 29
ENDBRANCH 21 25
ENDBRANCH 19 21
ENDBRANCH 13 17
ENDBRANCH 10 13
ENDBRANCH 5 9
ENDBRANCH 3 5
BRANCH 1 36
ATOM     36  CA  ASP C   3      -6.350   0.361 -49.259  1.00 23.26 LIG 0.19  C 
BRANCH 36 37
ATOM     37  N   ASP C   3      -5.817   0.278 -47.917  1.00 23.08 LIG-0.35  N 
ATOM     38  C   GLU C   2      -4.731  -0.443 -47.685  1.00 23.46 LIG 0.24  C 
ATOM     39 O    GLU C   2      -4.218  -1.149 -48.546  1.00 23.95 LIG-0.27  OA
ATOM     40 H    ASP C   3      -6.253   0.718 -47.320  1.00 23.08 LIG 0.16  HD
BRANCH 38 41
ATOM     41  CA  GLU C   2      -4.140  -0.357 -46.289  1.00 23.56 LIG 0.18  C 
BRANCH 41 42
ATOM     42  N   GLU C   2      -4.443   0.959 -45.708  1.00 23.07 LIG-0.35  N 
ATOM     43  C   THR C   1      -3.471   1.835 -45.452  1.00 23.69 LIG 0.24  C 
ATOM     44 O    THR C   1      -2.281   1.597 -45.641  1.00 24.29 LIG-0.27  OA
ATOM     45 H    GLU C   2      -5.277   1.102 -45.556  1.00 23.07 LIG 0.16  HD
BRANCH 43 46
ATOM     46  CA  THR C   1      -3.883   3.180 -44.877  1.00 23.89 LIG 0.20  C 
BRANCH 46 47
ATOM     47  CB  THR C   1      -3.775   4.252 -45.975  1.00 24.32 LIG 0.15  C 
ATOM     48  CG2 THR C   1      -5.021   4.224 -46.876  1.00 24.71 LIG 0.04  C 
BRANCH 47 49
ATOM     49 OG1  THR C   1      -3.665   5.547 -45.368  1.00 24.87 LIG-0.39  OA
ATOM     50 HG1  THR C   1      -3.960   6.131 -45.896  1.00 24.87 LIG 0.21  HD
ENDBRANCH 47 49
ENDBRANCH 46 47
BRANCH 46 51
ATOM     51  N   THR C   1      -3.023   3.475 -43.737  1.00 24.03 LIG-0.35  N 
ATOM     52 H    THR C   1      -2.183   3.487 -43.922  1.00 24.03 LIG 0.16  HD
ATOM     53  C   ACE C   0      -3.514   3.705 -42.523  1.00 24.28 LIG 0.21  C 
ATOM     54 O    ACE C   0      -4.727   3.679 -42.276  1.00 24.50 LIG-0.27  OA
ATOM     55  CH3 ACE C   0      -2.522   4.232 -41.536  1.00 24.98 LIG 0.12  C 
ENDBRANCH 46 51
ENDBRANCH 43 46
ENDBRANCH 41 42
BRANCH 41 56
ATOM     56  CB  GLU C   2      -4.687  -1.504 -45.425  1.00 23.91 LIG 0.04  C 
BRANCH 56 57
ATOM     57  CG  GLU C   2      -5.908  -2.201 -45.999  1.00 27.13 LIG 0.12  C 
BRANCH 57 58
ATOM     58  CD  GLU C   2      -6.249  -3.499 -45.290  1.00 29.05 LIG 0.17  C 
ATOM     59 OE2  GLU C   2      -7.437  -3.704 -44.976  1.00 31.00 LIG-0.65  OA
ATOM     60 OE1  GLU C   2      -5.337  -4.311 -45.041  1.00 31.26 LIG-0.65  OA
ENDBRANCH 57 58
ENDBRANCH 56 57
ENDBRANCH 41 56
ENDBRANCH 38 41
ENDBRANCH 36 37
BRANCH 36 61
ATOM     61  CB  ASP C   3      -7.872   0.411 -49.233  1.00 24.55 LIG 0.15  C 
BRANCH 61 62
ATOM     62  CG  ASP C   3      -8.488   0.098 -50.587  1.00 28.69 LIG 0.17  C 
ATOM     63 OD2  ASP C   3      -7.764  -0.413 -51.467  1.00 33.40 LIG-0.65  OA
ATOM     64 OD1  ASP C   3      -9.694   0.377 -50.777  1.00 33.84 LIG-0.65  OA
ENDBRANCH 61 62
ENDBRANCH 36 61
ENDBRANCH 1 36
TORSDOF 27
ENDMDL
MODEL 31
USER: ADFR SOLUTION from run 8
USER: SCORE 18.235554 LL:  -5.012 LR: -15.866 RR:   0.000 FEB:  -7.812
USER: RMSD 13.919051
USER: SEED 912811
USER: STATUS no improvement in best in 4 clusters for 5 generations
USER: GENES 29
USER: genes 0 Translation |==|  0.66150 0.63010 0.68095
USER: genes 1 Rotation |==|  0.68642 0.04561 0.43132 0.56374
USER: genes 2 Torsion [C]-N--CA-[CB] |==|  0.24947
USER: genes 3 Torsion [N]-CA--CB-[CG2] |==|  0.41905
USER: genes 4 Torsion [N]-CA--C-[N] |==|  0.37099
USER: genes 5 Torsion [C]-N--CA-[C] |==|  0.65779
USER: genes 6 Torsion [N]-CA--CB-[CG2] |==|  0.91093
USER: genes 7 Torsion [N]-CA--C-[N] |==|  0.32222
USER: genes 8 Torsion [C]-N--CA-[CB] |==|  0.84845
USER: genes 9 Torsion [N]-CA--CB-[SG] |==|  0.21934
USER: genes 10 Torsion [CA]-CB--SG-[HG] |==|  0.14024
USER: genes 11 Torsion [N]-CA--C-[N] |==|  0.48528
USER: genes 12 Torsion [C]-N--CA-[C] |==|  0.51516
USER: genes 13 Torsion [N]-CA--CB-[SG] |==|  0.72735
USER: genes 14 Torsion [CA]-CB--SG-[HG] |==|  0.40485
USER: genes 15 Torsion [N]-CA--C-[OXT] |==|  0.95793
USER: genes 16 Torsion [N]-C--CA-[N] |==|  0.19506
USER: genes 17 Torsion [C]-CA--N-[C] |==|  0.76336
USER: genes 18 Torsion [N]-C--CA-[N] |==|  0.10289
USER: genes 19 Torsion [C]-CA--N-[C] |==|  0.15263
USER: genes 20 Torsion [N]-C--CA-[N] |==|  0.49647
USER: genes 21 Torsion [C]-CA--CB-[CG2] |==|  0.85161
USER: genes 22 Torsion [CA]-CB--OG1-[HG1] |==|  0.68843
USER: genes 23 Torsion [C]-CA--N-[C] |==|  0.71947
USER: genes 24 Torsion [C]-CA--CB-[CG] |==|  0.49042
USER: genes 25 Torsion [CA]-CB--CG-[CD] |==|  0.92607
USER: genes 26 Torsion [CB]-CG--CD-[OE2] |==|  0.24160
USER: genes 27 Torsion [C]-CA--CB-[CG] |==|  0.75070
USER: genes 28 Torsion [CA]-CB--CG-[OD2] |==|  0.13130
ROOT
ATOM      1  C   ASP C   3      -4.270   2.626 -45.270  1.00 21.95 LIG 0.24  C 
ATOM      2 O    ASP C   3      -5.006   3.600 -45.116  1.00 22.02 LIG-0.27  OA
ATOM      3  N   VAL C   4      -4.237   1.875 -46.363  1.00 20.47 LIG-0.35  N 
ATOM      4 H    VAL C   4      -3.711   1.201 -46.460  1.00 20.47 LIG 0.16  HD
ENDROOT
BRANCH 3 5
ATOM      5  CA  VAL C   4      -5.100   2.128 -47.512  1.00 19.37 LIG 0.18  C 
BRANCH 5 6
ATOM      6  CB  VAL C   4      -4.425   3.093 -48.509  1.00 19.50 LIG 0.01  C 
ATOM      7  CG2 VAL C   4      -4.913   2.815 -49.938  1.00 18.97 LIG 0.01  C 
ATOM      8  CG1 VAL C   4      -2.915   2.975 -48.428  1.00 20.24 LIG 0.01  C 
ENDBRANCH 5 6
BRANCH 5 9
ATOM      9  C   VAL C   4      -5.383   0.780 -48.161  1.00 18.84 LIG 0.24  C 
ATOM     10  N   VAL C   5      -6.650   0.519 -48.485  1.00 18.10 LIG-0.35  N 
ATOM     11 H    VAL C   5      -7.280   1.102 -48.420  1.00 18.10 LIG 0.16  HD
ATOM     12 O    VAL C   4      -4.449   0.000 -48.374  1.00 20.23 LIG-0.27  OA
BRANCH 10 13
ATOM     13  CA  VAL C   5      -7.103  -0.773 -48.984  1.00 17.69 LIG 0.18  C 
BRANCH 13 14
ATOM     14  CB  VAL C   5      -8.082  -1.436 -47.983  1.00 18.27 LIG 0.01  C 
ATOM     15  CG2 VAL C   5      -7.696  -1.027 -46.532  1.00 18.63 LIG 0.01  C 
ATOM     16  CG1 VAL C   5      -8.097  -2.964 -48.146  1.00 19.20 LIG 0.01  C 
ENDBRANCH 13 14
BRANCH 13 17
ATOM     17  C   VAL C   5      -7.782  -0.579 -50.343  1.00 17.55 LIG 0.24  C 
ATOM     18 O    VAL C   5      -8.815   0.104 -50.443  1.00 16.61 LIG-0.27  OA
ATOM     19  N   CYS C   6      -7.184  -1.163 -51.374  1.00 17.33 LIG-0.34  N 
ATOM     20 H    CYS C   6      -6.465  -1.629 -51.303  1.00 17.33 LIG 0.16  HD
BRANCH 19 21
ATOM     21  CA  CYS C   6      -7.695  -1.068 -52.744  1.00 17.84 LIG 0.18  C 
BRANCH 21 22
ATOM     22  CB  CYS C   6      -9.148  -1.523 -52.805  1.00 18.00 LIG 0.10  C 
BRANCH 22 23
ATOM     23 SG   CYS C   6     -10.287  -0.264 -52.234  1.00 23.34 LIG-0.18  SA
ATOM     24 HG   CYS C   6     -10.052   0.773 -52.792  1.00 23.34 LIG 0.10  HD
ENDBRANCH 22 23
ENDBRANCH 21 22
BRANCH 21 25
ATOM     25  C   CYS C   6      -7.586   0.360 -53.235  1.00 17.78 LIG 0.24  C 
ATOM     26 O    CYS C   6      -7.206   1.252 -52.477  1.00 18.30 LIG-0.27  OA
ATOM     27  N   CYS C   7      -7.914   0.580 -54.511  1.00 17.97 LIG-0.34  N 
ATOM     28 H    CYS C   7      -8.220  -0.022 -55.044  1.00 17.97 LIG 0.16  HD
BRANCH 27 29
ATOM     29  CA  CYS C   7      -7.771   1.913 -55.108  1.00 18.46 LIG 0.19  C 
BRANCH 29 30
ATOM     30  CB  CYS C   7      -6.307   2.330 -55.048  1.00 18.37 LIG 0.11  C 
BRANCH 30 31
ATOM     31 SG   CYS C   7      -5.973   3.416 -53.637  1.00 21.24 LIG-0.18  SA
ATOM     32 HG   CYS C   7      -4.871   3.199 -53.216  1.00 21.24 LIG 0.10  HD
ENDBRANCH 30 31
ENDBRANCH 29 30
BRANCH 29 33
ATOM     33  C   CYS C   7      -8.319   2.000 -56.535  1.00 18.64 LIG 0.20  C 
ATOM     34 OXT  CYS C   7      -8.566   0.972 -57.184  1.00 18.72 LIG-0.65  OA
ATOM     35 O    CYS C   7      -8.581   3.102 -57.048  1.00 19.07 LIG-0.65  OA
ENDBRANCH 29 33
ENDBRANCH 27 29
ENDBRANCH 21 25
ENDBRANCH 19 21
ENDBRANCH 13 17
ENDBRANCH 10 13
ENDBRANCH 5 9
ENDBRANCH 3 5
BRANCH 1 36
ATOM     36  CA  ASP C   3      -3.316   2.217 -44.181  1.00 23.26 LIG 0.19  C 
BRANCH 36 37
ATOM     37  N   ASP C   3      -1.962   2.508 -44.599  1.00 23.08 LIG-0.35  N 
ATOM     38  C   GLU C   2      -1.300   1.630 -45.335  1.00 23.46 LIG 0.24  C 
ATOM     39 O    GLU C   2      -1.744   0.514 -45.582  1.00 23.95 LIG-0.27  OA
ATOM     40 H    ASP C   3      -1.650   3.265 -44.336  1.00 23.08 LIG 0.16  HD
BRANCH 38 41
ATOM     41  CA  GLU C   2       0.053   2.068 -45.869  1.00 23.56 LIG 0.18  C 
BRANCH 41 42
ATOM     42  N   GLU C   2       0.734   2.893 -44.861  1.00 23.07 LIG-0.35  N 
ATOM     43  C   THR C   1       0.930   2.439 -43.623  1.00 23.69 LIG 0.24  C 
ATOM     44 O    THR C   1       0.533   1.344 -43.234  1.00 24.29 LIG-0.27  OA
ATOM     45 H    GLU C   2       0.983   3.668 -45.139  1.00 23.07 LIG 0.16  HD
BRANCH 43 46
ATOM     46  CA  THR C   1       1.668   3.352 -42.658  1.00 23.89 LIG 0.20  C 
BRANCH 46 47
ATOM     47  CB  THR C   1       3.060   3.673 -43.230  1.00 24.32 LIG 0.15  C 
ATOM     48  CG2 THR C   1       3.809   2.375 -43.575  1.00 24.71 LIG 0.04  C 
BRANCH 47 49
ATOM     49 OG1  THR C   1       2.918   4.463 -44.418  1.00 24.87 LIG-0.39  OA
ATOM     50 HG1  THR C   1       3.163   4.014 -45.085  1.00 24.87 LIG 0.21  HD
ENDBRANCH 47 49
ENDBRANCH 46 47
BRANCH 46 51
ATOM     51  N   THR C   1       1.749   2.684 -41.364  1.00 24.03 LIG-0.35  N 
ATOM     52 H    THR C   1       2.364   2.084 -41.314  1.00 24.03 LIG 0.16  HD
ATOM     53  C   ACE C   0       0.933   2.990 -40.359  1.00 24.28 LIG 0.21  C 
ATOM     54 O    ACE C   0       0.051   3.853 -40.453  1.00 24.50 LIG-0.27  OA
ATOM     55  CH3 ACE C   0       1.312   2.393 -39.041  1.00 24.98 LIG 0.12  C 
ENDBRANCH 46 51
ENDBRANCH 43 46
ENDBRANCH 41 42
BRANCH 41 56
ATOM     56  CB  GLU C   2       0.882   0.832 -46.252  1.00 23.91 LIG 0.04  C 
BRANCH 56 57
ATOM     57  CG  GLU C   2       2.230   1.145 -46.878  1.00 27.13 LIG 0.12  C 
BRANCH 57 58
ATOM     58  CD  GLU C   2       2.268   2.488 -47.586  1.00 29.05 LIG 0.17  C 
ATOM     59 OE2  GLU C   2       2.548   3.499 -46.916  1.00 31.00 LIG-0.65  OA
ATOM     60 OE1  GLU C   2       2.015   2.537 -48.805  1.00 31.26 LIG-0.65  OA
ENDBRANCH 57 58
ENDBRANCH 56 57
ENDBRANCH 41 56
ENDBRANCH 38 41
ENDBRANCH 36 37
BRANCH 36 61
ATOM     61  CB  ASP C   3      -3.646   2.942 -42.883  1.00 24.55 LIG 0.15  C 
BRANCH 61 62
ATOM     62  CG  ASP C   3      -2.913   4.268 -42.755  1.00 28.69 LIG 0.17  C 
ATOM     63 OD2  ASP C   3      -2.916   5.047 -43.731  1.00 33.40 LIG-0.65  OA
ATOM     64 OD1  ASP C   3      -2.321   4.526 -41.682  1.00 33.84 LIG-0.65  OA
ENDBRANCH 61 62
ENDBRANCH 36 61
ENDBRANCH 1 36
TORSDOF 27
ENDMDL
