MODEL 1
USER: ADFR SOLUTION from run 95
USER: SCORE 30.665385 LL:  -4.736 LR: -26.545 RR:   0.000 FEB: -17.596
USER: RMSD 1.989751
USER: SEED 94
USER: STATUS 1 or 2 clusters left
USER: GENES 32
USER: genes 0 Translation |==|  0.50649 0.42380 0.58055
USER: genes 1 Rotation |==|  0.48064 0.49313 0.54300 0.99772
USER: genes 2 Torsion [N]-CA--C-[N] |==|  0.45346
USER: genes 3 Torsion [C]-N--CA-[C] |==|  0.79232
USER: genes 4 Torsion [N]-CA--CB-[CG] |==|  0.78042
USER: genes 5 Torsion [CA]-CB--CG-[CD2] |==|  0.36276
USER: genes 6 Torsion [N]-CA--C-[N] |==|  0.46044
USER: genes 7 Torsion [C]-N--CA-[C] |==|  0.69756
USER: genes 8 Torsion [N]-CA--CB-[CG] |==|  0.51984
USER: genes 9 Torsion [CA]-CB--CG-[CD] |==|  0.22464
USER: genes 10 Torsion [CB]-CG--CD-[OE1] |==|  0.24845
USER: genes 11 Torsion [N]-CA--C-[N] |==|  0.06946
USER: genes 12 Torsion [C]-N--CA-[CB] |==|  0.46621
USER: genes 13 Torsion [N]-CA--CB-[OG] |==|  0.53738
USER: genes 14 Torsion [CA]-CB--OG-[HG] |==|  0.65475
USER: genes 15 Torsion [N]-CA--C-[O] |==|  0.28260
USER: genes 16 Torsion [C]-CA--CB-[CG] |==|  0.89571
USER: genes 17 Torsion [CA]-CB--CG-[CD] |==|  0.59456
USER: genes 18 Torsion [CB]-CG--CD-[NE] |==|  0.57697
USER: genes 19 Torsion [CG]-CD--NE-[HE] |==|  0.78670
USER: genes 20 Torsion [C]-CA--N-[C] |==|  0.60921
USER: genes 21 Torsion [N]-C--CA-[N] |==|  0.44323
USER: genes 22 Torsion [C]-CA--N-[C] |==|  0.67478
USER: genes 23 Torsion [N]-C--CA-[N] |==|  0.29366
USER: genes 24 Torsion [C]-CA--CB-[CG2] |==|  0.30372
USER: genes 25 Torsion [CA]-CB--OG1-[HG1] |==|  0.59461
USER: genes 26 Torsion [C]-CA--N-[C] |==|  0.76664
USER: genes 27 Torsion [N]-C--CA-[N] |==|  0.26580
USER: genes 28 Torsion [C]-CA--CB-[CG] |==|  0.25112
USER: genes 29 Torsion [CA]-CB--CG-[CD] |==|  0.46826
USER: genes 30 Torsion [CB]-CG--CD-[OE1] |==|  0.99510
USER: genes 31 Torsion [C]-CA--CB-[CG2] |==|  0.28753
ROOT
ATOM      1  CA  ARG C   5      37.689  -8.420 -16.259  1.00 18.48 LIG 0.18  C 
ENDROOT
BRANCH 1 2
ATOM      2  C   ARG C   5      36.362  -8.183 -15.540  1.00 18.17 LIG 0.24  C 
ATOM      3 O    ARG C   5      35.453  -7.527 -16.070  1.00 17.19 LIG-0.27  OA
ATOM      4  N   PHE C   6      36.240  -8.750 -14.347  1.00 18.83 LIG-0.35  N 
ATOM      5 H    PHE C   6      36.793  -9.321 -14.018  1.00 18.83 LIG 0.16  HD
BRANCH 4 6
ATOM      6  CA  PHE C   6      35.103  -8.420 -13.485  1.00 19.26 LIG 0.18  C 
BRANCH 6 7
ATOM      7  CB  PHE C   6      34.964  -9.460 -12.390  1.00 18.47 LIG 0.07  C 
BRANCH 7 8
ATOM      8  CG  PHE C   6      34.309 -10.713 -12.845  1.00 17.36 LIG-0.06  A 
ATOM      9  CD2 PHE C   6      34.886 -11.955 -12.565  1.00 17.83 LIG 0.01  A 
ATOM     10  CE2 PHE C   6      34.277 -13.125 -12.992  1.00 17.21 LIG 0.00  A 
ATOM     11  CZ  PHE C   6      33.053 -13.073 -13.698  1.00 18.37 LIG 0.00  A 
ATOM     12  CE1 PHE C   6      32.471 -11.852 -13.963  1.00 15.49 LIG 0.00  A 
ATOM     13  CD1 PHE C   6      33.098 -10.667 -13.542  1.00 15.20 LIG 0.01  A 
ENDBRANCH 7 8
ENDBRANCH 6 7
BRANCH 6 14
ATOM     14  C   PHE C   6      35.271  -7.035 -12.862  1.00 20.73 LIG 0.24  C 
ATOM     15 O    PHE C   6      36.370  -6.468 -12.893  1.00 20.81 LIG-0.27  OA
ATOM     16  N   GLN C   7      34.192  -6.488 -12.297  1.00 22.42 LIG-0.35  N 
ATOM     17 H    GLN C   7      33.434  -6.884 -12.203  1.00 22.42 LIG 0.16  HD
BRANCH 16 18
ATOM     18  CA  GLN C   7      34.245  -5.123 -11.786  1.00 25.26 LIG 0.18  C 
BRANCH 18 19
ATOM     19  CB  GLN C   7      33.184  -4.210 -12.402  1.00 25.69 LIG 0.04  C 
BRANCH 19 20
ATOM     20  CG  GLN C   7      33.394  -2.767 -11.970  1.00 27.68 LIG 0.10  C 
BRANCH 20 21
ATOM     21  CD  GLN C   7      34.451  -2.068 -12.765  1.00 27.15 LIG 0.21  C 
ATOM     22  NE2 GLN C   7      35.697  -2.139 -12.300  1.00 28.04 LIG-0.37  N 
ATOM     23 21HE GLN C   7      35.860  -2.566 -11.572  1.00 28.04 LIG 0.16  HD
ATOM     24 22HE GLN C   7      36.338  -1.756 -12.728  1.00 28.04 LIG 0.16  HD
ATOM     25 OE1  GLN C   7      34.161  -1.476 -13.790  1.00 23.97 LIG-0.27  OA
ENDBRANCH 20 21
ENDBRANCH 19 20
ENDBRANCH 18 19
BRANCH 18 26
ATOM     26  C   GLN C   7      34.220  -5.068 -10.273  1.00 26.49 LIG 0.24  C 
ATOM     27 O    GLN C   7      33.833  -4.047  -9.641  1.00 27.60 LIG-0.27  OA
ATOM     28  N   SER C   8      34.679  -6.184  -9.708  1.00 27.61 LIG-0.34  N 
ATOM     29 H    SER C   8      35.037  -6.824 -10.157  1.00 27.61 LIG 0.16  HD
BRANCH 28 30
ATOM     30  CA  SER C   8      34.623  -6.438  -8.278  1.00 28.42 LIG 0.19  C 
BRANCH 30 31
ATOM     31  CB  SER C   8      34.948  -7.903  -8.023  1.00 28.45 LIG 0.20  C 
BRANCH 31 32
ATOM     32 OG   SER C   8      34.597  -8.243  -6.685  1.00 26.71 LIG-0.40  OA
ATOM     33 HG   SER C   8      35.268  -8.560  -6.292  1.00 26.71 LIG 0.21  HD
ENDBRANCH 31 32
ENDBRANCH 30 31
BRANCH 30 34
ATOM     34  C   SER C   8      35.622  -5.535  -7.567  1.00 29.48 LIG 0.22  C 
ATOM     35 O    SER C   8      35.236  -4.514  -6.982  1.00 30.60 LIG-0.29  OA
ENDBRANCH 30 34
ENDBRANCH 28 30
ENDBRANCH 18 26
ENDBRANCH 16 18
ENDBRANCH 6 14
ENDBRANCH 4 6
ENDBRANCH 1 2
BRANCH 1 36
ATOM     36  CB  ARG C   5      38.823  -7.617 -15.613  1.00 18.58 LIG 0.04  C 
BRANCH 36 37
ATOM     37  CG  ARG C   5      38.409  -6.239 -15.135  1.00 19.48 LIG 0.02  C 
BRANCH 37 38
ATOM     38  CD  ARG C   5      39.524  -5.221 -15.283  1.00 24.05 LIG 0.14  C 
BRANCH 38 39
ATOM     39  NE  ARG C   5      39.351  -4.184 -14.276  1.00 29.23 LIG-0.23  N 
ATOM     40 HE   ARG C   5      38.742  -3.592 -14.416  1.00 29.23 LIG 0.18  HD
ATOM     41  CZ  ARG C   5      40.065  -4.082 -13.154  1.00 30.64 LIG 0.67  C 
ATOM     42  NH1 ARG C   5      41.056  -4.929 -12.890  1.00 31.79 LIG-0.23  N 
ATOM     43  NH2 ARG C   5      39.800  -3.099 -12.300  1.00 32.60 LIG-0.23  N 
ATOM     44 2HH1 ARG C   5      41.507  -4.849 -12.162  1.00 31.79 LIG 0.17  HD
ATOM     45 1HH1 ARG C   5      41.247  -5.555 -13.447  1.00 31.79 LIG 0.17  HD
ATOM     46 2HH2 ARG C   5      40.255  -3.026 -11.574  1.00 32.60 LIG 0.17  HD
ATOM     47 1HH2 ARG C   5      39.173  -2.537 -12.473  1.00 32.60 LIG 0.17  HD
ENDBRANCH 38 39
ENDBRANCH 37 38
ENDBRANCH 36 37
ENDBRANCH 1 36
BRANCH 1 48
ATOM     48  N   ARG C   5      37.538  -8.096 -17.672  1.00 18.21 LIG-0.35  N 
ATOM     49  C   VAL C   4      38.111  -8.833 -18.617  1.00 18.34 LIG 0.24  C 
ATOM     50 O    VAL C   4      38.875  -9.778 -18.366  1.00 18.10 LIG-0.27  OA
ATOM     51 H    ARG C   5      37.056  -7.401 -17.828  1.00 18.21 LIG 0.16  HD
BRANCH 49 52
ATOM     52  CA  VAL C   4      37.774  -8.465 -20.046  1.00 18.53 LIG 0.18  C 
BRANCH 52 53
ATOM     53  N   VAL C   4      38.806  -8.997 -20.958  1.00 19.37 LIG-0.35  N 
ATOM     54  C   THR C   3      39.567  -8.194 -21.695  1.00 20.69 LIG 0.24  C 
ATOM     55 O    THR C   3      39.540  -6.970 -21.616  1.00 20.32 LIG-0.27  OA
ATOM     56 H    VAL C   4      38.865  -9.854 -20.965  1.00 19.37 LIG 0.16  HD
BRANCH 54 57
ATOM     57  CA  THR C   3      40.513  -8.889 -22.667  1.00 21.56 LIG 0.20  C 
BRANCH 57 58
ATOM     58  CB  THR C   3      41.935  -8.350 -22.436  1.00 22.09 LIG 0.15  C 
ATOM     59  CG2 THR C   3      42.805  -9.416 -21.791  1.00 23.63 LIG 0.04  C 
BRANCH 58 60
ATOM     60 OG1  THR C   3      42.504  -7.920 -23.684  1.00 21.54 LIG-0.39  OA
ATOM     61 HG1  THR C   3      43.331  -8.069 -23.682  1.00 21.54 LIG 0.21  HD
ENDBRANCH 58 60
ENDBRANCH 57 58
BRANCH 57 62
ATOM     62  N   THR C   3      40.098  -8.813 -24.075  1.00 23.16 LIG-0.34  N 
ATOM     63  C   GLU C   2      39.218  -9.686 -24.577  1.00 24.83 LIG 0.26  C 
ATOM     64 O    GLU C   2      38.639 -10.510 -23.887  1.00 23.95 LIG-0.27  OA
ATOM     65 H    THR C   3      40.462  -8.177 -24.524  1.00 23.16 LIG 0.16  HD
BRANCH 63 66
ATOM     66  CA  GLU C   2      38.905  -9.642 -26.075  1.00 26.47 LIG 0.40  C 
ATOM     67  N   GLU C   2      39.716 -10.615 -26.855  1.00 27.26 LIG 0.61  N 
BRANCH 66 68
ATOM     68  CB  GLU C   2      37.429  -9.814 -26.353  1.00 27.59 LIG 0.06  C 
BRANCH 68 69
ATOM     69  CG  GLU C   2      36.713  -8.483 -26.386  1.00 31.29 LIG 0.12  C 
BRANCH 69 70
ATOM     70  CD  GLU C   2      35.326  -8.626 -26.926  1.00 36.63 LIG 0.17  C 
ATOM     71 OE1  GLU C   2      34.947  -9.763 -27.303  1.00 39.47 LIG-0.65  OA
ATOM     72 OE2  GLU C   2      34.615  -7.596 -26.987  1.00 40.70 LIG-0.65  OA
ENDBRANCH 69 70
ENDBRANCH 68 69
ENDBRANCH 66 68
ENDBRANCH 63 66
ENDBRANCH 57 62
ENDBRANCH 54 57
ENDBRANCH 52 53
BRANCH 52 73
ATOM     73  CB  VAL C   4      36.367  -9.014 -20.412  1.00 18.61 LIG 0.01  C 
ATOM     74  CG2 VAL C   4      35.319  -7.901 -20.408  1.00 18.43 LIG 0.01  C 
ATOM     75  CG1 VAL C   4      35.976 -10.131 -19.458  1.00 18.06 LIG 0.01  C 
ENDBRANCH 52 73
ENDBRANCH 49 52
ENDBRANCH 1 48
TORSDOF 30
ENDMDL
MODEL 2
USER: ADFR SOLUTION from run 95
USER: SCORE 28.868555 LL:  -4.767 LR: -25.009 RR:   0.000 FEB: -16.060
USER: RMSD 3.337693
USER: SEED 94
USER: STATUS 1 or 2 clusters left
USER: GENES 32
USER: genes 0 Translation |==|  0.50769 0.42460 0.58095
USER: genes 1 Rotation |==|  0.49287 0.49203 0.53932 0.99834
USER: genes 2 Torsion [N]-CA--C-[N] |==|  0.46079
USER: genes 3 Torsion [C]-N--CA-[C] |==|  0.79413
USER: genes 4 Torsion [N]-CA--CB-[CG] |==|  0.78007
USER: genes 5 Torsion [CA]-CB--CG-[CD2] |==|  0.36276
USER: genes 6 Torsion [N]-CA--C-[N] |==|  0.45870
USER: genes 7 Torsion [C]-N--CA-[C] |==|  0.69552
USER: genes 8 Torsion [N]-CA--CB-[CG] |==|  0.52115
USER: genes 9 Torsion [CA]-CB--CG-[CD] |==|  0.22552
USER: genes 10 Torsion [CB]-CG--CD-[OE1] |==|  0.24968
USER: genes 11 Torsion [N]-CA--C-[N] |==|  0.07046
USER: genes 12 Torsion [C]-N--CA-[CB] |==|  0.46757
USER: genes 13 Torsion [N]-CA--CB-[OG] |==|  0.53743
USER: genes 14 Torsion [CA]-CB--OG-[HG] |==|  0.65463
USER: genes 15 Torsion [N]-CA--C-[O] |==|  0.28229
USER: genes 16 Torsion [C]-CA--CB-[CG] |==|  0.89828
USER: genes 17 Torsion [CA]-CB--CG-[CD] |==|  0.59129
USER: genes 18 Torsion [CB]-CG--CD-[NE] |==|  0.57639
USER: genes 19 Torsion [CG]-CD--NE-[HE] |==|  0.78519
USER: genes 20 Torsion [C]-CA--N-[C] |==|  0.62791
USER: genes 21 Torsion [N]-C--CA-[N] |==|  0.43843
USER: genes 22 Torsion [C]-CA--N-[C] |==|  0.65946
USER: genes 23 Torsion [N]-C--CA-[N] |==|  0.83691
USER: genes 24 Torsion [C]-CA--CB-[CG2] |==|  0.49660
USER: genes 25 Torsion [CA]-CB--OG1-[HG1] |==|  0.91165
USER: genes 26 Torsion [C]-CA--N-[C] |==|  0.64411
USER: genes 27 Torsion [N]-C--CA-[N] |==|  0.24390
USER: genes 28 Torsion [C]-CA--CB-[CG] |==|  0.32026
USER: genes 29 Torsion [CA]-CB--CG-[CD] |==|  0.75097
USER: genes 30 Torsion [CB]-CG--CD-[OE1] |==|  0.51036
USER: genes 31 Torsion [C]-CA--CB-[CG2] |==|  0.23290
ROOT
ATOM      1  CA  ARG C   5      37.710  -8.403 -16.247  1.00 18.48 LIG 0.18  C 
ENDROOT
BRANCH 1 2
ATOM      2  C   ARG C   5      36.386  -8.183 -15.518  1.00 18.17 LIG 0.24  C 
ATOM      3 O    ARG C   5      35.469  -7.529 -16.036  1.00 17.19 LIG-0.27  OA
ATOM      4  N   PHE C   6      36.276  -8.762 -14.329  1.00 18.83 LIG-0.35  N 
ATOM      5 H    PHE C   6      36.836  -9.331 -14.009  1.00 18.83 LIG 0.16  HD
BRANCH 4 6
ATOM      6  CA  PHE C   6      35.142  -8.449 -13.458  1.00 19.26 LIG 0.18  C 
BRANCH 6 7
ATOM      7  CB  PHE C   6      35.028  -9.491 -12.362  1.00 18.47 LIG 0.07  C 
BRANCH 7 8
ATOM      8  CG  PHE C   6      34.385 -10.752 -12.811  1.00 17.36 LIG-0.06  A 
ATOM      9  CD2 PHE C   6      34.980 -11.987 -12.538  1.00 17.83 LIG 0.01  A 
ATOM     10  CE2 PHE C   6      34.382 -13.165 -12.960  1.00 17.21 LIG 0.00  A 
ATOM     11  CZ  PHE C   6      33.150 -13.128 -13.653  1.00 18.37 LIG 0.00  A 
ATOM     12  CE1 PHE C   6      32.550 -11.914 -13.911  1.00 15.49 LIG 0.00  A 
ATOM     13  CD1 PHE C   6      33.166 -10.722 -13.495  1.00 15.20 LIG 0.01  A 
ENDBRANCH 7 8
ENDBRANCH 6 7
BRANCH 6 14
ATOM     14  C   PHE C   6      35.296  -7.062 -12.835  1.00 20.73 LIG 0.24  C 
ATOM     15 O    PHE C   6      36.389  -6.483 -12.865  1.00 20.81 LIG-0.27  OA
ATOM     16  N   GLN C   7      34.210  -6.525 -12.272  1.00 22.42 LIG-0.35  N 
ATOM     17 H    GLN C   7      33.456  -6.929 -12.178  1.00 22.42 LIG 0.16  HD
BRANCH 16 18
ATOM     18  CA  GLN C   7      34.248  -5.160 -11.762  1.00 25.26 LIG 0.18  C 
BRANCH 18 19
ATOM     19  CB  GLN C   7      33.191  -4.253 -12.392  1.00 25.69 LIG 0.04  C 
BRANCH 19 20
ATOM     20  CG  GLN C   7      33.394  -2.807 -11.968  1.00 27.68 LIG 0.10  C 
BRANCH 20 21
ATOM     21  CD  GLN C   7      34.451  -2.109 -12.764  1.00 27.15 LIG 0.21  C 
ATOM     22  NE2 GLN C   7      35.697  -2.179 -12.300  1.00 28.04 LIG-0.37  N 
ATOM     23 21HE GLN C   7      35.861  -2.607 -11.572  1.00 28.04 LIG 0.16  HD
ATOM     24 22HE GLN C   7      36.338  -1.797 -12.728  1.00 28.04 LIG 0.16  HD
ATOM     25 OE1  GLN C   7      34.161  -1.517 -13.790  1.00 23.97 LIG-0.27  OA
ENDBRANCH 20 21
ENDBRANCH 19 20
ENDBRANCH 18 19
BRANCH 18 26
ATOM     26  C   GLN C   7      34.203  -5.103 -10.249  1.00 26.49 LIG 0.24  C 
ATOM     27 O    GLN C   7      33.796  -4.086  -9.623  1.00 27.60 LIG-0.27  OA
ATOM     28  N   SER C   8      34.668  -6.212  -9.677  1.00 27.61 LIG-0.34  N 
ATOM     29 H    SER C   8      35.039  -6.849 -10.120  1.00 27.61 LIG 0.16  HD
BRANCH 28 30
ATOM     30  CA  SER C   8      34.596  -6.466  -8.247  1.00 28.42 LIG 0.19  C 
BRANCH 30 31
ATOM     31  CB  SER C   8      34.947  -7.924  -7.986  1.00 28.45 LIG 0.20  C 
BRANCH 31 32
ATOM     32 OG   SER C   8      34.584  -8.269  -6.652  1.00 26.71 LIG-0.40  OA
ATOM     33 HG   SER C   8      35.255  -8.572  -6.248  1.00 26.71 LIG 0.21  HD
ENDBRANCH 31 32
ENDBRANCH 30 31
BRANCH 30 34
ATOM     34  C   SER C   8      35.566  -5.542  -7.524  1.00 29.48 LIG 0.22  C 
ATOM     35 O    SER C   8      35.152  -4.527  -6.948  1.00 30.60 LIG-0.29  OA
ENDBRANCH 30 34
ENDBRANCH 28 30
ENDBRANCH 18 26
ENDBRANCH 16 18
ENDBRANCH 6 14
ENDBRANCH 4 6
ENDBRANCH 1 2
BRANCH 1 36
ATOM     36  CB  ARG C   5      38.855  -7.648 -15.562  1.00 18.58 LIG 0.04  C 
BRANCH 36 37
ATOM     37  CG  ARG C   5      38.454  -6.299 -14.997  1.00 19.48 LIG 0.02  C 
BRANCH 37 38
ATOM     38  CD  ARG C   5      39.585  -5.290 -15.065  1.00 24.05 LIG 0.14  C 
BRANCH 38 39
ATOM     39  NE  ARG C   5      39.412  -4.318 -13.996  1.00 29.23 LIG-0.23  N 
ATOM     40 HE   ARG C   5      38.818  -3.705 -14.108  1.00 29.23 LIG 0.18  HD
ATOM     41  CZ  ARG C   5      40.104  -4.304 -12.856  1.00 30.64 LIG 0.67  C 
ATOM     42  NH1 ARG C   5      41.073  -5.187 -12.628  1.00 31.79 LIG-0.23  N 
ATOM     43  NH2 ARG C   5      39.841  -3.373 -11.944  1.00 32.60 LIG-0.23  N 
ATOM     44 2HH1 ARG C   5      41.510  -5.165 -11.888  1.00 31.79 LIG 0.17  HD
ATOM     45 1HH1 ARG C   5      41.263  -5.780 -13.222  1.00 31.79 LIG 0.17  HD
ATOM     46 2HH2 ARG C   5      40.283  -3.357 -11.207  1.00 32.60 LIG 0.17  HD
ATOM     47 1HH2 ARG C   5      39.230  -2.787 -12.093  1.00 32.60 LIG 0.17  HD
ENDBRANCH 38 39
ENDBRANCH 37 38
ENDBRANCH 36 37
ENDBRANCH 1 36
BRANCH 1 48
ATOM     48  N   ARG C   5      37.566  -8.007 -17.642  1.00 18.21 LIG-0.35  N 
ATOM     49  C   VAL C   4      38.016  -8.773 -18.630  1.00 18.34 LIG 0.24  C 
ATOM     50 O    VAL C   4      38.659  -9.816 -18.437  1.00 18.10 LIG-0.27  OA
ATOM     51 H    ARG C   5      37.172  -7.251 -17.759  1.00 18.21 LIG 0.16  HD
BRANCH 49 52
ATOM     52  CA  VAL C   4      37.691  -8.310 -20.034  1.00 18.53 LIG 0.18  C 
BRANCH 52 53
ATOM     53  N   VAL C   4      38.649  -8.899 -20.991  1.00 19.37 LIG-0.35  N 
ATOM     54  C   THR C   3      39.397  -8.142 -21.787  1.00 20.69 LIG 0.24  C 
ATOM     55 O    THR C   3      39.419  -6.916 -21.733  1.00 20.32 LIG-0.27  OA
ATOM     56 H    VAL C   4      38.675  -9.758 -20.983  1.00 19.37 LIG 0.16  HD
BRANCH 54 57
ATOM     57  CA  THR C   3      40.258  -8.892 -22.795  1.00 21.56 LIG 0.20  C 
BRANCH 57 58
ATOM     58  CB  THR C   3      39.334  -9.557 -23.830  1.00 22.09 LIG 0.15  C 
ATOM     59  CG2 THR C   3      40.156 -10.293 -24.874  1.00 23.63 LIG 0.04  C 
BRANCH 58 60
ATOM     60 OG1  THR C   3      38.429 -10.459 -23.170  1.00 21.54 LIG-0.39  OA
ATOM     61 HG1  THR C   3      38.805 -10.788 -22.494  1.00 21.54 LIG 0.21  HD
ENDBRANCH 58 60
ENDBRANCH 57 58
BRANCH 57 62
ATOM     62  N   THR C   3      41.210  -9.837 -22.193  1.00 23.16 LIG-0.34  N 
ATOM     63  C   GLU C   2      42.508  -9.800 -22.515  1.00 24.83 LIG 0.26  C 
ATOM     64 O    GLU C   2      42.986  -8.930 -23.227  1.00 23.95 LIG-0.27  OA
ATOM     65 H    THR C   3      40.863 -10.393 -21.636  1.00 23.16 LIG 0.16  HD
BRANCH 63 66
ATOM     66  CA  GLU C   2      43.440 -10.877 -21.955  1.00 26.47 LIG 0.40  C 
ATOM     67  N   GLU C   2      43.496 -12.087 -22.820  1.00 27.26 LIG 0.61  N 
BRANCH 66 68
ATOM     68  CB  GLU C   2      44.825 -10.340 -21.675  1.00 27.59 LIG 0.06  C 
BRANCH 68 69
ATOM     69  CG  GLU C   2      45.146 -10.381 -20.199  1.00 31.29 LIG 0.12  C 
BRANCH 69 70
ATOM     70  CD  GLU C   2      44.727  -9.118 -19.516  1.00 36.63 LIG 0.17  C 
ATOM     71 OE1  GLU C   2      44.996  -8.981 -18.297  1.00 39.47 LIG-0.65  OA
ATOM     72 OE2  GLU C   2      44.114  -8.263 -20.198  1.00 40.70 LIG-0.65  OA
ENDBRANCH 69 70
ENDBRANCH 68 69
ENDBRANCH 66 68
ENDBRANCH 63 66
ENDBRANCH 57 62
ENDBRANCH 54 57
ENDBRANCH 52 53
BRANCH 52 73
ATOM     73  CB  VAL C   4      36.230  -8.701 -20.392  1.00 18.61 LIG 0.01  C 
ATOM     74  CG2 VAL C   4      35.235  -7.667 -19.867  1.00 18.43 LIG 0.01  C 
ATOM     75  CG1 VAL C   4      35.911 -10.084 -19.850  1.00 18.06 LIG 0.01  C 
ENDBRANCH 52 73
ENDBRANCH 49 52
ENDBRANCH 1 48
TORSDOF 30
ENDMDL
MODEL 3
USER: ADFR SOLUTION from run 195
USER: SCORE 28.213055 LL:  -5.305 LR: -24.683 RR:   0.000 FEB: -15.734
USER: RMSD 3.345737
USER: SEED 194
USER: STATUS 1 or 2 clusters left
USER: GENES 32
USER: genes 0 Translation |==|  0.56815 0.43848 0.59234
USER: genes 1 Rotation |==|  0.47855 0.56969 0.60743 0.98285
USER: genes 2 Torsion [N]-CA--C-[N] |==|  0.03140
USER: genes 3 Torsion [C]-N--CA-[C] |==|  0.17004
USER: genes 4 Torsion [N]-CA--CB-[CG] |==|  0.65050
USER: genes 5 Torsion [CA]-CB--CG-[CD2] |==|  0.92862
USER: genes 6 Torsion [N]-CA--C-[N] |==|  0.63333
USER: genes 7 Torsion [C]-N--CA-[C] |==|  0.12059
USER: genes 8 Torsion [N]-CA--CB-[CG] |==|  0.60959
USER: genes 9 Torsion [CA]-CB--CG-[CD] |==|  0.24607
USER: genes 10 Torsion [CB]-CG--CD-[OE1] |==|  0.10752
USER: genes 11 Torsion [N]-CA--C-[N] |==|  0.67910
USER: genes 12 Torsion [C]-N--CA-[CB] |==|  0.25145
USER: genes 13 Torsion [N]-CA--CB-[OG] |==|  0.90355
USER: genes 14 Torsion [CA]-CB--OG-[HG] |==|  0.90592
USER: genes 15 Torsion [N]-CA--C-[O] |==|  0.38737
USER: genes 16 Torsion [C]-CA--CB-[CG] |==|  0.77507
USER: genes 17 Torsion [CA]-CB--CG-[CD] |==|  0.47190
USER: genes 18 Torsion [CB]-CG--CD-[NE] |==|  0.72335
USER: genes 19 Torsion [CG]-CD--NE-[HE] |==|  0.90014
USER: genes 20 Torsion [C]-CA--N-[C] |==|  0.69522
USER: genes 21 Torsion [N]-C--CA-[N] |==|  0.37914
USER: genes 22 Torsion [C]-CA--N-[C] |==|  0.70788
USER: genes 23 Torsion [N]-C--CA-[N] |==|  0.32804
USER: genes 24 Torsion [C]-CA--CB-[CG2] |==|  0.45942
USER: genes 25 Torsion [CA]-CB--OG1-[HG1] |==|  0.28617
USER: genes 26 Torsion [C]-CA--N-[C] |==|  0.67895
USER: genes 27 Torsion [N]-C--CA-[N] |==|  0.00446
USER: genes 28 Torsion [C]-CA--CB-[CG] |==|  0.36026
USER: genes 29 Torsion [CA]-CB--CG-[CD] |==|  0.02445
USER: genes 30 Torsion [CB]-CG--CD-[OE1] |==|  0.26941
USER: genes 31 Torsion [C]-CA--CB-[CG2] |==|  0.81735
ROOT
ATOM      1  CA  ARG C   5      38.799  -8.101 -15.905  1.00 18.48 LIG 0.18  C 
ENDROOT
BRANCH 1 2
ATOM      2  C   ARG C   5      37.736  -8.131 -14.808  1.00 18.17 LIG 0.24  C 
ATOM      3 O    ARG C   5      38.043  -8.022 -13.613  1.00 17.19 LIG-0.27  OA
ATOM      4  N   PHE C   6      36.480  -8.240 -15.222  1.00 18.83 LIG-0.35  N 
ATOM      5 H    PHE C   6      36.228  -8.176 -16.042  1.00 18.83 LIG 0.16  HD
BRANCH 4 6
ATOM      6  CA  PHE C   6      35.404  -8.486 -14.260  1.00 19.26 LIG 0.18  C 
BRANCH 6 7
ATOM      7  CB  PHE C   6      35.647  -9.797 -13.536  1.00 18.47 LIG 0.07  C 
BRANCH 7 8
ATOM      8  CG  PHE C   6      34.498 -10.736 -13.613  1.00 17.36 LIG-0.06  A 
ATOM      9  CD2 PHE C   6      33.200 -10.253 -13.800  1.00 17.83 LIG 0.01  A 
ATOM     10  CE2 PHE C   6      32.127 -11.128 -13.869  1.00 17.21 LIG 0.00  A 
ATOM     11  CZ  PHE C   6      32.340 -12.522 -13.771  1.00 18.37 LIG 0.00  A 
ATOM     12  CE1 PHE C   6      33.620 -13.006 -13.602  1.00 15.49 LIG 0.00  A 
ATOM     13  CD1 PHE C   6      34.703 -12.115 -13.518  1.00 15.20 LIG 0.01  A 
ENDBRANCH 7 8
ENDBRANCH 6 7
BRANCH 6 14
ATOM     14  C   PHE C   6      35.305  -7.348 -13.245  1.00 20.73 LIG 0.24  C 
ATOM     15 O    PHE C   6      35.300  -6.172 -13.628  1.00 20.81 LIG-0.27  OA
ATOM     16  N   GLN C   7      35.229  -7.689 -11.956  1.00 22.42 LIG-0.35  N 
ATOM     17 H    GLN C   7      35.297  -8.493 -11.656  1.00 22.42 LIG 0.16  HD
BRANCH 16 18
ATOM     18  CA  GLN C   7      35.016  -6.665 -10.939  1.00 25.26 LIG 0.18  C 
BRANCH 18 19
ATOM     19  CB  GLN C   7      36.310  -5.983 -10.495  1.00 25.69 LIG 0.04  C 
BRANCH 19 20
ATOM     20  CG  GLN C   7      36.303  -5.733  -8.994  1.00 27.68 LIG 0.10  C 
BRANCH 20 21
ATOM     21  CD  GLN C   7      36.849  -6.884  -8.209  1.00 27.15 LIG 0.21  C 
ATOM     22  NE2 GLN C   7      36.234  -7.177  -7.066  1.00 28.04 LIG-0.37  N 
ATOM     23 21HE GLN C   7      35.560  -6.709  -6.808  1.00 28.04 LIG 0.16  HD
ATOM     24 22HE GLN C   7      36.511  -7.834  -6.585  1.00 28.04 LIG 0.16  HD
ATOM     25 OE1  GLN C   7      37.808  -7.513  -8.624  1.00 23.97 LIG-0.27  OA
ENDBRANCH 20 21
ENDBRANCH 19 20
ENDBRANCH 18 19
BRANCH 18 26
ATOM     26  C   GLN C   7      33.961  -5.656 -11.343  1.00 26.49 LIG 0.24  C 
ATOM     27 O    GLN C   7      32.758  -5.981 -11.544  1.00 27.60 LIG-0.27  OA
ATOM     28  N   SER C   8      34.452  -4.428 -11.493  1.00 27.61 LIG-0.34  N 
ATOM     29 H    SER C   8      35.293  -4.251 -11.456  1.00 27.61 LIG 0.16  HD
BRANCH 28 30
ATOM     30  CA  SER C   8      33.622  -3.258 -11.733  1.00 28.42 LIG 0.19  C 
BRANCH 30 31
ATOM     31  CB  SER C   8      33.244  -2.638 -10.394  1.00 28.45 LIG 0.20  C 
BRANCH 31 32
ATOM     32 OG   SER C   8      33.072  -3.668  -9.425  1.00 26.71 LIG-0.40  OA
ATOM     33 HG   SER C   8      32.756  -4.352  -9.796  1.00 26.71 LIG 0.21  HD
ENDBRANCH 31 32
ENDBRANCH 30 31
BRANCH 30 34
ATOM     34  C   SER C   8      34.393  -2.262 -12.587  1.00 29.48 LIG 0.22  C 
ATOM     35 O    SER C   8      33.822  -1.644 -13.496  1.00 30.60 LIG-0.29  OA
ENDBRANCH 30 34
ENDBRANCH 28 30
ENDBRANCH 18 26
ENDBRANCH 16 18
ENDBRANCH 6 14
ENDBRANCH 4 6
ENDBRANCH 1 2
BRANCH 1 36
ATOM     36  CB  ARG C   5      39.835  -7.002 -15.646  1.00 18.58 LIG 0.04  C 
BRANCH 36 37
ATOM     37  CG  ARG C   5      39.387  -5.618 -16.073  1.00 19.48 LIG 0.02  C 
BRANCH 37 38
ATOM     38  CD  ARG C   5      40.327  -4.533 -15.581  1.00 24.05 LIG 0.14  C 
BRANCH 38 39
ATOM     39  NE  ARG C   5      39.757  -3.922 -14.389  1.00 29.23 LIG-0.23  N 
ATOM     40 HE   ARG C   5      38.902  -3.834 -14.359  1.00 29.23 LIG 0.18  HD
ATOM     41  CZ  ARG C   5      40.460  -3.490 -13.341  1.00 30.64 LIG 0.67  C 
ATOM     42  NH1 ARG C   5      41.789  -3.547 -13.333  1.00 31.79 LIG-0.23  N 
ATOM     43  NH2 ARG C   5      39.822  -2.966 -12.300  1.00 32.60 LIG-0.23  N 
ATOM     44 2HH1 ARG C   5      42.228  -3.264 -12.650  1.00 31.79 LIG 0.17  HD
ATOM     45 1HH1 ARG C   5      42.210  -3.867 -14.012  1.00 31.79 LIG 0.17  HD
ATOM     46 2HH2 ARG C   5      40.268  -2.684 -11.620  1.00 32.60 LIG 0.17  HD
ATOM     47 1HH2 ARG C   5      38.964  -2.908 -12.306  1.00 32.60 LIG 0.17  HD
ENDBRANCH 38 39
ENDBRANCH 37 38
ENDBRANCH 36 37
ENDBRANCH 1 36
BRANCH 1 48
ATOM     48  N   ARG C   5      38.152  -7.934 -17.201  1.00 18.21 LIG-0.35  N 
ATOM     49  C   VAL C   4      38.113  -8.923 -18.088  1.00 18.34 LIG 0.24  C 
ATOM     50 O    VAL C   4      38.690 -10.007 -17.917  1.00 18.10 LIG-0.27  OA
ATOM     51 H    ARG C   5      37.809  -7.156 -17.330  1.00 18.21 LIG 0.16  HD
BRANCH 49 52
ATOM     52  CA  VAL C   4      37.304  -8.662 -19.340  1.00 18.53 LIG 0.18  C 
BRANCH 52 53
ATOM     53  N   VAL C   4      38.045  -9.141 -20.525  1.00 19.37 LIG-0.35  N 
ATOM     54  C   THR C   3      38.645  -8.300 -21.360  1.00 20.69 LIG 0.24  C 
ATOM     55 O    THR C   3      38.709  -7.089 -21.175  1.00 20.32 LIG-0.27  OA
ATOM     56 H    VAL C   4      38.049  -9.996 -20.618  1.00 19.37 LIG 0.16  HD
BRANCH 54 57
ATOM     57  CA  THR C   3      39.277  -8.933 -22.594  1.00 21.56 LIG 0.20  C 
BRANCH 57 58
ATOM     58  CB  THR C   3      40.801  -8.730 -22.521  1.00 22.09 LIG 0.15  C 
ATOM     59  CG2 THR C   3      41.501  -9.638 -23.519  1.00 23.63 LIG 0.04  C 
BRANCH 58 60
ATOM     60 OG1  THR C   3      41.124  -7.353 -22.775  1.00 21.54 LIG-0.39  OA
ATOM     61 HG1  THR C   3      41.304  -6.968 -22.050  1.00 21.54 LIG 0.21  HD
ENDBRANCH 58 60
ENDBRANCH 57 58
BRANCH 57 62
ATOM     62  N   THR C   3      38.704  -8.478 -23.869  1.00 23.16 LIG-0.34  N 
ATOM     63  C   GLU C   2      38.056  -9.331 -24.671  1.00 24.83 LIG 0.26  C 
ATOM     64 O    GLU C   2      37.814 -10.484 -24.349  1.00 23.95 LIG-0.27  OA
ATOM     65 H    THR C   3      38.822  -7.644 -24.040  1.00 23.16 LIG 0.16  HD
BRANCH 63 66
ATOM     66  CA  GLU C   2      37.580  -8.842 -26.040  1.00 26.47 LIG 0.40  C 
ATOM     67  N   GLU C   2      37.961  -7.427 -26.303  1.00 27.26 LIG 0.61  N 
BRANCH 66 68
ATOM     68  CB  GLU C   2      38.039  -9.748 -27.159  1.00 27.59 LIG 0.06  C 
BRANCH 68 69
ATOM     69  CG  GLU C   2      36.891 -10.138 -28.062  1.00 31.29 LIG 0.12  C 
BRANCH 69 70
ATOM     70  CD  GLU C   2      35.656  -9.360 -27.736  1.00 36.63 LIG 0.17  C 
ATOM     71 OE1  GLU C   2      35.397  -8.338 -28.420  1.00 39.47 LIG-0.65  OA
ATOM     72 OE2  GLU C   2      34.947  -9.763 -26.785  1.00 40.70 LIG-0.65  OA
ENDBRANCH 69 70
ENDBRANCH 68 69
ENDBRANCH 66 68
ENDBRANCH 63 66
ENDBRANCH 57 62
ENDBRANCH 54 57
ENDBRANCH 52 53
BRANCH 52 73
ATOM     73  CB  VAL C   4      35.920  -9.360 -19.226  1.00 18.61 LIG 0.01  C 
ATOM     74  CG2 VAL C   4      36.066 -10.881 -19.198  1.00 18.43 LIG 0.01  C 
ATOM     75  CG1 VAL C   4      35.017  -8.923 -20.367  1.00 18.06 LIG 0.01  C 
ENDBRANCH 52 73
ENDBRANCH 49 52
ENDBRANCH 1 48
TORSDOF 30
ENDMDL
