MODEL 1
USER: ADFR SOLUTION from run 154
USER: SCORE 11.795771 LL:  -1.314 LR: -10.600 RR:   0.000 FEB:  -6.723
USER: RMSD 7.834364
USER: SEED 153
USER: STATUS no improvement in best in 6 clusters for 5 generations
USER: GENES 15
USER: genes 0 Translation |==|  0.68253 0.66423 0.49751
USER: genes 1 Rotation |==|  0.28581 0.92181 0.64730 0.56706
USER: genes 2 Torsion [N]-C--CA-[N] |==|  0.92895
USER: genes 3 Torsion [C]-CA--N-[C] |==|  0.83011
USER: genes 4 Torsion [N]-C--CA-[N] |==|  0.84891
USER: genes 5 Torsion [C]-CA--CB-[CG] |==|  0.46671
USER: genes 6 Torsion [CA]-CB--CG-[CD2] |==|  0.11647
USER: genes 7 Torsion [C]-N--CA-[C] |==|  0.71215
USER: genes 8 Torsion [N]-CA--C-[N] |==|  0.43333
USER: genes 9 Torsion [C]-N--CA-[C] |==|  0.14297
USER: genes 10 Torsion [N]-CA--C-[O] |==|  0.68370
USER: genes 11 Torsion [N]-CA--CB-[OG] |==|  0.67474
USER: genes 12 Torsion [CA]-CB--OG-[HG] |==|  0.70468
USER: genes 13 Torsion [N]-CA--CB-[OG] |==|  0.51216
USER: genes 14 Torsion [CA]-CB--OG-[HG] |==|  0.65913
ROOT
ATOM      1  C   HIS B 399      38.936 -10.541 -10.675  1.00 17.93 LIG 0.24  C 
ATOM      2 O    HIS B 399      39.354 -10.621  -9.519  1.00 15.41 LIG-0.27  OA
ATOM      3  N   SER B 400      37.824 -11.139 -11.090  1.00 17.64 LIG-0.34  N 
ATOM      4 H    SER B 400      37.524 -11.080 -11.894  1.00 17.64 LIG 0.16  HD
ENDROOT
BRANCH 1 5
ATOM      5  CA  HIS B 399      39.690  -9.730 -11.721  1.00 18.55 LIG 0.18  C 
BRANCH 5 6
ATOM      6  N   HIS B 399      39.400 -10.239 -13.054  1.00 19.43 LIG-0.34  N 
ATOM      7 H    HIS B 399      39.025  -9.670 -13.577  1.00 19.43 LIG 0.16  HD
ATOM      8  C   ALA B 398      39.702 -11.485 -13.405  1.00 22.32 LIG 0.26  C 
ATOM      9 O    ALA B 398      40.229 -12.289 -12.633  1.00 22.30 LIG-0.27  OA
BRANCH 8 10
ATOM     10  CA  ALA B 398      39.352 -11.883 -14.836  1.00 21.39 LIG 0.40  C 
ATOM     11  N   ALA B 398      37.911 -11.628 -15.136  1.00 23.95 LIG 0.61  N 
ATOM     12  CB  ALA B 398      40.228 -11.123 -15.821  1.00 21.38 LIG 0.06  C 
ENDBRANCH 8 10
ENDBRANCH 5 6
BRANCH 5 13
ATOM     13  CB  HIS B 399      39.277  -8.260 -11.631  1.00 22.49 LIG 0.10  C 
BRANCH 13 14
ATOM     14  CG  HIS B 399      40.160  -7.341 -12.415  1.00 24.90 LIG 0.06  A 
ATOM     15  CD2 HIS B 399      40.703  -7.466 -13.649  1.00 26.88 LIG 0.14  A 
ATOM     16 NE2  HIS B 399      41.377  -6.299 -13.915  1.00 28.66 LIG-0.25  NA
ATOM     17  CE1 HIS B 399      41.255  -5.487 -12.880  1.00 27.08 LIG 0.23  A 
ATOM     18 ND1  HIS B 399      40.525  -6.093 -11.960  1.00 26.64 LIG-0.24  NA
ENDBRANCH 13 14
ENDBRANCH 5 13
ENDBRANCH 1 5
BRANCH 3 19
ATOM     19  CA  SER B 400      37.001 -11.960 -10.207  1.00 19.59 LIG 0.20  C 
BRANCH 19 20
ATOM     20  C   SER B 400      37.234 -13.436 -10.506  1.00 19.52 LIG 0.24  C 
ATOM     21  N   SER B 401      36.972 -14.293  -9.522  1.00 18.79 LIG-0.34  N 
ATOM     22 H    SER B 401      36.685 -14.062  -8.746  1.00 18.79 LIG 0.16  HD
ATOM     23 O    SER B 400      37.639 -13.792 -11.614  1.00 19.53 LIG-0.27  OA
BRANCH 21 24
ATOM     24  CA  SER B 401      37.159 -15.731  -9.695  1.00 20.07 LIG 0.19  C 
BRANCH 24 25
ATOM     25  C   SER B 401      38.553 -16.022 -10.231  1.00 22.19 LIG 0.22  C 
ATOM     26 O    SER B 401      38.650 -16.503 -11.380  1.00 22.82 LIG-0.29  OA
ENDBRANCH 24 25
BRANCH 24 27
ATOM     27  CB  SER B 401      36.109 -16.308 -10.652  1.00 19.03 LIG 0.20  C 
BRANCH 27 28
ATOM     28 OG   SER B 401      35.275 -17.253 -10.002  1.00 19.07 LIG-0.40  OA
ATOM     29 HG   SER B 401      35.478 -18.027 -10.255  1.00 19.07 LIG 0.21  HD
ENDBRANCH 27 28
ENDBRANCH 24 27
ENDBRANCH 21 24
ENDBRANCH 19 20
BRANCH 19 30
ATOM     30  CB  SER B 400      35.521 -11.628 -10.411  1.00 20.99 LIG 0.20  C 
BRANCH 30 31
ATOM     31 OG   SER B 400      34.712 -12.344  -9.490  1.00 29.12 LIG-0.40  OA
ATOM     32 HG   SER B 400      34.150 -12.805  -9.911  1.00 29.12 LIG 0.21  HD
ENDBRANCH 30 31
ENDBRANCH 19 30
ENDBRANCH 3 19
TORSDOF 13
ENDMDL
MODEL 2
USER: ADFR SOLUTION from run 72
USER: SCORE 11.821925 LL:  -1.689 LR: -10.347 RR:   0.000 FEB:  -6.469
USER: RMSD 1.159154
USER: SEED 71
USER: STATUS no improvement in best in 3 clusters for 5 generations
USER: GENES 15
USER: genes 0 Translation |==|  0.49871 0.54915 0.56210
USER: genes 1 Rotation |==|  0.47026 0.49459 0.53009 0.99818
USER: genes 2 Torsion [N]-C--CA-[N] |==|  0.44445
USER: genes 3 Torsion [C]-CA--N-[C] |==|  0.55279
USER: genes 4 Torsion [N]-C--CA-[N] |==|  0.57947
USER: genes 5 Torsion [C]-CA--CB-[CG] |==|  0.78292
USER: genes 6 Torsion [CA]-CB--CG-[CD2] |==|  0.27949
USER: genes 7 Torsion [C]-N--CA-[C] |==|  0.81099
USER: genes 8 Torsion [N]-CA--C-[N] |==|  0.45984
USER: genes 9 Torsion [C]-N--CA-[C] |==|  0.86939
USER: genes 10 Torsion [N]-CA--C-[O] |==|  0.30692
USER: genes 11 Torsion [N]-CA--CB-[OG] |==|  0.10785
USER: genes 12 Torsion [CA]-CB--OG-[HG] |==|  0.75518
USER: genes 13 Torsion [N]-CA--CB-[OG] |==|  0.78027
USER: genes 14 Torsion [CA]-CB--OG-[HG] |==|  0.93355
ROOT
ATOM      1  C   HIS B 399      35.627 -12.354  -9.512  1.00 17.93 LIG 0.24  C 
ATOM      2 O    HIS B 399      34.900 -12.490 -10.497  1.00 15.41 LIG-0.27  OA
ATOM      3  N   SER B 400      36.810 -11.752  -9.557  1.00 17.64 LIG-0.34  N 
ATOM      4 H    SER B 400      37.318 -11.648  -8.871  1.00 17.64 LIG 0.16  HD
ENDROOT
BRANCH 1 5
ATOM      5  CA  HIS B 399      35.196 -12.881  -8.149  1.00 18.55 LIG 0.18  C 
BRANCH 5 6
ATOM      6  N   HIS B 399      33.753 -13.075  -8.120  1.00 19.43 LIG-0.34  N 
ATOM      7 H    HIS B 399      33.386 -13.125  -8.896  1.00 19.43 LIG 0.16  HD
ATOM      8  C   ALA B 398      33.084 -13.164  -6.975  1.00 22.32 LIG 0.26  C 
ATOM      9 O    ALA B 398      33.630 -13.077  -5.873  1.00 22.30 LIG-0.27  OA
BRANCH 8 10
ATOM     10  CA  ALA B 398      31.578 -13.377  -7.091  1.00 21.39 LIG 0.40  C 
ATOM     11  N   ALA B 398      30.854 -12.802  -5.919  1.00 23.95 LIG 0.61  N 
ATOM     12  CB  ALA B 398      31.058 -12.753  -8.378  1.00 21.38 LIG 0.06  C 
ENDBRANCH 8 10
ENDBRANCH 5 6
BRANCH 5 13
ATOM     13  CB  HIS B 399      35.898 -14.210  -7.863  1.00 22.49 LIG 0.10  C 
BRANCH 13 14
ATOM     14  CG  HIS B 399      35.288 -15.374  -8.577  1.00 24.90 LIG 0.06  A 
ATOM     15  CD2 HIS B 399      35.665 -16.026  -9.703  1.00 26.88 LIG 0.14  A 
ATOM     16 NE2  HIS B 399      34.788 -17.068  -9.880  1.00 28.66 LIG-0.25  NA
ATOM     17  CE1 HIS B 399      33.903 -17.057  -8.899  1.00 27.08 LIG 0.23  A 
ATOM     18 ND1  HIS B 399      34.181 -16.042  -8.099  1.00 26.64 LIG-0.24  NA
ENDBRANCH 13 14
ENDBRANCH 5 13
ENDBRANCH 1 5
BRANCH 3 19
ATOM     19  CA  SER B 400      37.363 -11.207 -10.793  1.00 19.59 LIG 0.20  C 
BRANCH 19 20
ATOM     20  C   SER B 400      37.707 -12.341 -11.752  1.00 19.52 LIG 0.24  C 
ATOM     21  N   SER B 401      37.938 -12.003 -13.018  1.00 18.79 LIG-0.34  N 
ATOM     22 H    SER B 401      37.904 -11.197 -13.315  1.00 18.79 LIG 0.16  HD
ATOM     23 O    SER B 400      37.766 -13.503 -11.348  1.00 19.53 LIG-0.27  OA
BRANCH 21 24
ATOM     24  CA  SER B 401      38.275 -13.006 -14.025  1.00 20.07 LIG 0.19  C 
BRANCH 24 25
ATOM     25  C   SER B 401      39.350 -13.944 -13.496  1.00 22.19 LIG 0.22  C 
ATOM     26 O    SER B 401      39.025 -15.125 -13.248  1.00 22.82 LIG-0.29  OA
ENDBRANCH 24 25
BRANCH 24 27
ATOM     27  CB  SER B 401      38.763 -12.341 -15.318  1.00 19.03 LIG 0.20  C 
BRANCH 27 28
ATOM     28 OG   SER B 401      39.576 -11.211 -15.048  1.00 19.07 LIG-0.40  OA
ATOM     29 HG   SER B 401      39.093 -10.529 -14.973  1.00 19.07 LIG 0.21  HD
ENDBRANCH 27 28
ENDBRANCH 24 27
ENDBRANCH 21 24
ENDBRANCH 19 20
BRANCH 19 30
ATOM     30  CB  SER B 400      38.627 -10.398 -10.491  1.00 20.99 LIG 0.20  C 
BRANCH 30 31
ATOM     31 OG   SER B 400      38.296  -9.110  -9.997  1.00 29.12 LIG-0.40  OA
ATOM     32 HG   SER B 400      37.525  -8.900 -10.256  1.00 29.12 LIG 0.21  HD
ENDBRANCH 30 31
ENDBRANCH 19 30
ENDBRANCH 3 19
TORSDOF 13
ENDMDL
MODEL 3
USER: ADFR SOLUTION from run 19
USER: SCORE 11.609127 LL:  -1.538 LR: -10.300 RR:   0.000 FEB:  -6.422
USER: RMSD 7.954671
USER: SEED 18
USER: STATUS searching
USER: GENES 15
USER: genes 0 Translation |==|  0.55540 0.58031 0.51447
USER: genes 1 Rotation |==|  0.13630 0.68337 0.22906 0.60339
USER: genes 2 Torsion [N]-C--CA-[N] |==|  0.28416
USER: genes 3 Torsion [C]-CA--N-[C] |==|  0.76111
USER: genes 4 Torsion [N]-C--CA-[N] |==|  0.87538
USER: genes 5 Torsion [C]-CA--CB-[CG] |==|  0.56976
USER: genes 6 Torsion [CA]-CB--CG-[CD2] |==|  0.87516
USER: genes 7 Torsion [C]-N--CA-[C] |==|  0.78836
USER: genes 8 Torsion [N]-CA--C-[N] |==|  0.44373
USER: genes 9 Torsion [C]-N--CA-[C] |==|  0.78023
USER: genes 10 Torsion [N]-CA--C-[O] |==|  0.92734
USER: genes 11 Torsion [N]-CA--CB-[OG] |==|  0.94048
USER: genes 12 Torsion [CA]-CB--OG-[HG] |==|  0.02681
USER: genes 13 Torsion [N]-CA--CB-[OG] |==|  0.64664
USER: genes 14 Torsion [CA]-CB--OG-[HG] |==|  0.89929
ROOT
ATOM      1  C   HIS B 399      36.647 -11.863 -10.370  1.00 17.93 LIG 0.24  C 
ATOM      2 O    HIS B 399      35.603 -11.245 -10.579  1.00 15.41 LIG-0.27  OA
ATOM      3  N   SER B 400      36.677 -13.103  -9.893  1.00 17.64 LIG-0.34  N 
ATOM      4 H    SER B 400      37.403 -13.541  -9.752  1.00 17.64 LIG 0.16  HD
ENDROOT
BRANCH 1 5
ATOM      5  CA  HIS B 399      38.001 -11.224 -10.655  1.00 18.55 LIG 0.18  C 
BRANCH 5 6
ATOM      6  N   HIS B 399      38.275 -11.251 -12.085  1.00 19.43 LIG-0.34  N 
ATOM      7 H    HIS B 399      38.045 -10.537 -12.504  1.00 19.43 LIG 0.16  HD
ATOM      8  C   ALA B 398      38.837 -12.306 -12.667  1.00 22.32 LIG 0.26  C 
ATOM      9 O    ALA B 398      39.149 -13.325 -12.047  1.00 22.30 LIG-0.27  OA
BRANCH 8 10
ATOM     10  CA  ALA B 398      39.078 -12.196 -14.170  1.00 21.39 LIG 0.40  C 
ATOM     11  N   ALA B 398      37.887 -11.630 -14.872  1.00 23.95 LIG 0.61  N 
ATOM     12  CB  ALA B 398      40.300 -11.331 -14.443  1.00 21.38 LIG 0.06  C 
ENDBRANCH 8 10
ENDBRANCH 5 6
BRANCH 5 13
ATOM     13  CB  HIS B 399      38.003  -9.776 -10.159  1.00 22.49 LIG 0.10  C 
BRANCH 13 14
ATOM     14  CG  HIS B 399      38.981  -8.900 -10.876  1.00 24.90 LIG 0.06  A 
ATOM     15  CD2 HIS B 399      40.273  -9.106 -11.224  1.00 26.88 LIG 0.14  A 
ATOM     16 NE2  HIS B 399      40.684  -8.001 -11.929  1.00 28.66 LIG-0.25  NA
ATOM     17  CE1 HIS B 399      39.681  -7.145 -12.009  1.00 27.08 LIG 0.23  A 
ATOM     18 ND1  HIS B 399      38.640  -7.663 -11.380  1.00 26.64 LIG-0.24  NA
ENDBRANCH 13 14
ENDBRANCH 5 13
ENDBRANCH 1 5
BRANCH 3 19
ATOM     19  CA  SER B 400      35.463 -13.841  -9.560  1.00 19.59 LIG 0.20  C 
BRANCH 19 20
ATOM     20  C   SER B 400      34.894 -13.335  -8.240  1.00 19.52 LIG 0.24  C 
ATOM     21  N   SER B 401      33.609 -13.593  -8.005  1.00 18.79 LIG-0.34  N 
ATOM     22 H    SER B 401      33.097 -14.020  -8.547  1.00 18.79 LIG 0.16  HD
ATOM     23 O    SER B 400      35.610 -12.726  -7.445  1.00 19.53 LIG-0.27  OA
BRANCH 21 24
ATOM     24  CA  SER B 401      32.957 -13.155  -6.774  1.00 20.07 LIG 0.19  C 
BRANCH 24 25
ATOM     25  C   SER B 401      33.308 -14.094  -5.629  1.00 22.19 LIG 0.22  C 
ATOM     26 O    SER B 401      33.612 -15.273  -5.911  1.00 22.82 LIG-0.29  OA
ENDBRANCH 24 25
BRANCH 24 27
ATOM     27  CB  SER B 401      31.435 -13.104  -6.950  1.00 19.03 LIG 0.20  C 
BRANCH 27 28
ATOM     28 OG   SER B 401      31.071 -13.006  -8.317  1.00 19.07 LIG-0.40  OA
ATOM     29 HG   SER B 401      31.750 -13.126  -8.797  1.00 19.07 LIG 0.21  HD
ENDBRANCH 27 28
ENDBRANCH 24 27
ENDBRANCH 21 24
ENDBRANCH 19 20
BRANCH 19 30
ATOM     30  CB  SER B 400      35.774 -15.335  -9.439  1.00 20.99 LIG 0.20  C 
BRANCH 30 31
ATOM     31 OG   SER B 400      34.902 -16.100 -10.255  1.00 29.12 LIG-0.40  OA
ATOM     32 HG   SER B 400      34.139 -15.750 -10.255  1.00 29.12 LIG 0.21  HD
ENDBRANCH 30 31
ENDBRANCH 19 30
ENDBRANCH 3 19
TORSDOF 13
ENDMDL
MODEL 4
USER: ADFR SOLUTION from run 185
USER: SCORE 11.627186 LL:  -1.596 LR: -10.268 RR:   0.000 FEB:  -6.390
USER: RMSD 6.917278
USER: SEED 184
USER: STATUS no improvement in best in 7 clusters for 5 generations
USER: GENES 15
USER: genes 0 Translation |==|  0.57828 0.57838 0.53666
USER: genes 1 Rotation |==|  0.11996 0.52035 0.17712 0.53011
USER: genes 2 Torsion [N]-C--CA-[N] |==|  0.40414
USER: genes 3 Torsion [C]-CA--N-[C] |==|  0.78389
USER: genes 4 Torsion [N]-C--CA-[N] |==|  0.18223
USER: genes 5 Torsion [C]-CA--CB-[CG] |==|  0.54398
USER: genes 6 Torsion [CA]-CB--CG-[CD2] |==|  0.83648
USER: genes 7 Torsion [C]-N--CA-[C] |==|  0.18836
USER: genes 8 Torsion [N]-CA--C-[N] |==|  0.05292
USER: genes 9 Torsion [C]-N--CA-[C] |==|  0.85665
USER: genes 10 Torsion [N]-CA--C-[O] |==|  0.30438
USER: genes 11 Torsion [N]-CA--CB-[OG] |==|  0.79946
USER: genes 12 Torsion [CA]-CB--OG-[HG] |==|  0.74775
USER: genes 13 Torsion [N]-CA--CB-[OG] |==|  0.23910
USER: genes 14 Torsion [CA]-CB--OG-[HG] |==|  0.18648
ROOT
ATOM      1  C   HIS B 399      37.059 -11.893  -9.970  1.00 17.93 LIG 0.24  C 
ATOM      2 O    HIS B 399      35.978 -11.896 -10.560  1.00 15.41 LIG-0.27  OA
ATOM      3  N   SER B 400      37.261 -12.521  -8.817  1.00 17.64 LIG-0.34  N 
ATOM      4 H    SER B 400      38.016 -12.528  -8.405  1.00 17.64 LIG 0.16  HD
ENDROOT
BRANCH 1 5
ATOM      5  CA  HIS B 399      38.259 -11.151 -10.547  1.00 18.55 LIG 0.18  C 
BRANCH 5 6
ATOM      6  N   HIS B 399      38.239 -11.222 -12.001  1.00 19.43 LIG-0.34  N 
ATOM      7 H    HIS B 399      37.963 -10.506 -12.387  1.00 19.43 LIG 0.16  HD
ATOM      8  C   ALA B 398      38.622 -12.317 -12.651  1.00 22.32 LIG 0.26  C 
ATOM      9 O    ALA B 398      39.004 -13.338 -12.075  1.00 22.30 LIG-0.27  OA
BRANCH 8 10
ATOM     10  CA  ALA B 398      38.561 -12.250 -14.174  1.00 21.39 LIG 0.40  C 
ATOM     11  N   ALA B 398      39.533 -11.253 -14.715  1.00 23.95 LIG 0.61  N 
ATOM     12  CB  ALA B 398      38.840 -13.622 -14.771  1.00 21.38 LIG 0.06  C 
ENDBRANCH 8 10
ENDBRANCH 5 6
BRANCH 5 13
ATOM     13  CB  HIS B 399      38.223  -9.688 -10.103  1.00 22.49 LIG 0.10  C 
BRANCH 13 14
ATOM     14  CG  HIS B 399      39.123  -8.799 -10.901  1.00 24.90 LIG 0.06  A 
ATOM     15  CD2 HIS B 399      40.461  -8.837 -11.105  1.00 26.88 LIG 0.14  A 
ATOM     16 NE2  HIS B 399      40.768  -7.823 -11.978  1.00 28.66 LIG-0.25  NA
ATOM     17  CE1 HIS B 399      39.658  -7.181 -12.298  1.00 27.08 LIG 0.23  A 
ATOM     18 ND1  HIS B 399      38.650  -7.750 -11.660  1.00 26.64 LIG-0.24  NA
ENDBRANCH 13 14
ENDBRANCH 5 13
ENDBRANCH 1 5
BRANCH 3 19
ATOM     19  CA  SER B 400      36.205 -13.264  -8.136  1.00 19.59 LIG 0.20  C 
BRANCH 19 20
ATOM     20  C   SER B 400      35.832 -14.498  -8.949  1.00 19.52 LIG 0.24  C 
ATOM     21  N   SER B 401      36.719 -14.909  -9.852  1.00 18.79 LIG-0.34  N 
ATOM     22 H    SER B 401      37.474 -14.523  -9.996  1.00 18.79 LIG 0.16  HD
ATOM     23 O    SER B 400      34.759 -15.071  -8.756  1.00 19.53 LIG-0.27  OA
BRANCH 21 24
ATOM     24  CA  SER B 401      36.469 -16.079 -10.689  1.00 20.07 LIG 0.19  C 
BRANCH 24 25
ATOM     25  C   SER B 401      36.073 -17.269  -9.827  1.00 22.19 LIG 0.22  C 
ATOM     26 O    SER B 401      34.888 -17.663  -9.881  1.00 22.82 LIG-0.29  OA
ENDBRANCH 24 25
BRANCH 24 27
ATOM     27  CB  SER B 401      37.708 -16.434 -11.519  1.00 19.03 LIG 0.20  C 
BRANCH 27 28
ATOM     28 OG   SER B 401      37.923 -15.497 -12.561  1.00 19.07 LIG-0.40  OA
ATOM     29 HG   SER B 401      37.525 -15.753 -13.255  1.00 19.07 LIG 0.21  HD
ENDBRANCH 27 28
ENDBRANCH 24 27
ENDBRANCH 21 24
ENDBRANCH 19 20
BRANCH 19 30
ATOM     30  CB  SER B 400      34.969 -12.378  -7.962  1.00 20.99 LIG 0.20  C 
BRANCH 30 31
ATOM     31 OG   SER B 400      34.143 -12.432  -9.114  1.00 29.12 LIG-0.40  OA
ATOM     32 HG   SER B 400      33.814 -13.201  -9.187  1.00 29.12 LIG 0.21  HD
ENDBRANCH 30 31
ENDBRANCH 19 30
ENDBRANCH 3 19
TORSDOF 13
ENDMDL
MODEL 5
USER: ADFR SOLUTION from run 62
USER: SCORE 10.667204 LL:  -1.481 LR: -10.238 RR:   0.000 FEB:  -6.361
USER: RMSD 7.725061
USER: SEED 61
USER: STATUS no improvement in best in 17 clusters for 5 generations
USER: GENES 15
USER: genes 0 Translation |==|  0.65770 0.73655 0.53353
USER: genes 1 Rotation |==|  0.21200 0.83678 0.69190 0.62966
USER: genes 2 Torsion [N]-C--CA-[N] |==|  0.60695
USER: genes 3 Torsion [C]-CA--N-[C] |==|  0.14685
USER: genes 4 Torsion [N]-C--CA-[N] |==|  0.79050
USER: genes 5 Torsion [C]-CA--CB-[CG] |==|  0.57587
USER: genes 6 Torsion [CA]-CB--CG-[CD2] |==|  0.39269
USER: genes 7 Torsion [C]-N--CA-[C] |==|  0.64444
USER: genes 8 Torsion [N]-CA--C-[N] |==|  0.93598
USER: genes 9 Torsion [C]-N--CA-[C] |==|  0.86722
USER: genes 10 Torsion [N]-CA--C-[O] |==|  0.31716
USER: genes 11 Torsion [N]-CA--CB-[OG] |==|  0.09629
USER: genes 12 Torsion [CA]-CB--OG-[HG] |==|  0.71275
USER: genes 13 Torsion [N]-CA--CB-[OG] |==|  0.55954
USER: genes 14 Torsion [CA]-CB--OG-[HG] |==|  0.64444
ROOT
ATOM      1  C   HIS B 399      38.489  -9.402 -10.027  1.00 17.93 LIG 0.24  C 
ATOM      2 O    HIS B 399      38.663  -9.759  -8.861  1.00 15.41 LIG-0.27  OA
ATOM      3  N   SER B 400      37.791 -10.109 -10.909  1.00 17.64 LIG-0.34  N 
ATOM      4 H    SER B 400      37.661  -9.860 -11.722  1.00 17.64 LIG 0.16  HD
ENDROOT
BRANCH 1 5
ATOM      5  CA  HIS B 399      39.079  -8.093 -10.535  1.00 18.55 LIG 0.18  C 
BRANCH 5 6
ATOM      6  N   HIS B 399      40.404  -7.888  -9.969  1.00 19.43 LIG-0.34  N 
ATOM      7 H    HIS B 399      40.512  -7.128  -9.583  1.00 19.43 LIG 0.16  HD
ATOM      8  C   ALA B 398      41.351  -8.818 -10.058  1.00 22.32 LIG 0.26  C 
ATOM      9 O    ALA B 398      41.179  -9.897 -10.628  1.00 22.30 LIG-0.27  OA
BRANCH 8 10
ATOM     10  CA  ALA B 398      42.691  -8.476  -9.411  1.00 21.39 LIG 0.40  C 
ATOM     11  N   ALA B 398      43.464  -7.503 -10.241  1.00 23.95 LIG 0.61  N 
ATOM     12  CB  ALA B 398      42.470  -7.906  -8.017  1.00 21.38 LIG 0.06  C 
ENDBRANCH 8 10
ENDBRANCH 5 6
BRANCH 5 13
ATOM     13  CB  HIS B 399      39.172  -8.127 -12.062  1.00 22.49 LIG 0.10  C 
BRANCH 13 14
ATOM     14  CG  HIS B 399      40.262  -7.263 -12.614  1.00 24.90 LIG 0.06  A 
ATOM     15  CD2 HIS B 399      41.116  -7.458 -13.646  1.00 26.88 LIG 0.14  A 
ATOM     16 NE2  HIS B 399      41.871  -6.317 -13.768  1.00 28.66 LIG-0.25  NA
ATOM     17  CE1 HIS B 399      41.496  -5.452 -12.842  1.00 27.08 LIG 0.23  A 
ATOM     18 ND1  HIS B 399      40.526  -6.000 -12.130  1.00 26.64 LIG-0.24  NA
ENDBRANCH 13 14
ENDBRANCH 5 13
ENDBRANCH 1 5
BRANCH 3 19
ATOM     19  CA  SER B 400      37.175 -11.389 -10.573  1.00 19.59 LIG 0.20  C 
BRANCH 19 20
ATOM     20  C   SER B 400      37.586 -12.446 -11.592  1.00 19.52 LIG 0.24  C 
ATOM     21  N   SER B 401      37.976 -12.004 -12.786  1.00 18.79 LIG-0.34  N 
ATOM     22 H    SER B 401      38.006 -11.174 -13.006  1.00 18.79 LIG 0.16  HD
ATOM     23 O    SER B 400      37.556 -13.641 -11.297  1.00 19.53 LIG-0.27  OA
BRANCH 21 24
ATOM     24  CA  SER B 401      38.391 -12.925 -13.840  1.00 20.07 LIG 0.19  C 
BRANCH 24 25
ATOM     25  C   SER B 401      39.377 -13.946 -13.291  1.00 22.19 LIG 0.22  C 
ATOM     26 O    SER B 401      39.020 -15.144 -13.254  1.00 22.82 LIG-0.29  OA
ENDBRANCH 24 25
BRANCH 24 27
ATOM     27  CB  SER B 401      39.032 -12.167 -15.008  1.00 19.03 LIG 0.20  C 
BRANCH 27 28
ATOM     28 OG   SER B 401      39.766 -11.040 -14.558  1.00 19.07 LIG-0.40  OA
ATOM     29 HG   SER B 401      39.325 -10.341 -14.705  1.00 19.07 LIG 0.21  HD
ENDBRANCH 27 28
ENDBRANCH 24 27
ENDBRANCH 21 24
ENDBRANCH 19 20
BRANCH 19 30
ATOM     30  CB  SER B 400      35.651 -11.254 -10.570  1.00 20.99 LIG 0.20  C 
BRANCH 30 31
ATOM     31 OG   SER B 400      35.054 -12.283  -9.797  1.00 29.12 LIG-0.40  OA
ATOM     32 HG   SER B 400      34.461 -12.667 -10.252  1.00 29.12 LIG 0.21  HD
ENDBRANCH 30 31
ENDBRANCH 19 30
ENDBRANCH 3 19
TORSDOF 13
ENDMDL
MODEL 6
USER: ADFR SOLUTION from run 93
USER: SCORE 11.280281 LL:  -1.842 LR: -10.031 RR:   0.000 FEB:  -6.153
USER: RMSD 7.084627
USER: SEED 92
USER: STATUS no improvement in best in 14 clusters for 5 generations
USER: GENES 15
USER: genes 0 Translation |==|  0.60349 0.48333 0.47478
USER: genes 1 Rotation |==|  0.39241 0.35214 0.07048 0.67908
USER: genes 2 Torsion [N]-C--CA-[N] |==|  0.48807
USER: genes 3 Torsion [C]-CA--N-[C] |==|  0.62720
USER: genes 4 Torsion [N]-C--CA-[N] |==|  0.31653
USER: genes 5 Torsion [C]-CA--CB-[CG] |==|  0.19163
USER: genes 6 Torsion [CA]-CB--CG-[CD2] |==|  0.11098
USER: genes 7 Torsion [C]-N--CA-[C] |==|  0.52778
USER: genes 8 Torsion [N]-CA--C-[N] |==|  0.41352
USER: genes 9 Torsion [C]-N--CA-[C] |==|  0.50596
USER: genes 10 Torsion [N]-CA--C-[O] |==|  0.80238
USER: genes 11 Torsion [N]-CA--CB-[OG] |==|  0.13357
USER: genes 12 Torsion [CA]-CB--OG-[HG] |==|  0.82296
USER: genes 13 Torsion [N]-CA--CB-[OG] |==|  0.76694
USER: genes 14 Torsion [CA]-CB--OG-[HG] |==|  0.14620
ROOT
ATOM      1  C   HIS B 399      37.513 -13.391 -11.084  1.00 17.93 LIG 0.24  C 
ATOM      2 O    HIS B 399      37.901 -13.708 -12.209  1.00 15.41 LIG-0.27  OA
ATOM      3  N   SER B 400      37.040 -14.265 -10.203  1.00 17.64 LIG-0.34  N 
ATOM      4 H    SER B 400      36.775 -14.049  -9.414  1.00 17.64 LIG 0.16  HD
ENDROOT
BRANCH 1 5
ATOM      5  CA  HIS B 399      37.556 -11.937 -10.627  1.00 18.55 LIG 0.18  C 
BRANCH 5 6
ATOM      6  N   HIS B 399      38.186 -11.111 -11.646  1.00 19.43 LIG-0.34  N 
ATOM      7 H    HIS B 399      37.909 -11.260 -12.446  1.00 19.43 LIG 0.16  HD
ATOM      8  C   ALA B 398      39.111 -10.207 -11.338  1.00 22.32 LIG 0.26  C 
ATOM      9 O    ALA B 398      39.504 -10.018 -10.185  1.00 22.30 LIG-0.27  OA
BRANCH 8 10
ATOM     10  CA  ALA B 398      39.680  -9.403 -12.504  1.00 21.39 LIG 0.40  C 
ATOM     11  N   ALA B 398      39.309  -7.960 -12.402  1.00 23.95 LIG 0.61  N 
ATOM     12  CB  ALA B 398      41.195  -9.546 -12.550  1.00 21.38 LIG 0.06  C 
ENDBRANCH 8 10
ENDBRANCH 5 6
BRANCH 5 13
ATOM     13  CB  HIS B 399      36.135 -11.436 -10.364  1.00 22.49 LIG 0.10  C 
BRANCH 13 14
ATOM     14  CG  HIS B 399      35.490 -12.065  -9.171  1.00 24.90 LIG 0.06  A 
ATOM     15  CD2 HIS B 399      35.989 -12.387  -7.954  1.00 26.88 LIG 0.14  A 
ATOM     16 NE2  HIS B 399      34.948 -12.881  -7.207  1.00 28.66 LIG-0.25  NA
ATOM     17  CE1 HIS B 399      33.849 -12.866  -7.938  1.00 27.08 LIG 0.23  A 
ATOM     18 ND1  HIS B 399      34.148 -12.379  -9.130  1.00 26.64 LIG-0.24  NA
ENDBRANCH 13 14
ENDBRANCH 5 13
ENDBRANCH 1 5
BRANCH 3 19
ATOM     19  CA  SER B 400      36.926 -15.690 -10.500  1.00 19.59 LIG 0.20  C 
BRANCH 19 20
ATOM     20  C   SER B 400      36.130 -16.386  -9.402  1.00 19.52 LIG 0.24  C 
ATOM     21  N   SER B 401      35.406 -17.441  -9.767  1.00 18.79 LIG-0.34  N 
ATOM     22 H    SER B 401      35.365 -17.742 -10.571  1.00 18.79 LIG 0.16  HD
ATOM     23 O    SER B 400      36.179 -15.976  -8.241  1.00 19.53 LIG-0.27  OA
BRANCH 21 24
ATOM     24  CA  SER B 401      34.603 -18.185  -8.800  1.00 20.07 LIG 0.19  C 
BRANCH 24 25
ATOM     25  C   SER B 401      33.924 -19.367  -9.477  1.00 22.19 LIG 0.22  C 
ATOM     26 O    SER B 401      32.987 -19.128 -10.269  1.00 22.82 LIG-0.29  OA
ENDBRANCH 24 25
BRANCH 24 27
ATOM     27  CB  SER B 401      33.545 -17.282  -8.156  1.00 19.03 LIG 0.20  C 
BRANCH 27 28
ATOM     28 OG   SER B 401      32.836 -16.534  -9.130  1.00 19.07 LIG-0.40  OA
ATOM     29 HG   SER B 401      33.365 -16.013  -9.522  1.00 19.07 LIG 0.21  HD
ENDBRANCH 27 28
ENDBRANCH 24 27
ENDBRANCH 21 24
ENDBRANCH 19 20
BRANCH 19 30
ATOM     30  CB  SER B 400      38.318 -16.319 -10.595  1.00 20.99 LIG 0.20  C 
BRANCH 30 31
ATOM     31 OG   SER B 400      38.868 -16.135 -11.890  1.00 29.12 LIG-0.40  OA
ATOM     32 HG   SER B 400      38.838 -15.321 -12.094  1.00 29.12 LIG 0.21  HD
ENDBRANCH 30 31
ENDBRANCH 19 30
ENDBRANCH 3 19
TORSDOF 13
ENDMDL
MODEL 7
USER: ADFR SOLUTION from run 146
USER: SCORE 9.623975 LL:  -1.083 LR:  -9.890 RR:   0.000 FEB:  -6.012
USER: RMSD 6.827547
USER: SEED 145
USER: STATUS no improvement in best in 14 clusters for 5 generations
USER: GENES 15
USER: genes 0 Translation |==|  0.53523 0.54153 0.56835
USER: genes 1 Rotation |==|  0.66778 0.03561 0.42483 0.52324
USER: genes 2 Torsion [N]-C--CA-[N] |==|  0.36679
USER: genes 3 Torsion [C]-CA--N-[C] |==|  0.19588
USER: genes 4 Torsion [N]-C--CA-[N] |==|  0.86546
USER: genes 5 Torsion [C]-CA--CB-[CG] |==|  0.48503
USER: genes 6 Torsion [CA]-CB--CG-[CD2] |==|  0.10670
USER: genes 7 Torsion [C]-N--CA-[C] |==|  0.72733
USER: genes 8 Torsion [N]-CA--C-[N] |==|  0.88064
USER: genes 9 Torsion [C]-N--CA-[C] |==|  0.68847
USER: genes 10 Torsion [N]-CA--C-[O] |==|  0.86992
USER: genes 11 Torsion [N]-CA--CB-[OG] |==|  0.29764
USER: genes 12 Torsion [CA]-CB--OG-[HG] |==|  0.20412
USER: genes 13 Torsion [N]-CA--CB-[OG] |==|  0.32906
USER: genes 14 Torsion [CA]-CB--OG-[HG] |==|  0.79337
ROOT
ATOM      1  C   HIS B 399      36.284 -12.474  -9.400  1.00 17.93 LIG 0.24  C 
ATOM      2 O    HIS B 399      37.003 -12.185  -8.442  1.00 15.41 LIG-0.27  OA
ATOM      3  N   SER B 400      35.046 -12.936  -9.268  1.00 17.64 LIG-0.34  N 
ATOM      4 H    SER B 400      34.538 -13.132  -9.933  1.00 17.64 LIG 0.16  HD
ENDROOT
BRANCH 1 5
ATOM      5  CA  HIS B 399      36.789 -12.311 -10.828  1.00 18.55 LIG 0.18  C 
BRANCH 5 6
ATOM      6  N   HIS B 399      37.399 -11.000 -10.997  1.00 19.43 LIG-0.34  N 
ATOM      7 H    HIS B 399      36.947 -10.458 -11.486  1.00 19.43 LIG 0.16  HD
ATOM      8  C   ALA B 398      38.562 -10.694 -10.429  1.00 22.32 LIG 0.26  C 
ATOM      9 O    ALA B 398      39.201 -11.493  -9.740  1.00 22.30 LIG-0.27  OA
BRANCH 8 10
ATOM     10  CA  ALA B 398      39.082  -9.281 -10.679  1.00 21.39 LIG 0.40  C 
ATOM     11  N   ALA B 398      39.025  -8.930 -12.130  1.00 23.95 LIG 0.61  N 
ATOM     12  CB  ALA B 398      38.275  -8.275  -9.870  1.00 21.38 LIG 0.06  C 
ENDBRANCH 8 10
ENDBRANCH 5 6
BRANCH 5 13
ATOM     13  CB  HIS B 399      37.816 -13.400 -11.141  1.00 22.49 LIG 0.10  C 
BRANCH 13 14
ATOM     14  CG  HIS B 399      38.275 -13.399 -12.565  1.00 24.90 LIG 0.06  A 
ATOM     15  CD2 HIS B 399      38.538 -12.379 -13.415  1.00 26.88 LIG 0.14  A 
ATOM     16 NE2  HIS B 399      38.994 -12.934 -14.585  1.00 28.66 LIG-0.25  NA
ATOM     17  CE1 HIS B 399      39.008 -14.249 -14.460  1.00 27.08 LIG 0.23  A 
ATOM     18 ND1  HIS B 399      38.577 -14.557 -13.250  1.00 26.64 LIG-0.24  NA
ENDBRANCH 13 14
ENDBRANCH 5 13
ENDBRANCH 1 5
BRANCH 3 19
ATOM     19  CA  SER B 400      34.429 -13.157  -7.964  1.00 19.59 LIG 0.20  C 
BRANCH 19 20
ATOM     20  C   SER B 400      34.537 -14.628  -7.581  1.00 19.52 LIG 0.24  C 
ATOM     21  N   SER B 401      34.282 -15.515  -8.540  1.00 18.79 LIG-0.34  N 
ATOM     22 H    SER B 401      34.065 -15.305  -9.345  1.00 18.79 LIG 0.16  HD
ATOM     23 O    SER B 400      34.853 -14.953  -6.436  1.00 19.53 LIG-0.27  OA
BRANCH 21 24
ATOM     24  CA  SER B 401      34.354 -16.952  -8.288  1.00 20.07 LIG 0.19  C 
BRANCH 24 25
ATOM     25  C   SER B 401      35.520 -17.564  -9.052  1.00 22.19 LIG 0.22  C 
ATOM     26 O    SER B 401      35.659 -17.253 -10.254  1.00 22.82 LIG-0.29  OA
ENDBRANCH 24 25
BRANCH 24 27
ATOM     27  CB  SER B 401      33.050 -17.645  -8.698  1.00 19.03 LIG 0.20  C 
BRANCH 27 28
ATOM     28 OG   SER B 401      33.213 -18.404  -9.885  1.00 19.07 LIG-0.40  OA
ATOM     29 HG   SER B 401      33.653 -19.098  -9.715  1.00 19.07 LIG 0.21  HD
ENDBRANCH 27 28
ENDBRANCH 24 27
ENDBRANCH 21 24
ENDBRANCH 19 20
BRANCH 19 30
ATOM     30  CB  SER B 400      32.954 -12.751  -8.005  1.00 20.99 LIG 0.20  C 
BRANCH 30 31
ATOM     31 OG   SER B 400      32.116 -13.863  -7.732  1.00 29.12 LIG-0.40  OA
ATOM     32 HG   SER B 400      32.098 -14.371  -8.400  1.00 29.12 LIG 0.21  HD
ENDBRANCH 30 31
ENDBRANCH 19 30
ENDBRANCH 3 19
TORSDOF 13
ENDMDL
MODEL 8
USER: ADFR SOLUTION from run 77
USER: SCORE 10.553228 LL:  -1.611 LR:  -9.832 RR:   0.000 FEB:  -5.954
USER: RMSD 7.451242
USER: SEED 76
USER: STATUS no improvement in best in 8 clusters for 5 generations
USER: GENES 15
USER: genes 0 Translation |==|  0.63814 0.38506 0.45809
USER: genes 1 Rotation |==|  0.27014 0.39782 0.08588 0.62341
USER: genes 2 Torsion [N]-C--CA-[N] |==|  0.58884
USER: genes 3 Torsion [C]-CA--N-[C] |==|  0.74636
USER: genes 4 Torsion [N]-C--CA-[N] |==|  0.39113
USER: genes 5 Torsion [C]-CA--CB-[CG] |==|  0.82678
USER: genes 6 Torsion [CA]-CB--CG-[CD2] |==|  0.84536
USER: genes 7 Torsion [C]-N--CA-[C] |==|  0.64270
USER: genes 8 Torsion [N]-CA--C-[N] |==|  0.44775
USER: genes 9 Torsion [C]-N--CA-[C] |==|  0.50636
USER: genes 10 Torsion [N]-CA--C-[O] |==|  0.90125
USER: genes 11 Torsion [N]-CA--CB-[OG] |==|  0.77310
USER: genes 12 Torsion [CA]-CB--OG-[HG] |==|  0.39737
USER: genes 13 Torsion [N]-CA--CB-[OG] |==|  0.70084
USER: genes 14 Torsion [CA]-CB--OG-[HG] |==|  0.77509
ROOT
ATOM      1  C   HIS B 399      38.136 -14.938 -11.384  1.00 17.93 LIG 0.24  C 
ATOM      2 O    HIS B 399      37.878 -15.378 -12.506  1.00 15.41 LIG-0.27  OA
ATOM      3  N   SER B 400      37.837 -15.582 -10.262  1.00 17.64 LIG-0.34  N 
ATOM      4 H    SER B 400      38.022 -15.283  -9.477  1.00 17.64 LIG 0.16  HD
ENDROOT
BRANCH 1 5
ATOM      5  CA  HIS B 399      38.836 -13.594 -11.218  1.00 18.55 LIG 0.18  C 
BRANCH 5 6
ATOM      6  N   HIS B 399      38.454 -12.695 -12.297  1.00 19.43 LIG-0.34  N 
ATOM      7 H    HIS B 399      37.750 -12.228 -12.138  1.00 19.43 LIG 0.16  HD
ATOM      8  C   ALA B 398      39.155 -12.621 -13.424  1.00 22.32 LIG 0.26  C 
ATOM      9 O    ALA B 398      40.156 -13.309 -13.636  1.00 22.30 LIG-0.27  OA
BRANCH 8 10
ATOM     10  CA  ALA B 398      38.648 -11.628 -14.467  1.00 21.39 LIG 0.40  C 
ATOM     11  N   ALA B 398      39.779 -10.922 -15.142  1.00 23.95 LIG 0.61  N 
ATOM     12  CB  ALA B 398      37.794 -12.346 -15.502  1.00 21.38 LIG 0.06  C 
ENDBRANCH 8 10
ENDBRANCH 5 6
BRANCH 5 13
ATOM     13  CB  HIS B 399      38.452 -12.976  -9.873  1.00 22.49 LIG 0.10  C 
BRANCH 13 14
ATOM     14  CG  HIS B 399      36.991 -12.681  -9.745  1.00 24.90 LIG 0.06  A 
ATOM     15  CD2 HIS B 399      36.161 -11.941 -10.517  1.00 26.88 LIG 0.14  A 
ATOM     16 NE2  HIS B 399      34.900 -12.059  -9.985  1.00 28.66 LIG-0.25  NA
ATOM     17  CE1 HIS B 399      34.954 -12.842  -8.922  1.00 27.08 LIG 0.23  A 
ATOM     18 ND1  HIS B 399      36.206 -13.230  -8.754  1.00 26.64 LIG-0.24  NA
ENDBRANCH 13 14
ENDBRANCH 5 13
ENDBRANCH 1 5
BRANCH 3 19
ATOM     19  CA  SER B 400      37.156 -16.874 -10.260  1.00 19.59 LIG 0.20  C 
BRANCH 19 20
ATOM     20  C   SER B 400      35.949 -16.822  -9.330  1.00 19.52 LIG 0.24  C 
ATOM     21  N   SER B 401      35.020 -17.759  -9.504  1.00 18.79 LIG-0.34  N 
ATOM     22 H    SER B 401      35.065 -18.377 -10.101  1.00 18.79 LIG 0.16  HD
ATOM     23 O    SER B 400      35.866 -15.950  -8.464  1.00 19.53 LIG-0.27  OA
BRANCH 21 24
ATOM     24  CA  SER B 401      33.821 -17.808  -8.672  1.00 20.07 LIG 0.19  C 
BRANCH 24 25
ATOM     25  C   SER B 401      32.964 -19.007  -9.051  1.00 22.19 LIG 0.22  C 
ATOM     26 O    SER B 401      32.921 -19.339 -10.255  1.00 22.82 LIG-0.29  OA
ENDBRANCH 24 25
BRANCH 24 27
ATOM     27  CB  SER B 401      33.001 -16.521  -8.820  1.00 19.03 LIG 0.20  C 
BRANCH 27 28
ATOM     28 OG   SER B 401      33.513 -15.479  -8.007  1.00 19.07 LIG-0.40  OA
ATOM     29 HG   SER B 401      33.443 -14.747  -8.411  1.00 19.07 LIG 0.21  HD
ENDBRANCH 27 28
ENDBRANCH 24 27
ENDBRANCH 21 24
ENDBRANCH 19 20
BRANCH 19 30
ATOM     30  CB  SER B 400      38.113 -17.971  -9.789  1.00 20.99 LIG 0.20  C 
BRANCH 30 31
ATOM     31 OG   SER B 400      38.502 -18.801 -10.872  1.00 29.12 LIG-0.40  OA
ATOM     32 HG   SER B 400      37.900 -19.367 -11.021  1.00 29.12 LIG 0.21  HD
ENDBRANCH 30 31
ENDBRANCH 19 30
ENDBRANCH 3 19
TORSDOF 13
ENDMDL
MODEL 9
USER: ADFR SOLUTION from run 179
USER: SCORE 10.114718 LL:  -1.401 LR:  -9.829 RR:   0.000 FEB:  -5.951
USER: RMSD 6.897663
USER: SEED 178
USER: STATUS no improvement in best in 17 clusters for 5 generations
USER: GENES 15
USER: genes 0 Translation |==|  0.63995 0.54796 0.41288
USER: genes 1 Rotation |==|  0.47057 0.00617 0.42900 0.51504
USER: genes 2 Torsion [N]-C--CA-[N] |==|  0.23999
USER: genes 3 Torsion [C]-CA--N-[C] |==|  0.18752
USER: genes 4 Torsion [N]-C--CA-[N] |==|  0.92660
USER: genes 5 Torsion [C]-CA--CB-[CG] |==|  0.10668
USER: genes 6 Torsion [CA]-CB--CG-[CD2] |==|  0.63134
USER: genes 7 Torsion [C]-N--CA-[C] |==|  0.13059
USER: genes 8 Torsion [N]-CA--C-[N] |==|  0.12947
USER: genes 9 Torsion [C]-N--CA-[C] |==|  0.86395
USER: genes 10 Torsion [N]-CA--C-[O] |==|  0.31368
USER: genes 11 Torsion [N]-CA--CB-[OG] |==|  0.08788
USER: genes 12 Torsion [CA]-CB--OG-[HG] |==|  0.02587
USER: genes 13 Torsion [N]-CA--CB-[OG] |==|  0.67452
USER: genes 14 Torsion [CA]-CB--OG-[HG] |==|  0.42635
ROOT
ATOM      1  C   HIS B 399      38.169 -12.373 -12.198  1.00 17.93 LIG 0.24  C 
ATOM      2 O    HIS B 399      38.965 -12.663 -11.304  1.00 15.41 LIG-0.27  OA
ATOM      3  N   SER B 400      36.991 -11.804 -11.969  1.00 17.64 LIG-0.34  N 
ATOM      4 H    SER B 400      36.435 -11.593 -12.590  1.00 17.64 LIG 0.16  HD
ENDROOT
BRANCH 1 5
ATOM      5  CA  HIS B 399      38.502 -12.655 -13.658  1.00 18.55 LIG 0.18  C 
BRANCH 5 6
ATOM      6  N   HIS B 399      39.110 -11.482 -14.269  1.00 19.43 LIG-0.34  N 
ATOM      7 H    HIS B 399      38.627 -11.106 -14.872  1.00 19.43 LIG 0.16  HD
ATOM      8  C   ALA B 398      40.313 -11.050 -13.903  1.00 22.32 LIG 0.26  C 
ATOM      9 O    ALA B 398      40.994 -11.612 -13.043  1.00 22.30 LIG-0.27  OA
BRANCH 8 10
ATOM     10  CA  ALA B 398      40.825  -9.802 -14.618  1.00 21.39 LIG 0.40  C 
ATOM     11  N   ALA B 398      40.217  -9.664 -15.975  1.00 23.95 LIG 0.61  N 
ATOM     12  CB  ALA B 398      40.525  -8.562 -13.788  1.00 21.38 LIG 0.06  C 
ENDBRANCH 8 10
ENDBRANCH 5 6
BRANCH 5 13
ATOM     13  CB  HIS B 399      39.467 -13.839 -13.748  1.00 22.49 LIG 0.10  C 
BRANCH 13 14
ATOM     14  CG  HIS B 399      39.177 -14.923 -12.759  1.00 24.90 LIG 0.06  A 
ATOM     15  CD2 HIS B 399      39.991 -15.603 -11.918  1.00 26.88 LIG 0.14  A 
ATOM     16 NE2  HIS B 399      39.197 -16.445 -11.178  1.00 28.66 LIG-0.25  NA
ATOM     17  CE1 HIS B 399      37.940 -16.291 -11.553  1.00 27.08 LIG 0.23  A 
ATOM     18 ND1  HIS B 399      37.900 -15.378 -12.509  1.00 26.64 LIG-0.24  NA
ENDBRANCH 13 14
ENDBRANCH 5 13
ENDBRANCH 1 5
BRANCH 3 19
ATOM     19  CA  SER B 400      36.526 -11.484 -10.622  1.00 19.59 LIG 0.20  C 
BRANCH 19 20
ATOM     20  C   SER B 400      37.634 -10.782  -9.845  1.00 19.52 LIG 0.24  C 
ATOM     21  N   SER B 401      38.271  -9.796 -10.473  1.00 18.79 LIG-0.34  N 
ATOM     22 H    SER B 401      38.094  -9.542 -11.275  1.00 18.79 LIG 0.16  HD
ATOM     23 O    SER B 400      37.902 -11.125  -8.693  1.00 19.53 LIG-0.27  OA
BRANCH 21 24
ATOM     24  CA  SER B 401      39.350  -9.054  -9.827  1.00 20.07 LIG 0.19  C 
BRANCH 24 25
ATOM     25  C   SER B 401      38.921  -8.600  -8.439  1.00 22.19 LIG 0.22  C 
ATOM     26 O    SER B 401      39.500  -9.106  -7.453  1.00 22.82 LIG-0.29  OA
ENDBRANCH 24 25
BRANCH 24 27
ATOM     27  CB  SER B 401      39.754  -7.835 -10.665  1.00 19.03 LIG 0.20  C 
BRANCH 27 28
ATOM     28 OG   SER B 401      38.650  -7.306 -11.380  1.00 19.07 LIG-0.40  OA
ATOM     29 HG   SER B 401      37.943  -7.676 -11.119  1.00 19.07 LIG 0.21  HD
ENDBRANCH 27 28
ENDBRANCH 24 27
ENDBRANCH 21 24
ENDBRANCH 19 20
BRANCH 19 30
ATOM     30  CB  SER B 400      36.125 -12.765  -9.887  1.00 20.99 LIG 0.20  C 
BRANCH 30 31
ATOM     31 OG   SER B 400      34.744 -12.749  -9.563  1.00 29.12 LIG-0.40  OA
ATOM     32 HG   SER B 400      34.460 -13.537  -9.505  1.00 29.12 LIG 0.21  HD
ENDBRANCH 30 31
ENDBRANCH 19 30
ENDBRANCH 3 19
TORSDOF 13
ENDMDL
MODEL 10
USER: ADFR SOLUTION from run 55
USER: SCORE 11.087687 LL:  -1.735 LR:  -9.652 RR:   0.000 FEB:  -5.774
USER: RMSD 7.081857
USER: SEED 54
USER: STATUS no improvement in best in 8 clusters for 5 generations
USER: GENES 15
USER: genes 0 Translation |==|  0.69368 0.57935 0.48622
USER: genes 1 Rotation |==|  0.45531 0.96644 0.65954 0.57061
USER: genes 2 Torsion [N]-C--CA-[N] |==|  0.93492
USER: genes 3 Torsion [C]-CA--N-[C] |==|  0.69444
USER: genes 4 Torsion [N]-C--CA-[N] |==|  0.91278
USER: genes 5 Torsion [C]-CA--CB-[CG] |==|  0.87641
USER: genes 6 Torsion [CA]-CB--CG-[CD2] |==|  0.71616
USER: genes 7 Torsion [C]-N--CA-[C] |==|  0.84795
USER: genes 8 Torsion [N]-CA--C-[N] |==|  0.89544
USER: genes 9 Torsion [C]-N--CA-[C] |==|  0.53114
USER: genes 10 Torsion [N]-CA--C-[O] |==|  0.00327
USER: genes 11 Torsion [N]-CA--CB-[OG] |==|  0.11793
USER: genes 12 Torsion [CA]-CB--OG-[HG] |==|  0.65123
USER: genes 13 Torsion [N]-CA--CB-[OG] |==|  0.47854
USER: genes 14 Torsion [CA]-CB--OG-[HG] |==|  0.70776
ROOT
ATOM      1  C   HIS B 399      39.136 -11.878 -10.878  1.00 17.93 LIG 0.24  C 
ATOM      2 O    HIS B 399      39.627 -12.370  -9.861  1.00 15.41 LIG-0.27  OA
ATOM      3  N   SER B 400      37.840 -11.621 -11.011  1.00 17.64 LIG-0.34  N 
ATOM      4 H    SER B 400      37.494 -11.271 -11.716  1.00 17.64 LIG 0.16  HD
ENDROOT
BRANCH 1 5
ATOM      5  CA  HIS B 399      40.014 -11.526 -12.074  1.00 18.55 LIG 0.18  C 
BRANCH 5 6
ATOM      6  N   HIS B 399      39.214 -11.497 -13.289  1.00 19.43 LIG-0.34  N 
ATOM      7 H    HIS B 399      38.662 -10.839 -13.336  1.00 19.43 LIG 0.16  HD
ATOM      8  C   ALA B 398      39.347 -12.423 -14.234  1.00 22.32 LIG 0.26  C 
ATOM      9 O    ALA B 398      40.136 -13.365 -14.141  1.00 22.30 LIG-0.27  OA
BRANCH 8 10
ATOM     10  CA  ALA B 398      38.453 -12.265 -15.461  1.00 21.39 LIG 0.40  C 
ATOM     11  N   ALA B 398      37.150 -11.628 -15.107  1.00 23.95 LIG 0.61  N 
ATOM     12  CB  ALA B 398      39.163 -11.438 -16.523  1.00 21.38 LIG 0.06  C 
ENDBRANCH 8 10
ENDBRANCH 5 6
BRANCH 5 13
ATOM     13  CB  HIS B 399      40.663 -10.159 -11.853  1.00 22.49 LIG 0.10  C 
BRANCH 13 14
ATOM     14  CG  HIS B 399      39.718  -9.126 -11.325  1.00 24.90 LIG 0.06  A 
ATOM     15  CD2 HIS B 399      39.080  -8.104 -11.943  1.00 26.88 LIG 0.14  A 
ATOM     16 NE2  HIS B 399      38.275  -7.503 -11.007  1.00 28.66 LIG-0.25  NA
ATOM     17  CE1 HIS B 399      38.415  -8.132  -9.853  1.00 27.08 LIG 0.23  A 
ATOM     18 ND1  HIS B 399      39.282  -9.115 -10.017  1.00 26.64 LIG-0.24  NA
ENDBRANCH 13 14
ENDBRANCH 5 13
ENDBRANCH 1 5
BRANCH 3 19
ATOM     19  CA  SER B 400      36.873 -11.915  -9.957  1.00 19.59 LIG 0.20  C 
BRANCH 19 20
ATOM     20  C   SER B 400      36.974 -13.382  -9.555  1.00 19.52 LIG 0.24  C 
ATOM     21  N   SER B 401      37.202 -14.255 -10.534  1.00 18.79 LIG-0.34  N 
ATOM     22 H    SER B 401      37.294 -14.038 -11.361  1.00 18.79 LIG 0.16  HD
ATOM     23 O    SER B 400      36.851 -13.715  -8.376  1.00 19.53 LIG-0.27  OA
BRANCH 21 24
ATOM     24  CA  SER B 401      37.317 -15.686 -10.267  1.00 20.07 LIG 0.19  C 
BRANCH 24 25
ATOM     25  C   SER B 401      37.847 -16.411 -11.496  1.00 22.19 LIG 0.22  C 
ATOM     26 O    SER B 401      38.121 -15.727 -12.505  1.00 22.82 LIG-0.29  OA
ENDBRANCH 24 25
BRANCH 24 27
ATOM     27  CB  SER B 401      35.961 -16.277  -9.865  1.00 19.03 LIG 0.20  C 
BRANCH 27 28
ATOM     28 OG   SER B 401      34.912 -15.775 -10.675  1.00 19.07 LIG-0.40  OA
ATOM     29 HG   SER B 401      34.313 -15.446 -10.187  1.00 19.07 LIG 0.21  HD
ENDBRANCH 27 28
ENDBRANCH 24 27
ENDBRANCH 21 24
ENDBRANCH 19 20
BRANCH 19 30
ATOM     30  CB  SER B 400      35.454 -11.619 -10.449  1.00 20.99 LIG 0.20  C 
BRANCH 30 31
ATOM     31 OG   SER B 400      34.491 -12.063  -9.506  1.00 29.12 LIG-0.40  OA
ATOM     32 HG   SER B 400      34.125 -12.765  -9.788  1.00 29.12 LIG 0.21  HD
ENDBRANCH 30 31
ENDBRANCH 19 30
ENDBRANCH 3 19
TORSDOF 13
ENDMDL
MODEL 11
USER: ADFR SOLUTION from run 97
USER: SCORE 11.177927 LL:  -1.989 LR:  -9.633 RR:   0.000 FEB:  -5.755
USER: RMSD 5.512725
USER: SEED 96
USER: STATUS no improvement in best in 14 clusters for 5 generations
USER: GENES 15
USER: genes 0 Translation |==|  0.62360 0.54269 0.46269
USER: genes 1 Rotation |==|  0.19442 0.49484 0.77049 0.78884
USER: genes 2 Torsion [N]-C--CA-[N] |==|  0.91977
USER: genes 3 Torsion [C]-CA--N-[C] |==|  0.80566
USER: genes 4 Torsion [N]-C--CA-[N] |==|  0.48860
USER: genes 5 Torsion [C]-CA--CB-[CG] |==|  0.31120
USER: genes 6 Torsion [CA]-CB--CG-[CD2] |==|  0.93256
USER: genes 7 Torsion [C]-N--CA-[C] |==|  0.67897
USER: genes 8 Torsion [N]-CA--C-[N] |==|  0.85276
USER: genes 9 Torsion [C]-N--CA-[C] |==|  0.63524
USER: genes 10 Torsion [N]-CA--C-[O] |==|  0.20418
USER: genes 11 Torsion [N]-CA--CB-[OG] |==|  0.01760
USER: genes 12 Torsion [CA]-CB--OG-[HG] |==|  0.11054
USER: genes 13 Torsion [N]-CA--CB-[OG] |==|  0.32855
USER: genes 14 Torsion [CA]-CB--OG-[HG] |==|  0.80159
ROOT
ATOM      1  C   HIS B 399      37.875 -12.456 -11.302  1.00 17.93 LIG 0.24  C 
ATOM      2 O    HIS B 399      38.175 -13.635 -11.109  1.00 15.41 LIG-0.27  OA
ATOM      3  N   SER B 400      38.117 -11.818 -12.442  1.00 17.64 LIG-0.34  N 
ATOM      4 H    SER B 400      37.902 -10.998 -12.583  1.00 17.64 LIG 0.16  HD
ENDROOT
BRANCH 1 5
ATOM      5  CA  HIS B 399      37.188 -11.640 -10.212  1.00 18.55 LIG 0.18  C 
BRANCH 5 6
ATOM      6  N   HIS B 399      37.532 -10.233 -10.350  1.00 19.43 LIG-0.34  N 
ATOM      7 H    HIS B 399      36.883  -9.732 -10.609  1.00 19.43 LIG 0.16  HD
ATOM      8  C   ALA B 398      38.756  -9.784 -10.088  1.00 22.32 LIG 0.26  C 
ATOM      9 O    ALA B 398      39.676 -10.522  -9.728  1.00 22.30 LIG-0.27  OA
BRANCH 8 10
ATOM     10  CA  ALA B 398      38.974  -8.284 -10.264  1.00 21.39 LIG 0.40  C 
ATOM     11  N   ALA B 398      40.352  -7.882  -9.849  1.00 23.95 LIG 0.61  N 
ATOM     12  CB  ALA B 398      38.733  -7.885 -11.713  1.00 21.38 LIG 0.06  C 
ENDBRANCH 8 10
ENDBRANCH 5 6
BRANCH 5 13
ATOM     13  CB  HIS B 399      35.672 -11.812 -10.317  1.00 22.49 LIG 0.10  C 
BRANCH 13 14
ATOM     14  CG  HIS B 399      35.075 -12.565  -9.170  1.00 24.90 LIG 0.06  A 
ATOM     15  CD2 HIS B 399      35.618 -13.463  -8.315  1.00 26.88 LIG 0.14  A 
ATOM     16 NE2  HIS B 399      34.645 -13.796  -7.405  1.00 28.66 LIG-0.25  NA
ATOM     17  CE1 HIS B 399      33.541 -13.128  -7.692  1.00 27.08 LIG 0.23  A 
ATOM     18 ND1  HIS B 399      33.774 -12.378  -8.755  1.00 26.64 LIG-0.24  NA
ENDBRANCH 13 14
ENDBRANCH 5 13
ENDBRANCH 1 5
BRANCH 3 19
ATOM     19  CA  SER B 400      38.778 -12.463 -13.572  1.00 19.59 LIG 0.20  C 
BRANCH 19 20
ATOM     20  C   SER B 400      40.117 -11.788 -13.843  1.00 19.52 LIG 0.24  C 
ATOM     21  N   SER B 401      40.099 -10.467 -14.001  1.00 18.79 LIG-0.34  N 
ATOM     22 H    SER B 401      39.387  -9.986 -13.958  1.00 18.79 LIG 0.16  HD
ATOM     23 O    SER B 400      41.151 -12.455 -13.902  1.00 19.53 LIG-0.27  OA
BRANCH 21 24
ATOM     24  CA  SER B 401      41.323  -9.714 -14.265  1.00 20.07 LIG 0.19  C 
BRANCH 24 25
ATOM     25  C   SER B 401      41.416  -8.515 -13.333  1.00 22.19 LIG 0.22  C 
ATOM     26 O    SER B 401      41.697  -8.726 -12.134  1.00 22.82 LIG-0.29  OA
ENDBRANCH 24 25
BRANCH 24 27
ATOM     27  CB  SER B 401      41.368  -9.239 -15.722  1.00 19.03 LIG 0.20  C 
BRANCH 27 28
ATOM     28 OG   SER B 401      40.156  -9.522 -16.401  1.00 19.07 LIG-0.40  OA
ATOM     29 HG   SER B 401      39.507  -9.378 -15.888  1.00 19.07 LIG 0.21  HD
ENDBRANCH 27 28
ENDBRANCH 24 27
ENDBRANCH 21 24
ENDBRANCH 19 20
BRANCH 19 30
ATOM     30  CB  SER B 400      37.898 -12.364 -14.821  1.00 20.99 LIG 0.20  C 
BRANCH 30 31
ATOM     31 OG   SER B 400      38.553 -11.629 -15.843  1.00 29.12 LIG-0.40  OA
ATOM     32 HG   SER B 400      38.580 -10.817 -15.631  1.00 29.12 LIG 0.21  HD
ENDBRANCH 30 31
ENDBRANCH 19 30
ENDBRANCH 3 19
TORSDOF 13
ENDMDL
MODEL 12
USER: ADFR SOLUTION from run 121
USER: SCORE 10.270482 LL:  -1.331 LR:  -9.606 RR:   0.000 FEB:  -5.728
USER: RMSD 7.661480
USER: SEED 120
USER: STATUS no improvement in best in 8 clusters for 5 generations
USER: GENES 15
USER: genes 0 Translation |==|  0.62967 0.58369 0.55083
USER: genes 1 Rotation |==|  0.22496 0.90745 0.43772 0.56680
USER: genes 2 Torsion [N]-C--CA-[N] |==|  0.15840
USER: genes 3 Torsion [C]-CA--N-[C] |==|  0.64426
USER: genes 4 Torsion [N]-C--CA-[N] |==|  0.27203
USER: genes 5 Torsion [C]-CA--CB-[CG] |==|  0.75798
USER: genes 6 Torsion [CA]-CB--CG-[CD2] |==|  0.25475
USER: genes 7 Torsion [C]-N--CA-[C] |==|  0.53904
USER: genes 8 Torsion [N]-CA--C-[N] |==|  0.45995
USER: genes 9 Torsion [C]-N--CA-[C] |==|  0.52345
USER: genes 10 Torsion [N]-CA--C-[O] |==|  0.51047
USER: genes 11 Torsion [N]-CA--CB-[OG] |==|  0.75480
USER: genes 12 Torsion [CA]-CB--OG-[HG] |==|  0.73956
USER: genes 13 Torsion [N]-CA--CB-[OG] |==|  0.47320
USER: genes 14 Torsion [CA]-CB--OG-[HG] |==|  0.80929
ROOT
ATOM      1  C   HIS B 399      37.984 -11.810  -9.715  1.00 17.93 LIG 0.24  C 
ATOM      2 O    HIS B 399      37.848 -11.031  -8.771  1.00 15.41 LIG-0.27  OA
ATOM      3  N   SER B 400      37.138 -12.802  -9.969  1.00 17.64 LIG-0.34  N 
ATOM      4 H    SER B 400      37.225 -13.344 -10.631  1.00 17.64 LIG 0.16  HD
ENDROOT
BRANCH 1 5
ATOM      5  CA  HIS B 399      39.162 -11.674 -10.673  1.00 18.55 LIG 0.18  C 
BRANCH 5 6
ATOM      6  N   HIS B 399      38.681 -11.517 -12.038  1.00 19.43 LIG-0.34  N 
ATOM      7 H    HIS B 399      38.098 -10.893 -12.139  1.00 19.43 LIG 0.16  HD
ATOM      8  C   ALA B 398      39.125 -12.287 -13.026  1.00 22.32 LIG 0.26  C 
ATOM      9 O    ALA B 398      39.952 -13.185 -12.856  1.00 22.30 LIG-0.27  OA
BRANCH 8 10
ATOM     10  CA  ALA B 398      38.544 -12.007 -14.410  1.00 21.39 LIG 0.40  C 
ATOM     11  N   ALA B 398      39.459 -11.150 -15.221  1.00 23.95 LIG 0.61  N 
ATOM     12  CB  ALA B 398      38.275 -13.315 -15.140  1.00 21.38 LIG 0.06  C 
ENDBRANCH 8 10
ENDBRANCH 5 6
BRANCH 5 13
ATOM     13  CB  HIS B 399      40.007 -10.460 -10.283  1.00 22.49 LIG 0.10  C 
BRANCH 13 14
ATOM     14  CG  HIS B 399      39.536  -9.181 -10.898  1.00 24.90 LIG 0.06  A 
ATOM     15  CD2 HIS B 399      38.673  -8.240 -10.448  1.00 26.88 LIG 0.14  A 
ATOM     16 NE2  HIS B 399      38.650  -7.232 -11.380  1.00 28.66 LIG-0.25  NA
ATOM     17  CE1 HIS B 399      39.468  -7.543 -12.370  1.00 27.08 LIG 0.23  A 
ATOM     18 ND1  HIS B 399      40.015  -8.716 -12.104  1.00 26.64 LIG-0.24  NA
ENDBRANCH 13 14
ENDBRANCH 5 13
ENDBRANCH 1 5
BRANCH 3 19
ATOM     19  CA  SER B 400      35.970 -13.066  -9.133  1.00 19.59 LIG 0.20  C 
BRANCH 19 20
ATOM     20  C   SER B 400      35.402 -14.443  -9.456  1.00 19.52 LIG 0.24  C 
ATOM     21  N   SER B 401      34.530 -14.948  -8.587  1.00 18.79 LIG-0.34  N 
ATOM     22 H    SER B 401      34.276 -14.546  -7.870  1.00 18.79 LIG 0.16  HD
ATOM     23 O    SER B 400      35.746 -15.035 -10.480  1.00 19.53 LIG-0.27  OA
BRANCH 21 24
ATOM     24  CA  SER B 401      33.921 -16.259  -8.793  1.00 20.07 LIG 0.19  C 
BRANCH 24 25
ATOM     25  C   SER B 401      32.819 -16.496  -7.771  1.00 22.19 LIG 0.22  C 
ATOM     26 O    SER B 401      32.249 -17.608  -7.771  1.00 22.82 LIG-0.29  OA
ENDBRANCH 24 25
BRANCH 24 27
ATOM     27  CB  SER B 401      34.971 -17.372  -8.685  1.00 19.03 LIG 0.20  C 
BRANCH 27 28
ATOM     28 OG   SER B 401      35.589 -17.628  -9.935  1.00 19.07 LIG-0.40  OA
ATOM     29 HG   SER B 401      35.186 -18.254 -10.324  1.00 19.07 LIG 0.21  HD
ENDBRANCH 27 28
ENDBRANCH 24 27
ENDBRANCH 21 24
ENDBRANCH 19 20
BRANCH 19 30
ATOM     30  CB  SER B 400      34.897 -12.003  -9.382  1.00 20.99 LIG 0.20  C 
BRANCH 30 31
ATOM     31 OG   SER B 400      33.677 -12.361  -8.752  1.00 29.12 LIG-0.40  OA
ATOM     32 HG   SER B 400      33.347 -13.029  -9.139  1.00 29.12 LIG 0.21  HD
ENDBRANCH 30 31
ENDBRANCH 19 30
ENDBRANCH 3 19
TORSDOF 13
ENDMDL
MODEL 13
USER: ADFR SOLUTION from run 40
USER: SCORE 9.892885 LL:  -1.570 LR:  -9.574 RR:   0.000 FEB:  -5.696
USER: RMSD 6.598530
USER: SEED 39
USER: STATUS no improvement in best in 20 clusters for 5 generations
USER: GENES 15
USER: genes 0 Translation |==|  0.58336 0.51858 0.52764
USER: genes 1 Rotation |==|  0.75714 0.08489 0.39434 0.52002
USER: genes 2 Torsion [N]-C--CA-[N] |==|  0.39444
USER: genes 3 Torsion [C]-CA--N-[C] |==|  0.19511
USER: genes 4 Torsion [N]-C--CA-[N] |==|  0.89169
USER: genes 5 Torsion [C]-CA--CB-[CG] |==|  0.11226
USER: genes 6 Torsion [CA]-CB--CG-[CD2] |==|  0.65458
USER: genes 7 Torsion [C]-N--CA-[C] |==|  0.58354
USER: genes 8 Torsion [N]-CA--C-[N] |==|  0.48859
USER: genes 9 Torsion [C]-N--CA-[C] |==|  0.19882
USER: genes 10 Torsion [N]-CA--C-[O] |==|  0.06110
USER: genes 11 Torsion [N]-CA--CB-[OG] |==|  0.39140
USER: genes 12 Torsion [CA]-CB--OG-[HG] |==|  0.83495
USER: genes 13 Torsion [N]-CA--CB-[OG] |==|  0.02445
USER: genes 14 Torsion [CA]-CB--OG-[HG] |==|  0.29981
ROOT
ATOM      1  C   HIS B 399      37.151 -12.835 -10.133  1.00 17.93 LIG 0.24  C 
ATOM      2 O    HIS B 399      37.720 -12.455  -9.109  1.00 15.41 LIG-0.27  OA
ATOM      3  N   SER B 400      36.186 -13.749 -10.134  1.00 17.64 LIG-0.34  N 
ATOM      4 H    SER B 400      35.781 -14.012 -10.845  1.00 17.64 LIG 0.16  HD
ENDROOT
BRANCH 1 5
ATOM      5  CA  HIS B 399      37.530 -12.262 -11.492  1.00 18.55 LIG 0.18  C 
BRANCH 5 6
ATOM      6  N   HIS B 399      37.819 -10.840 -11.373  1.00 19.43 LIG-0.34  N 
ATOM      7 H    HIS B 399      37.232 -10.327 -11.735  1.00 19.43 LIG 0.16  HD
ATOM      8  C   ALA B 398      38.908 -10.400 -10.749  1.00 22.32 LIG 0.26  C 
ATOM      9 O    ALA B 398      39.743 -11.155 -10.247  1.00 22.30 LIG-0.27  OA
BRANCH 8 10
ATOM     10  CA  ALA B 398      39.081  -8.885 -10.688  1.00 21.39 LIG 0.40  C 
ATOM     11  N   ALA B 398      38.658  -8.236 -11.965  1.00 23.95 LIG 0.61  N 
ATOM     12  CB  ALA B 398      38.280  -8.312  -9.527  1.00 21.38 LIG 0.06  C 
ENDBRANCH 8 10
ENDBRANCH 5 6
BRANCH 5 13
ATOM     13  CB  HIS B 399      38.760 -12.992 -12.036  1.00 22.49 LIG 0.10  C 
BRANCH 13 14
ATOM     14  CG  HIS B 399      38.736 -14.467 -11.790  1.00 24.90 LIG 0.06  A 
ATOM     15  CD2 HIS B 399      39.625 -15.281 -11.173  1.00 26.88 LIG 0.14  A 
ATOM     16 NE2  HIS B 399      39.080 -16.542 -11.163  1.00 28.66 LIG-0.25  NA
ATOM     17  CE1 HIS B 399      37.899 -16.505 -11.755  1.00 27.08 LIG 0.23  A 
ATOM     18 ND1  HIS B 399      37.668 -15.263 -12.145  1.00 26.64 LIG-0.24  NA
ENDBRANCH 13 14
ENDBRANCH 5 13
ENDBRANCH 1 5
BRANCH 3 19
ATOM     19  CA  SER B 400      35.722 -14.397  -8.911  1.00 19.59 LIG 0.20  C 
BRANCH 19 20
ATOM     20  C   SER B 400      35.232 -15.806  -9.225  1.00 19.52 LIG 0.24  C 
ATOM     21  N   SER B 401      34.855 -16.552  -8.189  1.00 18.79 LIG-0.34  N 
ATOM     22 H    SER B 401      34.875 -16.286  -7.372  1.00 18.79 LIG 0.16  HD
ATOM     23 O    SER B 400      35.190 -16.206 -10.389  1.00 19.53 LIG-0.27  OA
BRANCH 21 24
ATOM     24  CA  SER B 401      34.369 -17.917  -8.370  1.00 20.07 LIG 0.19  C 
BRANCH 24 25
ATOM     25  C   SER B 401      35.515 -18.839  -8.758  1.00 22.19 LIG 0.22  C 
ATOM     26 O    SER B 401      36.677 -18.481  -8.469  1.00 22.82 LIG-0.29  OA
ENDBRANCH 24 25
BRANCH 24 27
ATOM     27  CB  SER B 401      33.278 -17.970  -9.446  1.00 19.03 LIG 0.20  C 
BRANCH 27 28
ATOM     28 OG   SER B 401      33.400 -19.128 -10.255  1.00 19.07 LIG-0.40  OA
ATOM     29 HG   SER B 401      34.151 -19.130 -10.630  1.00 19.07 LIG 0.21  HD
ENDBRANCH 27 28
ENDBRANCH 24 27
ENDBRANCH 21 24
ENDBRANCH 19 20
BRANCH 19 30
ATOM     30  CB  SER B 400      34.581 -13.589  -8.289  1.00 20.99 LIG 0.20  C 
BRANCH 30 31
ATOM     31 OG   SER B 400      34.156 -12.558  -9.165  1.00 29.12 LIG-0.40  OA
ATOM     32 HG   SER B 400      33.405 -12.753  -9.485  1.00 29.12 LIG 0.21  HD
ENDBRANCH 30 31
ENDBRANCH 19 30
ENDBRANCH 3 19
TORSDOF 13
ENDMDL
MODEL 14
USER: ADFR SOLUTION from run 115
USER: SCORE 10.824398 LL:  -2.457 LR:  -9.492 RR:   0.000 FEB:  -5.615
USER: RMSD 6.138663
USER: SEED 114
USER: STATUS no improvement in best in 8 clusters for 5 generations
USER: GENES 15
USER: genes 0 Translation |==|  0.65809 0.57807 0.46643
USER: genes 1 Rotation |==|  0.23314 0.56883 0.90010 0.61819
USER: genes 2 Torsion [N]-C--CA-[N] |==|  0.78408
USER: genes 3 Torsion [C]-CA--N-[C] |==|  0.82527
USER: genes 4 Torsion [N]-C--CA-[N] |==|  0.50300
USER: genes 5 Torsion [C]-CA--CB-[CG] |==|  0.22733
USER: genes 6 Torsion [CA]-CB--CG-[CD2] |==|  0.01373
USER: genes 7 Torsion [C]-N--CA-[C] |==|  0.15137
USER: genes 8 Torsion [N]-CA--C-[N] |==|  0.06968
USER: genes 9 Torsion [C]-N--CA-[C] |==|  0.52637
USER: genes 10 Torsion [N]-CA--C-[O] |==|  0.23586
USER: genes 11 Torsion [N]-CA--CB-[OG] |==|  0.75662
USER: genes 12 Torsion [CA]-CB--OG-[HG] |==|  0.09563
USER: genes 13 Torsion [N]-CA--CB-[OG] |==|  0.88058
USER: genes 14 Torsion [CA]-CB--OG-[HG] |==|  0.90577
ROOT
ATOM      1  C   HIS B 399      38.496 -11.898 -11.234  1.00 17.93 LIG 0.24  C 
ATOM      2 O    HIS B 399      39.466 -12.592 -10.927  1.00 15.41 LIG-0.27  OA
ATOM      3  N   SER B 400      37.864 -12.003 -12.398  1.00 17.64 LIG-0.34  N 
ATOM      4 H    SER B 400      37.182 -11.527 -12.614  1.00 17.64 LIG 0.16  HD
ENDROOT
BRANCH 1 5
ATOM      5  CA  HIS B 399      37.949 -10.854 -10.268  1.00 18.55 LIG 0.18  C 
BRANCH 5 6
ATOM      6  N   HIS B 399      38.384  -9.524 -10.671  1.00 19.43 LIG-0.34  N 
ATOM      7 H    HIS B 399      37.744  -8.992 -10.887  1.00 19.43 LIG 0.16  HD
ATOM      8  C   ALA B 398      39.670  -9.188 -10.693  1.00 22.32 LIG 0.26  C 
ATOM      9 O    ALA B 398      40.572  -9.972 -10.390  1.00 22.30 LIG-0.27  OA
BRANCH 8 10
ATOM     10  CA  ALA B 398      39.983  -7.758 -11.125  1.00 21.39 LIG 0.40  C 
ATOM     11  N   ALA B 398      41.455  -7.503 -11.136  1.00 23.95 LIG 0.61  N 
ATOM     12  CB  ALA B 398      39.400  -7.488 -12.504  1.00 21.38 LIG 0.06  C 
ENDBRANCH 8 10
ENDBRANCH 5 6
BRANCH 5 13
ATOM     13  CB  HIS B 399      36.420 -10.913 -10.255  1.00 22.49 LIG 0.10  C 
BRANCH 13 14
ATOM     14  CG  HIS B 399      35.871 -11.989  -9.373  1.00 24.90 LIG 0.06  A 
ATOM     15  CD2 HIS B 399      36.487 -12.849  -8.528  1.00 26.88 LIG 0.14  A 
ATOM     16 NE2  HIS B 399      35.505 -13.585  -7.912  1.00 28.66 LIG-0.25  NA
ATOM     17  CE1 HIS B 399      34.327 -13.193  -8.363  1.00 27.08 LIG 0.23  A 
ATOM     18 ND1  HIS B 399      34.520 -12.230  -9.248  1.00 26.64 LIG-0.24  NA
ENDBRANCH 13 14
ENDBRANCH 5 13
ENDBRANCH 1 5
BRANCH 3 19
ATOM     19  CA  SER B 400      38.279 -12.949 -13.430  1.00 19.59 LIG 0.20  C 
BRANCH 19 20
ATOM     20  C   SER B 400      38.336 -14.357 -12.848  1.00 19.52 LIG 0.24  C 
ATOM     21  N   SER B 401      37.566 -14.599 -11.790  1.00 18.79 LIG-0.34  N 
ATOM     22 H    SER B 401      37.050 -14.015 -11.427  1.00 18.79 LIG 0.16  HD
ATOM     23 O    SER B 400      39.064 -15.212 -13.356  1.00 19.53 LIG-0.27  OA
BRANCH 21 24
ATOM     24  CA  SER B 401      37.541 -15.911 -11.150  1.00 20.07 LIG 0.19  C 
BRANCH 24 25
ATOM     25  C   SER B 401      36.416 -15.977 -10.127  1.00 22.19 LIG 0.22  C 
ATOM     26 O    SER B 401      35.272 -16.276 -10.533  1.00 22.82 LIG-0.29  OA
ENDBRANCH 24 25
BRANCH 24 27
ATOM     27  CB  SER B 401      38.879 -16.211 -10.465  1.00 19.03 LIG 0.20  C 
BRANCH 27 28
ATOM     28 OG   SER B 401      39.798 -16.815 -11.359  1.00 19.07 LIG-0.40  OA
ATOM     29 HG   SER B 401      39.686 -16.503 -12.130  1.00 19.07 LIG 0.21  HD
ENDBRANCH 27 28
ENDBRANCH 24 27
ENDBRANCH 21 24
ENDBRANCH 19 20
BRANCH 19 30
ATOM     30  CB  SER B 400      39.659 -12.566 -13.969  1.00 20.99 LIG 0.20  C 
BRANCH 30 31
ATOM     31 OG   SER B 400      39.750 -11.165 -14.174  1.00 29.12 LIG-0.40  OA
ATOM     32 HG   SER B 400      39.003 -10.868 -14.416  1.00 29.12 LIG 0.21  HD
ENDBRANCH 30 31
ENDBRANCH 19 30
ENDBRANCH 3 19
TORSDOF 13
ENDMDL
MODEL 15
USER: ADFR SOLUTION from run 191
USER: SCORE 9.944679 LL:  -1.646 LR:  -9.482 RR:   0.000 FEB:  -5.604
USER: RMSD 5.876473
USER: SEED 190
USER: STATUS no improvement in best in 5 clusters for 5 generations
USER: GENES 15
USER: genes 0 Translation |==|  0.64343 0.65195 0.52259
USER: genes 1 Rotation |==|  0.32869 0.08910 0.59340 0.70759
USER: genes 2 Torsion [N]-C--CA-[N] |==|  0.32519
USER: genes 3 Torsion [C]-CA--N-[C] |==|  0.19450
USER: genes 4 Torsion [N]-C--CA-[N] |==|  0.07847
USER: genes 5 Torsion [C]-CA--CB-[CG] |==|  0.27231
USER: genes 6 Torsion [CA]-CB--CG-[CD2] |==|  0.64761
USER: genes 7 Torsion [C]-N--CA-[C] |==|  0.17054
USER: genes 8 Torsion [N]-CA--C-[N] |==|  0.10969
USER: genes 9 Torsion [C]-N--CA-[C] |==|  0.68634
USER: genes 10 Torsion [N]-CA--C-[O] |==|  0.21140
USER: genes 11 Torsion [N]-CA--CB-[OG] |==|  0.96882
USER: genes 12 Torsion [CA]-CB--OG-[HG] |==|  0.26857
USER: genes 13 Torsion [N]-CA--CB-[OG] |==|  0.96572
USER: genes 14 Torsion [CA]-CB--OG-[HG] |==|  0.24051
ROOT
ATOM      1  C   HIS B 399      38.232 -10.735 -10.223  1.00 17.93 LIG 0.24  C 
ATOM      2 O    HIS B 399      39.365 -11.204 -10.112  1.00 15.41 LIG-0.27  OA
ATOM      3  N   SER B 400      37.901  -9.521  -9.798  1.00 17.64 LIG-0.34  N 
ATOM      4 H    SER B 400      37.113  -9.186  -9.881  1.00 17.64 LIG 0.16  HD
ENDROOT
BRANCH 1 5
ATOM      5  CA  HIS B 399      37.116 -11.543 -10.875  1.00 18.55 LIG 0.18  C 
BRANCH 5 6
ATOM      6  N   HIS B 399      37.443 -11.818 -12.266  1.00 19.43 LIG-0.34  N 
ATOM      7 H    HIS B 399      36.960 -11.394 -12.836  1.00 19.43 LIG 0.16  HD
ATOM      8  C   ALA B 398      38.417 -12.661 -12.599  1.00 22.32 LIG 0.26  C 
ATOM      9 O    ALA B 398      39.091 -13.268 -11.765  1.00 22.30 LIG-0.27  OA
BRANCH 8 10
ATOM     10  CA  ALA B 398      38.660 -12.848 -14.094  1.00 21.39 LIG 0.40  C 
ATOM     11  N   ALA B 398      38.277 -11.628 -14.866  1.00 23.95 LIG 0.61  N 
ATOM     12  CB  ALA B 398      40.123 -13.183 -14.349  1.00 21.38 LIG 0.06  C 
ENDBRANCH 8 10
ENDBRANCH 5 6
BRANCH 5 13
ATOM     13  CB  HIS B 399      36.925 -12.860 -10.121  1.00 22.49 LIG 0.10  C 
BRANCH 13 14
ATOM     14  CG  HIS B 399      35.802 -12.827  -9.133  1.00 24.90 LIG 0.06  A 
ATOM     15  CD2 HIS B 399      35.766 -13.132  -7.815  1.00 26.88 LIG 0.14  A 
ATOM     16 NE2  HIS B 399      34.496 -12.861  -7.370  1.00 28.66 LIG-0.25  NA
ATOM     17  CE1 HIS B 399      33.775 -12.407  -8.380  1.00 27.08 LIG 0.23  A 
ATOM     18 ND1  HIS B 399      34.539 -12.378  -9.457  1.00 26.64 LIG-0.24  NA
ENDBRANCH 13 14
ENDBRANCH 5 13
ENDBRANCH 1 5
BRANCH 3 19
ATOM     19  CA  SER B 400      38.858  -8.634  -9.144  1.00 19.59 LIG 0.20  C 
BRANCH 19 20
ATOM     20  C   SER B 400      40.007  -8.319 -10.095  1.00 19.52 LIG 0.24  C 
ATOM     21  N   SER B 401      39.688  -8.118 -11.371  1.00 18.79 LIG-0.34  N 
ATOM     22 H    SER B 401      38.886  -8.157 -11.679  1.00 18.79 LIG 0.16  HD
ATOM     23 O    SER B 400      41.163  -8.252  -9.675  1.00 19.53 LIG-0.27  OA
BRANCH 21 24
ATOM     24  CA  SER B 401      40.706  -7.810 -12.372  1.00 20.07 LIG 0.19  C 
BRANCH 24 25
ATOM     25  C   SER B 401      40.527  -6.389 -12.886  1.00 22.19 LIG 0.22  C 
ATOM     26 O    SER B 401      40.900  -5.450 -12.150  1.00 22.82 LIG-0.29  OA
ENDBRANCH 24 25
BRANCH 24 27
ATOM     27  CB  SER B 401      40.635  -8.794 -13.545  1.00 19.03 LIG 0.20  C 
BRANCH 27 28
ATOM     28 OG   SER B 401      39.789  -9.894 -13.253  1.00 19.07 LIG-0.40  OA
ATOM     29 HG   SER B 401      39.025  -9.752 -13.573  1.00 19.07 LIG 0.21  HD
ENDBRANCH 27 28
ENDBRANCH 24 27
ENDBRANCH 21 24
ENDBRANCH 19 20
BRANCH 19 30
ATOM     30  CB  SER B 400      39.412  -9.300  -7.882  1.00 20.99 LIG 0.20  C 
BRANCH 30 31
ATOM     31 OG   SER B 400      38.652 -10.449  -7.542  1.00 29.12 LIG-0.40  OA
ATOM     32 HG   SER B 400      38.950 -11.115  -7.957  1.00 29.12 LIG 0.21  HD
ENDBRANCH 30 31
ENDBRANCH 19 30
ENDBRANCH 3 19
TORSDOF 13
ENDMDL
MODEL 16
USER: ADFR SOLUTION from run 122
USER: SCORE 10.803953 LL:  -1.928 LR:  -9.429 RR:   0.000 FEB:  -5.551
USER: RMSD 6.315452
USER: SEED 121
USER: STATUS no improvement in best in 14 clusters for 5 generations
USER: GENES 15
USER: genes 0 Translation |==|  0.63567 0.50543 0.50691
USER: genes 1 Rotation |==|  0.14864 0.61383 0.80750 0.63796
USER: genes 2 Torsion [N]-C--CA-[N] |==|  0.84506
USER: genes 3 Torsion [C]-CA--N-[C] |==|  0.75190
USER: genes 4 Torsion [N]-C--CA-[N] |==|  0.86161
USER: genes 5 Torsion [C]-CA--CB-[CG] |==|  0.21612
USER: genes 6 Torsion [CA]-CB--CG-[CD2] |==|  0.95638
USER: genes 7 Torsion [C]-N--CA-[C] |==|  0.16148
USER: genes 8 Torsion [N]-CA--C-[N] |==|  0.06433
USER: genes 9 Torsion [C]-N--CA-[C] |==|  0.51418
USER: genes 10 Torsion [N]-CA--C-[O] |==|  0.38786
USER: genes 11 Torsion [N]-CA--CB-[OG] |==|  0.64952
USER: genes 12 Torsion [CA]-CB--OG-[HG] |==|  0.07085
USER: genes 13 Torsion [N]-CA--CB-[OG] |==|  0.50200
USER: genes 14 Torsion [CA]-CB--OG-[HG] |==|  0.88039
ROOT
ATOM      1  C   HIS B 399      38.092 -13.042 -10.506  1.00 17.93 LIG 0.24  C 
ATOM      2 O    HIS B 399      38.659 -13.759  -9.680  1.00 15.41 LIG-0.27  OA
ATOM      3  N   SER B 400      37.970 -13.364 -11.789  1.00 17.64 LIG-0.34  N 
ATOM      4 H    SER B 400      37.569 -12.871 -12.367  1.00 17.64 LIG 0.16  HD
ENDROOT
BRANCH 1 5
ATOM      5  CA  HIS B 399      37.479 -11.710 -10.089  1.00 18.55 LIG 0.18  C 
BRANCH 5 6
ATOM      6  N   HIS B 399      38.027 -10.633 -10.899  1.00 19.43 LIG-0.34  N 
ATOM      7 H    HIS B 399      37.582 -10.464 -11.615  1.00 19.43 LIG 0.16  HD
ATOM      8  C   ALA B 398      39.128  -9.979 -10.539  1.00 22.32 LIG 0.26  C 
ATOM      9 O    ALA B 398      39.759 -10.246  -9.514  1.00 22.30 LIG-0.27  OA
BRANCH 8 10
ATOM     10  CA  ALA B 398      39.586  -8.865 -11.475  1.00 21.39 LIG 0.40  C 
ATOM     11  N   ALA B 398      39.646  -9.334 -12.892  1.00 23.95 LIG 0.61  N 
ATOM     12  CB  ALA B 398      38.650  -7.670 -11.365  1.00 21.38 LIG 0.06  C 
ENDBRANCH 8 10
ENDBRANCH 5 6
BRANCH 5 13
ATOM     13  CB  HIS B 399      35.960 -11.764 -10.264  1.00 22.49 LIG 0.10  C 
BRANCH 13 14
ATOM     14  CG  HIS B 399      35.259 -12.509  -9.173  1.00 24.90 LIG 0.06  A 
ATOM     15  CD2 HIS B 399      35.728 -13.362  -8.233  1.00 26.88 LIG 0.14  A 
ATOM     16 NE2  HIS B 399      34.665 -13.709  -7.435  1.00 28.66 LIG-0.25  NA
ATOM     17  CE1 HIS B 399      33.581 -13.092  -7.870  1.00 27.08 LIG 0.23  A 
ATOM     18 ND1  HIS B 399      33.911 -12.362  -8.920  1.00 26.64 LIG-0.24  NA
ENDBRANCH 13 14
ENDBRANCH 5 13
ENDBRANCH 1 5
BRANCH 3 19
ATOM     19  CA  SER B 400      38.516 -14.601 -12.339  1.00 19.59 LIG 0.20  C 
BRANCH 19 20
ATOM     20  C   SER B 400      37.923 -15.800 -11.607  1.00 19.52 LIG 0.24  C 
ATOM     21  N   SER B 401      36.753 -15.612 -11.003  1.00 18.79 LIG-0.34  N 
ATOM     22 H    SER B 401      36.324 -14.866 -11.004  1.00 18.79 LIG 0.16  HD
ATOM     23 O    SER B 400      38.516 -16.880 -11.597  1.00 19.53 LIG-0.27  OA
BRANCH 21 24
ATOM     24  CA  SER B 401      36.091 -16.688 -10.271  1.00 20.07 LIG 0.19  C 
BRANCH 24 25
ATOM     25  C   SER B 401      34.720 -16.235  -9.792  1.00 22.19 LIG 0.22  C 
ATOM     26 O    SER B 401      33.775 -17.051  -9.866  1.00 22.82 LIG-0.29  OA
ENDBRANCH 24 25
BRANCH 24 27
ATOM     27  CB  SER B 401      36.935 -17.134  -9.071  1.00 19.03 LIG 0.20  C 
BRANCH 27 28
ATOM     28 OG   SER B 401      37.173 -18.531  -9.091  1.00 19.07 LIG-0.40  OA
ATOM     29 HG   SER B 401      37.128 -18.812  -9.881  1.00 19.07 LIG 0.21  HD
ENDBRANCH 27 28
ENDBRANCH 24 27
ENDBRANCH 21 24
ENDBRANCH 19 20
BRANCH 19 30
ATOM     30  CB  SER B 400      40.039 -14.617 -12.187  1.00 20.99 LIG 0.20  C 
BRANCH 30 31
ATOM     31 OG   SER B 400      40.589 -15.806 -12.731  1.00 29.12 LIG-0.40  OA
ATOM     32 HG   SER B 400      40.117 -16.462 -12.505  1.00 29.12 LIG 0.21  HD
ENDBRANCH 30 31
ENDBRANCH 19 30
ENDBRANCH 3 19
TORSDOF 13
ENDMDL
MODEL 17
USER: ADFR SOLUTION from run 19
USER: SCORE 10.799631 LL:  -1.833 LR:  -9.406 RR:   0.000 FEB:  -5.528
USER: RMSD 7.859870
USER: SEED 18
USER: STATUS searching
USER: GENES 15
USER: genes 0 Translation |==|  0.44794 0.38146 0.63885
USER: genes 1 Rotation |==|  0.58722 0.97135 0.63255 0.55146
USER: genes 2 Torsion [N]-C--CA-[N] |==|  0.24077
USER: genes 3 Torsion [C]-CA--N-[C] |==|  0.77728
USER: genes 4 Torsion [N]-C--CA-[N] |==|  0.47113
USER: genes 5 Torsion [C]-CA--CB-[CG] |==|  0.14630
USER: genes 6 Torsion [CA]-CB--CG-[CD2] |==|  0.62998
USER: genes 7 Torsion [C]-N--CA-[C] |==|  0.54582
USER: genes 8 Torsion [N]-CA--C-[N] |==|  0.47209
USER: genes 9 Torsion [C]-N--CA-[C] |==|  0.71099
USER: genes 10 Torsion [N]-CA--C-[O] |==|  0.32701
USER: genes 11 Torsion [N]-CA--CB-[OG] |==|  0.68704
USER: genes 12 Torsion [CA]-CB--OG-[HG] |==|  0.82915
USER: genes 13 Torsion [N]-CA--CB-[OG] |==|  0.76093
USER: genes 14 Torsion [CA]-CB--OG-[HG] |==|  0.09217
ROOT
ATOM      1  C   HIS B 399      34.713 -14.995  -8.131  1.00 17.93 LIG 0.24  C 
ATOM      2 O    HIS B 399      35.144 -15.679  -7.201  1.00 15.41 LIG-0.27  OA
ATOM      3  N   SER B 400      33.692 -14.155  -8.005  1.00 17.64 LIG-0.34  N 
ATOM      4 H    SER B 400      33.392 -13.670  -8.649  1.00 17.64 LIG 0.16  HD
ENDROOT
BRANCH 1 5
ATOM      5  CA  HIS B 399      35.346 -15.076  -9.514  1.00 18.55 LIG 0.18  C 
BRANCH 5 6
ATOM      6  N   HIS B 399      36.367 -14.048  -9.658  1.00 19.43 LIG-0.34  N 
ATOM      7 H    HIS B 399      37.172 -14.329  -9.546  1.00 19.43 LIG 0.16  HD
ATOM      8  C   ALA B 398      36.053 -12.787  -9.940  1.00 22.32 LIG 0.26  C 
ATOM      9 O    ALA B 398      34.890 -12.404 -10.084  1.00 22.30 LIG-0.27  OA
BRANCH 8 10
ATOM     10  CA  ALA B 398      37.222 -11.816 -10.073  1.00 21.39 LIG 0.40  C 
ATOM     11  N   ALA B 398      36.780 -10.503 -10.630  1.00 23.95 LIG 0.61  N 
ATOM     12  CB  ALA B 398      37.886 -11.607  -8.719  1.00 21.38 LIG 0.06  C 
ENDBRANCH 8 10
ENDBRANCH 5 6
BRANCH 5 13
ATOM     13  CB  HIS B 399      35.975 -16.456  -9.715  1.00 22.49 LIG 0.10  C 
BRANCH 13 14
ATOM     14  CG  HIS B 399      35.035 -17.587  -9.439  1.00 24.90 LIG 0.06  A 
ATOM     15  CD2 HIS B 399      35.195 -18.722  -8.720  1.00 26.88 LIG 0.14  A 
ATOM     16 NE2  HIS B 399      33.991 -19.384  -8.736  1.00 28.66 LIG-0.25  NA
ATOM     17  CE1 HIS B 399      33.123 -18.682  -9.442  1.00 27.08 LIG 0.23  A 
ATOM     18 ND1  HIS B 399      33.729 -17.592  -9.880  1.00 26.64 LIG-0.24  NA
ENDBRANCH 13 14
ENDBRANCH 5 13
ENDBRANCH 1 5
BRANCH 3 19
ATOM     19  CA  SER B 400      32.976 -13.978  -6.745  1.00 19.59 LIG 0.20  C 
BRANCH 19 20
ATOM     20  C   SER B 400      31.640 -13.289  -7.000  1.00 19.52 LIG 0.24  C 
ATOM     21  N   SER B 401      30.787 -13.244  -5.980  1.00 18.79 LIG-0.34  N 
ATOM     22 H    SER B 401      30.947 -13.576  -5.203  1.00 18.79 LIG 0.16  HD
ATOM     23 O    SER B 400      31.391 -12.801  -8.103  1.00 19.53 LIG-0.27  OA
BRANCH 21 24
ATOM     24  CA  SER B 401      29.478 -12.610  -6.109  1.00 20.07 LIG 0.19  C 
BRANCH 24 25
ATOM     25  C   SER B 401      29.479 -11.252  -5.422  1.00 22.19 LIG 0.22  C 
ATOM     26 O    SER B 401      29.275 -10.240  -6.127  1.00 22.82 LIG-0.29  OA
ENDBRANCH 24 25
BRANCH 24 27
ATOM     27  CB  SER B 401      28.380 -13.493  -5.502  1.00 19.03 LIG 0.20  C 
BRANCH 27 28
ATOM     28 OG   SER B 401      27.501 -13.989  -6.497  1.00 19.07 LIG-0.40  OA
ATOM     29 HG   SER B 401      27.119 -13.347  -6.880  1.00 19.07 LIG 0.21  HD
ENDBRANCH 27 28
ENDBRANCH 24 27
ENDBRANCH 21 24
ENDBRANCH 19 20
BRANCH 19 30
ATOM     30  CB  SER B 400      33.810 -13.128  -5.783  1.00 20.99 LIG 0.20  C 
BRANCH 30 31
ATOM     31 OG   SER B 400      34.717 -13.937  -5.052  1.00 29.12 LIG-0.40  OA
ATOM     32 HG   SER B 400      34.971 -14.578  -5.532  1.00 29.12 LIG 0.21  HD
ENDBRANCH 30 31
ENDBRANCH 19 30
ENDBRANCH 3 19
TORSDOF 13
ENDMDL
MODEL 18
USER: ADFR SOLUTION from run 165
USER: SCORE 10.196815 LL:  -1.762 LR:  -9.409 RR:   0.000 FEB:  -5.532
USER: RMSD 7.466486
USER: SEED 164
USER: STATUS no improvement in best in 18 clusters for 5 generations
USER: GENES 15
USER: genes 0 Translation |==|  0.50858 0.30634 0.50715
USER: genes 1 Rotation |==|  0.16674 0.74074 0.21707 0.53060
USER: genes 2 Torsion [N]-C--CA-[N] |==|  0.56663
USER: genes 3 Torsion [C]-CA--N-[C] |==|  0.66686
USER: genes 4 Torsion [N]-C--CA-[N] |==|  0.58221
USER: genes 5 Torsion [C]-CA--CB-[CG] |==|  0.50418
USER: genes 6 Torsion [CA]-CB--CG-[CD2] |==|  0.45796
USER: genes 7 Torsion [C]-N--CA-[C] |==|  0.79442
USER: genes 8 Torsion [N]-CA--C-[N] |==|  0.20649
USER: genes 9 Torsion [C]-N--CA-[C] |==|  0.74642
USER: genes 10 Torsion [N]-CA--C-[O] |==|  0.82081
USER: genes 11 Torsion [N]-CA--CB-[OG] |==|  0.12571
USER: genes 12 Torsion [CA]-CB--OG-[HG] |==|  0.06890
USER: genes 13 Torsion [N]-CA--CB-[OG] |==|  0.74277
USER: genes 14 Torsion [CA]-CB--OG-[HG] |==|  0.14508
ROOT
ATOM      1  C   HIS B 399      35.804 -16.178 -10.501  1.00 17.93 LIG 0.24  C 
ATOM      2 O    HIS B 399      35.051 -15.230 -10.725  1.00 15.41 LIG-0.27  OA
ATOM      3  N   SER B 400      35.406 -17.303  -9.918  1.00 17.64 LIG-0.34  N 
ATOM      4 H    SER B 400      35.926 -17.971  -9.766  1.00 17.64 LIG 0.16  HD
ENDROOT
BRANCH 1 5
ATOM      5  CA  HIS B 399      37.276 -16.112 -10.893  1.00 18.55 LIG 0.18  C 
BRANCH 5 6
ATOM      6  N   HIS B 399      37.710 -14.725 -10.977  1.00 19.43 LIG-0.34  N 
ATOM      7 H    HIS B 399      37.632 -14.284 -10.244  1.00 19.43 LIG 0.16  HD
ATOM      8  C   ALA B 398      38.184 -14.210 -12.107  1.00 22.32 LIG 0.26  C 
ATOM      9 O    ALA B 398      38.275 -14.859 -13.152  1.00 22.30 LIG-0.27  OA
BRANCH 8 10
ATOM     10  CA  ALA B 398      38.612 -12.747 -12.052  1.00 21.39 LIG 0.40  C 
ATOM     11  N   ALA B 398      38.444 -12.079 -13.377  1.00 23.95 LIG 0.61  N 
ATOM     12  CB  ALA B 398      37.808 -12.005 -10.992  1.00 21.38 LIG 0.06  C 
ENDBRANCH 8 10
ENDBRANCH 5 6
BRANCH 5 13
ATOM     13  CB  HIS B 399      38.120 -16.853  -9.854  1.00 22.49 LIG 0.10  C 
BRANCH 13 14
ATOM     14  CG  HIS B 399      39.589 -16.811 -10.137  1.00 24.90 LIG 0.06  A 
ATOM     15  CD2 HIS B 399      40.655 -17.094  -9.353  1.00 26.88 LIG 0.14  A 
ATOM     16 NE2  HIS B 399      41.778 -16.957 -10.132  1.00 28.66 LIG-0.25  NA
ATOM     17  CE1 HIS B 399      41.415 -16.600 -11.351  1.00 27.08 LIG 0.23  A 
ATOM     18 ND1  HIS B 399      40.097 -16.503 -11.381  1.00 26.64 LIG-0.24  NA
ENDBRANCH 13 14
ENDBRANCH 5 13
ENDBRANCH 1 5
BRANCH 3 19
ATOM     19  CA  SER B 400      34.030 -17.510  -9.476  1.00 19.59 LIG 0.20  C 
BRANCH 19 20
ATOM     20  C   SER B 400      33.763 -16.696  -8.216  1.00 19.52 LIG 0.24  C 
ATOM     21  N   SER B 401      33.621 -15.381  -8.372  1.00 18.79 LIG-0.34  N 
ATOM     22 H    SER B 401      33.671 -14.979  -9.130  1.00 18.79 LIG 0.16  HD
ATOM     23 O    SER B 400      33.681 -17.252  -7.120  1.00 19.53 LIG-0.27  OA
BRANCH 21 24
ATOM     24  CA  SER B 401      33.362 -14.502  -7.235  1.00 20.07 LIG 0.19  C 
BRANCH 24 25
ATOM     25  C   SER B 401      31.864 -14.334  -7.028  1.00 22.19 LIG 0.22  C 
ATOM     26 O    SER B 401      31.210 -13.765  -7.928  1.00 22.82 LIG-0.29  OA
ENDBRANCH 24 25
BRANCH 24 27
ATOM     27  CB  SER B 401      34.011 -13.130  -7.446  1.00 19.03 LIG 0.20  C 
BRANCH 27 28
ATOM     28 OG   SER B 401      33.775 -12.637  -8.755  1.00 19.07 LIG-0.40  OA
ATOM     29 HG   SER B 401      33.076 -12.986  -9.064  1.00 19.07 LIG 0.21  HD
ENDBRANCH 27 28
ENDBRANCH 24 27
ENDBRANCH 21 24
ENDBRANCH 19 20
BRANCH 19 30
ATOM     30  CB  SER B 400      33.790 -18.992  -9.183  1.00 20.99 LIG 0.20  C 
BRANCH 30 31
ATOM     31 OG   SER B 400      33.278 -19.657 -10.328  1.00 29.12 LIG-0.40  OA
ATOM     32 HG   SER B 400      33.775 -19.503 -10.987  1.00 29.12 LIG 0.21  HD
ENDBRANCH 30 31
ENDBRANCH 19 30
ENDBRANCH 3 19
TORSDOF 13
ENDMDL
MODEL 19
USER: ADFR SOLUTION from run 22
USER: SCORE 10.678999 LL:  -1.510 LR:  -9.409 RR:   0.000 FEB:  -5.531
USER: RMSD 8.296017
USER: SEED 21
USER: STATUS no improvement in best in 26 clusters for 5 generations
USER: GENES 15
USER: genes 0 Translation |==|  0.41548 0.31171 0.63865
USER: genes 1 Rotation |==|  0.41949 0.01192 0.56563 0.53143
USER: genes 2 Torsion [N]-C--CA-[N] |==|  0.35141
USER: genes 3 Torsion [C]-CA--N-[C] |==|  0.85956
USER: genes 4 Torsion [N]-C--CA-[N] |==|  0.56180
USER: genes 5 Torsion [C]-CA--CB-[CG] |==|  0.30122
USER: genes 6 Torsion [CA]-CB--CG-[CD2] |==|  0.69673
USER: genes 7 Torsion [C]-N--CA-[C] |==|  0.54468
USER: genes 8 Torsion [N]-CA--C-[N] |==|  0.44495
USER: genes 9 Torsion [C]-N--CA-[C] |==|  0.59310
USER: genes 10 Torsion [N]-CA--C-[O] |==|  0.33339
USER: genes 11 Torsion [N]-CA--CB-[OG] |==|  0.61981
USER: genes 12 Torsion [CA]-CB--OG-[HG] |==|  0.92919
USER: genes 13 Torsion [N]-CA--CB-[OG] |==|  0.14428
USER: genes 14 Torsion [CA]-CB--OG-[HG] |==|  0.85836
ROOT
ATOM      1  C   HIS B 399      34.129 -16.094  -8.134  1.00 17.93 LIG 0.24  C 
ATOM      2 O    HIS B 399      35.017 -16.049  -7.282  1.00 15.41 LIG-0.27  OA
ATOM      3  N   SER B 400      33.094 -15.261  -8.153  1.00 17.64 LIG-0.34  N 
ATOM      4 H    SER B 400      32.475 -15.283  -8.750  1.00 17.64 LIG 0.16  HD
ENDROOT
BRANCH 1 5
ATOM      5  CA  HIS B 399      34.169 -17.135  -9.246  1.00 18.55 LIG 0.18  C 
BRANCH 5 6
ATOM      6  N   HIS B 399      35.448 -17.077  -9.939  1.00 19.43 LIG-0.34  N 
ATOM      7 H    HIS B 399      35.842 -17.837 -10.021  1.00 19.43 LIG 0.16  HD
ATOM      8  C   ALA B 398      35.942 -15.931 -10.398  1.00 22.32 LIG 0.26  C 
ATOM      9 O    ALA B 398      35.365 -14.851 -10.258  1.00 22.30 LIG-0.27  OA
BRANCH 8 10
ATOM     10  CA  ALA B 398      37.287 -16.017 -11.114  1.00 21.39 LIG 0.40  C 
ATOM     11  N   ALA B 398      37.991 -14.701 -11.110  1.00 23.95 LIG 0.61  N 
ATOM     12  CB  ALA B 398      38.163 -17.076 -10.459  1.00 21.38 LIG 0.06  C 
ENDBRANCH 8 10
ENDBRANCH 5 6
BRANCH 5 13
ATOM     13  CB  HIS B 399      33.968 -18.531  -8.654  1.00 22.49 LIG 0.10  C 
BRANCH 13 14
ATOM     14  CG  HIS B 399      32.636 -19.131  -8.977  1.00 24.90 LIG 0.06  A 
ATOM     15  CD2 HIS B 399      31.555 -19.371  -8.198  1.00 26.88 LIG 0.14  A 
ATOM     16 NE2  HIS B 399      30.572 -19.875  -9.014  1.00 28.66 LIG-0.25  NA
ATOM     17  CE1 HIS B 399      31.033 -19.944 -10.250  1.00 27.08 LIG 0.23  A 
ATOM     18 ND1  HIS B 399      32.278 -19.502 -10.255  1.00 26.64 LIG-0.24  NA
ENDBRANCH 13 14
ENDBRANCH 5 13
ENDBRANCH 1 5
BRANCH 3 19
ATOM     19  CA  SER B 400      32.912 -14.218  -7.147  1.00 19.59 LIG 0.20  C 
BRANCH 19 20
ATOM     20  C   SER B 400      31.478 -13.702  -7.189  1.00 19.52 LIG 0.24  C 
ATOM     21  N   SER B 401      31.040 -13.066  -6.105  1.00 18.79 LIG-0.34  N 
ATOM     22 H    SER B 401      31.514 -12.936  -5.400  1.00 18.79 LIG 0.16  HD
ATOM     23 O    SER B 400      30.784 -13.873  -8.192  1.00 19.53 LIG-0.27  OA
BRANCH 21 24
ATOM     24  CA  SER B 401      29.684 -12.530  -6.033  1.00 20.07 LIG 0.19  C 
BRANCH 24 25
ATOM     25  C   SER B 401      29.665 -11.254  -5.204  1.00 22.19 LIG 0.22  C 
ATOM     26 O    SER B 401      29.275 -10.203  -5.757  1.00 22.82 LIG-0.29  OA
ENDBRANCH 24 25
BRANCH 24 27
ATOM     27  CB  SER B 401      28.722 -13.555  -5.421  1.00 19.03 LIG 0.20  C 
BRANCH 27 28
ATOM     28 OG   SER B 401      27.495 -13.607  -6.130  1.00 19.07 LIG-0.40  OA
ATOM     29 HG   SER B 401      27.363 -12.872  -6.515  1.00 19.07 LIG 0.21  HD
ENDBRANCH 27 28
ENDBRANCH 24 27
ENDBRANCH 21 24
ENDBRANCH 19 20
BRANCH 19 30
ATOM     30  CB  SER B 400      33.876 -13.060  -7.412  1.00 20.99 LIG 0.20  C 
BRANCH 30 31
ATOM     31 OG   SER B 400      33.775 -12.614  -8.755  1.00 29.12 LIG-0.40  OA
ATOM     32 HG   SER B 400      33.841 -13.271  -9.274  1.00 29.12 LIG 0.21  HD
ENDBRANCH 30 31
ENDBRANCH 19 30
ENDBRANCH 3 19
TORSDOF 13
ENDMDL
MODEL 20
USER: ADFR SOLUTION from run 117
USER: SCORE 10.825465 LL:  -1.729 LR:  -9.362 RR:   0.000 FEB:  -5.484
USER: RMSD 7.008318
USER: SEED 116
USER: STATUS no improvement in best in 7 clusters for 5 generations
USER: GENES 15
USER: genes 0 Translation |==|  0.55051 0.44691 0.50356
USER: genes 1 Rotation |==|  0.10971 0.57637 0.33957 0.75710
USER: genes 2 Torsion [N]-C--CA-[N] |==|  0.23869
USER: genes 3 Torsion [C]-CA--N-[C] |==|  0.77749
USER: genes 4 Torsion [N]-C--CA-[N] |==|  0.33252
USER: genes 5 Torsion [C]-CA--CB-[CG] |==|  0.09906
USER: genes 6 Torsion [CA]-CB--CG-[CD2] |==|  0.14416
USER: genes 7 Torsion [C]-N--CA-[C] |==|  0.83551
USER: genes 8 Torsion [N]-CA--C-[N] |==|  0.39201
USER: genes 9 Torsion [C]-N--CA-[C] |==|  0.75794
USER: genes 10 Torsion [N]-CA--C-[O] |==|  0.98180
USER: genes 11 Torsion [N]-CA--CB-[OG] |==|  0.13030
USER: genes 12 Torsion [CA]-CB--OG-[HG] |==|  0.97236
USER: genes 13 Torsion [N]-CA--CB-[OG] |==|  0.88318
USER: genes 14 Torsion [CA]-CB--OG-[HG] |==|  0.15493
ROOT
ATOM      1  C   HIS B 399      36.559 -13.964 -10.566  1.00 17.93 LIG 0.24  C 
ATOM      2 O    HIS B 399      35.363 -14.252 -10.630  1.00 15.41 LIG-0.27  OA
ATOM      3  N   SER B 400      37.528 -14.873 -10.548  1.00 17.64 LIG-0.34  N 
ATOM      4 H    SER B 400      38.364 -14.676 -10.511  1.00 17.64 LIG 0.16  HD
ENDROOT
BRANCH 1 5
ATOM      5  CA  HIS B 399      37.007 -12.509 -10.505  1.00 18.55 LIG 0.18  C 
BRANCH 5 6
ATOM      6  N   HIS B 399      37.308 -12.021 -11.843  1.00 19.43 LIG-0.34  N 
ATOM      7 H    HIS B 399      36.681 -11.553 -12.200  1.00 19.43 LIG 0.16  HD
ATOM      8  C   ALA B 398      38.465 -12.292 -12.440  1.00 22.32 LIG 0.26  C 
ATOM      9 O    ALA B 398      39.345 -12.976 -11.914  1.00 22.30 LIG-0.27  OA
BRANCH 8 10
ATOM     10  CA  ALA B 398      38.653 -11.709 -13.838  1.00 21.39 LIG 0.40  C 
ATOM     11  N   ALA B 398      39.827 -10.789 -13.891  1.00 23.95 LIG 0.61  N 
ATOM     12  CB  ALA B 398      38.826 -12.829 -14.854  1.00 21.38 LIG 0.06  C 
ENDBRANCH 8 10
ENDBRANCH 5 6
BRANCH 5 13
ATOM     13  CB  HIS B 399      35.900 -11.654  -9.884  1.00 22.49 LIG 0.10  C 
BRANCH 13 14
ATOM     14  CG  HIS B 399      35.142 -12.353  -8.800  1.00 24.90 LIG 0.06  A 
ATOM     15  CD2 HIS B 399      35.568 -13.003  -7.691  1.00 26.88 LIG 0.14  A 
ATOM     16 NE2  HIS B 399      34.450 -13.401  -7.001  1.00 28.66 LIG-0.25  NA
ATOM     17  CE1 HIS B 399      33.374 -13.013  -7.663  1.00 27.08 LIG 0.23  A 
ATOM     18 ND1  HIS B 399      33.764 -12.379  -8.755  1.00 26.64 LIG-0.24  NA
ENDBRANCH 13 14
ENDBRANCH 5 13
ENDBRANCH 1 5
BRANCH 3 19
ATOM     19  CA  SER B 400      37.255 -16.306 -10.588  1.00 19.59 LIG 0.20  C 
BRANCH 19 20
ATOM     20  C   SER B 400      36.391 -16.704  -9.397  1.00 19.52 LIG 0.24  C 
ATOM     21  N   SER B 401      35.443 -17.610  -9.623  1.00 18.79 LIG-0.34  N 
ATOM     22 H    SER B 401      35.298 -17.975 -10.388  1.00 18.79 LIG 0.16  HD
ATOM     23 O    SER B 400      36.585 -16.199  -8.290  1.00 19.53 LIG-0.27  OA
BRANCH 21 24
ATOM     24  CA  SER B 401      34.555 -18.066  -8.557  1.00 20.07 LIG 0.19  C 
BRANCH 24 25
ATOM     25  C   SER B 401      35.187 -19.228  -7.804  1.00 22.19 LIG 0.22  C 
ATOM     26 O    SER B 401      36.255 -19.701  -8.248  1.00 22.82 LIG-0.29  OA
ENDBRANCH 24 25
BRANCH 24 27
ATOM     27  CB  SER B 401      33.197 -18.496  -9.123  1.00 19.03 LIG 0.20  C 
BRANCH 27 28
ATOM     28 OG   SER B 401      33.346 -19.336 -10.255  1.00 19.07 LIG-0.40  OA
ATOM     29 HG   SER B 401      34.150 -19.340 -10.497  1.00 19.07 LIG 0.21  HD
ENDBRANCH 27 28
ENDBRANCH 24 27
ENDBRANCH 21 24
ENDBRANCH 19 20
BRANCH 19 30
ATOM     30  CB  SER B 400      38.568 -17.092 -10.546  1.00 20.99 LIG 0.20  C 
BRANCH 30 31
ATOM     31 OG   SER B 400      39.544 -16.489 -11.381  1.00 29.12 LIG-0.40  OA
ATOM     32 HG   SER B 400      39.648 -15.686 -11.156  1.00 29.12 LIG 0.21  HD
ENDBRANCH 30 31
ENDBRANCH 19 30
ENDBRANCH 3 19
TORSDOF 13
ENDMDL
MODEL 21
USER: ADFR SOLUTION from run 62
USER: SCORE 11.127873 LL:  -1.921 LR:  -9.344 RR:   0.000 FEB:  -5.466
USER: RMSD 5.833735
USER: SEED 61
USER: STATUS no improvement in best in 17 clusters for 5 generations
USER: GENES 15
USER: genes 0 Translation |==|  0.62501 0.54241 0.42878
USER: genes 1 Rotation |==|  0.21022 0.57829 0.73653 0.82242
USER: genes 2 Torsion [N]-C--CA-[N] |==|  0.95138
USER: genes 3 Torsion [C]-CA--N-[C] |==|  0.81667
USER: genes 4 Torsion [N]-C--CA-[N] |==|  0.73303
USER: genes 5 Torsion [C]-CA--CB-[CG] |==|  0.25121
USER: genes 6 Torsion [CA]-CB--CG-[CD2] |==|  0.03456
USER: genes 7 Torsion [C]-N--CA-[C] |==|  0.85544
USER: genes 8 Torsion [N]-CA--C-[N] |==|  0.92440
USER: genes 9 Torsion [C]-N--CA-[C] |==|  0.76714
USER: genes 10 Torsion [N]-CA--C-[O] |==|  0.15312
USER: genes 11 Torsion [N]-CA--CB-[OG] |==|  0.92190
USER: genes 12 Torsion [CA]-CB--OG-[HG] |==|  0.53869
USER: genes 13 Torsion [N]-CA--CB-[OG] |==|  0.11153
USER: genes 14 Torsion [CA]-CB--OG-[HG] |==|  0.72621
ROOT
ATOM      1  C   HIS B 399      37.900 -12.460 -11.912  1.00 17.93 LIG 0.24  C 
ATOM      2 O    HIS B 399      37.803 -13.662 -11.661  1.00 15.41 LIG-0.27  OA
ATOM      3  N   SER B 400      38.168 -11.987 -13.124  1.00 17.64 LIG-0.34  N 
ATOM      4 H    SER B 400      38.229 -11.149 -13.305  1.00 17.64 LIG 0.16  HD
ENDROOT
BRANCH 1 5
ATOM      5  CA  HIS B 399      37.711 -11.419 -10.815  1.00 18.55 LIG 0.18  C 
BRANCH 5 6
ATOM      6  N   HIS B 399      38.265 -10.141 -11.237  1.00 19.43 LIG-0.34  N 
ATOM      7 H    HIS B 399      37.682  -9.519 -11.343  1.00 19.43 LIG 0.16  HD
ATOM      8  C   ALA B 398      39.570  -9.978 -11.435  1.00 22.32 LIG 0.26  C 
ATOM      9 O    ALA B 398      40.388 -10.888 -11.289  1.00 22.30 LIG-0.27  OA
BRANCH 8 10
ATOM     10  CA  ALA B 398      40.015  -8.583 -11.866  1.00 21.39 LIG 0.40  C 
ATOM     11  N   ALA B 398      40.158  -8.491 -13.350  1.00 23.95 LIG 0.61  N 
ATOM     12  CB  ALA B 398      39.020  -7.540 -11.377  1.00 21.38 LIG 0.06  C 
ENDBRANCH 8 10
ENDBRANCH 5 6
BRANCH 5 13
ATOM     13  CB  HIS B 399      36.221 -11.257 -10.508  1.00 22.49 LIG 0.10  C 
BRANCH 13 14
ATOM     14  CG  HIS B 399      35.730 -12.172  -9.431  1.00 24.90 LIG 0.06  A 
ATOM     15  CD2 HIS B 399      36.400 -12.944  -8.544  1.00 26.88 LIG 0.14  A 
ATOM     16 NE2  HIS B 399      35.463 -13.533  -7.730  1.00 28.66 LIG-0.25  NA
ATOM     17  CE1 HIS B 399      34.259 -13.138  -8.105  1.00 27.08 LIG 0.23  A 
ATOM     18 ND1  HIS B 399      34.392 -12.317  -9.132  1.00 26.64 LIG-0.24  NA
ENDBRANCH 13 14
ENDBRANCH 5 13
ENDBRANCH 1 5
BRANCH 3 19
ATOM     19  CA  SER B 400      38.386 -12.861 -14.273  1.00 19.59 LIG 0.20  C 
BRANCH 19 20
ATOM     20  C   SER B 400      39.442 -13.907 -13.935  1.00 19.52 LIG 0.24  C 
ATOM     21  N   SER B 401      40.342 -13.572 -13.014  1.00 18.79 LIG-0.34  N 
ATOM     22 H    SER B 401      40.357 -12.813 -12.609  1.00 18.79 LIG 0.16  HD
ATOM     23 O    SER B 400      39.436 -15.003 -14.498  1.00 19.53 LIG-0.27  OA
BRANCH 21 24
ATOM     24  CA  SER B 401      41.400 -14.494 -12.611  1.00 20.07 LIG 0.19  C 
BRANCH 24 25
ATOM     25  C   SER B 401      40.886 -15.457 -11.551  1.00 22.19 LIG 0.22  C 
ATOM     26 O    SER B 401      39.865 -16.127 -11.814  1.00 22.82 LIG-0.29  OA
ENDBRANCH 24 25
BRANCH 24 27
ATOM     27  CB  SER B 401      42.614 -13.731 -12.069  1.00 19.03 LIG 0.20  C 
BRANCH 27 28
ATOM     28 OG   SER B 401      42.716 -12.438 -12.643  1.00 19.07 LIG-0.40  OA
ATOM     29 HG   SER B 401      43.476 -12.119 -12.482  1.00 19.07 LIG 0.21  HD
ENDBRANCH 27 28
ENDBRANCH 24 27
ENDBRANCH 21 24
ENDBRANCH 19 20
BRANCH 19 30
ATOM     30  CB  SER B 400      38.853 -12.039 -15.477  1.00 20.99 LIG 0.20  C 
BRANCH 30 31
ATOM     31 OG   SER B 400      39.772 -11.035 -15.076  1.00 29.12 LIG-0.40  OA
ATOM     32 HG   SER B 400      39.370 -10.302 -14.999  1.00 29.12 LIG 0.21  HD
ENDBRANCH 30 31
ENDBRANCH 19 30
ENDBRANCH 3 19
TORSDOF 13
ENDMDL
MODEL 22
USER: ADFR SOLUTION from run 80
USER: SCORE 10.609692 LL:  -1.689 LR:  -9.314 RR:   0.000 FEB:  -5.436
USER: RMSD 7.771545
USER: SEED 79
USER: STATUS no improvement in best in 12 clusters for 5 generations
USER: GENES 15
USER: genes 0 Translation |==|  0.46405 0.38967 0.61035
USER: genes 1 Rotation |==|  0.60722 0.95356 0.67339 0.55221
USER: genes 2 Torsion [N]-C--CA-[N] |==|  0.23103
USER: genes 3 Torsion [C]-CA--N-[C] |==|  0.76500
USER: genes 4 Torsion [N]-C--CA-[N] |==|  0.46208
USER: genes 5 Torsion [C]-CA--CB-[CG] |==|  0.62014
USER: genes 6 Torsion [CA]-CB--CG-[CD2] |==|  0.33949
USER: genes 7 Torsion [C]-N--CA-[C] |==|  0.55699
USER: genes 8 Torsion [N]-CA--C-[N] |==|  0.47712
USER: genes 9 Torsion [C]-N--CA-[C] |==|  0.69469
USER: genes 10 Torsion [N]-CA--C-[O] |==|  0.38292
USER: genes 11 Torsion [N]-CA--CB-[OG] |==|  0.47048
USER: genes 12 Torsion [CA]-CB--OG-[HG] |==|  0.25159
USER: genes 13 Torsion [N]-CA--CB-[OG] |==|  0.75287
USER: genes 14 Torsion [CA]-CB--OG-[HG] |==|  0.12265
ROOT
ATOM      1  C   HIS B 399      35.003 -14.866  -8.644  1.00 17.93 LIG 0.24  C 
ATOM      2 O    HIS B 399      35.363 -15.735  -7.848  1.00 15.41 LIG-0.27  OA
ATOM      3  N   SER B 400      34.040 -13.989  -8.380  1.00 17.64 LIG-0.34  N 
ATOM      4 H    SER B 400      33.791 -13.376  -8.929  1.00 17.64 LIG 0.16  HD
ENDROOT
BRANCH 1 5
ATOM      5  CA  HIS B 399      35.662 -14.743 -10.012  1.00 18.55 LIG 0.18  C 
BRANCH 5 6
ATOM      6  N   HIS B 399      36.701 -13.724  -9.978  1.00 19.43 LIG-0.34  N 
ATOM      7 H    HIS B 399      37.492 -14.028  -9.837  1.00 19.43 LIG 0.16  HD
ATOM      8  C   ALA B 398      36.420 -12.436 -10.154  1.00 22.32 LIG 0.26  C 
ATOM      9 O    ALA B 398      35.275 -12.021 -10.342  1.00 22.30 LIG-0.27  OA
BRANCH 8 10
ATOM     10  CA  ALA B 398      37.606 -11.477 -10.104  1.00 21.39 LIG 0.40  C 
ATOM     11  N   ALA B 398      37.238 -10.128 -10.630  1.00 23.95 LIG 0.61  N 
ATOM     12  CB  ALA B 398      38.120 -11.353  -8.677  1.00 21.38 LIG 0.06  C 
ENDBRANCH 8 10
ENDBRANCH 5 6
BRANCH 5 13
ATOM     13  CB  HIS B 399      36.274 -16.087 -10.413  1.00 22.49 LIG 0.10  C 
BRANCH 13 14
ATOM     14  CG  HIS B 399      37.637 -15.967 -11.017  1.00 24.90 LIG 0.06  A 
ATOM     15  CD2 HIS B 399      38.823 -16.508 -10.653  1.00 26.88 LIG 0.14  A 
ATOM     16 NE2  HIS B 399      39.748 -16.128 -11.595  1.00 28.66 LIG-0.25  NA
ATOM     17  CE1 HIS B 399      39.152 -15.378 -12.505  1.00 27.08 LIG 0.23  A 
ATOM     18 ND1  HIS B 399      37.876 -15.264 -12.179  1.00 26.64 LIG-0.24  NA
ENDBRANCH 13 14
ENDBRANCH 5 13
ENDBRANCH 1 5
BRANCH 3 19
ATOM     19  CA  SER B 400      33.309 -13.989  -7.117  1.00 19.59 LIG 0.20  C 
BRANCH 19 20
ATOM     20  C   SER B 400      31.984 -13.254  -7.285  1.00 19.52 LIG 0.24  C 
ATOM     21  N   SER B 401      31.132 -13.318  -6.265  1.00 18.79 LIG-0.34  N 
ATOM     22 H    SER B 401      31.287 -13.742  -5.533  1.00 18.79 LIG 0.16  HD
ATOM     23 O    SER B 400      31.742 -12.635  -8.322  1.00 19.53 LIG-0.27  OA
BRANCH 21 24
ATOM     24  CA  SER B 401      29.832 -12.653  -6.314  1.00 20.07 LIG 0.19  C 
BRANCH 24 25
ATOM     25  C   SER B 401      29.809 -11.467  -5.360  1.00 22.19 LIG 0.22  C 
ATOM     26 O    SER B 401      29.275 -10.409  -5.755  1.00 22.82 LIG-0.29  OA
ENDBRANCH 24 25
BRANCH 24 27
ATOM     27  CB  SER B 401      28.705 -13.627  -5.953  1.00 19.03 LIG 0.20  C 
BRANCH 27 28
ATOM     28 OG   SER B 401      27.474 -12.951  -5.760  1.00 19.07 LIG-0.40  OA
ATOM     29 HG   SER B 401      27.058 -12.914  -6.488  1.00 19.07 LIG 0.21  HD
ENDBRANCH 27 28
ENDBRANCH 24 27
ENDBRANCH 21 24
ENDBRANCH 19 20
BRANCH 19 30
ATOM     30  CB  SER B 400      34.137 -13.298  -6.031  1.00 20.99 LIG 0.20  C 
BRANCH 30 31
ATOM     31 OG   SER B 400      34.979 -14.230  -5.369  1.00 29.12 LIG-0.40  OA
ATOM     32 HG   SER B 400      35.343 -14.730  -5.936  1.00 29.12 LIG 0.21  HD
ENDBRANCH 30 31
ENDBRANCH 19 30
ENDBRANCH 3 19
TORSDOF 13
ENDMDL
MODEL 23
USER: ADFR SOLUTION from run 179
USER: SCORE 10.532752 LL:  -2.071 LR:  -9.277 RR:   0.000 FEB:  -5.399
USER: RMSD 5.071946
USER: SEED 178
USER: STATUS no improvement in best in 17 clusters for 5 generations
USER: GENES 15
USER: genes 0 Translation |==|  0.64793 0.55464 0.45620
USER: genes 1 Rotation |==|  0.14394 0.36634 0.78007 0.66407
USER: genes 2 Torsion [N]-C--CA-[N] |==|  0.49953
USER: genes 3 Torsion [C]-CA--N-[C] |==|  0.52947
USER: genes 4 Torsion [N]-C--CA-[N] |==|  0.17977
USER: genes 5 Torsion [C]-CA--CB-[CG] |==|  0.89035
USER: genes 6 Torsion [CA]-CB--CG-[CD2] |==|  0.35735
USER: genes 7 Torsion [C]-N--CA-[C] |==|  0.69511
USER: genes 8 Torsion [N]-CA--C-[N] |==|  0.83333
USER: genes 9 Torsion [C]-N--CA-[C] |==|  0.67501
USER: genes 10 Torsion [N]-CA--C-[O] |==|  0.48729
USER: genes 11 Torsion [N]-CA--CB-[OG] |==|  0.00838
USER: genes 12 Torsion [CA]-CB--OG-[HG] |==|  0.18270
USER: genes 13 Torsion [N]-CA--CB-[OG] |==|  0.05212
USER: genes 14 Torsion [CA]-CB--OG-[HG] |==|  0.19607
ROOT
ATOM      1  C   HIS B 399      38.313 -12.267 -11.418  1.00 17.93 LIG 0.24  C 
ATOM      2 O    HIS B 399      39.088 -13.038 -10.851  1.00 15.41 LIG-0.27  OA
ATOM      3  N   SER B 400      38.613 -11.630 -12.544  1.00 17.64 LIG-0.34  N 
ATOM      4 H    SER B 400      38.072 -11.096 -12.948  1.00 17.64 LIG 0.16  HD
ENDROOT
BRANCH 1 5
ATOM      5  CA  HIS B 399      36.927 -11.996 -10.845  1.00 18.55 LIG 0.18  C 
BRANCH 5 6
ATOM      6  N   HIS B 399      36.734 -12.759  -9.621  1.00 19.43 LIG-0.34  N 
ATOM      7 H    HIS B 399      37.448 -13.129  -9.316  1.00 19.43 LIG 0.16  HD
ATOM      8  C   ALA B 398      35.541 -12.859  -9.042  1.00 22.32 LIG 0.26  C 
ATOM      9 O    ALA B 398      34.527 -12.330  -9.503  1.00 22.30 LIG-0.27  OA
BRANCH 8 10
ATOM     10  CA  ALA B 398      35.484 -13.681  -7.758  1.00 21.39 LIG 0.40  C 
ATOM     11  N   ALA B 398      36.286 -13.047  -6.669  1.00 23.95 LIG 0.61  N 
ATOM     12  CB  ALA B 398      34.039 -13.849  -7.306  1.00 21.38 LIG 0.06  C 
ENDBRANCH 8 10
ENDBRANCH 5 6
BRANCH 5 13
ATOM     13  CB  HIS B 399      36.774 -10.503 -10.549  1.00 22.49 LIG 0.10  C 
BRANCH 13 14
ATOM     14  CG  HIS B 399      38.007  -9.877  -9.978  1.00 24.90 LIG 0.06  A 
ATOM     15  CD2 HIS B 399      38.696  -8.771 -10.345  1.00 26.88 LIG 0.14  A 
ATOM     16 NE2  HIS B 399      39.714  -8.609  -9.437  1.00 28.66 LIG-0.25  NA
ATOM     17  CE1 HIS B 399      39.654  -9.582  -8.546  1.00 27.08 LIG 0.23  A 
ATOM     18 ND1  HIS B 399      38.633 -10.363  -8.850  1.00 26.64 LIG-0.24  NA
ENDBRANCH 13 14
ENDBRANCH 5 13
ENDBRANCH 1 5
BRANCH 3 19
ATOM     19  CA  SER B 400      39.905 -11.779 -13.206  1.00 19.59 LIG 0.20  C 
BRANCH 19 20
ATOM     20  C   SER B 400      40.708 -10.490 -13.072  1.00 19.52 LIG 0.24  C 
ATOM     21  N   SER B 401      40.166  -9.392 -13.594  1.00 18.79 LIG-0.34  N 
ATOM     22 H    SER B 401      39.404  -9.373 -13.992  1.00 18.79 LIG 0.16  HD
ATOM     23 O    SER B 400      41.799 -10.491 -12.500  1.00 19.53 LIG-0.27  OA
BRANCH 21 24
ATOM     24  CA  SER B 401      40.845  -8.101 -13.525  1.00 20.07 LIG 0.19  C 
BRANCH 24 25
ATOM     25  C   SER B 401      40.023  -7.115 -12.708  1.00 22.19 LIG 0.22  C 
ATOM     26 O    SER B 401      40.514  -5.988 -12.484  1.00 22.82 LIG-0.29  OA
ENDBRANCH 24 25
BRANCH 24 27
ATOM     27  CB  SER B 401      41.083  -7.533 -14.929  1.00 19.03 LIG 0.20  C 
BRANCH 27 28
ATOM     28 OG   SER B 401      40.525  -8.367 -15.931  1.00 19.07 LIG-0.40  OA
ATOM     29 HG   SER B 401      39.688  -8.373 -15.857  1.00 19.07 LIG 0.21  HD
ENDBRANCH 27 28
ENDBRANCH 24 27
ENDBRANCH 21 24
ENDBRANCH 19 20
BRANCH 19 30
ATOM     30  CB  SER B 400      39.702 -12.098 -14.689  1.00 20.99 LIG 0.20  C 
BRANCH 30 31
ATOM     31 OG   SER B 400      38.393 -11.746 -15.107  1.00 29.12 LIG-0.40  OA
ATOM     32 HG   SER B 400      38.320 -10.909 -15.126  1.00 29.12 LIG 0.21  HD
ENDBRANCH 30 31
ENDBRANCH 19 30
ENDBRANCH 3 19
TORSDOF 13
ENDMDL
MODEL 24
USER: ADFR SOLUTION from run 103
USER: SCORE 10.351593 LL:  -1.443 LR:  -9.277 RR:   0.000 FEB:  -5.399
USER: RMSD 7.081575
USER: SEED 102
USER: STATUS no improvement in best in 30 clusters for 5 generations
USER: GENES 15
USER: genes 0 Translation |==|  0.53794 0.42876 0.57878
USER: genes 1 Rotation |==|  0.46170 0.97919 0.63741 0.50533
USER: genes 2 Torsion [N]-C--CA-[N] |==|  0.32961
USER: genes 3 Torsion [C]-CA--N-[C] |==|  0.75767
USER: genes 4 Torsion [N]-C--CA-[N] |==|  0.27640
USER: genes 5 Torsion [C]-CA--CB-[CG] |==|  0.57574
USER: genes 6 Torsion [CA]-CB--CG-[CD2] |==|  0.88538
USER: genes 7 Torsion [C]-N--CA-[C] |==|  0.75055
USER: genes 8 Torsion [N]-CA--C-[N] |==|  0.87222
USER: genes 9 Torsion [C]-N--CA-[C] |==|  0.11148
USER: genes 10 Torsion [N]-CA--C-[O] |==|  0.38396
USER: genes 11 Torsion [N]-CA--CB-[OG] |==|  0.91055
USER: genes 12 Torsion [CA]-CB--OG-[HG] |==|  0.65922
USER: genes 13 Torsion [N]-CA--CB-[OG] |==|  0.97761
USER: genes 14 Torsion [CA]-CB--OG-[HG] |==|  0.20677
ROOT
ATOM      1  C   HIS B 399      36.333 -14.250  -9.212  1.00 17.93 LIG 0.24  C 
ATOM      2 O    HIS B 399      37.086 -14.600  -8.302  1.00 15.41 LIG-0.27  OA
ATOM      3  N   SER B 400      35.031 -14.047  -9.043  1.00 17.64 LIG-0.34  N 
ATOM      4 H    SER B 400      34.503 -13.796  -9.673  1.00 17.64 LIG 0.16  HD
ENDROOT
BRANCH 1 5
ATOM      5  CA  HIS B 399      36.868 -14.024 -10.621  1.00 18.55 LIG 0.18  C 
BRANCH 5 6
ATOM      6  N   HIS B 399      37.860 -12.959 -10.615  1.00 19.43 LIG-0.34  N 
ATOM      7 H    HIS B 399      38.670 -13.229 -10.521  1.00 19.43 LIG 0.16  HD
ATOM      8  C   ALA B 398      37.513 -11.682 -10.745  1.00 22.32 LIG 0.26  C 
ATOM      9 O    ALA B 398      36.343 -11.315 -10.865  1.00 22.30 LIG-0.27  OA
BRANCH 8 10
ATOM     10  CA  ALA B 398      38.656 -10.670 -10.731  1.00 21.39 LIG 0.40  C 
ATOM     11  N   ALA B 398      39.025 -10.247 -12.115  1.00 23.95 LIG 0.61  N 
ATOM     12  CB  ALA B 398      38.269  -9.453  -9.903  1.00 21.38 LIG 0.06  C 
ENDBRANCH 8 10
ENDBRANCH 5 6
BRANCH 5 13
ATOM     13  CB  HIS B 399      37.501 -15.313 -11.147  1.00 22.49 LIG 0.10  C 
BRANCH 13 14
ATOM     14  CG  HIS B 399      38.576 -15.081 -12.161  1.00 24.90 LIG 0.06  A 
ATOM     15  CD2 HIS B 399      38.652 -14.211 -13.195  1.00 26.88 LIG 0.14  A 
ATOM     16 NE2  HIS B 399      39.890 -14.370 -13.768  1.00 28.66 LIG-0.25  NA
ATOM     17  CE1 HIS B 399      40.551 -15.305 -13.110  1.00 27.08 LIG 0.23  A 
ATOM     18 ND1  HIS B 399      39.779 -15.753 -12.135  1.00 26.64 LIG-0.24  NA
ENDBRANCH 13 14
ENDBRANCH 5 13
ENDBRANCH 1 5
BRANCH 3 19
ATOM     19  CA  SER B 400      34.372 -14.235  -7.754  1.00 19.59 LIG 0.20  C 
BRANCH 19 20
ATOM     20  C   SER B 400      33.885 -15.673  -7.625  1.00 19.52 LIG 0.24  C 
ATOM     21  N   SER B 401      33.247 -16.184  -8.676  1.00 18.79 LIG-0.34  N 
ATOM     22 H    SER B 401      33.099 -15.754  -9.406  1.00 18.79 LIG 0.16  HD
ATOM     23 O    SER B 400      34.091 -16.311  -6.592  1.00 19.53 LIG-0.27  OA
BRANCH 21 24
ATOM     24  CA  SER B 401      32.736 -17.552  -8.666  1.00 20.07 LIG 0.19  C 
BRANCH 24 25
ATOM     25  C   SER B 401      32.130 -17.879  -7.308  1.00 22.19 LIG 0.22  C 
ATOM     26 O    SER B 401      31.057 -18.519  -7.285  1.00 22.82 LIG-0.29  OA
ENDBRANCH 24 25
BRANCH 24 27
ATOM     27  CB  SER B 401      33.850 -18.555  -8.988  1.00 19.03 LIG 0.20  C 
BRANCH 27 28
ATOM     28 OG   SER B 401      34.805 -18.004  -9.879  1.00 19.07 LIG-0.40  OA
ATOM     29 HG   SER B 401      34.861 -18.487 -10.564  1.00 19.07 LIG 0.21  HD
ENDBRANCH 27 28
ENDBRANCH 24 27
ENDBRANCH 21 24
ENDBRANCH 19 20
BRANCH 19 30
ATOM     30  CB  SER B 400      33.180 -13.283  -7.630  1.00 20.99 LIG 0.20  C 
BRANCH 30 31
ATOM     31 OG   SER B 400      33.155 -12.362  -8.709  1.00 29.12 LIG-0.40  OA
ATOM     32 HG   SER B 400      32.897 -12.753  -9.406  1.00 29.12 LIG 0.21  HD
ENDBRANCH 30 31
ENDBRANCH 19 30
ENDBRANCH 3 19
TORSDOF 13
ENDMDL
MODEL 25
USER: ADFR SOLUTION from run 160
USER: SCORE 11.087162 LL:  -2.224 LR:  -9.277 RR:   0.000 FEB:  -5.400
USER: RMSD 5.490649
USER: SEED 159
USER: STATUS no improvement in best in 8 clusters for 5 generations
USER: GENES 15
USER: genes 0 Translation |==|  0.64221 0.59821 0.46789
USER: genes 1 Rotation |==|  0.21861 0.55063 0.90359 0.57332
USER: genes 2 Torsion [N]-C--CA-[N] |==|  0.30784
USER: genes 3 Torsion [C]-CA--N-[C] |==|  0.77401
USER: genes 4 Torsion [N]-C--CA-[N] |==|  0.46510
USER: genes 5 Torsion [C]-CA--CB-[CG] |==|  0.15207
USER: genes 6 Torsion [CA]-CB--CG-[CD2] |==|  0.80226
USER: genes 7 Torsion [C]-N--CA-[C] |==|  0.18517
USER: genes 8 Torsion [N]-CA--C-[N] |==|  0.04297
USER: genes 9 Torsion [C]-N--CA-[C] |==|  0.52490
USER: genes 10 Torsion [N]-CA--C-[O] |==|  0.30171
USER: genes 11 Torsion [N]-CA--CB-[OG] |==|  0.75601
USER: genes 12 Torsion [CA]-CB--OG-[HG] |==|  0.06044
USER: genes 13 Torsion [N]-CA--CB-[OG] |==|  0.77424
USER: genes 14 Torsion [CA]-CB--OG-[HG] |==|  0.11590
ROOT
ATOM      1  C   HIS B 399      38.210 -11.581 -11.208  1.00 17.93 LIG 0.24  C 
ATOM      2 O    HIS B 399      39.284 -12.059 -10.839  1.00 15.41 LIG-0.27  OA
ATOM      3  N   SER B 400      37.653 -11.860 -12.381  1.00 17.64 LIG-0.34  N 
ATOM      4 H    SER B 400      36.900 -11.535 -12.640  1.00 17.64 LIG 0.16  HD
ENDROOT
BRANCH 1 5
ATOM      5  CA  HIS B 399      37.438 -10.619 -10.313  1.00 18.55 LIG 0.18  C 
BRANCH 5 6
ATOM      6  N   HIS B 399      36.914 -11.325  -9.153  1.00 19.43 LIG-0.34  N 
ATOM      7 H    HIS B 399      37.387 -11.240  -8.441  1.00 19.43 LIG 0.16  HD
ATOM      8  C   ALA B 398      35.792 -12.037  -9.219  1.00 22.32 LIG 0.26  C 
ATOM      9 O    ALA B 398      35.135 -12.157 -10.255  1.00 22.30 LIG-0.27  OA
BRANCH 8 10
ATOM     10  CA  ALA B 398      35.352 -12.718  -7.926  1.00 21.39 LIG 0.40  C 
ATOM     11  N   ALA B 398      33.952 -13.227  -8.028  1.00 23.95 LIG 0.61  N 
ATOM     12  CB  ALA B 398      36.296 -13.863  -7.588  1.00 21.38 LIG 0.06  C 
ENDBRANCH 8 10
ENDBRANCH 5 6
BRANCH 5 13
ATOM     13  CB  HIS B 399      38.361  -9.489  -9.852  1.00 22.49 LIG 0.10  C 
BRANCH 13 14
ATOM     14  CG  HIS B 399      39.030  -8.766 -10.978  1.00 24.90 LIG 0.06  A 
ATOM     15  CD2 HIS B 399      40.013  -9.151 -11.825  1.00 26.88 LIG 0.14  A 
ATOM     16 NE2  HIS B 399      40.205  -8.124 -12.717  1.00 28.66 LIG-0.25  NA
ATOM     17  CE1 HIS B 399      39.371  -7.142 -12.427  1.00 27.08 LIG 0.23  A 
ATOM     18 ND1  HIS B 399      38.650  -7.503 -11.380  1.00 26.64 LIG-0.24  NA
ENDBRANCH 13 14
ENDBRANCH 5 13
ENDBRANCH 1 5
BRANCH 3 19
ATOM     19  CA  SER B 400      38.278 -12.754 -13.351  1.00 19.59 LIG 0.20  C 
BRANCH 19 20
ATOM     20  C   SER B 400      38.310 -14.175 -12.799  1.00 19.52 LIG 0.24  C 
ATOM     21  N   SER B 401      37.525 -14.428 -11.755  1.00 18.79 LIG-0.34  N 
ATOM     22 H    SER B 401      37.014 -13.845 -11.384  1.00 18.79 LIG 0.16  HD
ATOM     23 O    SER B 400      39.030 -15.029 -13.318  1.00 19.53 LIG-0.27  OA
BRANCH 21 24
ATOM     24  CA  SER B 401      37.474 -15.753 -11.143  1.00 20.07 LIG 0.19  C 
BRANCH 24 25
ATOM     25  C   SER B 401      36.346 -15.821 -10.124  1.00 22.19 LIG 0.22  C 
ATOM     26 O    SER B 401      35.339 -16.503 -10.411  1.00 22.82 LIG-0.29  OA
ENDBRANCH 24 25
BRANCH 24 27
ATOM     27  CB  SER B 401      38.805 -16.093 -10.462  1.00 19.03 LIG 0.20  C 
BRANCH 27 28
ATOM     28 OG   SER B 401      39.714 -16.699 -11.366  1.00 19.07 LIG-0.40  OA
ATOM     29 HG   SER B 401      39.498 -16.503 -12.154  1.00 19.07 LIG 0.21  HD
ENDBRANCH 27 28
ENDBRANCH 24 27
ENDBRANCH 21 24
ENDBRANCH 19 20
BRANCH 19 30
ATOM     30  CB  SER B 400      39.708 -12.292 -13.645  1.00 20.99 LIG 0.20  C 
BRANCH 30 31
ATOM     31 OG   SER B 400      39.712 -11.237 -14.593  1.00 29.12 LIG-0.40  OA
ATOM     32 HG   SER B 400      39.090 -10.700 -14.418  1.00 29.12 LIG 0.21  HD
ENDBRANCH 30 31
ENDBRANCH 19 30
ENDBRANCH 3 19
TORSDOF 13
ENDMDL
MODEL 26
USER: ADFR SOLUTION from run 123
USER: SCORE 10.222909 LL:  -1.463 LR:  -9.269 RR:   0.000 FEB:  -5.392
USER: RMSD 6.979489
USER: SEED 122
USER: STATUS no improvement in best in 10 clusters for 5 generations
USER: GENES 15
USER: genes 0 Translation |==|  0.67024 0.56055 0.45371
USER: genes 1 Rotation |==|  0.51868 0.96941 0.67014 0.51891
USER: genes 2 Torsion [N]-C--CA-[N] |==|  0.17586
USER: genes 3 Torsion [C]-CA--N-[C] |==|  0.15554
USER: genes 4 Torsion [N]-C--CA-[N] |==|  0.91138
USER: genes 5 Torsion [C]-CA--CB-[CG] |==|  0.30350
USER: genes 6 Torsion [CA]-CB--CG-[CD2] |==|  0.99244
USER: genes 7 Torsion [C]-N--CA-[C] |==|  0.86108
USER: genes 8 Torsion [N]-CA--C-[N] |==|  0.88588
USER: genes 9 Torsion [C]-N--CA-[C] |==|  0.63029
USER: genes 10 Torsion [N]-CA--C-[O] |==|  0.96271
USER: genes 11 Torsion [N]-CA--CB-[OG] |==|  0.52927
USER: genes 12 Torsion [CA]-CB--OG-[HG] |==|  0.69660
USER: genes 13 Torsion [N]-CA--CB-[OG] |==|  0.41047
USER: genes 14 Torsion [CA]-CB--OG-[HG] |==|  0.71411
ROOT
ATOM      1  C   HIS B 399      38.714 -12.174 -11.463  1.00 17.93 LIG 0.24  C 
ATOM      2 O    HIS B 399      39.371 -12.812 -10.639  1.00 15.41 LIG-0.27  OA
ATOM      3  N   SER B 400      37.494 -11.709 -11.220  1.00 17.64 LIG-0.34  N 
ATOM      4 H    SER B 400      37.035 -11.257 -11.789  1.00 17.64 LIG 0.16  HD
ENDROOT
BRANCH 1 5
ATOM      5  CA  HIS B 399      39.281 -11.874 -12.846  1.00 18.55 LIG 0.18  C 
BRANCH 5 6
ATOM      6  N   HIS B 399      39.432 -10.437 -13.023  1.00 19.43 LIG-0.34  N 
ATOM      7 H    HIS B 399      39.023 -10.119 -13.709  1.00 19.43 LIG 0.16  HD
ATOM      8  C   ALA B 398      40.148  -9.701 -12.178  1.00 22.32 LIG 0.26  C 
ATOM      9 O    ALA B 398      40.737 -10.180 -11.207  1.00 22.30 LIG-0.27  OA
BRANCH 8 10
ATOM     10  CA  ALA B 398      40.214  -8.206 -12.478  1.00 21.39 LIG 0.40  C 
ATOM     11  N   ALA B 398      40.152  -7.942 -13.946  1.00 23.95 LIG 0.61  N 
ATOM     12  CB  ALA B 398      39.077  -7.480 -11.772  1.00 21.38 LIG 0.06  C 
ENDBRANCH 8 10
ENDBRANCH 5 6
BRANCH 5 13
ATOM     13  CB  HIS B 399      40.641 -12.557 -13.006  1.00 22.49 LIG 0.10  C 
BRANCH 13 14
ATOM     14  CG  HIS B 399      40.622 -13.712 -13.956  1.00 24.90 LIG 0.06  A 
ATOM     15  CD2 HIS B 399      39.606 -14.276 -14.652  1.00 26.88 LIG 0.14  A 
ATOM     16 NE2  HIS B 399      40.151 -15.268 -15.431  1.00 28.66 LIG-0.25  NA
ATOM     17  CE1 HIS B 399      41.454 -15.313 -15.220  1.00 27.08 LIG 0.23  A 
ATOM     18 ND1  HIS B 399      41.765 -14.385 -14.332  1.00 26.64 LIG-0.24  NA
ENDBRANCH 13 14
ENDBRANCH 5 13
ENDBRANCH 1 5
BRANCH 3 19
ATOM     19  CA  SER B 400      36.814 -11.927  -9.947  1.00 19.59 LIG 0.20  C 
BRANCH 19 20
ATOM     20  C   SER B 400      36.870 -13.404  -9.575  1.00 19.52 LIG 0.24  C 
ATOM     21  N   SER B 401      36.675 -14.276 -10.562  1.00 18.79 LIG-0.34  N 
ATOM     22 H    SER B 401      36.523 -14.053 -11.379  1.00 18.79 LIG 0.16  HD
ATOM     23 O    SER B 400      37.092 -13.747  -8.414  1.00 19.53 LIG-0.27  OA
BRANCH 21 24
ATOM     24  CA  SER B 401      36.706 -15.716 -10.323  1.00 20.07 LIG 0.19  C 
BRANCH 24 25
ATOM     25  C   SER B 401      37.562 -16.408 -11.375  1.00 22.19 LIG 0.22  C 
ATOM     26 O    SER B 401      37.883 -15.753 -12.390  1.00 22.82 LIG-0.29  OA
ENDBRANCH 24 25
BRANCH 24 27
ATOM     27  CB  SER B 401      35.290 -16.304 -10.344  1.00 19.03 LIG 0.20  C 
BRANCH 27 28
ATOM     28 OG   SER B 401      35.275 -17.644  -9.880  1.00 19.07 LIG-0.40  OA
ATOM     29 HG   SER B 401      35.125 -18.162 -10.524  1.00 19.07 LIG 0.21  HD
ENDBRANCH 27 28
ENDBRANCH 24 27
ENDBRANCH 21 24
ENDBRANCH 19 20
BRANCH 19 30
ATOM     30  CB  SER B 400      35.352 -11.485 -10.050  1.00 20.99 LIG 0.20  C 
BRANCH 30 31
ATOM     31 OG   SER B 400      34.523 -12.286  -9.223  1.00 29.12 LIG-0.40  OA
ATOM     32 HG   SER B 400      34.110 -12.844  -9.697  1.00 29.12 LIG 0.21  HD
ENDBRANCH 30 31
ENDBRANCH 19 30
ENDBRANCH 3 19
TORSDOF 13
ENDMDL
MODEL 27
USER: ADFR SOLUTION from run 147
USER: SCORE 10.845238 LL:  -1.950 LR:  -9.249 RR:   0.000 FEB:  -5.371
USER: RMSD 6.463860
USER: SEED 146
USER: STATUS no improvement in best in 27 clusters for 5 generations
USER: GENES 15
USER: genes 0 Translation |==|  0.41644 0.40776 0.66986
USER: genes 1 Rotation |==|  0.10272 0.67478 0.72847 0.59706
USER: genes 2 Torsion [N]-C--CA-[N] |==|  0.88439
USER: genes 3 Torsion [C]-CA--N-[C] |==|  0.81133
USER: genes 4 Torsion [N]-C--CA-[N] |==|  0.33237
USER: genes 5 Torsion [C]-CA--CB-[CG] |==|  0.26997
USER: genes 6 Torsion [CA]-CB--CG-[CD2] |==|  0.94872
USER: genes 7 Torsion [C]-N--CA-[C] |==|  0.67091
USER: genes 8 Torsion [N]-CA--C-[N] |==|  0.29643
USER: genes 9 Torsion [C]-N--CA-[C] |==|  0.14625
USER: genes 10 Torsion [N]-CA--C-[O] |==|  0.61022
USER: genes 11 Torsion [N]-CA--CB-[OG] |==|  0.94588
USER: genes 12 Torsion [CA]-CB--OG-[HG] |==|  0.20266
USER: genes 13 Torsion [N]-CA--CB-[OG] |==|  0.38340
USER: genes 14 Torsion [CA]-CB--OG-[HG] |==|  0.81055
ROOT
ATOM      1  C   HIS B 399      34.146 -14.581  -7.572  1.00 17.93 LIG 0.24  C 
ATOM      2 O    HIS B 399      34.415 -14.955  -6.430  1.00 15.41 LIG-0.27  OA
ATOM      3  N   SER B 400      34.236 -15.369  -8.638  1.00 17.64 LIG-0.34  N 
ATOM      4 H    SER B 400      34.043 -15.114  -9.436  1.00 17.64 LIG 0.16  HD
ENDROOT
BRANCH 1 5
ATOM      5  CA  HIS B 399      33.680 -13.154  -7.834  1.00 18.55 LIG 0.18  C 
BRANCH 5 6
ATOM      6  N   HIS B 399      34.313 -12.632  -9.036  1.00 19.43 LIG-0.34  N 
ATOM      7 H    HIS B 399      33.775 -12.503  -9.694  1.00 19.43 LIG 0.16  HD
ATOM      8  C   ALA B 398      35.619 -12.386  -9.085  1.00 22.32 LIG 0.26  C 
ATOM      9 O    ALA B 398      36.375 -12.591  -8.134  1.00 22.30 LIG-0.27  OA
BRANCH 8 10
ATOM     10  CA  ALA B 398      36.149 -11.831 -10.405  1.00 21.39 LIG 0.40  C 
ATOM     11  N   ALA B 398      36.775 -10.489 -10.219  1.00 23.95 LIG 0.61  N 
ATOM     12  CB  ALA B 398      37.160 -12.795 -11.010  1.00 21.38 LIG 0.06  C 
ENDBRANCH 8 10
ENDBRANCH 5 6
BRANCH 5 13
ATOM     13  CB  HIS B 399      32.159 -13.130  -8.002  1.00 22.49 LIG 0.10  C 
BRANCH 13 14
ATOM     14  CG  HIS B 399      31.425 -12.753  -6.754  1.00 24.90 LIG 0.06  A 
ATOM     15  CD2 HIS B 399      31.815 -12.750  -5.458  1.00 26.88 LIG 0.14  A 
ATOM     16 NE2  HIS B 399      30.770 -12.248  -4.722  1.00 28.66 LIG-0.25  NA
ATOM     17  CE1 HIS B 399      29.772 -11.955  -5.536  1.00 27.08 LIG 0.23  A 
ATOM     18 ND1  HIS B 399      30.141 -12.252  -6.770  1.00 26.64 LIG-0.24  NA
ENDBRANCH 13 14
ENDBRANCH 5 13
ENDBRANCH 1 5
BRANCH 3 19
ATOM     19  CA  SER B 400      34.680 -16.757  -8.548  1.00 19.59 LIG 0.20  C 
BRANCH 19 20
ATOM     20  C   SER B 400      35.953 -16.948  -9.364  1.00 19.52 LIG 0.24  C 
ATOM     21  N   SER B 401      37.085 -17.094  -8.679  1.00 18.79 LIG-0.34  N 
ATOM     22 H    SER B 401      37.133 -17.086  -7.821  1.00 18.79 LIG 0.16  HD
ATOM     23 O    SER B 400      35.908 -16.969 -10.594  1.00 19.53 LIG-0.27  OA
BRANCH 21 24
ATOM     24  CA  SER B 401      38.366 -17.283  -9.355  1.00 20.07 LIG 0.19  C 
BRANCH 24 25
ATOM     25  C   SER B 401      38.585 -16.185 -10.386  1.00 22.19 LIG 0.22  C 
ATOM     26 O    SER B 401      39.102 -16.503 -11.478  1.00 22.82 LIG-0.29  OA
ENDBRANCH 24 25
BRANCH 24 27
ATOM     27  CB  SER B 401      38.425 -18.653 -10.042  1.00 19.03 LIG 0.20  C 
BRANCH 27 28
ATOM     28 OG   SER B 401      37.464 -19.547  -9.505  1.00 19.07 LIG-0.40  OA
ATOM     29 HG   SER B 401      36.697 -19.323  -9.765  1.00 19.07 LIG 0.21  HD
ENDBRANCH 27 28
ENDBRANCH 24 27
ENDBRANCH 21 24
ENDBRANCH 19 20
BRANCH 19 30
ATOM     30  CB  SER B 400      33.591 -17.691  -9.081  1.00 20.99 LIG 0.20  C 
BRANCH 30 31
ATOM     31 OG   SER B 400      34.154 -18.719  -9.880  1.00 29.12 LIG-0.40  OA
ATOM     32 HG   SER B 400      34.461 -18.388 -10.588  1.00 29.12 LIG 0.21  HD
ENDBRANCH 30 31
ENDBRANCH 19 30
ENDBRANCH 3 19
TORSDOF 13
ENDMDL
MODEL 28
USER: ADFR SOLUTION from run 140
USER: SCORE 10.844974 LL:  -1.880 LR:  -9.247 RR:   0.000 FEB:  -5.369
USER: RMSD 1.728476
USER: SEED 139
USER: STATUS no improvement in best in 21 clusters for 5 generations
USER: GENES 15
USER: genes 0 Translation |==|  0.50710 0.49759 0.54822
USER: genes 1 Rotation |==|  0.66455 0.60385 0.42288 0.95408
USER: genes 2 Torsion [N]-C--CA-[N] |==|  0.45722
USER: genes 3 Torsion [C]-CA--N-[C] |==|  0.77760
USER: genes 4 Torsion [N]-C--CA-[N] |==|  0.50520
USER: genes 5 Torsion [C]-CA--CB-[CG] |==|  0.20317
USER: genes 6 Torsion [CA]-CB--CG-[CD2] |==|  0.66435
USER: genes 7 Torsion [C]-N--CA-[C] |==|  0.62502
USER: genes 8 Torsion [N]-CA--C-[N] |==|  0.33889
USER: genes 9 Torsion [C]-N--CA-[C] |==|  0.14961
USER: genes 10 Torsion [N]-CA--C-[O] |==|  0.08556
USER: genes 11 Torsion [N]-CA--CB-[OG] |==|  0.73672
USER: genes 12 Torsion [CA]-CB--OG-[HG] |==|  0.14880
USER: genes 13 Torsion [N]-CA--CB-[OG] |==|  0.68239
USER: genes 14 Torsion [CA]-CB--OG-[HG] |==|  0.02114
ROOT
ATOM      1  C   HIS B 399      35.778 -13.166  -9.762  1.00 17.93 LIG 0.24  C 
ATOM      2 O    HIS B 399      34.887 -12.363 -10.043  1.00 15.41 LIG-0.27  OA
ATOM      3  N   SER B 400      37.047 -13.003 -10.120  1.00 17.64 LIG-0.34  N 
ATOM      4 H    SER B 400      37.673 -13.557  -9.920  1.00 17.64 LIG 0.16  HD
ENDROOT
BRANCH 1 5
ATOM      5  CA  HIS B 399      35.465 -14.426  -8.964  1.00 18.55 LIG 0.18  C 
BRANCH 5 6
ATOM      6  N   HIS B 399      34.158 -14.309  -8.335  1.00 19.43 LIG-0.34  N 
ATOM      7 H    HIS B 399      33.525 -14.716  -8.751  1.00 19.43 LIG 0.16  HD
ATOM      8  C   ALA B 398      33.985 -13.621  -7.210  1.00 22.32 LIG 0.26  C 
ATOM      9 O    ALA B 398      34.905 -13.034  -6.637  1.00 22.30 LIG-0.27  OA
BRANCH 8 10
ATOM     10  CA  ALA B 398      32.564 -13.589  -6.654  1.00 21.39 LIG 0.40  C 
ATOM     11  N   ALA B 398      32.482 -12.754  -5.418  1.00 23.95 LIG 0.61  N 
ATOM     12  CB  ALA B 398      31.602 -13.054  -7.705  1.00 21.38 LIG 0.06  C 
ENDBRANCH 8 10
ENDBRANCH 5 6
BRANCH 5 13
ATOM     13  CB  HIS B 399      35.481 -15.642  -9.893  1.00 22.49 LIG 0.10  C 
BRANCH 13 14
ATOM     14  CG  HIS B 399      36.855 -16.047 -10.324  1.00 24.90 LIG 0.06  A 
ATOM     15  CD2 HIS B 399      37.408 -16.151 -11.555  1.00 26.88 LIG 0.14  A 
ATOM     16 NE2  HIS B 399      38.724 -16.499 -11.380  1.00 28.66 LIG-0.25  NA
ATOM     17  CE1 HIS B 399      38.972 -16.609 -10.087  1.00 27.08 LIG 0.23  A 
ATOM     18 ND1  HIS B 399      37.859 -16.343  -9.426  1.00 26.64 LIG-0.24  NA
ENDBRANCH 13 14
ENDBRANCH 5 13
ENDBRANCH 1 5
BRANCH 3 19
ATOM     19  CA  SER B 400      37.497 -11.852 -10.897  1.00 19.59 LIG 0.20  C 
BRANCH 19 20
ATOM     20  C   SER B 400      38.428 -12.312 -12.013  1.00 19.52 LIG 0.24  C 
ATOM     21  N   SER B 401      38.069 -12.001 -13.256  1.00 18.79 LIG-0.34  N 
ATOM     22 H    SER B 401      37.356 -11.565 -13.457  1.00 18.79 LIG 0.16  HD
ATOM     23 O    SER B 400      39.458 -12.933 -11.749  1.00 19.53 LIG-0.27  OA
BRANCH 21 24
ATOM     24  CA  SER B 401      38.884 -12.391 -14.404  1.00 20.07 LIG 0.19  C 
BRANCH 24 25
ATOM     25  C   SER B 401      39.147 -13.889 -14.380  1.00 22.19 LIG 0.22  C 
ATOM     26 O    SER B 401      38.275 -14.628 -13.874  1.00 22.82 LIG-0.29  OA
ENDBRANCH 24 25
BRANCH 24 27
ATOM     27  CB  SER B 401      40.217 -11.634 -14.411  1.00 19.03 LIG 0.20  C 
BRANCH 27 28
ATOM     28 OG   SER B 401      40.153 -10.471 -15.219  1.00 19.07 LIG-0.40  OA
ATOM     29 HG   SER B 401      39.501  -9.998 -14.978  1.00 19.07 LIG 0.21  HD
ENDBRANCH 27 28
ENDBRANCH 24 27
ENDBRANCH 21 24
ENDBRANCH 19 20
BRANCH 19 30
ATOM     30  CB  SER B 400      38.239 -10.865  -9.992  1.00 20.99 LIG 0.20  C 
BRANCH 30 31
ATOM     31 OG   SER B 400      37.525  -9.643  -9.885  1.00 29.12 LIG-0.40  OA
ATOM     32 HG   SER B 400      36.776  -9.723 -10.255  1.00 29.12 LIG 0.21  HD
ENDBRANCH 30 31
ENDBRANCH 19 30
ENDBRANCH 3 19
TORSDOF 13
ENDMDL
MODEL 29
USER: ADFR SOLUTION from run 23
USER: SCORE 11.108593 LL:  -1.969 LR:  -9.230 RR:   0.000 FEB:  -5.352
USER: RMSD 7.317005
USER: SEED 22
USER: STATUS no improvement in best in 7 clusters for 5 generations
USER: GENES 15
USER: genes 0 Translation |==|  0.71451 0.60043 0.40976
USER: genes 1 Rotation |==|  0.29031 0.05045 0.45697 0.54559
USER: genes 2 Torsion [N]-C--CA-[N] |==|  0.13584
USER: genes 3 Torsion [C]-CA--N-[C] |==|  0.15556
USER: genes 4 Torsion [N]-C--CA-[N] |==|  0.21637
USER: genes 5 Torsion [C]-CA--CB-[CG] |==|  0.17559
USER: genes 6 Torsion [CA]-CB--CG-[CD2] |==|  0.64870
USER: genes 7 Torsion [C]-N--CA-[C] |==|  0.80345
USER: genes 8 Torsion [N]-CA--C-[N] |==|  0.95918
USER: genes 9 Torsion [C]-N--CA-[C] |==|  0.79146
USER: genes 10 Torsion [N]-CA--C-[O] |==|  0.89669
USER: genes 11 Torsion [N]-CA--CB-[OG] |==|  0.60606
USER: genes 12 Torsion [CA]-CB--OG-[HG] |==|  0.61870
USER: genes 13 Torsion [N]-CA--CB-[OG] |==|  0.98103
USER: genes 14 Torsion [CA]-CB--OG-[HG] |==|  0.25080
ROOT
ATOM      1  C   HIS B 399      39.511 -11.546 -12.254  1.00 17.93 LIG 0.24  C 
ATOM      2 O    HIS B 399      40.129 -12.282 -11.484  1.00 15.41 LIG-0.27  OA
ATOM      3  N   SER B 400      39.077 -10.337 -11.916  1.00 17.64 LIG-0.34  N 
ATOM      4 H    SER B 400      38.651  -9.817 -12.453  1.00 17.64 LIG 0.16  HD
ENDROOT
BRANCH 1 5
ATOM      5  CA  HIS B 399      39.203 -11.994 -13.678  1.00 18.55 LIG 0.18  C 
BRANCH 5 6
ATOM      6  N   HIS B 399      39.575 -10.950 -14.622  1.00 19.43 LIG-0.34  N 
ATOM      7 H    HIS B 399      38.937 -10.691 -15.136  1.00 19.43 LIG 0.16  HD
ATOM      8  C   ALA B 398      40.809 -10.456 -14.664  1.00 22.32 LIG 0.26  C 
ATOM      9 O    ALA B 398      41.714 -10.851 -13.926  1.00 22.30 LIG-0.27  OA
BRANCH 8 10
ATOM     10  CA  ALA B 398      41.059  -9.359 -15.695  1.00 21.39 LIG 0.40  C 
ATOM     11  N   ALA B 398      40.525  -8.044 -15.231  1.00 23.95 LIG 0.61  N 
ATOM     12  CB  ALA B 398      42.549  -9.240 -15.984  1.00 21.38 LIG 0.06  C 
ENDBRANCH 8 10
ENDBRANCH 5 6
BRANCH 5 13
ATOM     13  CB  HIS B 399      39.977 -13.274 -13.996  1.00 22.49 LIG 0.10  C 
BRANCH 13 14
ATOM     14  CG  HIS B 399      39.587 -14.437 -13.140  1.00 24.90 LIG 0.06  A 
ATOM     15  CD2 HIS B 399      40.331 -15.267 -12.371  1.00 26.88 LIG 0.14  A 
ATOM     16 NE2  HIS B 399      39.462 -16.123 -11.741  1.00 28.66 LIG-0.25  NA
ATOM     17  CE1 HIS B 399      38.227 -15.832 -12.110  1.00 27.08 LIG 0.23  A 
ATOM     18 ND1  HIS B 399      38.275 -14.818 -12.957  1.00 26.64 LIG-0.24  NA
ENDBRANCH 13 14
ENDBRANCH 5 13
ENDBRANCH 1 5
BRANCH 3 19
ATOM     19  CA  SER B 400      39.285  -9.776 -10.585  1.00 19.59 LIG 0.20  C 
BRANCH 19 20
ATOM     20  C   SER B 400      38.412 -10.507  -9.572  1.00 19.52 LIG 0.24  C 
ATOM     21  N   SER B 401      37.434 -11.264 -10.063  1.00 18.79 LIG-0.34  N 
ATOM     22 H    SER B 401      37.274 -11.360 -10.902  1.00 18.79 LIG 0.16  HD
ATOM     23 O    SER B 400      38.626 -10.389  -8.365  1.00 19.53 LIG-0.27  OA
BRANCH 21 24
ATOM     24  CA  SER B 401      36.534 -12.010  -9.186  1.00 20.07 LIG 0.19  C 
BRANCH 24 25
ATOM     25  C   SER B 401      37.244 -13.228  -8.615  1.00 22.19 LIG 0.22  C 
ATOM     26 O    SER B 401      38.041 -13.843  -9.357  1.00 22.82 LIG-0.29  OA
ENDBRANCH 24 25
BRANCH 24 27
ATOM     27  CB  SER B 401      35.277 -12.454  -9.943  1.00 19.03 LIG 0.20  C 
BRANCH 27 28
ATOM     28 OG   SER B 401      34.119 -12.361  -9.130  1.00 19.07 LIG-0.40  OA
ATOM     29 HG   SER B 401      33.643 -13.044  -9.242  1.00 19.07 LIG 0.21  HD
ENDBRANCH 27 28
ENDBRANCH 24 27
ENDBRANCH 21 24
ENDBRANCH 19 20
BRANCH 19 30
ATOM     30  CB  SER B 400      38.930  -8.287 -10.581  1.00 20.99 LIG 0.20  C 
BRANCH 30 31
ATOM     31 OG   SER B 400      38.650  -7.832 -11.895  1.00 29.12 LIG-0.40  OA
ATOM     32 HG   SER B 400      37.830  -7.921 -12.054  1.00 29.12 LIG 0.21  HD
ENDBRANCH 30 31
ENDBRANCH 19 30
ENDBRANCH 3 19
TORSDOF 13
ENDMDL
MODEL 30
USER: ADFR SOLUTION from run 164
USER: SCORE 10.314797 LL:  -1.446 LR:  -9.165 RR:   0.000 FEB:  -5.287
USER: RMSD 2.360543
USER: SEED 163
USER: STATUS searching
USER: GENES 15
USER: genes 0 Translation |==|  0.49435 0.56407 0.56424
USER: genes 1 Rotation |==|  0.44271 0.47806 0.53887 0.99470
USER: genes 2 Torsion [N]-C--CA-[N] |==|  0.47171
USER: genes 3 Torsion [C]-CA--N-[C] |==|  0.54013
USER: genes 4 Torsion [N]-C--CA-[N] |==|  0.50931
USER: genes 5 Torsion [C]-CA--CB-[CG] |==|  0.24378
USER: genes 6 Torsion [CA]-CB--CG-[CD2] |==|  0.74693
USER: genes 7 Torsion [C]-N--CA-[C] |==|  0.82222
USER: genes 8 Torsion [N]-CA--C-[N] |==|  0.45556
USER: genes 9 Torsion [C]-N--CA-[C] |==|  0.87858
USER: genes 10 Torsion [N]-CA--C-[O] |==|  0.33225
USER: genes 11 Torsion [N]-CA--CB-[OG] |==|  0.84726
USER: genes 12 Torsion [CA]-CB--OG-[HG] |==|  0.26501
USER: genes 13 Torsion [N]-CA--CB-[OG] |==|  0.76662
USER: genes 14 Torsion [CA]-CB--OG-[HG] |==|  0.89597
ROOT
ATOM      1  C   HIS B 399      35.548 -12.119  -9.474  1.00 17.93 LIG 0.24  C 
ATOM      2 O    HIS B 399      34.900 -12.389 -10.486  1.00 15.41 LIG-0.27  OA
ATOM      3  N   SER B 400      36.710 -11.476  -9.502  1.00 17.64 LIG-0.34  N 
ATOM      4 H    SER B 400      37.163 -11.279  -8.798  1.00 17.64 LIG 0.16  HD
ENDROOT
BRANCH 1 5
ATOM      5  CA  HIS B 399      35.038 -12.517  -8.094  1.00 18.55 LIG 0.18  C 
BRANCH 5 6
ATOM      6  N   HIS B 399      33.665 -12.990  -8.185  1.00 19.43 LIG-0.34  N 
ATOM      7 H    HIS B 399      33.402 -13.167  -8.985  1.00 19.43 LIG 0.16  HD
ATOM      8  C   ALA B 398      32.901 -13.128  -7.105  1.00 22.32 LIG 0.26  C 
ATOM      9 O    ALA B 398      33.294 -12.857  -5.969  1.00 22.30 LIG-0.27  OA
BRANCH 8 10
ATOM     10  CA  ALA B 398      31.485 -13.643  -7.345  1.00 21.39 LIG 0.40  C 
ATOM     11  N   ALA B 398      30.697 -13.681  -6.077  1.00 23.95 LIG 0.61  N 
ATOM     12  CB  ALA B 398      30.775 -12.768  -8.369  1.00 21.38 LIG 0.06  C 
ENDBRANCH 8 10
ENDBRANCH 5 6
BRANCH 5 13
ATOM     13  CB  HIS B 399      35.924 -13.622  -7.515  1.00 22.49 LIG 0.10  C 
BRANCH 13 14
ATOM     14  CG  HIS B 399      37.108 -13.105  -6.761  1.00 24.90 LIG 0.06  A 
ATOM     15  CD2 HIS B 399      38.369 -12.824  -7.166  1.00 26.88 LIG 0.14  A 
ATOM     16 NE2  HIS B 399      39.038 -12.311  -6.082  1.00 28.66 LIG-0.25  NA
ATOM     17  CE1 HIS B 399      38.218 -12.280  -5.046  1.00 27.08 LIG 0.23  A 
ATOM     18 ND1  HIS B 399      37.046 -12.756  -5.428  1.00 26.64 LIG-0.24  NA
ENDBRANCH 13 14
ENDBRANCH 5 13
ENDBRANCH 1 5
BRANCH 3 19
ATOM     19  CA  SER B 400      37.332 -11.041 -10.749  1.00 19.59 LIG 0.20  C 
BRANCH 19 20
ATOM     20  C   SER B 400      37.693 -12.254 -11.599  1.00 19.52 LIG 0.24  C 
ATOM     21  N   SER B 401      37.959 -12.026 -12.883  1.00 18.79 LIG-0.34  N 
ATOM     22 H    SER B 401      37.938 -11.247 -13.248  1.00 18.79 LIG 0.16  HD
ATOM     23 O    SER B 400      37.734 -13.377 -11.096  1.00 19.53 LIG-0.27  OA
BRANCH 21 24
ATOM     24  CA  SER B 401      38.315 -13.112 -13.792  1.00 20.07 LIG 0.19  C 
BRANCH 24 25
ATOM     25  C   SER B 401      39.309 -14.053 -13.126  1.00 22.19 LIG 0.22  C 
ATOM     26 O    SER B 401      38.974 -15.247 -12.978  1.00 22.82 LIG-0.29  OA
ENDBRANCH 24 25
BRANCH 24 27
ATOM     27  CB  SER B 401      38.917 -12.563 -15.091  1.00 19.03 LIG 0.20  C 
BRANCH 27 28
ATOM     28 OG   SER B 401      38.052 -11.627 -15.712  1.00 19.07 LIG-0.40  OA
ATOM     29 HG   SER B 401      38.271 -10.849 -15.485  1.00 19.07 LIG 0.21  HD
ENDBRANCH 27 28
ENDBRANCH 24 27
ENDBRANCH 21 24
ENDBRANCH 19 20
BRANCH 19 30
ATOM     30  CB  SER B 400      38.599 -10.236 -10.451  1.00 20.99 LIG 0.20  C 
BRANCH 30 31
ATOM     31 OG   SER B 400      38.284  -8.878 -10.186  1.00 29.12 LIG-0.40  OA
ATOM     32 HG   SER B 400      37.657  -8.632 -10.688  1.00 29.12 LIG 0.21  HD
ENDBRANCH 30 31
ENDBRANCH 19 30
ENDBRANCH 3 19
TORSDOF 13
ENDMDL
MODEL 31
USER: ADFR SOLUTION from run 157
USER: SCORE 10.247571 LL:  -1.782 LR:  -9.075 RR:   0.000 FEB:  -5.197
USER: RMSD 8.993091
USER: SEED 156
USER: STATUS no improvement in best in 10 clusters for 5 generations
USER: GENES 15
USER: genes 0 Translation |==|  0.83004 0.74715 0.28975
USER: genes 1 Rotation |==|  0.51647 0.02995 0.56798 0.65544
USER: genes 2 Torsion [N]-C--CA-[N] |==|  0.94290
USER: genes 3 Torsion [C]-CA--N-[C] |==|  0.77325
USER: genes 4 Torsion [N]-C--CA-[N] |==|  0.01059
USER: genes 5 Torsion [C]-CA--CB-[CG] |==|  0.96006
USER: genes 6 Torsion [CA]-CB--CG-[CD2] |==|  0.75857
USER: genes 7 Torsion [C]-N--CA-[C] |==|  0.58333
USER: genes 8 Torsion [N]-CA--C-[N] |==|  0.17644
USER: genes 9 Torsion [C]-N--CA-[C] |==|  0.70079
USER: genes 10 Torsion [N]-CA--C-[O] |==|  0.06181
USER: genes 11 Torsion [N]-CA--CB-[OG] |==|  0.96287
USER: genes 12 Torsion [CA]-CB--OG-[HG] |==|  0.79437
USER: genes 13 Torsion [N]-CA--CB-[OG] |==|  0.52139
USER: genes 14 Torsion [CA]-CB--OG-[HG] |==|  0.96482
ROOT
ATOM      1  C   HIS B 399      41.591  -9.235 -14.414  1.00 17.93 LIG 0.24  C 
ATOM      2 O    HIS B 399      42.746  -8.916 -14.128  1.00 15.41 LIG-0.27  OA
ATOM      3  N   SER B 400      40.525  -8.765 -13.776  1.00 17.64 LIG-0.34  N 
ATOM      4 H    SER B 400      39.717  -8.979 -13.977  1.00 17.64 LIG 0.16  HD
ENDROOT
BRANCH 1 5
ATOM      5  CA  HIS B 399      41.313 -10.213 -15.550  1.00 18.55 LIG 0.18  C 
BRANCH 5 6
ATOM      6  N   HIS B 399      39.988 -10.797 -15.394  1.00 19.43 LIG-0.34  N 
ATOM      7 H    HIS B 399      39.378 -10.426 -15.872  1.00 19.43 LIG 0.16  HD
ATOM      8  C   ALA B 398      39.769 -11.820 -14.573  1.00 22.32 LIG 0.26  C 
ATOM      9 O    ALA B 398      40.658 -12.329 -13.887  1.00 22.30 LIG-0.27  OA
BRANCH 8 10
ATOM     10  CA  ALA B 398      38.336 -12.340 -14.515  1.00 21.39 LIG 0.40  C 
ATOM     11  N   ALA B 398      37.458 -11.628 -15.491  1.00 23.95 LIG 0.61  N 
ATOM     12  CB  ALA B 398      38.309 -13.837 -14.791  1.00 21.38 LIG 0.06  C 
ENDBRANCH 8 10
ENDBRANCH 5 6
BRANCH 5 13
ATOM     13  CB  HIS B 399      41.398  -9.484 -16.892  1.00 22.49 LIG 0.10  C 
BRANCH 13 14
ATOM     14  CG  HIS B 399      41.384  -7.994 -16.765  1.00 24.90 LIG 0.06  A 
ATOM     15  CD2 HIS B 399      40.356  -7.115 -16.702  1.00 26.88 LIG 0.14  A 
ATOM     16 NE2  HIS B 399      40.900  -5.868 -16.519  1.00 28.66 LIG-0.25  NA
ATOM     17  CE1 HIS B 399      42.216  -5.975 -16.474  1.00 27.08 LIG 0.23  A 
ATOM     18 ND1  HIS B 399      42.535  -7.249 -16.622  1.00 26.64 LIG-0.24  NA
ENDBRANCH 13 14
ENDBRANCH 5 13
ENDBRANCH 1 5
BRANCH 3 19
ATOM     19  CA  SER B 400      40.632  -7.830 -12.660  1.00 19.59 LIG 0.20  C 
BRANCH 19 20
ATOM     20  C   SER B 400      39.465  -8.032 -11.701  1.00 19.52 LIG 0.24  C 
ATOM     21  N   SER B 401      39.390  -9.212 -11.091  1.00 18.79 LIG-0.34  N 
ATOM     22 H    SER B 401      39.953  -9.852 -11.208  1.00 18.79 LIG 0.16  HD
ATOM     23 O    SER B 400      38.650  -7.128 -11.512  1.00 19.53 LIG-0.27  OA
BRANCH 21 24
ATOM     24  CA  SER B 401      38.315  -9.518 -10.152  1.00 20.07 LIG 0.19  C 
BRANCH 24 25
ATOM     25  C   SER B 401      38.850  -9.544  -8.727  1.00 22.19 LIG 0.22  C 
ATOM     26 O    SER B 401      39.909  -8.925  -8.488  1.00 22.82 LIG-0.29  OA
ENDBRANCH 24 25
BRANCH 24 27
ATOM     27  CB  SER B 401      37.665 -10.867 -10.483  1.00 19.03 LIG 0.20  C 
BRANCH 27 28
ATOM     28 OG   SER B 401      38.049 -11.328 -11.768  1.00 19.07 LIG-0.40  OA
ATOM     29 HG   SER B 401      37.653 -10.880 -12.357  1.00 19.07 LIG 0.21  HD
ENDBRANCH 27 28
ENDBRANCH 24 27
ENDBRANCH 21 24
ENDBRANCH 19 20
BRANCH 19 30
ATOM     30  CB  SER B 400      40.620  -6.390 -13.178  1.00 20.99 LIG 0.20  C 
BRANCH 30 31
ATOM     31 OG   SER B 400      40.900  -5.474 -12.132  1.00 29.12 LIG-0.40  OA
ATOM     32 HG   SER B 400      40.850  -5.869 -11.393  1.00 29.12 LIG 0.21  HD
ENDBRANCH 30 31
ENDBRANCH 19 30
ENDBRANCH 3 19
TORSDOF 13
ENDMDL
MODEL 32
USER: ADFR SOLUTION from run 162
USER: SCORE 9.782280 LL:  -1.536 LR:  -9.074 RR:   0.000 FEB:  -5.196
USER: RMSD 7.803127
USER: SEED 161
USER: STATUS no improvement in best in 7 clusters for 5 generations
USER: GENES 15
USER: genes 0 Translation |==|  0.66536 0.70614 0.51474
USER: genes 1 Rotation |==|  0.31223 0.73666 0.89020 0.58049
USER: genes 2 Torsion [N]-C--CA-[N] |==|  0.49821
USER: genes 3 Torsion [C]-CA--N-[C] |==|  0.82221
USER: genes 4 Torsion [N]-C--CA-[N] |==|  0.41537
USER: genes 5 Torsion [C]-CA--CB-[CG] |==|  0.73687
USER: genes 6 Torsion [CA]-CB--CG-[CD2] |==|  0.16372
USER: genes 7 Torsion [C]-N--CA-[C] |==|  0.21030
USER: genes 8 Torsion [N]-CA--C-[N] |==|  0.04200
USER: genes 9 Torsion [C]-N--CA-[C] |==|  0.15334
USER: genes 10 Torsion [N]-CA--C-[O] |==|  0.67507
USER: genes 11 Torsion [N]-CA--CB-[OG] |==|  0.88247
USER: genes 12 Torsion [CA]-CB--OG-[HG] |==|  0.39096
USER: genes 13 Torsion [N]-CA--CB-[OG] |==|  0.76298
USER: genes 14 Torsion [CA]-CB--OG-[HG] |==|  0.08187
ROOT
ATOM      1  C   HIS B 399      38.626  -9.881 -10.365  1.00 17.93 LIG 0.24  C 
ATOM      2 O    HIS B 399      39.507 -10.674 -10.029  1.00 15.41 LIG-0.27  OA
ATOM      3  N   SER B 400      37.521 -10.247 -11.005  1.00 17.64 LIG-0.34  N 
ATOM      4 H    SER B 400      36.901  -9.698 -11.235  1.00 17.64 LIG 0.16  HD
ENDROOT
BRANCH 1 5
ATOM      5  CA  HIS B 399      38.759  -8.395 -10.055  1.00 18.55 LIG 0.18  C 
BRANCH 5 6
ATOM      6  N   HIS B 399      40.002  -8.141  -9.342  1.00 19.43 LIG-0.34  N 
ATOM      7 H    HIS B 399      40.561  -7.646  -9.768  1.00 19.43 LIG 0.16  HD
ATOM      8  C   ALA B 398      40.229  -8.646  -8.133  1.00 22.32 LIG 0.26  C 
ATOM      9 O    ALA B 398      39.418  -9.364  -7.545  1.00 22.30 LIG-0.27  OA
BRANCH 8 10
ATOM     10  CA  ALA B 398      41.570  -8.291  -7.497  1.00 21.39 LIG 0.40  C 
ATOM     11  N   ALA B 398      41.469  -8.236  -6.008  1.00 23.95 LIG 0.61  N 
ATOM     12  CB  ALA B 398      42.629  -9.305  -7.907  1.00 21.38 LIG 0.06  C 
ENDBRANCH 8 10
ENDBRANCH 5 6
BRANCH 5 13
ATOM     13  CB  HIS B 399      38.739  -7.592 -11.357  1.00 22.49 LIG 0.10  C 
BRANCH 13 14
ATOM     14  CG  HIS B 399      40.103  -7.286 -11.891  1.00 24.90 LIG 0.06  A 
ATOM     15  CD2 HIS B 399      41.118  -8.101 -12.260  1.00 26.88 LIG 0.14  A 
ATOM     16 NE2  HIS B 399      42.124  -7.302 -12.744  1.00 28.66 LIG-0.25  NA
ATOM     17  CE1 HIS B 399      41.742  -6.039 -12.672  1.00 27.08 LIG 0.23  A 
ATOM     18 ND1  HIS B 399      40.525  -6.001 -12.159  1.00 26.64 LIG-0.24  NA
ENDBRANCH 13 14
ENDBRANCH 5 13
ENDBRANCH 1 5
BRANCH 3 19
ATOM     19  CA  SER B 400      37.259 -11.633 -11.381  1.00 19.59 LIG 0.20  C 
BRANCH 19 20
ATOM     20  C   SER B 400      36.838 -12.433 -10.153  1.00 19.52 LIG 0.24  C 
ATOM     21  N   SER B 401      36.481 -11.733  -9.078  1.00 18.79 LIG-0.34  N 
ATOM     22 H    SER B 401      36.476 -10.874  -9.043  1.00 18.79 LIG 0.16  HD
ATOM     23 O    SER B 400      36.832 -13.664 -10.183  1.00 19.53 LIG-0.27  OA
BRANCH 21 24
ATOM     24  CA  SER B 401      36.061 -12.393  -7.845  1.00 20.07 LIG 0.19  C 
BRANCH 24 25
ATOM     25  C   SER B 401      37.132 -13.367  -7.376  1.00 22.19 LIG 0.22  C 
ATOM     26 O    SER B 401      36.839 -14.581  -7.329  1.00 22.82 LIG-0.29  OA
ENDBRANCH 24 25
BRANCH 24 27
ATOM     27  CB  SER B 401      34.738 -13.142  -8.049  1.00 19.03 LIG 0.20  C 
BRANCH 27 28
ATOM     28 OG   SER B 401      33.820 -12.378  -8.812  1.00 19.07 LIG-0.40  OA
ATOM     29 HG   SER B 401      33.406 -12.883  -9.341  1.00 19.07 LIG 0.21  HD
ENDBRANCH 27 28
ENDBRANCH 24 27
ENDBRANCH 21 24
ENDBRANCH 19 20
BRANCH 19 30
ATOM     30  CB  SER B 400      38.517 -12.259 -11.988  1.00 20.99 LIG 0.20  C 
BRANCH 30 31
ATOM     31 OG   SER B 400      38.604 -11.975 -13.375  1.00 29.12 LIG-0.40  OA
ATOM     32 HG   SER B 400      38.231 -11.240 -13.534  1.00 29.12 LIG 0.21  HD
ENDBRANCH 30 31
ENDBRANCH 19 30
ENDBRANCH 3 19
TORSDOF 13
ENDMDL
MODEL 33
USER: ADFR SOLUTION from run 67
USER: SCORE 9.900004 LL:  -1.628 LR:  -9.063 RR:   0.000 FEB:  -5.185
USER: RMSD 7.074986
USER: SEED 66
USER: STATUS no improvement in best in 14 clusters for 5 generations
USER: GENES 15
USER: genes 0 Translation |==|  0.60748 0.64014 0.51160
USER: genes 1 Rotation |==|  0.27401 0.34283 0.09188 0.58753
USER: genes 2 Torsion [N]-C--CA-[N] |==|  0.07642
USER: genes 3 Torsion [C]-CA--N-[C] |==|  0.17538
USER: genes 4 Torsion [N]-C--CA-[N] |==|  0.81236
USER: genes 5 Torsion [C]-CA--CB-[CG] |==|  0.47667
USER: genes 6 Torsion [CA]-CB--CG-[CD2] |==|  0.81972
USER: genes 7 Torsion [C]-N--CA-[C] |==|  0.17667
USER: genes 8 Torsion [N]-CA--C-[N] |==|  0.61111
USER: genes 9 Torsion [C]-N--CA-[C] |==|  0.70816
USER: genes 10 Torsion [N]-CA--C-[O] |==|  0.35258
USER: genes 11 Torsion [N]-CA--CB-[OG] |==|  0.14104
USER: genes 12 Torsion [CA]-CB--OG-[HG] |==|  0.41677
USER: genes 13 Torsion [N]-CA--CB-[OG] |==|  0.70737
USER: genes 14 Torsion [CA]-CB--OG-[HG] |==|  0.61333
ROOT
ATOM      1  C   HIS B 399      37.585 -10.921 -10.421  1.00 17.93 LIG 0.24  C 
ATOM      2 O    HIS B 399      37.412 -11.625 -11.417  1.00 15.41 LIG-0.27  OA
ATOM      3  N   SER B 400      37.180 -11.268  -9.204  1.00 17.64 LIG-0.34  N 
ATOM      4 H    SER B 400      37.304 -10.783  -8.505  1.00 17.64 LIG 0.16  HD
ENDROOT
BRANCH 1 5
ATOM      5  CA  HIS B 399      38.293  -9.576 -10.532  1.00 18.55 LIG 0.18  C 
BRANCH 5 6
ATOM      6  N   HIS B 399      38.944  -9.248  -9.272  1.00 19.43 LIG-0.34  N 
ATOM      7 H    HIS B 399      38.640  -8.542  -8.889  1.00 19.43 LIG 0.16  HD
ATOM      8  C   ALA B 398      39.926  -9.998  -8.779  1.00 22.32 LIG 0.26  C 
ATOM      9 O    ALA B 398      40.355 -11.001  -9.352  1.00 22.30 LIG-0.27  OA
BRANCH 8 10
ATOM     10  CA  ALA B 398      40.512  -9.544  -7.444  1.00 21.39 LIG 0.40  C 
ATOM     11  N   ALA B 398      41.247  -8.252  -7.583  1.00 23.95 LIG 0.61  N 
ATOM     12  CB  ALA B 398      39.406  -9.402  -6.408  1.00 21.38 LIG 0.06  C 
ENDBRANCH 8 10
ENDBRANCH 5 6
BRANCH 5 13
ATOM     13  CB  HIS B 399      39.336  -9.633 -11.650  1.00 22.49 LIG 0.10  C 
BRANCH 13 14
ATOM     14  CG  HIS B 399      39.945  -8.303 -11.968  1.00 24.90 LIG 0.06  A 
ATOM     15  CD2 HIS B 399      39.400  -7.174 -12.478  1.00 26.88 LIG 0.14  A 
ATOM     16 NE2  HIS B 399      40.391  -6.223 -12.505  1.00 28.66 LIG-0.25  NA
ATOM     17  CE1 HIS B 399      41.506  -6.750 -12.031  1.00 27.08 LIG 0.23  A 
ATOM     18 ND1  HIS B 399      41.264  -8.007 -11.701  1.00 26.64 LIG-0.24  NA
ENDBRANCH 13 14
ENDBRANCH 5 13
ENDBRANCH 1 5
BRANCH 3 19
ATOM     19  CA  SER B 400      36.476 -12.520  -8.942  1.00 19.59 LIG 0.20  C 
BRANCH 19 20
ATOM     20  C   SER B 400      37.385 -13.701  -9.262  1.00 19.52 LIG 0.24  C 
ATOM     21  N   SER B 401      36.818 -14.745  -9.863  1.00 18.79 LIG-0.34  N 
ATOM     22 H    SER B 401      35.986 -14.785 -10.075  1.00 18.79 LIG 0.16  HD
ATOM     23 O    SER B 400      38.581 -13.664  -8.972  1.00 19.53 LIG-0.27  OA
BRANCH 21 24
ATOM     24  CA  SER B 401      37.591 -15.933 -10.216  1.00 20.07 LIG 0.19  C 
BRANCH 24 25
ATOM     25  C   SER B 401      37.853 -15.966 -11.715  1.00 22.19 LIG 0.22  C 
ATOM     26 O    SER B 401      39.035 -16.097 -12.099  1.00 22.82 LIG-0.29  OA
ENDBRANCH 24 25
BRANCH 24 27
ATOM     27  CB  SER B 401      36.855 -17.209  -9.793  1.00 19.03 LIG 0.20  C 
BRANCH 27 28
ATOM     28 OG   SER B 401      35.515 -17.215 -10.255  1.00 19.07 LIG-0.40  OA
ATOM     29 HG   SER B 401      35.268 -18.007 -10.389  1.00 19.07 LIG 0.21  HD
ENDBRANCH 27 28
ENDBRANCH 24 27
ENDBRANCH 21 24
ENDBRANCH 19 20
BRANCH 19 30
ATOM     30  CB  SER B 400      35.214 -12.603  -9.804  1.00 20.99 LIG 0.20  C 
BRANCH 30 31
ATOM     31 OG   SER B 400      34.053 -12.373  -9.022  1.00 29.12 LIG-0.40  OA
ATOM     32 HG   SER B 400      33.447 -12.906  -9.256  1.00 29.12 LIG 0.21  HD
ENDBRANCH 30 31
ENDBRANCH 19 30
ENDBRANCH 3 19
TORSDOF 13
ENDMDL
MODEL 34
USER: ADFR SOLUTION from run 175
USER: SCORE 11.016411 LL:  -2.170 LR:  -9.047 RR:   0.000 FEB:  -5.169
USER: RMSD 2.169590
USER: SEED 174
USER: STATUS no improvement in best in 9 clusters for 5 generations
USER: GENES 15
USER: genes 0 Translation |==|  0.50153 0.56469 0.57759
USER: genes 1 Rotation |==|  0.50614 0.49077 0.51170 0.99974
USER: genes 2 Torsion [N]-C--CA-[N] |==|  0.47222
USER: genes 3 Torsion [C]-CA--N-[C] |==|  0.55931
USER: genes 4 Torsion [N]-C--CA-[N] |==|  0.54612
USER: genes 5 Torsion [C]-CA--CB-[CG] |==|  0.80618
USER: genes 6 Torsion [CA]-CB--CG-[CD2] |==|  0.74321
USER: genes 7 Torsion [C]-N--CA-[C] |==|  0.75820
USER: genes 8 Torsion [N]-CA--C-[N] |==|  0.95807
USER: genes 9 Torsion [C]-N--CA-[C] |==|  0.83027
USER: genes 10 Torsion [N]-CA--C-[O] |==|  0.65465
USER: genes 11 Torsion [N]-CA--CB-[OG] |==|  0.48712
USER: genes 12 Torsion [CA]-CB--OG-[HG] |==|  0.89586
USER: genes 13 Torsion [N]-CA--CB-[OG] |==|  0.76127
USER: genes 14 Torsion [CA]-CB--OG-[HG] |==|  0.84261
ROOT
ATOM      1  C   HIS B 399      35.678 -12.109  -9.233  1.00 17.93 LIG 0.24  C 
ATOM      2 O    HIS B 399      34.959 -12.049 -10.232  1.00 15.41 LIG-0.27  OA
ATOM      3  N   SER B 400      36.901 -11.594  -9.184  1.00 17.64 LIG-0.34  N 
ATOM      4 H    SER B 400      37.403 -11.627  -8.487  1.00 17.64 LIG 0.16  HD
ENDROOT
BRANCH 1 5
ATOM      5  CA  HIS B 399      35.189 -12.795  -7.963  1.00 18.55 LIG 0.18  C 
BRANCH 5 6
ATOM      6  N   HIS B 399      33.770 -13.100  -8.073  1.00 19.43 LIG-0.34  N 
ATOM      7 H    HIS B 399      33.475 -13.135  -8.880  1.00 19.43 LIG 0.16  HD
ATOM      8  C   ALA B 398      33.015 -13.303  -6.998  1.00 22.32 LIG 0.26  C 
ATOM      9 O    ALA B 398      33.455 -13.236  -5.849  1.00 22.30 LIG-0.27  OA
BRANCH 8 10
ATOM     10  CA  ALA B 398      31.546 -13.624  -7.259  1.00 21.39 LIG 0.40  C 
ATOM     11  N   ALA B 398      30.721 -13.440  -6.028  1.00 23.95 LIG 0.61  N 
ATOM     12  CB  ALA B 398      31.008 -12.744  -8.378  1.00 21.38 LIG 0.06  C 
ENDBRANCH 8 10
ENDBRANCH 5 6
BRANCH 5 13
ATOM     13  CB  HIS B 399      35.976 -14.088  -7.739  1.00 22.49 LIG 0.10  C 
BRANCH 13 14
ATOM     14  CG  HIS B 399      35.660 -15.160  -8.733  1.00 24.90 LIG 0.06  A 
ATOM     15  CD2 HIS B 399      34.760 -16.171  -8.698  1.00 26.88 LIG 0.14  A 
ATOM     16 NE2  HIS B 399      34.837 -16.824  -9.903  1.00 28.66 LIG-0.25  NA
ATOM     17  CE1 HIS B 399      35.754 -16.239 -10.652  1.00 27.08 LIG 0.23  A 
ATOM     18 ND1  HIS B 399      36.268 -15.231  -9.968  1.00 26.64 LIG-0.24  NA
ENDBRANCH 13 14
ENDBRANCH 5 13
ENDBRANCH 1 5
BRANCH 3 19
ATOM     19  CA  SER B 400      37.510 -10.917 -10.325  1.00 19.59 LIG 0.20  C 
BRANCH 19 20
ATOM     20  C   SER B 400      38.209 -11.935 -11.219  1.00 19.52 LIG 0.24  C 
ATOM     21  N   SER B 401      38.425 -13.140 -10.697  1.00 18.79 LIG-0.34  N 
ATOM     22 H    SER B 401      38.195 -13.368  -9.900  1.00 18.79 LIG 0.16  HD
ATOM     23 O    SER B 400      38.541 -11.633 -12.366  1.00 19.53 LIG-0.27  OA
BRANCH 21 24
ATOM     24  CA  SER B 401      39.086 -14.194 -11.461  1.00 20.07 LIG 0.19  C 
BRANCH 24 25
ATOM     25  C   SER B 401      38.277 -14.532 -12.704  1.00 22.19 LIG 0.22  C 
ATOM     26 O    SER B 401      37.928 -15.720 -12.870  1.00 22.82 LIG-0.29  OA
ENDBRANCH 24 25
BRANCH 24 27
ATOM     27  CB  SER B 401      39.270 -15.455 -10.608  1.00 19.03 LIG 0.20  C 
BRANCH 27 28
ATOM     28 OG   SER B 401      39.815 -16.522 -11.365  1.00 19.07 LIG-0.40  OA
ATOM     29 HG   SER B 401      39.492 -16.509 -12.141  1.00 19.07 LIG 0.21  HD
ENDBRANCH 27 28
ENDBRANCH 24 27
ENDBRANCH 21 24
ENDBRANCH 19 20
BRANCH 19 30
ATOM     30  CB  SER B 400      38.530  -9.884  -9.839  1.00 20.99 LIG 0.20  C 
BRANCH 30 31
ATOM     31 OG   SER B 400      37.898  -8.647  -9.551  1.00 29.12 LIG-0.40  OA
ATOM     32 HG   SER B 400      37.488  -8.376 -10.232  1.00 29.12 LIG 0.21  HD
ENDBRANCH 30 31
ENDBRANCH 19 30
ENDBRANCH 3 19
TORSDOF 13
ENDMDL
MODEL 35
USER: ADFR SOLUTION from run 150
USER: SCORE 10.280107 LL:  -1.478 LR:  -9.046 RR:   0.000 FEB:  -5.168
USER: RMSD 8.767694
USER: SEED 149
USER: STATUS no improvement in best in 7 clusters for 5 generations
USER: GENES 15
USER: genes 0 Translation |==|  0.78354 0.77035 0.41599
USER: genes 1 Rotation |==|  0.68670 0.04633 0.41448 0.54487
USER: genes 2 Torsion [N]-C--CA-[N] |==|  0.93675
USER: genes 3 Torsion [C]-CA--N-[C] |==|  0.82040
USER: genes 4 Torsion [N]-C--CA-[N] |==|  0.81815
USER: genes 5 Torsion [C]-CA--CB-[CG] |==|  0.52589
USER: genes 6 Torsion [CA]-CB--CG-[CD2] |==|  0.15452
USER: genes 7 Torsion [C]-N--CA-[C] |==|  0.56918
USER: genes 8 Torsion [N]-CA--C-[N] |==|  0.49444
USER: genes 9 Torsion [C]-N--CA-[C] |==|  0.14591
USER: genes 10 Torsion [N]-CA--C-[O] |==|  0.09463
USER: genes 11 Torsion [N]-CA--CB-[OG] |==|  0.62904
USER: genes 12 Torsion [CA]-CB--OG-[HG] |==|  0.73632
USER: genes 13 Torsion [N]-CA--CB-[OG] |==|  0.02289
USER: genes 14 Torsion [CA]-CB--OG-[HG] |==|  0.23798
ROOT
ATOM      1  C   HIS B 399      40.754  -8.870 -12.142  1.00 17.93 LIG 0.24  C 
ATOM      2 O    HIS B 399      41.521  -8.528 -11.242  1.00 15.41 LIG-0.27  OA
ATOM      3  N   SER B 400      39.581  -9.452 -11.918  1.00 17.64 LIG-0.34  N 
ATOM      4 H    SER B 400      39.038  -9.686 -12.543  1.00 17.64 LIG 0.16  HD
ENDROOT
BRANCH 1 5
ATOM      5  CA  HIS B 399      41.116  -8.637 -13.604  1.00 18.55 LIG 0.18  C 
BRANCH 5 6
ATOM      6  N   HIS B 399      40.376  -9.556 -14.456  1.00 19.43 LIG-0.34  N 
ATOM      7 H    HIS B 399      39.819  -9.176 -14.989  1.00 19.43 LIG 0.16  HD
ATOM      8  C   ALA B 398      40.565 -10.871 -14.394  1.00 22.32 LIG 0.26  C 
ATOM      9 O    ALA B 398      41.360 -11.396 -13.612  1.00 22.30 LIG-0.27  OA
BRANCH 8 10
ATOM     10  CA  ALA B 398      39.729 -11.716 -15.351  1.00 21.39 LIG 0.40  C 
ATOM     11  N   ALA B 398      38.274 -11.628 -15.026  1.00 23.95 LIG 0.61  N 
ATOM     12  CB  ALA B 398      39.967 -11.271 -16.787  1.00 21.38 LIG 0.06  C 
ENDBRANCH 8 10
ENDBRANCH 5 6
BRANCH 5 13
ATOM     13  CB  HIS B 399      40.787  -7.195 -13.994  1.00 22.49 LIG 0.10  C 
BRANCH 13 14
ATOM     14  CG  HIS B 399      40.901  -6.932 -15.463  1.00 24.90 LIG 0.06  A 
ATOM     15  CD2 HIS B 399      40.315  -7.536 -16.524  1.00 26.88 LIG 0.14  A 
ATOM     16 NE2  HIS B 399      40.714  -6.856 -17.648  1.00 28.66 LIG-0.25  NA
ATOM     17  CE1 HIS B 399      41.519  -5.871 -17.292  1.00 27.08 LIG 0.23  A 
ATOM     18 ND1  HIS B 399      41.650  -5.896 -15.977  1.00 26.64 LIG-0.24  NA
ENDBRANCH 13 14
ENDBRANCH 5 13
ENDBRANCH 1 5
BRANCH 3 19
ATOM     19  CA  SER B 400      39.101  -9.751 -10.572  1.00 19.59 LIG 0.20  C 
BRANCH 19 20
ATOM     20  C   SER B 400      38.106 -10.904 -10.621  1.00 19.52 LIG 0.24  C 
ATOM     21  N   SER B 401      37.613 -11.317  -9.455  1.00 18.79 LIG-0.34  N 
ATOM     22 H    SER B 401      37.822 -10.974  -8.695  1.00 18.79 LIG 0.16  HD
ATOM     23 O    SER B 400      37.787 -11.408 -11.698  1.00 19.53 LIG-0.27  OA
BRANCH 21 24
ATOM     24  CA  SER B 401      36.653 -12.415  -9.380  1.00 20.07 LIG 0.19  C 
BRANCH 24 25
ATOM     25  C   SER B 401      37.187 -13.634 -10.118  1.00 22.19 LIG 0.22  C 
ATOM     26 O    SER B 401      38.420 -13.839 -10.094  1.00 22.82 LIG-0.29  OA
ENDBRANCH 24 25
BRANCH 24 27
ATOM     27  CB  SER B 401      35.303 -12.003  -9.978  1.00 19.03 LIG 0.20  C 
BRANCH 27 28
ATOM     28 OG   SER B 401      34.224 -12.378  -9.137  1.00 19.07 LIG-0.40  OA
ATOM     29 HG   SER B 401      33.919 -13.120  -9.387  1.00 19.07 LIG 0.21  HD
ENDBRANCH 27 28
ENDBRANCH 24 27
ENDBRANCH 21 24
ENDBRANCH 19 20
BRANCH 19 30
ATOM     30  CB  SER B 400      38.420  -8.518  -9.972  1.00 20.99 LIG 0.20  C 
BRANCH 30 31
ATOM     31 OG   SER B 400      38.275  -7.497 -10.946  1.00 29.12 LIG-0.40  OA
ATOM     32 HG   SER B 400      37.567  -7.622 -11.380  1.00 29.12 LIG 0.21  HD
ENDBRANCH 30 31
ENDBRANCH 19 30
ENDBRANCH 3 19
TORSDOF 13
ENDMDL
MODEL 36
USER: ADFR SOLUTION from run 36
USER: SCORE 10.131411 LL:  -1.869 LR:  -9.045 RR:   0.000 FEB:  -5.167
USER: RMSD 5.899119
USER: SEED 35
USER: STATUS no improvement in best in 16 clusters for 5 generations
USER: GENES 15
USER: genes 0 Translation |==|  0.65009 0.55096 0.44478
USER: genes 1 Rotation |==|  0.18728 0.51086 0.83148 0.70545
USER: genes 2 Torsion [N]-C--CA-[N] |==|  0.86131
USER: genes 3 Torsion [C]-CA--N-[C] |==|  0.82228
USER: genes 4 Torsion [N]-C--CA-[N] |==|  0.43460
USER: genes 5 Torsion [C]-CA--CB-[CG] |==|  0.30761
USER: genes 6 Torsion [CA]-CB--CG-[CD2] |==|  0.90615
USER: genes 7 Torsion [C]-N--CA-[C] |==|  0.52876
USER: genes 8 Torsion [N]-CA--C-[N] |==|  0.30733
USER: genes 9 Torsion [C]-N--CA-[C] |==|  0.67888
USER: genes 10 Torsion [N]-CA--C-[O] |==|  0.33373
USER: genes 11 Torsion [N]-CA--CB-[OG] |==|  0.95947
USER: genes 12 Torsion [CA]-CB--OG-[HG] |==|  0.90131
USER: genes 13 Torsion [N]-CA--CB-[OG] |==|  0.77083
USER: genes 14 Torsion [CA]-CB--OG-[HG] |==|  0.08379
ROOT
ATOM      1  C   HIS B 399      38.352 -12.325 -11.624  1.00 17.93 LIG 0.24  C 
ATOM      2 O    HIS B 399      39.011 -13.289 -11.232  1.00 15.41 LIG-0.27  OA
ATOM      3  N   SER B 400      38.246 -11.987 -12.904  1.00 17.64 LIG-0.34  N 
ATOM      4 H    SER B 400      37.781 -11.320 -13.183  1.00 17.64 LIG 0.16  HD
ENDROOT
BRANCH 1 5
ATOM      5  CA  HIS B 399      37.598 -11.444 -10.635  1.00 18.55 LIG 0.18  C 
BRANCH 5 6
ATOM      6  N   HIS B 399      37.902 -10.042 -10.882  1.00 19.43 LIG-0.34  N 
ATOM      7 H    HIS B 399      37.227  -9.571 -11.130  1.00 19.43 LIG 0.16  HD
ATOM      8  C   ALA B 398      39.130  -9.557 -10.728  1.00 22.32 LIG 0.26  C 
ATOM      9 O    ALA B 398      40.087 -10.254 -10.383  1.00 22.30 LIG-0.27  OA
BRANCH 8 10
ATOM     10  CA  ALA B 398      39.305  -8.067 -11.011  1.00 21.39 LIG 0.40  C 
ATOM     11  N   ALA B 398      40.496  -7.514 -10.300  1.00 23.95 LIG 0.61  N 
ATOM     12  CB  ALA B 398      39.440  -7.831 -12.509  1.00 21.38 LIG 0.06  C 
ENDBRANCH 8 10
ENDBRANCH 5 6
BRANCH 5 13
ATOM     13  CB  HIS B 399      36.093 -11.677 -10.778  1.00 22.49 LIG 0.10  C 
BRANCH 13 14
ATOM     14  CG  HIS B 399      35.482 -12.376  -9.605  1.00 24.90 LIG 0.06  A 
ATOM     15  CD2 HIS B 399      35.978 -13.325  -8.776  1.00 26.88 LIG 0.14  A 
ATOM     16 NE2  HIS B 399      35.020 -13.570  -7.823  1.00 28.66 LIG-0.25  NA
ATOM     17  CE1 HIS B 399      33.972 -12.801  -8.058  1.00 27.08 LIG 0.23  A 
ATOM     18 ND1  HIS B 399      34.224 -12.071  -9.130  1.00 26.64 LIG-0.24  NA
ENDBRANCH 13 14
ENDBRANCH 5 13
ENDBRANCH 1 5
BRANCH 3 19
ATOM     19  CA  SER B 400      38.919 -12.728 -13.966  1.00 19.59 LIG 0.20  C 
BRANCH 19 20
ATOM     20  C   SER B 400      38.819 -11.960 -15.279  1.00 19.52 LIG 0.24  C 
ATOM     21  N   SER B 401      39.947 -11.434 -15.751  1.00 18.79 LIG-0.34  N 
ATOM     22 H    SER B 401      40.711 -11.505 -15.362  1.00 18.79 LIG 0.16  HD
ATOM     23 O    SER B 400      37.737 -11.851 -15.856  1.00 19.53 LIG-0.27  OA
BRANCH 21 24
ATOM     24  CA  SER B 401      39.971 -10.677 -16.999  1.00 20.07 LIG 0.19  C 
BRANCH 24 25
ATOM     25  C   SER B 401      40.818 -11.398 -18.038  1.00 22.19 LIG 0.22  C 
ATOM     26 O    SER B 401      40.266 -11.744 -19.105  1.00 22.82 LIG-0.29  OA
ENDBRANCH 24 25
BRANCH 24 27
ATOM     27  CB  SER B 401      40.525  -9.265 -16.772  1.00 19.03 LIG 0.20  C 
BRANCH 27 28
ATOM     28 OG   SER B 401      40.561  -8.935 -15.394  1.00 19.07 LIG-0.40  OA
ATOM     29 HG   SER B 401      39.898  -9.275 -15.007  1.00 19.07 LIG 0.21  HD
ENDBRANCH 27 28
ENDBRANCH 24 27
ENDBRANCH 21 24
ENDBRANCH 19 20
BRANCH 19 30
ATOM     30  CB  SER B 400      38.275 -14.106 -14.135  1.00 20.99 LIG 0.20  C 
BRANCH 30 31
ATOM     31 OG   SER B 400      38.789 -15.024 -13.183  1.00 29.12 LIG-0.40  OA
ATOM     32 HG   SER B 400      39.006 -14.611 -12.485  1.00 29.12 LIG 0.21  HD
ENDBRANCH 30 31
ENDBRANCH 19 30
ENDBRANCH 3 19
TORSDOF 13
ENDMDL
MODEL 37
USER: ADFR SOLUTION from run 42
USER: SCORE 10.125769 LL:  -1.656 LR:  -9.007 RR:   0.000 FEB:  -5.130
USER: RMSD 7.360714
USER: SEED 41
USER: STATUS no improvement in best in 17 clusters for 5 generations
USER: GENES 15
USER: genes 0 Translation |==|  0.61538 0.64075 0.48065
USER: genes 1 Rotation |==|  0.12590 0.66390 0.35312 0.74822
USER: genes 2 Torsion [N]-C--CA-[N] |==|  0.80757
USER: genes 3 Torsion [C]-CA--N-[C] |==|  0.69198
USER: genes 4 Torsion [N]-C--CA-[N] |==|  0.61689
USER: genes 5 Torsion [C]-CA--CB-[CG] |==|  0.46461
USER: genes 6 Torsion [CA]-CB--CG-[CD2] |==|  0.79670
USER: genes 7 Torsion [C]-N--CA-[C] |==|  0.81668
USER: genes 8 Torsion [N]-CA--C-[N] |==|  0.39437
USER: genes 9 Torsion [C]-N--CA-[C] |==|  0.57971
USER: genes 10 Torsion [N]-CA--C-[O] |==|  0.10571
USER: genes 11 Torsion [N]-CA--CB-[OG] |==|  0.05537
USER: genes 12 Torsion [CA]-CB--OG-[HG] |==|  0.29682
USER: genes 13 Torsion [N]-CA--CB-[OG] |==|  0.56710
USER: genes 14 Torsion [CA]-CB--OG-[HG] |==|  0.86624
ROOT
ATOM      1  C   HIS B 399      37.727 -10.911 -10.978  1.00 17.93 LIG 0.24  C 
ATOM      2 O    HIS B 399      36.508 -10.879 -10.804  1.00 15.41 LIG-0.27  OA
ATOM      3  N   SER B 400      38.394 -12.025 -11.262  1.00 17.64 LIG-0.34  N 
ATOM      4 H    SER B 400      39.243 -12.051 -11.391  1.00 17.64 LIG 0.16  HD
ENDROOT
BRANCH 1 5
ATOM      5  CA  HIS B 399      38.561  -9.640 -10.877  1.00 18.55 LIG 0.18  C 
BRANCH 5 6
ATOM      6  N   HIS B 399      39.408  -9.690  -9.695  1.00 19.43 LIG-0.34  N 
ATOM      7 H    HIS B 399      40.042 -10.270  -9.736  1.00 19.43 LIG 0.16  HD
ATOM      8  C   ALA B 398      39.198  -8.893  -8.651  1.00 22.32 LIG 0.26  C 
ATOM      9 O    ALA B 398      38.275  -8.077  -8.608  1.00 22.30 LIG-0.27  OA
BRANCH 8 10
ATOM     10  CA  ALA B 398      40.168  -9.044  -7.483  1.00 21.39 LIG 0.40  C 
ATOM     11  N   ALA B 398      39.454  -9.003  -6.172  1.00 23.95 LIG 0.61  N 
ATOM     12  CB  ALA B 398      40.942 -10.349  -7.610  1.00 21.38 LIG 0.06  C 
ENDBRANCH 8 10
ENDBRANCH 5 6
BRANCH 5 13
ATOM     13  CB  HIS B 399      39.431  -9.492 -12.127  1.00 22.49 LIG 0.10  C 
BRANCH 13 14
ATOM     14  CG  HIS B 399      40.055  -8.139 -12.265  1.00 24.90 LIG 0.06  A 
ATOM     15  CD2 HIS B 399      39.520  -6.942 -12.600  1.00 26.88 LIG 0.14  A 
ATOM     16 NE2  HIS B 399      40.525  -6.010 -12.510  1.00 28.66 LIG-0.25  NA
ATOM     17  CE1 HIS B 399      41.639  -6.613 -12.134  1.00 27.08 LIG 0.23  A 
ATOM     18 ND1  HIS B 399      41.383  -7.901 -11.981  1.00 26.64 LIG-0.24  NA
ENDBRANCH 13 14
ENDBRANCH 5 13
ENDBRANCH 1 5
BRANCH 3 19
ATOM     19  CA  SER B 400      37.734 -13.322 -11.379  1.00 19.59 LIG 0.20  C 
BRANCH 19 20
ATOM     20  C   SER B 400      37.176 -13.744 -10.025  1.00 19.52 LIG 0.24  C 
ATOM     21  N   SER B 401      35.999 -14.365 -10.032  1.00 18.79 LIG-0.34  N 
ATOM     22 H    SER B 401      35.548 -14.536 -10.744  1.00 18.79 LIG 0.16  HD
ATOM     23 O    SER B 400      37.806 -13.515  -8.992  1.00 19.53 LIG-0.27  OA
BRANCH 21 24
ATOM     24  CA  SER B 401      35.367 -14.814  -8.794  1.00 20.07 LIG 0.19  C 
BRANCH 24 25
ATOM     25  C   SER B 401      34.491 -16.030  -9.060  1.00 22.19 LIG 0.22  C 
ATOM     26 O    SER B 401      34.901 -16.878  -9.882  1.00 22.82 LIG-0.29  OA
ENDBRANCH 24 25
BRANCH 24 27
ATOM     27  CB  SER B 401      34.522 -13.696  -8.174  1.00 19.03 LIG 0.20  C 
BRANCH 27 28
ATOM     28 OG   SER B 401      34.189 -12.703  -9.130  1.00 19.07 LIG-0.40  OA
ATOM     29 HG   SER B 401      33.377 -12.770  -9.333  1.00 19.07 LIG 0.21  HD
ENDBRANCH 27 28
ENDBRANCH 24 27
ENDBRANCH 21 24
ENDBRANCH 19 20
BRANCH 19 30
ATOM     30  CB  SER B 400      38.731 -14.375 -11.868  1.00 20.99 LIG 0.20  C 
BRANCH 30 31
ATOM     31 OG   SER B 400      38.059 -15.450 -12.506  1.00 29.12 LIG-0.40  OA
ATOM     32 HG   SER B 400      37.420 -15.705 -12.025  1.00 29.12 LIG 0.21  HD
ENDBRANCH 30 31
ENDBRANCH 19 30
ENDBRANCH 3 19
TORSDOF 13
ENDMDL
MODEL 38
USER: ADFR SOLUTION from run 147
USER: SCORE 10.407277 LL:  -1.850 LR:  -9.001 RR:   0.000 FEB:  -5.123
USER: RMSD 5.554472
USER: SEED 146
USER: STATUS no improvement in best in 27 clusters for 5 generations
USER: GENES 15
USER: genes 0 Translation |==|  0.37308 0.36867 0.67845
USER: genes 1 Rotation |==|  0.07494 0.62325 0.69285 0.63014
USER: genes 2 Torsion [N]-C--CA-[N] |==|  0.40000
USER: genes 3 Torsion [C]-CA--N-[C] |==|  0.61633
USER: genes 4 Torsion [N]-C--CA-[N] |==|  0.97476
USER: genes 5 Torsion [C]-CA--CB-[CG] |==|  0.19128
USER: genes 6 Torsion [CA]-CB--CG-[CD2] |==|  0.74999
USER: genes 7 Torsion [C]-N--CA-[C] |==|  0.63130
USER: genes 8 Torsion [N]-CA--C-[N] |==|  0.30052
USER: genes 9 Torsion [C]-N--CA-[C] |==|  0.12995
USER: genes 10 Torsion [N]-CA--C-[O] |==|  0.62255
USER: genes 11 Torsion [N]-CA--CB-[OG] |==|  0.97436
USER: genes 12 Torsion [CA]-CB--OG-[HG] |==|  0.20241
USER: genes 13 Torsion [N]-CA--CB-[OG] |==|  0.38375
USER: genes 14 Torsion [CA]-CB--OG-[HG] |==|  0.81033
ROOT
ATOM      1  C   HIS B 399      33.365 -15.196  -7.418  1.00 17.93 LIG 0.24  C 
ATOM      2 O    HIS B 399      33.398 -15.700  -6.294  1.00 15.41 LIG-0.27  OA
ATOM      3  N   SER B 400      33.810 -15.814  -8.507  1.00 17.64 LIG-0.34  N 
ATOM      4 H    SER B 400      33.782 -15.470  -9.294  1.00 17.64 LIG 0.16  HD
ENDROOT
BRANCH 1 5
ATOM      5  CA  HIS B 399      32.795 -13.799  -7.628  1.00 18.55 LIG 0.18  C 
BRANCH 5 6
ATOM      6  N   HIS B 399      31.669 -13.578  -6.732  1.00 19.43 LIG-0.34  N 
ATOM      7 H    HIS B 399      31.787 -13.874  -5.934  1.00 19.43 LIG 0.16  HD
ATOM      8  C   ALA B 398      30.561 -12.967  -7.142  1.00 22.32 LIG 0.26  C 
ATOM      9 O    ALA B 398      30.409 -12.562  -8.297  1.00 22.30 LIG-0.27  OA
BRANCH 8 10
ATOM     10  CA  ALA B 398      29.463 -12.793  -6.097  1.00 21.39 LIG 0.40  C 
ATOM     11  N   ALA B 398      29.775 -13.551  -4.848  1.00 23.95 LIG 0.61  N 
ATOM     12  CB  ALA B 398      29.276 -11.317  -5.774  1.00 21.38 LIG 0.06  C 
ENDBRANCH 8 10
ENDBRANCH 5 6
BRANCH 5 13
ATOM     13  CB  HIS B 399      33.879 -12.753  -7.357  1.00 22.49 LIG 0.10  C 
BRANCH 13 14
ATOM     14  CG  HIS B 399      34.972 -12.748  -8.378  1.00 24.90 LIG 0.06  A 
ATOM     15  CD2 HIS B 399      36.143 -13.425  -8.433  1.00 26.88 LIG 0.14  A 
ATOM     16 NE2  HIS B 399      36.744 -13.100  -9.624  1.00 28.66 LIG-0.25  NA
ATOM     17  CE1 HIS B 399      35.971 -12.251 -10.278  1.00 27.08 LIG 0.23  A 
ATOM     18 ND1  HIS B 399      34.895 -12.020  -9.546  1.00 26.64 LIG-0.24  NA
ENDBRANCH 13 14
ENDBRANCH 5 13
ENDBRANCH 1 5
BRANCH 3 19
ATOM     19  CA  SER B 400      34.395 -17.151  -8.463  1.00 19.59 LIG 0.20  C 
BRANCH 19 20
ATOM     20  C   SER B 400      35.694 -17.175  -9.259  1.00 19.52 LIG 0.24  C 
ATOM     21  N   SER B 401      36.822 -17.262  -8.559  1.00 18.79 LIG-0.34  N 
ATOM     22 H    SER B 401      36.854 -17.304  -7.701  1.00 18.79 LIG 0.16  HD
ATOM     23 O    SER B 400      35.672 -17.122 -10.490  1.00 19.53 LIG-0.27  OA
BRANCH 21 24
ATOM     24  CA  SER B 401      38.126 -17.292  -9.216  1.00 20.07 LIG 0.19  C 
BRANCH 24 25
ATOM     25  C   SER B 401      38.209 -16.203 -10.275  1.00 22.19 LIG 0.22  C 
ATOM     26 O    SER B 401      38.704 -16.501 -11.384  1.00 22.82 LIG-0.29  OA
ENDBRANCH 24 25
BRANCH 24 27
ATOM     27  CB  SER B 401      38.382 -18.659  -9.861  1.00 19.03 LIG 0.20  C 
BRANCH 27 28
ATOM     28 OG   SER B 401      37.397 -19.606  -9.484  1.00 19.07 LIG-0.40  OA
ATOM     29 HG   SER B 401      36.674 -19.430  -9.874  1.00 19.07 LIG 0.21  HD
ENDBRANCH 27 28
ENDBRANCH 24 27
ENDBRANCH 21 24
ENDBRANCH 19 20
BRANCH 19 30
ATOM     30  CB  SER B 400      33.418 -18.170  -9.054  1.00 20.99 LIG 0.20  C 
BRANCH 30 31
ATOM     31 OG   SER B 400      34.099 -19.102  -9.880  1.00 29.12 LIG-0.40  OA
ATOM     32 HG   SER B 400      34.381 -18.712 -10.568  1.00 29.12 LIG 0.21  HD
ENDBRANCH 30 31
ENDBRANCH 19 30
ENDBRANCH 3 19
TORSDOF 13
ENDMDL
MODEL 39
USER: ADFR SOLUTION from run 95
USER: SCORE 9.832734 LL:  -1.562 LR:  -8.994 RR:   0.000 FEB:  -5.116
USER: RMSD 6.993832
USER: SEED 94
USER: STATUS no improvement in best in 5 clusters for 5 generations
USER: GENES 15
USER: genes 0 Translation |==|  0.52758 0.54402 0.50165
USER: genes 1 Rotation |==|  0.08632 0.72094 0.35432 0.59400
USER: genes 2 Torsion [N]-C--CA-[N] |==|  0.64471
USER: genes 3 Torsion [C]-CA--N-[C] |==|  0.18879
USER: genes 4 Torsion [N]-C--CA-[N] |==|  0.52629
USER: genes 5 Torsion [C]-CA--CB-[CG] |==|  0.29996
USER: genes 6 Torsion [CA]-CB--CG-[CD2] |==|  0.15535
USER: genes 7 Torsion [C]-N--CA-[C] |==|  0.86072
USER: genes 8 Torsion [N]-CA--C-[N] |==|  0.36793
USER: genes 9 Torsion [C]-N--CA-[C] |==|  0.77930
USER: genes 10 Torsion [N]-CA--C-[O] |==|  0.96756
USER: genes 11 Torsion [N]-CA--CB-[OG] |==|  0.94870
USER: genes 12 Torsion [CA]-CB--OG-[HG] |==|  0.99462
USER: genes 13 Torsion [N]-CA--CB-[OG] |==|  0.68212
USER: genes 14 Torsion [CA]-CB--OG-[HG] |==|  0.43751
ROOT
ATOM      1  C   HIS B 399      36.147 -12.435 -10.600  1.00 17.93 LIG 0.24  C 
ATOM      2 O    HIS B 399      35.142 -11.892 -10.139  1.00 15.41 LIG-0.27  OA
ATOM      3  N   SER B 400      36.405 -13.730 -10.461  1.00 17.64 LIG-0.34  N 
ATOM      4 H    SER B 400      37.101 -14.115 -10.787  1.00 17.64 LIG 0.16  HD
ENDROOT
BRANCH 1 5
ATOM      5  CA  HIS B 399      37.177 -11.627 -11.380  1.00 18.55 LIG 0.18  C 
BRANCH 5 6
ATOM      6  N   HIS B 399      37.589 -10.463 -10.610  1.00 19.43 LIG-0.34  N 
ATOM      7 H    HIS B 399      37.337  -9.711 -10.940  1.00 19.43 LIG 0.16  HD
ATOM      8  C   ALA B 398      38.295 -10.583  -9.489  1.00 22.32 LIG 0.26  C 
ATOM      9 O    ALA B 398      38.657 -11.672  -9.039  1.00 22.30 LIG-0.27  OA
BRANCH 8 10
ATOM     10  CA  ALA B 398      38.650  -9.281  -8.776  1.00 21.39 LIG 0.40  C 
ATOM     11  N   ALA B 398      39.626  -9.515  -7.670  1.00 23.95 LIG 0.61  N 
ATOM     12  CB  ALA B 398      39.223  -8.279  -9.769  1.00 21.38 LIG 0.06  C 
ENDBRANCH 8 10
ENDBRANCH 5 6
BRANCH 5 13
ATOM     13  CB  HIS B 399      38.396 -12.501 -11.683  1.00 22.49 LIG 0.10  C 
BRANCH 13 14
ATOM     14  CG  HIS B 399      38.506 -12.898 -13.121  1.00 24.90 LIG 0.06  A 
ATOM     15  CD2 HIS B 399      38.550 -12.152 -14.250  1.00 26.88 LIG 0.14  A 
ATOM     16 NE2  HIS B 399      38.723 -13.018 -15.301  1.00 28.66 LIG-0.25  NA
ATOM     17  CE1 HIS B 399      38.780 -14.253 -14.836  1.00 27.08 LIG 0.23  A 
ATOM     18 ND1  HIS B 399      38.650 -14.209 -13.522  1.00 26.64 LIG-0.24  NA
ENDBRANCH 13 14
ENDBRANCH 5 13
ENDBRANCH 1 5
BRANCH 3 19
ATOM     19  CA  SER B 400      35.518 -14.629  -9.729  1.00 19.59 LIG 0.20  C 
BRANCH 19 20
ATOM     20  C   SER B 400      35.190 -14.037  -8.364  1.00 19.52 LIG 0.24  C 
ATOM     21  N   SER B 401      33.908 -14.036  -8.005  1.00 18.79 LIG-0.34  N 
ATOM     22 H    SER B 401      33.271 -14.345  -8.493  1.00 18.79 LIG 0.16  HD
ATOM     23 O    SER B 400      36.086 -13.593  -7.645  1.00 19.53 LIG-0.27  OA
BRANCH 21 24
ATOM     24  CA  SER B 401      33.477 -13.493  -6.720  1.00 20.07 LIG 0.19  C 
BRANCH 24 25
ATOM     25  C   SER B 401      33.732 -14.500  -5.609  1.00 22.19 LIG 0.22  C 
ATOM     26 O    SER B 401      34.035 -15.668  -5.936  1.00 22.82 LIG-0.29  OA
ENDBRANCH 24 25
BRANCH 24 27
ATOM     27  CB  SER B 401      31.988 -13.128  -6.752  1.00 19.03 LIG 0.20  C 
BRANCH 27 28
ATOM     28 OG   SER B 401      31.510 -13.003  -8.081  1.00 19.07 LIG-0.40  OA
ATOM     29 HG   SER B 401      32.143 -13.128  -8.619  1.00 19.07 LIG 0.21  HD
ENDBRANCH 27 28
ENDBRANCH 24 27
ENDBRANCH 21 24
ENDBRANCH 19 20
BRANCH 19 30
ATOM     30  CB  SER B 400      36.189 -15.992  -9.542  1.00 20.99 LIG 0.20  C 
BRANCH 30 31
ATOM     31 OG   SER B 400      35.491 -17.001 -10.255  1.00 29.12 LIG-0.40  OA
ATOM     32 HG   SER B 400      36.007 -17.647 -10.404  1.00 29.12 LIG 0.21  HD
ENDBRANCH 30 31
ENDBRANCH 19 30
ENDBRANCH 3 19
TORSDOF 13
ENDMDL
MODEL 40
USER: ADFR SOLUTION from run 192
USER: SCORE 10.560826 LL:  -1.987 LR:  -8.938 RR:   0.000 FEB:  -5.060
USER: RMSD 7.969572
USER: SEED 191
USER: STATUS no improvement in best in 24 clusters for 5 generations
USER: GENES 15
USER: genes 0 Translation |==|  0.31508 0.42215 0.71629
USER: genes 1 Rotation |==|  0.07007 0.68644 0.62997 0.61622
USER: genes 2 Torsion [N]-C--CA-[N] |==|  0.91224
USER: genes 3 Torsion [C]-CA--N-[C] |==|  0.82262
USER: genes 4 Torsion [N]-C--CA-[N] |==|  0.39285
USER: genes 5 Torsion [C]-CA--CB-[CG] |==|  0.22742
USER: genes 6 Torsion [CA]-CB--CG-[CD2] |==|  0.62864
USER: genes 7 Torsion [C]-N--CA-[C] |==|  0.52372
USER: genes 8 Torsion [N]-CA--C-[N] |==|  0.48889
USER: genes 9 Torsion [C]-N--CA-[C] |==|  0.73413
USER: genes 10 Torsion [N]-CA--C-[O] |==|  0.13927
USER: genes 11 Torsion [N]-CA--CB-[OG] |==|  0.66913
USER: genes 12 Torsion [CA]-CB--OG-[HG] |==|  0.84478
USER: genes 13 Torsion [N]-CA--CB-[OG] |==|  0.74857
USER: genes 14 Torsion [CA]-CB--OG-[HG] |==|  0.11898
ROOT
ATOM      1  C   HIS B 399      32.322 -14.354  -6.737  1.00 17.93 LIG 0.24  C 
ATOM      2 O    HIS B 399      32.093 -14.583  -5.548  1.00 15.41 LIG-0.27  OA
ATOM      3  N   SER B 400      32.706 -15.289  -7.599  1.00 17.64 LIG-0.34  N 
ATOM      4 H    SER B 400      32.860 -15.135  -8.431  1.00 17.64 LIG 0.16  HD
ENDROOT
BRANCH 1 5
ATOM      5  CA  HIS B 399      32.169 -12.947  -7.301  1.00 18.55 LIG 0.18  C 
BRANCH 5 6
ATOM      6  N   HIS B 399      33.123 -12.734  -8.380  1.00 19.43 LIG-0.34  N 
ATOM      7 H    HIS B 399      32.765 -12.598  -9.149  1.00 19.43 LIG 0.16  HD
ATOM      8  C   ALA B 398      34.435 -12.754  -8.164  1.00 22.32 LIG 0.26  C 
ATOM      9 O    ALA B 398      34.928 -12.963  -7.054  1.00 22.30 LIG-0.27  OA
BRANCH 8 10
ATOM     10  CA  ALA B 398      35.320 -12.505  -9.383  1.00 21.39 LIG 0.40  C 
ATOM     11  N   ALA B 398      36.507 -11.670  -9.033  1.00 23.95 LIG 0.61  N 
ATOM     12  CB  ALA B 398      35.776 -13.830  -9.978  1.00 21.38 LIG 0.06  C 
ENDBRANCH 8 10
ENDBRANCH 5 6
BRANCH 5 13
ATOM     13  CB  HIS B 399      30.746 -12.752  -7.827  1.00 22.49 LIG 0.10  C 
BRANCH 13 14
ATOM     14  CG  HIS B 399      29.755 -12.411  -6.760  1.00 24.90 LIG 0.06  A 
ATOM     15  CD2 HIS B 399      28.518 -12.897  -6.505  1.00 26.88 LIG 0.14  A 
ATOM     16 NE2  HIS B 399      28.069 -12.283  -5.361  1.00 28.66 LIG-0.25  NA
ATOM     17  CE1 HIS B 399      28.996 -11.447  -4.930  1.00 27.08 LIG 0.23  A 
ATOM     18 ND1  HIS B 399      30.025 -11.503  -5.758  1.00 26.64 LIG-0.24  NA
ENDBRANCH 13 14
ENDBRANCH 5 13
ENDBRANCH 1 5
BRANCH 3 19
ATOM     19  CA  SER B 400      32.907 -16.680  -7.204  1.00 19.59 LIG 0.20  C 
BRANCH 19 20
ATOM     20  C   SER B 400      33.545 -17.457  -8.350  1.00 19.52 LIG 0.24  C 
ATOM     21  N   SER B 401      33.864 -18.726  -8.107  1.00 18.79 LIG-0.34  N 
ATOM     22 H    SER B 401      33.731 -19.120  -7.354  1.00 18.79 LIG 0.16  HD
ATOM     23 O    SER B 400      33.738 -16.915  -9.439  1.00 19.53 LIG-0.27  OA
BRANCH 21 24
ATOM     24  CA  SER B 401      34.480 -19.566  -9.130  1.00 20.07 LIG 0.19  C 
BRANCH 24 25
ATOM     25  C   SER B 401      33.419 -20.387  -9.849  1.00 22.19 LIG 0.22  C 
ATOM     26 O    SER B 401      32.414 -19.787 -10.289  1.00 22.82 LIG-0.29  OA
ENDBRANCH 24 25
BRANCH 24 27
ATOM     27  CB  SER B 401      35.524 -20.503  -8.512  1.00 19.03 LIG 0.20  C 
BRANCH 27 28
ATOM     28 OG   SER B 401      36.816 -20.269  -9.046  1.00 19.07 LIG-0.40  OA
ATOM     29 HG   SER B 401      36.791 -20.342  -9.883  1.00 19.07 LIG 0.21  HD
ENDBRANCH 27 28
ENDBRANCH 24 27
ENDBRANCH 21 24
ENDBRANCH 19 20
BRANCH 19 30
ATOM     30  CB  SER B 400      31.565 -17.321  -6.841  1.00 20.99 LIG 0.20  C 
BRANCH 30 31
ATOM     31 OG   SER B 400      31.287 -17.163  -5.459  1.00 29.12 LIG-0.40  OA
ATOM     32 HG   SER B 400      31.484 -16.382  -5.221  1.00 29.12 LIG 0.21  HD
ENDBRANCH 30 31
ENDBRANCH 19 30
ENDBRANCH 3 19
TORSDOF 13
ENDMDL
MODEL 41
USER: ADFR SOLUTION from run 70
USER: SCORE 10.570222 LL:  -1.872 LR:  -8.928 RR:   0.000 FEB:  -5.050
USER: RMSD 6.631813
USER: SEED 69
USER: STATUS no improvement in best in 25 clusters for 5 generations
USER: GENES 15
USER: genes 0 Translation |==|  0.52471 0.44375 0.58760
USER: genes 1 Rotation |==|  0.14715 0.64957 0.78631 0.64543
USER: genes 2 Torsion [N]-C--CA-[N] |==|  0.87308
USER: genes 3 Torsion [C]-CA--N-[C] |==|  0.80556
USER: genes 4 Torsion [N]-C--CA-[N] |==|  0.30368
USER: genes 5 Torsion [C]-CA--CB-[CG] |==|  0.20741
USER: genes 6 Torsion [CA]-CB--CG-[CD2] |==|  0.01450
USER: genes 7 Torsion [C]-N--CA-[C] |==|  0.13387
USER: genes 8 Torsion [N]-CA--C-[N] |==|  0.14385
USER: genes 9 Torsion [C]-N--CA-[C] |==|  0.79800
USER: genes 10 Torsion [N]-CA--C-[O] |==|  0.81580
USER: genes 11 Torsion [N]-CA--CB-[OG] |==|  0.92427
USER: genes 12 Torsion [CA]-CB--OG-[HG] |==|  0.09345
USER: genes 13 Torsion [N]-CA--CB-[OG] |==|  0.68024
USER: genes 14 Torsion [CA]-CB--OG-[HG] |==|  0.67809
ROOT
ATOM      1  C   HIS B 399      36.095 -14.014  -9.053  1.00 17.93 LIG 0.24  C 
ATOM      2 O    HIS B 399      36.535 -14.725  -8.149  1.00 15.41 LIG-0.27  OA
ATOM      3  N   SER B 400      35.960 -14.430 -10.308  1.00 17.64 LIG-0.34  N 
ATOM      4 H    SER B 400      35.646 -13.939 -10.940  1.00 17.64 LIG 0.16  HD
ENDROOT
BRANCH 1 5
ATOM      5  CA  HIS B 399      35.667 -12.578  -8.775  1.00 18.55 LIG 0.18  C 
BRANCH 5 6
ATOM      6  N   HIS B 399      36.194 -11.691  -9.801  1.00 19.43 LIG-0.34  N 
ATOM      7 H    HIS B 399      35.600 -11.368 -10.332  1.00 19.43 LIG 0.16  HD
ATOM      8  C   ALA B 398      37.493 -11.419  -9.888  1.00 22.32 LIG 0.26  C 
ATOM      9 O    ALA B 398      38.331 -11.903  -9.123  1.00 22.30 LIG-0.27  OA
BRANCH 8 10
ATOM     10  CA  ALA B 398      37.907 -10.465 -11.005  1.00 21.39 LIG 0.40  C 
ATOM     11  N   ALA B 398      38.335  -9.142 -10.461  1.00 23.95 LIG 0.61  N 
ATOM     12  CB  ALA B 398      39.034 -11.076 -11.825  1.00 21.38 LIG 0.06  C 
ENDBRANCH 8 10
ENDBRANCH 5 6
BRANCH 5 13
ATOM     13  CB  HIS B 399      34.140 -12.489  -8.754  1.00 22.49 LIG 0.10  C 
BRANCH 13 14
ATOM     14  CG  HIS B 399      33.525 -13.060  -7.515  1.00 24.90 LIG 0.06  A 
ATOM     15  CD2 HIS B 399      34.087 -13.551  -6.386  1.00 26.88 LIG 0.14  A 
ATOM     16 NE2  HIS B 399      33.063 -13.883  -5.534  1.00 28.66 LIG-0.25  NA
ATOM     17  CE1 HIS B 399      31.911 -13.610  -6.120  1.00 27.08 LIG 0.23  A 
ATOM     18 ND1  HIS B 399      32.161 -13.112  -7.319  1.00 26.64 LIG-0.24  NA
ENDBRANCH 13 14
ENDBRANCH 5 13
ENDBRANCH 1 5
BRANCH 3 19
ATOM     19  CA  SER B 400      36.338 -15.775 -10.730  1.00 19.59 LIG 0.20  C 
BRANCH 19 20
ATOM     20  C   SER B 400      35.758 -16.803  -9.766  1.00 19.52 LIG 0.24  C 
ATOM     21  N   SER B 401      34.453 -16.718  -9.516  1.00 18.79 LIG-0.34  N 
ATOM     22 H    SER B 401      33.934 -16.126  -9.862  1.00 18.79 LIG 0.16  HD
ATOM     23 O    SER B 400      36.481 -17.663  -9.262  1.00 19.53 LIG-0.27  OA
BRANCH 21 24
ATOM     24  CA  SER B 401      33.789 -17.649  -8.608  1.00 20.07 LIG 0.19  C 
BRANCH 24 25
ATOM     25  C   SER B 401      33.663 -19.020  -9.258  1.00 22.19 LIG 0.22  C 
ATOM     26 O    SER B 401      32.919 -19.128 -10.256  1.00 22.82 LIG-0.29  OA
ENDBRANCH 24 25
BRANCH 24 27
ATOM     27  CB  SER B 401      32.398 -17.135  -8.218  1.00 19.03 LIG 0.20  C 
BRANCH 27 28
ATOM     28 OG   SER B 401      32.330 -15.720  -8.278  1.00 19.07 LIG-0.40  OA
ATOM     29 HG   SER B 401      32.820 -15.442  -8.901  1.00 19.07 LIG 0.21  HD
ENDBRANCH 27 28
ENDBRANCH 24 27
ENDBRANCH 21 24
ENDBRANCH 19 20
BRANCH 19 30
ATOM     30  CB  SER B 400      37.863 -15.908 -10.756  1.00 20.99 LIG 0.20  C 
BRANCH 30 31
ATOM     31 OG   SER B 400      38.328 -16.123 -12.079  1.00 29.12 LIG-0.40  OA
ATOM     32 HG   SER B 400      38.686 -16.881 -12.130  1.00 29.12 LIG 0.21  HD
ENDBRANCH 30 31
ENDBRANCH 19 30
ENDBRANCH 3 19
TORSDOF 13
ENDMDL
MODEL 42
USER: ADFR SOLUTION from run 121
USER: SCORE 10.330366 LL:  -1.622 LR:  -8.920 RR:   0.000 FEB:  -5.042
USER: RMSD 8.108354
USER: SEED 120
USER: STATUS no improvement in best in 8 clusters for 5 generations
USER: GENES 15
USER: genes 0 Translation |==|  0.66793 0.53143 0.37635
USER: genes 1 Rotation |==|  0.73253 0.90227 0.68466 0.50379
USER: genes 2 Torsion [N]-C--CA-[N] |==|  0.08982
USER: genes 3 Torsion [C]-CA--N-[C] |==|  0.16700
USER: genes 4 Torsion [N]-C--CA-[N] |==|  0.92039
USER: genes 5 Torsion [C]-CA--CB-[CG] |==|  0.53960
USER: genes 6 Torsion [CA]-CB--CG-[CD2] |==|  0.47244
USER: genes 7 Torsion [C]-N--CA-[C] |==|  0.78327
USER: genes 8 Torsion [N]-CA--C-[N] |==|  0.32222
USER: genes 9 Torsion [C]-N--CA-[C] |==|  0.78914
USER: genes 10 Torsion [N]-CA--C-[O] |==|  0.24701
USER: genes 11 Torsion [N]-CA--CB-[OG] |==|  0.61584
USER: genes 12 Torsion [CA]-CB--OG-[HG] |==|  0.92266
USER: genes 13 Torsion [N]-CA--CB-[OG] |==|  0.00213
USER: genes 14 Torsion [CA]-CB--OG-[HG] |==|  0.30703
ROOT
ATOM      1  C   HIS B 399      38.673 -12.633 -12.856  1.00 17.93 LIG 0.24  C 
ATOM      2 O    HIS B 399      38.805 -13.751 -12.355  1.00 15.41 LIG-0.27  OA
ATOM      3  N   SER B 400      38.303 -11.563 -12.161  1.00 17.64 LIG-0.34  N 
ATOM      4 H    SER B 400      38.216 -10.779 -12.505  1.00 17.64 LIG 0.16  HD
ENDROOT
BRANCH 1 5
ATOM      5  CA  HIS B 399      38.935 -12.409 -14.340  1.00 18.55 LIG 0.18  C 
BRANCH 5 6
ATOM      6  N   HIS B 399      39.461 -11.070 -14.559  1.00 19.43 LIG-0.34  N 
ATOM      7 H    HIS B 399      38.977 -10.578 -15.071  1.00 19.43 LIG 0.16  HD
ATOM      8  C   ALA B 398      40.598 -10.667 -14.000  1.00 22.32 LIG 0.26  C 
ATOM      9 O    ALA B 398      41.283 -11.395 -13.278  1.00 22.30 LIG-0.27  OA
BRANCH 8 10
ATOM     10  CA  ALA B 398      41.028  -9.235 -14.306  1.00 21.39 LIG 0.40  C 
ATOM     11  N   ALA B 398      40.525  -8.789 -15.639  1.00 23.95 LIG 0.61  N 
ATOM     12  CB  ALA B 398      40.523  -8.294 -13.221  1.00 21.38 LIG 0.06  C 
ENDBRANCH 8 10
ENDBRANCH 5 6
BRANCH 5 13
ATOM     13  CB  HIS B 399      39.939 -13.445 -14.849  1.00 22.49 LIG 0.10  C 
BRANCH 13 14
ATOM     14  CG  HIS B 399      40.516 -13.111 -16.189  1.00 24.90 LIG 0.06  A 
ATOM     15  CD2 HIS B 399      41.540 -13.664 -16.880  1.00 26.88 LIG 0.14  A 
ATOM     16 NE2  HIS B 399      41.607 -13.018 -18.090  1.00 28.66 LIG-0.25  NA
ATOM     17  CE1 HIS B 399      40.659 -12.099 -18.140  1.00 27.08 LIG 0.23  A 
ATOM     18 ND1  HIS B 399      39.987 -12.133 -17.003  1.00 26.64 LIG-0.24  NA
ENDBRANCH 13 14
ENDBRANCH 5 13
ENDBRANCH 1 5
BRANCH 3 19
ATOM     19  CA  SER B 400      38.005 -11.622 -10.734  1.00 19.59 LIG 0.20  C 
BRANCH 19 20
ATOM     20  C   SER B 400      36.616 -12.210 -10.518  1.00 19.52 LIG 0.24  C 
ATOM     21  N   SER B 401      36.552 -13.371  -9.870  1.00 18.79 LIG-0.34  N 
ATOM     22 H    SER B 401      37.239 -13.796  -9.575  1.00 18.79 LIG 0.16  HD
ATOM     23 O    SER B 400      35.617 -11.616 -10.927  1.00 19.53 LIG-0.27  OA
BRANCH 21 24
ATOM     24  CA  SER B 401      35.275 -14.028  -9.607  1.00 20.07 LIG 0.19  C 
BRANCH 24 25
ATOM     25  C   SER B 401      34.547 -13.329  -8.468  1.00 22.19 LIG 0.22  C 
ATOM     26 O    SER B 401      33.789 -12.378  -8.755  1.00 22.82 LIG-0.29  OA
ENDBRANCH 24 25
BRANCH 24 27
ATOM     27  CB  SER B 401      35.482 -15.506  -9.256  1.00 19.03 LIG 0.20  C 
BRANCH 27 28
ATOM     28 OG   SER B 401      34.514 -16.332  -9.882  1.00 19.07 LIG-0.40  OA
ATOM     29 HG   SER B 401      33.810 -15.892 -10.007  1.00 19.07 LIG 0.21  HD
ENDBRANCH 27 28
ENDBRANCH 24 27
ENDBRANCH 21 24
ENDBRANCH 19 20
BRANCH 19 30
ATOM     30  CB  SER B 400      38.062 -10.218 -10.127  1.00 20.99 LIG 0.20  C 
BRANCH 30 31
ATOM     31 OG   SER B 400      38.369  -9.251 -11.119  1.00 29.12 LIG-0.40  OA
ATOM     32 HG   SER B 400      37.695  -8.771 -11.261  1.00 29.12 LIG 0.21  HD
ENDBRANCH 30 31
ENDBRANCH 19 30
ENDBRANCH 3 19
TORSDOF 13
ENDMDL
MODEL 43
USER: ADFR SOLUTION from run 177
USER: SCORE 10.517238 LL:  -1.881 LR:  -8.896 RR:   0.000 FEB:  -5.018
USER: RMSD 7.100129
USER: SEED 176
USER: STATUS no improvement in best in 6 clusters for 5 generations
USER: GENES 15
USER: genes 0 Translation |==|  0.48517 0.30417 0.56490
USER: genes 1 Rotation |==|  0.34549 0.93571 0.66892 0.58804
USER: genes 2 Torsion [N]-C--CA-[N] |==|  0.34302
USER: genes 3 Torsion [C]-CA--N-[C] |==|  0.77403
USER: genes 4 Torsion [N]-C--CA-[N] |==|  0.90526
USER: genes 5 Torsion [C]-CA--CB-[CG] |==|  0.52682
USER: genes 6 Torsion [CA]-CB--CG-[CD2] |==|  0.33021
USER: genes 7 Torsion [C]-N--CA-[C] |==|  0.18889
USER: genes 8 Torsion [N]-CA--C-[N] |==|  0.06927
USER: genes 9 Torsion [C]-N--CA-[C] |==|  0.77176
USER: genes 10 Torsion [N]-CA--C-[O] |==|  0.80951
USER: genes 11 Torsion [N]-CA--CB-[OG] |==|  0.10446
USER: genes 12 Torsion [CA]-CB--OG-[HG] |==|  0.98442
USER: genes 13 Torsion [N]-CA--CB-[OG] |==|  0.83335
USER: genes 14 Torsion [CA]-CB--OG-[HG] |==|  0.17670
ROOT
ATOM      1  C   HIS B 399      35.383 -16.212  -9.462  1.00 17.93 LIG 0.24  C 
ATOM      2 O    HIS B 399      35.803 -16.535  -8.350  1.00 15.41 LIG-0.27  OA
ATOM      3  N   SER B 400      34.150 -16.475  -9.879  1.00 17.64 LIG-0.34  N 
ATOM      4 H    SER B 400      33.850 -16.245 -10.652  1.00 17.64 LIG 0.16  HD
ENDROOT
BRANCH 1 5
ATOM      5  CA  HIS B 399      36.279 -15.472 -10.447  1.00 18.55 LIG 0.18  C 
BRANCH 5 6
ATOM      6  N   HIS B 399      36.780 -14.245  -9.844  1.00 19.43 LIG-0.34  N 
ATOM      7 H    HIS B 399      37.576 -14.305  -9.525  1.00 19.43 LIG 0.16  HD
ATOM      8  C   ALA B 398      36.045 -13.138  -9.803  1.00 22.32 LIG 0.26  C 
ATOM      9 O    ALA B 398      34.900 -13.077 -10.255  1.00 22.30 LIG-0.27  OA
BRANCH 8 10
ATOM     10  CA  ALA B 398      36.698 -11.922  -9.150  1.00 21.39 LIG 0.40  C 
ATOM     11  N   ALA B 398      37.593 -12.323  -8.024  1.00 23.95 LIG 0.61  N 
ATOM     12  CB  ALA B 398      37.488 -11.133 -10.185  1.00 21.38 LIG 0.06  C 
ENDBRANCH 8 10
ENDBRANCH 5 6
BRANCH 5 13
ATOM     13  CB  HIS B 399      37.455 -16.364 -10.848  1.00 22.49 LIG 0.10  C 
BRANCH 13 14
ATOM     14  CG  HIS B 399      38.510 -15.649 -11.631  1.00 24.90 LIG 0.06  A 
ATOM     15  CD2 HIS B 399      39.819 -15.427 -11.367  1.00 26.88 LIG 0.14  A 
ATOM     16 NE2  HIS B 399      40.347 -14.775 -12.454  1.00 28.66 LIG-0.25  NA
ATOM     17  CE1 HIS B 399      39.395 -14.600 -13.354  1.00 27.08 LIG 0.23  A 
ATOM     18 ND1  HIS B 399      38.275 -15.117 -12.881  1.00 26.64 LIG-0.24  NA
ENDBRANCH 13 14
ENDBRANCH 5 13
ENDBRANCH 1 5
BRANCH 3 19
ATOM     19  CA  SER B 400      33.180 -17.188  -9.053  1.00 19.59 LIG 0.20  C 
BRANCH 19 20
ATOM     20  C   SER B 400      32.783 -16.326  -7.860  1.00 19.52 LIG 0.24  C 
ATOM     21  N   SER B 401      32.912 -15.010  -8.005  1.00 18.79 LIG-0.34  N 
ATOM     22 H    SER B 401      33.202 -14.630  -8.720  1.00 18.79 LIG 0.16  HD
ATOM     23 O    SER B 400      32.360 -16.848  -6.828  1.00 19.53 LIG-0.27  OA
BRANCH 21 24
ATOM     24  CA  SER B 401      32.562 -14.087  -6.929  1.00 20.07 LIG 0.19  C 
BRANCH 24 25
ATOM     25  C   SER B 401      31.063 -13.828  -6.922  1.00 22.19 LIG 0.22  C 
ATOM     26 O    SER B 401      30.576 -13.180  -7.874  1.00 22.82 LIG-0.29  OA
ENDBRANCH 24 25
BRANCH 24 27
ATOM     27  CB  SER B 401      33.313 -12.759  -7.081  1.00 19.03 LIG 0.20  C 
BRANCH 27 28
ATOM     28 OG   SER B 401      33.428 -12.378  -8.442  1.00 19.07 LIG-0.40  OA
ATOM     29 HG   SER B 401      33.128 -12.991  -8.931  1.00 19.07 LIG 0.21  HD
ENDBRANCH 27 28
ENDBRANCH 24 27
ENDBRANCH 21 24
ENDBRANCH 19 20
BRANCH 19 30
ATOM     30  CB  SER B 400      33.785 -18.502  -8.551  1.00 20.99 LIG 0.20  C 
BRANCH 30 31
ATOM     31 OG   SER B 400      34.150 -19.337  -9.638  1.00 29.12 LIG-0.40  OA
ATOM     32 HG   SER B 400      34.754 -18.965 -10.087  1.00 29.12 LIG 0.21  HD
ENDBRANCH 30 31
ENDBRANCH 19 30
ENDBRANCH 3 19
TORSDOF 13
ENDMDL
MODEL 44
USER: ADFR SOLUTION from run 15
USER: SCORE 10.176432 LL:  -2.088 LR:  -8.885 RR:   0.000 FEB:  -5.007
USER: RMSD 5.433321
USER: SEED 631379
USER: STATUS no improvement in best in 9 clusters for 5 generations
USER: GENES 15
USER: genes 0 Translation |==|  0.61750 0.51656 0.52906
USER: genes 1 Rotation |==|  0.71707 0.30011 0.10079 0.55964
USER: genes 2 Torsion [N]-C--CA-[N] |==|  0.68403
USER: genes 3 Torsion [C]-CA--N-[C] |==|  0.72220
USER: genes 4 Torsion [N]-C--CA-[N] |==|  0.44191
USER: genes 5 Torsion [C]-CA--CB-[CG] |==|  0.19703
USER: genes 6 Torsion [CA]-CB--CG-[CD2] |==|  0.97734
USER: genes 7 Torsion [C]-N--CA-[C] |==|  0.81321
USER: genes 8 Torsion [N]-CA--C-[N] |==|  0.94558
USER: genes 9 Torsion [C]-N--CA-[C] |==|  0.82222
USER: genes 10 Torsion [N]-CA--C-[O] |==|  0.87257
USER: genes 11 Torsion [N]-CA--CB-[OG] |==|  0.00861
USER: genes 12 Torsion [CA]-CB--OG-[HG] |==|  0.35759
USER: genes 13 Torsion [N]-CA--CB-[OG] |==|  0.87489
USER: genes 14 Torsion [CA]-CB--OG-[HG] |==|  0.25207
ROOT
ATOM      1  C   HIS B 399      37.765 -12.867 -10.107  1.00 17.93 LIG 0.24  C 
ATOM      2 O    HIS B 399      38.969 -13.029  -9.901  1.00 15.41 LIG-0.27  OA
ATOM      3  N   SER B 400      36.958 -13.840 -10.515  1.00 17.64 LIG-0.34  N 
ATOM      4 H    SER B 400      36.116 -13.734 -10.653  1.00 17.64 LIG 0.16  HD
ENDROOT
BRANCH 1 5
ATOM      5  CA  HIS B 399      37.116 -11.504  -9.898  1.00 18.55 LIG 0.18  C 
BRANCH 5 6
ATOM      6  N   HIS B 399      37.633 -10.550 -10.869  1.00 19.43 LIG-0.34  N 
ATOM      7 H    HIS B 399      37.274 -10.607 -11.648  1.00 19.43 LIG 0.16  HD
ATOM      8  C   ALA B 398      38.580  -9.674 -10.549  1.00 22.32 LIG 0.26  C 
ATOM      9 O    ALA B 398      39.089  -9.618  -9.428  1.00 22.30 LIG-0.27  OA
BRANCH 8 10
ATOM     10  CA  ALA B 398      39.021  -8.725 -11.660  1.00 21.39 LIG 0.40  C 
ATOM     11  N   ALA B 398      39.677  -7.504 -11.106  1.00 23.95 LIG 0.61  N 
ATOM     12  CB  ALA B 398      39.973  -9.438 -12.611  1.00 21.38 LIG 0.06  C 
ENDBRANCH 8 10
ENDBRANCH 5 6
BRANCH 5 13
ATOM     13  CB  HIS B 399      35.599 -11.625 -10.053  1.00 22.49 LIG 0.10  C 
BRANCH 13 14
ATOM     14  CG  HIS B 399      34.939 -12.357  -8.928  1.00 24.90 LIG 0.06  A 
ATOM     15  CD2 HIS B 399      35.462 -13.046  -7.886  1.00 26.88 LIG 0.14  A 
ATOM     16 NE2  HIS B 399      34.410 -13.463  -7.108  1.00 28.66 LIG-0.25  NA
ATOM     17  CE1 HIS B 399      33.280 -13.048  -7.654  1.00 27.08 LIG 0.23  A 
ATOM     18 ND1  HIS B 399      33.572 -12.378  -8.755  1.00 26.64 LIG-0.24  NA
ENDBRANCH 13 14
ENDBRANCH 5 13
ENDBRANCH 1 5
BRANCH 3 19
ATOM     19  CA  SER B 400      37.436 -15.196 -10.770  1.00 19.59 LIG 0.20  C 
BRANCH 19 20
ATOM     20  C   SER B 400      38.366 -15.200 -11.978  1.00 19.52 LIG 0.24  C 
ATOM     21  N   SER B 401      38.275 -14.161 -12.804  1.00 18.79 LIG-0.34  N 
ATOM     22 H    SER B 401      37.732 -13.503 -12.694  1.00 18.79 LIG 0.16  HD
ATOM     23 O    SER B 400      39.156 -16.128 -12.153  1.00 19.53 LIG-0.27  OA
BRANCH 21 24
ATOM     24  CA  SER B 401      39.116 -14.058 -13.994  1.00 20.07 LIG 0.19  C 
BRANCH 24 25
ATOM     25  C   SER B 401      40.581 -13.946 -13.597  1.00 22.19 LIG 0.22  C 
ATOM     26 O    SER B 401      40.879 -13.150 -12.681  1.00 22.82 LIG-0.29  OA
ENDBRANCH 24 25
BRANCH 24 27
ATOM     27  CB  SER B 401      38.718 -12.844 -14.842  1.00 19.03 LIG 0.20  C 
BRANCH 27 28
ATOM     28 OG   SER B 401      37.687 -12.092 -14.224  1.00 19.07 LIG-0.40  OA
ATOM     29 HG   SER B 401      37.911 -11.284 -14.191  1.00 19.07 LIG 0.21  HD
ENDBRANCH 27 28
ENDBRANCH 24 27
ENDBRANCH 21 24
ENDBRANCH 19 20
BRANCH 19 30
ATOM     30  CB  SER B 400      36.252 -16.128 -11.038  1.00 20.99 LIG 0.20  C 
BRANCH 30 31
ATOM     31 OG   SER B 400      35.213 -15.909 -10.096  1.00 29.12 LIG-0.40  OA
ATOM     32 HG   SER B 400      34.683 -15.330 -10.393  1.00 29.12 LIG 0.21  HD
ENDBRANCH 30 31
ENDBRANCH 19 30
ENDBRANCH 3 19
TORSDOF 13
ENDMDL
MODEL 45
USER: ADFR SOLUTION from run 91
USER: SCORE 9.928547 LL:  -1.898 LR:  -8.860 RR:   0.000 FEB:  -4.982
USER: RMSD 7.721482
USER: SEED 90
USER: STATUS no improvement in best in 12 clusters for 5 generations
USER: GENES 15
USER: genes 0 Translation |==|  0.58178 0.62213 0.50081
USER: genes 1 Rotation |==|  0.28762 0.40974 0.05894 0.54708
USER: genes 2 Torsion [N]-C--CA-[N] |==|  0.11061
USER: genes 3 Torsion [C]-CA--N-[C] |==|  0.63041
USER: genes 4 Torsion [N]-C--CA-[N] |==|  0.58273
USER: genes 5 Torsion [C]-CA--CB-[CG] |==|  0.42593
USER: genes 6 Torsion [CA]-CB--CG-[CD2] |==|  0.81799
USER: genes 7 Torsion [C]-N--CA-[C] |==|  0.53019
USER: genes 8 Torsion [N]-CA--C-[N] |==|  0.39349
USER: genes 9 Torsion [C]-N--CA-[C] |==|  0.76887
USER: genes 10 Torsion [N]-CA--C-[O] |==|  0.95766
USER: genes 11 Torsion [N]-CA--CB-[OG] |==|  0.02963
USER: genes 12 Torsion [CA]-CB--OG-[HG] |==|  0.06569
USER: genes 13 Torsion [N]-CA--CB-[OG] |==|  0.51633
USER: genes 14 Torsion [CA]-CB--OG-[HG] |==|  0.88913
ROOT
ATOM      1  C   HIS B 399      37.122 -11.205 -10.615  1.00 17.93 LIG 0.24  C 
ATOM      2 O    HIS B 399      36.916 -11.647 -11.746  1.00 15.41 LIG-0.27  OA
ATOM      3  N   SER B 400      36.488 -11.644  -9.534  1.00 17.64 LIG-0.34  N 
ATOM      4 H    SER B 400      36.634 -11.343  -8.742  1.00 17.64 LIG 0.16  HD
ENDROOT
BRANCH 1 5
ATOM      5  CA  HIS B 399      38.146 -10.099 -10.387  1.00 18.55 LIG 0.18  C 
BRANCH 5 6
ATOM      6  N   HIS B 399      38.893 -10.353  -9.164  1.00 19.43 LIG-0.34  N 
ATOM      7 H    HIS B 399      39.180 -11.159  -9.084  1.00 19.43 LIG 0.16  HD
ATOM      8  C   ALA B 398      39.098  -9.399  -8.261  1.00 22.32 LIG 0.26  C 
ATOM      9 O    ALA B 398      38.666  -8.252  -8.391  1.00 22.30 LIG-0.27  OA
BRANCH 8 10
ATOM     10  CA  ALA B 398      39.906  -9.800  -7.030  1.00 21.39 LIG 0.40  C 
ATOM     11  N   ALA B 398      39.505  -9.003  -5.832  1.00 23.95 LIG 0.61  N 
ATOM     12  CB  ALA B 398      39.727 -11.285  -6.747  1.00 21.38 LIG 0.06  C 
ENDBRANCH 8 10
ENDBRANCH 5 6
BRANCH 5 13
ATOM     13  CB  HIS B 399      39.110 -10.036 -11.574  1.00 22.49 LIG 0.10  C 
BRANCH 13 14
ATOM     14  CG  HIS B 399      39.713  -8.683 -11.782  1.00 24.90 LIG 0.06  A 
ATOM     15  CD2 HIS B 399      39.152  -7.502 -12.135  1.00 26.88 LIG 0.14  A 
ATOM     16 NE2  HIS B 399      40.150  -6.559 -12.118  1.00 28.66 LIG-0.25  NA
ATOM     17  CE1 HIS B 399      41.285  -7.139 -11.769  1.00 27.08 LIG 0.23  A 
ATOM     18 ND1  HIS B 399      41.049  -8.423 -11.563  1.00 26.64 LIG-0.24  NA
ENDBRANCH 13 14
ENDBRANCH 5 13
ENDBRANCH 1 5
BRANCH 3 19
ATOM     19  CA  SER B 400      35.471 -12.690  -9.595  1.00 19.59 LIG 0.20  C 
BRANCH 19 20
ATOM     20  C   SER B 400      34.745 -12.785  -8.259  1.00 19.52 LIG 0.24  C 
ATOM     21  N   SER B 401      33.435 -13.018  -8.306  1.00 18.79 LIG-0.34  N 
ATOM     22 H    SER B 401      32.989 -13.114  -9.035  1.00 18.79 LIG 0.16  HD
ATOM     23 O    SER B 400      35.364 -12.656  -7.202  1.00 19.53 LIG-0.27  OA
BRANCH 21 24
ATOM     24  CA  SER B 401      32.636 -13.128  -7.089  1.00 20.07 LIG 0.19  C 
BRANCH 24 25
ATOM     25  C   SER B 401      32.732 -14.537  -6.521  1.00 22.19 LIG 0.22  C 
ATOM     26 O    SER B 401      33.185 -15.436  -7.261  1.00 22.82 LIG-0.29  OA
ENDBRANCH 24 25
BRANCH 24 27
ATOM     27  CB  SER B 401      31.168 -12.783  -7.365  1.00 19.03 LIG 0.20  C 
BRANCH 27 28
ATOM     28 OG   SER B 401      30.908 -12.684  -8.755  1.00 19.07 LIG-0.40  OA
ATOM     29 HG   SER B 401      31.480 -13.129  -9.180  1.00 19.07 LIG 0.21  HD
ENDBRANCH 27 28
ENDBRANCH 24 27
ENDBRANCH 21 24
ENDBRANCH 19 20
BRANCH 19 30
ATOM     30  CB  SER B 400      36.123 -14.037  -9.916  1.00 20.99 LIG 0.20  C 
BRANCH 30 31
ATOM     31 OG   SER B 400      35.139 -15.040 -10.112  1.00 29.12 LIG-0.40  OA
ATOM     32 HG   SER B 400      34.522 -14.941  -9.552  1.00 29.12 LIG 0.21  HD
ENDBRANCH 30 31
ENDBRANCH 19 30
ENDBRANCH 3 19
TORSDOF 13
ENDMDL
MODEL 46
USER: ADFR SOLUTION from run 33
USER: SCORE 10.683437 LL:  -1.931 LR:  -8.852 RR:   0.000 FEB:  -4.974
USER: RMSD 7.034382
USER: SEED 32
USER: STATUS no improvement in best in 7 clusters for 5 generations
USER: GENES 15
USER: genes 0 Translation |==|  0.48074 0.35946 0.59983
USER: genes 1 Rotation |==|  0.61642 0.02990 0.37651 0.51420
USER: genes 2 Torsion [N]-C--CA-[N] |==|  0.38424
USER: genes 3 Torsion [C]-CA--N-[C] |==|  0.76112
USER: genes 4 Torsion [N]-C--CA-[N] |==|  0.42356
USER: genes 5 Torsion [C]-CA--CB-[CG] |==|  0.65624
USER: genes 6 Torsion [CA]-CB--CG-[CD2] |==|  0.30748
USER: genes 7 Torsion [C]-N--CA-[C] |==|  0.72496
USER: genes 8 Torsion [N]-CA--C-[N] |==|  0.01955
USER: genes 9 Torsion [C]-N--CA-[C] |==|  0.66991
USER: genes 10 Torsion [N]-CA--C-[O] |==|  0.91307
USER: genes 11 Torsion [N]-CA--CB-[OG] |==|  0.09287
USER: genes 12 Torsion [CA]-CB--OG-[HG] |==|  0.22168
USER: genes 13 Torsion [N]-CA--CB-[OG] |==|  0.88954
USER: genes 14 Torsion [CA]-CB--OG-[HG] |==|  0.08380
ROOT
ATOM      1  C   HIS B 399      35.303 -15.342  -8.833  1.00 17.93 LIG 0.24  C 
ATOM      2 O    HIS B 399      36.107 -15.387  -7.900  1.00 15.41 LIG-0.27  OA
ATOM      3  N   SER B 400      34.001 -15.556  -8.684  1.00 17.64 LIG-0.34  N 
ATOM      4 H    SER B 400      33.435 -15.518  -9.331  1.00 17.64 LIG 0.16  HD
ENDROOT
BRANCH 1 5
ATOM      5  CA  HIS B 399      35.772 -15.026 -10.249  1.00 18.55 LIG 0.18  C 
BRANCH 5 6
ATOM      6  N   HIS B 399      36.758 -13.956 -10.223  1.00 19.43 LIG-0.34  N 
ATOM      7 H    HIS B 399      37.574 -14.225 -10.200  1.00 19.43 LIG 0.16  HD
ATOM      8  C   ALA B 398      36.398 -12.676 -10.235  1.00 22.32 LIG 0.26  C 
ATOM      9 O    ALA B 398      35.221 -12.312 -10.255  1.00 22.30 LIG-0.27  OA
BRANCH 8 10
ATOM     10  CA  ALA B 398      37.535 -11.658 -10.215  1.00 21.39 LIG 0.40  C 
ATOM     11  N   ALA B 398      37.132 -10.378 -10.871  1.00 23.95 LIG 0.61  N 
ATOM     12  CB  ALA B 398      37.974 -11.390  -8.783  1.00 21.38 LIG 0.06  C 
ENDBRANCH 8 10
ENDBRANCH 5 6
BRANCH 5 13
ATOM     13  CB  HIS B 399      36.387 -16.277 -10.880  1.00 22.49 LIG 0.10  C 
BRANCH 13 14
ATOM     14  CG  HIS B 399      37.789 -16.076 -11.360  1.00 24.90 LIG 0.06  A 
ATOM     15  CD2 HIS B 399      38.966 -16.566 -10.905  1.00 26.88 LIG 0.14  A 
ATOM     16 NE2  HIS B 399      39.947 -16.119 -11.755  1.00 28.66 LIG-0.25  NA
ATOM     17  CE1 HIS B 399      39.394 -15.378 -12.699  1.00 27.08 LIG 0.23  A 
ATOM     18 ND1  HIS B 399      38.091 -15.334 -12.483  1.00 26.64 LIG-0.24  NA
ENDBRANCH 13 14
ENDBRANCH 5 13
ENDBRANCH 1 5
BRANCH 3 19
ATOM     19  CA  SER B 400      33.405 -15.881  -7.391  1.00 19.59 LIG 0.20  C 
BRANCH 19 20
ATOM     20  C   SER B 400      33.189 -17.386  -7.283  1.00 19.52 LIG 0.24  C 
ATOM     21  N   SER B 401      33.689 -18.133  -8.265  1.00 18.79 LIG-0.34  N 
ATOM     22 H    SER B 401      34.117 -17.817  -8.940  1.00 18.79 LIG 0.16  HD
ATOM     23 O    SER B 400      32.584 -17.861  -6.322  1.00 19.53 LIG-0.27  OA
BRANCH 21 24
ATOM     24  CA  SER B 401      33.542 -19.586  -8.267  1.00 20.07 LIG 0.19  C 
BRANCH 24 25
ATOM     25  C   SER B 401      34.908 -20.255  -8.231  1.00 22.19 LIG 0.22  C 
ATOM     26 O    SER B 401      35.863 -19.665  -8.782  1.00 22.82 LIG-0.29  OA
ENDBRANCH 24 25
BRANCH 24 27
ATOM     27  CB  SER B 401      32.770 -20.056  -9.506  1.00 19.03 LIG 0.20  C 
BRANCH 27 28
ATOM     28 OG   SER B 401      33.040 -19.235 -10.630  1.00 19.07 LIG-0.40  OA
ATOM     29 HG   SER B 401      33.775 -19.458 -10.970  1.00 19.07 LIG 0.21  HD
ENDBRANCH 27 28
ENDBRANCH 24 27
ENDBRANCH 21 24
ENDBRANCH 19 20
BRANCH 19 30
ATOM     30  CB  SER B 400      32.062 -15.163  -7.237  1.00 20.99 LIG 0.20  C 
BRANCH 30 31
ATOM     31 OG   SER B 400      32.131 -13.846  -7.761  1.00 29.12 LIG-0.40  OA
ATOM     32 HG   SER B 400      32.686 -13.823  -8.390  1.00 29.12 LIG 0.21  HD
ENDBRANCH 30 31
ENDBRANCH 19 30
ENDBRANCH 3 19
TORSDOF 13
ENDMDL
MODEL 47
USER: ADFR SOLUTION from run 166
USER: SCORE 10.548959 LL:  -1.936 LR:  -8.845 RR:   0.000 FEB:  -4.967
USER: RMSD 6.557330
USER: SEED 165
USER: STATUS no improvement in best in 15 clusters for 5 generations
USER: GENES 15
USER: genes 0 Translation |==|  0.64538 0.64614 0.52641
USER: genes 1 Rotation |==|  0.15213 0.17991 0.65950 0.53303
USER: genes 2 Torsion [N]-C--CA-[N] |==|  0.13516
USER: genes 3 Torsion [C]-CA--N-[C] |==|  0.15000
USER: genes 4 Torsion [N]-C--CA-[N] |==|  0.26321
USER: genes 5 Torsion [C]-CA--CB-[CG] |==|  0.30425
USER: genes 6 Torsion [CA]-CB--CG-[CD2] |==|  0.62080
USER: genes 7 Torsion [C]-N--CA-[C] |==|  0.87041
USER: genes 8 Torsion [N]-CA--C-[N] |==|  0.36538
USER: genes 9 Torsion [C]-N--CA-[C] |==|  0.59790
USER: genes 10 Torsion [N]-CA--C-[O] |==|  0.05894
USER: genes 11 Torsion [N]-CA--CB-[OG] |==|  0.01628
USER: genes 12 Torsion [CA]-CB--OG-[HG] |==|  0.85758
USER: genes 13 Torsion [N]-CA--CB-[OG] |==|  0.09853
USER: genes 14 Torsion [CA]-CB--OG-[HG] |==|  0.05043
ROOT
ATOM      1  C   HIS B 399      38.267 -10.826 -10.155  1.00 17.93 LIG 0.24  C 
ATOM      2 O    HIS B 399      38.858 -11.232  -9.153  1.00 15.41 LIG-0.27  OA
ATOM      3  N   SER B 400      38.631  -9.739 -10.826  1.00 17.64 LIG-0.34  N 
ATOM      4 H    SER B 400      38.226  -9.456 -11.529  1.00 17.64 LIG 0.16  HD
ENDROOT
BRANCH 1 5
ATOM      5  CA  HIS B 399      37.052 -11.571 -10.696  1.00 18.55 LIG 0.18  C 
BRANCH 5 6
ATOM      6  N   HIS B 399      37.191 -11.779 -12.130  1.00 19.43 LIG-0.34  N 
ATOM      7 H    HIS B 399      36.529 -11.493 -12.596  1.00 19.43 LIG 0.16  HD
ATOM      8  C   ALA B 398      38.266 -12.367 -12.648  1.00 22.32 LIG 0.26  C 
ATOM      9 O    ALA B 398      39.200 -12.781 -11.959  1.00 22.30 LIG-0.27  OA
BRANCH 8 10
ATOM     10  CA  ALA B 398      38.286 -12.511 -14.167  1.00 21.39 LIG 0.40  C 
ATOM     11  N   ALA B 398      39.017 -11.381 -14.813  1.00 23.95 LIG 0.61  N 
ATOM     12  CB  ALA B 398      38.928 -13.835 -14.559  1.00 21.38 LIG 0.06  C 
ENDBRANCH 8 10
ENDBRANCH 5 6
BRANCH 5 13
ATOM     13  CB  HIS B 399      36.918 -12.922  -9.991  1.00 22.49 LIG 0.10  C 
BRANCH 13 14
ATOM     14  CG  HIS B 399      35.752 -12.996  -9.057  1.00 24.90 LIG 0.06  A 
ATOM     15  CD2 HIS B 399      35.644 -13.504  -7.807  1.00 26.88 LIG 0.14  A 
ATOM     16 NE2  HIS B 399      34.364 -13.250  -7.376  1.00 28.66 LIG-0.25  NA
ATOM     17  CE1 HIS B 399      33.709 -12.612  -8.329  1.00 27.08 LIG 0.23  A 
ATOM     18 ND1  HIS B 399      34.524 -12.447  -9.356  1.00 26.64 LIG-0.24  NA
ENDBRANCH 13 14
ENDBRANCH 5 13
ENDBRANCH 1 5
BRANCH 3 19
ATOM     19  CA  SER B 400      39.766  -8.915 -10.422  1.00 19.59 LIG 0.20  C 
BRANCH 19 20
ATOM     20  C   SER B 400      39.704  -8.646  -8.923  1.00 19.52 LIG 0.24  C 
ATOM     21  N   SER B 401      40.823  -8.852  -8.232  1.00 18.79 LIG-0.34  N 
ATOM     22 H    SER B 401      41.561  -9.123  -8.580  1.00 18.79 LIG 0.16  HD
ATOM     23 O    SER B 400      38.659  -8.251  -8.403  1.00 19.53 LIG-0.27  OA
BRANCH 21 24
ATOM     24  CA  SER B 401      40.880  -8.628  -6.790  1.00 20.07 LIG 0.19  C 
BRANCH 24 25
ATOM     25  C   SER B 401      42.246  -8.087  -6.394  1.00 22.19 LIG 0.22  C 
ATOM     26 O    SER B 401      42.937  -7.539  -7.280  1.00 22.82 LIG-0.29  OA
ENDBRANCH 24 25
BRANCH 24 27
ATOM     27  CB  SER B 401      40.598  -9.925  -6.023  1.00 19.03 LIG 0.20  C 
BRANCH 27 28
ATOM     28 OG   SER B 401      40.486 -11.035  -6.898  1.00 19.07 LIG-0.40  OA
ATOM     29 HG   SER B 401      39.939 -10.855  -7.510  1.00 19.07 LIG 0.21  HD
ENDBRANCH 27 28
ENDBRANCH 24 27
ENDBRANCH 21 24
ENDBRANCH 19 20
BRANCH 19 30
ATOM     30  CB  SER B 400      39.744  -7.584 -11.177  1.00 20.99 LIG 0.20  C 
BRANCH 30 31
ATOM     31 OG   SER B 400      38.412  -7.140 -11.379  1.00 29.12 LIG-0.40  OA
ATOM     32 HG   SER B 400      37.900  -7.540 -10.848  1.00 29.12 LIG 0.21  HD
ENDBRANCH 30 31
ENDBRANCH 19 30
ENDBRANCH 3 19
TORSDOF 13
ENDMDL
MODEL 48
USER: ADFR SOLUTION from run 21
USER: SCORE 10.188714 LL:  -1.930 LR:  -8.833 RR:   0.000 FEB:  -4.955
USER: RMSD 6.814731
USER: SEED 20
USER: STATUS no improvement in best in 24 clusters for 5 generations
USER: GENES 15
USER: genes 0 Translation |==|  0.55700 0.48014 0.57233
USER: genes 1 Rotation |==|  0.66815 0.03843 0.40878 0.51883
USER: genes 2 Torsion [N]-C--CA-[N] |==|  0.40961
USER: genes 3 Torsion [C]-CA--N-[C] |==|  0.79448
USER: genes 4 Torsion [N]-C--CA-[N] |==|  0.23907
USER: genes 5 Torsion [C]-CA--CB-[CG] |==|  0.05423
USER: genes 6 Torsion [CA]-CB--CG-[CD2] |==|  0.22289
USER: genes 7 Torsion [C]-N--CA-[C] |==|  0.65833
USER: genes 8 Torsion [N]-CA--C-[N] |==|  0.80058
USER: genes 9 Torsion [C]-N--CA-[C] |==|  0.17595
USER: genes 10 Torsion [N]-CA--C-[O] |==|  0.18194
USER: genes 11 Torsion [N]-CA--CB-[OG] |==|  0.64288
USER: genes 12 Torsion [CA]-CB--OG-[HG] |==|  0.40085
USER: genes 13 Torsion [N]-CA--CB-[OG] |==|  0.99240
USER: genes 14 Torsion [CA]-CB--OG-[HG] |==|  0.22961
ROOT
ATOM      1  C   HIS B 399      36.676 -13.441  -9.328  1.00 17.93 LIG 0.24  C 
ATOM      2 O    HIS B 399      37.400 -13.217  -8.357  1.00 15.41 LIG-0.27  OA
ATOM      3  N   SER B 400      35.438 -13.911  -9.221  1.00 17.64 LIG-0.34  N 
ATOM      4 H    SER B 400      34.926 -14.061  -9.895  1.00 17.64 LIG 0.16  HD
ENDROOT
BRANCH 1 5
ATOM      5  CA  HIS B 399      37.173 -13.182 -10.745  1.00 18.55 LIG 0.18  C 
BRANCH 5 6
ATOM      6  N   HIS B 399      38.090 -12.051 -10.755  1.00 19.43 LIG-0.34  N 
ATOM      7 H    HIS B 399      38.916 -12.265 -10.854  1.00 19.43 LIG 0.16  HD
ATOM      8  C   ALA B 398      37.657 -10.801 -10.621  1.00 22.32 LIG 0.26  C 
ATOM      9 O    ALA B 398      36.467 -10.518 -10.468  1.00 22.30 LIG-0.27  OA
BRANCH 8 10
ATOM     10  CA  ALA B 398      38.725  -9.712 -10.661  1.00 21.39 LIG 0.40  C 
ATOM     11  N   ALA B 398      39.025  -9.293 -12.062  1.00 23.95 LIG 0.61  N 
ATOM     12  CB  ALA B 398      38.275  -8.507  -9.846  1.00 21.38 LIG 0.06  C 
ENDBRANCH 8 10
ENDBRANCH 5 6
BRANCH 5 13
ATOM     13  CB  HIS B 399      37.886 -14.426 -11.278  1.00 22.49 LIG 0.10  C 
BRANCH 13 14
ATOM     14  CG  HIS B 399      37.536 -15.679 -10.538  1.00 24.90 LIG 0.06  A 
ATOM     15  CD2 HIS B 399      36.462 -16.497 -10.631  1.00 26.88 LIG 0.14  A 
ATOM     16 NE2  HIS B 399      36.675 -17.544  -9.768  1.00 28.66 LIG-0.25  NA
ATOM     17  CE1 HIS B 399      37.837 -17.374  -9.164  1.00 27.08 LIG 0.23  A 
ATOM     18 ND1  HIS B 399      38.378 -16.253  -9.610  1.00 26.64 LIG-0.24  NA
ENDBRANCH 13 14
ENDBRANCH 5 13
ENDBRANCH 1 5
BRANCH 3 19
ATOM     19  CA  SER B 400      34.828 -14.218  -7.931  1.00 19.59 LIG 0.20  C 
BRANCH 19 20
ATOM     20  C   SER B 400      34.378 -15.674  -7.905  1.00 19.52 LIG 0.24  C 
ATOM     21  N   SER B 401      33.317 -15.985  -8.646  1.00 18.79 LIG-0.34  N 
ATOM     22 H    SER B 401      32.884 -15.419  -9.127  1.00 18.79 LIG 0.16  HD
ATOM     23 O    SER B 400      34.987 -16.503  -7.227  1.00 19.53 LIG-0.27  OA
BRANCH 21 24
ATOM     24  CA  SER B 401      32.796 -17.348  -8.697  1.00 20.07 LIG 0.19  C 
BRANCH 24 25
ATOM     25  C   SER B 401      32.301 -17.776  -7.323  1.00 22.19 LIG 0.22  C 
ATOM     26 O    SER B 401      31.316 -17.174  -6.843  1.00 22.82 LIG-0.29  OA
ENDBRANCH 24 25
BRANCH 24 27
ATOM     27  CB  SER B 401      33.871 -18.327  -9.185  1.00 19.03 LIG 0.20  C 
BRANCH 27 28
ATOM     28 OG   SER B 401      33.400 -19.128 -10.255  1.00 19.07 LIG-0.40  OA
ATOM     29 HG   SER B 401      34.025 -19.269 -10.797  1.00 19.07 LIG 0.21  HD
ENDBRANCH 27 28
ENDBRANCH 24 27
ENDBRANCH 21 24
ENDBRANCH 19 20
BRANCH 19 30
ATOM     30  CB  SER B 400      33.620 -13.309  -7.692  1.00 20.99 LIG 0.20  C 
BRANCH 30 31
ATOM     31 OG   SER B 400      33.467 -12.382  -8.755  1.00 29.12 LIG-0.40  OA
ATOM     32 HG   SER B 400      33.058 -12.749  -9.390  1.00 29.12 LIG 0.21  HD
ENDBRANCH 30 31
ENDBRANCH 19 30
ENDBRANCH 3 19
TORSDOF 13
ENDMDL
MODEL 49
USER: ADFR SOLUTION from run 37
USER: SCORE 10.282769 LL:  -1.655 LR:  -8.832 RR:   0.000 FEB:  -4.954
USER: RMSD 7.537469
USER: SEED 36
USER: STATUS no improvement in best in 16 clusters for 5 generations
USER: GENES 15
USER: genes 0 Translation |==|  0.52773 0.50230 0.52117
USER: genes 1 Rotation |==|  0.12999 0.69044 0.27463 0.66136
USER: genes 2 Torsion [N]-C--CA-[N] |==|  0.28658
USER: genes 3 Torsion [C]-CA--N-[C] |==|  0.74012
USER: genes 4 Torsion [N]-C--CA-[N] |==|  0.24296
USER: genes 5 Torsion [C]-CA--CB-[CG] |==|  0.53439
USER: genes 6 Torsion [CA]-CB--CG-[CD2] |==|  0.46742
USER: genes 7 Torsion [C]-N--CA-[C] |==|  0.81661
USER: genes 8 Torsion [N]-CA--C-[N] |==|  0.96667
USER: genes 9 Torsion [C]-N--CA-[C] |==|  0.80487
USER: genes 10 Torsion [N]-CA--C-[O] |==|  0.99947
USER: genes 11 Torsion [N]-CA--CB-[OG] |==|  0.03525
USER: genes 12 Torsion [CA]-CB--OG-[HG] |==|  0.20526
USER: genes 13 Torsion [N]-CA--CB-[OG] |==|  0.51834
USER: genes 14 Torsion [CA]-CB--OG-[HG] |==|  0.38255
ROOT
ATOM      1  C   HIS B 399      36.149 -13.092 -10.249  1.00 17.93 LIG 0.24  C 
ATOM      2 O    HIS B 399      35.013 -12.615 -10.248  1.00 15.41 LIG-0.27  OA
ATOM      3  N   SER B 400      36.395 -14.388 -10.097  1.00 17.64 LIG-0.34  N 
ATOM      4 H    SER B 400      37.186 -14.727 -10.104  1.00 17.64 LIG 0.16  HD
ENDROOT
BRANCH 1 5
ATOM      5  CA  HIS B 399      37.369 -12.196 -10.431  1.00 18.55 LIG 0.18  C 
BRANCH 5 6
ATOM      6  N   HIS B 399      37.510 -11.822 -11.831  1.00 19.43 LIG-0.34  N 
ATOM      7 H    HIS B 399      37.061 -11.126 -12.060  1.00 19.43 LIG 0.16  HD
ATOM      8  C   ALA B 398      38.278 -12.518 -12.665  1.00 22.32 LIG 0.26  C 
ATOM      9 O    ALA B 398      38.904 -13.521 -12.318  1.00 22.30 LIG-0.27  OA
BRANCH 8 10
ATOM     10  CA  ALA B 398      38.343 -12.008 -14.102  1.00 21.39 LIG 0.40  C 
ATOM     11  N   ALA B 398      39.414 -10.981 -14.267  1.00 23.95 LIG 0.61  N 
ATOM     12  CB  ALA B 398      38.585 -13.167 -15.058  1.00 21.38 LIG 0.06  C 
ENDBRANCH 8 10
ENDBRANCH 5 6
BRANCH 5 13
ATOM     13  CB  HIS B 399      37.218 -10.937  -9.576  1.00 22.49 LIG 0.10  C 
BRANCH 13 14
ATOM     14  CG  HIS B 399      38.211  -9.868  -9.904  1.00 24.90 LIG 0.06  A 
ATOM     15  CD2 HIS B 399      38.275  -8.567  -9.535  1.00 26.88 LIG 0.14  A 
ATOM     16 NE2  HIS B 399      39.433  -8.053 -10.063  1.00 28.66 LIG-0.25  NA
ATOM     17  CE1 HIS B 399      40.059  -9.002 -10.736  1.00 27.08 LIG 0.23  A 
ATOM     18 ND1  HIS B 399      39.341 -10.109 -10.657  1.00 26.64 LIG-0.24  NA
ENDBRANCH 13 14
ENDBRANCH 5 13
ENDBRANCH 1 5
BRANCH 3 19
ATOM     19  CA  SER B 400      35.331 -15.368  -9.900  1.00 19.59 LIG 0.20  C 
BRANCH 19 20
ATOM     20  C   SER B 400      34.641 -15.122  -8.563  1.00 19.52 LIG 0.24  C 
ATOM     21  N   SER B 401      35.242 -14.280  -7.726  1.00 18.79 LIG-0.34  N 
ATOM     22 H    SER B 401      35.982 -13.877  -7.898  1.00 18.79 LIG 0.16  HD
ATOM     23 O    SER B 400      33.577 -15.683  -8.298  1.00 19.53 LIG-0.27  OA
BRANCH 21 24
ATOM     24  CA  SER B 401      34.673 -13.969  -6.418  1.00 20.07 LIG 0.19  C 
BRANCH 24 25
ATOM     25  C   SER B 401      33.414 -13.129  -6.576  1.00 22.19 LIG 0.22  C 
ATOM     26 O    SER B 401      33.054 -12.827  -7.734  1.00 22.82 LIG-0.29  OA
ENDBRANCH 24 25
BRANCH 24 27
ATOM     27  CB  SER B 401      35.686 -13.220  -5.544  1.00 19.03 LIG 0.20  C 
BRANCH 27 28
ATOM     28 OG   SER B 401      36.794 -12.766  -6.304  1.00 19.07 LIG-0.40  OA
ATOM     29 HG   SER B 401      36.561 -12.110  -6.774  1.00 19.07 LIG 0.21  HD
ENDBRANCH 27 28
ENDBRANCH 24 27
ENDBRANCH 21 24
ENDBRANCH 19 20
BRANCH 19 30
ATOM     30  CB  SER B 400      35.911 -16.784  -9.918  1.00 20.99 LIG 0.20  C 
BRANCH 30 31
ATOM     31 OG   SER B 400      34.877 -17.754  -9.880  1.00 29.12 LIG-0.40  OA
ATOM     32 HG   SER B 400      35.054 -18.374 -10.418  1.00 29.12 LIG 0.21  HD
ENDBRANCH 30 31
ENDBRANCH 19 30
ENDBRANCH 3 19
TORSDOF 13
ENDMDL
MODEL 50
USER: ADFR SOLUTION from run 116
USER: SCORE 10.055612 LL:  -2.242 LR:  -8.818 RR:   0.000 FEB:  -4.940
USER: RMSD 7.299644
USER: SEED 115
USER: STATUS no improvement in best in 6 clusters for 5 generations
USER: GENES 15
USER: genes 0 Translation |==|  0.51200 0.31173 0.50942
USER: genes 1 Rotation |==|  0.16791 0.75390 0.22827 0.53762
USER: genes 2 Torsion [N]-C--CA-[N] |==|  0.53889
USER: genes 3 Torsion [C]-CA--N-[C] |==|  0.65579
USER: genes 4 Torsion [N]-C--CA-[N] |==|  0.60017
USER: genes 5 Torsion [C]-CA--CB-[CG] |==|  0.88259
USER: genes 6 Torsion [CA]-CB--CG-[CD2] |==|  0.36787
USER: genes 7 Torsion [C]-N--CA-[C] |==|  0.80492
USER: genes 8 Torsion [N]-CA--C-[N] |==|  0.20620
USER: genes 9 Torsion [C]-N--CA-[C] |==|  0.74802
USER: genes 10 Torsion [N]-CA--C-[O] |==|  0.82612
USER: genes 11 Torsion [N]-CA--CB-[OG] |==|  0.12931
USER: genes 12 Torsion [CA]-CB--OG-[HG] |==|  0.02941
USER: genes 13 Torsion [N]-CA--CB-[OG] |==|  0.73835
USER: genes 14 Torsion [CA]-CB--OG-[HG] |==|  0.16376
ROOT
ATOM      1  C   HIS B 399      35.866 -16.093 -10.460  1.00 17.93 LIG 0.24  C 
ATOM      2 O    HIS B 399      35.128 -15.118 -10.604  1.00 15.41 LIG-0.27  OA
ATOM      3  N   SER B 400      35.455 -17.249  -9.951  1.00 17.64 LIG-0.34  N 
ATOM      4 H    SER B 400      35.965 -17.935  -9.856  1.00 17.64 LIG 0.16  HD
ENDROOT
BRANCH 1 5
ATOM      5  CA  HIS B 399      37.332 -16.027 -10.872  1.00 18.55 LIG 0.18  C 
BRANCH 5 6
ATOM      6  N   HIS B 399      37.727 -14.644 -11.095  1.00 19.43 LIG-0.34  N 
ATOM      7 H    HIS B 399      37.592 -14.123 -10.425  1.00 19.43 LIG 0.16  HD
ATOM      8  C   ALA B 398      38.250 -14.246 -12.251  1.00 22.32 LIG 0.26  C 
ATOM      9 O    ALA B 398      38.423 -15.007 -13.205  1.00 22.30 LIG-0.27  OA
BRANCH 8 10
ATOM     10  CA  ALA B 398      38.629 -12.770 -12.345  1.00 21.39 LIG 0.40  C 
ATOM     11  N   ALA B 398      38.370 -12.227 -13.712  1.00 23.95 LIG 0.61  N 
ATOM     12  CB  ALA B 398      37.854 -11.964 -11.313  1.00 21.38 LIG 0.06  C 
ENDBRANCH 8 10
ENDBRANCH 5 6
BRANCH 5 13
ATOM     13  CB  HIS B 399      38.205 -16.640  -9.775  1.00 22.49 LIG 0.10  C 
BRANCH 13 14
ATOM     14  CG  HIS B 399      37.792 -16.245  -8.392  1.00 24.90 LIG 0.06  A 
ATOM     15  CD2 HIS B 399      37.598 -16.985  -7.276  1.00 26.88 LIG 0.14  A 
ATOM     16 NE2  HIS B 399      37.290 -16.113  -6.260  1.00 28.66 LIG-0.25  NA
ATOM     17  CE1 HIS B 399      37.293 -14.881  -6.736  1.00 27.08 LIG 0.23  A 
ATOM     18 ND1  HIS B 399      37.591 -14.932  -8.023  1.00 26.64 LIG-0.24  NA
ENDBRANCH 13 14
ENDBRANCH 5 13
ENDBRANCH 1 5
BRANCH 3 19
ATOM     19  CA  SER B 400      34.083 -17.461  -9.500  1.00 19.59 LIG 0.20  C 
BRANCH 19 20
ATOM     20  C   SER B 400      33.824 -16.658  -8.231  1.00 19.52 LIG 0.24  C 
ATOM     21  N   SER B 401      33.681 -15.343  -8.375  1.00 18.79 LIG-0.34  N 
ATOM     22 H    SER B 401      33.726 -14.933  -9.130  1.00 18.79 LIG 0.16  HD
ATOM     23 O    SER B 400      33.750 -17.224  -7.140  1.00 19.53 LIG-0.27  OA
BRANCH 21 24
ATOM     24  CA  SER B 401      33.430 -14.473  -7.229  1.00 20.07 LIG 0.19  C 
BRANCH 24 25
ATOM     25  C   SER B 401      31.934 -14.318  -7.002  1.00 22.19 LIG 0.22  C 
ATOM     26 O    SER B 401      31.258 -13.781  -7.906  1.00 22.82 LIG-0.29  OA
ENDBRANCH 24 25
BRANCH 24 27
ATOM     27  CB  SER B 401      34.066 -13.094  -7.439  1.00 19.03 LIG 0.20  C 
BRANCH 27 28
ATOM     28 OG   SER B 401      33.785 -12.582  -8.731  1.00 19.07 LIG-0.40  OA
ATOM     29 HG   SER B 401      33.201 -13.059  -9.101  1.00 19.07 LIG 0.21  HD
ENDBRANCH 27 28
ENDBRANCH 24 27
ENDBRANCH 21 24
ENDBRANCH 19 20
BRANCH 19 30
ATOM     30  CB  SER B 400      33.847 -18.947  -9.218  1.00 20.99 LIG 0.20  C 
BRANCH 30 31
ATOM     31 OG   SER B 400      33.294 -19.595 -10.352  1.00 29.12 LIG-0.40  OA
ATOM     32 HG   SER B 400      33.815 -19.512 -11.005  1.00 29.12 LIG 0.21  HD
ENDBRANCH 30 31
ENDBRANCH 19 30
ENDBRANCH 3 19
TORSDOF 13
ENDMDL
MODEL 51
USER: ADFR SOLUTION from run 176
USER: SCORE 9.727952 LL:  -2.354 LR:  -8.820 RR:   0.000 FEB:  -4.942
USER: RMSD 6.811137
USER: SEED 175
USER: STATUS no improvement in best in 10 clusters for 5 generations
USER: GENES 15
USER: genes 0 Translation |==|  0.48946 0.54767 0.59976
USER: genes 1 Rotation |==|  0.65454 0.03752 0.39054 0.51556
USER: genes 2 Torsion [N]-C--CA-[N] |==|  0.35627
USER: genes 3 Torsion [C]-CA--N-[C] |==|  0.21159
USER: genes 4 Torsion [N]-C--CA-[N] |==|  0.40510
USER: genes 5 Torsion [C]-CA--CB-[CG] |==|  0.07725
USER: genes 6 Torsion [CA]-CB--CG-[CD2] |==|  0.24251
USER: genes 7 Torsion [C]-N--CA-[C] |==|  0.75719
USER: genes 8 Torsion [N]-CA--C-[N] |==|  0.83923
USER: genes 9 Torsion [C]-N--CA-[C] |==|  0.51911
USER: genes 10 Torsion [N]-CA--C-[O] |==|  0.28815
USER: genes 11 Torsion [N]-CA--CB-[OG] |==|  0.74297
USER: genes 12 Torsion [CA]-CB--OG-[HG] |==|  0.10300
USER: genes 13 Torsion [N]-CA--CB-[OG] |==|  0.99878
USER: genes 14 Torsion [CA]-CB--OG-[HG] |==|  0.10289
ROOT
ATOM      1  C   HIS B 399      35.460 -12.377  -8.834  1.00 17.93 LIG 0.24  C 
ATOM      2 O    HIS B 399      36.216 -12.262  -7.868  1.00 15.41 LIG-0.27  OA
ATOM      3  N   SER B 400      34.200 -12.784  -8.730  1.00 17.64 LIG-0.34  N 
ATOM      4 H    SER B 400      33.667 -12.858  -9.400  1.00 17.64 LIG 0.16  HD
ENDROOT
BRANCH 1 5
ATOM      5  CA  HIS B 399      35.942 -12.048 -10.242  1.00 18.55 LIG 0.18  C 
BRANCH 5 6
ATOM      6  N   HIS B 399      36.546 -10.724 -10.268  1.00 19.43 LIG-0.34  N 
ATOM      7 H    HIS B 399      36.051 -10.115 -10.617  1.00 19.43 LIG 0.16  HD
ATOM      8  C   ALA B 398      37.765 -10.504  -9.784  1.00 22.32 LIG 0.26  C 
ATOM      9 O    ALA B 398      38.463 -11.396  -9.298  1.00 22.30 LIG-0.27  OA
BRANCH 8 10
ATOM     10  CA  ALA B 398      38.271  -9.066  -9.865  1.00 21.39 LIG 0.40  C 
ATOM     11  N   ALA B 398      39.133  -8.725  -8.694  1.00 23.95 LIG 0.61  N 
ATOM     12  CB  ALA B 398      39.047  -8.856 -11.158  1.00 21.38 LIG 0.06  C 
ENDBRANCH 8 10
ENDBRANCH 5 6
BRANCH 5 13
ATOM     13  CB  HIS B 399      36.968 -13.090 -10.693  1.00 22.49 LIG 0.10  C 
BRANCH 13 14
ATOM     14  CG  HIS B 399      36.783 -14.429 -10.052  1.00 24.90 LIG 0.06  A 
ATOM     15  CD2 HIS B 399      36.018 -15.488 -10.406  1.00 26.88 LIG 0.14  A 
ATOM     16 NE2  HIS B 399      36.273 -16.491  -9.504  1.00 28.66 LIG-0.25  NA
ATOM     17  CE1 HIS B 399      37.161 -16.064  -8.625  1.00 27.08 LIG 0.23  A 
ATOM     18 ND1  HIS B 399      37.485 -14.820  -8.932  1.00 26.64 LIG-0.24  NA
ENDBRANCH 13 14
ENDBRANCH 5 13
ENDBRANCH 1 5
BRANCH 3 19
ATOM     19  CA  SER B 400      33.600 -13.146  -7.449  1.00 19.59 LIG 0.20  C 
BRANCH 19 20
ATOM     20  C   SER B 400      33.864 -14.617  -7.150  1.00 19.52 LIG 0.24  C 
ATOM     21  N   SER B 401      33.429 -15.497  -8.050  1.00 18.79 LIG-0.34  N 
ATOM     22 H    SER B 401      33.017 -15.282  -8.773  1.00 18.79 LIG 0.16  HD
ATOM     23 O    SER B 400      34.458 -14.947  -6.124  1.00 19.53 LIG-0.27  OA
BRANCH 21 24
ATOM     24  CA  SER B 401      33.626 -16.932  -7.868  1.00 20.07 LIG 0.19  C 
BRANCH 24 25
ATOM     25  C   SER B 401      33.187 -17.687  -9.114  1.00 22.19 LIG 0.22  C 
ATOM     26 O    SER B 401      34.076 -18.119  -9.880  1.00 22.82 LIG-0.29  OA
ENDBRANCH 24 25
BRANCH 24 27
ATOM     27  CB  SER B 401      32.841 -17.442  -6.654  1.00 19.03 LIG 0.20  C 
BRANCH 27 28
ATOM     28 OG   SER B 401      33.633 -17.430  -5.478  1.00 19.07 LIG-0.40  OA
ATOM     29 HG   SER B 401      34.131 -16.754  -5.483  1.00 19.07 LIG 0.21  HD
ENDBRANCH 27 28
ENDBRANCH 24 27
ENDBRANCH 21 24
ENDBRANCH 19 20
BRANCH 19 30
ATOM     30  CB  SER B 400      32.089 -12.900  -7.490  1.00 20.99 LIG 0.20  C 
BRANCH 30 31
ATOM     31 OG   SER B 400      31.696 -12.381  -8.750  1.00 29.12 LIG-0.40  OA
ATOM     32 HG   SER B 400      32.150 -12.743  -9.357  1.00 29.12 LIG 0.21  HD
ENDBRANCH 30 31
ENDBRANCH 19 30
ENDBRANCH 3 19
TORSDOF 13
ENDMDL
MODEL 52
USER: ADFR SOLUTION from run 103
USER: SCORE 10.371416 LL:  -1.934 LR:  -8.805 RR:   0.000 FEB:  -4.927
USER: RMSD 8.448802
USER: SEED 102
USER: STATUS no improvement in best in 30 clusters for 5 generations
USER: GENES 15
USER: genes 0 Translation |==|  0.70187 0.71300 0.59306
USER: genes 1 Rotation |==|  0.95802 0.69766 0.52865 0.51814
USER: genes 2 Torsion [N]-C--CA-[N] |==|  0.02343
USER: genes 3 Torsion [C]-CA--N-[C] |==|  0.70880
USER: genes 4 Torsion [N]-C--CA-[N] |==|  0.28017
USER: genes 5 Torsion [C]-CA--CB-[CG] |==|  0.21848
USER: genes 6 Torsion [CA]-CB--CG-[CD2] |==|  0.24504
USER: genes 7 Torsion [C]-N--CA-[C] |==|  0.57300
USER: genes 8 Torsion [N]-CA--C-[N] |==|  0.37107
USER: genes 9 Torsion [C]-N--CA-[C] |==|  0.81630
USER: genes 10 Torsion [N]-CA--C-[O] |==|  0.99676
USER: genes 11 Torsion [N]-CA--CB-[OG] |==|  0.08932
USER: genes 12 Torsion [CA]-CB--OG-[HG] |==|  0.69026
USER: genes 13 Torsion [N]-CA--CB-[OG] |==|  0.45328
USER: genes 14 Torsion [CA]-CB--OG-[HG] |==|  0.85898
ROOT
ATOM      1  C   HIS B 399      39.284  -9.773  -8.955  1.00 17.93 LIG 0.24  C 
ATOM      2 O    HIS B 399      38.692 -10.348  -8.040  1.00 15.41 LIG-0.27  OA
ATOM      3  N   SER B 400      40.461  -9.178  -8.801  1.00 17.64 LIG-0.34  N 
ATOM      4 H    SER B 400      40.882  -8.782  -9.438  1.00 17.64 LIG 0.16  HD
ENDROOT
BRANCH 1 5
ATOM      5  CA  HIS B 399      38.682  -9.712 -10.354  1.00 18.55 LIG 0.18  C 
BRANCH 5 6
ATOM      6  N   HIS B 399      39.650  -9.163 -11.291  1.00 19.43 LIG-0.34  N 
ATOM      7 H    HIS B 399      40.277  -9.707 -11.514  1.00 19.43 LIG 0.16  HD
ATOM      8  C   ALA B 398      39.548  -7.919 -11.751  1.00 22.32 LIG 0.26  C 
ATOM      9 O    ALA B 398      38.646  -7.151 -11.409  1.00 22.30 LIG-0.27  OA
BRANCH 8 10
ATOM     10  CA  ALA B 398      40.625  -7.476 -12.736  1.00 21.39 LIG 0.40  C 
ATOM     11  N   ALA B 398      40.130  -7.529 -14.145  1.00 23.95 LIG 0.61  N 
ATOM     12  CB  ALA B 398      41.092  -6.066 -12.404  1.00 21.38 LIG 0.06  C 
ENDBRANCH 8 10
ENDBRANCH 5 6
BRANCH 5 13
ATOM     13  CB  HIS B 399      38.272 -11.116 -10.801  1.00 22.49 LIG 0.10  C 
BRANCH 13 14
ATOM     14  CG  HIS B 399      36.979 -11.579 -10.208  1.00 24.90 LIG 0.06  A 
ATOM     15  CD2 HIS B 399      35.701 -11.428 -10.629  1.00 26.88 LIG 0.14  A 
ATOM     16 NE2  HIS B 399      34.900 -12.109  -9.745  1.00 28.66 LIG-0.25  NA
ATOM     17  CE1 HIS B 399      35.658 -12.657  -8.812  1.00 27.08 LIG 0.23  A 
ATOM     18 ND1  HIS B 399      36.918 -12.351  -9.068  1.00 26.64 LIG-0.24  NA
ENDBRANCH 13 14
ENDBRANCH 5 13
ENDBRANCH 1 5
BRANCH 3 19
ATOM     19  CA  SER B 400      41.157  -9.143  -7.518  1.00 19.59 LIG 0.20  C 
BRANCH 19 20
ATOM     20  C   SER B 400      42.071  -7.925  -7.457  1.00 19.52 LIG 0.24  C 
ATOM     21  N   SER B 401      42.025  -7.198  -6.343  1.00 18.79 LIG-0.34  N 
ATOM     22 H    SER B 401      41.517  -7.377  -5.672  1.00 18.79 LIG 0.16  HD
ATOM     23 O    SER B 400      42.811  -7.654  -8.403  1.00 19.53 LIG-0.27  OA
BRANCH 21 24
ATOM     24  CA  SER B 401      42.856  -6.009  -6.174  1.00 20.07 LIG 0.19  C 
BRANCH 24 25
ATOM     25  C   SER B 401      44.326  -6.397  -6.119  1.00 22.19 LIG 0.22  C 
ATOM     26 O    SER B 401      44.615  -7.611  -6.197  1.00 22.82 LIG-0.29  OA
ENDBRANCH 24 25
BRANCH 24 27
ATOM     27  CB  SER B 401      42.474  -5.253  -4.896  1.00 19.03 LIG 0.20  C 
BRANCH 27 28
ATOM     28 OG   SER B 401      42.025  -6.136  -3.882  1.00 19.07 LIG-0.40  OA
ATOM     29 HG   SER B 401      41.205  -6.017  -3.749  1.00 19.07 LIG 0.21  HD
ENDBRANCH 27 28
ENDBRANCH 24 27
ENDBRANCH 21 24
ENDBRANCH 19 20
BRANCH 19 30
ATOM     30  CB  SER B 400      41.991 -10.414  -7.338  1.00 20.99 LIG 0.20  C 
BRANCH 30 31
ATOM     31 OG   SER B 400      42.957 -10.243  -6.312  1.00 29.12 LIG-0.40  OA
ATOM     32 HG   SER B 400      43.388  -9.535  -6.448  1.00 29.12 LIG 0.21  HD
ENDBRANCH 30 31
ENDBRANCH 19 30
ENDBRANCH 3 19
TORSDOF 13
ENDMDL
MODEL 53
USER: ADFR SOLUTION from run 93
USER: SCORE 10.418836 LL:  -2.110 LR:  -8.797 RR:   0.000 FEB:  -4.919
USER: RMSD 5.202595
USER: SEED 92
USER: STATUS no improvement in best in 14 clusters for 5 generations
USER: GENES 15
USER: genes 0 Translation |==|  0.63672 0.55485 0.44679
USER: genes 1 Rotation |==|  0.19472 0.52572 0.77703 0.78177
USER: genes 2 Torsion [N]-C--CA-[N] |==|  0.44582
USER: genes 3 Torsion [C]-CA--N-[C] |==|  0.73575
USER: genes 4 Torsion [N]-C--CA-[N] |==|  0.39588
USER: genes 5 Torsion [C]-CA--CB-[CG] |==|  0.24189
USER: genes 6 Torsion [CA]-CB--CG-[CD2] |==|  0.30999
USER: genes 7 Torsion [C]-N--CA-[C] |==|  0.68935
USER: genes 8 Torsion [N]-CA--C-[N] |==|  0.86138
USER: genes 9 Torsion [C]-N--CA-[C] |==|  0.72927
USER: genes 10 Torsion [N]-CA--C-[O] |==|  0.10852
USER: genes 11 Torsion [N]-CA--CB-[OG] |==|  0.93295
USER: genes 12 Torsion [CA]-CB--OG-[HG] |==|  0.18610
USER: genes 13 Torsion [N]-CA--CB-[OG] |==|  0.30852
USER: genes 14 Torsion [CA]-CB--OG-[HG] |==|  0.82242
ROOT
ATOM      1  C   HIS B 399      38.111 -12.264 -11.588  1.00 17.93 LIG 0.24  C 
ATOM      2 O    HIS B 399      38.379 -13.437 -11.322  1.00 15.41 LIG-0.27  OA
ATOM      3  N   SER B 400      38.276 -11.734 -12.795  1.00 17.64 LIG-0.34  N 
ATOM      4 H    SER B 400      38.084 -10.919 -12.987  1.00 17.64 LIG 0.16  HD
ENDROOT
BRANCH 1 5
ATOM      5  CA  HIS B 399      37.559 -11.330 -10.517  1.00 18.55 LIG 0.18  C 
BRANCH 5 6
ATOM      6  N   HIS B 399      37.003 -12.104  -9.417  1.00 19.43 LIG-0.34  N 
ATOM      7 H    HIS B 399      37.578 -12.347  -8.827  1.00 19.43 LIG 0.16  HD
ATOM      8  C   ALA B 398      35.707 -12.395  -9.355  1.00 22.32 LIG 0.26  C 
ATOM      9 O    ALA B 398      34.900 -12.046 -10.219  1.00 22.30 LIG-0.27  OA
BRANCH 8 10
ATOM     10  CA  ALA B 398      35.257 -13.204  -8.141  1.00 21.39 LIG 0.40  C 
ATOM     11  N   ALA B 398      33.918 -12.757  -7.654  1.00 23.95 LIG 0.61  N 
ATOM     12  CB  ALA B 398      35.216 -14.686  -8.485  1.00 21.38 LIG 0.06  C 
ENDBRANCH 8 10
ENDBRANCH 5 6
BRANCH 5 13
ATOM     13  CB  HIS B 399      38.676 -10.425  -9.995  1.00 22.49 LIG 0.10  C 
BRANCH 13 14
ATOM     14  CG  HIS B 399      38.858  -9.176 -10.798  1.00 24.90 LIG 0.06  A 
ATOM     15  CD2 HIS B 399      38.622  -7.878 -10.492  1.00 26.88 LIG 0.14  A 
ATOM     16 NE2  HIS B 399      39.026  -7.128 -11.569  1.00 28.66 LIG-0.25  NA
ATOM     17  CE1 HIS B 399      39.492  -7.936 -12.505  1.00 27.08 LIG 0.23  A 
ATOM     18 ND1  HIS B 399      39.400  -9.179 -12.065  1.00 26.64 LIG-0.24  NA
ENDBRANCH 13 14
ENDBRANCH 5 13
ENDBRANCH 1 5
BRANCH 3 19
ATOM     19  CA  SER B 400      38.806 -12.500 -13.918  1.00 19.59 LIG 0.20  C 
BRANCH 19 20
ATOM     20  C   SER B 400      40.185 -11.974 -14.300  1.00 19.52 LIG 0.24  C 
ATOM     21  N   SER B 401      40.296 -10.659 -14.473  1.00 18.79 LIG-0.34  N 
ATOM     22 H    SER B 401      39.644 -10.105 -14.382  1.00 18.79 LIG 0.16  HD
ATOM     23 O    SER B 400      41.134 -12.748 -14.430  1.00 19.53 LIG-0.27  OA
BRANCH 21 24
ATOM     24  CA  SER B 401      41.568 -10.043 -14.840  1.00 20.07 LIG 0.19  C 
BRANCH 24 25
ATOM     25  C   SER B 401      42.268  -9.501 -13.602  1.00 22.19 LIG 0.22  C 
ATOM     26 O    SER B 401      42.208 -10.177 -12.553  1.00 22.82 LIG-0.29  OA
ENDBRANCH 24 25
BRANCH 24 27
ATOM     27  CB  SER B 401      41.355  -8.909 -15.850  1.00 19.03 LIG 0.20  C 
BRANCH 27 28
ATOM     28 OG   SER B 401      40.150  -9.078 -16.577  1.00 19.07 LIG-0.40  OA
ATOM     29 HG   SER B 401      39.495  -8.990 -16.059  1.00 19.07 LIG 0.21  HD
ENDBRANCH 27 28
ENDBRANCH 24 27
ENDBRANCH 21 24
ENDBRANCH 19 20
BRANCH 19 30
ATOM     30  CB  SER B 400      37.868 -12.385 -15.122  1.00 20.99 LIG 0.20  C 
BRANCH 30 31
ATOM     31 OG   SER B 400      38.470 -11.628 -16.161  1.00 29.12 LIG-0.40  OA
ATOM     32 HG   SER B 400      38.596 -10.841 -15.897  1.00 29.12 LIG 0.21  HD
ENDBRANCH 30 31
ENDBRANCH 19 30
ENDBRANCH 3 19
TORSDOF 13
ENDMDL
MODEL 54
USER: ADFR SOLUTION from run 96
USER: SCORE 10.432988 LL:  -1.691 LR:  -8.803 RR:   0.000 FEB:  -4.925
USER: RMSD 5.939734
USER: SEED 95
USER: STATUS no improvement in best in 12 clusters for 5 generations
USER: GENES 15
USER: genes 0 Translation |==|  0.62833 0.54290 0.43340
USER: genes 1 Rotation |==|  0.21066 0.57853 0.76882 0.79640
USER: genes 2 Torsion [N]-C--CA-[N] |==|  0.92620
USER: genes 3 Torsion [C]-CA--N-[C] |==|  0.82080
USER: genes 4 Torsion [N]-C--CA-[N] |==|  0.73011
USER: genes 5 Torsion [C]-CA--CB-[CG] |==|  0.25446
USER: genes 6 Torsion [CA]-CB--CG-[CD2] |==|  0.04477
USER: genes 7 Torsion [C]-N--CA-[C] |==|  0.77370
USER: genes 8 Torsion [N]-CA--C-[N] |==|  0.45556
USER: genes 9 Torsion [C]-N--CA-[C] |==|  0.76023
USER: genes 10 Torsion [N]-CA--C-[O] |==|  0.91953
USER: genes 11 Torsion [N]-CA--CB-[OG] |==|  0.11760
USER: genes 12 Torsion [CA]-CB--OG-[HG] |==|  0.12681
USER: genes 13 Torsion [N]-CA--CB-[OG] |==|  0.21393
USER: genes 14 Torsion [CA]-CB--OG-[HG] |==|  0.78111
ROOT
ATOM      1  C   HIS B 399      37.960 -12.452 -11.829  1.00 17.93 LIG 0.24  C 
ATOM      2 O    HIS B 399      38.047 -13.644 -11.530  1.00 15.41 LIG-0.27  OA
ATOM      3  N   SER B 400      38.053 -12.005 -13.076  1.00 17.64 LIG-0.34  N 
ATOM      4 H    SER B 400      37.986 -11.174 -13.290  1.00 17.64 LIG 0.16  HD
ENDROOT
BRANCH 1 5
ATOM      5  CA  HIS B 399      37.733 -11.396 -10.754  1.00 18.55 LIG 0.18  C 
BRANCH 5 6
ATOM      6  N   HIS B 399      38.270 -10.115 -11.190  1.00 19.43 LIG-0.34  N 
ATOM      7 H    HIS B 399      37.679  -9.500 -11.297  1.00 19.43 LIG 0.16  HD
ATOM      8  C   ALA B 398      39.571  -9.939 -11.398  1.00 22.32 LIG 0.26  C 
ATOM      9 O    ALA B 398      40.401 -10.838 -11.251  1.00 22.30 LIG-0.27  OA
BRANCH 8 10
ATOM     10  CA  ALA B 398      39.997  -8.542 -11.844  1.00 21.39 LIG 0.40  C 
ATOM     11  N   ALA B 398      40.154  -8.468 -13.327  1.00 23.95 LIG 0.61  N 
ATOM     12  CB  ALA B 398      38.980  -7.510 -11.378  1.00 21.38 LIG 0.06  C 
ENDBRANCH 8 10
ENDBRANCH 5 6
BRANCH 5 13
ATOM     13  CB  HIS B 399      36.236 -11.257 -10.474  1.00 22.49 LIG 0.10  C 
BRANCH 13 14
ATOM     14  CG  HIS B 399      35.750 -12.142  -9.369  1.00 24.90 LIG 0.06  A 
ATOM     15  CD2 HIS B 399      36.421 -12.813  -8.405  1.00 26.88 LIG 0.14  A 
ATOM     16 NE2  HIS B 399      35.484 -13.420  -7.605  1.00 28.66 LIG-0.25  NA
ATOM     17  CE1 HIS B 399      34.278 -13.134  -8.064  1.00 27.08 LIG 0.23  A 
ATOM     18 ND1  HIS B 399      34.410 -12.364  -9.130  1.00 26.64 LIG-0.24  NA
ENDBRANCH 13 14
ENDBRANCH 5 13
ENDBRANCH 1 5
BRANCH 3 19
ATOM     19  CA  SER B 400      38.281 -12.894 -14.211  1.00 19.59 LIG 0.20  C 
BRANCH 19 20
ATOM     20  C   SER B 400      39.766 -13.222 -14.322  1.00 19.52 LIG 0.24  C 
ATOM     21  N   SER B 401      40.093 -14.262 -15.085  1.00 18.79 LIG-0.34  N 
ATOM     22 H    SER B 401      39.522 -14.747 -15.508  1.00 18.79 LIG 0.16  HD
ATOM     23 O    SER B 400      40.601 -12.537 -13.729  1.00 19.53 LIG-0.27  OA
BRANCH 21 24
ATOM     24  CA  SER B 401      41.484 -14.668 -15.264  1.00 20.07 LIG 0.19  C 
BRANCH 24 25
ATOM     25  C   SER B 401      42.120 -13.885 -16.403  1.00 22.19 LIG 0.22  C 
ATOM     26 O    SER B 401      41.377 -13.491 -17.328  1.00 22.82 LIG-0.29  OA
ENDBRANCH 24 25
BRANCH 24 27
ATOM     27  CB  SER B 401      41.582 -16.171 -15.554  1.00 19.03 LIG 0.20  C 
BRANCH 27 28
ATOM     28 OG   SER B 401      40.581 -16.592 -16.466  1.00 19.07 LIG-0.40  OA
ATOM     29 HG   SER B 401      40.539 -16.051 -17.107  1.00 19.07 LIG 0.21  HD
ENDBRANCH 27 28
ENDBRANCH 24 27
ENDBRANCH 21 24
ENDBRANCH 19 20
BRANCH 19 30
ATOM     30  CB  SER B 400      37.811 -12.226 -15.505  1.00 20.99 LIG 0.20  C 
BRANCH 30 31
ATOM     31 OG   SER B 400      38.748 -11.254 -15.941  1.00 29.12 LIG-0.40  OA
ATOM     32 HG   SER B 400      38.653 -10.551 -15.491  1.00 29.12 LIG 0.21  HD
ENDBRANCH 30 31
ENDBRANCH 19 30
ENDBRANCH 3 19
TORSDOF 13
ENDMDL
MODEL 55
USER: ADFR SOLUTION from run 62
USER: SCORE 9.466851 LL:  -1.503 LR:  -8.792 RR:   0.000 FEB:  -4.914
USER: RMSD 7.990752
USER: SEED 61
USER: STATUS no improvement in best in 17 clusters for 5 generations
USER: GENES 15
USER: genes 0 Translation |==|  0.65574 0.73844 0.54029
USER: genes 1 Rotation |==|  0.20163 0.84249 0.66386 0.62972
USER: genes 2 Torsion [N]-C--CA-[N] |==|  0.61296
USER: genes 3 Torsion [C]-CA--N-[C] |==|  0.14800
USER: genes 4 Torsion [N]-C--CA-[N] |==|  0.79885
USER: genes 5 Torsion [C]-CA--CB-[CG] |==|  0.56211
USER: genes 6 Torsion [CA]-CB--CG-[CD2] |==|  0.39649
USER: genes 7 Torsion [C]-N--CA-[C] |==|  0.66555
USER: genes 8 Torsion [N]-CA--C-[N] |==|  0.47778
USER: genes 9 Torsion [C]-N--CA-[C] |==|  0.53953
USER: genes 10 Torsion [N]-CA--C-[O] |==|  0.09879
USER: genes 11 Torsion [N]-CA--CB-[OG] |==|  0.55158
USER: genes 12 Torsion [CA]-CB--OG-[HG] |==|  0.27608
USER: genes 13 Torsion [N]-CA--CB-[OG] |==|  0.59113
USER: genes 14 Torsion [CA]-CB--OG-[HG] |==|  0.68567
ROOT
ATOM      1  C   HIS B 399      38.453  -9.373  -9.905  1.00 17.93 LIG 0.24  C 
ATOM      2 O    HIS B 399      38.534  -9.619  -8.701  1.00 15.41 LIG-0.27  OA
ATOM      3  N   SER B 400      37.810 -10.153 -10.767  1.00 17.64 LIG-0.34  N 
ATOM      4 H    SER B 400      37.745  -9.981 -11.607  1.00 17.64 LIG 0.16  HD
ENDROOT
BRANCH 1 5
ATOM      5  CA  HIS B 399      39.103  -8.124 -10.489  1.00 18.55 LIG 0.18  C 
BRANCH 5 6
ATOM      6  N   HIS B 399      40.409  -7.910  -9.883  1.00 19.43 LIG-0.34  N 
ATOM      7 H    HIS B 399      40.521  -7.126  -9.548  1.00 19.43 LIG 0.16  HD
ATOM      8  C   ALA B 398      41.334  -8.865  -9.863  1.00 22.32 LIG 0.26  C 
ATOM      9 O    ALA B 398      41.156  -9.979 -10.361  1.00 22.30 LIG-0.27  OA
BRANCH 8 10
ATOM     10  CA  ALA B 398      42.654  -8.508  -9.186  1.00 21.39 LIG 0.40  C 
ATOM     11  N   ALA B 398      43.454  -7.560 -10.018  1.00 23.95 LIG 0.61  N 
ATOM     12  CB  ALA B 398      42.393  -7.900  -7.815  1.00 21.38 LIG 0.06  C 
ENDBRANCH 8 10
ENDBRANCH 5 6
BRANCH 5 13
ATOM     13  CB  HIS B 399      39.259  -8.283 -12.002  1.00 22.49 LIG 0.10  C 
BRANCH 13 14
ATOM     14  CG  HIS B 399      40.319  -7.406 -12.590  1.00 24.90 LIG 0.06  A 
ATOM     15  CD2 HIS B 399      41.208  -7.628 -13.586  1.00 26.88 LIG 0.14  A 
ATOM     16 NE2  HIS B 399      41.910  -6.462 -13.771  1.00 28.66 LIG-0.25  NA
ATOM     17  CE1 HIS B 399      41.470  -5.556 -12.916  1.00 27.08 LIG 0.23  A 
ATOM     18 ND1  HIS B 399      40.510  -6.101 -12.189  1.00 26.64 LIG-0.24  NA
ENDBRANCH 13 14
ENDBRANCH 5 13
ENDBRANCH 1 5
BRANCH 3 19
ATOM     19  CA  SER B 400      37.149 -11.388 -10.359  1.00 19.59 LIG 0.20  C 
BRANCH 19 20
ATOM     20  C   SER B 400      37.750 -12.570 -11.110  1.00 19.52 LIG 0.24  C 
ATOM     21  N   SER B 401      37.361 -13.783 -10.724  1.00 18.79 LIG-0.34  N 
ATOM     22 H    SER B 401      36.802 -13.930 -10.087  1.00 18.79 LIG 0.16  HD
ATOM     23 O    SER B 400      38.549 -12.384 -12.028  1.00 19.53 LIG-0.27  OA
BRANCH 21 24
ATOM     24  CA  SER B 401      37.872 -14.989 -11.370  1.00 20.07 LIG 0.19  C 
BRANCH 24 25
ATOM     25  C   SER B 401      37.023 -16.193 -10.989  1.00 22.19 LIG 0.22  C 
ATOM     26 O    SER B 401      35.794 -16.018 -10.840  1.00 22.82 LIG-0.29  OA
ENDBRANCH 24 25
BRANCH 24 27
ATOM     27  CB  SER B 401      39.332 -15.244 -10.977  1.00 19.03 LIG 0.20  C 
BRANCH 27 28
ATOM     28 OG   SER B 401      39.970 -16.125 -11.886  1.00 19.07 LIG-0.40  OA
ATOM     29 HG   SER B 401      40.429 -15.682 -12.432  1.00 19.07 LIG 0.21  HD
ENDBRANCH 27 28
ENDBRANCH 24 27
ENDBRANCH 21 24
ENDBRANCH 19 20
BRANCH 19 30
ATOM     30  CB  SER B 400      35.650 -11.305 -10.660  1.00 20.99 LIG 0.20  C 
BRANCH 30 31
ATOM     31 OG   SER B 400      34.901 -12.027  -9.695  1.00 29.12 LIG-0.40  OA
ATOM     32 HG   SER B 400      34.538 -12.690 -10.061  1.00 29.12 LIG 0.21  HD
ENDBRANCH 30 31
ENDBRANCH 19 30
ENDBRANCH 3 19
TORSDOF 13
ENDMDL
MODEL 56
USER: ADFR SOLUTION from run 181
USER: SCORE 9.913603 LL:  -1.629 LR:  -8.781 RR:   0.000 FEB:  -4.903
USER: RMSD 3.897667
USER: SEED 180
USER: STATUS no improvement in best in 7 clusters for 5 generations
USER: GENES 15
USER: genes 0 Translation |==|  0.49616 0.53068 0.54753
USER: genes 1 Rotation |==|  0.69399 0.61588 0.36334 0.92457
USER: genes 2 Torsion [N]-C--CA-[N] |==|  0.01727
USER: genes 3 Torsion [C]-CA--N-[C] |==|  0.67780
USER: genes 4 Torsion [N]-C--CA-[N] |==|  0.37656
USER: genes 5 Torsion [C]-CA--CB-[CG] |==|  0.30180
USER: genes 6 Torsion [CA]-CB--CG-[CD2] |==|  0.80961
USER: genes 7 Torsion [C]-N--CA-[C] |==|  0.58484
USER: genes 8 Torsion [N]-CA--C-[N] |==|  0.31274
USER: genes 9 Torsion [C]-N--CA-[C] |==|  0.15185
USER: genes 10 Torsion [N]-CA--C-[O] |==|  0.06743
USER: genes 11 Torsion [N]-CA--CB-[OG] |==|  0.73965
USER: genes 12 Torsion [CA]-CB--OG-[HG] |==|  0.16475
USER: genes 13 Torsion [N]-CA--CB-[OG] |==|  0.69762
USER: genes 14 Torsion [CA]-CB--OG-[HG] |==|  0.04836
ROOT
ATOM      1  C   HIS B 399      35.581 -12.645  -9.774  1.00 17.93 LIG 0.24  C 
ATOM      2 O    HIS B 399      34.890 -11.628  -9.857  1.00 15.41 LIG-0.27  OA
ATOM      3  N   SER B 400      36.801 -12.741 -10.291  1.00 17.64 LIG-0.34  N 
ATOM      4 H    SER B 400      37.289 -13.446 -10.229  1.00 17.64 LIG 0.16  HD
ENDROOT
BRANCH 1 5
ATOM      5  CA  HIS B 399      35.060 -13.882  -9.054  1.00 18.55 LIG 0.18  C 
BRANCH 5 6
ATOM      6  N   HIS B 399      36.108 -14.888  -8.964  1.00 19.43 LIG-0.34  N 
ATOM      7 H    HIS B 399      36.787 -14.652  -8.491  1.00 19.43 LIG 0.16  HD
ATOM      8  C   ALA B 398      35.999 -16.065  -9.572  1.00 22.32 LIG 0.26  C 
ATOM      9 O    ALA B 398      35.022 -16.378 -10.255  1.00 22.30 LIG-0.27  OA
BRANCH 8 10
ATOM     10  CA  ALA B 398      37.168 -17.029  -9.385  1.00 21.39 LIG 0.40  C 
ATOM     11  N   ALA B 398      36.691 -18.413  -9.093  1.00 23.95 LIG 0.61  N 
ATOM     12  CB  ALA B 398      38.046 -17.035 -10.629  1.00 21.38 LIG 0.06  C 
ENDBRANCH 8 10
ENDBRANCH 5 6
BRANCH 5 13
ATOM     13  CB  HIS B 399      34.591 -13.502  -7.648  1.00 22.49 LIG 0.10  C 
BRANCH 13 14
ATOM     14  CG  HIS B 399      33.104 -13.537  -7.484  1.00 24.90 LIG 0.06  A 
ATOM     15  CD2 HIS B 399      32.132 -12.753  -8.005  1.00 26.88 LIG 0.14  A 
ATOM     16 NE2  HIS B 399      30.929 -13.265  -7.584  1.00 28.66 LIG-0.25  NA
ATOM     17  CE1 HIS B 399      31.154 -14.325  -6.828  1.00 27.08 LIG 0.23  A 
ATOM     18 ND1  HIS B 399      32.460 -14.511  -6.750  1.00 26.64 LIG-0.24  NA
ENDBRANCH 13 14
ENDBRANCH 5 13
ENDBRANCH 1 5
BRANCH 3 19
ATOM     19  CA  SER B 400      37.430 -11.644 -11.020  1.00 19.59 LIG 0.20  C 
BRANCH 19 20
ATOM     20  C   SER B 400      38.376 -12.200 -12.078  1.00 19.52 LIG 0.24  C 
ATOM     21  N   SER B 401      38.031 -12.005 -13.349  1.00 18.79 LIG-0.34  N 
ATOM     22 H    SER B 401      37.319 -11.591 -13.596  1.00 18.79 LIG 0.16  HD
ATOM     23 O    SER B 400      39.404 -12.791 -11.747  1.00 19.53 LIG-0.27  OA
BRANCH 21 24
ATOM     24  CA  SER B 401      38.860 -12.493 -14.447  1.00 20.07 LIG 0.19  C 
BRANCH 24 25
ATOM     25  C   SER B 401      39.110 -13.987 -14.295  1.00 22.19 LIG 0.22  C 
ATOM     26 O    SER B 401      38.284 -14.654 -13.635  1.00 22.82 LIG-0.29  OA
ENDBRANCH 24 25
BRANCH 24 27
ATOM     27  CB  SER B 401      40.199 -11.749 -14.495  1.00 19.03 LIG 0.20  C 
BRANCH 27 28
ATOM     28 OG   SER B 401      40.150 -10.642 -15.379  1.00 19.07 LIG-0.40  OA
ATOM     29 HG   SER B 401      39.551 -10.110 -15.128  1.00 19.07 LIG 0.21  HD
ENDBRANCH 27 28
ENDBRANCH 24 27
ENDBRANCH 21 24
ENDBRANCH 19 20
BRANCH 19 30
ATOM     30  CB  SER B 400      38.216 -10.755 -10.054  1.00 20.99 LIG 0.20  C 
BRANCH 30 31
ATOM     31 OG   SER B 400      37.571  -9.503  -9.880  1.00 29.12 LIG-0.40  OA
ATOM     32 HG   SER B 400      36.774  -9.561 -10.139  1.00 29.12 LIG 0.21  HD
ENDBRANCH 30 31
ENDBRANCH 19 30
ENDBRANCH 3 19
TORSDOF 13
ENDMDL
MODEL 57
USER: ADFR SOLUTION from run 161
USER: SCORE 10.576805 LL:  -1.877 LR:  -8.761 RR:   0.000 FEB:  -4.883
USER: RMSD 6.207107
USER: SEED 160
USER: STATUS no improvement in best in 19 clusters for 5 generations
USER: GENES 15
USER: genes 0 Translation |==|  0.66226 0.54393 0.54780
USER: genes 1 Rotation |==|  0.36049 0.24839 0.20975 0.78807
USER: genes 2 Torsion [N]-C--CA-[N] |==|  0.38753
USER: genes 3 Torsion [C]-CA--N-[C] |==|  0.80000
USER: genes 4 Torsion [N]-C--CA-[N] |==|  0.87217
USER: genes 5 Torsion [C]-CA--CB-[CG] |==|  0.19642
USER: genes 6 Torsion [CA]-CB--CG-[CD2] |==|  0.96841
USER: genes 7 Torsion [C]-N--CA-[C] |==|  0.84402
USER: genes 8 Torsion [N]-CA--C-[N] |==|  0.92036
USER: genes 9 Torsion [C]-N--CA-[C] |==|  0.77168
USER: genes 10 Torsion [N]-CA--C-[O] |==|  0.21287
USER: genes 11 Torsion [N]-CA--CB-[OG] |==|  0.54161
USER: genes 12 Torsion [CA]-CB--OG-[HG] |==|  0.99785
USER: genes 13 Torsion [N]-CA--CB-[OG] |==|  0.03679
USER: genes 14 Torsion [CA]-CB--OG-[HG] |==|  0.40755
ROOT
ATOM      1  C   HIS B 399      38.571 -12.436  -9.770  1.00 17.93 LIG 0.24  C 
ATOM      2 O    HIS B 399      39.022 -13.014 -10.760  1.00 15.41 LIG-0.27  OA
ATOM      3  N   SER B 400      38.783 -12.849  -8.525  1.00 17.64 LIG-0.34  N 
ATOM      4 H    SER B 400      38.476 -12.445  -7.831  1.00 17.64 LIG 0.16  HD
ENDROOT
BRANCH 1 5
ATOM      5  CA  HIS B 399      37.722 -11.180  -9.922  1.00 18.55 LIG 0.18  C 
BRANCH 5 6
ATOM      6  N   HIS B 399      38.274 -10.326 -10.964  1.00 19.43 LIG-0.34  N 
ATOM      7 H    HIS B 399      37.810 -10.303 -11.687  1.00 19.43 LIG 0.16  HD
ATOM      8  C   ALA B 398      39.404  -9.649 -10.785  1.00 22.32 LIG 0.26  C 
ATOM      9 O    ALA B 398      40.061  -9.706  -9.743  1.00 22.30 LIG-0.27  OA
BRANCH 8 10
ATOM     10  CA  ALA B 398      39.862  -8.785 -11.956  1.00 21.39 LIG 0.40  C 
ATOM     11  N   ALA B 398      39.775  -9.528 -13.248  1.00 23.95 LIG 0.61  N 
ATOM     12  CB  ALA B 398      39.025  -7.516 -12.031  1.00 21.38 LIG 0.06  C 
ENDBRANCH 8 10
ENDBRANCH 5 6
BRANCH 5 13
ATOM     13  CB  HIS B 399      36.286 -11.566 -10.281  1.00 22.49 LIG 0.10  C 
BRANCH 13 14
ATOM     14  CG  HIS B 399      35.539 -12.207  -9.154  1.00 24.90 LIG 0.06  A 
ATOM     15  CD2 HIS B 399      35.964 -12.679  -7.959  1.00 26.88 LIG 0.14  A 
ATOM     16 NE2  HIS B 399      34.853 -13.103  -7.272  1.00 28.66 LIG-0.25  NA
ATOM     17  CE1 HIS B 399      33.783 -12.901  -8.020  1.00 27.08 LIG 0.23  A 
ATOM     18 ND1  HIS B 399      34.170 -12.361  -9.163  1.00 26.64 LIG-0.24  NA
ENDBRANCH 13 14
ENDBRANCH 5 13
ENDBRANCH 1 5
BRANCH 3 19
ATOM     19  CA  SER B 400      39.566 -14.043  -8.221  1.00 19.59 LIG 0.20  C 
BRANCH 19 20
ATOM     20  C   SER B 400      38.975 -15.248  -8.944  1.00 19.52 LIG 0.24  C 
ATOM     21  N   SER B 401      37.667 -15.217  -9.188  1.00 18.79 LIG-0.34  N 
ATOM     22 H    SER B 401      37.151 -14.567  -8.964  1.00 18.79 LIG 0.16  HD
ATOM     23 O    SER B 400      39.697 -16.188  -9.280  1.00 19.53 LIG-0.27  OA
BRANCH 21 24
ATOM     24  CA  SER B 401      36.994 -16.316  -9.874  1.00 20.07 LIG 0.19  C 
BRANCH 24 25
ATOM     25  C   SER B 401      37.166 -16.183 -11.380  1.00 22.19 LIG 0.22  C 
ATOM     26 O    SER B 401      38.269 -16.503 -11.873  1.00 22.82 LIG-0.29  OA
ENDBRANCH 24 25
BRANCH 24 27
ATOM     27  CB  SER B 401      35.501 -16.344  -9.527  1.00 19.03 LIG 0.20  C 
BRANCH 27 28
ATOM     28 OG   SER B 401      34.903 -17.576  -9.895  1.00 19.07 LIG-0.40  OA
ATOM     29 HG   SER B 401      35.479 -18.072 -10.251  1.00 19.07 LIG 0.21  HD
ENDBRANCH 27 28
ENDBRANCH 24 27
ENDBRANCH 21 24
ENDBRANCH 19 20
BRANCH 19 30
ATOM     30  CB  SER B 400      39.560 -14.304  -6.712  1.00 20.99 LIG 0.20  C 
BRANCH 30 31
ATOM     31 OG   SER B 400      38.571 -13.518  -6.068  1.00 29.12 LIG-0.40  OA
ATOM     32 HG   SER B 400      38.259 -13.941  -5.413  1.00 29.12 LIG 0.21  HD
ENDBRANCH 30 31
ENDBRANCH 19 30
ENDBRANCH 3 19
TORSDOF 13
ENDMDL
MODEL 58
USER: ADFR SOLUTION from run 11
USER: SCORE 9.881763 LL:  -1.810 LR:  -8.754 RR:   0.000 FEB:  -4.876
USER: RMSD 8.034735
USER: SEED 732000
USER: STATUS no improvement in best in 11 clusters for 5 generations
USER: GENES 15
USER: genes 0 Translation |==|  0.75991 0.70093 0.40885
USER: genes 1 Rotation |==|  0.59369 0.18088 0.12666 0.50143
USER: genes 2 Torsion [N]-C--CA-[N] |==|  0.77798
USER: genes 3 Torsion [C]-CA--N-[C] |==|  0.60574
USER: genes 4 Torsion [N]-C--CA-[N] |==|  0.11768
USER: genes 5 Torsion [C]-CA--CB-[CG] |==|  0.12465
USER: genes 6 Torsion [CA]-CB--CG-[CD2] |==|  0.63366
USER: genes 7 Torsion [C]-N--CA-[C] |==|  0.77213
USER: genes 8 Torsion [N]-CA--C-[N] |==|  0.97672
USER: genes 9 Torsion [C]-N--CA-[C] |==|  0.86095
USER: genes 10 Torsion [N]-CA--C-[O] |==|  0.29190
USER: genes 11 Torsion [N]-CA--CB-[OG] |==|  0.02208
USER: genes 12 Torsion [CA]-CB--OG-[HG] |==|  0.87636
USER: genes 13 Torsion [N]-CA--CB-[OG] |==|  0.96442
USER: genes 14 Torsion [CA]-CB--OG-[HG] |==|  0.24301
ROOT
ATOM      1  C   HIS B 399      40.328  -9.963 -12.271  1.00 17.93 LIG 0.24  C 
ATOM      2 O    HIS B 399      41.287 -10.720 -12.108  1.00 15.41 LIG-0.27  OA
ATOM      3  N   SER B 400      39.064 -10.359 -12.179  1.00 17.64 LIG-0.34  N 
ATOM      4 H    SER B 400      38.392  -9.834 -12.284  1.00 17.64 LIG 0.16  HD
ENDROOT
BRANCH 1 5
ATOM      5  CA  HIS B 399      40.546  -8.490 -12.593  1.00 18.55 LIG 0.18  C 
BRANCH 5 6
ATOM      6  N   HIS B 399      40.375  -8.260 -14.021  1.00 19.43 LIG-0.34  N 
ATOM      7 H    HIS B 399      39.744  -8.717 -14.381  1.00 19.43 LIG 0.16  HD
ATOM      8  C   ALA B 398      41.147  -7.406 -14.686  1.00 22.32 LIG 0.26  C 
ATOM      9 O    ALA B 398      42.057  -6.768 -14.151  1.00 22.30 LIG-0.27  OA
BRANCH 8 10
ATOM     10  CA  ALA B 398      40.852  -7.254 -16.176  1.00 21.39 LIG 0.40  C 
ATOM     11  N   ALA B 398      39.383  -7.192 -16.437  1.00 23.95 LIG 0.61  N 
ATOM     12  CB  ALA B 398      41.528  -6.002 -16.719  1.00 21.38 LIG 0.06  C 
ENDBRANCH 8 10
ENDBRANCH 5 6
BRANCH 5 13
ATOM     13  CB  HIS B 399      39.545  -7.637 -11.812  1.00 22.49 LIG 0.10  C 
BRANCH 13 14
ATOM     14  CG  HIS B 399      39.407  -8.040 -10.378  1.00 24.90 LIG 0.06  A 
ATOM     15  CD2 HIS B 399      38.310  -8.266  -9.618  1.00 26.88 LIG 0.14  A 
ATOM     16 NE2  HIS B 399      38.750  -8.678  -8.384  1.00 28.66 LIG-0.25  NA
ATOM     17  CE1 HIS B 399      40.071  -8.702  -8.384  1.00 27.08 LIG 0.23  A 
ATOM     18 ND1  HIS B 399      40.494  -8.319  -9.577  1.00 26.64 LIG-0.24  NA
ENDBRANCH 13 14
ENDBRANCH 5 13
ENDBRANCH 1 5
BRANCH 3 19
ATOM     19  CA  SER B 400      38.697 -11.742 -11.888  1.00 19.59 LIG 0.20  C 
BRANCH 19 20
ATOM     20  C   SER B 400      38.749 -12.572 -13.165  1.00 19.52 LIG 0.24  C 
ATOM     21  N   SER B 401      38.932 -11.907 -14.303  1.00 18.79 LIG-0.34  N 
ATOM     22 H    SER B 401      39.020 -11.053 -14.353  1.00 18.79 LIG 0.16  HD
ATOM     23 O    SER B 400      38.632 -13.797 -13.118  1.00 19.53 LIG-0.27  OA
BRANCH 21 24
ATOM     24  CA  SER B 401      38.998 -12.598 -15.588  1.00 20.07 LIG 0.19  C 
BRANCH 24 25
ATOM     25  C   SER B 401      39.982 -13.755 -15.515  1.00 22.19 LIG 0.22  C 
ATOM     26 O    SER B 401      39.519 -14.915 -15.452  1.00 22.82 LIG-0.29  OA
ENDBRANCH 24 25
BRANCH 24 27
ATOM     27  CB  SER B 401      39.416 -11.635 -16.706  1.00 19.03 LIG 0.20  C 
BRANCH 27 28
ATOM     28 OG   SER B 401      39.807 -10.374 -16.189  1.00 19.07 LIG-0.40  OA
ATOM     29 HG   SER B 401      39.257 -10.128 -15.605  1.00 19.07 LIG 0.21  HD
ENDBRANCH 27 28
ENDBRANCH 24 27
ENDBRANCH 21 24
ENDBRANCH 19 20
BRANCH 19 30
ATOM     30  CB  SER B 400      37.284 -11.798 -11.303  1.00 20.99 LIG 0.20  C 
BRANCH 30 31
ATOM     31 OG   SER B 400      36.838 -10.503 -10.934  1.00 29.12 LIG-0.40  OA
ATOM     32 HG   SER B 400      36.477 -10.132 -11.595  1.00 29.12 LIG 0.21  HD
ENDBRANCH 30 31
ENDBRANCH 19 30
ENDBRANCH 3 19
TORSDOF 13
ENDMDL
MODEL 59
USER: ADFR SOLUTION from run 81
USER: SCORE 10.176394 LL:  -1.595 LR:  -8.746 RR:   0.000 FEB:  -4.868
USER: RMSD 5.470736
USER: SEED 80
USER: STATUS no improvement in best in 20 clusters for 5 generations
USER: GENES 15
USER: genes 0 Translation |==|  0.40836 0.47535 0.68610
USER: genes 1 Rotation |==|  0.79280 0.55627 0.13327 0.66313
USER: genes 2 Torsion [N]-C--CA-[N] |==|  0.47483
USER: genes 3 Torsion [C]-CA--N-[C] |==|  0.78317
USER: genes 4 Torsion [N]-C--CA-[N] |==|  0.71337
USER: genes 5 Torsion [C]-CA--CB-[CG] |==|  0.54989
USER: genes 6 Torsion [CA]-CB--CG-[CD2] |==|  0.68865
USER: genes 7 Torsion [C]-N--CA-[C] |==|  0.82679
USER: genes 8 Torsion [N]-CA--C-[N] |==|  0.43889
USER: genes 9 Torsion [C]-N--CA-[C] |==|  0.63202
USER: genes 10 Torsion [N]-CA--C-[O] |==|  0.01349
USER: genes 11 Torsion [N]-CA--CB-[OG] |==|  0.57471
USER: genes 12 Torsion [CA]-CB--OG-[HG] |==|  0.08600
USER: genes 13 Torsion [N]-CA--CB-[OG] |==|  0.92280
USER: genes 14 Torsion [CA]-CB--OG-[HG] |==|  0.19154
ROOT
ATOM      1  C   HIS B 399      34.000 -13.516  -7.280  1.00 17.93 LIG 0.24  C 
ATOM      2 O    HIS B 399      34.884 -12.776  -6.845  1.00 15.41 LIG-0.27  OA
ATOM      3  N   SER B 400      34.160 -14.293  -8.346  1.00 17.64 LIG-0.34  N 
ATOM      4 H    SER B 400      33.549 -14.817  -8.649  1.00 17.64 LIG 0.16  HD
ENDROOT
BRANCH 1 5
ATOM      5  CA  HIS B 399      32.638 -13.585  -6.601  1.00 18.55 LIG 0.18  C 
BRANCH 5 6
ATOM      6  N   HIS B 399      32.671 -12.858  -5.340  1.00 19.43 LIG-0.34  N 
ATOM      7 H    HIS B 399      32.310 -12.079  -5.370  1.00 19.43 LIG 0.16  HD
ATOM      8  C   ALA B 398      33.220 -13.381  -4.247  1.00 22.32 LIG 0.26  C 
ATOM      9 O    ALA B 398      33.744 -14.497  -4.230  1.00 22.30 LIG-0.27  OA
BRANCH 8 10
ATOM     10  CA  ALA B 398      33.176 -12.514  -2.992  1.00 21.39 LIG 0.40  C 
ATOM     11  N   ALA B 398      34.502 -11.884  -2.718  1.00 23.95 LIG 0.61  N 
ATOM     12  CB  ALA B 398      32.110 -11.437  -3.136  1.00 21.38 LIG 0.06  C 
ENDBRANCH 8 10
ENDBRANCH 5 6
BRANCH 5 13
ATOM     13  CB  HIS B 399      31.573 -12.978  -7.516  1.00 22.49 LIG 0.10  C 
BRANCH 13 14
ATOM     14  CG  HIS B 399      30.311 -12.609  -6.802  1.00 24.90 LIG 0.06  A 
ATOM     15  CD2 HIS B 399      29.063 -13.127  -6.875  1.00 26.88 LIG 0.14  A 
ATOM     16 NE2  HIS B 399      28.293 -12.459  -5.955  1.00 28.66 LIG-0.25  NA
ATOM     17  CE1 HIS B 399      29.041 -11.561  -5.339  1.00 27.08 LIG 0.23  A 
ATOM     18 ND1  HIS B 399      30.264 -11.629  -5.834  1.00 26.64 LIG-0.24  NA
ENDBRANCH 13 14
ENDBRANCH 5 13
ENDBRANCH 1 5
BRANCH 3 19
ATOM     19  CA  SER B 400      35.404 -14.327  -9.108  1.00 19.59 LIG 0.20  C 
BRANCH 19 20
ATOM     20  C   SER B 400      35.680 -12.956  -9.713  1.00 19.52 LIG 0.24  C 
ATOM     21  N   SER B 401      36.942 -12.689 -10.039  1.00 18.79 LIG-0.34  N 
ATOM     22 H    SER B 401      37.594 -13.238  -9.928  1.00 18.79 LIG 0.16  HD
ATOM     23 O    SER B 400      34.760 -12.155  -9.886  1.00 19.53 LIG-0.27  OA
BRANCH 21 24
ATOM     24  CA  SER B 401      37.323 -11.407 -10.625  1.00 20.07 LIG 0.19  C 
BRANCH 24 25
ATOM     25  C   SER B 401      38.213 -11.625 -11.840  1.00 22.19 LIG 0.22  C 
ATOM     26 O    SER B 401      38.410 -12.801 -12.216  1.00 22.82 LIG-0.29  OA
ENDBRANCH 24 25
BRANCH 24 27
ATOM     27  CB  SER B 401      38.057 -10.534  -9.600  1.00 19.03 LIG 0.20  C 
BRANCH 27 28
ATOM     28 OG   SER B 401      37.900  -9.154  -9.883  1.00 19.07 LIG-0.40  OA
ATOM     29 HG   SER B 401      37.155  -9.026 -10.248  1.00 19.07 LIG 0.21  HD
ENDBRANCH 27 28
ENDBRANCH 24 27
ENDBRANCH 21 24
ENDBRANCH 19 20
BRANCH 19 30
ATOM     30  CB  SER B 400      35.304 -15.365 -10.229  1.00 20.99 LIG 0.20  C 
BRANCH 30 31
ATOM     31 OG   SER B 400      34.401 -16.402  -9.879  1.00 29.12 LIG-0.40  OA
ATOM     32 HG   SER B 400      33.618 -16.098  -9.864  1.00 29.12 LIG 0.21  HD
ENDBRANCH 30 31
ENDBRANCH 19 30
ENDBRANCH 3 19
TORSDOF 13
ENDMDL
MODEL 60
USER: ADFR SOLUTION from run 11
USER: SCORE 9.960336 LL:  -1.799 LR:  -8.735 RR:   0.000 FEB:  -4.857
USER: RMSD 5.355439
USER: SEED 732000
USER: STATUS no improvement in best in 11 clusters for 5 generations
USER: GENES 15
USER: genes 0 Translation |==|  0.65767 0.60834 0.46911
USER: genes 1 Rotation |==|  0.17783 0.52816 0.87176 0.58491
USER: genes 2 Torsion [N]-C--CA-[N] |==|  0.32905
USER: genes 3 Torsion [C]-CA--N-[C] |==|  0.76304
USER: genes 4 Torsion [N]-C--CA-[N] |==|  0.39837
USER: genes 5 Torsion [C]-CA--CB-[CG] |==|  0.14092
USER: genes 6 Torsion [CA]-CB--CG-[CD2] |==|  0.77145
USER: genes 7 Torsion [C]-N--CA-[C] |==|  0.56718
USER: genes 8 Torsion [N]-CA--C-[N] |==|  0.29324
USER: genes 9 Torsion [C]-N--CA-[C] |==|  0.74592
USER: genes 10 Torsion [N]-CA--C-[O] |==|  0.04778
USER: genes 11 Torsion [N]-CA--CB-[OG] |==|  0.92894
USER: genes 12 Torsion [CA]-CB--OG-[HG] |==|  0.89509
USER: genes 13 Torsion [N]-CA--CB-[OG] |==|  0.40247
USER: genes 14 Torsion [CA]-CB--OG-[HG] |==|  0.07095
ROOT
ATOM      1  C   HIS B 399      38.488 -11.422 -11.186  1.00 17.93 LIG 0.24  C 
ATOM      2 O    HIS B 399      39.463 -11.917 -10.619  1.00 15.41 LIG-0.27  OA
ATOM      3  N   SER B 400      38.207 -11.628 -12.468  1.00 17.64 LIG-0.34  N 
ATOM      4 H    SER B 400      37.524 -11.291 -12.866  1.00 17.64 LIG 0.16  HD
ENDROOT
BRANCH 1 5
ATOM      5  CA  HIS B 399      37.522 -10.521 -10.426  1.00 18.55 LIG 0.18  C 
BRANCH 5 6
ATOM      6  N   HIS B 399      36.900 -11.259  -9.337  1.00 19.43 LIG-0.34  N 
ATOM      7 H    HIS B 399      37.293 -11.169  -8.578  1.00 19.43 LIG 0.16  HD
ATOM      8  C   ALA B 398      35.815 -12.003  -9.529  1.00 22.32 LIG 0.26  C 
ATOM      9 O    ALA B 398      35.275 -12.127 -10.630  1.00 22.30 LIG-0.27  OA
BRANCH 8 10
ATOM     10  CA  ALA B 398      35.262 -12.715  -8.297  1.00 21.39 LIG 0.40  C 
ATOM     11  N   ALA B 398      33.769 -12.753  -8.315  1.00 23.95 LIG 0.61  N 
ATOM     12  CB  ALA B 398      35.815 -14.131  -8.218  1.00 21.38 LIG 0.06  C 
ENDBRANCH 8 10
ENDBRANCH 5 6
BRANCH 5 13
ATOM     13  CB  HIS B 399      38.275  -9.313  -9.865  1.00 22.49 LIG 0.10  C 
BRANCH 13 14
ATOM     14  CG  HIS B 399      39.108  -8.602 -10.883  1.00 24.90 LIG 0.06  A 
ATOM     15  CD2 HIS B 399      40.349  -8.862 -11.359  1.00 26.88 LIG 0.14  A 
ATOM     16 NE2  HIS B 399      40.613  -7.932 -12.334  1.00 28.66 LIG-0.25  NA
ATOM     17  CE1 HIS B 399      39.572  -7.126 -12.452  1.00 27.08 LIG 0.23  A 
ATOM     18 ND1  HIS B 399      38.650  -7.508 -11.586  1.00 26.64 LIG-0.24  NA
ENDBRANCH 13 14
ENDBRANCH 5 13
ENDBRANCH 1 5
BRANCH 3 19
ATOM     19  CA  SER B 400      39.046 -12.458 -13.328  1.00 19.59 LIG 0.20  C 
BRANCH 19 20
ATOM     20  C   SER B 400      38.858 -12.051 -14.784  1.00 19.52 LIG 0.24  C 
ATOM     21  N   SER B 401      39.847 -11.357 -15.343  1.00 18.79 LIG-0.34  N 
ATOM     22 H    SER B 401      40.569 -11.133 -14.934  1.00 18.79 LIG 0.16  HD
ATOM     23 O    SER B 400      37.834 -12.366 -15.393  1.00 19.53 LIG-0.27  OA
BRANCH 21 24
ATOM     24  CA  SER B 401      39.776 -10.913 -16.732  1.00 20.07 LIG 0.19  C 
BRANCH 24 25
ATOM     25  C   SER B 401      40.399 -11.954 -17.651  1.00 22.19 LIG 0.22  C 
ATOM     26 O    SER B 401      40.562 -13.109 -17.202  1.00 22.82 LIG-0.29  OA
ENDBRANCH 24 25
BRANCH 24 27
ATOM     27  CB  SER B 401      40.493  -9.570 -16.915  1.00 19.03 LIG 0.20  C 
BRANCH 27 28
ATOM     28 OG   SER B 401      40.525  -8.828 -15.707  1.00 19.07 LIG-0.40  OA
ATOM     29 HG   SER B 401      39.801  -8.932 -15.294  1.00 19.07 LIG 0.21  HD
ENDBRANCH 27 28
ENDBRANCH 24 27
ENDBRANCH 21 24
ENDBRANCH 19 20
BRANCH 19 30
ATOM     30  CB  SER B 400      38.671 -13.933 -13.161  1.00 20.99 LIG 0.20  C 
BRANCH 30 31
ATOM     31 OG   SER B 400      38.797 -14.628 -14.391  1.00 29.12 LIG-0.40  OA
ATOM     32 HG   SER B 400      39.358 -14.236 -14.879  1.00 29.12 LIG 0.21  HD
ENDBRANCH 30 31
ENDBRANCH 19 30
ENDBRANCH 3 19
TORSDOF 13
ENDMDL
MODEL 61
USER: ADFR SOLUTION from run 65
USER: SCORE 9.879739 LL:  -2.015 LR:  -8.738 RR:   0.000 FEB:  -4.860
USER: RMSD 5.850299
USER: SEED 64
USER: STATUS no improvement in best in 11 clusters for 5 generations
USER: GENES 15
USER: genes 0 Translation |==|  0.46282 0.43117 0.67475
USER: genes 1 Rotation |==|  0.21895 0.75060 0.82331 0.56065
USER: genes 2 Torsion [N]-C--CA-[N] |==|  0.70497
USER: genes 3 Torsion [C]-CA--N-[C] |==|  0.19054
USER: genes 4 Torsion [N]-C--CA-[N] |==|  0.69850
USER: genes 5 Torsion [C]-CA--CB-[CG] |==|  0.18577
USER: genes 6 Torsion [CA]-CB--CG-[CD2] |==|  0.51658
USER: genes 7 Torsion [C]-N--CA-[C] |==|  0.73010
USER: genes 8 Torsion [N]-CA--C-[N] |==|  0.05000
USER: genes 9 Torsion [C]-N--CA-[C] |==|  0.81159
USER: genes 10 Torsion [N]-CA--C-[O] |==|  0.59716
USER: genes 11 Torsion [N]-CA--CB-[OG] |==|  0.53413
USER: genes 12 Torsion [CA]-CB--OG-[HG] |==|  0.82818
USER: genes 13 Torsion [N]-CA--CB-[OG] |==|  0.95127
USER: genes 14 Torsion [CA]-CB--OG-[HG] |==|  0.15842
ROOT
ATOM      1  C   HIS B 399      34.981 -14.212  -7.485  1.00 17.93 LIG 0.24  C 
ATOM      2 O    HIS B 399      35.774 -14.703  -6.680  1.00 15.41 LIG-0.27  OA
ATOM      3  N   SER B 400      34.233 -14.940  -8.307  1.00 17.64 LIG-0.34  N 
ATOM      4 H    SER B 400      33.673 -14.602  -8.865  1.00 17.64 LIG 0.16  HD
ENDROOT
BRANCH 1 5
ATOM      5  CA  HIS B 399      34.806 -12.701  -7.583  1.00 18.55 LIG 0.18  C 
BRANCH 5 6
ATOM      6  N   HIS B 399      35.958 -12.107  -8.246  1.00 19.43 LIG-0.34  N 
ATOM      7 H    HIS B 399      36.451 -11.623  -7.735  1.00 19.43 LIG 0.16  HD
ATOM      8  C   ALA B 398      36.201 -12.312  -9.537  1.00 22.32 LIG 0.26  C 
ATOM      9 O    ALA B 398      35.472 -13.000 -10.255  1.00 22.30 LIG-0.27  OA
BRANCH 8 10
ATOM     10  CA  ALA B 398      37.448 -11.637 -10.101  1.00 21.39 LIG 0.40  C 
ATOM     11  N   ALA B 398      37.092 -10.503 -11.005  1.00 23.95 LIG 0.61  N 
ATOM     12  CB  ALA B 398      38.333 -11.138  -8.967  1.00 21.38 LIG 0.06  C 
ENDBRANCH 8 10
ENDBRANCH 5 6
BRANCH 5 13
ATOM     13  CB  HIS B 399      33.536 -12.378  -8.371  1.00 22.49 LIG 0.10  C 
BRANCH 13 14
ATOM     14  CG  HIS B 399      32.278 -12.786  -7.671  1.00 24.90 LIG 0.06  A 
ATOM     15  CD2 HIS B 399      30.987 -12.769  -8.077  1.00 26.88 LIG 0.14  A 
ATOM     16 NE2  HIS B 399      30.237 -13.316  -7.066  1.00 28.66 LIG-0.25  NA
ATOM     17  CE1 HIS B 399      31.038 -13.655  -6.071  1.00 27.08 LIG 0.23  A 
ATOM     18 ND1  HIS B 399      32.276 -13.344  -6.410  1.00 26.64 LIG-0.24  NA
ENDBRANCH 13 14
ENDBRANCH 5 13
ENDBRANCH 1 5
BRANCH 3 19
ATOM     19  CA  SER B 400      34.298 -16.398  -8.338  1.00 19.59 LIG 0.20  C 
BRANCH 19 20
ATOM     20  C   SER B 400      35.219 -16.852  -9.465  1.00 19.52 LIG 0.24  C 
ATOM     21  N   SER B 401      36.059 -15.943  -9.953  1.00 18.79 LIG-0.34  N 
ATOM     22 H    SER B 401      36.108 -15.132  -9.671  1.00 18.79 LIG 0.16  HD
ATOM     23 O    SER B 400      35.171 -18.011  -9.880  1.00 19.53 LIG-0.27  OA
BRANCH 21 24
ATOM     24  CA  SER B 401      36.987 -16.265 -11.033  1.00 20.07 LIG 0.19  C 
BRANCH 24 25
ATOM     25  C   SER B 401      38.042 -17.249 -10.548  1.00 22.19 LIG 0.22  C 
ATOM     26 O    SER B 401      39.199 -17.141 -11.008  1.00 22.82 LIG-0.29  OA
ENDBRANCH 24 25
BRANCH 24 27
ATOM     27  CB  SER B 401      37.669 -14.999 -11.564  1.00 19.03 LIG 0.20  C 
BRANCH 27 28
ATOM     28 OG   SER B 401      38.352 -15.246 -12.782  1.00 19.07 LIG-0.40  OA
ATOM     29 HG   SER B 401      38.957 -15.814 -12.654  1.00 19.07 LIG 0.21  HD
ENDBRANCH 27 28
ENDBRANCH 24 27
ENDBRANCH 21 24
ENDBRANCH 19 20
BRANCH 19 30
ATOM     30  CB  SER B 400      32.900 -16.981  -8.559  1.00 20.99 LIG 0.20  C 
BRANCH 30 31
ATOM     31 OG   SER B 400      31.900 -16.016  -8.275  1.00 29.12 LIG-0.40  OA
ATOM     32 HG   SER B 400      32.023 -15.335  -8.751  1.00 29.12 LIG 0.21  HD
ENDBRANCH 30 31
ENDBRANCH 19 30
ENDBRANCH 3 19
TORSDOF 13
ENDMDL
MODEL 62
USER: ADFR SOLUTION from run 160
USER: SCORE 10.219199 LL:  -1.798 LR:  -8.726 RR:   0.000 FEB:  -4.848
USER: RMSD 7.715525
USER: SEED 159
USER: STATUS no improvement in best in 8 clusters for 5 generations
USER: GENES 15
USER: genes 0 Translation |==|  0.70976 0.70557 0.58508
USER: genes 1 Rotation |==|  0.31403 0.07745 0.39531 0.66094
USER: genes 2 Torsion [N]-C--CA-[N] |==|  0.28975
USER: genes 3 Torsion [C]-CA--N-[C] |==|  0.71186
USER: genes 4 Torsion [N]-C--CA-[N] |==|  0.27034
USER: genes 5 Torsion [C]-CA--CB-[CG] |==|  0.22324
USER: genes 6 Torsion [CA]-CB--CG-[CD2] |==|  0.29881
USER: genes 7 Torsion [C]-N--CA-[C] |==|  0.15150
USER: genes 8 Torsion [N]-CA--C-[N] |==|  0.13525
USER: genes 9 Torsion [C]-N--CA-[C] |==|  0.66946
USER: genes 10 Torsion [N]-CA--C-[O] |==|  0.04493
USER: genes 11 Torsion [N]-CA--CB-[OG] |==|  0.12810
USER: genes 12 Torsion [CA]-CB--OG-[HG] |==|  0.90038
USER: genes 13 Torsion [N]-CA--CB-[OG] |==|  0.62932
USER: genes 14 Torsion [CA]-CB--OG-[HG] |==|  0.02324
ROOT
ATOM      1  C   HIS B 399      39.426  -9.890  -9.099  1.00 17.93 LIG 0.24  C 
ATOM      2 O    HIS B 399      40.245 -10.794  -8.931  1.00 15.41 LIG-0.27  OA
ATOM      3  N   SER B 400      39.135  -8.988  -8.168  1.00 17.64 LIG-0.34  N 
ATOM      4 H    SER B 400      38.569  -8.351  -8.283  1.00 17.64 LIG 0.16  HD
ENDROOT
BRANCH 1 5
ATOM      5  CA  HIS B 399      38.680  -9.751 -10.421  1.00 18.55 LIG 0.18  C 
BRANCH 5 6
ATOM      6  N   HIS B 399      39.561  -9.191 -11.435  1.00 19.43 LIG-0.34  N 
ATOM      7 H    HIS B 399      40.133  -9.747 -11.756  1.00 19.43 LIG 0.16  HD
ATOM      8  C   ALA B 398      39.467  -7.921 -11.816  1.00 22.32 LIG 0.26  C 
ATOM      9 O    ALA B 398      38.647  -7.136 -11.333  1.00 22.30 LIG-0.27  OA
BRANCH 8 10
ATOM     10  CA  ALA B 398      40.446  -7.468 -12.896  1.00 21.39 LIG 0.40  C 
ATOM     11  N   ALA B 398      39.818  -7.503 -14.250  1.00 23.95 LIG 0.61  N 
ATOM     12  CB  ALA B 398      40.948  -6.063 -12.594  1.00 21.38 LIG 0.06  C 
ENDBRANCH 8 10
ENDBRANCH 5 6
BRANCH 5 13
ATOM     13  CB  HIS B 399      38.178 -11.122 -10.877  1.00 22.49 LIG 0.10  C 
BRANCH 13 14
ATOM     14  CG  HIS B 399      36.918 -11.554 -10.196  1.00 24.90 LIG 0.06  A 
ATOM     15  CD2 HIS B 399      35.647 -11.649 -10.651  1.00 26.88 LIG 0.14  A 
ATOM     16 NE2  HIS B 399      34.888 -12.165  -9.629  1.00 28.66 LIG-0.25  NA
ATOM     17  CE1 HIS B 399      35.664 -12.378  -8.582  1.00 27.08 LIG 0.23  A 
ATOM     18 ND1  HIS B 399      36.896 -12.016  -8.897  1.00 26.64 LIG-0.24  NA
ENDBRANCH 13 14
ENDBRANCH 5 13
ENDBRANCH 1 5
BRANCH 3 19
ATOM     19  CA  SER B 400      39.758  -8.999  -6.848  1.00 19.59 LIG 0.20  C 
BRANCH 19 20
ATOM     20  C   SER B 400      41.275  -8.988  -6.991  1.00 19.52 LIG 0.24  C 
ATOM     21  N   SER B 401      41.791  -8.082  -7.818  1.00 18.79 LIG-0.34  N 
ATOM     22 H    SER B 401      41.323  -7.517  -8.266  1.00 18.79 LIG 0.16  HD
ATOM     23 O    SER B 400      41.967  -9.785  -6.355  1.00 19.53 LIG-0.27  OA
BRANCH 21 24
ATOM     24  CA  SER B 401      43.232  -7.980  -8.034  1.00 20.07 LIG 0.19  C 
BRANCH 24 25
ATOM     25  C   SER B 401      43.733  -6.607  -7.611  1.00 22.19 LIG 0.22  C 
ATOM     26 O    SER B 401      42.989  -5.910  -6.888  1.00 22.82 LIG-0.29  OA
ENDBRANCH 24 25
BRANCH 24 27
ATOM     27  CB  SER B 401      43.583  -8.226  -9.506  1.00 19.03 LIG 0.20  C 
BRANCH 27 28
ATOM     28 OG   SER B 401      42.725  -7.505 -10.374  1.00 19.07 LIG-0.40  OA
ATOM     29 HG   SER B 401      41.951  -7.482 -10.049  1.00 19.07 LIG 0.21  HD
ENDBRANCH 27 28
ENDBRANCH 24 27
ENDBRANCH 21 24
ENDBRANCH 19 20
BRANCH 19 30
ATOM     30  CB  SER B 400      39.330 -10.249  -6.076  1.00 20.99 LIG 0.20  C 
BRANCH 30 31
ATOM     31 OG   SER B 400      38.943  -9.917  -4.752  1.00 29.12 LIG-0.40  OA
ATOM     32 HG   SER B 400      38.911  -9.081  -4.670  1.00 29.12 LIG 0.21  HD
ENDBRANCH 30 31
ENDBRANCH 19 30
ENDBRANCH 3 19
TORSDOF 13
ENDMDL
MODEL 63
USER: ADFR SOLUTION from run 50
USER: SCORE 9.901576 LL:  -2.040 LR:  -8.716 RR:   0.000 FEB:  -4.838
USER: RMSD 6.935551
USER: SEED 49
USER: STATUS no improvement in best in 14 clusters for 5 generations
USER: GENES 15
USER: genes 0 Translation |==|  0.64567 0.49740 0.46449
USER: genes 1 Rotation |==|  0.28811 0.49421 0.09294 0.69842
USER: genes 2 Torsion [N]-C--CA-[N] |==|  0.52176
USER: genes 3 Torsion [C]-CA--N-[C] |==|  0.57062
USER: genes 4 Torsion [N]-C--CA-[N] |==|  0.27107
USER: genes 5 Torsion [C]-CA--CB-[CG] |==|  0.89805
USER: genes 6 Torsion [CA]-CB--CG-[CD2] |==|  0.88507
USER: genes 7 Torsion [C]-N--CA-[C] |==|  0.69703
USER: genes 8 Torsion [N]-CA--C-[N] |==|  0.82847
USER: genes 9 Torsion [C]-N--CA-[C] |==|  0.55940
USER: genes 10 Torsion [N]-CA--C-[O] |==|  0.95761
USER: genes 11 Torsion [N]-CA--CB-[OG] |==|  0.83418
USER: genes 12 Torsion [CA]-CB--OG-[HG] |==|  0.25461
USER: genes 13 Torsion [N]-CA--CB-[OG] |==|  0.83515
USER: genes 14 Torsion [CA]-CB--OG-[HG] |==|  0.81480
ROOT
ATOM      1  C   HIS B 399      38.272 -13.169 -11.269  1.00 17.93 LIG 0.24  C 
ATOM      2 O    HIS B 399      37.901 -13.084 -12.440  1.00 15.41 LIG-0.27  OA
ATOM      3  N   SER B 400      38.161 -14.279 -10.548  1.00 17.64 LIG-0.34  N 
ATOM      4 H    SER B 400      38.425 -14.345  -9.732  1.00 17.64 LIG 0.16  HD
ENDROOT
BRANCH 1 5
ATOM      5  CA  HIS B 399      38.899 -11.973 -10.563  1.00 18.55 LIG 0.18  C 
BRANCH 5 6
ATOM      6  N   HIS B 399      38.791 -10.785 -11.398  1.00 19.43 LIG-0.34  N 
ATOM      7 H    HIS B 399      38.139 -10.803 -11.958  1.00 19.43 LIG 0.16  HD
ATOM      8  C   ALA B 398      39.643  -9.771 -11.283  1.00 22.32 LIG 0.26  C 
ATOM      9 O    ALA B 398      40.579  -9.772 -10.482  1.00 22.30 LIG-0.27  OA
BRANCH 8 10
ATOM     10  CA  ALA B 398      39.407  -8.586 -12.214  1.00 21.39 LIG 0.40  C 
ATOM     11  N   ALA B 398      38.650  -7.496 -11.528  1.00 23.95 LIG 0.61  N 
ATOM     12  CB  ALA B 398      40.735  -8.049 -12.728  1.00 21.38 LIG 0.06  C 
ENDBRANCH 8 10
ENDBRANCH 5 6
BRANCH 5 13
ATOM     13  CB  HIS B 399      38.189 -11.729  -9.230  1.00 22.49 LIG 0.10  C 
BRANCH 13 14
ATOM     14  CG  HIS B 399      36.717 -11.989  -9.280  1.00 24.90 LIG 0.06  A 
ATOM     15  CD2 HIS B 399      35.792 -11.693 -10.223  1.00 26.88 LIG 0.14  A 
ATOM     16 NE2  HIS B 399      34.597 -12.218  -9.797  1.00 28.66 LIG-0.25  NA
ATOM     17  CE1 HIS B 399      34.780 -12.815  -8.633  1.00 27.08 LIG 0.23  A 
ATOM     18 ND1  HIS B 399      36.052 -12.690  -8.297  1.00 26.64 LIG-0.24  NA
ENDBRANCH 13 14
ENDBRANCH 5 13
ENDBRANCH 1 5
BRANCH 3 19
ATOM     19  CA  SER B 400      37.570 -15.502 -11.082  1.00 19.59 LIG 0.20  C 
BRANCH 19 20
ATOM     20  C   SER B 400      36.213 -15.750 -10.433  1.00 19.52 LIG 0.24  C 
ATOM     21  N   SER B 401      36.207 -15.933  -9.115  1.00 18.79 LIG-0.34  N 
ATOM     22 H    SER B 401      36.912 -15.920  -8.623  1.00 18.79 LIG 0.16  HD
ATOM     23 O    SER B 400      35.189 -15.767 -11.117  1.00 19.53 LIG-0.27  OA
BRANCH 21 24
ATOM     24  CA  SER B 401      34.965 -16.179  -8.386  1.00 20.07 LIG 0.19  C 
BRANCH 24 25
ATOM     25  C   SER B 401      35.140 -15.834  -6.915  1.00 22.19 LIG 0.22  C 
ATOM     26 O    SER B 401      36.304 -15.693  -6.481  1.00 22.82 LIG-0.29  OA
ENDBRANCH 24 25
BRANCH 24 27
ATOM     27  CB  SER B 401      34.531 -17.643  -8.524  1.00 19.03 LIG 0.20  C 
BRANCH 27 28
ATOM     28 OG   SER B 401      34.318 -17.998  -9.880  1.00 19.07 LIG-0.40  OA
ATOM     29 HG   SER B 401      35.028 -18.309 -10.203  1.00 19.07 LIG 0.21  HD
ENDBRANCH 27 28
ENDBRANCH 24 27
ENDBRANCH 21 24
ENDBRANCH 19 20
BRANCH 19 30
ATOM     30  CB  SER B 400      38.490 -16.694 -10.805  1.00 20.99 LIG 0.20  C 
BRANCH 30 31
ATOM     31 OG   SER B 400      39.763 -16.497 -11.400  1.00 29.12 LIG-0.40  OA
ATOM     32 HG   SER B 400      39.686 -16.503 -12.236  1.00 29.12 LIG 0.21  HD
ENDBRANCH 30 31
ENDBRANCH 19 30
ENDBRANCH 3 19
TORSDOF 13
ENDMDL
MODEL 64
USER: ADFR SOLUTION from run 123
USER: SCORE 10.408143 LL:  -1.998 LR:  -8.717 RR:   0.000 FEB:  -4.839
USER: RMSD 6.508676
USER: SEED 122
USER: STATUS no improvement in best in 10 clusters for 5 generations
USER: GENES 15
USER: genes 0 Translation |==|  0.63997 0.51830 0.42991
USER: genes 1 Rotation |==|  0.59087 0.99110 0.49870 0.52364
USER: genes 2 Torsion [N]-C--CA-[N] |==|  0.21197
USER: genes 3 Torsion [C]-CA--N-[C] |==|  0.74448
USER: genes 4 Torsion [N]-C--CA-[N] |==|  0.82118
USER: genes 5 Torsion [C]-CA--CB-[CG] |==|  0.15788
USER: genes 6 Torsion [CA]-CB--CG-[CD2] |==|  0.04550
USER: genes 7 Torsion [C]-N--CA-[C] |==|  0.16020
USER: genes 8 Torsion [N]-CA--C-[N] |==|  0.11259
USER: genes 9 Torsion [C]-N--CA-[C] |==|  0.65611
USER: genes 10 Torsion [N]-CA--C-[O] |==|  0.08469
USER: genes 11 Torsion [N]-CA--CB-[OG] |==|  0.03520
USER: genes 12 Torsion [CA]-CB--OG-[HG] |==|  0.88037
USER: genes 13 Torsion [N]-CA--CB-[OG] |==|  0.74473
USER: genes 14 Torsion [CA]-CB--OG-[HG] |==|  0.35423
ROOT
ATOM      1  C   HIS B 399      38.170 -12.840 -11.892  1.00 17.93 LIG 0.24  C 
ATOM      2 O    HIS B 399      38.804 -13.021 -10.852  1.00 15.41 LIG-0.27  OA
ATOM      3  N   SER B 400      37.173 -11.967 -11.995  1.00 17.64 LIG-0.34  N 
ATOM      4 H    SER B 400      36.733 -11.832 -12.721  1.00 17.64 LIG 0.16  HD
ENDROOT
BRANCH 1 5
ATOM      5  CA  HIS B 399      38.502 -13.628 -13.153  1.00 18.55 LIG 0.18  C 
BRANCH 5 6
ATOM      6  N   HIS B 399      39.239 -12.789 -14.087  1.00 19.43 LIG-0.34  N 
ATOM      7 H    HIS B 399      40.091 -12.796 -13.975  1.00 19.43 LIG 0.16  HD
ATOM      8  C   ALA B 398      38.620 -12.081 -15.027  1.00 22.32 LIG 0.26  C 
ATOM      9 O    ALA B 398      37.395 -12.075 -15.162  1.00 22.30 LIG-0.27  OA
BRANCH 8 10
ATOM     10  CA  ALA B 398      39.516 -11.253 -15.944  1.00 21.39 LIG 0.40  C 
ATOM     11  N   ALA B 398      40.232 -10.184 -15.187  1.00 23.95 LIG 0.61  N 
ATOM     12  CB  ALA B 398      40.522 -12.154 -16.646  1.00 21.38 LIG 0.06  C 
ENDBRANCH 8 10
ENDBRANCH 5 6
BRANCH 5 13
ATOM     13  CB  HIS B 399      39.343 -14.853 -12.790  1.00 22.49 LIG 0.10  C 
BRANCH 13 14
ATOM     14  CG  HIS B 399      38.686 -15.754 -11.792  1.00 24.90 LIG 0.06  A 
ATOM     15  CD2 HIS B 399      37.400 -15.839 -11.380  1.00 26.88 LIG 0.14  A 
ATOM     16 NE2  HIS B 399      37.326 -16.886 -10.494  1.00 28.66 LIG-0.25  NA
ATOM     17  CE1 HIS B 399      38.526 -17.424 -10.364  1.00 27.08 LIG 0.23  A 
ATOM     18 ND1  HIS B 399      39.367 -16.757 -11.136  1.00 26.64 LIG-0.24  NA
ENDBRANCH 13 14
ENDBRANCH 5 13
ENDBRANCH 1 5
BRANCH 3 19
ATOM     19  CA  SER B 400      36.732 -11.149 -10.870  1.00 19.59 LIG 0.20  C 
BRANCH 19 20
ATOM     20  C   SER B 400      37.897 -10.320 -10.343  1.00 19.52 LIG 0.24  C 
ATOM     21  N   SER B 401      38.709  -9.785 -11.252  1.00 18.79 LIG-0.34  N 
ATOM     22 H    SER B 401      38.612  -9.882 -12.101  1.00 18.79 LIG 0.16  HD
ATOM     23 O    SER B 400      38.052 -10.162  -9.131  1.00 19.53 LIG-0.27  OA
BRANCH 21 24
ATOM     24  CA  SER B 401      39.858  -8.973 -10.863  1.00 20.07 LIG 0.19  C 
BRANCH 24 25
ATOM     25  C   SER B 401      39.782  -7.602 -11.520  1.00 22.19 LIG 0.22  C 
ATOM     26 O    SER B 401      38.650  -7.128 -11.755  1.00 22.82 LIG-0.29  OA
ENDBRANCH 24 25
BRANCH 24 27
ATOM     27  CB  SER B 401      41.172  -9.660 -11.255  1.00 19.03 LIG 0.20  C 
BRANCH 27 28
ATOM     28 OG   SER B 401      40.948 -10.747 -12.137  1.00 19.07 LIG-0.40  OA
ATOM     29 HG   SER B 401      40.287 -11.192 -11.872  1.00 19.07 LIG 0.21  HD
ENDBRANCH 27 28
ENDBRANCH 24 27
ENDBRANCH 21 24
ENDBRANCH 19 20
BRANCH 19 30
ATOM     30  CB  SER B 400      36.197 -12.043  -9.749  1.00 20.99 LIG 0.20  C 
BRANCH 30 31
ATOM     31 OG   SER B 400      34.797 -12.236  -9.880  1.00 29.12 LIG-0.40  OA
ATOM     32 HG   SER B 400      34.625 -13.057  -9.866  1.00 29.12 LIG 0.21  HD
ENDBRANCH 30 31
ENDBRANCH 19 30
ENDBRANCH 3 19
TORSDOF 13
ENDMDL
MODEL 65
USER: ADFR SOLUTION from run 48
USER: SCORE 9.865192 LL:  -1.392 LR:  -8.700 RR:   0.000 FEB:  -4.822
USER: RMSD 4.406592
USER: SEED 47
USER: STATUS no improvement in best in 21 clusters for 5 generations
USER: GENES 15
USER: genes 0 Translation |==|  0.43240 0.31088 0.65773
USER: genes 1 Rotation |==|  0.19934 0.31769 0.77414 0.72631
USER: genes 2 Torsion [N]-C--CA-[N] |==|  0.05555
USER: genes 3 Torsion [C]-CA--N-[C] |==|  0.68142
USER: genes 4 Torsion [N]-C--CA-[N] |==|  0.39328
USER: genes 5 Torsion [C]-CA--CB-[CG] |==|  0.84072
USER: genes 6 Torsion [CA]-CB--CG-[CD2] |==|  0.12730
USER: genes 7 Torsion [C]-N--CA-[C] |==|  0.55642
USER: genes 8 Torsion [N]-CA--C-[N] |==|  0.45144
USER: genes 9 Torsion [C]-N--CA-[C] |==|  0.60304
USER: genes 10 Torsion [N]-CA--C-[O] |==|  0.00651
USER: genes 11 Torsion [N]-CA--CB-[OG] |==|  0.51790
USER: genes 12 Torsion [CA]-CB--OG-[HG] |==|  0.08620
USER: genes 13 Torsion [N]-CA--CB-[OG] |==|  0.83851
USER: genes 14 Torsion [CA]-CB--OG-[HG] |==|  0.64231
ROOT
ATOM      1  C   HIS B 399      34.433 -16.107  -7.791  1.00 17.93 LIG 0.24  C 
ATOM      2 O    HIS B 399      35.292 -16.973  -7.620  1.00 15.41 LIG-0.27  OA
ATOM      3  N   SER B 400      34.580 -15.091  -8.634  1.00 17.64 LIG-0.34  N 
ATOM      4 H    SER B 400      33.981 -14.488  -8.762  1.00 17.64 LIG 0.16  HD
ENDROOT
BRANCH 1 5
ATOM      5  CA  HIS B 399      33.117 -16.154  -7.024  1.00 18.55 LIG 0.18  C 
BRANCH 5 6
ATOM      6  N   HIS B 399      32.111 -15.353  -7.707  1.00 19.43 LIG-0.34  N 
ATOM      7 H    HIS B 399      31.885 -15.650  -8.481  1.00 19.43 LIG 0.16  HD
ATOM      8  C   ALA B 398      31.602 -14.256  -7.154  1.00 22.32 LIG 0.26  C 
ATOM      9 O    ALA B 398      31.950 -13.841  -6.047  1.00 22.30 LIG-0.27  OA
BRANCH 8 10
ATOM     10  CA  ALA B 398      30.548 -13.517  -7.975  1.00 21.39 LIG 0.40  C 
ATOM     11  N   ALA B 398      29.455 -12.986  -7.107  1.00 23.95 LIG 0.61  N 
ATOM     12  CB  ALA B 398      31.193 -12.378  -8.752  1.00 21.38 LIG 0.06  C 
ENDBRANCH 8 10
ENDBRANCH 5 6
BRANCH 5 13
ATOM     13  CB  HIS B 399      32.634 -17.602  -6.917  1.00 22.49 LIG 0.10  C 
BRANCH 13 14
ATOM     14  CG  HIS B 399      32.459 -18.274  -8.243  1.00 24.90 LIG 0.06  A 
ATOM     15  CD2 HIS B 399      33.258 -18.309  -9.335  1.00 26.88 LIG 0.14  A 
ATOM     16 NE2  HIS B 399      32.650 -19.128 -10.255  1.00 28.66 LIG-0.25  NA
ATOM     17  CE1 HIS B 399      31.517 -19.578  -9.747  1.00 27.08 LIG 0.23  A 
ATOM     18 ND1  HIS B 399      31.377 -19.076  -8.533  1.00 26.64 LIG-0.24  NA
ENDBRANCH 13 14
ENDBRANCH 5 13
ENDBRANCH 1 5
BRANCH 3 19
ATOM     19  CA  SER B 400      35.790 -14.904  -9.429  1.00 19.59 LIG 0.20  C 
BRANCH 19 20
ATOM     20  C   SER B 400      35.888 -13.455  -9.892  1.00 19.52 LIG 0.24  C 
ATOM     21  N   SER B 401      37.082 -13.041 -10.310  1.00 18.79 LIG-0.34  N 
ATOM     22 H    SER B 401      37.784 -13.537 -10.331  1.00 18.79 LIG 0.16  HD
ATOM     23 O    SER B 400      34.894 -12.728  -9.877  1.00 19.53 LIG-0.27  OA
BRANCH 21 24
ATOM     24  CA  SER B 401      37.293 -11.673 -10.776  1.00 20.07 LIG 0.19  C 
BRANCH 24 25
ATOM     25  C   SER B 401      38.270 -11.659 -11.943  1.00 22.19 LIG 0.22  C 
ATOM     26 O    SER B 401      38.702 -12.755 -12.358  1.00 22.82 LIG-0.29  OA
ENDBRANCH 24 25
BRANCH 24 27
ATOM     27  CB  SER B 401      37.829 -10.787  -9.645  1.00 19.03 LIG 0.20  C 
BRANCH 27 28
ATOM     28 OG   SER B 401      37.901  -9.427 -10.039  1.00 19.07 LIG-0.40  OA
ATOM     29 HG   SER B 401      37.293  -9.263 -10.595  1.00 19.07 LIG 0.21  HD
ENDBRANCH 27 28
ENDBRANCH 24 27
ENDBRANCH 21 24
ENDBRANCH 19 20
BRANCH 19 30
ATOM     30  CB  SER B 400      35.764 -15.827 -10.650  1.00 20.99 LIG 0.20  C 
BRANCH 30 31
ATOM     31 OG   SER B 400      35.648 -17.184 -10.255  1.00 29.12 LIG-0.40  OA
ATOM     32 HG   SER B 400      36.247 -17.638 -10.631  1.00 29.12 LIG 0.21  HD
ENDBRANCH 30 31
ENDBRANCH 19 30
ENDBRANCH 3 19
TORSDOF 13
ENDMDL
MODEL 66
USER: ADFR SOLUTION from run 4
USER: SCORE 9.885038 LL:  -1.929 LR:  -8.677 RR:   0.000 FEB:  -4.799
USER: RMSD 6.540854
USER: SEED 415184
USER: STATUS no improvement in best in 10 clusters for 5 generations
USER: GENES 15
USER: genes 0 Translation |==|  0.70878 0.65024 0.43491
USER: genes 1 Rotation |==|  0.15569 0.43928 0.80945 0.67889
USER: genes 2 Torsion [N]-C--CA-[N] |==|  0.41277
USER: genes 3 Torsion [C]-CA--N-[C] |==|  0.67812
USER: genes 4 Torsion [N]-C--CA-[N] |==|  0.39763
USER: genes 5 Torsion [C]-CA--CB-[CG] |==|  0.13851
USER: genes 6 Torsion [CA]-CB--CG-[CD2] |==|  0.19655
USER: genes 7 Torsion [C]-N--CA-[C] |==|  0.62847
USER: genes 8 Torsion [N]-CA--C-[N] |==|  0.79790
USER: genes 9 Torsion [C]-N--CA-[C] |==|  0.82296
USER: genes 10 Torsion [N]-CA--C-[O] |==|  0.51908
USER: genes 11 Torsion [N]-CA--CB-[OG] |==|  0.14170
USER: genes 12 Torsion [CA]-CB--OG-[HG] |==|  0.90201
USER: genes 13 Torsion [N]-CA--CB-[OG] |==|  0.04269
USER: genes 14 Torsion [CA]-CB--OG-[HG] |==|  0.08164
ROOT
ATOM      1  C   HIS B 399      39.408 -10.762 -11.802  1.00 17.93 LIG 0.24  C 
ATOM      2 O    HIS B 399      40.149 -11.604 -11.292  1.00 15.41 LIG-0.27  OA
ATOM      3  N   SER B 400      39.544 -10.331 -13.051  1.00 17.64 LIG-0.34  N 
ATOM      4 H    SER B 400      39.025  -9.749 -13.413  1.00 17.64 LIG 0.16  HD
ENDROOT
BRANCH 1 5
ATOM      5  CA  HIS B 399      38.261 -10.152 -11.005  1.00 18.55 LIG 0.18  C 
BRANCH 5 6
ATOM      6  N   HIS B 399      37.747 -11.119 -10.046  1.00 19.43 LIG-0.34  N 
ATOM      7 H    HIS B 399      38.310 -11.350  -9.439  1.00 19.43 LIG 0.16  HD
ATOM      8  C   ALA B 398      36.506 -11.589 -10.127  1.00 22.32 LIG 0.26  C 
ATOM      9 O    ALA B 398      35.719 -11.253 -11.015  1.00 22.30 LIG-0.27  OA
BRANCH 8 10
ATOM     10  CA  ALA B 398      36.095 -12.590  -9.051  1.00 21.39 LIG 0.40  C 
ATOM     11  N   ALA B 398      34.670 -12.401  -8.647  1.00 23.95 LIG 0.61  N 
ATOM     12  CB  ALA B 398      36.308 -14.013  -9.549  1.00 21.38 LIG 0.06  C 
ENDBRANCH 8 10
ENDBRANCH 5 6
BRANCH 5 13
ATOM     13  CB  HIS B 399      38.751  -8.906 -10.265  1.00 22.49 LIG 0.10  C 
BRANCH 13 14
ATOM     14  CG  HIS B 399      39.493  -7.944 -11.139  1.00 24.90 LIG 0.06  A 
ATOM     15  CD2 HIS B 399      39.064  -7.128 -12.130  1.00 26.88 LIG 0.14  A 
ATOM     16 NE2  HIS B 399      40.150  -6.405 -12.559  1.00 28.66 LIG-0.25  NA
ATOM     17  CE1 HIS B 399      41.210  -6.766 -11.858  1.00 27.08 LIG 0.23  A 
ATOM     18 ND1  HIS B 399      40.841  -7.696 -10.994  1.00 26.64 LIG-0.24  NA
ENDBRANCH 13 14
ENDBRANCH 5 13
ENDBRANCH 1 5
BRANCH 3 19
ATOM     19  CA  SER B 400      40.603 -10.813 -13.933  1.00 19.59 LIG 0.20  C 
BRANCH 19 20
ATOM     20  C   SER B 400      41.265  -9.637 -14.640  1.00 19.52 LIG 0.24  C 
ATOM     21  N   SER B 401      40.559  -9.043 -15.600  1.00 18.79 LIG-0.34  N 
ATOM     22 H    SER B 401      39.768  -9.284 -15.835  1.00 18.79 LIG 0.16  HD
ATOM     23 O    SER B 400      42.395  -9.270 -14.316  1.00 19.53 LIG-0.27  OA
BRANCH 21 24
ATOM     24  CA  SER B 401      41.093  -7.906 -16.345  1.00 20.07 LIG 0.19  C 
BRANCH 24 25
ATOM     25  C   SER B 401      41.319  -6.724 -15.414  1.00 22.19 LIG 0.22  C 
ATOM     26 O    SER B 401      41.650  -5.632 -15.925  1.00 22.82 LIG-0.29  OA
ENDBRANCH 24 25
BRANCH 24 27
ATOM     27  CB  SER B 401      40.140  -7.497 -17.475  1.00 19.03 LIG 0.20  C 
BRANCH 27 28
ATOM     28 OG   SER B 401      38.815  -7.322 -17.002  1.00 19.07 LIG-0.40  OA
ATOM     29 HG   SER B 401      38.657  -7.881 -16.395  1.00 19.07 LIG 0.21  HD
ENDBRANCH 27 28
ENDBRANCH 24 27
ENDBRANCH 21 24
ENDBRANCH 19 20
BRANCH 19 30
ATOM     30  CB  SER B 400      40.021 -11.771 -14.976  1.00 20.99 LIG 0.20  C 
BRANCH 30 31
ATOM     31 OG   SER B 400      38.608 -11.658 -15.032  1.00 29.12 LIG-0.40  OA
ATOM     32 HG   SER B 400      38.380 -10.877 -14.823  1.00 29.12 LIG 0.21  HD
ENDBRANCH 30 31
ENDBRANCH 19 30
ENDBRANCH 3 19
TORSDOF 13
ENDMDL
MODEL 67
USER: ADFR SOLUTION from run 55
USER: SCORE 10.329658 LL:  -1.719 LR:  -8.675 RR:   0.000 FEB:  -4.797
USER: RMSD 8.368258
USER: SEED 54
USER: STATUS no improvement in best in 8 clusters for 5 generations
USER: GENES 15
USER: genes 0 Translation |==|  0.66826 0.72051 0.51326
USER: genes 1 Rotation |==|  0.24928 0.92150 0.56811 0.56956
USER: genes 2 Torsion [N]-C--CA-[N] |==|  0.95727
USER: genes 3 Torsion [C]-CA--N-[C] |==|  0.81058
USER: genes 4 Torsion [N]-C--CA-[N] |==|  0.84931
USER: genes 5 Torsion [C]-CA--CB-[CG] |==|  0.46605
USER: genes 6 Torsion [CA]-CB--CG-[CD2] |==|  0.15512
USER: genes 7 Torsion [C]-N--CA-[C] |==|  0.82589
USER: genes 8 Torsion [N]-CA--C-[N] |==|  0.42915
USER: genes 9 Torsion [C]-N--CA-[C] |==|  0.53703
USER: genes 10 Torsion [N]-CA--C-[O] |==|  0.07746
USER: genes 11 Torsion [N]-CA--CB-[OG] |==|  0.04732
USER: genes 12 Torsion [CA]-CB--OG-[HG] |==|  0.78007
USER: genes 13 Torsion [N]-CA--CB-[OG] |==|  0.52728
USER: genes 14 Torsion [CA]-CB--OG-[HG] |==|  0.63336
ROOT
ATOM      1  C   HIS B 399      38.679  -9.655 -10.391  1.00 17.93 LIG 0.24  C 
ATOM      2 O    HIS B 399      38.866  -9.375  -9.207  1.00 15.41 LIG-0.27  OA
ATOM      3  N   SER B 400      37.702 -10.454 -10.805  1.00 17.64 LIG-0.34  N 
ATOM      4 H    SER B 400      37.562 -10.647 -11.632  1.00 17.64 LIG 0.16  HD
ENDROOT
BRANCH 1 5
ATOM      5  CA  HIS B 399      39.581  -9.083 -11.478  1.00 18.55 LIG 0.18  C 
BRANCH 5 6
ATOM      6  N   HIS B 399      39.400  -9.822 -12.719  1.00 19.43 LIG-0.34  N 
ATOM      7 H    HIS B 399      39.025  -9.373 -13.348  1.00 19.43 LIG 0.16  HD
ATOM      8  C   ALA B 398      39.793 -11.087 -12.841  1.00 22.32 LIG 0.26  C 
ATOM      9 O    ALA B 398      40.318 -11.716 -11.920  1.00 22.30 LIG-0.27  OA
BRANCH 8 10
ATOM     10  CA  ALA B 398      39.552 -11.738 -14.200  1.00 21.39 LIG 0.40  C 
ATOM     11  N   ALA B 398      38.120 -11.628 -14.610  1.00 23.95 LIG 0.61  N 
ATOM     12  CB  ALA B 398      40.443 -11.096 -15.254  1.00 21.38 LIG 0.06  C 
ENDBRANCH 8 10
ENDBRANCH 5 6
BRANCH 5 13
ATOM     13  CB  HIS B 399      39.245  -7.608 -11.705  1.00 22.49 LIG 0.10  C 
BRANCH 13 14
ATOM     14  CG  HIS B 399      40.257  -6.885 -12.537  1.00 24.90 LIG 0.06  A 
ATOM     15  CD2 HIS B 399      40.739  -7.141 -13.776  1.00 26.88 LIG 0.14  A 
ATOM     16 NE2  HIS B 399      41.602  -6.122 -14.093  1.00 28.66 LIG-0.25  NA
ATOM     17  CE1 HIS B 399      41.652  -5.270 -13.084  1.00 27.08 LIG 0.23  A 
ATOM     18 ND1  HIS B 399      40.850  -5.709 -12.130  1.00 26.64 LIG-0.24  NA
ENDBRANCH 13 14
ENDBRANCH 5 13
ENDBRANCH 1 5
BRANCH 3 19
ATOM     19  CA  SER B 400      36.765 -11.086  -9.882  1.00 19.59 LIG 0.20  C 
BRANCH 19 20
ATOM     20  C   SER B 400      37.515 -12.026  -8.945  1.00 19.52 LIG 0.24  C 
ATOM     21  N   SER B 401      36.953 -12.265  -7.762  1.00 18.79 LIG-0.34  N 
ATOM     22 H    SER B 401      36.206 -11.924  -7.506  1.00 18.79 LIG 0.16  HD
ATOM     23 O    SER B 400      38.583 -12.531  -9.292  1.00 19.53 LIG-0.27  OA
BRANCH 21 24
ATOM     24  CA  SER B 401      37.582 -13.149  -6.784  1.00 20.07 LIG 0.19  C 
BRANCH 24 25
ATOM     25  C   SER B 401      36.594 -13.503  -5.682  1.00 22.19 LIG 0.22  C 
ATOM     26 O    SER B 401      35.377 -13.504  -5.965  1.00 22.82 LIG-0.29  OA
ENDBRANCH 24 25
BRANCH 24 27
ATOM     27  CB  SER B 401      38.824 -12.490  -6.172  1.00 19.03 LIG 0.20  C 
BRANCH 27 28
ATOM     28 OG   SER B 401      38.836 -11.091  -6.396  1.00 19.07 LIG-0.40  OA
ATOM     29 HG   SER B 401      39.096 -10.934  -7.179  1.00 19.07 LIG 0.21  HD
ENDBRANCH 27 28
ENDBRANCH 24 27
ENDBRANCH 21 24
ENDBRANCH 19 20
BRANCH 19 30
ATOM     30  CB  SER B 400      35.713 -11.880 -10.661  1.00 20.99 LIG 0.20  C 
BRANCH 30 31
ATOM     31 OG   SER B 400      34.669 -12.313  -9.804  1.00 29.12 LIG-0.40  OA
ATOM     32 HG   SER B 400      34.517 -13.128  -9.937  1.00 29.12 LIG 0.21  HD
ENDBRANCH 30 31
ENDBRANCH 19 30
ENDBRANCH 3 19
TORSDOF 13
ENDMDL
MODEL 68
USER: ADFR SOLUTION from run 179
USER: SCORE 10.087644 LL:  -1.883 LR:  -8.660 RR:   0.000 FEB:  -4.782
USER: RMSD 4.978242
USER: SEED 178
USER: STATUS no improvement in best in 17 clusters for 5 generations
USER: GENES 15
USER: genes 0 Translation |==|  0.60236 0.54537 0.46712
USER: genes 1 Rotation |==|  0.19520 0.56357 0.71299 0.82816
USER: genes 2 Torsion [N]-C--CA-[N] |==|  0.48749
USER: genes 3 Torsion [C]-CA--N-[C] |==|  0.78687
USER: genes 4 Torsion [N]-C--CA-[N] |==|  0.47538
USER: genes 5 Torsion [C]-CA--CB-[CG] |==|  0.26044
USER: genes 6 Torsion [CA]-CB--CG-[CD2] |==|  0.25768
USER: genes 7 Torsion [C]-N--CA-[C] |==|  0.87222
USER: genes 8 Torsion [N]-CA--C-[N] |==|  0.86669
USER: genes 9 Torsion [C]-N--CA-[C] |==|  0.15925
USER: genes 10 Torsion [N]-CA--C-[O] |==|  0.28897
USER: genes 11 Torsion [N]-CA--CB-[OG] |==|  0.24804
USER: genes 12 Torsion [CA]-CB--OG-[HG] |==|  0.89517
USER: genes 13 Torsion [N]-CA--CB-[OG] |==|  0.73685
USER: genes 14 Torsion [CA]-CB--OG-[HG] |==|  0.36559
ROOT
ATOM      1  C   HIS B 399      37.492 -12.413 -11.222  1.00 17.93 LIG 0.24  C 
ATOM      2 O    HIS B 399      37.331 -13.609 -10.973  1.00 15.41 LIG-0.27  OA
ATOM      3  N   SER B 400      37.922 -11.965 -12.396  1.00 17.64 LIG-0.34  N 
ATOM      4 H    SER B 400      38.030 -11.132 -12.577  1.00 17.64 LIG 0.16  HD
ENDROOT
BRANCH 1 5
ATOM      5  CA  HIS B 399      37.199 -11.352 -10.168  1.00 18.55 LIG 0.18  C 
BRANCH 5 6
ATOM      6  N   HIS B 399      36.639 -11.972  -8.976  1.00 19.43 LIG-0.34  N 
ATOM      7 H    HIS B 399      37.191 -12.050  -8.323  1.00 19.43 LIG 0.16  HD
ATOM      8  C   ALA B 398      35.372 -12.376  -8.930  1.00 22.32 LIG 0.26  C 
ATOM      9 O    ALA B 398      34.599 -12.265  -9.884  1.00 22.30 LIG-0.27  OA
BRANCH 8 10
ATOM     10  CA  ALA B 398      34.913 -12.999  -7.615  1.00 21.39 LIG 0.40  C 
ATOM     11  N   ALA B 398      33.436 -13.217  -7.601  1.00 23.95 LIG 0.61  N 
ATOM     12  CB  ALA B 398      35.634 -14.320  -7.381  1.00 21.38 LIG 0.06  C 
ENDBRANCH 8 10
ENDBRANCH 5 6
BRANCH 5 13
ATOM     13  CB  HIS B 399      38.489 -10.614  -9.805  1.00 22.49 LIG 0.10  C 
BRANCH 13 14
ATOM     14  CG  HIS B 399      38.702  -9.361 -10.593  1.00 24.90 LIG 0.06  A 
ATOM     15  CD2 HIS B 399      38.368  -8.075 -10.330  1.00 26.88 LIG 0.14  A 
ATOM     16 NE2  HIS B 399      38.860  -7.310 -11.359  1.00 28.66 LIG-0.25  NA
ATOM     17  CE1 HIS B 399      39.473  -8.097 -12.226  1.00 27.08 LIG 0.23  A 
ATOM     18 ND1  HIS B 399      39.390  -9.342 -11.788  1.00 26.64 LIG-0.24  NA
ENDBRANCH 13 14
ENDBRANCH 5 13
ENDBRANCH 1 5
BRANCH 3 19
ATOM     19  CA  SER B 400      38.256 -12.861 -13.500  1.00 19.59 LIG 0.20  C 
BRANCH 19 20
ATOM     20  C   SER B 400      39.111 -14.015 -12.990  1.00 19.52 LIG 0.24  C 
ATOM     21  N   SER B 401      40.145 -13.697 -12.214  1.00 18.79 LIG-0.34  N 
ATOM     22 H    SER B 401      40.349 -12.892 -11.992  1.00 18.79 LIG 0.16  HD
ATOM     23 O    SER B 400      38.833 -15.177 -13.290  1.00 19.53 LIG-0.27  OA
BRANCH 21 24
ATOM     24  CA  SER B 401      41.032 -14.720 -11.669  1.00 20.07 LIG 0.19  C 
BRANCH 24 25
ATOM     25  C   SER B 401      41.639 -15.546 -12.795  1.00 22.19 LIG 0.22  C 
ATOM     26 O    SER B 401      42.830 -15.326 -13.105  1.00 22.82 LIG-0.29  OA
ENDBRANCH 24 25
BRANCH 24 27
ATOM     27  CB  SER B 401      40.278 -15.641 -10.704  1.00 19.03 LIG 0.20  C 
BRANCH 27 28
ATOM     28 OG   SER B 401      39.701 -16.745 -11.380  1.00 19.07 LIG-0.40  OA
ATOM     29 HG   SER B 401      39.413 -16.496 -12.128  1.00 19.07 LIG 0.21  HD
ENDBRANCH 27 28
ENDBRANCH 24 27
ENDBRANCH 21 24
ENDBRANCH 19 20
BRANCH 19 30
ATOM     30  CB  SER B 400      39.026 -12.098 -14.580  1.00 20.99 LIG 0.20  C 
BRANCH 30 31
ATOM     31 OG   SER B 400      38.148 -11.630 -15.591  1.00 29.12 LIG-0.40  OA
ATOM     32 HG   SER B 400      38.304 -10.819 -15.745  1.00 29.12 LIG 0.21  HD
ENDBRANCH 30 31
ENDBRANCH 19 30
ENDBRANCH 3 19
TORSDOF 13
ENDMDL
MODEL 69
USER: ADFR SOLUTION from run 102
USER: SCORE 9.699967 LL:  -1.605 LR:  -8.641 RR:   0.000 FEB:  -4.763
USER: RMSD 7.519679
USER: SEED 101
USER: STATUS no improvement in best in 15 clusters for 5 generations
USER: GENES 15
USER: genes 0 Translation |==|  0.63644 0.52115 0.41296
USER: genes 1 Rotation |==|  0.57804 0.99044 0.55555 0.51697
USER: genes 2 Torsion [N]-C--CA-[N] |==|  0.24262
USER: genes 3 Torsion [C]-CA--N-[C] |==|  0.66590
USER: genes 4 Torsion [N]-C--CA-[N] |==|  0.84866
USER: genes 5 Torsion [C]-CA--CB-[CG] |==|  0.62353
USER: genes 6 Torsion [CA]-CB--CG-[CD2] |==|  0.76587
USER: genes 7 Torsion [C]-N--CA-[C] |==|  0.16060
USER: genes 8 Torsion [N]-CA--C-[N] |==|  0.13688
USER: genes 9 Torsion [C]-N--CA-[C] |==|  0.87348
USER: genes 10 Torsion [N]-CA--C-[O] |==|  0.85790
USER: genes 11 Torsion [N]-CA--CB-[OG] |==|  0.11064
USER: genes 12 Torsion [CA]-CB--OG-[HG] |==|  0.04022
USER: genes 13 Torsion [N]-CA--CB-[OG] |==|  0.64755
USER: genes 14 Torsion [CA]-CB--OG-[HG] |==|  0.36855
ROOT
ATOM      1  C   HIS B 399      38.106 -12.795 -12.197  1.00 17.93 LIG 0.24  C 
ATOM      2 O    HIS B 399      38.742 -13.168 -11.210  1.00 15.41 LIG-0.27  OA
ATOM      3  N   SER B 400      37.058 -11.981 -12.124  1.00 17.64 LIG-0.34  N 
ATOM      4 H    SER B 400      36.616 -11.712 -12.811  1.00 17.64 LIG 0.16  HD
ENDROOT
BRANCH 1 5
ATOM      5  CA  HIS B 399      38.497 -13.258 -13.595  1.00 18.55 LIG 0.18  C 
BRANCH 5 6
ATOM      6  N   HIS B 399      39.407 -12.299 -14.204  1.00 19.43 LIG-0.34  N 
ATOM      7 H    HIS B 399      40.138 -12.177 -13.769  1.00 19.43 LIG 0.16  HD
ATOM      8  C   ALA B 398      39.106 -11.676 -15.340  1.00 22.32 LIG 0.26  C 
ATOM      9 O    ALA B 398      38.045 -11.856 -15.941  1.00 22.30 LIG-0.27  OA
BRANCH 8 10
ATOM     10  CA  ALA B 398      40.155 -10.704 -15.871  1.00 21.39 LIG 0.40  C 
ATOM     11  N   ALA B 398      40.525  -9.686 -14.843  1.00 23.95 LIG 0.61  N 
ATOM     12  CB  ALA B 398      41.396 -11.464 -16.317  1.00 21.38 LIG 0.06  C 
ENDBRANCH 8 10
ENDBRANCH 5 6
BRANCH 5 13
ATOM     13  CB  HIS B 399      39.173 -14.628 -13.515  1.00 22.49 LIG 0.10  C 
BRANCH 13 14
ATOM     14  CG  HIS B 399      40.404 -14.737 -14.358  1.00 24.90 LIG 0.06  A 
ATOM     15  CD2 HIS B 399      40.561 -15.030 -15.670  1.00 26.88 LIG 0.14  A 
ATOM     16 NE2  HIS B 399      41.902 -14.930 -15.950  1.00 28.66 LIG-0.25  NA
ATOM     17  CE1 HIS B 399      42.547 -14.590 -14.848  1.00 27.08 LIG 0.23  A 
ATOM     18 ND1  HIS B 399      41.665 -14.469 -13.871  1.00 26.64 LIG-0.24  NA
ENDBRANCH 13 14
ENDBRANCH 5 13
ENDBRANCH 1 5
BRANCH 3 19
ATOM     19  CA  SER B 400      36.558 -11.464 -10.854  1.00 19.59 LIG 0.20  C 
BRANCH 19 20
ATOM     20  C   SER B 400      37.664 -10.704 -10.131  1.00 19.52 LIG 0.24  C 
ATOM     21  N   SER B 401      38.330  -9.798 -10.843  1.00 18.79 LIG-0.34  N 
ATOM     22 H    SER B 401      38.171  -9.624 -11.670  1.00 18.79 LIG 0.16  HD
ATOM     23 O    SER B 400      37.905 -10.933  -8.945  1.00 19.53 LIG-0.27  OA
BRANCH 21 24
ATOM     24  CA  SER B 401      39.411  -9.011 -10.255  1.00 20.07 LIG 0.19  C 
BRANCH 24 25
ATOM     25  C   SER B 401      38.995  -8.482  -8.890  1.00 22.19 LIG 0.22  C 
ATOM     26 O    SER B 401      37.904  -7.878  -8.804  1.00 22.82 LIG-0.29  OA
ENDBRANCH 24 25
BRANCH 24 27
ATOM     27  CB  SER B 401      39.793  -7.840 -11.167  1.00 19.03 LIG 0.20  C 
BRANCH 27 28
ATOM     28 OG   SER B 401      38.650  -7.241 -11.754  1.00 19.07 LIG-0.40  OA
ATOM     29 HG   SER B 401      37.960  -7.500 -11.352  1.00 19.07 LIG 0.21  HD
ENDBRANCH 27 28
ENDBRANCH 24 27
ENDBRANCH 21 24
ENDBRANCH 19 20
BRANCH 19 30
ATOM     30  CB  SER B 400      36.074 -12.617  -9.972  1.00 20.99 LIG 0.20  C 
BRANCH 30 31
ATOM     31 OG   SER B 400      34.745 -12.391  -9.530  1.00 29.12 LIG-0.40  OA
ATOM     32 HG   SER B 400      34.288 -13.086  -9.646  1.00 29.12 LIG 0.21  HD
ENDBRANCH 30 31
ENDBRANCH 19 30
ENDBRANCH 3 19
TORSDOF 13
ENDMDL
MODEL 70
USER: ADFR SOLUTION from run 80
USER: SCORE 10.242899 LL:  -1.851 LR:  -8.626 RR:   0.000 FEB:  -4.748
USER: RMSD 7.085064
USER: SEED 79
USER: STATUS no improvement in best in 12 clusters for 5 generations
USER: GENES 15
USER: genes 0 Translation |==|  0.68546 0.64729 0.46361
USER: genes 1 Rotation |==|  0.32889 0.95396 0.61972 0.51742
USER: genes 2 Torsion [N]-C--CA-[N] |==|  0.39167
USER: genes 3 Torsion [C]-CA--N-[C] |==|  0.82006
USER: genes 4 Torsion [N]-C--CA-[N] |==|  0.91705
USER: genes 5 Torsion [C]-CA--CB-[CG] |==|  0.18719
USER: genes 6 Torsion [CA]-CB--CG-[CD2] |==|  0.68445
USER: genes 7 Torsion [C]-N--CA-[C] |==|  0.75750
USER: genes 8 Torsion [N]-CA--C-[N] |==|  0.88058
USER: genes 9 Torsion [C]-N--CA-[C] |==|  0.16173
USER: genes 10 Torsion [N]-CA--C-[O] |==|  0.24512
USER: genes 11 Torsion [N]-CA--CB-[OG] |==|  0.64901
USER: genes 12 Torsion [CA]-CB--OG-[HG] |==|  0.06260
USER: genes 13 Torsion [N]-CA--CB-[OG] |==|  0.45829
USER: genes 14 Torsion [CA]-CB--OG-[HG] |==|  0.62943
ROOT
ATOM      1  C   HIS B 399      38.988 -10.808 -11.285  1.00 17.93 LIG 0.24  C 
ATOM      2 O    HIS B 399      39.616 -10.754 -10.226  1.00 15.41 LIG-0.27  OA
ATOM      3  N   SER B 400      37.745 -11.268 -11.373  1.00 17.64 LIG-0.34  N 
ATOM      4 H    SER B 400      37.301 -11.301 -12.108  1.00 17.64 LIG 0.16  HD
ENDROOT
BRANCH 1 5
ATOM      5  CA  HIS B 399      39.621 -10.336 -12.589  1.00 18.55 LIG 0.18  C 
BRANCH 5 6
ATOM      6  N   HIS B 399      40.416  -9.140 -12.355  1.00 19.43 LIG-0.34  N 
ATOM      7 H    HIS B 399      41.259  -9.241 -12.492  1.00 19.43 LIG 0.16  HD
ATOM      8  C   ALA B 398      39.860  -7.998 -11.962  1.00 22.32 LIG 0.26  C 
ATOM      9 O    ALA B 398      38.650  -7.878 -11.759  1.00 22.30 LIG-0.27  OA
BRANCH 8 10
ATOM     10  CA  ALA B 398      40.810  -6.820 -11.764  1.00 21.39 LIG 0.40  C 
ATOM     11  N   ALA B 398      42.170  -7.281 -11.352  1.00 23.95 LIG 0.61  N 
ATOM     12  CB  ALA B 398      40.906  -6.003 -13.045  1.00 21.38 LIG 0.06  C 
ENDBRANCH 8 10
ENDBRANCH 5 6
BRANCH 5 13
ATOM     13  CB  HIS B 399      40.510 -11.441 -13.161  1.00 22.49 LIG 0.10  C 
BRANCH 13 14
ATOM     14  CG  HIS B 399      39.748 -12.644 -13.622  1.00 24.90 LIG 0.06  A 
ATOM     15  CD2 HIS B 399      39.724 -13.915 -13.157  1.00 26.88 LIG 0.14  A 
ATOM     16 NE2  HIS B 399      38.799 -14.602 -13.904  1.00 28.66 LIG-0.25  NA
ATOM     17  CE1 HIS B 399      38.275 -13.783 -14.798  1.00 27.08 LIG 0.23  A 
ATOM     18 ND1  HIS B 399      38.832 -12.594 -14.651  1.00 26.64 LIG-0.24  NA
ENDBRANCH 13 14
ENDBRANCH 5 13
ENDBRANCH 1 5
BRANCH 3 19
ATOM     19  CA  SER B 400      37.012 -11.766 -10.213  1.00 19.59 LIG 0.20  C 
BRANCH 19 20
ATOM     20  C   SER B 400      37.310 -13.247 -10.009  1.00 19.52 LIG 0.24  C 
ATOM     21  N   SER B 401      37.326 -14.009 -11.099  1.00 18.79 LIG-0.34  N 
ATOM     22 H    SER B 401      37.180 -13.715 -11.894  1.00 18.79 LIG 0.16  HD
ATOM     23 O    SER B 400      37.527 -13.689  -8.880  1.00 19.53 LIG-0.27  OA
BRANCH 21 24
ATOM     24  CA  SER B 401      37.598 -15.442 -11.024  1.00 20.07 LIG 0.19  C 
BRANCH 24 25
ATOM     25  C   SER B 401      36.587 -16.124 -10.115  1.00 22.19 LIG 0.22  C 
ATOM     26 O    SER B 401      35.520 -16.529 -10.627  1.00 22.82 LIG-0.29  OA
ENDBRANCH 24 25
BRANCH 24 27
ATOM     27  CB  SER B 401      39.017 -15.702 -10.503  1.00 19.03 LIG 0.20  C 
BRANCH 27 28
ATOM     28 OG   SER B 401      39.748 -16.542 -11.379  1.00 19.07 LIG-0.40  OA
ATOM     29 HG   SER B 401      39.415 -16.503 -12.149  1.00 19.07 LIG 0.21  HD
ENDBRANCH 27 28
ENDBRANCH 24 27
ENDBRANCH 21 24
ENDBRANCH 19 20
BRANCH 19 30
ATOM     30  CB  SER B 400      35.508 -11.574 -10.421  1.00 20.99 LIG 0.20  C 
BRANCH 30 31
ATOM     31 OG   SER B 400      34.767 -12.346  -9.488  1.00 29.12 LIG-0.40  OA
ATOM     32 HG   SER B 400      34.152 -12.754  -9.887  1.00 29.12 LIG 0.21  HD
ENDBRANCH 30 31
ENDBRANCH 19 30
ENDBRANCH 3 19
TORSDOF 13
ENDMDL
MODEL 71
USER: ADFR SOLUTION from run 153
USER: SCORE 10.118752 LL:  -1.906 LR:  -8.622 RR:   0.000 FEB:  -4.744
USER: RMSD 5.351257
USER: SEED 152
USER: STATUS no improvement in best in 3 clusters for 5 generations
USER: GENES 15
USER: genes 0 Translation |==|  0.36810 0.49829 0.69047
USER: genes 1 Rotation |==|  0.90245 0.64228 0.26865 0.61944
USER: genes 2 Torsion [N]-C--CA-[N] |==|  0.15340
USER: genes 3 Torsion [C]-CA--N-[C] |==|  0.15000
USER: genes 4 Torsion [N]-C--CA-[N] |==|  0.32150
USER: genes 5 Torsion [C]-CA--CB-[CG] |==|  0.23859
USER: genes 6 Torsion [CA]-CB--CG-[CD2] |==|  0.17461
USER: genes 7 Torsion [C]-N--CA-[C] |==|  0.60626
USER: genes 8 Torsion [N]-CA--C-[N] |==|  0.48393
USER: genes 9 Torsion [C]-N--CA-[C] |==|  0.77430
USER: genes 10 Torsion [N]-CA--C-[O] |==|  0.02490
USER: genes 11 Torsion [N]-CA--CB-[OG] |==|  0.65020
USER: genes 12 Torsion [CA]-CB--OG-[HG] |==|  0.02989
USER: genes 13 Torsion [N]-CA--CB-[OG] |==|  0.24057
USER: genes 14 Torsion [CA]-CB--OG-[HG] |==|  0.18754
ROOT
ATOM      1  C   HIS B 399      33.276 -13.155  -7.202  1.00 17.93 LIG 0.24  C 
ATOM      2 O    HIS B 399      33.608 -12.754  -6.085  1.00 15.41 LIG-0.27  OA
ATOM      3  N   SER B 400      34.103 -13.186  -8.241  1.00 17.64 LIG-0.34  N 
ATOM      4 H    SER B 400      33.878 -13.472  -9.020  1.00 17.64 LIG 0.16  HD
ENDROOT
BRANCH 1 5
ATOM      5  CA  HIS B 399      31.859 -13.654  -7.459  1.00 18.55 LIG 0.18  C 
BRANCH 5 6
ATOM      6  N   HIS B 399      31.895 -15.003  -8.005  1.00 19.43 LIG-0.34  N 
ATOM      7 H    HIS B 399      31.468 -15.099  -8.745  1.00 19.43 LIG 0.16  HD
ATOM      8  C   ALA B 398      32.545 -15.987  -7.390  1.00 22.32 LIG 0.26  C 
ATOM      9 O    ALA B 398      33.142 -15.830  -6.323  1.00 22.30 LIG-0.27  OA
BRANCH 8 10
ATOM     10  CA  ALA B 398      32.510 -17.349  -8.078  1.00 21.39 LIG 0.40  C 
ATOM     11  N   ALA B 398      33.874 -17.776  -8.511  1.00 23.95 LIG 0.61  N 
ATOM     12  CB  ALA B 398      31.912 -18.392  -7.146  1.00 21.38 LIG 0.06  C 
ENDBRANCH 8 10
ENDBRANCH 5 6
BRANCH 5 13
ATOM     13  CB  HIS B 399      31.064 -13.650  -6.152  1.00 22.49 LIG 0.10  C 
BRANCH 13 14
ATOM     14  CG  HIS B 399      30.426 -12.332  -5.844  1.00 24.90 LIG 0.06  A 
ATOM     15  CD2 HIS B 399      29.479 -11.626  -6.505  1.00 26.88 LIG 0.14  A 
ATOM     16 NE2  HIS B 399      29.205 -10.512  -5.749  1.00 28.66 LIG-0.25  NA
ATOM     17  CE1 HIS B 399      29.959 -10.532  -4.664  1.00 27.08 LIG 0.23  A 
ATOM     18 ND1  HIS B 399      30.707 -11.620  -4.698  1.00 26.64 LIG-0.24  NA
ENDBRANCH 13 14
ENDBRANCH 5 13
ENDBRANCH 1 5
BRANCH 3 19
ATOM     19  CA  SER B 400      35.487 -12.729  -8.152  1.00 19.59 LIG 0.20  C 
BRANCH 19 20
ATOM     20  C   SER B 400      35.876 -12.002  -9.434  1.00 19.52 LIG 0.24  C 
ATOM     21  N   SER B 401      37.075 -11.424  -9.452  1.00 18.79 LIG-0.34  N 
ATOM     22 H    SER B 401      37.627 -11.440  -8.793  1.00 18.79 LIG 0.16  HD
ATOM     23 O    SER B 400      35.103 -11.972 -10.392  1.00 19.53 LIG-0.27  OA
BRANCH 21 24
ATOM     24  CA  SER B 401      37.553 -10.700 -10.626  1.00 20.07 LIG 0.19  C 
BRANCH 24 25
ATOM     25  C   SER B 401      38.107 -11.672 -11.657  1.00 22.19 LIG 0.22  C 
ATOM     26 O    SER B 401      37.929 -12.894 -11.463  1.00 22.82 LIG-0.29  OA
ENDBRANCH 24 25
BRANCH 24 27
ATOM     27  CB  SER B 401      38.638  -9.687 -10.239  1.00 19.03 LIG 0.20  C 
BRANCH 27 28
ATOM     28 OG   SER B 401      38.319  -8.383 -10.694  1.00 19.07 LIG-0.40  OA
ATOM     29 HG   SER B 401      37.525  -8.367 -10.967  1.00 19.07 LIG 0.21  HD
ENDBRANCH 27 28
ENDBRANCH 24 27
ENDBRANCH 21 24
ENDBRANCH 19 20
BRANCH 19 30
ATOM     30  CB  SER B 400      36.421 -13.924  -7.942  1.00 20.99 LIG 0.20  C 
BRANCH 30 31
ATOM     31 OG   SER B 400      36.795 -14.497  -9.185  1.00 29.12 LIG-0.40  OA
ATOM     32 HG   SER B 400      37.279 -13.957  -9.608  1.00 29.12 LIG 0.21  HD
ENDBRANCH 30 31
ENDBRANCH 19 30
ENDBRANCH 3 19
TORSDOF 13
ENDMDL
MODEL 72
USER: ADFR SOLUTION from run 197
USER: SCORE 10.092344 LL:  -1.903 LR:  -8.616 RR:   0.000 FEB:  -4.738
USER: RMSD 6.564245
USER: SEED 196
USER: STATUS no improvement in best in 9 clusters for 5 generations
USER: GENES 15
USER: genes 0 Translation |==|  0.34576 0.34535 0.69130
USER: genes 1 Rotation |==|  0.09223 0.63790 0.67525 0.68437
USER: genes 2 Torsion [N]-C--CA-[N] |==|  0.89359
USER: genes 3 Torsion [C]-CA--N-[C] |==|  0.79530
USER: genes 4 Torsion [N]-C--CA-[N] |==|  0.52562
USER: genes 5 Torsion [C]-CA--CB-[CG] |==|  0.35945
USER: genes 6 Torsion [CA]-CB--CG-[CD2] |==|  0.54180
USER: genes 7 Torsion [C]-N--CA-[C] |==|  0.66116
USER: genes 8 Torsion [N]-CA--C-[N] |==|  0.92444
USER: genes 9 Torsion [C]-N--CA-[C] |==|  0.73207
USER: genes 10 Torsion [N]-CA--C-[O] |==|  0.98436
USER: genes 11 Torsion [N]-CA--CB-[OG] |==|  0.52088
USER: genes 12 Torsion [CA]-CB--OG-[HG] |==|  0.14049
USER: genes 13 Torsion [N]-CA--CB-[OG] |==|  0.40200
USER: genes 14 Torsion [CA]-CB--OG-[HG] |==|  0.86128
ROOT
ATOM      1  C   HIS B 399      32.874 -15.564  -7.187  1.00 17.93 LIG 0.24  C 
ATOM      2 O    HIS B 399      32.730 -16.233  -6.163  1.00 15.41 LIG-0.27  OA
ATOM      3  N   SER B 400      33.303 -16.073  -8.336  1.00 17.64 LIG-0.34  N 
ATOM      4 H    SER B 400      33.398 -15.610  -9.055  1.00 17.64 LIG 0.16  HD
ENDROOT
BRANCH 1 5
ATOM      5  CA  HIS B 399      32.557 -14.073  -7.192  1.00 18.55 LIG 0.18  C 
BRANCH 5 6
ATOM      6  N   HIS B 399      33.529 -13.358  -8.005  1.00 19.43 LIG-0.34  N 
ATOM      7 H    HIS B 399      33.228 -13.088  -8.764  1.00 19.43 LIG 0.16  HD
ATOM      8  C   ALA B 398      34.774 -13.152  -7.584  1.00 22.32 LIG 0.26  C 
ATOM      9 O    ALA B 398      35.188 -13.558  -6.497  1.00 22.30 LIG-0.27  OA
BRANCH 8 10
ATOM     10  CA  ALA B 398      35.685 -12.379  -8.534  1.00 21.39 LIG 0.40  C 
ATOM     11  N   ALA B 398      37.103 -12.398  -8.065  1.00 23.95 LIG 0.61  N 
ATOM     12  CB  ALA B 398      35.595 -12.961  -9.937  1.00 21.38 LIG 0.06  C 
ENDBRANCH 8 10
ENDBRANCH 5 6
BRANCH 5 13
ATOM     13  CB  HIS B 399      31.152 -13.846  -7.752  1.00 22.49 LIG 0.10  C 
BRANCH 13 14
ATOM     14  CG  HIS B 399      30.294 -12.981  -6.883  1.00 24.90 LIG 0.06  A 
ATOM     15  CD2 HIS B 399      28.957 -12.769  -6.880  1.00 26.88 LIG 0.14  A 
ATOM     16 NE2  HIS B 399      28.682 -11.932  -5.827  1.00 28.66 LIG-0.25  NA
ATOM     17  CE1 HIS B 399      29.811 -11.637  -5.206  1.00 27.08 LIG 0.23  A 
ATOM     18 ND1  HIS B 399      30.800 -12.257  -5.825  1.00 26.64 LIG-0.24  NA
ENDBRANCH 13 14
ENDBRANCH 5 13
ENDBRANCH 1 5
BRANCH 3 19
ATOM     19  CA  SER B 400      33.658 -17.481  -8.483  1.00 19.59 LIG 0.20  C 
BRANCH 19 20
ATOM     20  C   SER B 400      35.103 -17.606  -8.950  1.00 19.52 LIG 0.24  C 
ATOM     21  N   SER B 401      35.594 -16.588  -9.654  1.00 18.79 LIG-0.34  N 
ATOM     22 H    SER B 401      35.147 -15.881  -9.854  1.00 18.79 LIG 0.16  HD
ATOM     23 O    SER B 400      35.765 -18.606  -8.670  1.00 19.53 LIG-0.27  OA
BRANCH 21 24
ATOM     24  CA  SER B 401      36.966 -16.598 -10.153  1.00 20.07 LIG 0.19  C 
BRANCH 24 25
ATOM     25  C   SER B 401      37.880 -15.841  -9.201  1.00 22.19 LIG 0.22  C 
ATOM     26 O    SER B 401      37.354 -15.247  -8.235  1.00 22.82 LIG-0.29  OA
ENDBRANCH 24 25
BRANCH 24 27
ATOM     27  CB  SER B 401      37.044 -15.972 -11.551  1.00 19.03 LIG 0.20  C 
BRANCH 27 28
ATOM     28 OG   SER B 401      38.333 -16.128 -12.120  1.00 19.07 LIG-0.40  OA
ATOM     29 HG   SER B 401      38.567 -16.932 -12.068  1.00 19.07 LIG 0.21  HD
ENDBRANCH 27 28
ENDBRANCH 24 27
ENDBRANCH 21 24
ENDBRANCH 19 20
BRANCH 19 30
ATOM     30  CB  SER B 400      32.735 -18.150  -9.505  1.00 20.99 LIG 0.20  C 
BRANCH 30 31
ATOM     31 OG   SER B 400      33.438 -19.129 -10.255  1.00 29.12 LIG-0.40  OA
ATOM     32 HG   SER B 400      34.150 -18.796 -10.552  1.00 29.12 LIG 0.21  HD
ENDBRANCH 30 31
ENDBRANCH 19 30
ENDBRANCH 3 19
TORSDOF 13
ENDMDL
