MODEL 1
USER: ADFR SOLUTION from run 189
USER: SCORE 18.518056 LL:  -3.527 LR: -15.394 RR:   0.000 FEB:  -9.428
USER: RMSD 2.781012
USER: SEED 188
USER: STATUS 1 or 2 clusters left
USER: GENES 22
USER: genes 0 Translation |==|  0.36136 0.48507 0.46799
USER: genes 1 Rotation |==|  0.49803 0.54721 0.50332 0.99775
USER: genes 2 Torsion [C]-N--CA-[C] |==|  0.77079
USER: genes 3 Torsion [N]-CA--C-[N] |==|  0.42074
USER: genes 4 Torsion [C]-N--CA-[CB] |==|  0.29264
USER: genes 5 Torsion [N]-CA--CB-[CG] |==|  0.87056
USER: genes 6 Torsion [CA]-CB--CG-[CD1] |==|  0.83834
USER: genes 7 Torsion [N]-CA--C-[O] |==|  0.85482
USER: genes 8 Torsion [N]-CA--CB-[CG] |==|  0.36824
USER: genes 9 Torsion [CA]-CB--CG-[CD] |==|  0.24503
USER: genes 10 Torsion [CB]-CG--CD-[NE] |==|  0.04986
USER: genes 11 Torsion [CG]-CD--NE-[CZ] |==|  0.36530
USER: genes 12 Torsion [N]-C--CA-[N] |==|  0.37489
USER: genes 13 Torsion [C]-CA--N-[C] |==|  0.63997
USER: genes 14 Torsion [N]-C--CA-[N] |==|  0.35786
USER: genes 15 Torsion [C]-CA--CB-[CG] |==|  0.17785
USER: genes 16 Torsion [CA]-CB--CG-[CD] |==|  0.49208
USER: genes 17 Torsion [CB]-CG--CD-[OE2] |==|  0.50028
USER: genes 18 Torsion [C]-CA--N-[C] |==|  0.66220
USER: genes 19 Torsion [N]-C--CA-[N] |==|  0.31097
USER: genes 20 Torsion [C]-CA--CB-[OG1] |==|  0.50007
USER: genes 21 Torsion [CA]-CB--OG1-[HG1] |==|  0.21236
ROOT
ATOM      1  C   THR D  11      33.481   0.532   1.914  1.00 18.55 LIG 0.24  C 
ATOM      2 O    THR D  11      32.693   0.672   0.974  1.00 18.02 LIG-0.27  OA
ATOM      3  N   ARG D  12      34.610  -0.189   1.831  1.00 18.77 LIG-0.35  N 
ATOM      4 H    ARG D  12      35.165  -0.252   2.485  1.00 18.77 LIG 0.16  HD
ENDROOT
BRANCH 3 5
ATOM      5  CA  ARG D  12      35.031  -0.939   0.655  1.00 18.70 LIG 0.18  C 
BRANCH 5 6
ATOM      6  C   ARG D  12      34.290  -2.289   0.691  1.00 21.86 LIG 0.24  C 
ATOM      7  N   LEU D  13      34.040  -2.877  -0.481  1.00 17.74 LIG-0.34  N 
ATOM      8 H    LEU D  13      34.274  -2.522  -1.229  1.00 17.74 LIG 0.16  HD
ATOM      9 O    ARG D  12      33.937  -2.775   1.778  1.00 22.92 LIG-0.27  OA
BRANCH 7 10
ATOM     10  CA  LEU D  13      33.354  -4.170  -0.656  1.00 16.59 LIG 0.18  C 
BRANCH 10 11
ATOM     11  CB  LEU D  13      31.892  -3.981  -1.177  1.00 17.18 LIG 0.04  C 
BRANCH 11 12
ATOM     12  CG  LEU D  13      30.948  -2.930  -0.530  1.00 22.98 LIG-0.02  C 
ATOM     13  CD2 LEU D  13      31.336  -1.517  -0.873  1.00 23.47 LIG 0.01  C 
ATOM     14  CD1 LEU D  13      30.738  -3.142   0.944  1.00 23.63 LIG 0.01  C 
ENDBRANCH 11 12
ENDBRANCH 10 11
BRANCH 10 15
ATOM     15  C   LEU D  13      34.056  -5.051  -1.655  1.00 15.64 LIG 0.20  C 
ATOM     16 OXT  LEU D  13      34.446  -6.179  -1.284  1.00 16.77 LIG-0.65  OA
ATOM     17 O    LEU D  13      34.309  -4.566  -2.775  1.00 16.70 LIG-0.65  OA
ENDBRANCH 10 15
ENDBRANCH 7 10
ENDBRANCH 5 6
BRANCH 5 18
ATOM     18  CB  ARG D  12      36.553  -1.180   0.722  1.00 21.73 LIG 0.04  C 
BRANCH 18 19
ATOM     19  CG  ARG D  12      36.970  -2.632   0.429  1.00 32.78 LIG 0.02  C 
BRANCH 19 20
ATOM     20  CD  ARG D  12      37.197  -2.895  -1.053  1.00 50.92 LIG 0.14  C 
BRANCH 20 21
ATOM     21  NE  ARG D  12      37.382  -1.651  -1.808  1.00 62.40 LIG-0.23  N 
ATOM     22  CZ  ARG D  12      38.362  -1.430  -2.676  1.00 78.74 LIG 0.67  C 
ATOM     23  NH2 ARG D  12      38.451  -0.262  -3.298  1.00 63.99 LIG-0.23  N 
ATOM     24  NH1 ARG D  12      39.250  -2.380  -2.944  1.00 69.89 LIG-0.23  N 
ATOM     25 1HH2 ARG D  12      37.873   0.355  -3.140  1.00 63.99 LIG 0.17  HD
ATOM     26 2HH2 ARG D  12      39.087  -0.121  -3.861  1.00 63.99 LIG 0.17  HD
ATOM     27 2HH1 ARG D  12      39.882  -2.230  -3.507  1.00 69.89 LIG 0.17  HD
ATOM     28 1HH1 ARG D  12      39.193  -3.144  -2.554  1.00 69.89 LIG 0.17  HD
ATOM     29 HE   ARG D  12      36.815  -1.018  -1.678  1.00 62.40 LIG 0.18  HD
ENDBRANCH 20 21
ENDBRANCH 19 20
ENDBRANCH 18 19
ENDBRANCH 5 18
ENDBRANCH 3 5
BRANCH 1 30
ATOM     30  CA  THR D  11      33.183   1.167   3.271  1.00 18.14 LIG 0.20  C 
BRANCH 30 31
ATOM     31  N   THR D  11      32.758   2.556   3.072  1.00 19.39 LIG-0.34  N 
ATOM     32 H    THR D  11      32.134   2.654   2.488  1.00 19.39 LIG 0.16  HD
ATOM     33  C   GLU D  10      33.308   3.578   3.753  1.00 24.62 LIG 0.24  C 
ATOM     34 O    GLU D  10      34.212   3.426   4.573  1.00 23.89 LIG-0.27  OA
BRANCH 33 35
ATOM     35  CA  GLU D  10      32.827   4.986   3.397  1.00 24.68 LIG 0.18  C 
BRANCH 35 36
ATOM     36  CB  GLU D  10      33.954   5.760   2.694  1.00 26.38 LIG 0.04  C 
BRANCH 36 37
ATOM     37  CG  GLU D  10      34.380   5.184   1.357  1.00 32.13 LIG 0.12  C 
BRANCH 37 38
ATOM     38  CD  GLU D  10      35.443   5.963   0.608  1.00 44.28 LIG 0.17  C 
ATOM     39 OE2  GLU D  10      35.810   5.512  -0.496  1.00 30.19 LIG-0.65  OA
ATOM     40 OE1  GLU D  10      35.927   7.000   1.120  1.00 43.79 LIG-0.65  OA
ENDBRANCH 37 38
ENDBRANCH 36 37
ENDBRANCH 35 36
BRANCH 35 41
ATOM     41  N   GLU D  10      32.418   5.745   4.576  1.00 26.35 LIG-0.35  N 
ATOM     42 H    GLU D  10      33.048   5.826   5.155  1.00 26.35 LIG 0.16  HD
ATOM     43  C   GLY D   9      31.208   6.269   4.765  1.00 30.50 LIG 0.25  C 
ATOM     44 O    GLY D   9      30.271   6.119   3.972  1.00 29.84 LIG-0.27  OA
BRANCH 43 45
ATOM     45  CA  GLY D   9      31.010   7.060   6.044  1.00 28.17 LIG 0.47  C 
ATOM     46  N   GLY D   9      30.814   8.493   5.837  1.00 29.20 LIG 0.61  N 
ENDBRANCH 43 45
ENDBRANCH 35 41
ENDBRANCH 33 35
ENDBRANCH 30 31
BRANCH 30 47
ATOM     47  CB  THR D  11      32.118   0.338   4.039  1.00 19.92 LIG 0.15  C 
ATOM     48  CG2 THR D  11      32.545  -1.130   4.268  1.00 18.13 LIG 0.04  C 
BRANCH 47 49
ATOM     49 OG1  THR D  11      31.848   0.942   5.305  1.00 18.56 LIG-0.39  OA
ATOM     50 HG1  THR D  11      31.358   1.616   5.195  1.00 18.56 LIG 0.21  HD
ENDBRANCH 47 49
ENDBRANCH 30 47
ENDBRANCH 1 30
TORSDOF 20
ENDMDL
MODEL 2
USER: ADFR SOLUTION from run 52
USER: SCORE 17.375496 LL:  -3.233 LR: -14.295 RR:   0.000 FEB:  -8.329
USER: RMSD 7.783430
USER: SEED 51
USER: STATUS searching
USER: GENES 22
USER: genes 0 Translation |==|  0.41189 0.31817 0.44001
USER: genes 1 Rotation |==|  0.33861 0.84889 0.78912 0.63650
USER: genes 2 Torsion [C]-N--CA-[C] |==|  0.72363
USER: genes 3 Torsion [N]-CA--C-[N] |==|  0.98769
USER: genes 4 Torsion [C]-N--CA-[CB] |==|  0.44531
USER: genes 5 Torsion [N]-CA--CB-[CG] |==|  0.59882
USER: genes 6 Torsion [CA]-CB--CG-[CD1] |==|  0.94730
USER: genes 7 Torsion [N]-CA--C-[O] |==|  0.08827
USER: genes 8 Torsion [N]-CA--CB-[CG] |==|  0.76553
USER: genes 9 Torsion [CA]-CB--CG-[CD] |==|  0.99166
USER: genes 10 Torsion [CB]-CG--CD-[NE] |==|  0.66825
USER: genes 11 Torsion [CG]-CD--NE-[CZ] |==|  0.22965
USER: genes 12 Torsion [N]-C--CA-[N] |==|  0.47222
USER: genes 13 Torsion [C]-CA--N-[C] |==|  0.79066
USER: genes 14 Torsion [N]-C--CA-[N] |==|  0.37810
USER: genes 15 Torsion [C]-CA--CB-[CG] |==|  0.25380
USER: genes 16 Torsion [CA]-CB--CG-[CD] |==|  0.63712
USER: genes 17 Torsion [CB]-CG--CD-[OE2] |==|  0.26713
USER: genes 18 Torsion [C]-CA--N-[C] |==|  0.82016
USER: genes 19 Torsion [N]-C--CA-[N] |==|  0.39096
USER: genes 20 Torsion [C]-CA--CB-[OG1] |==|  0.17522
USER: genes 21 Torsion [CA]-CB--OG1-[HG1] |==|  0.02966
ROOT
ATOM      1  C   THR D  11      34.467  -3.098   1.431  1.00 18.55 LIG 0.24  C 
ATOM      2 O    THR D  11      34.721  -4.050   2.175  1.00 18.02 LIG-0.27  OA
ATOM      3  N   ARG D  12      34.315  -3.217   0.103  1.00 18.77 LIG-0.35  N 
ATOM      4 H    ARG D  12      34.108  -2.549  -0.398  1.00 18.77 LIG 0.16  HD
ENDROOT
BRANCH 3 5
ATOM      5  CA  ARG D  12      34.478  -4.457  -0.643  1.00 18.70 LIG 0.18  C 
BRANCH 5 6
ATOM      6  C   ARG D  12      35.886  -4.426  -1.268  1.00 21.86 LIG 0.24  C 
ATOM      7  N   LEU D  13      36.601  -3.311  -1.103  1.00 17.74 LIG-0.34  N 
ATOM      8 H    LEU D  13      36.296  -2.632  -0.672  1.00 17.74 LIG 0.16  HD
ATOM      9 O    ARG D  12      36.303  -5.406  -1.908  1.00 22.92 LIG-0.27  OA
BRANCH 7 10
ATOM     10  CA  LEU D  13      37.966  -3.090  -1.615  1.00 16.59 LIG 0.18  C 
BRANCH 10 11
ATOM     11  CB  LEU D  13      38.316  -1.569  -1.687  1.00 17.18 LIG 0.04  C 
BRANCH 11 12
ATOM     12  CG  LEU D  13      39.203  -1.011  -2.834  1.00 22.98 LIG-0.02  C 
ATOM     13  CD2 LEU D  13      38.433  -0.136  -3.785  1.00 23.47 LIG 0.01  C 
ATOM     14  CD1 LEU D  13      40.014  -2.068  -3.532  1.00 23.63 LIG 0.01  C 
ENDBRANCH 11 12
ENDBRANCH 10 11
BRANCH 10 15
ATOM     15  C   LEU D  13      39.009  -3.731  -0.737  1.00 15.64 LIG 0.20  C 
ATOM     16 OXT  LEU D  13      40.162  -3.249  -0.734  1.00 16.77 LIG-0.65  OA
ATOM     17 O    LEU D  13      38.695  -4.779  -0.141  1.00 16.70 LIG-0.65  OA
ENDBRANCH 10 15
ENDBRANCH 7 10
ENDBRANCH 5 6
BRANCH 5 18
ATOM     18  CB  ARG D  12      33.416  -4.524  -1.759  1.00 21.73 LIG 0.04  C 
BRANCH 18 19
ATOM     19  CG  ARG D  12      32.055  -5.073  -1.296  1.00 32.78 LIG 0.02  C 
BRANCH 19 20
ATOM     20  CD  ARG D  12      32.059  -5.508   0.163  1.00 50.92 LIG 0.14  C 
BRANCH 20 21
ATOM     21  NE  ARG D  12      31.747  -6.934   0.311  1.00 62.40 LIG-0.23  N 
ATOM     22  CZ  ARG D  12      32.626  -7.920   0.175  1.00 78.74 LIG 0.67  C 
ATOM     23  NH2 ARG D  12      32.240  -9.182   0.314  1.00 63.99 LIG-0.23  N 
ATOM     24  NH1 ARG D  12      33.901  -7.654  -0.081  1.00 69.89 LIG-0.23  N 
ATOM     25 1HH2 ARG D  12      31.419  -9.363   0.491  1.00 63.99 LIG 0.17  HD
ATOM     26 2HH2 ARG D  12      32.812  -9.819   0.226  1.00 63.99 LIG 0.17  HD
ATOM     27 2HH1 ARG D  12      34.465  -8.297  -0.168  1.00 69.89 LIG 0.17  HD
ATOM     28 1HH1 ARG D  12      34.162  -6.839  -0.161  1.00 69.89 LIG 0.17  HD
ATOM     29 HE   ARG D  12      30.935  -7.147   0.498  1.00 62.40 LIG 0.18  HD
ENDBRANCH 20 21
ENDBRANCH 19 20
ENDBRANCH 18 19
ENDBRANCH 5 18
ENDBRANCH 3 5
BRANCH 1 30
ATOM     30  CA  THR D  11      34.342  -1.686   2.003  1.00 18.14 LIG 0.20  C 
BRANCH 30 31
ATOM     31  N   THR D  11      34.293  -1.760   3.466  1.00 19.39 LIG-0.34  N 
ATOM     32 H    THR D  11      35.023  -1.524   3.855  1.00 19.39 LIG 0.16  HD
ATOM     33  C   GLU D  10      33.193  -2.163   4.127  1.00 24.62 LIG 0.24  C 
ATOM     34 O    GLU D  10      32.160  -2.514   3.557  1.00 23.89 LIG-0.27  OA
BRANCH 33 35
ATOM     35  CA  GLU D  10      33.298  -2.266   5.650  1.00 24.68 LIG 0.18  C 
BRANCH 35 36
ATOM     36  CB  GLU D  10      33.433  -3.741   6.065  1.00 26.38 LIG 0.04  C 
BRANCH 36 37
ATOM     37  CG  GLU D  10      34.860  -4.239   6.179  1.00 32.13 LIG 0.12  C 
BRANCH 37 38
ATOM     38  CD  GLU D  10      35.166  -5.542   5.466  1.00 44.28 LIG 0.17  C 
ATOM     39 OE2  GLU D  10      35.664  -5.464   4.323  1.00 30.19 LIG-0.65  OA
ATOM     40 OE1  GLU D  10      34.894  -6.632   6.022  1.00 43.79 LIG-0.65  OA
ENDBRANCH 37 38
ENDBRANCH 36 37
ENDBRANCH 35 36
BRANCH 35 41
ATOM     41  N   GLU D  10      32.130  -1.707   6.324  1.00 26.35 LIG-0.35  N 
ATOM     42 H    GLU D  10      31.680  -2.298   6.757  1.00 26.35 LIG 0.16  HD
ATOM     43  C   GLY D   9      31.772  -0.424   6.293  1.00 30.50 LIG 0.25  C 
ATOM     44 O    GLY D   9      32.372   0.433   5.634  1.00 29.84 LIG-0.27  OA
BRANCH 43 45
ATOM     45  CA  GLY D   9      30.545  -0.048   7.102  1.00 28.17 LIG 0.47  C 
ATOM     46  N   GLY D   9      30.653   1.235   7.791  1.00 29.20 LIG 0.61  N 
ENDBRANCH 43 45
ENDBRANCH 35 41
ENDBRANCH 33 35
ENDBRANCH 30 31
BRANCH 30 47
ATOM     47  CB  THR D  11      35.507  -0.790   1.504  1.00 19.92 LIG 0.15  C 
ATOM     48  CG2 THR D  11      36.900  -1.340   1.889  1.00 18.13 LIG 0.04  C 
BRANCH 47 49
ATOM     49 OG1  THR D  11      35.443  -0.650   0.084  1.00 18.56 LIG-0.39  OA
ATOM     50 HG1  THR D  11      34.711  -0.955  -0.195  1.00 18.56 LIG 0.21  HD
ENDBRANCH 47 49
ENDBRANCH 30 47
ENDBRANCH 1 30
TORSDOF 20
ENDMDL
MODEL 3
USER: ADFR SOLUTION from run 200
USER: SCORE 18.327467 LL:  -4.623 LR: -14.089 RR:   0.000 FEB:  -8.123
USER: RMSD 1.676888
USER: SEED 199
USER: STATUS 1 or 2 clusters left
USER: GENES 22
USER: genes 0 Translation |==|  0.37710 0.48993 0.47844
USER: genes 1 Rotation |==|  0.51606 0.47541 0.46344 0.99780
USER: genes 2 Torsion [C]-N--CA-[C] |==|  0.75314
USER: genes 3 Torsion [N]-CA--C-[N] |==|  0.38712
USER: genes 4 Torsion [C]-N--CA-[CB] |==|  0.29908
USER: genes 5 Torsion [N]-CA--CB-[CG] |==|  0.86634
USER: genes 6 Torsion [CA]-CB--CG-[CD1] |==|  0.86037
USER: genes 7 Torsion [N]-CA--C-[O] |==|  0.30840
USER: genes 8 Torsion [N]-CA--CB-[CG] |==|  0.71805
USER: genes 9 Torsion [CA]-CB--CG-[CD] |==|  0.27399
USER: genes 10 Torsion [CB]-CG--CD-[NE] |==|  0.96725
USER: genes 11 Torsion [CG]-CD--NE-[CZ] |==|  0.68992
USER: genes 12 Torsion [N]-C--CA-[N] |==|  0.41403
USER: genes 13 Torsion [C]-CA--N-[C] |==|  0.66848
USER: genes 14 Torsion [N]-C--CA-[N] |==|  0.37649
USER: genes 15 Torsion [C]-CA--CB-[CG] |==|  0.15370
USER: genes 16 Torsion [CA]-CB--CG-[CD] |==|  0.56763
USER: genes 17 Torsion [CB]-CG--CD-[OE2] |==|  0.17522
USER: genes 18 Torsion [C]-CA--N-[C] |==|  0.67187
USER: genes 19 Torsion [N]-C--CA-[N] |==|  0.73153
USER: genes 20 Torsion [C]-CA--CB-[OG1] |==|  0.47108
USER: genes 21 Torsion [CA]-CB--OG1-[HG1] |==|  0.19762
ROOT
ATOM      1  C   THR D  11      33.788   0.638   2.094  1.00 18.55 LIG 0.24  C 
ATOM      2 O    THR D  11      33.334   0.942   0.987  1.00 18.02 LIG-0.27  OA
ATOM      3  N   ARG D  12      34.769  -0.261   2.269  1.00 18.77 LIG-0.35  N 
ATOM      4 H    ARG D  12      35.096  -0.440   3.044  1.00 18.77 LIG 0.16  HD
ENDROOT
BRANCH 3 5
ATOM      5  CA  ARG D  12      35.388  -1.031   1.199  1.00 18.70 LIG 0.18  C 
BRANCH 5 6
ATOM      6  C   ARG D  12      34.558  -2.318   1.029  1.00 21.86 LIG 0.24  C 
ATOM      7  N   LEU D  13      34.332  -2.735  -0.220  1.00 17.74 LIG-0.34  N 
ATOM      8 H    LEU D  13      34.628  -2.307  -0.905  1.00 17.74 LIG 0.16  HD
ATOM      9 O    ARG D  12      34.117  -2.910   2.027  1.00 22.92 LIG-0.27  OA
BRANCH 7 10
ATOM     10  CA  LEU D  13      33.571  -3.942  -0.590  1.00 16.59 LIG 0.18  C 
BRANCH 10 11
ATOM     11  CB  LEU D  13      32.178  -3.582  -1.199  1.00 17.18 LIG 0.04  C 
BRANCH 11 12
ATOM     12  CG  LEU D  13      31.245  -2.555  -0.498  1.00 22.98 LIG-0.02  C 
ATOM     13  CD2 LEU D  13      31.643  -1.131  -0.774  1.00 23.47 LIG 0.01  C 
ATOM     14  CD1 LEU D  13      31.040  -2.836   0.965  1.00 23.63 LIG 0.01  C 
ENDBRANCH 11 12
ENDBRANCH 10 11
BRANCH 10 15
ATOM     15  C   LEU D  13      34.291  -4.770  -1.621  1.00 15.64 LIG 0.20  C 
ATOM     16 OXT  LEU D  13      34.310  -4.363  -2.803  1.00 16.77 LIG-0.65  OA
ATOM     17 O    LEU D  13      34.740  -5.875  -1.263  1.00 16.70 LIG-0.65  OA
ENDBRANCH 10 15
ENDBRANCH 7 10
ENDBRANCH 5 6
BRANCH 5 18
ATOM     18  CB  ARG D  12      36.832  -1.395   1.603  1.00 21.73 LIG 0.04  C 
BRANCH 18 19
ATOM     19  CG  ARG D  12      37.907  -0.511   0.947  1.00 32.78 LIG 0.02  C 
BRANCH 19 20
ATOM     20  CD  ARG D  12      38.395   0.604   1.862  1.00 50.92 LIG 0.14  C 
BRANCH 20 21
ATOM     21  NE  ARG D  12      37.542   0.754   3.046  1.00 62.40 LIG-0.23  N 
ATOM     22  CZ  ARG D  12      36.755   1.795   3.287  1.00 78.74 LIG 0.67  C 
ATOM     23  NH2 ARG D  12      36.032   1.843   4.398  1.00 63.99 LIG-0.23  N 
ATOM     24  NH1 ARG D  12      36.670   2.790   2.412  1.00 69.89 LIG-0.23  N 
ATOM     25 1HH2 ARG D  12      36.072   1.197   4.964  1.00 63.99 LIG 0.17  HD
ATOM     26 2HH2 ARG D  12      35.523   2.519   4.551  1.00 63.99 LIG 0.17  HD
ATOM     27 2HH1 ARG D  12      36.159   3.462   2.574  1.00 69.89 LIG 0.17  HD
ATOM     28 1HH1 ARG D  12      37.127   2.763   1.684  1.00 69.89 LIG 0.17  HD
ATOM     29 HE   ARG D  12      37.552   0.120   3.627  1.00 62.40 LIG 0.18  HD
ENDBRANCH 20 21
ENDBRANCH 19 20
ENDBRANCH 18 19
ENDBRANCH 5 18
ENDBRANCH 3 5
BRANCH 1 30
ATOM     30  CA  THR D  11      33.214   1.268   3.363  1.00 18.14 LIG 0.20  C 
BRANCH 30 31
ATOM     31  N   THR D  11      32.770   2.633   3.066  1.00 19.39 LIG-0.34  N 
ATOM     32 H    THR D  11      32.155   2.681   2.466  1.00 19.39 LIG 0.16  HD
ATOM     33  C   GLU D  10      33.290   3.707   3.688  1.00 24.62 LIG 0.24  C 
ATOM     34 O    GLU D  10      34.181   3.625   4.532  1.00 23.89 LIG-0.27  OA
BRANCH 33 35
ATOM     35  CA  GLU D  10      32.791   5.080   3.232  1.00 24.68 LIG 0.18  C 
BRANCH 35 36
ATOM     36  CB  GLU D  10      33.858   5.757   2.357  1.00 26.38 LIG 0.04  C 
BRANCH 36 37
ATOM     37  CG  GLU D  10      34.308   4.942   1.160  1.00 32.13 LIG 0.12  C 
BRANCH 37 38
ATOM     38  CD  GLU D  10      35.689   5.261   0.622  1.00 44.28 LIG 0.17  C 
ATOM     39 OE2  GLU D  10      36.659   5.059   1.382  1.00 30.19 LIG-0.65  OA
ATOM     40 OE1  GLU D  10      35.810   5.731  -0.534  1.00 43.79 LIG-0.65  OA
ENDBRANCH 37 38
ENDBRANCH 36 37
ENDBRANCH 35 36
BRANCH 35 41
ATOM     41  N   GLU D  10      32.496   5.962   4.358  1.00 26.35 LIG-0.35  N 
ATOM     42 H    GLU D  10      33.187   6.128   4.841  1.00 26.35 LIG 0.16  HD
ATOM     43  C   GLY D   9      31.297   6.471   4.635  1.00 30.50 LIG 0.25  C 
ATOM     44 O    GLY D   9      30.278   6.203   3.987  1.00 29.84 LIG-0.27  OA
BRANCH 43 45
ATOM     45  CA  GLY D   9      31.221   7.403   5.830  1.00 28.17 LIG 0.47  C 
ATOM     46  N   GLY D   9      30.784   6.756   7.065  1.00 29.20 LIG 0.61  N 
ENDBRANCH 43 45
ENDBRANCH 35 41
ENDBRANCH 33 35
ENDBRANCH 30 31
BRANCH 30 47
ATOM     47  CB  THR D  11      32.065   0.394   3.934  1.00 19.92 LIG 0.15  C 
ATOM     48  CG2 THR D  11      32.432  -1.106   4.021  1.00 18.13 LIG 0.04  C 
BRANCH 47 49
ATOM     49 OG1  THR D  11      31.701   0.855   5.235  1.00 18.56 LIG-0.39  OA
ATOM     50 HG1  THR D  11      31.303   1.593   5.170  1.00 18.56 LIG 0.21  HD
ENDBRANCH 47 49
ENDBRANCH 30 47
ENDBRANCH 1 30
TORSDOF 20
ENDMDL
MODEL 4
USER: ADFR SOLUTION from run 199
USER: SCORE 17.717713 LL:  -3.986 LR: -14.013 RR:   0.000 FEB:  -8.047
USER: RMSD 5.793439
USER: SEED 198
USER: STATUS no improvement in best in 5 clusters for 5 generations
USER: GENES 22
USER: genes 0 Translation |==|  0.35419 0.48982 0.47673
USER: genes 1 Rotation |==|  0.49808 0.49885 0.49847 0.99999
USER: genes 2 Torsion [C]-N--CA-[C] |==|  0.77036
USER: genes 3 Torsion [N]-CA--C-[N] |==|  0.39879
USER: genes 4 Torsion [C]-N--CA-[CB] |==|  0.28146
USER: genes 5 Torsion [N]-CA--CB-[CG] |==|  0.86117
USER: genes 6 Torsion [CA]-CB--CG-[CD1] |==|  0.86374
USER: genes 7 Torsion [N]-CA--C-[O] |==|  0.83326
USER: genes 8 Torsion [N]-CA--CB-[CG] |==|  0.37369
USER: genes 9 Torsion [CA]-CB--CG-[CD] |==|  0.19123
USER: genes 10 Torsion [CB]-CG--CD-[NE] |==|  0.08362
USER: genes 11 Torsion [CG]-CD--NE-[CZ] |==|  0.38413
USER: genes 12 Torsion [N]-C--CA-[N] |==|  0.91232
USER: genes 13 Torsion [C]-CA--N-[C] |==|  0.83886
USER: genes 14 Torsion [N]-C--CA-[N] |==|  0.27222
USER: genes 15 Torsion [C]-CA--CB-[CG] |==|  0.23480
USER: genes 16 Torsion [CA]-CB--CG-[CD] |==|  0.49807
USER: genes 17 Torsion [CB]-CG--CD-[OE2] |==|  0.32034
USER: genes 18 Torsion [C]-CA--N-[C] |==|  0.75403
USER: genes 19 Torsion [N]-C--CA-[N] |==|  0.53501
USER: genes 20 Torsion [C]-CA--CB-[OG1] |==|  0.34072
USER: genes 21 Torsion [CA]-CB--OG1-[HG1] |==|  0.82539
ROOT
ATOM      1  C   THR D  11      33.342   0.635   2.065  1.00 18.55 LIG 0.24  C 
ATOM      2 O    THR D  11      32.752   0.788   0.991  1.00 18.02 LIG-0.27  OA
ATOM      3  N   ARG D  12      34.452  -0.106   2.199  1.00 18.77 LIG-0.35  N 
ATOM      4 H    ARG D  12      34.869  -0.178   2.948  1.00 18.77 LIG 0.16  HD
ENDROOT
BRANCH 3 5
ATOM      5  CA  ARG D  12      35.077  -0.866   1.126  1.00 18.70 LIG 0.18  C 
BRANCH 5 6
ATOM      6  C   ARG D  12      34.321  -2.204   1.019  1.00 21.86 LIG 0.24  C 
ATOM      7  N   LEU D  13      34.150  -2.710  -0.205  1.00 17.74 LIG-0.34  N 
ATOM      8 H    LEU D  13      34.440  -2.311  -0.909  1.00 17.74 LIG 0.16  HD
ATOM      9 O    ARG D  12      33.885  -2.755   2.043  1.00 22.92 LIG-0.27  OA
BRANCH 7 10
ATOM     10  CA  LEU D  13      33.464  -3.978  -0.514  1.00 16.59 LIG 0.18  C 
BRANCH 10 11
ATOM     11  CB  LEU D  13      32.008  -3.736  -1.029  1.00 17.18 LIG 0.04  C 
BRANCH 11 12
ATOM     12  CG  LEU D  13      31.033  -2.811  -0.248  1.00 22.98 LIG-0.02  C 
ATOM     13  CD2 LEU D  13      31.263  -1.353  -0.537  1.00 23.47 LIG 0.01  C 
ATOM     14  CD1 LEU D  13      30.968  -3.117   1.223  1.00 23.63 LIG 0.01  C 
ENDBRANCH 11 12
ENDBRANCH 10 11
BRANCH 10 15
ATOM     15  C   LEU D  13      34.175  -4.758  -1.587  1.00 15.64 LIG 0.20  C 
ATOM     16 OXT  LEU D  13      34.689  -5.857  -1.284  1.00 16.77 LIG-0.65  OA
ATOM     17 O    LEU D  13      34.310  -4.216  -2.701  1.00 16.70 LIG-0.65  OA
ENDBRANCH 10 15
ENDBRANCH 7 10
ENDBRANCH 5 6
BRANCH 5 18
ATOM     18  CB  ARG D  12      36.554  -1.132   1.482  1.00 21.73 LIG 0.04  C 
BRANCH 18 19
ATOM     19  CG  ARG D  12      37.008  -2.581   1.229  1.00 32.78 LIG 0.02  C 
BRANCH 19 20
ATOM     20  CD  ARG D  12      37.070  -2.931  -0.251  1.00 50.92 LIG 0.14  C 
BRANCH 20 21
ATOM     21  NE  ARG D  12      37.386  -1.761  -1.078  1.00 62.40 LIG-0.23  N 
ATOM     22  CZ  ARG D  12      38.222  -1.765  -2.109  1.00 78.74 LIG 0.67  C 
ATOM     23  NH2 ARG D  12      38.453  -0.648  -2.786  1.00 63.99 LIG-0.23  N 
ATOM     24  NH1 ARG D  12      38.822  -2.889  -2.484  1.00 69.89 LIG-0.23  N 
ATOM     25 1HH2 ARG D  12      38.060   0.082  -2.557  1.00 63.99 LIG 0.17  HD
ATOM     26 2HH2 ARG D  12      38.995  -0.653  -3.454  1.00 63.99 LIG 0.17  HD
ATOM     27 2HH1 ARG D  12      39.362  -2.885  -3.153  1.00 69.89 LIG 0.17  HD
ATOM     28 1HH1 ARG D  12      38.670  -3.620  -2.059  1.00 69.89 LIG 0.17  HD
ATOM     29 HE   ARG D  12      37.002  -1.018  -0.880  1.00 62.40 LIG 0.18  HD
ENDBRANCH 20 21
ENDBRANCH 19 20
ENDBRANCH 18 19
ENDBRANCH 5 18
ENDBRANCH 3 5
BRANCH 1 30
ATOM     30  CA  THR D  11      32.799   1.279   3.340  1.00 18.14 LIG 0.20  C 
BRANCH 30 31
ATOM     31  N   THR D  11      33.101   0.413   4.484  1.00 19.39 LIG-0.34  N 
ATOM     32 H    THR D  11      33.566   0.793   5.100  1.00 19.39 LIG 0.16  HD
ATOM     33  C   GLU D  10      32.679  -0.863   4.549  1.00 24.62 LIG 0.24  C 
ATOM     34 O    GLU D  10      32.029  -1.399   3.653  1.00 23.89 LIG-0.27  OA
BRANCH 33 35
ATOM     35  CA  GLU D  10      33.127  -1.679   5.763  1.00 24.68 LIG 0.18  C 
BRANCH 35 36
ATOM     36  CB  GLU D  10      33.446  -3.121   5.333  1.00 26.38 LIG 0.04  C 
BRANCH 36 37
ATOM     37  CG  GLU D  10      34.848  -3.326   4.794  1.00 32.13 LIG 0.12  C 
BRANCH 37 38
ATOM     38  CD  GLU D  10      35.197  -4.741   4.377  1.00 44.28 LIG 0.17  C 
ATOM     39 OE2  GLU D  10      35.435  -4.937   3.167  1.00 30.19 LIG-0.65  OA
ATOM     40 OE1  GLU D  10      35.212  -5.654   5.235  1.00 43.79 LIG-0.65  OA
ENDBRANCH 37 38
ENDBRANCH 36 37
ENDBRANCH 35 36
BRANCH 35 41
ATOM     41  N   GLU D  10      32.103  -1.729   6.803  1.00 26.35 LIG-0.35  N 
ATOM     42 H    GLU D  10      31.579  -2.406   6.723  1.00 26.35 LIG 0.16  HD
ATOM     43  C   GLY D   9      31.967  -0.838   7.784  1.00 30.50 LIG 0.25  C 
ATOM     44 O    GLY D   9      32.673   0.172   7.888  1.00 29.84 LIG-0.27  OA
BRANCH 43 45
ATOM     45  CA  GLY D   9      30.860  -1.104   8.787  1.00 28.17 LIG 0.47  C 
ATOM     46  N   GLY D   9      30.560   0.027   9.661  1.00 29.20 LIG 0.61  N 
ENDBRANCH 43 45
ENDBRANCH 35 41
ENDBRANCH 33 35
ENDBRANCH 30 31
BRANCH 30 47
ATOM     47  CB  THR D  11      33.380   2.707   3.522  1.00 19.92 LIG 0.15  C 
ATOM     48  CG2 THR D  11      34.331   3.123   2.375  1.00 18.13 LIG 0.04  C 
BRANCH 47 49
ATOM     49 OG1  THR D  11      32.319   3.659   3.608  1.00 18.56 LIG-0.39  OA
ATOM     50 HG1  THR D  11      31.885   3.662   2.888  1.00 18.56 LIG 0.21  HD
ENDBRANCH 47 49
ENDBRANCH 30 47
ENDBRANCH 1 30
TORSDOF 20
ENDMDL
MODEL 5
USER: ADFR SOLUTION from run 88
USER: SCORE 16.487167 LL:  -3.198 LR: -13.903 RR:   0.000 FEB:  -7.937
USER: RMSD 3.129299
USER: SEED 87
USER: STATUS no improvement in best in 2 clusters for 5 generations
USER: GENES 22
USER: genes 0 Translation |==|  0.36225 0.48618 0.46812
USER: genes 1 Rotation |==|  0.48472 0.54810 0.46105 0.99592
USER: genes 2 Torsion [C]-N--CA-[C] |==|  0.80656
USER: genes 3 Torsion [N]-CA--C-[N] |==|  0.30114
USER: genes 4 Torsion [C]-N--CA-[CB] |==|  0.82560
USER: genes 5 Torsion [N]-CA--CB-[CG] |==|  0.96702
USER: genes 6 Torsion [CA]-CB--CG-[CD1] |==|  0.43386
USER: genes 7 Torsion [N]-CA--C-[O] |==|  0.66866
USER: genes 8 Torsion [N]-CA--CB-[CG] |==|  0.44259
USER: genes 9 Torsion [CA]-CB--CG-[CD] |==|  0.21274
USER: genes 10 Torsion [CB]-CG--CD-[NE] |==|  0.07447
USER: genes 11 Torsion [CG]-CD--NE-[CZ] |==|  0.24822
USER: genes 12 Torsion [N]-C--CA-[N] |==|  0.40644
USER: genes 13 Torsion [C]-CA--N-[C] |==|  0.61115
USER: genes 14 Torsion [N]-C--CA-[N] |==|  0.39326
USER: genes 15 Torsion [C]-CA--CB-[CG] |==|  0.09984
USER: genes 16 Torsion [CA]-CB--CG-[CD] |==|  0.54315
USER: genes 17 Torsion [CB]-CG--CD-[OE2] |==|  0.21491
USER: genes 18 Torsion [C]-CA--N-[C] |==|  0.68580
USER: genes 19 Torsion [N]-C--CA-[N] |==|  0.70961
USER: genes 20 Torsion [C]-CA--CB-[OG1] |==|  0.51872
USER: genes 21 Torsion [CA]-CB--OG1-[HG1] |==|  0.23416
ROOT
ATOM      1  C   THR D  11      33.499   0.556   1.916  1.00 18.55 LIG 0.24  C 
ATOM      2 O    THR D  11      32.735   0.758   0.967  1.00 18.02 LIG-0.27  OA
ATOM      3  N   ARG D  12      34.495  -0.343   1.886  1.00 18.77 LIG-0.35  N 
ATOM      4 H    ARG D  12      35.037  -0.450   2.544  1.00 18.77 LIG 0.16  HD
ENDROOT
BRANCH 3 5
ATOM      5  CA  ARG D  12      34.778  -1.230   0.766  1.00 18.70 LIG 0.18  C 
BRANCH 5 6
ATOM      6  C   ARG D  12      33.630  -2.255   0.700  1.00 21.86 LIG 0.24  C 
ATOM      7  N   LEU D  13      32.766  -2.137  -0.311  1.00 17.74 LIG-0.34  N 
ATOM      8 H    LEU D  13      32.835  -1.515  -0.901  1.00 17.74 LIG 0.16  HD
ATOM      9 O    ARG D  12      33.528  -3.131   1.574  1.00 22.92 LIG-0.27  OA
BRANCH 7 10
ATOM     10  CA  LEU D  13      31.611  -3.021  -0.553  1.00 16.59 LIG 0.18  C 
BRANCH 10 11
ATOM     11  CB  LEU D  13      32.059  -4.491  -0.832  1.00 17.18 LIG 0.04  C 
BRANCH 11 12
ATOM     12  CG  LEU D  13      33.551  -4.829  -1.105  1.00 22.98 LIG-0.02  C 
ATOM     13  CD2 LEU D  13      34.001  -4.394  -2.473  1.00 23.47 LIG 0.01  C 
ATOM     14  CD1 LEU D  13      33.907  -6.258  -0.795  1.00 23.63 LIG 0.01  C 
ENDBRANCH 11 12
ENDBRANCH 10 11
BRANCH 10 15
ATOM     15  C   LEU D  13      30.681  -3.071   0.630  1.00 15.64 LIG 0.20  C 
ATOM     16 OXT  LEU D  13      30.225  -1.996   1.076  1.00 16.77 LIG-0.65  OA
ATOM     17 O    LEU D  13      30.499  -4.178   1.173  1.00 16.70 LIG-0.65  OA
ENDBRANCH 10 15
ENDBRANCH 7 10
ENDBRANCH 5 6
BRANCH 5 18
ATOM     18  CB  ARG D  12      36.112  -1.961   1.019  1.00 21.73 LIG 0.04  C 
BRANCH 18 19
ATOM     19  CG  ARG D  12      36.282  -3.254   0.203  1.00 32.78 LIG 0.02  C 
BRANCH 19 20
ATOM     20  CD  ARG D  12      36.636  -2.992  -1.255  1.00 50.92 LIG 0.14  C 
BRANCH 20 21
ATOM     21  NE  ARG D  12      37.334  -1.714  -1.427  1.00 62.40 LIG-0.23  N 
ATOM     22  CZ  ARG D  12      38.650  -1.554  -1.363  1.00 78.74 LIG 0.67  C 
ATOM     23  NH2 ARG D  12      39.185  -0.350  -1.518  1.00 63.99 LIG-0.23  N 
ATOM     24  NH1 ARG D  12      39.445  -2.598  -1.160  1.00 69.89 LIG-0.23  N 
ATOM     25 1HH2 ARG D  12      38.678   0.330  -1.662  1.00 63.99 LIG 0.17  HD
ATOM     26 2HH2 ARG D  12      40.038  -0.249  -1.476  1.00 63.99 LIG 0.17  HD
ATOM     27 2HH1 ARG D  12      40.297  -2.488  -1.119  1.00 69.89 LIG 0.17  HD
ATOM     28 1HH1 ARG D  12      39.108  -3.384  -1.069  1.00 69.89 LIG 0.17  HD
ATOM     29 HE   ARG D  12      36.855  -1.016  -1.581  1.00 62.40 LIG 0.18  HD
ENDBRANCH 20 21
ENDBRANCH 19 20
ENDBRANCH 18 19
ENDBRANCH 5 18
ENDBRANCH 3 5
BRANCH 1 30
ATOM     30  CA  THR D  11      33.319   1.323   3.226  1.00 18.14 LIG 0.20  C 
BRANCH 30 31
ATOM     31  N   THR D  11      32.858   2.683   2.931  1.00 19.39 LIG-0.34  N 
ATOM     32 H    THR D  11      32.277   2.728   2.298  1.00 19.39 LIG 0.16  HD
ATOM     33  C   GLU D  10      33.314   3.756   3.602  1.00 24.62 LIG 0.24  C 
ATOM     34 O    GLU D  10      34.158   3.678   4.493  1.00 23.89 LIG-0.27  OA
BRANCH 33 35
ATOM     35  CA  GLU D  10      32.807   5.125   3.145  1.00 24.68 LIG 0.18  C 
BRANCH 35 36
ATOM     36  CB  GLU D  10      33.845   5.783   2.220  1.00 26.38 LIG 0.04  C 
BRANCH 36 37
ATOM     37  CG  GLU D  10      34.583   4.820   1.310  1.00 32.13 LIG 0.12  C 
BRANCH 37 38
ATOM     38  CD  GLU D  10      35.844   5.357   0.661  1.00 44.28 LIG 0.17  C 
ATOM     39 OE2  GLU D  10      36.868   5.422   1.372  1.00 30.19 LIG-0.65  OA
ATOM     40 OE1  GLU D  10      35.814   5.733  -0.534  1.00 43.79 LIG-0.65  OA
ENDBRANCH 37 38
ENDBRANCH 36 37
ENDBRANCH 35 36
BRANCH 35 41
ATOM     41  N   GLU D  10      32.560   6.026   4.267  1.00 26.35 LIG-0.35  N 
ATOM     42 H    GLU D  10      33.280   6.249   4.680  1.00 26.35 LIG 0.16  HD
ATOM     43  C   GLY D   9      31.361   6.472   4.639  1.00 30.50 LIG 0.25  C 
ATOM     44 O    GLY D   9      30.307   6.122   4.095  1.00 29.84 LIG-0.27  OA
BRANCH 43 45
ATOM     45  CA  GLY D   9      31.336   7.437   5.809  1.00 28.17 LIG 0.47  C 
ATOM     46  N   GLY D   9      30.876   6.845   7.063  1.00 29.20 LIG 0.61  N 
ENDBRANCH 43 45
ENDBRANCH 35 41
ENDBRANCH 33 35
ENDBRANCH 30 31
BRANCH 30 47
ATOM     47  CB  THR D  11      32.343   0.570   4.170  1.00 19.92 LIG 0.15  C 
ATOM     48  CG2 THR D  11      32.888  -0.801   4.635  1.00 18.13 LIG 0.04  C 
BRANCH 47 49
ATOM     49 OG1  THR D  11      32.062   1.368   5.320  1.00 18.56 LIG-0.39  OA
ATOM     50 HG1  THR D  11      31.441   1.906   5.143  1.00 18.56 LIG 0.21  HD
ENDBRANCH 47 49
ENDBRANCH 30 47
ENDBRANCH 1 30
TORSDOF 20
ENDMDL
MODEL 6
USER: ADFR SOLUTION from run 190
USER: SCORE 16.736675 LL:  -3.079 LR: -13.874 RR:   0.000 FEB:  -7.908
USER: RMSD 7.395945
USER: SEED 189
USER: STATUS no improvement in best in 8 clusters for 5 generations
USER: GENES 22
USER: genes 0 Translation |==|  0.42038 0.31244 0.43531
USER: genes 1 Rotation |==|  0.34297 0.84314 0.80066 0.63115
USER: genes 2 Torsion [C]-N--CA-[C] |==|  0.73710
USER: genes 3 Torsion [N]-CA--C-[N] |==|  0.98246
USER: genes 4 Torsion [C]-N--CA-[CB] |==|  0.44254
USER: genes 5 Torsion [N]-CA--CB-[CG] |==|  0.61731
USER: genes 6 Torsion [CA]-CB--CG-[CD1] |==|  0.93190
USER: genes 7 Torsion [N]-CA--C-[O] |==|  0.58393
USER: genes 8 Torsion [N]-CA--CB-[CG] |==|  0.79439
USER: genes 9 Torsion [CA]-CB--CG-[CD] |==|  0.26941
USER: genes 10 Torsion [CB]-CG--CD-[NE] |==|  0.94281
USER: genes 11 Torsion [CG]-CD--NE-[CZ] |==|  0.63262
USER: genes 12 Torsion [N]-C--CA-[N] |==|  0.46048
USER: genes 13 Torsion [C]-CA--N-[C] |==|  0.72066
USER: genes 14 Torsion [N]-C--CA-[N] |==|  0.41194
USER: genes 15 Torsion [C]-CA--CB-[CG] |==|  0.28109
USER: genes 16 Torsion [CA]-CB--CG-[CD] |==|  0.82949
USER: genes 17 Torsion [CB]-CG--CD-[OE2] |==|  0.21604
USER: genes 18 Torsion [C]-CA--N-[C] |==|  0.79514
USER: genes 19 Torsion [N]-C--CA-[N] |==|  0.09222
USER: genes 20 Torsion [C]-CA--CB-[OG1] |==|  0.16220
USER: genes 21 Torsion [CA]-CB--OG1-[HG1] |==|  0.05367
ROOT
ATOM      1  C   THR D  11      34.632  -3.222   1.350  1.00 18.55 LIG 0.24  C 
ATOM      2 O    THR D  11      34.931  -4.200   2.042  1.00 18.02 LIG-0.27  OA
ATOM      3  N   ARG D  12      34.438  -3.287   0.024  1.00 18.77 LIG-0.35  N 
ATOM      4 H    ARG D  12      34.201  -2.603  -0.440  1.00 18.77 LIG 0.16  HD
ENDROOT
BRANCH 3 5
ATOM      5  CA  ARG D  12      34.600  -4.490  -0.781  1.00 18.70 LIG 0.18  C 
BRANCH 5 6
ATOM      6  C   ARG D  12      36.030  -4.463  -1.351  1.00 21.86 LIG 0.24  C 
ATOM      7  N   LEU D  13      36.752  -3.361  -1.134  1.00 17.74 LIG-0.34  N 
ATOM      8 H    LEU D  13      36.438  -2.688  -0.700  1.00 17.74 LIG 0.16  HD
ATOM      9 O    ARG D  12      36.460  -5.433  -1.998  1.00 22.92 LIG-0.27  OA
BRANCH 7 10
ATOM     10  CA  LEU D  13      38.138  -3.146  -1.588  1.00 16.59 LIG 0.18  C 
BRANCH 10 11
ATOM     11  CB  LEU D  13      38.500  -1.627  -1.636  1.00 17.18 LIG 0.04  C 
BRANCH 11 12
ATOM     12  CG  LEU D  13      39.308  -1.039  -2.827  1.00 22.98 LIG-0.02  C 
ATOM     13  CD2 LEU D  13      38.451  -0.234  -3.765  1.00 23.47 LIG 0.01  C 
ATOM     14  CD1 LEU D  13      40.157  -2.059  -3.534  1.00 23.63 LIG 0.01  C 
ENDBRANCH 11 12
ENDBRANCH 10 11
BRANCH 10 15
ATOM     15  C   LEU D  13      39.140  -3.799  -0.674  1.00 15.64 LIG 0.20  C 
ATOM     16 OXT  LEU D  13      38.769  -4.772   0.018  1.00 16.77 LIG-0.65  OA
ATOM     17 O    LEU D  13      40.262  -3.266  -0.573  1.00 16.70 LIG-0.65  OA
ENDBRANCH 10 15
ENDBRANCH 7 10
ENDBRANCH 5 6
BRANCH 5 18
ATOM     18  CB  ARG D  12      33.579  -4.472  -1.937  1.00 21.73 LIG 0.04  C 
BRANCH 18 19
ATOM     19  CG  ARG D  12      32.133  -4.767  -1.501  1.00 32.78 LIG 0.02  C 
BRANCH 19 20
ATOM     20  CD  ARG D  12      31.311  -3.503  -1.284  1.00 50.92 LIG 0.14  C 
BRANCH 20 21
ATOM     21  NE  ARG D  12      32.161  -2.328  -1.063  1.00 62.40 LIG-0.23  N 
ATOM     22  CZ  ARG D  12      31.994  -1.444  -0.087  1.00 78.74 LIG 0.67  C 
ATOM     23  NH2 ARG D  12      32.810  -0.404   0.018  1.00 63.99 LIG-0.23  N 
ATOM     24  NH1 ARG D  12      31.021  -1.601   0.802  1.00 69.89 LIG-0.23  N 
ATOM     25 1HH2 ARG D  12      33.450  -0.301  -0.547  1.00 63.99 LIG 0.17  HD
ATOM     26 2HH2 ARG D  12      32.699   0.168   0.652  1.00 63.99 LIG 0.17  HD
ATOM     27 2HH1 ARG D  12      30.917  -1.025   1.432  1.00 69.89 LIG 0.17  HD
ATOM     28 1HH1 ARG D  12      30.494  -2.278   0.749  1.00 69.89 LIG 0.17  HD
ATOM     29 HE   ARG D  12      32.816  -2.202  -1.606  1.00 62.40 LIG 0.18  HD
ENDBRANCH 20 21
ENDBRANCH 19 20
ENDBRANCH 18 19
ENDBRANCH 5 18
ENDBRANCH 3 5
BRANCH 1 30
ATOM     30  CA  THR D  11      34.499  -1.839   1.987  1.00 18.14 LIG 0.20  C 
BRANCH 30 31
ATOM     31  N   THR D  11      34.400  -1.985   3.442  1.00 19.39 LIG-0.34  N 
ATOM     32 H    THR D  11      35.154  -2.115   3.835  1.00 19.39 LIG 0.16  HD
ATOM     33  C   GLU D  10      33.223  -1.918   4.091  1.00 24.62 LIG 0.24  C 
ATOM     34 O    GLU D  10      32.150  -1.748   3.513  1.00 23.89 LIG-0.27  OA
BRANCH 33 35
ATOM     35  CA  GLU D  10      33.250  -2.160   5.601  1.00 24.68 LIG 0.18  C 
BRANCH 35 36
ATOM     36  CB  GLU D  10      33.023  -3.653   5.893  1.00 26.38 LIG 0.04  C 
BRANCH 36 37
ATOM     37  CG  GLU D  10      34.282  -4.433   6.218  1.00 32.13 LIG 0.12  C 
BRANCH 37 38
ATOM     38  CD  GLU D  10      35.333  -4.481   5.126  1.00 44.28 LIG 0.17  C 
ATOM     39 OE2  GLU D  10      36.046  -3.467   4.976  1.00 30.19 LIG-0.65  OA
ATOM     40 OE1  GLU D  10      35.435  -5.503   4.408  1.00 43.79 LIG-0.65  OA
ENDBRANCH 37 38
ENDBRANCH 36 37
ENDBRANCH 35 36
BRANCH 35 41
ATOM     41  N   GLU D  10      32.221  -1.397   6.302  1.00 26.35 LIG-0.35  N 
ATOM     42 H    GLU D  10      31.567  -1.886   6.570  1.00 26.35 LIG 0.16  HD
ATOM     43  C   GLY D   9      32.260  -0.083   6.518  1.00 30.50 LIG 0.25  C 
ATOM     44 O    GLY D   9      33.162   0.649   6.094  1.00 29.84 LIG-0.27  OA
BRANCH 43 45
ATOM     45  CA  GLY D   9      31.105   0.504   7.308  1.00 28.17 LIG 0.47  C 
ATOM     46  N   GLY D   9      30.560  -0.393   8.325  1.00 29.20 LIG 0.61  N 
ENDBRANCH 43 45
ENDBRANCH 35 41
ENDBRANCH 33 35
ENDBRANCH 30 31
BRANCH 30 47
ATOM     47  CB  THR D  11      35.688  -0.931   1.573  1.00 19.92 LIG 0.15  C 
ATOM     48  CG2 THR D  11      37.053  -1.455   2.077  1.00 18.13 LIG 0.04  C 
BRANCH 47 49
ATOM     49 OG1  THR D  11      35.738  -0.809   0.151  1.00 18.56 LIG-0.39  OA
ATOM     50 HG1  THR D  11      34.992  -1.017  -0.175  1.00 18.56 LIG 0.21  HD
ENDBRANCH 47 49
ENDBRANCH 30 47
ENDBRANCH 1 30
TORSDOF 20
ENDMDL
MODEL 7
USER: ADFR SOLUTION from run 48
USER: SCORE 16.477201 LL:  -3.360 LR: -13.803 RR:   0.000 FEB:  -7.837
USER: RMSD 9.308349
USER: SEED 47
USER: STATUS no improvement in best in 1 clusters for 5 generations
USER: GENES 22
USER: genes 0 Translation |==|  0.39632 0.46948 0.44947
USER: genes 1 Rotation |==|  0.22599 0.53214 0.08301 0.50291
USER: genes 2 Torsion [C]-N--CA-[C] |==|  0.62613
USER: genes 3 Torsion [N]-CA--C-[N] |==|  0.41668
USER: genes 4 Torsion [C]-N--CA-[CB] |==|  0.23688
USER: genes 5 Torsion [N]-CA--CB-[CG] |==|  0.93255
USER: genes 6 Torsion [CA]-CB--CG-[CD1] |==|  0.21903
USER: genes 7 Torsion [N]-CA--C-[O] |==|  0.16159
USER: genes 8 Torsion [N]-CA--CB-[CG] |==|  0.03773
USER: genes 9 Torsion [CA]-CB--CG-[CD] |==|  0.24708
USER: genes 10 Torsion [CB]-CG--CD-[NE] |==|  0.09068
USER: genes 11 Torsion [CG]-CD--NE-[CZ] |==|  0.21040
USER: genes 12 Torsion [N]-C--CA-[N] |==|  0.45138
USER: genes 13 Torsion [C]-CA--N-[C] |==|  0.61547
USER: genes 14 Torsion [N]-C--CA-[N] |==|  0.86575
USER: genes 15 Torsion [C]-CA--CB-[CG] |==|  0.10215
USER: genes 16 Torsion [CA]-CB--CG-[CD] |==|  0.19283
USER: genes 17 Torsion [CB]-CG--CD-[OE2] |==|  0.46275
USER: genes 18 Torsion [C]-CA--N-[C] |==|  0.63365
USER: genes 19 Torsion [N]-C--CA-[N] |==|  0.92441
USER: genes 20 Torsion [C]-CA--CB-[OG1] |==|  0.57129
USER: genes 21 Torsion [CA]-CB--OG1-[HG1] |==|  0.35949
ROOT
ATOM      1  C   THR D  11      34.163   0.193   1.594  1.00 18.55 LIG 0.24  C 
ATOM      2 O    THR D  11      33.413   0.193   0.614  1.00 18.02 LIG-0.27  OA
ATOM      3  N   ARG D  12      33.876   0.821   2.745  1.00 18.77 LIG-0.35  N 
ATOM      4 H    ARG D  12      34.395   0.787   3.430  1.00 18.77 LIG 0.16  HD
ENDROOT
BRANCH 3 5
ATOM      5  CA  ARG D  12      32.682   1.622   2.977  1.00 18.70 LIG 0.18  C 
BRANCH 5 6
ATOM      6  C   ARG D  12      33.136   2.919   3.674  1.00 21.86 LIG 0.24  C 
ATOM      7  N   LEU D  13      32.410   4.017   3.449  1.00 17.74 LIG-0.34  N 
ATOM      8 H    LEU D  13      31.721   4.011   2.934  1.00 17.74 LIG 0.16  HD
ATOM      9 O    ARG D  12      34.148   2.916   4.395  1.00 22.92 LIG-0.27  OA
BRANCH 7 10
ATOM     10  CA  LEU D  13      32.675   5.346   4.028  1.00 16.59 LIG 0.18  C 
BRANCH 10 11
ATOM     11  CB  LEU D  13      33.716   6.147   3.180  1.00 17.18 LIG 0.04  C 
BRANCH 11 12
ATOM     12  CG  LEU D  13      34.740   5.409   2.274  1.00 22.98 LIG-0.02  C 
ATOM     13  CD2 LEU D  13      36.020   6.180   2.102  1.00 23.47 LIG 0.01  C 
ATOM     14  CD1 LEU D  13      34.155   4.939   0.970  1.00 23.63 LIG 0.01  C 
ENDBRANCH 11 12
ENDBRANCH 10 11
BRANCH 10 15
ATOM     15  C   LEU D  13      31.431   6.192   4.092  1.00 15.64 LIG 0.20  C 
ATOM     16 OXT  LEU D  13      31.463   7.338   3.594  1.00 16.77 LIG-0.65  OA
ATOM     17 O    LEU D  13      30.463   5.745   4.737  1.00 16.70 LIG-0.65  OA
ENDBRANCH 10 15
ENDBRANCH 7 10
ENDBRANCH 5 6
BRANCH 5 18
ATOM     18  CB  ARG D  12      31.719   0.846   3.900  1.00 21.73 LIG 0.04  C 
BRANCH 18 19
ATOM     19  CG  ARG D  12      32.360  -0.369   4.594  1.00 32.78 LIG 0.02  C 
BRANCH 19 20
ATOM     20  CD  ARG D  12      33.006  -0.016   5.927  1.00 50.92 LIG 0.14  C 
BRANCH 20 21
ATOM     21  NE  ARG D  12      32.291   1.066   6.612  1.00 62.40 LIG-0.23  N 
ATOM     22  CZ  ARG D  12      31.134   0.927   7.248  1.00 78.74 LIG 0.67  C 
ATOM     23  NH2 ARG D  12      30.560   1.974   7.826  1.00 63.99 LIG-0.23  N 
ATOM     24  NH1 ARG D  12      30.550  -0.262   7.329  1.00 69.89 LIG-0.23  N 
ATOM     25 1HH2 ARG D  12      30.937   2.746   7.788  1.00 63.99 LIG 0.17  HD
ATOM     26 2HH2 ARG D  12      29.810   1.881   8.237  1.00 63.99 LIG 0.17  HD
ATOM     27 2HH1 ARG D  12      29.801  -0.346   7.742  1.00 69.89 LIG 0.17  HD
ATOM     28 1HH1 ARG D  12      30.921  -0.949   6.968  1.00 69.89 LIG 0.17  HD
ATOM     29 HE   ARG D  12      32.648   1.849   6.601  1.00 62.40 LIG 0.18  HD
ENDBRANCH 20 21
ENDBRANCH 19 20
ENDBRANCH 18 19
ENDBRANCH 5 18
ENDBRANCH 3 5
BRANCH 1 30
ATOM     30  CA  THR D  11      35.515  -0.518   1.530  1.00 18.14 LIG 0.20  C 
BRANCH 30 31
ATOM     31  N   THR D  11      35.505  -1.476   0.421  1.00 19.39 LIG-0.34  N 
ATOM     32 H    THR D  11      35.130  -1.182  -0.295  1.00 19.39 LIG 0.16  HD
ATOM     33  C   GLU D  10      36.040  -2.706   0.531  1.00 24.62 LIG 0.24  C 
ATOM     34 O    GLU D  10      36.558  -3.120   1.568  1.00 23.89 LIG-0.27  OA
BRANCH 33 35
ATOM     35  CA  GLU D  10      35.897  -3.634  -0.676  1.00 24.68 LIG 0.18  C 
BRANCH 35 36
ATOM     36  CB  GLU D  10      36.819  -3.159  -1.811  1.00 26.38 LIG 0.04  C 
BRANCH 36 37
ATOM     37  CG  GLU D  10      38.154  -2.603  -1.353  1.00 32.13 LIG 0.12  C 
BRANCH 37 38
ATOM     38  CD  GLU D  10      39.126  -3.610  -0.771  1.00 44.28 LIG 0.17  C 
ATOM     39 OE2  GLU D  10      40.310  -3.243  -0.625  1.00 30.19 LIG-0.65  OA
ATOM     40 OE1  GLU D  10      38.726  -4.763  -0.483  1.00 43.79 LIG-0.65  OA
ENDBRANCH 37 38
ENDBRANCH 36 37
ENDBRANCH 35 36
BRANCH 35 41
ATOM     41  N   GLU D  10      34.529  -3.672  -1.185  1.00 26.35 LIG-0.35  N 
ATOM     42 H    GLU D  10      34.189  -2.889  -1.286  1.00 26.35 LIG 0.16  HD
ATOM     43  C   GLY D   9      33.851  -4.783  -1.471  1.00 30.50 LIG 0.25  C 
ATOM     44 O    GLY D   9      34.299  -5.920  -1.283  1.00 29.84 LIG-0.27  OA
BRANCH 43 45
ATOM     45  CA  GLY D   9      32.454  -4.593  -2.032  1.00 28.17 LIG 0.47  C 
ATOM     46  N   GLY D   9      31.808  -3.349  -1.619  1.00 29.20 LIG 0.61  N 
ENDBRANCH 43 45
ENDBRANCH 35 41
ENDBRANCH 33 35
ENDBRANCH 30 31
BRANCH 30 47
ATOM     47  CB  THR D  11      36.668   0.513   1.398  1.00 19.92 LIG 0.15  C 
ATOM     48  CG2 THR D  11      37.117   1.096   2.758  1.00 18.13 LIG 0.04  C 
BRANCH 47 49
ATOM     49 OG1  THR D  11      37.794  -0.093   0.762  1.00 18.56 LIG-0.39  OA
ATOM     50 HG1  THR D  11      38.052   0.393   0.127  1.00 18.56 LIG 0.21  HD
ENDBRANCH 47 49
ENDBRANCH 30 47
ENDBRANCH 1 30
TORSDOF 20
ENDMDL
MODEL 8
USER: ADFR SOLUTION from run 106
USER: SCORE 16.638536 LL:  -3.281 LR: -13.647 RR:   0.000 FEB:  -7.681
USER: RMSD 7.352066
USER: SEED 105
USER: STATUS no improvement in best in 1 clusters for 5 generations
USER: GENES 22
USER: genes 0 Translation |==|  0.55362 0.35298 0.33721
USER: genes 1 Rotation |==|  0.16416 0.17298 0.35826 0.60088
USER: genes 2 Torsion [C]-N--CA-[C] |==|  0.86329
USER: genes 3 Torsion [N]-CA--C-[N] |==|  0.88333
USER: genes 4 Torsion [C]-N--CA-[CB] |==|  0.35483
USER: genes 5 Torsion [N]-CA--CB-[CG] |==|  0.86157
USER: genes 6 Torsion [CA]-CB--CG-[CD1] |==|  0.87708
USER: genes 7 Torsion [N]-CA--C-[O] |==|  0.31933
USER: genes 8 Torsion [N]-CA--CB-[CG] |==|  0.47394
USER: genes 9 Torsion [CA]-CB--CG-[CD] |==|  0.60439
USER: genes 10 Torsion [CB]-CG--CD-[NE] |==|  0.78423
USER: genes 11 Torsion [CG]-CD--NE-[CZ] |==|  0.81610
USER: genes 12 Torsion [N]-C--CA-[N] |==|  0.14386
USER: genes 13 Torsion [C]-CA--N-[C] |==|  0.15216
USER: genes 14 Torsion [N]-C--CA-[N] |==|  0.38596
USER: genes 15 Torsion [C]-CA--CB-[CG] |==|  0.93256
USER: genes 16 Torsion [CA]-CB--CG-[CD] |==|  0.33627
USER: genes 17 Torsion [CB]-CG--CD-[OE2] |==|  0.47565
USER: genes 18 Torsion [C]-CA--N-[C] |==|  0.83904
USER: genes 19 Torsion [N]-C--CA-[N] |==|  0.62719
USER: genes 20 Torsion [C]-CA--CB-[OG1] |==|  0.84699
USER: genes 21 Torsion [CA]-CB--OG1-[HG1] |==|  0.42387
ROOT
ATOM      1  C   THR D  11      37.231  -2.341  -0.342  1.00 18.55 LIG 0.24  C 
ATOM      2 O    THR D  11      37.271  -3.493   0.100  1.00 18.02 LIG-0.27  OA
ATOM      3  N   ARG D  12      36.496  -1.362   0.209  1.00 18.77 LIG-0.35  N 
ATOM      4 H    ARG D  12      36.502  -0.557  -0.092  1.00 18.77 LIG 0.16  HD
ENDROOT
BRANCH 3 5
ATOM      5  CA  ARG D  12      35.617  -1.532   1.358  1.00 18.70 LIG 0.18  C 
BRANCH 5 6
ATOM      6  C   ARG D  12      34.737  -2.765   1.075  1.00 21.86 LIG 0.24  C 
ATOM      7  N   LEU D  13      34.250  -2.894  -0.161  1.00 17.74 LIG-0.34  N 
ATOM      8 H    LEU D  13      34.410  -2.316  -0.778  1.00 17.74 LIG 0.16  HD
ATOM      9 O    ARG D  12      34.494  -3.576   1.984  1.00 22.92 LIG-0.27  OA
BRANCH 7 10
ATOM     10  CA  LEU D  13      33.399  -4.003  -0.630  1.00 16.59 LIG 0.18  C 
BRANCH 10 11
ATOM     11  CB  LEU D  13      32.095  -3.480  -1.314  1.00 17.18 LIG 0.04  C 
BRANCH 11 12
ATOM     12  CG  LEU D  13      31.203  -2.416  -0.616  1.00 22.98 LIG-0.02  C 
ATOM     13  CD2 LEU D  13      31.662  -1.010  -0.887  1.00 23.47 LIG 0.01  C 
ATOM     14  CD1 LEU D  13      30.977  -2.691   0.845  1.00 23.63 LIG 0.01  C 
ENDBRANCH 11 12
ENDBRANCH 10 11
BRANCH 10 15
ATOM     15  C   LEU D  13      34.102  -4.864  -1.645  1.00 15.64 LIG 0.20  C 
ATOM     16 OXT  LEU D  13      34.310  -4.393  -2.784  1.00 16.77 LIG-0.65  OA
ATOM     17 O    LEU D  13      34.344  -6.045  -1.330  1.00 16.70 LIG-0.65  OA
ENDBRANCH 10 15
ENDBRANCH 7 10
ENDBRANCH 5 6
BRANCH 5 18
ATOM     18  CB  ARG D  12      34.726  -0.282   1.508  1.00 21.73 LIG 0.04  C 
BRANCH 18 19
ATOM     19  CG  ARG D  12      33.600  -0.436   2.545  1.00 32.78 LIG 0.02  C 
BRANCH 19 20
ATOM     20  CD  ARG D  12      32.305   0.242   2.118  1.00 50.92 LIG 0.14  C 
BRANCH 20 21
ATOM     21  NE  ARG D  12      32.359   1.696   2.312  1.00 62.40 LIG-0.23  N 
ATOM     22  CZ  ARG D  12      32.435   2.301   3.491  1.00 78.74 LIG 0.67  C 
ATOM     23  NH2 ARG D  12      32.464   3.625   3.561  1.00 63.99 LIG-0.23  N 
ATOM     24  NH1 ARG D  12      32.501   1.588   4.609  1.00 69.89 LIG-0.23  N 
ATOM     25 1HH2 ARG D  12      32.433   4.094   2.841  1.00 63.99 LIG 0.17  HD
ATOM     26 2HH2 ARG D  12      32.513   4.015   4.327  1.00 63.99 LIG 0.17  HD
ATOM     27 2HH1 ARG D  12      32.550   1.986   5.370  1.00 69.89 LIG 0.17  HD
ATOM     28 1HH1 ARG D  12      32.495   0.730   4.573  1.00 69.89 LIG 0.17  HD
ATOM     29 HE   ARG D  12      32.340   2.192   1.610  1.00 62.40 LIG 0.18  HD
ENDBRANCH 20 21
ENDBRANCH 19 20
ENDBRANCH 18 19
ENDBRANCH 5 18
ENDBRANCH 3 5
BRANCH 1 30
ATOM     30  CA  THR D  11      38.015  -1.970  -1.600  1.00 18.14 LIG 0.20  C 
BRANCH 30 31
ATOM     31  N   THR D  11      38.806  -0.764  -1.339  1.00 19.39 LIG-0.34  N 
ATOM     32 H    THR D  11      38.668  -0.124  -1.897  1.00 19.39 LIG 0.16  HD
ATOM     33  C   GLU D  10      39.670  -0.682  -0.311  1.00 24.62 LIG 0.24  C 
ATOM     34 O    GLU D  10      39.871  -1.611   0.470  1.00 23.89 LIG-0.27  OA
BRANCH 33 35
ATOM     35  CA  GLU D  10      40.487   0.606  -0.194  1.00 24.68 LIG 0.18  C 
BRANCH 35 36
ATOM     36  CB  GLU D  10      41.904   0.376  -0.746  1.00 26.38 LIG 0.04  C 
BRANCH 36 37
ATOM     37  CG  GLU D  10      42.366  -1.068  -0.722  1.00 32.13 LIG 0.12  C 
BRANCH 37 38
ATOM     38  CD  GLU D  10      42.741  -1.667  -2.063  1.00 44.28 LIG 0.17  C 
ATOM     39 OE2  GLU D  10      43.282  -2.792  -2.056  1.00 30.19 LIG-0.65  OA
ATOM     40 OE1  GLU D  10      42.524  -1.018  -3.114  1.00 43.79 LIG-0.65  OA
ENDBRANCH 37 38
ENDBRANCH 36 37
ENDBRANCH 35 36
BRANCH 35 41
ATOM     41  N   GLU D  10      40.604   1.064   1.188  1.00 26.35 LIG-0.35  N 
ATOM     42 H    GLU D  10      41.420   1.134   1.448  1.00 26.35 LIG 0.16  HD
ATOM     43  C   GLY D   9      39.577   1.350   1.986  1.00 30.50 LIG 0.25  C 
ATOM     44 O    GLY D   9      38.395   1.204   1.653  1.00 29.84 LIG-0.27  OA
BRANCH 43 45
ATOM     45  CA  GLY D   9      39.924   1.853   3.375  1.00 28.17 LIG 0.47  C 
ATOM     46  N   GLY D   9      39.158   1.222   4.448  1.00 29.20 LIG 0.61  N 
ENDBRANCH 43 45
ENDBRANCH 35 41
ENDBRANCH 33 35
ENDBRANCH 30 31
BRANCH 30 47
ATOM     47  CB  THR D  11      38.901  -3.159  -2.061  1.00 19.92 LIG 0.15  C 
ATOM     48  CG2 THR D  11      39.778  -2.819  -3.289  1.00 18.13 LIG 0.04  C 
BRANCH 47 49
ATOM     49 OG1  THR D  11      39.750  -3.579  -0.991  1.00 18.56 LIG-0.39  OA
ATOM     50 HG1  THR D  11      39.935  -4.393  -1.084  1.00 18.56 LIG 0.21  HD
ENDBRANCH 47 49
ENDBRANCH 30 47
ENDBRANCH 1 30
TORSDOF 20
ENDMDL
MODEL 9
USER: ADFR SOLUTION from run 66
USER: SCORE 15.729358 LL:  -3.637 LR: -13.528 RR:   0.000 FEB:  -7.562
USER: RMSD 9.923006
USER: SEED 65
USER: STATUS no improvement in best in 18 clusters for 5 generations
USER: GENES 22
USER: genes 0 Translation |==|  0.46552 0.24397 0.31151
USER: genes 1 Rotation |==|  0.58616 0.35875 0.90946 0.73445
USER: genes 2 Torsion [C]-N--CA-[C] |==|  0.72650
USER: genes 3 Torsion [N]-CA--C-[N] |==|  0.45431
USER: genes 4 Torsion [C]-N--CA-[CB] |==|  0.24901
USER: genes 5 Torsion [N]-CA--CB-[CG] |==|  0.03838
USER: genes 6 Torsion [CA]-CB--CG-[CD1] |==|  0.77476
USER: genes 7 Torsion [N]-CA--C-[O] |==|  0.30746
USER: genes 8 Torsion [N]-CA--CB-[CG] |==|  0.84105
USER: genes 9 Torsion [CA]-CB--CG-[CD] |==|  0.58467
USER: genes 10 Torsion [CB]-CG--CD-[NE] |==|  0.73774
USER: genes 11 Torsion [CG]-CD--NE-[CZ] |==|  0.42439
USER: genes 12 Torsion [N]-C--CA-[N] |==|  0.85207
USER: genes 13 Torsion [C]-CA--N-[C] |==|  0.20425
USER: genes 14 Torsion [N]-C--CA-[N] |==|  0.73500
USER: genes 15 Torsion [C]-CA--CB-[CG] |==|  0.43641
USER: genes 16 Torsion [CA]-CB--CG-[CD] |==|  0.20055
USER: genes 17 Torsion [CB]-CG--CD-[OE2] |==|  0.06590
USER: genes 18 Torsion [C]-CA--N-[C] |==|  0.68901
USER: genes 19 Torsion [N]-C--CA-[N] |==|  0.73745
USER: genes 20 Torsion [C]-CA--CB-[OG1] |==|  0.47583
USER: genes 21 Torsion [CA]-CB--OG1-[HG1] |==|  0.93728
ROOT
ATOM      1  C   THR D  11      35.513  -4.712  -0.786  1.00 18.55 LIG 0.24  C 
ATOM      2 O    THR D  11      35.657  -4.506  -1.995  1.00 18.02 LIG-0.27  OA
ATOM      3  N   ARG D  12      35.593  -3.746   0.143  1.00 18.77 LIG-0.35  N 
ATOM      4 H    ARG D  12      35.460  -3.900   0.979  1.00 18.77 LIG 0.16  HD
ENDROOT
BRANCH 3 5
ATOM      5  CA  ARG D  12      35.909  -2.352  -0.135  1.00 18.70 LIG 0.18  C 
BRANCH 5 6
ATOM      6  C   ARG D  12      37.408  -2.159   0.164  1.00 21.86 LIG 0.24  C 
ATOM      7  N   LEU D  13      37.991  -1.065  -0.331  1.00 17.74 LIG-0.34  N 
ATOM      8 H    LEU D  13      37.559  -0.491  -0.803  1.00 17.74 LIG 0.16  HD
ATOM      9 O    ARG D  12      38.024  -3.011   0.826  1.00 22.92 LIG-0.27  OA
BRANCH 7 10
ATOM     10  CA  LEU D  13      39.407  -0.698  -0.149  1.00 16.59 LIG 0.18  C 
BRANCH 10 11
ATOM     11  CB  LEU D  13      40.307  -1.293  -1.280  1.00 17.18 LIG 0.04  C 
BRANCH 11 12
ATOM     12  CG  LEU D  13      39.676  -1.876  -2.574  1.00 22.98 LIG-0.02  C 
ATOM     13  CD2 LEU D  13      38.664  -0.950  -3.191  1.00 23.47 LIG 0.01  C 
ATOM     14  CD1 LEU D  13      39.165  -3.281  -2.410  1.00 23.63 LIG 0.01  C 
ENDBRANCH 11 12
ENDBRANCH 10 11
BRANCH 10 15
ATOM     15  C   LEU D  13      39.612   0.793  -0.175  1.00 15.64 LIG 0.20  C 
ATOM     16 OXT  LEU D  13      39.560   1.382  -1.277  1.00 16.77 LIG-0.65  OA
ATOM     17 O    LEU D  13      39.932   1.350   0.892  1.00 16.70 LIG-0.65  OA
ENDBRANCH 10 15
ENDBRANCH 7 10
ENDBRANCH 5 6
BRANCH 5 18
ATOM     18  CB  ARG D  12      35.074  -1.445   0.793  1.00 21.73 LIG 0.04  C 
BRANCH 18 19
ATOM     19  CG  ARG D  12      33.554  -1.659   0.674  1.00 32.78 LIG 0.02  C 
BRANCH 19 20
ATOM     20  CD  ARG D  12      32.755  -0.394   0.955  1.00 50.92 LIG 0.14  C 
BRANCH 20 21
ATOM     21  NE  ARG D  12      32.322  -0.319   2.355  1.00 62.40 LIG-0.23  N 
ATOM     22  CZ  ARG D  12      32.087   0.808   3.016  1.00 78.74 LIG 0.67  C 
ATOM     23  NH2 ARG D  12      31.713   0.770   4.288  1.00 63.99 LIG-0.23  N 
ATOM     24  NH1 ARG D  12      32.205   1.982   2.407  1.00 69.89 LIG-0.23  N 
ATOM     25 1HH2 ARG D  12      31.622   0.013   4.687  1.00 63.99 LIG 0.17  HD
ATOM     26 2HH2 ARG D  12      31.560   1.502   4.714  1.00 63.99 LIG 0.17  HD
ATOM     27 2HH1 ARG D  12      32.051   2.708   2.841  1.00 69.89 LIG 0.17  HD
ATOM     28 1HH1 ARG D  12      32.436   2.016   1.580  1.00 69.89 LIG 0.17  HD
ATOM     29 HE   ARG D  12      32.214  -1.059   2.778  1.00 62.40 LIG 0.18  HD
ENDBRANCH 20 21
ENDBRANCH 19 20
ENDBRANCH 18 19
ENDBRANCH 5 18
ENDBRANCH 3 5
BRANCH 1 30
ATOM     30  CA  THR D  11      35.261  -6.128  -0.269  1.00 18.14 LIG 0.20  C 
BRANCH 30 31
ATOM     31  N   THR D  11      36.263  -6.456   0.749  1.00 19.39 LIG-0.34  N 
ATOM     32 H    THR D  11      36.864  -7.012   0.485  1.00 19.39 LIG 0.16  HD
ATOM     33  C   GLU D  10      36.229  -5.926   1.985  1.00 24.62 LIG 0.24  C 
ATOM     34 O    GLU D  10      35.353  -5.146   2.355  1.00 23.89 LIG-0.27  OA
BRANCH 33 35
ATOM     35  CA  GLU D  10      37.291  -6.409   2.975  1.00 24.68 LIG 0.18  C 
BRANCH 35 36
ATOM     36  CB  GLU D  10      38.525  -6.915   2.210  1.00 26.38 LIG 0.04  C 
BRANCH 36 37
ATOM     37  CG  GLU D  10      39.814  -6.907   3.009  1.00 32.13 LIG 0.12  C 
BRANCH 37 38
ATOM     38  CD  GLU D  10      39.928  -7.960   4.093  1.00 44.28 LIG 0.17  C 
ATOM     39 OE2  GLU D  10      39.231  -8.988   3.966  1.00 30.19 LIG-0.65  OA
ATOM     40 OE1  GLU D  10      40.682  -7.761   5.075  1.00 43.79 LIG-0.65  OA
ENDBRANCH 37 38
ENDBRANCH 36 37
ENDBRANCH 35 36
BRANCH 35 41
ATOM     41  N   GLU D  10      36.803  -7.494   3.823  1.00 26.35 LIG-0.35  N 
ATOM     42 H    GLU D  10      36.665  -8.221   3.387  1.00 26.35 LIG 0.16  HD
ATOM     43  C   GLY D   9      36.585  -7.399   5.134  1.00 30.50 LIG 0.25  C 
ATOM     44 O    GLY D   9      36.724  -6.349   5.772  1.00 29.84 LIG-0.27  OA
BRANCH 43 45
ATOM     45  CA  GLY D   9      36.119  -8.663   5.831  1.00 28.17 LIG 0.47  C 
ATOM     46  N   GLY D   9      34.668  -8.773   5.963  1.00 29.20 LIG 0.61  N 
ENDBRANCH 43 45
ENDBRANCH 35 41
ENDBRANCH 33 35
ENDBRANCH 30 31
BRANCH 30 47
ATOM     47  CB  THR D  11      33.813  -6.261   0.275  1.00 19.92 LIG 0.15  C 
ATOM     48  CG2 THR D  11      32.746  -5.724  -0.707  1.00 18.13 LIG 0.04  C 
BRANCH 47 49
ATOM     49 OG1  THR D  11      33.524  -7.629   0.566  1.00 18.56 LIG-0.39  OA
ATOM     50 HG1  THR D  11      34.037  -8.124   0.121  1.00 18.56 LIG 0.21  HD
ENDBRANCH 47 49
ENDBRANCH 30 47
ENDBRANCH 1 30
TORSDOF 20
ENDMDL
MODEL 10
USER: ADFR SOLUTION from run 172
USER: SCORE 17.103438 LL:  -4.472 LR: -13.489 RR:   0.000 FEB:  -7.523
USER: RMSD 9.661537
USER: SEED 171
USER: STATUS no improvement in best in 8 clusters for 5 generations
USER: GENES 22
USER: genes 0 Translation |==|  0.43948 0.21752 0.30970
USER: genes 1 Rotation |==|  0.58086 0.37161 0.92004 0.72482
USER: genes 2 Torsion [C]-N--CA-[C] |==|  0.77919
USER: genes 3 Torsion [N]-CA--C-[N] |==|  0.32951
USER: genes 4 Torsion [C]-N--CA-[CB] |==|  0.79112
USER: genes 5 Torsion [N]-CA--CB-[CG] |==|  0.20757
USER: genes 6 Torsion [CA]-CB--CG-[CD1] |==|  0.38303
USER: genes 7 Torsion [N]-CA--C-[O] |==|  0.12193
USER: genes 8 Torsion [N]-CA--CB-[CG] |==|  0.80588
USER: genes 9 Torsion [CA]-CB--CG-[CD] |==|  0.61932
USER: genes 10 Torsion [CB]-CG--CD-[NE] |==|  0.70558
USER: genes 11 Torsion [CG]-CD--NE-[CZ] |==|  0.45493
USER: genes 12 Torsion [N]-C--CA-[N] |==|  0.82222
USER: genes 13 Torsion [C]-CA--N-[C] |==|  0.19338
USER: genes 14 Torsion [N]-C--CA-[N] |==|  0.34135
USER: genes 15 Torsion [C]-CA--CB-[CG] |==|  0.55999
USER: genes 16 Torsion [CA]-CB--CG-[CD] |==|  0.86843
USER: genes 17 Torsion [CB]-CG--CD-[OE2] |==|  0.37902
USER: genes 18 Torsion [C]-CA--N-[C] |==|  0.83159
USER: genes 19 Torsion [N]-C--CA-[N] |==|  0.47883
USER: genes 20 Torsion [C]-CA--CB-[OG1] |==|  0.45047
USER: genes 21 Torsion [CA]-CB--OG1-[HG1] |==|  0.95276
ROOT
ATOM      1  C   THR D  11      35.005  -5.287  -0.817  1.00 18.55 LIG 0.24  C 
ATOM      2 O    THR D  11      35.153  -5.143  -2.034  1.00 18.02 LIG-0.27  OA
ATOM      3  N   ARG D  12      35.021  -4.267   0.055  1.00 18.77 LIG-0.35  N 
ATOM      4 H    ARG D  12      34.886  -4.380   0.897  1.00 18.77 LIG 0.16  HD
ENDROOT
BRANCH 3 5
ATOM      5  CA  ARG D  12      35.265  -2.876  -0.299  1.00 18.70 LIG 0.18  C 
BRANCH 5 6
ATOM      6  C   ARG D  12      36.788  -2.711  -0.464  1.00 21.86 LIG 0.24  C 
ATOM      7  N   LEU D  13      37.233  -2.339  -1.666  1.00 17.74 LIG-0.34  N 
ATOM      8 H    LEU D  13      36.701  -2.201  -2.328  1.00 17.74 LIG 0.16  HD
ATOM      9 O    ARG D  12      37.544  -2.939   0.494  1.00 22.92 LIG-0.27  OA
BRANCH 7 10
ATOM     10  CA  LEU D  13      38.647  -2.120  -2.021  1.00 16.59 LIG 0.18  C 
BRANCH 10 11
ATOM     11  CB  LEU D  13      39.185  -0.773  -1.439  1.00 17.18 LIG 0.04  C 
BRANCH 11 12
ATOM     12  CG  LEU D  13      39.508  -0.634   0.075  1.00 22.98 LIG-0.02  C 
ATOM     13  CD2 LEU D  13      38.341  -0.117   0.870  1.00 23.47 LIG 0.01  C 
ATOM     14  CD1 LEU D  13      40.785   0.113   0.348  1.00 23.63 LIG 0.01  C 
ENDBRANCH 11 12
ENDBRANCH 10 11
BRANCH 10 15
ATOM     15  C   LEU D  13      39.539  -3.208  -1.485  1.00 15.64 LIG 0.20  C 
ATOM     16 OXT  LEU D  13      40.667  -2.892  -1.049  1.00 16.77 LIG-0.65  OA
ATOM     17 O    LEU D  13      39.148  -4.385  -1.604  1.00 16.70 LIG-0.65  OA
ENDBRANCH 10 15
ENDBRANCH 7 10
ENDBRANCH 5 6
BRANCH 5 18
ATOM     18  CB  ARG D  12      34.764  -1.964   0.840  1.00 21.73 LIG 0.04  C 
BRANCH 18 19
ATOM     19  CG  ARG D  12      33.232  -1.921   0.980  1.00 32.78 LIG 0.02  C 
BRANCH 19 20
ATOM     20  CD  ARG D  12      32.699  -0.515   1.215  1.00 50.92 LIG 0.14  C 
BRANCH 20 21
ATOM     21  NE  ARG D  12      32.270  -0.317   2.605  1.00 62.40 LIG-0.23  N 
ATOM     22  CZ  ARG D  12      32.057   0.864   3.171  1.00 78.74 LIG 0.67  C 
ATOM     23  NH2 ARG D  12      31.685   0.938   4.442  1.00 63.99 LIG-0.23  N 
ATOM     24  NH1 ARG D  12      32.196   1.982   2.468  1.00 69.89 LIG-0.23  N 
ATOM     25 1HH2 ARG D  12      31.581   0.218   4.902  1.00 63.99 LIG 0.17  HD
ATOM     26 2HH2 ARG D  12      31.547   1.705   4.807  1.00 63.99 LIG 0.17  HD
ATOM     27 2HH1 ARG D  12      32.057   2.744   2.841  1.00 69.89 LIG 0.17  HD
ATOM     28 1HH1 ARG D  12      32.426   1.944   1.641  1.00 69.89 LIG 0.17  HD
ATOM     29 HE   ARG D  12      32.149  -1.018   3.088  1.00 62.40 LIG 0.18  HD
ENDBRANCH 20 21
ENDBRANCH 19 20
ENDBRANCH 18 19
ENDBRANCH 5 18
ENDBRANCH 3 5
BRANCH 1 30
ATOM     30  CA  THR D  11      34.823  -6.683  -0.222  1.00 18.14 LIG 0.20  C 
BRANCH 30 31
ATOM     31  N   THR D  11      35.972  -6.998   0.632  1.00 19.39 LIG-0.34  N 
ATOM     32 H    THR D  11      36.488  -7.609   0.317  1.00 19.39 LIG 0.16  HD
ATOM     33  C   GLU D  10      36.185  -6.375   1.806  1.00 24.62 LIG 0.24  C 
ATOM     34 O    GLU D  10      35.428  -5.514   2.253  1.00 23.89 LIG-0.27  OA
BRANCH 33 35
ATOM     35  CA  GLU D  10      37.379  -6.850   2.635  1.00 24.68 LIG 0.18  C 
BRANCH 35 36
ATOM     36  CB  GLU D  10      36.888  -7.434   3.970  1.00 26.38 LIG 0.04  C 
BRANCH 36 37
ATOM     37  CG  GLU D  10      37.929  -7.464   5.071  1.00 32.13 LIG 0.12  C 
BRANCH 37 38
ATOM     38  CD  GLU D  10      39.288  -8.014   4.684  1.00 44.28 LIG 0.17  C 
ATOM     39 OE2  GLU D  10      40.292  -7.393   5.091  1.00 30.19 LIG-0.65  OA
ATOM     40 OE1  GLU D  10      39.360  -9.036   3.963  1.00 43.79 LIG-0.65  OA
ENDBRANCH 37 38
ENDBRANCH 36 37
ENDBRANCH 35 36
BRANCH 35 41
ATOM     41  N   GLU D  10      38.314  -5.767   2.928  1.00 26.35 LIG-0.35  N 
ATOM     42 H    GLU D  10      38.407  -5.625   3.771  1.00 26.35 LIG 0.16  HD
ATOM     43  C   GLY D   9      38.969  -5.055   2.012  1.00 30.50 LIG 0.25  C 
ATOM     44 O    GLY D   9      38.810  -5.203   0.794  1.00 29.84 LIG-0.27  OA
BRANCH 43 45
ATOM     45  CA  GLY D   9      39.928  -4.003   2.536  1.00 28.17 LIG 0.47  C 
ATOM     46  N   GLY D   9      40.748  -3.373   1.503  1.00 29.20 LIG 0.61  N 
ENDBRANCH 43 45
ENDBRANCH 35 41
ENDBRANCH 33 35
ENDBRANCH 30 31
BRANCH 30 47
ATOM     47  CB  THR D  11      33.480  -6.776   0.551  1.00 19.92 LIG 0.15  C 
ATOM     48  CG2 THR D  11      32.318  -6.051  -0.165  1.00 18.13 LIG 0.04  C 
BRANCH 47 49
ATOM     49 OG1  THR D  11      33.121  -8.145   0.743  1.00 18.56 LIG-0.39  OA
ATOM     50 HG1  THR D  11      33.562  -8.627   0.215  1.00 18.56 LIG 0.21  HD
ENDBRANCH 47 49
ENDBRANCH 30 47
ENDBRANCH 1 30
TORSDOF 20
ENDMDL
