MODEL 1
USER: ADFR SOLUTION from run 76
USER: SCORE 17.135364 LL:  -2.412 LR: -15.258 RR:   0.000 FEB:  -9.590
USER: RMSD 2.856219
USER: SEED 75
USER: STATUS searching
USER: GENES 21
USER: genes 0 Translation |==|  0.51129 0.48214 0.37815
USER: genes 1 Rotation |==|  0.42277 0.57852 0.42408 0.98177
USER: genes 2 Torsion [CB]-CA--N-[C] |==|  0.52222
USER: genes 3 Torsion [N]-C--CA-[N] |==|  0.08150
USER: genes 4 Torsion [C]-CA--CB-[CG] |==|  0.48178
USER: genes 5 Torsion [CA]-CB--CG-[CD] |==|  0.81132
USER: genes 6 Torsion [CB]-CG--CD-[OE2] |==|  0.44499
USER: genes 7 Torsion [C]-CA--N-[C] |==|  0.18052
USER: genes 8 Torsion [N]-C--CA-[N] |==|  0.39216
USER: genes 9 Torsion [C]-CA--CB-[CG2] |==|  0.02939
USER: genes 10 Torsion [CA]-CB--CG1-[CD1] |==|  0.51379
USER: genes 11 Torsion [N]-CA--CB-[OG] |==|  0.10309
USER: genes 12 Torsion [CA]-CB--OG-[HG] |==|  0.93453
USER: genes 13 Torsion [N]-CA--C-[N] |==|  0.44331
USER: genes 14 Torsion [C]-N--CA-[C] |==|  0.77270
USER: genes 15 Torsion [N]-CA--C-[N] |==|  0.36835
USER: genes 16 Torsion [C]-N--CA-[CB] |==|  0.26831
USER: genes 17 Torsion [N]-CA--C-[OXT] |==|  0.65214
USER: genes 18 Torsion [N]-CA--CB-[CG1] |==|  0.52483
USER: genes 19 Torsion [N]-CA--CB-[CG] |==|  0.21198
USER: genes 20 Torsion [CA]-CB--CG-[OD1] |==|  0.82182
ROOT
ATOM      1  CA  SER G  14      50.474 -16.729  10.072  1.00 44.70 LIG 0.20  C 
ENDROOT
BRANCH 1 2
ATOM      2  N   SER G  14      50.508 -17.267  11.435  1.00 46.20 LIG-0.34  N 
ATOM      3 H    SER G  14      49.848 -17.789  11.610  1.00 46.20 LIG 0.16  HD
ATOM      4  C   GLU G  13      51.475 -16.982  12.341  1.00 51.44 LIG 0.24  C 
ATOM      5 O    GLU G  13      52.422 -16.219  12.107  1.00 50.95 LIG-0.27  OA
BRANCH 4 6
ATOM      6  CA  GLU G  13      51.375 -17.669  13.722  1.00 50.06 LIG 0.18  C 
BRANCH 6 7
ATOM      7  CB  GLU G  13      52.758 -17.877  14.365  1.00 50.83 LIG 0.04  C 
BRANCH 7 8
ATOM      8  CG  GLU G  13      52.768 -18.403  15.788  1.00 52.88 LIG 0.12  C 
BRANCH 8 9
ATOM      9  CD  GLU G  13      52.227 -17.426  16.810  1.00 63.45 LIG 0.17  C 
ATOM     10 OE2  GLU G  13      51.839 -17.864  17.924  1.00 51.34 LIG-0.65  OA
ATOM     11 OE1  GLU G  13      52.163 -16.218  16.479  1.00 49.18 LIG-0.65  OA
ENDBRANCH 8 9
ENDBRANCH 7 8
ENDBRANCH 6 7
BRANCH 6 12
ATOM     12  N   GLU G  13      50.706 -18.958  13.556  1.00 52.96 LIG-0.35  N 
ATOM     13  C   ILE G  12      51.112 -20.048  12.882  1.00 61.55 LIG 0.26  C 
ATOM     14 O    ILE G  12      52.149 -20.101  12.215  1.00 62.55 LIG-0.27  OA
ATOM     15 H    GLU G  13      49.951 -18.965  13.967  1.00 52.96 LIG 0.16  HD
BRANCH 13 16
ATOM     16  CA  ILE G  12      50.183 -21.262  12.975  1.00 62.28 LIG 0.40  C 
ATOM     17  N   ILE G  12      50.061 -22.009  11.718  1.00 63.47 LIG 0.61  N 
BRANCH 16 18
ATOM     18  CB  ILE G  12      50.506 -22.155  14.220  1.00 65.80 LIG 0.03  C 
ATOM     19  CG2 ILE G  12      51.492 -21.458  15.171  1.00 67.40 LIG 0.01  C 
BRANCH 18 20
ATOM     20  CG1 ILE G  12      49.221 -22.664  14.943  1.00 66.47 LIG 0.00  C 
ATOM     21  CD1 ILE G  12      49.470 -23.466  16.273  1.00 71.32 LIG 0.01  C 
ENDBRANCH 18 20
ENDBRANCH 16 18
ENDBRANCH 13 16
ENDBRANCH 6 12
ENDBRANCH 4 6
ENDBRANCH 1 2
BRANCH 1 22
ATOM     22  CB  SER G  14      49.156 -17.089   9.387  1.00 46.99 LIG 0.20  C 
BRANCH 22 23
ATOM     23 OG   SER G  14      48.048 -17.054  10.269  1.00 54.54 LIG-0.40  OA
ATOM     24 HG   SER G  14      48.314 -17.159  11.059  1.00 54.54 LIG 0.21  HD
ENDBRANCH 22 23
ENDBRANCH 1 22
BRANCH 1 25
ATOM     25  C   SER G  14      50.666 -15.212  10.030  1.00 46.83 LIG 0.24  C 
ATOM     26 O    SER G  14      50.402 -14.521  11.003  1.00 45.69 LIG-0.27  OA
ATOM     27  N   ASP G  15      51.062 -14.700   8.875  1.00 44.02 LIG-0.34  N 
ATOM     28 H    ASP G  15      51.228 -15.188   8.186  1.00 44.02 LIG 0.16  HD
BRANCH 27 29
ATOM     29  CA  ASP G  15      51.265 -13.271   8.624  1.00 44.06 LIG 0.19  C 
BRANCH 29 30
ATOM     30  C   ASP G  15      49.940 -12.570   8.311  1.00 44.73 LIG 0.24  C 
ATOM     31 O    ASP G  15      49.157 -13.061   7.503  1.00 45.25 LIG-0.27  OA
ATOM     32  N   VAL G  16      49.693 -11.431   8.954  1.00 39.33 LIG-0.34  N 
ATOM     33 H    VAL G  16      50.236 -11.081   9.523  1.00 39.33 LIG 0.16  HD
BRANCH 32 34
ATOM     34  CA  VAL G  16      48.470 -10.661   8.754  1.00 42.56 LIG 0.19  C 
BRANCH 34 35
ATOM     35  C   VAL G  16      48.752  -9.148   8.559  1.00 36.49 LIG 0.20  C 
ATOM     36 OXT  VAL G  16      48.187  -8.340   9.292  1.00 48.65 LIG-0.65  OA
ATOM     37 O    VAL G  16      49.538  -8.784   7.662  1.00 44.52 LIG-0.65  OA
ENDBRANCH 34 35
BRANCH 34 38
ATOM     38  CB  VAL G  16      47.384 -10.965   9.837  1.00 46.62 LIG 0.01  C 
ATOM     39  CG1 VAL G  16      46.044 -10.314   9.477  1.00 46.76 LIG 0.01  C 
ATOM     40  CG2 VAL G  16      47.202 -12.462  10.040  1.00 45.99 LIG 0.01  C 
ENDBRANCH 34 38
ENDBRANCH 32 34
ENDBRANCH 29 30
BRANCH 29 41
ATOM     41  CB  ASP G  15      52.305 -13.054   7.498  1.00 46.49 LIG 0.15  C 
BRANCH 41 42
ATOM     42  CG  ASP G  15      51.790 -13.307   6.097  1.00 64.67 LIG 0.17  C 
ATOM     43 OD1  ASP G  15      51.429 -14.473   5.797  1.00 66.12 LIG-0.65  OA
ATOM     44 OD2  ASP G  15      51.777 -12.347   5.286  1.00 71.61 LIG-0.65  OA
ENDBRANCH 41 42
ENDBRANCH 29 41
ENDBRANCH 27 29
ENDBRANCH 1 25
TORSDOF 19
ENDMDL
MODEL 2
USER: ADFR SOLUTION from run 25
USER: SCORE 16.199365 LL:  -1.968 LR: -14.986 RR:   0.000 FEB:  -9.318
USER: RMSD 4.896911
USER: SEED 24
USER: STATUS no improvement in best in 5 clusters for 5 generations
USER: GENES 21
USER: genes 0 Translation |==|  0.47179 0.49553 0.41004
USER: genes 1 Rotation |==|  0.54964 0.00604 0.45609 0.54012
USER: genes 2 Torsion [CB]-CA--N-[C] |==|  0.85481
USER: genes 3 Torsion [N]-C--CA-[N] |==|  0.83239
USER: genes 4 Torsion [C]-CA--CB-[CG] |==|  0.39314
USER: genes 5 Torsion [CA]-CB--CG-[CD] |==|  0.86221
USER: genes 6 Torsion [CB]-CG--CD-[OE2] |==|  0.19930
USER: genes 7 Torsion [C]-CA--N-[C] |==|  0.61984
USER: genes 8 Torsion [N]-C--CA-[N] |==|  0.36817
USER: genes 9 Torsion [C]-CA--CB-[CG2] |==|  0.11196
USER: genes 10 Torsion [CA]-CB--CG1-[CD1] |==|  0.26280
USER: genes 11 Torsion [N]-CA--CB-[OG] |==|  0.51650
USER: genes 12 Torsion [CA]-CB--OG-[HG] |==|  0.21248
USER: genes 13 Torsion [N]-CA--C-[N] |==|  0.91611
USER: genes 14 Torsion [C]-N--CA-[C] |==|  0.81816
USER: genes 15 Torsion [N]-CA--C-[N] |==|  0.33889
USER: genes 16 Torsion [C]-N--CA-[CB] |==|  0.21967
USER: genes 17 Torsion [N]-CA--C-[OXT] |==|  0.79026
USER: genes 18 Torsion [N]-CA--CB-[CG1] |==|  0.76867
USER: genes 19 Torsion [N]-CA--CB-[CG] |==|  0.20770
USER: genes 20 Torsion [CA]-CB--CG-[OD1] |==|  0.37129
ROOT
ATOM      1  CA  SER G  14      49.823 -16.407  10.622  1.00 44.70 LIG 0.20  C 
ENDROOT
BRANCH 1 2
ATOM      2  N   SER G  14      49.930 -17.121   9.347  1.00 46.20 LIG-0.34  N 
ATOM      3 H    SER G  14      49.207 -17.530   9.125  1.00 46.20 LIG 0.16  HD
ATOM      4  C   GLU G  13      51.048 -17.145   8.581  1.00 51.44 LIG 0.24  C 
ATOM      5 O    GLU G  13      52.100 -16.574   8.897  1.00 50.95 LIG-0.27  OA
BRANCH 4 6
ATOM      6  CA  GLU G  13      50.973 -17.918   7.244  1.00 50.06 LIG 0.18  C 
BRANCH 6 7
ATOM      7  CB  GLU G  13      49.914 -17.328   6.294  1.00 50.83 LIG 0.04  C 
BRANCH 7 8
ATOM      8  CG  GLU G  13      50.274 -17.293   4.821  1.00 52.88 LIG 0.12  C 
BRANCH 8 9
ATOM      9  CD  GLU G  13      51.634 -16.695   4.532  1.00 63.45 LIG 0.17  C 
ATOM     10 OE2  GLU G  13      52.663 -17.351   4.838  1.00 51.34 LIG-0.65  OA
ATOM     11 OE1  GLU G  13      51.666 -15.549   4.025  1.00 49.18 LIG-0.65  OA
ENDBRANCH 8 9
ENDBRANCH 7 8
ENDBRANCH 6 7
BRANCH 6 12
ATOM     12  N   GLU G  13      50.659 -19.317   7.529  1.00 52.96 LIG-0.35  N 
ATOM     13  C   ILE G  12      51.188 -20.434   6.998  1.00 61.55 LIG 0.26  C 
ATOM     14 O    ILE G  12      52.026 -20.438   6.092  1.00 62.55 LIG-0.27  OA
ATOM     15 H    GLU G  13      50.045 -19.376   8.127  1.00 52.96 LIG 0.16  HD
BRANCH 13 16
ATOM     16  CA  ILE G  12      50.667 -21.749   7.583  1.00 62.28 LIG 0.40  C 
ATOM     17  N   ILE G  12      50.288 -22.738   6.568  1.00 63.47 LIG 0.61  N 
BRANCH 16 18
ATOM     18  CB  ILE G  12      51.611 -22.309   8.699  1.00 65.80 LIG 0.03  C 
ATOM     19  CG2 ILE G  12      52.142 -21.185   9.603  1.00 67.40 LIG 0.01  C 
BRANCH 18 20
ATOM     20  CG1 ILE G  12      50.963 -23.479   9.502  1.00 66.47 LIG 0.00  C 
ATOM     21  CD1 ILE G  12      51.314 -24.924   8.990  1.00 71.32 LIG 0.01  C 
ENDBRANCH 18 20
ENDBRANCH 16 18
ENDBRANCH 13 16
ENDBRANCH 6 12
ENDBRANCH 4 6
ENDBRANCH 1 2
BRANCH 1 22
ATOM     22  CB  SER G  14      50.968 -16.801  11.554  1.00 46.99 LIG 0.20  C 
BRANCH 22 23
ATOM     23 OG   SER G  14      50.842 -16.244  12.851  1.00 54.54 LIG-0.40  OA
ATOM     24 HG   SER G  14      50.262 -16.671  13.283  1.00 54.54 LIG 0.21  HD
ENDBRANCH 22 23
ENDBRANCH 1 22
BRANCH 1 25
ATOM     25  C   SER G  14      49.811 -14.887  10.451  1.00 46.83 LIG 0.24  C 
ATOM     26 O    SER G  14      49.162 -14.178  11.206  1.00 45.69 LIG-0.27  OA
ATOM     27  N   ASP G  15      50.480 -14.406   9.414  1.00 44.02 LIG-0.34  N 
ATOM     28 H    ASP G  15      50.920 -14.911   8.874  1.00 44.02 LIG 0.16  HD
BRANCH 27 29
ATOM     29  CA  ASP G  15      50.557 -12.986   9.060  1.00 44.06 LIG 0.19  C 
BRANCH 29 30
ATOM     30  C   ASP G  15      49.186 -12.444   8.649  1.00 44.73 LIG 0.24  C 
ATOM     31 O    ASP G  15      48.572 -12.957   7.718  1.00 45.25 LIG-0.27  OA
ATOM     32  N   VAL G  16      48.711 -11.413   9.347  1.00 39.33 LIG-0.34  N 
ATOM     33 H    VAL G  16      49.135 -11.049  10.001  1.00 39.33 LIG 0.16  HD
BRANCH 32 34
ATOM     34  CA  VAL G  16      47.418 -10.799   9.064  1.00 42.56 LIG 0.19  C 
BRANCH 34 35
ATOM     35  C   VAL G  16      47.386  -9.295   9.443  1.00 36.49 LIG 0.20  C 
ATOM     36 OXT  VAL G  16      47.303  -8.984  10.629  1.00 48.65 LIG-0.65  OA
ATOM     37 O    VAL G  16      47.439  -8.437   8.541  1.00 44.52 LIG-0.65  OA
ENDBRANCH 34 35
BRANCH 34 38
ATOM     38  CB  VAL G  16      46.222 -11.621   9.646  1.00 46.62 LIG 0.01  C 
ATOM     39  CG1 VAL G  16      45.820 -12.760   8.702  1.00 46.76 LIG 0.01  C 
ATOM     40  CG2 VAL G  16      46.544 -12.174  11.027  1.00 45.99 LIG 0.01  C 
ENDBRANCH 34 38
ENDBRANCH 32 34
ENDBRANCH 29 30
BRANCH 29 41
ATOM     41  CB  ASP G  15      51.617 -12.754   7.957  1.00 46.49 LIG 0.15  C 
BRANCH 41 42
ATOM     42  CG  ASP G  15      51.200 -13.193   6.568  1.00 64.67 LIG 0.17  C 
ATOM     43 OD1  ASP G  15      51.406 -12.408   5.609  1.00 66.12 LIG-0.65  OA
ATOM     44 OD2  ASP G  15      50.634 -14.308   6.443  1.00 71.61 LIG-0.65  OA
ENDBRANCH 41 42
ENDBRANCH 29 41
ENDBRANCH 27 29
ENDBRANCH 1 25
TORSDOF 19
ENDMDL
MODEL 3
USER: ADFR SOLUTION from run 35
USER: SCORE 15.543156 LL:  -2.240 LR: -14.794 RR:   0.000 FEB:  -9.126
USER: RMSD 5.679439
USER: SEED 34
USER: STATUS no improvement in best in 3 clusters for 5 generations
USER: GENES 21
USER: genes 0 Translation |==|  0.50165 0.52759 0.38427
USER: genes 1 Rotation |==|  0.43031 0.97050 0.63046 0.58219
USER: genes 2 Torsion [CB]-CA--N-[C] |==|  0.26997
USER: genes 3 Torsion [N]-C--CA-[N] |==|  0.47166
USER: genes 4 Torsion [C]-CA--CB-[CG] |==|  0.24812
USER: genes 5 Torsion [CA]-CB--CG-[CD] |==|  0.52688
USER: genes 6 Torsion [CB]-CG--CD-[OE2] |==|  0.16764
USER: genes 7 Torsion [C]-CA--N-[C] |==|  0.58458
USER: genes 8 Torsion [N]-C--CA-[N] |==|  0.68352
USER: genes 9 Torsion [C]-CA--CB-[CG2] |==|  0.80846
USER: genes 10 Torsion [CA]-CB--CG1-[CD1] |==|  0.46449
USER: genes 11 Torsion [N]-CA--CB-[OG] |==|  0.44266
USER: genes 12 Torsion [CA]-CB--OG-[HG] |==|  0.20497
USER: genes 13 Torsion [N]-CA--C-[N] |==|  0.92813
USER: genes 14 Torsion [C]-N--CA-[C] |==|  0.77150
USER: genes 15 Torsion [N]-CA--C-[N] |==|  0.19715
USER: genes 16 Torsion [C]-N--CA-[CB] |==|  0.43881
USER: genes 17 Torsion [N]-CA--C-[OXT] |==|  0.87025
USER: genes 18 Torsion [N]-CA--CB-[CG1] |==|  0.79099
USER: genes 19 Torsion [N]-CA--CB-[CG] |==|  0.94757
USER: genes 20 Torsion [CA]-CB--CG-[OD1] |==|  0.20505
ROOT
ATOM      1  CA  SER G  14      50.315 -15.638  10.178  1.00 44.70 LIG 0.20  C 
ENDROOT
BRANCH 1 2
ATOM      2  N   SER G  14      51.030 -15.803   8.909  1.00 46.20 LIG-0.34  N 
ATOM      3 H    SER G  14      51.712 -15.285   8.834  1.00 46.20 LIG 0.16  HD
ATOM      4  C   GLU G  13      50.666 -16.678   7.940  1.00 51.44 LIG 0.24  C 
ATOM      5 O    GLU G  13      49.677 -17.417   8.028  1.00 50.95 LIG-0.27  OA
BRANCH 4 6
ATOM      6  CA  GLU G  13      51.558 -16.748   6.679  1.00 50.06 LIG 0.18  C 
BRANCH 6 7
ATOM      7  CB  GLU G  13      51.462 -15.466   5.832  1.00 50.83 LIG 0.04  C 
BRANCH 7 8
ATOM      8  CG  GLU G  13      52.442 -14.359   6.172  1.00 52.88 LIG 0.12  C 
BRANCH 8 9
ATOM      9  CD  GLU G  13      52.157 -13.046   5.475  1.00 63.45 LIG 0.17  C 
ATOM     10 OE2  GLU G  13      51.055 -12.476   5.680  1.00 51.34 LIG-0.65  OA
ATOM     11 OE1  GLU G  13      53.033 -12.604   4.693  1.00 49.18 LIG-0.65  OA
ENDBRANCH 8 9
ENDBRANCH 7 8
ENDBRANCH 6 7
BRANCH 6 12
ATOM     12  N   GLU G  13      51.149 -17.902   5.879  1.00 52.96 LIG-0.35  N 
ATOM     13  C   ILE G  12      51.886 -18.680   5.067  1.00 61.55 LIG 0.26  C 
ATOM     14 O    ILE G  12      53.079 -18.484   4.818  1.00 62.55 LIG-0.27  OA
ATOM     15 H    GLU G  13      50.310 -18.060   5.980  1.00 52.96 LIG 0.16  HD
BRANCH 13 16
ATOM     16  CA  ILE G  12      51.141 -19.857   4.431  1.00 62.28 LIG 0.40  C 
ATOM     17  N   ILE G  12      51.614 -21.169   4.885  1.00 63.47 LIG 0.61  N 
BRANCH 16 18
ATOM     18  CB  ILE G  12      49.587 -19.677   4.506  1.00 65.80 LIG 0.03  C 
ATOM     19  CG2 ILE G  12      49.077 -19.790   5.952  1.00 67.40 LIG 0.01  C 
BRANCH 18 20
ATOM     20  CG1 ILE G  12      49.098 -18.381   3.790  1.00 66.47 LIG 0.00  C 
ATOM     21  CD1 ILE G  12      47.547 -18.290   3.549  1.00 71.32 LIG 0.01  C 
ENDBRANCH 18 20
ENDBRANCH 16 18
ENDBRANCH 13 16
ENDBRANCH 6 12
ENDBRANCH 4 6
ENDBRANCH 1 2
BRANCH 1 22
ATOM     22  CB  SER G  14      50.993 -16.447  11.282  1.00 46.99 LIG 0.20  C 
BRANCH 22 23
ATOM     23 OG   SER G  14      50.666 -15.990  12.583  1.00 54.54 LIG-0.40  OA
ATOM     24 HG   SER G  14      49.879 -16.216  12.770  1.00 54.54 LIG 0.21  HD
ENDBRANCH 22 23
ENDBRANCH 1 22
BRANCH 1 25
ATOM     25  C   SER G  14      50.214 -14.175  10.614  1.00 46.83 LIG 0.24  C 
ATOM     26 O    SER G  14      49.271 -13.788  11.290  1.00 45.69 LIG-0.27  OA
ATOM     27  N   ASP G  15      51.156 -13.360  10.165  1.00 44.02 LIG-0.34  N 
ATOM     28 H    ASP G  15      51.806 -13.633   9.674  1.00 44.02 LIG 0.16  HD
BRANCH 27 29
ATOM     29  CA  ASP G  15      51.211 -11.922  10.440  1.00 44.06 LIG 0.19  C 
BRANCH 29 30
ATOM     30  C   ASP G  15      50.301 -11.141   9.488  1.00 44.73 LIG 0.24  C 
ATOM     31 O    ASP G  15      50.787 -10.439   8.606  1.00 45.25 LIG-0.27  OA
ATOM     32  N   VAL G  16      48.988 -11.270   9.667  1.00 39.33 LIG-0.34  N 
ATOM     33 H    VAL G  16      48.640 -11.761  10.282  1.00 39.33 LIG 0.16  HD
BRANCH 32 34
ATOM     34  CA  VAL G  16      48.007 -10.585   8.832  1.00 42.56 LIG 0.19  C 
BRANCH 34 35
ATOM     35  C   VAL G  16      47.951  -9.062   9.119  1.00 36.49 LIG 0.20  C 
ATOM     36 OXT  VAL G  16      47.906  -8.679  10.285  1.00 48.65 LIG-0.65  OA
ATOM     37 O    VAL G  16      47.947  -8.261   8.164  1.00 44.52 LIG-0.65  OA
ENDBRANCH 34 35
BRANCH 34 38
ATOM     38  CB  VAL G  16      46.607 -11.282   8.854  1.00 46.62 LIG 0.01  C 
ATOM     39  CG1 VAL G  16      46.611 -12.563   8.013  1.00 46.76 LIG 0.01  C 
ATOM     40  CG2 VAL G  16      46.159 -11.590  10.276  1.00 45.99 LIG 0.01  C 
ENDBRANCH 34 38
ENDBRANCH 32 34
ENDBRANCH 29 30
BRANCH 29 41
ATOM     41  CB  ASP G  15      52.670 -11.409  10.384  1.00 46.49 LIG 0.15  C 
BRANCH 41 42
ATOM     42  CG  ASP G  15      53.729 -12.484  10.516  1.00 64.67 LIG 0.17  C 
ATOM     43 OD1  ASP G  15      53.928 -13.247   9.537  1.00 66.12 LIG-0.65  OA
ATOM     44 OD2  ASP G  15      54.338 -12.588  11.611  1.00 71.61 LIG-0.65  OA
ENDBRANCH 41 42
ENDBRANCH 29 41
ENDBRANCH 27 29
ENDBRANCH 1 25
TORSDOF 19
ENDMDL
MODEL 4
USER: ADFR SOLUTION from run 100
USER: SCORE 15.135523 LL:  -1.916 LR: -14.660 RR:   0.000 FEB:  -8.992
USER: RMSD 4.907497
USER: SEED 99
USER: STATUS no improvement in best in 4 clusters for 5 generations
USER: GENES 21
USER: genes 0 Translation |==|  0.46711 0.49616 0.37288
USER: genes 1 Rotation |==|  0.56261 0.00795 0.55896 0.52219
USER: genes 2 Torsion [CB]-CA--N-[C] |==|  0.75353
USER: genes 3 Torsion [N]-C--CA-[N] |==|  0.90803
USER: genes 4 Torsion [C]-CA--CB-[CG] |==|  0.26491
USER: genes 5 Torsion [CA]-CB--CG-[CD] |==|  0.76184
USER: genes 6 Torsion [CB]-CG--CD-[OE2] |==|  0.69695
USER: genes 7 Torsion [C]-CA--N-[C] |==|  0.79916
USER: genes 8 Torsion [N]-C--CA-[N] |==|  0.34976
USER: genes 9 Torsion [C]-CA--CB-[CG2] |==|  0.57503
USER: genes 10 Torsion [CA]-CB--CG1-[CD1] |==|  0.52177
USER: genes 11 Torsion [N]-CA--CB-[OG] |==|  0.56724
USER: genes 12 Torsion [CA]-CB--OG-[HG] |==|  0.18490
USER: genes 13 Torsion [N]-CA--C-[N] |==|  0.75556
USER: genes 14 Torsion [C]-N--CA-[C] |==|  0.15027
USER: genes 15 Torsion [N]-CA--C-[N] |==|  0.62812
USER: genes 16 Torsion [C]-N--CA-[CB] |==|  0.85776
USER: genes 17 Torsion [N]-CA--C-[OXT] |==|  0.12904
USER: genes 18 Torsion [N]-CA--CB-[CG1] |==|  0.53147
USER: genes 19 Torsion [N]-CA--CB-[CG] |==|  0.61314
USER: genes 20 Torsion [CA]-CB--CG-[OD1] |==|  0.06540
ROOT
ATOM      1  CA  SER G  14      49.745 -16.392   9.981  1.00 44.70 LIG 0.20  C 
ENDROOT
BRANCH 1 2
ATOM      2  N   SER G  14      50.055 -17.524   9.103  1.00 46.20 LIG-0.34  N 
ATOM      3 H    SER G  14      49.671 -18.255   9.343  1.00 46.20 LIG 0.16  HD
ATOM      4  C   GLU G  13      50.861 -17.445   8.016  1.00 51.44 LIG 0.24  C 
ATOM      5 O    GLU G  13      51.432 -16.403   7.669  1.00 50.95 LIG-0.27  OA
BRANCH 4 6
ATOM      6  CA  GLU G  13      51.047 -18.731   7.179  1.00 50.06 LIG 0.18  C 
BRANCH 6 7
ATOM      7  CB  GLU G  13      49.973 -18.868   6.085  1.00 50.83 LIG 0.04  C 
BRANCH 7 8
ATOM      8  CG  GLU G  13      50.347 -18.361   4.705  1.00 52.88 LIG 0.12  C 
BRANCH 8 9
ATOM      9  CD  GLU G  13      50.101 -16.881   4.504  1.00 63.45 LIG 0.17  C 
ATOM     10 OE2  GLU G  13      49.163 -16.517   3.749  1.00 51.34 LIG-0.65  OA
ATOM     11 OE1  GLU G  13      50.875 -16.082   5.084  1.00 49.18 LIG-0.65  OA
ENDBRANCH 8 9
ENDBRANCH 7 8
ENDBRANCH 6 7
BRANCH 6 12
ATOM     12  N   GLU G  13      50.994 -19.885   8.075  1.00 52.96 LIG-0.35  N 
ATOM     13  C   ILE G  12      51.899 -20.307   8.974  1.00 61.55 LIG 0.26  C 
ATOM     14 O    ILE G  12      53.003 -19.782   9.143  1.00 62.55 LIG-0.27  OA
ATOM     15 H    GLU G  13      50.259 -20.319   7.969  1.00 52.96 LIG 0.16  HD
BRANCH 13 16
ATOM     16  CA  ILE G  12      51.484 -21.529   9.800  1.00 62.28 LIG 0.40  C 
ATOM     17  N   ILE G  12      52.451 -22.630   9.751  1.00 63.47 LIG 0.61  N 
BRANCH 16 18
ATOM     18  CB  ILE G  12      51.038 -21.134  11.248  1.00 65.80 LIG 0.03  C 
ATOM     19  CG2 ILE G  12      51.264 -22.287  12.240  1.00 67.40 LIG 0.01  C 
BRANCH 18 20
ATOM     20  CG1 ILE G  12      51.671 -19.790  11.725  1.00 66.47 LIG 0.00  C 
ATOM     21  CD1 ILE G  12      51.423 -19.429  13.235  1.00 71.32 LIG 0.01  C 
ENDBRANCH 18 20
ENDBRANCH 16 18
ENDBRANCH 13 16
ENDBRANCH 6 12
ENDBRANCH 4 6
ENDBRANCH 1 2
BRANCH 1 22
ATOM     22  CB  SER G  14      50.781 -16.285  11.100  1.00 46.99 LIG 0.20  C 
BRANCH 22 23
ATOM     23 OG   SER G  14      50.288 -15.616  12.248  1.00 54.54 LIG-0.40  OA
ATOM     24 HG   SER G  14      49.685 -16.080  12.604  1.00 54.54 LIG 0.21  HD
ENDBRANCH 22 23
ENDBRANCH 1 22
BRANCH 1 25
ATOM     25  C   SER G  14      49.674 -15.062   9.230  1.00 46.83 LIG 0.24  C 
ATOM     26 O    SER G  14      48.624 -14.679   8.735  1.00 45.69 LIG-0.27  OA
ATOM     27  N   ASP G  15      50.812 -14.399   9.095  1.00 44.02 LIG-0.34  N 
ATOM     28 H    ASP G  15      51.553 -14.682   9.428  1.00 44.02 LIG 0.16  HD
BRANCH 27 29
ATOM     29  CA  ASP G  15      50.957 -13.130   8.377  1.00 44.06 LIG 0.19  C 
BRANCH 29 30
ATOM     30  C   ASP G  15      49.974 -12.082   8.905  1.00 44.73 LIG 0.24  C 
ATOM     31 O    ASP G  15      49.839 -11.914  10.114  1.00 45.25 LIG-0.27  OA
ATOM     32  N   VAL G  16      49.296 -11.380   7.998  1.00 39.33 LIG-0.34  N 
ATOM     33 H    VAL G  16      49.386 -11.491   7.150  1.00 39.33 LIG 0.16  HD
BRANCH 32 34
ATOM     34  CA  VAL G  16      48.329 -10.348   8.361  1.00 42.56 LIG 0.19  C 
BRANCH 34 35
ATOM     35  C   VAL G  16      49.013  -9.015   8.760  1.00 36.49 LIG 0.20  C 
ATOM     36 OXT  VAL G  16      49.913  -8.574   8.049  1.00 48.65 LIG-0.65  OA
ATOM     37 O    VAL G  16      48.643  -8.424   9.793  1.00 44.52 LIG-0.65  OA
ENDBRANCH 34 35
BRANCH 34 38
ATOM     38  CB  VAL G  16      47.275 -10.852   9.401  1.00 46.62 LIG 0.01  C 
ATOM     39  CG1 VAL G  16      46.122  -9.853   9.549  1.00 46.76 LIG 0.01  C 
ATOM     40  CG2 VAL G  16      46.734 -12.225   9.027  1.00 45.99 LIG 0.01  C 
ENDBRANCH 34 38
ENDBRANCH 32 34
ENDBRANCH 29 30
BRANCH 29 41
ATOM     41  CB  ASP G  15      50.801 -13.342   6.852  1.00 46.49 LIG 0.15  C 
BRANCH 41 42
ATOM     42  CG  ASP G  15      51.769 -12.550   5.997  1.00 64.67 LIG 0.17  C 
ATOM     43 OD1  ASP G  15      52.851 -12.175   6.515  1.00 66.12 LIG-0.65  OA
ATOM     44 OD2  ASP G  15      51.432 -12.274   4.818  1.00 71.61 LIG-0.65  OA
ENDBRANCH 41 42
ENDBRANCH 29 41
ENDBRANCH 27 29
ENDBRANCH 1 25
TORSDOF 19
ENDMDL
MODEL 5
USER: ADFR SOLUTION from run 49
USER: SCORE 16.607559 LL:  -2.302 LR: -14.650 RR:   0.000 FEB:  -8.982
USER: RMSD 2.153368
USER: SEED 48
USER: STATUS 1 or 2 clusters left
USER: GENES 21
USER: genes 0 Translation |==|  0.53400 0.48719 0.36626
USER: genes 1 Rotation |==|  0.43247 0.71529 0.41555 0.93813
USER: genes 2 Torsion [CB]-CA--N-[C] |==|  0.82129
USER: genes 3 Torsion [N]-C--CA-[N] |==|  0.89641
USER: genes 4 Torsion [C]-CA--CB-[CG] |==|  0.29726
USER: genes 5 Torsion [CA]-CB--CG-[CD] |==|  0.99203
USER: genes 6 Torsion [CB]-CG--CD-[OE2] |==|  0.67105
USER: genes 7 Torsion [C]-CA--N-[C] |==|  0.81427
USER: genes 8 Torsion [N]-C--CA-[N] |==|  0.40171
USER: genes 9 Torsion [C]-CA--CB-[CG2] |==|  0.11625
USER: genes 10 Torsion [CA]-CB--CG1-[CD1] |==|  0.34329
USER: genes 11 Torsion [N]-CA--CB-[OG] |==|  0.19316
USER: genes 12 Torsion [CA]-CB--OG-[HG] |==|  0.82133
USER: genes 13 Torsion [N]-CA--C-[N] |==|  0.45852
USER: genes 14 Torsion [C]-N--CA-[C] |==|  0.66647
USER: genes 15 Torsion [N]-CA--C-[N] |==|  0.36272
USER: genes 16 Torsion [C]-N--CA-[CB] |==|  0.25496
USER: genes 17 Torsion [N]-CA--C-[OXT] |==|  0.17521
USER: genes 18 Torsion [N]-CA--CB-[CG1] |==|  0.50897
USER: genes 19 Torsion [N]-CA--CB-[CG] |==|  0.20140
USER: genes 20 Torsion [CA]-CB--CG-[OD1] |==|  0.82282
ROOT
ATOM      1  CA  SER G  14      50.849 -16.607   9.867  1.00 44.70 LIG 0.20  C 
ENDROOT
BRANCH 1 2
ATOM      2  N   SER G  14      51.488 -17.312  10.982  1.00 46.20 LIG-0.34  N 
ATOM      3 H    SER G  14      51.963 -17.984  10.731  1.00 46.20 LIG 0.16  HD
ATOM      4  C   GLU G  13      51.356 -16.955  12.283  1.00 51.44 LIG 0.24  C 
ATOM      5 O    GLU G  13      50.663 -16.001  12.658  1.00 50.95 LIG-0.27  OA
BRANCH 4 6
ATOM      6  CA  GLU G  13      52.133 -17.789  13.327  1.00 50.06 LIG 0.18  C 
BRANCH 6 7
ATOM      7  CB  GLU G  13      53.587 -17.308  13.485  1.00 50.83 LIG 0.04  C 
BRANCH 7 8
ATOM      8  CG  GLU G  13      53.913 -16.557  14.762  1.00 52.88 LIG 0.12  C 
BRANCH 8 9
ATOM      9  CD  GLU G  13      52.721 -16.335  15.669  1.00 63.45 LIG 0.17  C 
ATOM     10 OE2  GLU G  13      52.367 -15.156  15.929  1.00 51.34 LIG-0.65  OA
ATOM     11 OE1  GLU G  13      52.160 -17.350  16.145  1.00 49.18 LIG-0.65  OA
ENDBRANCH 8 9
ENDBRANCH 7 8
ENDBRANCH 6 7
BRANCH 6 12
ATOM     12  N   GLU G  13      52.117 -19.192  12.912  1.00 52.96 LIG-0.35  N 
ATOM     13  C   ILE G  12      51.081 -20.044  12.832  1.00 61.55 LIG 0.26  C 
ATOM     14 O    ILE G  12      49.929 -19.766  13.176  1.00 62.55 LIG-0.27  OA
ATOM     15 H    GLU G  13      52.908 -19.456  12.701  1.00 52.96 LIG 0.16  HD
BRANCH 13 16
ATOM     16  CA  ILE G  12      51.416 -21.436  12.288  1.00 62.28 LIG 0.40  C 
ATOM     17  N   ILE G  12      50.645 -22.516  12.914  1.00 63.47 LIG 0.61  N 
BRANCH 16 18
ATOM     18  CB  ILE G  12      51.411 -21.471  10.723  1.00 65.80 LIG 0.03  C 
ATOM     19  CG2 ILE G  12      52.082 -20.222  10.130  1.00 67.40 LIG 0.01  C 
BRANCH 18 20
ATOM     20  CG1 ILE G  12      51.991 -22.801  10.151  1.00 66.47 LIG 0.00  C 
ATOM     21  CD1 ILE G  12      51.033 -23.593   9.187  1.00 71.32 LIG 0.01  C 
ENDBRANCH 18 20
ENDBRANCH 16 18
ENDBRANCH 13 16
ENDBRANCH 6 12
ENDBRANCH 4 6
ENDBRANCH 1 2
BRANCH 1 22
ATOM     22  CB  SER G  14      49.328 -16.719   9.965  1.00 46.99 LIG 0.20  C 
BRANCH 22 23
ATOM     23 OG   SER G  14      48.788 -15.982  11.048  1.00 54.54 LIG-0.40  OA
ATOM     24 HG   SER G  14      49.067 -16.303  11.772  1.00 54.54 LIG 0.21  HD
ENDBRANCH 22 23
ENDBRANCH 1 22
BRANCH 1 25
ATOM     25  C   SER G  14      51.243 -15.131   9.796  1.00 46.83 LIG 0.24  C 
ATOM     26 O    SER G  14      51.731 -14.567  10.765  1.00 45.69 LIG-0.27  OA
ATOM     27  N   ASP G  15      50.965 -14.500   8.666  1.00 44.02 LIG-0.34  N 
ATOM     28 H    ASP G  15      50.604 -14.897   7.993  1.00 44.02 LIG 0.16  HD
BRANCH 27 29
ATOM     29  CA  ASP G  15      51.229 -13.081   8.418  1.00 44.06 LIG 0.19  C 
BRANCH 29 30
ATOM     30  C   ASP G  15      49.937 -12.325   8.101  1.00 44.73 LIG 0.24  C 
ATOM     31 O    ASP G  15      49.155 -12.762   7.261  1.00 45.25 LIG-0.27  OA
ATOM     32  N   VAL G  16      49.715 -11.198   8.775  1.00 39.33 LIG-0.34  N 
ATOM     33 H    VAL G  16      50.257 -10.885   9.366  1.00 39.33 LIG 0.16  HD
BRANCH 32 34
ATOM     34  CA  VAL G  16      48.524 -10.379   8.574  1.00 42.56 LIG 0.19  C 
BRANCH 34 35
ATOM     35  C   VAL G  16      48.849  -8.863   8.552  1.00 36.49 LIG 0.20  C 
ATOM     36 OXT  VAL G  16      49.577  -8.425   7.665  1.00 48.65 LIG-0.65  OA
ATOM     37 O    VAL G  16      48.373  -8.124   9.436  1.00 44.52 LIG-0.65  OA
ENDBRANCH 34 35
BRANCH 34 38
ATOM     38  CB  VAL G  16      47.361 -10.761   9.547  1.00 46.62 LIG 0.01  C 
ATOM     39  CG1 VAL G  16      46.101  -9.938   9.256  1.00 46.76 LIG 0.01  C 
ATOM     40  CG2 VAL G  16      47.043 -12.248   9.480  1.00 45.99 LIG 0.01  C 
ENDBRANCH 34 38
ENDBRANCH 32 34
ENDBRANCH 29 30
BRANCH 29 41
ATOM     41  CB  ASP G  15      52.283 -12.906   7.298  1.00 46.49 LIG 0.15  C 
BRANCH 41 42
ATOM     42  CG  ASP G  15      51.787 -13.223   5.902  1.00 64.67 LIG 0.17  C 
ATOM     43 OD1  ASP G  15      51.430 -14.402   5.650  1.00 66.12 LIG-0.65  OA
ATOM     44 OD2  ASP G  15      51.786 -12.302   5.048  1.00 71.61 LIG-0.65  OA
ENDBRANCH 41 42
ENDBRANCH 29 41
ENDBRANCH 27 29
ENDBRANCH 1 25
TORSDOF 19
ENDMDL
MODEL 6
USER: ADFR SOLUTION from run 87
USER: SCORE 16.037730 LL:  -2.563 LR: -14.629 RR:   0.000 FEB:  -8.961
USER: RMSD 1.308855
USER: SEED 86
USER: STATUS no improvement in best in 3 clusters for 5 generations
USER: GENES 21
USER: genes 0 Translation |==|  0.53099 0.48226 0.38436
USER: genes 1 Rotation |==|  0.50381 0.49066 0.50929 0.99981
USER: genes 2 Torsion [CB]-CA--N-[C] |==|  0.22644
USER: genes 3 Torsion [N]-C--CA-[N] |==|  0.44531
USER: genes 4 Torsion [C]-CA--CB-[CG] |==|  0.22543
USER: genes 5 Torsion [CA]-CB--CG-[CD] |==|  0.70250
USER: genes 6 Torsion [CB]-CG--CD-[OE2] |==|  0.67265
USER: genes 7 Torsion [C]-CA--N-[C] |==|  0.71184
USER: genes 8 Torsion [N]-C--CA-[N] |==|  0.38076
USER: genes 9 Torsion [C]-CA--CB-[CG2] |==|  0.71453
USER: genes 10 Torsion [CA]-CB--CG1-[CD1] |==|  0.64987
USER: genes 11 Torsion [N]-CA--CB-[OG] |==|  0.84405
USER: genes 12 Torsion [CA]-CB--OG-[HG] |==|  0.17104
USER: genes 13 Torsion [N]-CA--C-[N] |==|  0.41969
USER: genes 14 Torsion [C]-N--CA-[C] |==|  0.75499
USER: genes 15 Torsion [N]-CA--C-[N] |==|  0.44444
USER: genes 16 Torsion [C]-N--CA-[CB] |==|  0.21095
USER: genes 17 Torsion [N]-CA--C-[OXT] |==|  0.34812
USER: genes 18 Torsion [N]-CA--CB-[CG1] |==|  0.73483
USER: genes 19 Torsion [N]-CA--CB-[CG] |==|  0.29416
USER: genes 20 Torsion [CA]-CB--CG-[OD1] |==|  0.78555
ROOT
ATOM      1  CA  SER G  14      50.799 -16.726  10.179  1.00 44.70 LIG 0.20  C 
ENDROOT
BRANCH 1 2
ATOM      2  N   SER G  14      50.660 -17.698  11.267  1.00 46.20 LIG-0.34  N 
ATOM      3 H    SER G  14      50.090 -17.458  11.865  1.00 46.20 LIG 0.16  HD
ATOM      4  C   GLU G  13      51.351 -18.861  11.341  1.00 51.44 LIG 0.24  C 
ATOM      5 O    GLU G  13      52.187 -19.209  10.497  1.00 50.95 LIG-0.27  OA
BRANCH 4 6
ATOM      6  CA  GLU G  13      51.051 -19.787  12.542  1.00 50.06 LIG 0.18  C 
BRANCH 6 7
ATOM      7  CB  GLU G  13      51.738 -19.302  13.831  1.00 50.83 LIG 0.04  C 
BRANCH 7 8
ATOM      8  CG  GLU G  13      51.038 -18.190  14.590  1.00 52.88 LIG 0.12  C 
BRANCH 8 9
ATOM      9  CD  GLU G  13      51.721 -16.844  14.481  1.00 63.45 LIG 0.17  C 
ATOM     10 OE2  GLU G  13      52.162 -16.300  15.526  1.00 51.34 LIG-0.65  OA
ATOM     11 OE1  GLU G  13      51.786 -16.318  13.344  1.00 49.18 LIG-0.65  OA
ENDBRANCH 8 9
ENDBRANCH 7 8
ENDBRANCH 6 7
BRANCH 6 12
ATOM     12  N   GLU G  13      51.506 -21.138  12.216  1.00 52.96 LIG-0.35  N 
ATOM     13  C   ILE G  12      50.786 -22.216  11.857  1.00 61.55 LIG 0.26  C 
ATOM     14 O    ILE G  12      49.553 -22.237  11.805  1.00 62.55 LIG-0.27  OA
ATOM     15 H    GLU G  13      52.361 -21.195  12.279  1.00 52.96 LIG 0.16  HD
BRANCH 13 16
ATOM     16  CA  ILE G  12      51.602 -23.467  11.519  1.00 62.28 LIG 0.40  C 
ATOM     17  N   ILE G  12      51.043 -24.704  12.076  1.00 63.47 LIG 0.61  N 
BRANCH 16 18
ATOM     18  CB  ILE G  12      51.942 -23.551   9.993  1.00 65.80 LIG 0.03  C 
ATOM     19  CG2 ILE G  12      51.038 -24.562   9.269  1.00 67.40 LIG 0.01  C 
BRANCH 18 20
ATOM     20  CG1 ILE G  12      51.960 -22.151   9.305  1.00 66.47 LIG 0.00  C 
ATOM     21  CD1 ILE G  12      51.042 -22.014   8.035  1.00 71.32 LIG 0.01  C 
ENDBRANCH 18 20
ENDBRANCH 16 18
ENDBRANCH 13 16
ENDBRANCH 6 12
ENDBRANCH 4 6
ENDBRANCH 1 2
BRANCH 1 22
ATOM     22  CB  SER G  14      49.965 -17.152   8.972  1.00 46.99 LIG 0.20  C 
BRANCH 22 23
ATOM     23 OG   SER G  14      50.287 -18.452   8.508  1.00 54.54 LIG-0.40  OA
ATOM     24 HG   SER G  14      50.131 -19.011   9.114  1.00 54.54 LIG 0.21  HD
ENDBRANCH 22 23
ENDBRANCH 1 22
BRANCH 1 25
ATOM     25  C   SER G  14      50.398 -15.310  10.595  1.00 46.83 LIG 0.24  C 
ATOM     26 O    SER G  14      49.518 -15.127  11.424  1.00 45.69 LIG-0.27  OA
ATOM     27  N   ASP G  15      51.004 -14.316   9.964  1.00 44.02 LIG-0.34  N 
ATOM     28 H    ASP G  15      51.609 -14.449   9.368  1.00 44.02 LIG 0.16  HD
BRANCH 27 29
ATOM     29  CA  ASP G  15      50.730 -12.895  10.193  1.00 44.06 LIG 0.19  C 
BRANCH 29 30
ATOM     30  C   ASP G  15      49.592 -12.399   9.298  1.00 44.73 LIG 0.24  C 
ATOM     31 O    ASP G  15      49.282 -13.026   8.288  1.00 45.25 LIG-0.27  OA
ATOM     32  N   VAL G  16      48.972 -11.282   9.673  1.00 39.33 LIG-0.34  N 
ATOM     33 H    VAL G  16      49.182 -10.838  10.380  1.00 39.33 LIG 0.16  HD
BRANCH 32 34
ATOM     34  CA  VAL G  16      47.869 -10.699   8.915  1.00 42.56 LIG 0.19  C 
BRANCH 34 35
ATOM     35  C   VAL G  16      47.747  -9.169   9.138  1.00 36.49 LIG 0.20  C 
ATOM     36 OXT  VAL G  16      47.753  -8.425   8.160  1.00 48.65 LIG-0.65  OA
ATOM     37 O    VAL G  16      47.651  -8.727  10.299  1.00 44.52 LIG-0.65  OA
ENDBRANCH 34 35
BRANCH 34 38
ATOM     38  CB  VAL G  16      46.526 -11.475   9.113  1.00 46.62 LIG 0.01  C 
ATOM     39  CG1 VAL G  16      46.306 -12.498   7.994  1.00 46.76 LIG 0.01  C 
ATOM     40  CG2 VAL G  16      46.474 -12.162  10.471  1.00 45.99 LIG 0.01  C 
ENDBRANCH 34 38
ENDBRANCH 32 34
ENDBRANCH 29 30
BRANCH 29 41
ATOM     41  CB  ASP G  15      52.014 -12.052  10.003  1.00 46.49 LIG 0.15  C 
BRANCH 41 42
ATOM     42  CG  ASP G  15      52.061 -11.241   8.724  1.00 64.67 LIG 0.17  C 
ATOM     43 OD1  ASP G  15      52.327 -11.838   7.651  1.00 66.12 LIG-0.65  OA
ATOM     44 OD2  ASP G  15      51.864 -10.002   8.799  1.00 71.61 LIG-0.65  OA
ENDBRANCH 41 42
ENDBRANCH 29 41
ENDBRANCH 27 29
ENDBRANCH 1 25
TORSDOF 19
ENDMDL
MODEL 7
USER: ADFR SOLUTION from run 149
USER: SCORE 15.999912 LL:  -2.676 LR: -14.585 RR:   0.000 FEB:  -8.918
USER: RMSD 5.501785
USER: SEED 148
USER: STATUS no improvement in best in 6 clusters for 5 generations
USER: GENES 21
USER: genes 0 Translation |==|  0.48770 0.49915 0.39804
USER: genes 1 Rotation |==|  0.43207 0.99297 0.54601 0.51563
USER: genes 2 Torsion [CB]-CA--N-[C] |==|  0.52780
USER: genes 3 Torsion [N]-C--CA-[N] |==|  0.97466
USER: genes 4 Torsion [C]-CA--CB-[CG] |==|  0.37179
USER: genes 5 Torsion [CA]-CB--CG-[CD] |==|  0.93886
USER: genes 6 Torsion [CB]-CG--CD-[OE2] |==|  0.71042
USER: genes 7 Torsion [C]-CA--N-[C] |==|  0.77268
USER: genes 8 Torsion [N]-C--CA-[N] |==|  0.42223
USER: genes 9 Torsion [C]-CA--CB-[CG2] |==|  0.85153
USER: genes 10 Torsion [CA]-CB--CG1-[CD1] |==|  0.53248
USER: genes 11 Torsion [N]-CA--CB-[OG] |==|  0.50268
USER: genes 12 Torsion [CA]-CB--OG-[HG] |==|  0.10795
USER: genes 13 Torsion [N]-CA--C-[N] |==|  0.95773
USER: genes 14 Torsion [C]-N--CA-[C] |==|  0.81283
USER: genes 15 Torsion [N]-CA--C-[N] |==|  0.33338
USER: genes 16 Torsion [C]-N--CA-[CB] |==|  0.22526
USER: genes 17 Torsion [N]-CA--C-[OXT] |==|  0.29341
USER: genes 18 Torsion [N]-CA--CB-[CG1] |==|  0.77386
USER: genes 19 Torsion [N]-CA--CB-[CG] |==|  0.18707
USER: genes 20 Torsion [CA]-CB--CG-[OD1] |==|  0.84800
ROOT
ATOM      1  CA  SER G  14      50.085 -16.321  10.415  1.00 44.70 LIG 0.20  C 
ENDROOT
BRANCH 1 2
ATOM      2  N   SER G  14      50.514 -16.974   9.175  1.00 46.20 LIG-0.34  N 
ATOM      3 H    SER G  14      51.124 -17.568   9.299  1.00 46.20 LIG 0.16  HD
ATOM      4  C   GLU G  13      50.012 -16.684   7.950  1.00 51.44 LIG 0.24  C 
ATOM      5 O    GLU G  13      49.147 -15.820   7.758  1.00 50.95 LIG-0.27  OA
BRANCH 4 6
ATOM      6  CA  GLU G  13      50.554 -17.499   6.753  1.00 50.06 LIG 0.18  C 
BRANCH 6 7
ATOM      7  CB  GLU G  13      49.479 -18.421   6.148  1.00 50.83 LIG 0.04  C 
BRANCH 7 8
ATOM      8  CG  GLU G  13      49.360 -18.414   4.636  1.00 52.88 LIG 0.12  C 
BRANCH 8 9
ATOM      9  CD  GLU G  13      49.914 -17.168   3.979  1.00 63.45 LIG 0.17  C 
ATOM     10 OE2  GLU G  13      49.111 -16.300   3.549  1.00 51.34 LIG-0.65  OA
ATOM     11 OE1  GLU G  13      51.160 -17.078   3.866  1.00 49.18 LIG-0.65  OA
ENDBRANCH 8 9
ENDBRANCH 7 8
ENDBRANCH 6 7
BRANCH 6 12
ATOM     12  N   GLU G  13      51.693 -18.296   7.207  1.00 52.96 LIG-0.35  N 
ATOM     13  C   ILE G  12      52.977 -17.932   7.369  1.00 61.55 LIG 0.26  C 
ATOM     14 O    ILE G  12      53.420 -16.815   7.083  1.00 62.55 LIG-0.27  OA
ATOM     15 H    GLU G  13      51.451 -19.102   7.380  1.00 52.96 LIG 0.16  HD
BRANCH 13 16
ATOM     16  CA  ILE G  12      53.901 -19.015   7.931  1.00 62.28 LIG 0.40  C 
ATOM     17  N   ILE G  12      55.300 -18.873   7.513  1.00 63.47 LIG 0.61  N 
BRANCH 16 18
ATOM     18  CB  ILE G  12      53.712 -19.206   9.474  1.00 65.80 LIG 0.03  C 
ATOM     19  CG2 ILE G  12      53.856 -17.874  10.227  1.00 67.40 LIG 0.01  C 
BRANCH 18 20
ATOM     20  CG1 ILE G  12      52.394 -19.962   9.827  1.00 66.47 LIG 0.00  C 
ATOM     21  CD1 ILE G  12      51.992 -19.940  11.347  1.00 71.32 LIG 0.01  C 
ENDBRANCH 18 20
ENDBRANCH 16 18
ENDBRANCH 13 16
ENDBRANCH 6 12
ENDBRANCH 4 6
ENDBRANCH 1 2
BRANCH 1 22
ATOM     22  CB  SER G  14      51.014 -16.698  11.568  1.00 46.99 LIG 0.20  C 
BRANCH 22 23
ATOM     23 OG   SER G  14      50.633 -16.111  12.800  1.00 54.54 LIG-0.40  OA
ATOM     24 HG   SER G  14      49.796 -16.116  12.866  1.00 54.54 LIG 0.21  HD
ENDBRANCH 22 23
ENDBRANCH 1 22
BRANCH 1 25
ATOM     25  C   SER G  14      50.027 -14.797  10.292  1.00 46.83 LIG 0.24  C 
ATOM     26 O    SER G  14      49.385 -14.129  11.090  1.00 45.69 LIG-0.27  OA
ATOM     27  N   ASP G  15      50.646 -14.266   9.249  1.00 44.02 LIG-0.34  N 
ATOM     28 H    ASP G  15      51.080 -14.741   8.679  1.00 44.02 LIG 0.16  HD
BRANCH 27 29
ATOM     29  CA  ASP G  15      50.673 -12.834   8.938  1.00 44.06 LIG 0.19  C 
BRANCH 29 30
ATOM     30  C   ASP G  15      49.283 -12.328   8.544  1.00 44.73 LIG 0.24  C 
ATOM     31 O    ASP G  15      48.700 -12.810   7.577  1.00 45.25 LIG-0.27  OA
ATOM     32  N   VAL G  16      48.756 -11.364   9.298  1.00 39.33 LIG-0.34  N 
ATOM     33 H    VAL G  16      49.157 -11.023   9.978  1.00 39.33 LIG 0.16  HD
BRANCH 32 34
ATOM     34  CA  VAL G  16      47.440 -10.791   9.038  1.00 42.56 LIG 0.19  C 
BRANCH 34 35
ATOM     35  C   VAL G  16      47.353  -9.301   9.462  1.00 36.49 LIG 0.20  C 
ATOM     36 OXT  VAL G  16      47.355  -8.436   8.590  1.00 48.65 LIG-0.65  OA
ATOM     37 O    VAL G  16      47.289  -9.014  10.673  1.00 44.52 LIG-0.65  OA
ENDBRANCH 34 35
BRANCH 34 38
ATOM     38  CB  VAL G  16      46.278 -11.674   9.599  1.00 46.62 LIG 0.01  C 
ATOM     39  CG1 VAL G  16      45.946 -12.826   8.644  1.00 46.76 LIG 0.01  C 
ATOM     40  CG2 VAL G  16      46.608 -12.218  10.982  1.00 45.99 LIG 0.01  C 
ENDBRANCH 34 38
ENDBRANCH 32 34
ENDBRANCH 29 30
BRANCH 29 41
ATOM     41  CB  ASP G  15      51.722 -12.532   7.841  1.00 46.49 LIG 0.15  C 
BRANCH 41 42
ATOM     42  CG  ASP G  15      51.397 -13.099   6.474  1.00 64.67 LIG 0.17  C 
ATOM     43 OD1  ASP G  15      51.168 -14.332   6.381  1.00 66.12 LIG-0.65  OA
ATOM     44 OD2  ASP G  15      51.404 -12.319   5.489  1.00 71.61 LIG-0.65  OA
ENDBRANCH 41 42
ENDBRANCH 29 41
ENDBRANCH 27 29
ENDBRANCH 1 25
TORSDOF 19
ENDMDL
MODEL 8
USER: ADFR SOLUTION from run 155
USER: SCORE 15.711884 LL:  -2.679 LR: -14.346 RR:   0.000 FEB:  -8.678
USER: RMSD 9.748683
USER: SEED 154
USER: STATUS no improvement in best in 1 clusters for 5 generations
USER: GENES 21
USER: genes 0 Translation |==|  0.29893 0.66170 0.30212
USER: genes 1 Rotation |==|  0.21813 0.45334 0.09100 0.53299
USER: genes 2 Torsion [CB]-CA--N-[C] |==|  0.21853
USER: genes 3 Torsion [N]-C--CA-[N] |==|  0.84864
USER: genes 4 Torsion [C]-CA--CB-[CG] |==|  0.06396
USER: genes 5 Torsion [CA]-CB--CG-[CD] |==|  0.68011
USER: genes 6 Torsion [CB]-CG--CD-[OE2] |==|  0.10625
USER: genes 7 Torsion [C]-CA--N-[C] |==|  0.22081
USER: genes 8 Torsion [N]-C--CA-[N] |==|  0.45518
USER: genes 9 Torsion [C]-CA--CB-[CG2] |==|  0.90565
USER: genes 10 Torsion [CA]-CB--CG1-[CD1] |==|  0.25226
USER: genes 11 Torsion [N]-CA--CB-[OG] |==|  0.47842
USER: genes 12 Torsion [CA]-CB--OG-[HG] |==|  0.54758
USER: genes 13 Torsion [N]-CA--C-[N] |==|  0.97427
USER: genes 14 Torsion [C]-N--CA-[C] |==|  0.80419
USER: genes 15 Torsion [N]-CA--C-[N] |==|  0.47035
USER: genes 16 Torsion [C]-N--CA-[CB] |==|  0.49063
USER: genes 17 Torsion [N]-CA--C-[OXT] |==|  0.74963
USER: genes 18 Torsion [N]-CA--CB-[CG1] |==|  0.58705
USER: genes 19 Torsion [N]-CA--CB-[CG] |==|  0.82818
USER: genes 20 Torsion [CA]-CB--CG-[OD1] |==|  0.34135
ROOT
ATOM      1  CA  SER G  14      46.970 -12.419   8.761  1.00 44.70 LIG 0.20  C 
ENDROOT
BRANCH 1 2
ATOM      2  N   SER G  14      47.824 -11.242   8.945  1.00 46.20 LIG-0.34  N 
ATOM      3 H    SER G  14      48.641 -11.375   8.713  1.00 46.20 LIG 0.16  HD
ATOM      4  C   GLU G  13      47.387 -10.055   9.432  1.00 51.44 LIG 0.24  C 
ATOM      5 O    GLU G  13      46.218  -9.855   9.786  1.00 50.95 LIG-0.27  OA
BRANCH 4 6
ATOM      6  CA  GLU G  13      48.417  -8.906   9.525  1.00 50.06 LIG 0.18  C 
BRANCH 6 7
ATOM      7  CB  GLU G  13      48.878  -8.430   8.135  1.00 50.83 LIG 0.04  C 
BRANCH 7 8
ATOM      8  CG  GLU G  13      47.937  -8.713   6.980  1.00 52.88 LIG 0.12  C 
BRANCH 8 9
ATOM      9  CD  GLU G  13      48.495  -9.671   5.949  1.00 63.45 LIG 0.17  C 
ATOM     10 OE2  GLU G  13      49.183 -10.649   6.339  1.00 51.34 LIG-0.65  OA
ATOM     11 OE1  GLU G  13      48.265  -9.421   4.742  1.00 49.18 LIG-0.65  OA
ENDBRANCH 8 9
ENDBRANCH 7 8
ENDBRANCH 6 7
BRANCH 6 12
ATOM     12  N   GLU G  13      49.569  -9.371  10.297  1.00 52.96 LIG-0.35  N 
ATOM     13  C   ILE G  12      50.601 -10.140   9.908  1.00 61.55 LIG 0.26  C 
ATOM     14 O    ILE G  12      50.701 -10.646   8.787  1.00 62.55 LIG-0.27  OA
ATOM     15 H    GLU G  13      49.529  -9.083  11.106  1.00 52.96 LIG 0.16  HD
BRANCH 13 16
ATOM     16  CA  ILE G  12      51.678 -10.380  10.970  1.00 62.28 LIG 0.40  C 
ATOM     17  N   ILE G  12      52.576 -11.497  10.657  1.00 63.47 LIG 0.61  N 
BRANCH 16 18
ATOM     18  CB  ILE G  12      52.417  -9.057  11.364  1.00 65.80 LIG 0.03  C 
ATOM     19  CG2 ILE G  12      52.548  -8.106  10.164  1.00 67.40 LIG 0.01  C 
BRANCH 18 20
ATOM     20  CG1 ILE G  12      51.790  -8.370  12.617  1.00 66.47 LIG 0.00  C 
ATOM     21  CD1 ILE G  12      52.407  -8.799  13.998  1.00 71.32 LIG 0.01  C 
ENDBRANCH 18 20
ENDBRANCH 16 18
ENDBRANCH 13 16
ENDBRANCH 6 12
ENDBRANCH 4 6
ENDBRANCH 1 2
BRANCH 1 22
ATOM     22  CB  SER G  14      46.137 -12.281   7.487  1.00 46.99 LIG 0.20  C 
BRANCH 22 23
ATOM     23 OG   SER G  14      45.423 -13.461   7.163  1.00 54.54 LIG-0.40  OA
ATOM     24 HG   SER G  14      45.177 -13.428   6.361  1.00 54.54 LIG 0.21  HD
ENDBRANCH 22 23
ENDBRANCH 1 22
BRANCH 1 25
ATOM     25  C   SER G  14      47.766 -13.724   8.703  1.00 46.83 LIG 0.24  C 
ATOM     26 O    SER G  14      47.201 -14.805   8.782  1.00 45.69 LIG-0.27  OA
ATOM     27  N   ASP G  15      49.083 -13.609   8.634  1.00 44.02 LIG-0.34  N 
ATOM     28 H    ASP G  15      49.478 -12.846   8.598  1.00 44.02 LIG 0.16  HD
BRANCH 27 29
ATOM     29  CA  ASP G  15      50.017 -14.737   8.608  1.00 44.06 LIG 0.19  C 
BRANCH 29 30
ATOM     30  C   ASP G  15      50.073 -15.440   9.967  1.00 44.73 LIG 0.24  C 
ATOM     31 O    ASP G  15      49.539 -14.931  10.949  1.00 45.25 LIG-0.27  OA
ATOM     32  N   VAL G  16      50.713 -16.607  10.017  1.00 39.33 LIG-0.34  N 
ATOM     33 H    VAL G  16      51.088 -16.971   9.334  1.00 39.33 LIG 0.16  HD
BRANCH 32 34
ATOM     34  CA  VAL G  16      50.840 -17.385  11.246  1.00 42.56 LIG 0.19  C 
BRANCH 34 35
ATOM     35  C   VAL G  16      51.432 -16.551  12.411  1.00 36.49 LIG 0.20  C 
ATOM     36 OXT  VAL G  16      52.650 -16.531  12.567  1.00 48.65 LIG-0.65  OA
ATOM     37 O    VAL G  16      50.663 -15.925  13.167  1.00 44.52 LIG-0.65  OA
ENDBRANCH 34 35
BRANCH 34 38
ATOM     38  CB  VAL G  16      51.562 -18.753  11.019  1.00 46.62 LIG 0.01  C 
ATOM     39  CG1 VAL G  16      51.044 -19.821  11.988  1.00 46.76 LIG 0.01  C 
ATOM     40  CG2 VAL G  16      51.413 -19.232   9.582  1.00 45.99 LIG 0.01  C 
ENDBRANCH 34 38
ENDBRANCH 32 34
ENDBRANCH 29 30
BRANCH 29 41
ATOM     41  CB  ASP G  15      51.421 -14.277   8.147  1.00 46.49 LIG 0.15  C 
BRANCH 41 42
ATOM     42  CG  ASP G  15      51.475 -13.707   6.744  1.00 64.67 LIG 0.17  C 
ATOM     43 OD1  ASP G  15      51.920 -12.541   6.592  1.00 66.12 LIG-0.65  OA
ATOM     44 OD2  ASP G  15      51.041 -14.412   5.799  1.00 71.61 LIG-0.65  OA
ENDBRANCH 41 42
ENDBRANCH 29 41
ENDBRANCH 27 29
ENDBRANCH 1 25
TORSDOF 19
ENDMDL
MODEL 9
USER: ADFR SOLUTION from run 159
USER: SCORE 15.538066 LL:  -2.325 LR: -14.334 RR:   0.000 FEB:  -8.666
USER: RMSD 2.033656
USER: SEED 158
USER: STATUS no improvement in best in 2 clusters for 5 generations
USER: GENES 21
USER: genes 0 Translation |==|  0.54962 0.49453 0.40970
USER: genes 1 Rotation |==|  0.49538 0.42169 0.51026 0.99370
USER: genes 2 Torsion [CB]-CA--N-[C] |==|  0.21771
USER: genes 3 Torsion [N]-C--CA-[N] |==|  0.41579
USER: genes 4 Torsion [C]-CA--CB-[CG] |==|  0.99596
USER: genes 5 Torsion [CA]-CB--CG-[CD] |==|  0.26681
USER: genes 6 Torsion [CB]-CG--CD-[OE2] |==|  0.81345
USER: genes 7 Torsion [C]-CA--N-[C] |==|  0.62222
USER: genes 8 Torsion [N]-C--CA-[N] |==|  0.87704
USER: genes 9 Torsion [C]-CA--CB-[CG2] |==|  0.81937
USER: genes 10 Torsion [CA]-CB--CG1-[CD1] |==|  0.75451
USER: genes 11 Torsion [N]-CA--CB-[OG] |==|  0.05889
USER: genes 12 Torsion [CA]-CB--OG-[HG] |==|  0.74593
USER: genes 13 Torsion [N]-CA--C-[N] |==|  0.42104
USER: genes 14 Torsion [C]-N--CA-[C] |==|  0.75255
USER: genes 15 Torsion [N]-CA--C-[N] |==|  0.39571
USER: genes 16 Torsion [C]-N--CA-[CB] |==|  0.31697
USER: genes 17 Torsion [N]-CA--C-[OXT] |==|  0.71478
USER: genes 18 Torsion [N]-CA--CB-[CG1] |==|  0.72156
USER: genes 19 Torsion [N]-CA--CB-[CG] |==|  0.02744
USER: genes 20 Torsion [CA]-CB--CG-[OD1] |==|  0.19568
ROOT
ATOM      1  CA  SER G  14      51.107 -16.431  10.616  1.00 44.70 LIG 0.20  C 
ENDROOT
BRANCH 1 2
ATOM      2  N   SER G  14      50.672 -17.373  11.652  1.00 46.20 LIG-0.34  N 
ATOM      3 H    SER G  14      49.985 -17.100  12.092  1.00 46.20 LIG 0.16  HD
ATOM      4  C   GLU G  13      51.278 -18.559  11.904  1.00 51.44 LIG 0.24  C 
ATOM      5 O    GLU G  13      52.277 -18.955  11.289  1.00 50.95 LIG-0.27  OA
BRANCH 4 6
ATOM      6  CA  GLU G  13      50.662 -19.447  13.010  1.00 50.06 LIG 0.18  C 
BRANCH 6 7
ATOM      7  CB  GLU G  13      51.243 -19.125  14.399  1.00 50.83 LIG 0.04  C 
BRANCH 7 8
ATOM      8  CG  GLU G  13      52.313 -18.051  14.450  1.00 52.88 LIG 0.12  C 
BRANCH 8 9
ATOM      9  CD  GLU G  13      51.790 -16.675  14.799  1.00 63.45 LIG 0.17  C 
ATOM     10 OE2  GLU G  13      51.036 -16.086  13.982  1.00 51.34 LIG-0.65  OA
ATOM     11 OE1  GLU G  13      52.164 -16.171  15.885  1.00 49.18 LIG-0.65  OA
ENDBRANCH 8 9
ENDBRANCH 7 8
ENDBRANCH 6 7
BRANCH 6 12
ATOM     12  N   GLU G  13      50.915 -20.849  12.679  1.00 52.96 LIG-0.35  N 
ATOM     13  C   ILE G  12      50.081 -21.902  12.741  1.00 61.55 LIG 0.26  C 
ATOM     14 O    ILE G  12      48.925 -21.844  13.171  1.00 62.55 LIG-0.27  OA
ATOM     15 H    GLU G  13      51.725 -20.958  12.413  1.00 52.96 LIG 0.16  HD
BRANCH 13 16
ATOM     16  CA  ILE G  12      50.663 -23.230  12.249  1.00 62.28 LIG 0.40  C 
ATOM     17  N   ILE G  12      51.418 -23.115  10.997  1.00 63.47 LIG 0.61  N 
BRANCH 16 18
ATOM     18  CB  ILE G  12      51.423 -23.994  13.385  1.00 65.80 LIG 0.03  C 
ATOM     19  CG2 ILE G  12      52.666 -23.219  13.851  1.00 67.40 LIG 0.01  C 
BRANCH 18 20
ATOM     20  CG1 ILE G  12      50.486 -24.403  14.563  1.00 66.47 LIG 0.00  C 
ATOM     21  CD1 ILE G  12      50.326 -23.327  15.700  1.00 71.32 LIG 0.01  C 
ENDBRANCH 18 20
ENDBRANCH 16 18
ENDBRANCH 13 16
ENDBRANCH 6 12
ENDBRANCH 4 6
ENDBRANCH 1 2
BRANCH 1 22
ATOM     22  CB  SER G  14      50.635 -16.896   9.239  1.00 46.99 LIG 0.20  C 
BRANCH 22 23
ATOM     23 OG   SER G  14      49.539 -17.791   9.303  1.00 54.54 LIG-0.40  OA
ATOM     24 HG   SER G  14      49.824 -18.581   9.329  1.00 54.54 LIG 0.21  HD
ENDBRANCH 22 23
ENDBRANCH 1 22
BRANCH 1 25
ATOM     25  C   SER G  14      50.610 -15.006  10.866  1.00 46.83 LIG 0.24  C 
ATOM     26 O    SER G  14      49.541 -14.806  11.424  1.00 45.69 LIG-0.27  OA
ATOM     27  N   ASP G  15      51.363 -14.027  10.389  1.00 44.02 LIG-0.34  N 
ATOM     28 H    ASP G  15      52.105 -14.174   9.979  1.00 44.02 LIG 0.16  HD
BRANCH 27 29
ATOM     29  CA  ASP G  15      51.039 -12.602  10.492  1.00 44.06 LIG 0.19  C 
BRANCH 29 30
ATOM     30  C   ASP G  15      50.199 -12.138   9.300  1.00 44.73 LIG 0.24  C 
ATOM     31 O    ASP G  15      50.418 -12.586   8.177  1.00 45.25 LIG-0.27  OA
ATOM     32  N   VAL G  16      49.240 -11.247   9.547  1.00 39.33 LIG-0.34  N 
ATOM     33 H    VAL G  16      49.080 -10.930  10.331  1.00 39.33 LIG 0.16  HD
BRANCH 32 34
ATOM     34  CA  VAL G  16      48.365 -10.721   8.505  1.00 42.56 LIG 0.19  C 
BRANCH 34 35
ATOM     35  C   VAL G  16      48.553  -9.196   8.294  1.00 36.49 LIG 0.20  C 
ATOM     36 OXT  VAL G  16      47.719  -8.425   8.763  1.00 48.65 LIG-0.65  OA
ATOM     37 O    VAL G  16      49.538  -8.785   7.650  1.00 44.52 LIG-0.65  OA
ENDBRANCH 34 35
BRANCH 34 38
ATOM     38  CB  VAL G  16      46.874 -11.151   8.698  1.00 46.62 LIG 0.01  C 
ATOM     39  CG1 VAL G  16      46.512 -12.325   7.782  1.00 46.76 LIG 0.01  C 
ATOM     40  CG2 VAL G  16      46.579 -11.508  10.148  1.00 45.99 LIG 0.01  C 
ENDBRANCH 34 38
ENDBRANCH 32 34
ENDBRANCH 29 30
BRANCH 29 41
ATOM     41  CB  ASP G  15      52.327 -11.757  10.647  1.00 46.49 LIG 0.15  C 
BRANCH 41 42
ATOM     42  CG  ASP G  15      53.618 -12.518  10.425  1.00 64.67 LIG 0.17  C 
ATOM     43 OD1  ASP G  15      53.898 -12.887   9.257  1.00 66.12 LIG-0.65  OA
ATOM     44 OD2  ASP G  15      54.335 -12.775  11.425  1.00 71.61 LIG-0.65  OA
ENDBRANCH 41 42
ENDBRANCH 29 41
ENDBRANCH 27 29
ENDBRANCH 1 25
TORSDOF 19
ENDMDL
MODEL 10
USER: ADFR SOLUTION from run 126
USER: SCORE 15.848655 LL:  -2.235 LR: -14.170 RR:   0.000 FEB:  -8.503
USER: RMSD 4.700763
USER: SEED 125
USER: STATUS no improvement in best in 3 clusters for 5 generations
USER: GENES 21
USER: genes 0 Translation |==|  0.49667 0.49584 0.41341
USER: genes 1 Rotation |==|  0.58543 0.01307 0.42524 0.50411
USER: genes 2 Torsion [CB]-CA--N-[C] |==|  0.86667
USER: genes 3 Torsion [N]-C--CA-[N] |==|  0.90239
USER: genes 4 Torsion [C]-CA--CB-[CG] |==|  0.03181
USER: genes 5 Torsion [CA]-CB--CG-[CD] |==|  0.40364
USER: genes 6 Torsion [CB]-CG--CD-[OE2] |==|  0.51287
USER: genes 7 Torsion [C]-CA--N-[C] |==|  0.67462
USER: genes 8 Torsion [N]-C--CA-[N] |==|  0.25323
USER: genes 9 Torsion [C]-CA--CB-[CG2] |==|  0.75544
USER: genes 10 Torsion [CA]-CB--CG1-[CD1] |==|  0.32604
USER: genes 11 Torsion [N]-CA--CB-[OG] |==|  0.49310
USER: genes 12 Torsion [CA]-CB--OG-[HG] |==|  0.16929
USER: genes 13 Torsion [N]-CA--C-[N] |==|  0.89483
USER: genes 14 Torsion [C]-N--CA-[C] |==|  0.80625
USER: genes 15 Torsion [N]-CA--C-[N] |==|  0.37723
USER: genes 16 Torsion [C]-N--CA-[CB] |==|  0.22570
USER: genes 17 Torsion [N]-CA--C-[OXT] |==|  0.35866
USER: genes 18 Torsion [N]-CA--CB-[CG1] |==|  0.73953
USER: genes 19 Torsion [N]-CA--CB-[CG] |==|  0.52909
USER: genes 20 Torsion [CA]-CB--CG-[OD1] |==|  0.07095
ROOT
ATOM      1  CA  SER G  14      50.233 -16.400  10.680  1.00 44.70 LIG 0.20  C 
ENDROOT
BRANCH 1 2
ATOM      2  N   SER G  14      50.599 -16.888   9.347  1.00 46.20 LIG-0.34  N 
ATOM      3 H    SER G  14      49.952 -17.283   8.942  1.00 46.20 LIG 0.16  HD
ATOM      4  C   GLU G  13      51.827 -16.739   8.794  1.00 51.44 LIG 0.24  C 
ATOM      5 O    GLU G  13      52.771 -16.186   9.374  1.00 50.95 LIG-0.27  OA
BRANCH 4 6
ATOM      6  CA  GLU G  13      52.027 -17.282   7.360  1.00 50.06 LIG 0.18  C 
BRANCH 6 7
ATOM      7  CB  GLU G  13      51.623 -16.250   6.291  1.00 50.83 LIG 0.04  C 
BRANCH 7 8
ATOM      8  CG  GLU G  13      51.371 -14.836   6.779  1.00 52.88 LIG 0.12  C 
BRANCH 8 9
ATOM      9  CD  GLU G  13      51.787 -13.761   5.798  1.00 63.45 LIG 0.17  C 
ATOM     10 OE2  GLU G  13      51.701 -12.556   6.145  1.00 51.34 LIG-0.65  OA
ATOM     11 OE1  GLU G  13      52.173 -14.131   4.663  1.00 49.18 LIG-0.65  OA
ENDBRANCH 8 9
ENDBRANCH 7 8
ENDBRANCH 6 7
BRANCH 6 12
ATOM     12  N   GLU G  13      51.229 -18.497   7.204  1.00 52.96 LIG-0.35  N 
ATOM     13  C   ILE G  12      51.633 -19.755   6.958  1.00 61.55 LIG 0.26  C 
ATOM     14 O    ILE G  12      52.807 -20.077   6.758  1.00 62.55 LIG-0.27  OA
ATOM     15 H    GLU G  13      50.391 -18.324   7.291  1.00 52.96 LIG 0.16  HD
BRANCH 13 16
ATOM     16  CA  ILE G  12      50.520 -20.807   6.923  1.00 62.28 LIG 0.40  C 
ATOM     17  N   ILE G  12      49.956 -21.023   5.586  1.00 63.47 LIG 0.61  N 
BRANCH 16 18
ATOM     18  CB  ILE G  12      50.933 -22.123   7.663  1.00 65.80 LIG 0.03  C 
ATOM     19  CG2 ILE G  12      51.655 -23.097   6.718  1.00 67.40 LIG 0.01  C 
BRANCH 18 20
ATOM     20  CG1 ILE G  12      51.730 -21.849   8.976  1.00 66.47 LIG 0.00  C 
ATOM     21  CD1 ILE G  12      51.039 -22.347  10.298  1.00 71.32 LIG 0.01  C 
ENDBRANCH 18 20
ENDBRANCH 16 18
ENDBRANCH 13 16
ENDBRANCH 6 12
ENDBRANCH 4 6
ENDBRANCH 1 2
BRANCH 1 22
ATOM     22  CB  SER G  14      51.289 -16.807  11.707  1.00 46.99 LIG 0.20  C 
BRANCH 22 23
ATOM     23 OG   SER G  14      51.016 -16.314  13.007  1.00 54.54 LIG-0.40  OA
ATOM     24 HG   SER G  14      50.282 -16.622  13.275  1.00 54.54 LIG 0.21  HD
ENDBRANCH 22 23
ENDBRANCH 1 22
BRANCH 1 25
ATOM     25  C   SER G  14      50.045 -14.883  10.725  1.00 46.83 LIG 0.24  C 
ATOM     26 O    SER G  14      49.126 -14.385  11.359  1.00 45.69 LIG-0.27  OA
ATOM     27  N   ASP G  15      50.882 -14.163   9.993  1.00 44.02 LIG-0.34  N 
ATOM     28 H    ASP G  15      51.515 -14.519   9.532  1.00 44.02 LIG 0.16  HD
BRANCH 27 29
ATOM     29  CA  ASP G  15      50.839 -12.704   9.874  1.00 44.06 LIG 0.19  C 
BRANCH 29 30
ATOM     30  C   ASP G  15      49.610 -12.248   9.083  1.00 44.73 LIG 0.24  C 
ATOM     31 O    ASP G  15      49.287 -12.832   8.052  1.00 45.25 LIG-0.27  OA
ATOM     32  N   VAL G  16      48.929 -11.213   9.571  1.00 39.33 LIG-0.34  N 
ATOM     33 H    VAL G  16      49.148 -10.799  10.293  1.00 39.33 LIG 0.16  HD
BRANCH 32 34
ATOM     34  CA  VAL G  16      47.738 -10.676   8.921  1.00 42.56 LIG 0.19  C 
BRANCH 34 35
ATOM     35  C   VAL G  16      47.581  -9.150   9.148  1.00 36.49 LIG 0.20  C 
ATOM     36 OXT  VAL G  16      47.394  -8.422   8.176  1.00 48.65 LIG-0.65  OA
ATOM     37 O    VAL G  16      47.653  -8.694  10.306  1.00 44.52 LIG-0.65  OA
ENDBRANCH 34 35
BRANCH 34 38
ATOM     38  CB  VAL G  16      46.450 -11.498   9.252  1.00 46.62 LIG 0.01  C 
ATOM     39  CG1 VAL G  16      46.183 -12.566   8.185  1.00 46.76 LIG 0.01  C 
ATOM     40  CG2 VAL G  16      46.538 -12.143  10.628  1.00 45.99 LIG 0.01  C 
ENDBRANCH 34 38
ENDBRANCH 32 34
ENDBRANCH 29 30
BRANCH 29 41
ATOM     41  CB  ASP G  15      52.150 -12.166   9.250  1.00 46.49 LIG 0.15  C 
BRANCH 41 42
ATOM     42  CG  ASP G  15      52.315 -10.662   9.311  1.00 64.67 LIG 0.17  C 
ATOM     43 OD1  ASP G  15      51.715 -10.033  10.219  1.00 66.12 LIG-0.65  OA
ATOM     44 OD2  ASP G  15      53.016 -10.105   8.429  1.00 71.61 LIG-0.65  OA
ENDBRANCH 41 42
ENDBRANCH 29 41
ENDBRANCH 27 29
ENDBRANCH 1 25
TORSDOF 19
ENDMDL
MODEL 11
USER: ADFR SOLUTION from run 126
USER: SCORE 16.860478 LL:  -2.991 LR: -14.153 RR:   0.000 FEB:  -8.485
USER: RMSD 5.034913
USER: SEED 125
USER: STATUS no improvement in best in 3 clusters for 5 generations
USER: GENES 21
USER: genes 0 Translation |==|  0.52024 0.50319 0.40121
USER: genes 1 Rotation |==|  0.37766 0.97121 0.58412 0.57691
USER: genes 2 Torsion [CB]-CA--N-[C] |==|  0.86599
USER: genes 3 Torsion [N]-C--CA-[N] |==|  0.95195
USER: genes 4 Torsion [C]-CA--CB-[CG] |==|  0.93147
USER: genes 5 Torsion [CA]-CB--CG-[CD] |==|  0.67941
USER: genes 6 Torsion [CB]-CG--CD-[OE2] |==|  0.61751
USER: genes 7 Torsion [C]-CA--N-[C] |==|  0.82452
USER: genes 8 Torsion [N]-C--CA-[N] |==|  0.47071
USER: genes 9 Torsion [C]-CA--CB-[CG2] |==|  0.89033
USER: genes 10 Torsion [CA]-CB--CG1-[CD1] |==|  0.31210
USER: genes 11 Torsion [N]-CA--CB-[OG] |==|  0.47418
USER: genes 12 Torsion [CA]-CB--OG-[HG] |==|  0.18132
USER: genes 13 Torsion [N]-CA--C-[N] |==|  0.91666
USER: genes 14 Torsion [C]-N--CA-[C] |==|  0.82584
USER: genes 15 Torsion [N]-CA--C-[N] |==|  0.38278
USER: genes 16 Torsion [C]-N--CA-[CB] |==|  0.23774
USER: genes 17 Torsion [N]-CA--C-[OXT] |==|  0.35869
USER: genes 18 Torsion [N]-CA--CB-[CG1] |==|  0.74220
USER: genes 19 Torsion [N]-CA--CB-[CG] |==|  0.52419
USER: genes 20 Torsion [CA]-CB--CG-[OD1] |==|  0.26798
ROOT
ATOM      1  CA  SER G  14      50.622 -16.223  10.470  1.00 44.70 LIG 0.20  C 
ENDROOT
BRANCH 1 2
ATOM      2  N   SER G  14      51.451 -16.516   9.297  1.00 46.20 LIG-0.34  N 
ATOM      3 H    SER G  14      51.022 -16.919   8.670  1.00 46.20 LIG 0.16  HD
ATOM      4  C   GLU G  13      52.763 -16.192   9.193  1.00 51.44 LIG 0.24  C 
ATOM      5 O    GLU G  13      53.397 -15.628  10.095  1.00 50.95 LIG-0.27  OA
BRANCH 4 6
ATOM      6  CA  GLU G  13      53.475 -16.543   7.867  1.00 50.06 LIG 0.18  C 
BRANCH 6 7
ATOM      7  CB  GLU G  13      53.694 -15.302   6.983  1.00 50.83 LIG 0.04  C 
BRANCH 7 8
ATOM      8  CG  GLU G  13      52.744 -14.140   7.205  1.00 52.88 LIG 0.12  C 
BRANCH 8 9
ATOM      9  CD  GLU G  13      51.859 -13.831   6.017  1.00 63.45 LIG 0.17  C 
ATOM     10 OE2  GLU G  13      51.670 -12.630   5.697  1.00 51.34 LIG-0.65  OA
ATOM     11 OE1  GLU G  13      51.327 -14.800   5.424  1.00 49.18 LIG-0.65  OA
ENDBRANCH 8 9
ENDBRANCH 7 8
ENDBRANCH 6 7
BRANCH 6 12
ATOM     12  N   GLU G  13      52.668 -17.528   7.148  1.00 52.96 LIG-0.35  N 
ATOM     13  C   ILE G  12      52.338 -18.782   7.504  1.00 61.55 LIG 0.26  C 
ATOM     14 O    ILE G  12      52.745 -19.339   8.527  1.00 62.55 LIG-0.27  OA
ATOM     15 H    GLU G  13      52.391 -17.207   6.400  1.00 52.96 LIG 0.16  HD
BRANCH 13 16
ATOM     16  CA  ILE G  12      51.411 -19.518   6.532  1.00 62.28 LIG 0.40  C 
ATOM     17  N   ILE G  12      51.271 -20.949   6.820  1.00 63.47 LIG 0.61  N 
BRANCH 16 18
ATOM     18  CB  ILE G  12      50.050 -18.769   6.339  1.00 65.80 LIG 0.03  C 
ATOM     19  CG2 ILE G  12      49.538 -18.182   7.664  1.00 67.40 LIG 0.01  C 
BRANCH 18 20
ATOM     20  CG1 ILE G  12      50.103 -17.716   5.189  1.00 66.47 LIG 0.00  C 
ATOM     21  CD1 ILE G  12      49.226 -18.052   3.928  1.00 71.32 LIG 0.01  C 
ENDBRANCH 18 20
ENDBRANCH 16 18
ENDBRANCH 13 16
ENDBRANCH 6 12
ENDBRANCH 4 6
ENDBRANCH 1 2
BRANCH 1 22
ATOM     22  CB  SER G  14      51.335 -16.655  11.751  1.00 46.99 LIG 0.20  C 
BRANCH 22 23
ATOM     23 OG   SER G  14      50.680 -16.210  12.925  1.00 54.54 LIG-0.40  OA
ATOM     24 HG   SER G  14      49.929 -16.582  12.985  1.00 54.54 LIG 0.21  HD
ENDBRANCH 22 23
ENDBRANCH 1 22
BRANCH 1 25
ATOM     25  C   SER G  14      50.247 -14.744  10.576  1.00 46.83 LIG 0.24  C 
ATOM     26 O    SER G  14      49.171 -14.404  11.044  1.00 45.69 LIG-0.27  OA
ATOM     27  N   ASP G  15      51.116 -13.879  10.075  1.00 44.02 LIG-0.34  N 
ATOM     28 H    ASP G  15      51.864 -14.124   9.728  1.00 44.02 LIG 0.16  HD
BRANCH 27 29
ATOM     29  CA  ASP G  15      50.922 -12.427  10.047  1.00 44.06 LIG 0.19  C 
BRANCH 29 30
ATOM     30  C   ASP G  15      49.710 -12.048   9.193  1.00 44.73 LIG 0.24  C 
ATOM     31 O    ASP G  15      49.507 -12.612   8.122  1.00 45.25 LIG-0.27  OA
ATOM     32  N   VAL G  16      48.908 -11.098   9.671  1.00 39.33 LIG-0.34  N 
ATOM     33 H    VAL G  16      49.042 -10.699  10.422  1.00 39.33 LIG 0.16  HD
BRANCH 32 34
ATOM     34  CA  VAL G  16      47.717 -10.640   8.963  1.00 42.56 LIG 0.19  C 
BRANCH 34 35
ATOM     35  C   VAL G  16      47.469  -9.121   9.150  1.00 36.49 LIG 0.20  C 
ATOM     36 OXT  VAL G  16      47.283  -8.424   8.155  1.00 48.65 LIG-0.65  OA
ATOM     37 O    VAL G  16      47.470  -8.638  10.299  1.00 44.52 LIG-0.65  OA
ENDBRANCH 34 35
BRANCH 34 38
ATOM     38  CB  VAL G  16      46.462 -11.525   9.262  1.00 46.62 LIG 0.01  C 
ATOM     39  CG1 VAL G  16      46.310 -12.641   8.223  1.00 46.76 LIG 0.01  C 
ATOM     40  CG2 VAL G  16      46.518 -12.116  10.664  1.00 45.99 LIG 0.01  C 
ENDBRANCH 34 38
ENDBRANCH 32 34
ENDBRANCH 29 30
BRANCH 29 41
ATOM     41  CB  ASP G  15      52.207 -11.712   9.564  1.00 46.49 LIG 0.15  C 
BRANCH 41 42
ATOM     42  CG  ASP G  15      52.183 -10.203   9.694  1.00 64.67 LIG 0.17  C 
ATOM     43 OD1  ASP G  15      52.714  -9.684  10.709  1.00 66.12 LIG-0.65  OA
ATOM     44 OD2  ASP G  15      51.604  -9.538   8.799  1.00 71.61 LIG-0.65  OA
ENDBRANCH 41 42
ENDBRANCH 29 41
ENDBRANCH 27 29
ENDBRANCH 1 25
TORSDOF 19
ENDMDL
MODEL 12
USER: ADFR SOLUTION from run 49
USER: SCORE 16.952692 LL:  -3.129 LR: -14.125 RR:   0.000 FEB:  -8.457
USER: RMSD 4.906417
USER: SEED 48
USER: STATUS 1 or 2 clusters left
USER: GENES 21
USER: genes 0 Translation |==|  0.53983 0.48589 0.36298
USER: genes 1 Rotation |==|  0.43935 0.76673 0.42703 0.91213
USER: genes 2 Torsion [CB]-CA--N-[C] |==|  0.83167
USER: genes 3 Torsion [N]-C--CA-[N] |==|  0.36632
USER: genes 4 Torsion [C]-CA--CB-[CG] |==|  0.85304
USER: genes 5 Torsion [CA]-CB--CG-[CD] |==|  0.78489
USER: genes 6 Torsion [CB]-CG--CD-[OE2] |==|  0.26717
USER: genes 7 Torsion [C]-CA--N-[C] |==|  0.85365
USER: genes 8 Torsion [N]-C--CA-[N] |==|  0.54769
USER: genes 9 Torsion [C]-CA--CB-[CG2] |==|  0.28254
USER: genes 10 Torsion [CA]-CB--CG1-[CD1] |==|  0.47298
USER: genes 11 Torsion [N]-CA--CB-[OG] |==|  0.22908
USER: genes 12 Torsion [CA]-CB--OG-[HG] |==|  0.81768
USER: genes 13 Torsion [N]-CA--C-[N] |==|  0.43886
USER: genes 14 Torsion [C]-N--CA-[C] |==|  0.64825
USER: genes 15 Torsion [N]-CA--C-[N] |==|  0.36585
USER: genes 16 Torsion [C]-N--CA-[CB] |==|  0.25626
USER: genes 17 Torsion [N]-CA--C-[OXT] |==|  0.17495
USER: genes 18 Torsion [N]-CA--CB-[CG1] |==|  0.50965
USER: genes 19 Torsion [N]-CA--CB-[CG] |==|  0.19708
USER: genes 20 Torsion [CA]-CB--CG-[OD1] |==|  0.82298
ROOT
ATOM      1  CA  SER G  14      50.945 -16.639   9.810  1.00 44.70 LIG 0.20  C 
ENDROOT
BRANCH 1 2
ATOM      2  N   SER G  14      51.801 -17.422  10.706  1.00 46.20 LIG-0.34  N 
ATOM      3 H    SER G  14      52.231 -18.048  10.303  1.00 46.20 LIG 0.16  HD
ATOM      4  C   GLU G  13      51.917 -17.195  12.037  1.00 51.44 LIG 0.24  C 
ATOM      5 O    GLU G  13      51.292 -16.307  12.632  1.00 50.95 LIG-0.27  OA
BRANCH 4 6
ATOM      6  CA  GLU G  13      52.897 -18.095  12.825  1.00 50.06 LIG 0.18  C 
BRANCH 6 7
ATOM      7  CB  GLU G  13      52.159 -19.123  13.702  1.00 50.83 LIG 0.04  C 
BRANCH 7 8
ATOM      8  CG  GLU G  13      51.106 -18.571  14.645  1.00 52.88 LIG 0.12  C 
BRANCH 8 9
ATOM      9  CD  GLU G  13      51.672 -17.923  15.890  1.00 63.45 LIG 0.17  C 
ATOM     10 OE2  GLU G  13      51.828 -16.675  15.908  1.00 51.34 LIG-0.65  OA
ATOM     11 OE1  GLU G  13      51.990 -18.676  16.842  1.00 49.18 LIG-0.65  OA
ENDBRANCH 8 9
ENDBRANCH 7 8
ENDBRANCH 6 7
BRANCH 6 12
ATOM     12  N   GLU G  13      53.743 -17.245  13.662  1.00 52.96 LIG-0.35  N 
ATOM     13  C   ILE G  12      54.487 -16.180  13.316  1.00 61.55 LIG 0.26  C 
ATOM     14 O    ILE G  12      54.618 -15.775  12.158  1.00 62.55 LIG-0.27  OA
ATOM     15 H    GLU G  13      53.726 -17.509  14.480  1.00 52.96 LIG 0.16  HD
BRANCH 13 16
ATOM     16  CA  ILE G  12      55.203 -15.476  14.473  1.00 62.28 LIG 0.40  C 
ATOM     17  N   ILE G  12      55.666 -14.123  14.144  1.00 63.47 LIG 0.61  N 
BRANCH 16 18
ATOM     18  CB  ILE G  12      54.392 -15.567  15.808  1.00 65.80 LIG 0.03  C 
ATOM     19  CG2 ILE G  12      54.966 -16.644  16.743  1.00 67.40 LIG 0.01  C 
BRANCH 18 20
ATOM     20  CG1 ILE G  12      54.228 -14.182  16.506  1.00 66.47 LIG 0.00  C 
ATOM     21  CD1 ILE G  12      53.228 -14.153  17.719  1.00 71.32 LIG 0.01  C 
ENDBRANCH 18 20
ENDBRANCH 16 18
ENDBRANCH 13 16
ENDBRANCH 6 12
ENDBRANCH 4 6
ENDBRANCH 1 2
BRANCH 1 22
ATOM     22  CB  SER G  14      49.483 -16.742  10.242  1.00 46.99 LIG 0.20  C 
BRANCH 22 23
ATOM     23 OG   SER G  14      49.151 -15.846  11.288  1.00 54.54 LIG-0.40  OA
ATOM     24 HG   SER G  14      49.571 -16.059  11.984  1.00 54.54 LIG 0.21  HD
ENDBRANCH 22 23
ENDBRANCH 1 22
BRANCH 1 25
ATOM     25  C   SER G  14      51.349 -15.165   9.745  1.00 46.83 LIG 0.24  C 
ATOM     26 O    SER G  14      51.946 -14.638  10.673  1.00 45.69 LIG-0.27  OA
ATOM     27  N   ASP G  15      50.959 -14.494   8.671  1.00 44.02 LIG-0.34  N 
ATOM     28 H    ASP G  15      50.522 -14.864   8.030  1.00 44.02 LIG 0.16  HD
BRANCH 27 29
ATOM     29  CA  ASP G  15      51.214 -13.070   8.442  1.00 44.06 LIG 0.19  C 
BRANCH 29 30
ATOM     30  C   ASP G  15      49.917 -12.319   8.130  1.00 44.73 LIG 0.24  C 
ATOM     31 O    ASP G  15      49.131 -12.762   7.297  1.00 45.25 LIG-0.27  OA
ATOM     32  N   VAL G  16      49.697 -11.190   8.801  1.00 39.33 LIG-0.34  N 
ATOM     33 H    VAL G  16      50.242 -10.873   9.386  1.00 39.33 LIG 0.16  HD
BRANCH 32 34
ATOM     34  CA  VAL G  16      48.502 -10.376   8.604  1.00 42.56 LIG 0.19  C 
BRANCH 34 35
ATOM     35  C   VAL G  16      48.823  -8.859   8.562  1.00 36.49 LIG 0.20  C 
ATOM     36 OXT  VAL G  16      49.542  -8.430   7.663  1.00 48.65 LIG-0.65  OA
ATOM     37 O    VAL G  16      48.354  -8.111   9.442  1.00 44.52 LIG-0.65  OA
ENDBRANCH 34 35
BRANCH 34 38
ATOM     38  CB  VAL G  16      47.350 -10.749   9.594  1.00 46.62 LIG 0.01  C 
ATOM     39  CG1 VAL G  16      46.084  -9.936   9.304  1.00 46.76 LIG 0.01  C 
ATOM     40  CG2 VAL G  16      47.038 -12.238   9.551  1.00 45.99 LIG 0.01  C 
ENDBRANCH 34 38
ENDBRANCH 32 34
ENDBRANCH 29 30
BRANCH 29 41
ATOM     41  CB  ASP G  15      52.269 -12.874   7.327  1.00 46.49 LIG 0.15  C 
BRANCH 41 42
ATOM     42  CG  ASP G  15      51.791 -13.213   5.930  1.00 64.67 LIG 0.17  C 
ATOM     43 OD1  ASP G  15      51.467 -14.402   5.684  1.00 66.12 LIG-0.65  OA
ATOM     44 OD2  ASP G  15      51.773 -12.297   5.070  1.00 71.61 LIG-0.65  OA
ENDBRANCH 41 42
ENDBRANCH 29 41
ENDBRANCH 27 29
ENDBRANCH 1 25
TORSDOF 19
ENDMDL
MODEL 13
USER: ADFR SOLUTION from run 104
USER: SCORE 14.255479 LL:  -2.271 LR: -14.062 RR:   0.000 FEB:  -8.395
USER: RMSD 5.059046
USER: SEED 103
USER: STATUS no improvement in best in 4 clusters for 5 generations
USER: GENES 21
USER: genes 0 Translation |==|  0.49237 0.49691 0.40886
USER: genes 1 Rotation |==|  0.56608 0.00998 0.54794 0.55668
USER: genes 2 Torsion [CB]-CA--N-[C] |==|  0.80787
USER: genes 3 Torsion [N]-C--CA-[N] |==|  0.88984
USER: genes 4 Torsion [C]-CA--CB-[CG] |==|  0.09566
USER: genes 5 Torsion [CA]-CB--CG-[CD] |==|  0.34053
USER: genes 6 Torsion [CB]-CG--CD-[OE2] |==|  0.89214
USER: genes 7 Torsion [C]-CA--N-[C] |==|  0.71736
USER: genes 8 Torsion [N]-C--CA-[N] |==|  0.36903
USER: genes 9 Torsion [C]-CA--CB-[CG2] |==|  0.77465
USER: genes 10 Torsion [CA]-CB--CG1-[CD1] |==|  0.44255
USER: genes 11 Torsion [N]-CA--CB-[OG] |==|  0.64868
USER: genes 12 Torsion [CA]-CB--OG-[HG] |==|  0.06612
USER: genes 13 Torsion [N]-CA--C-[N] |==|  0.77781
USER: genes 14 Torsion [C]-N--CA-[C] |==|  0.17907
USER: genes 15 Torsion [N]-CA--C-[N] |==|  0.50776
USER: genes 16 Torsion [C]-N--CA-[CB] |==|  0.25485
USER: genes 17 Torsion [N]-CA--C-[OXT] |==|  0.36383
USER: genes 18 Torsion [N]-CA--CB-[CG1] |==|  0.72835
USER: genes 19 Torsion [N]-CA--CB-[CG] |==|  0.69853
USER: genes 20 Torsion [CA]-CB--CG-[OD1] |==|  0.73904
ROOT
ATOM      1  CA  SER G  14      50.162 -16.374  10.602  1.00 44.70 LIG 0.20  C 
ENDROOT
BRANCH 1 2
ATOM      2  N   SER G  14      50.337 -17.483   9.660  1.00 46.20 LIG-0.34  N 
ATOM      3 H    SER G  14      49.782 -18.127   9.788  1.00 46.20 LIG 0.16  HD
ATOM      4  C   GLU G  13      51.272 -17.508   8.679  1.00 51.44 LIG 0.24  C 
ATOM      5 O    GLU G  13      52.087 -16.594   8.495  1.00 50.95 LIG-0.27  OA
BRANCH 4 6
ATOM      6  CA  GLU G  13      51.290 -18.743   7.749  1.00 50.06 LIG 0.18  C 
BRANCH 6 7
ATOM      7  CB  GLU G  13      50.240 -18.637   6.628  1.00 50.83 LIG 0.04  C 
BRANCH 7 8
ATOM      8  CG  GLU G  13      49.974 -17.246   6.083  1.00 52.88 LIG 0.12  C 
BRANCH 8 9
ATOM      9  CD  GLU G  13      50.200 -17.114   4.592  1.00 63.45 LIG 0.17  C 
ATOM     10 OE2  GLU G  13      51.171 -17.718   4.069  1.00 51.34 LIG-0.65  OA
ATOM     11 OE1  GLU G  13      49.415 -16.375   3.951  1.00 49.18 LIG-0.65  OA
ENDBRANCH 8 9
ENDBRANCH 7 8
ENDBRANCH 6 7
BRANCH 6 12
ATOM     12  N   GLU G  13      51.038 -19.938   8.554  1.00 52.96 LIG-0.35  N 
ATOM     13  C   ILE G  12      51.907 -20.858   9.006  1.00 61.55 LIG 0.26  C 
ATOM     14 O    ILE G  12      53.113 -20.859   8.742  1.00 62.55 LIG-0.27  OA
ATOM     15 H    GLU G  13      50.201 -20.013   8.733  1.00 52.96 LIG 0.16  HD
BRANCH 13 16
ATOM     16  CA  ILE G  12      51.302 -21.955   9.887  1.00 62.28 LIG 0.40  C 
ATOM     17  N   ILE G  12      51.728 -23.310   9.518  1.00 63.47 LIG 0.61  N 
BRANCH 16 18
ATOM     18  CB  ILE G  12      51.450 -21.633  11.412  1.00 65.80 LIG 0.03  C 
ATOM     19  CG2 ILE G  12      52.850 -21.998  11.930  1.00 67.40 LIG 0.01  C 
BRANCH 18 20
ATOM     20  CG1 ILE G  12      51.038 -20.168  11.758  1.00 66.47 LIG 0.00  C 
ATOM     21  CD1 ILE G  12      50.671 -19.911  13.265  1.00 71.32 LIG 0.01  C 
ENDBRANCH 18 20
ENDBRANCH 16 18
ENDBRANCH 13 16
ENDBRANCH 6 12
ENDBRANCH 4 6
ENDBRANCH 1 2
BRANCH 1 22
ATOM     22  CB  SER G  14      51.348 -16.297  11.563  1.00 46.99 LIG 0.20  C 
BRANCH 22 23
ATOM     23 OG   SER G  14      50.956 -16.300  12.925  1.00 54.54 LIG-0.40  OA
ATOM     24 HG   SER G  14      50.201 -16.660  12.999  1.00 54.54 LIG 0.21  HD
ENDBRANCH 22 23
ENDBRANCH 1 22
BRANCH 1 25
ATOM     25  C   SER G  14      49.991 -15.024   9.903  1.00 46.83 LIG 0.24  C 
ATOM     26 O    SER G  14      48.878 -14.560   9.703  1.00 45.69 LIG-0.27  OA
ATOM     27  N   ASP G  15      51.099 -14.437   9.476  1.00 44.02 LIG-0.34  N 
ATOM     28 H    ASP G  15      51.879 -14.777   9.601  1.00 44.02 LIG 0.16  HD
BRANCH 27 29
ATOM     29  CA  ASP G  15      51.140 -13.164   8.752  1.00 44.06 LIG 0.19  C 
BRANCH 29 30
ATOM     30  C   ASP G  15      50.638 -12.014   9.628  1.00 44.73 LIG 0.24  C 
ATOM     31 O    ASP G  15      50.320 -12.219  10.797  1.00 45.25 LIG-0.27  OA
ATOM     32  N   VAL G  16      50.572 -10.809   9.064  1.00 39.33 LIG-0.34  N 
ATOM     33 H    VAL G  16      50.794 -10.657   8.246  1.00 39.33 LIG 0.16  HD
BRANCH 32 34
ATOM     34  CA  VAL G  16      50.114  -9.625   9.783  1.00 42.56 LIG 0.19  C 
BRANCH 34 35
ATOM     35  C   VAL G  16      49.186  -8.733   8.917  1.00 36.49 LIG 0.20  C 
ATOM     36 OXT  VAL G  16      48.119  -8.352   9.391  1.00 48.65 LIG-0.65  OA
ATOM     37 O    VAL G  16      49.538  -8.428   7.760  1.00 44.52 LIG-0.65  OA
ENDBRANCH 34 35
BRANCH 34 38
ATOM     38  CB  VAL G  16      51.286  -8.842  10.461  1.00 46.62 LIG 0.01  C 
ATOM     39  CG1 VAL G  16      51.413  -9.210  11.944  1.00 46.76 LIG 0.01  C 
ATOM     40  CG2 VAL G  16      52.607  -9.085   9.746  1.00 45.99 LIG 0.01  C 
ENDBRANCH 34 38
ENDBRANCH 32 34
ENDBRANCH 29 30
BRANCH 29 41
ATOM     41  CB  ASP G  15      50.346 -13.261   7.427  1.00 46.49 LIG 0.15  C 
BRANCH 41 42
ATOM     42  CG  ASP G  15      51.198 -13.270   6.174  1.00 64.67 LIG 0.17  C 
ATOM     43 OD1  ASP G  15      51.413 -12.177   5.592  1.00 66.12 LIG-0.65  OA
ATOM     44 OD2  ASP G  15      51.622 -14.376   5.753  1.00 71.61 LIG-0.65  OA
ENDBRANCH 41 42
ENDBRANCH 29 41
ENDBRANCH 27 29
ENDBRANCH 1 25
TORSDOF 19
ENDMDL
MODEL 14
USER: ADFR SOLUTION from run 100
USER: SCORE 15.043185 LL:  -2.281 LR: -14.040 RR:   0.000 FEB:  -8.373
USER: RMSD 5.089678
USER: SEED 99
USER: STATUS no improvement in best in 4 clusters for 5 generations
USER: GENES 21
USER: genes 0 Translation |==|  0.52804 0.48084 0.36783
USER: genes 1 Rotation |==|  0.44243 0.72439 0.39605 0.93073
USER: genes 2 Torsion [CB]-CA--N-[C] |==|  0.81609
USER: genes 3 Torsion [N]-C--CA-[N] |==|  0.44259
USER: genes 4 Torsion [C]-CA--CB-[CG] |==|  0.14161
USER: genes 5 Torsion [CA]-CB--CG-[CD] |==|  0.40650
USER: genes 6 Torsion [CB]-CG--CD-[OE2] |==|  0.51027
USER: genes 7 Torsion [C]-CA--N-[C] |==|  0.49444
USER: genes 8 Torsion [N]-C--CA-[N] |==|  0.56445
USER: genes 9 Torsion [C]-CA--CB-[CG2] |==|  0.43511
USER: genes 10 Torsion [CA]-CB--CG1-[CD1] |==|  0.63267
USER: genes 11 Torsion [N]-CA--CB-[OG] |==|  0.20528
USER: genes 12 Torsion [CA]-CB--OG-[HG] |==|  0.83086
USER: genes 13 Torsion [N]-CA--C-[N] |==|  0.49790
USER: genes 14 Torsion [C]-N--CA-[C] |==|  0.61724
USER: genes 15 Torsion [N]-CA--C-[N] |==|  0.36141
USER: genes 16 Torsion [C]-N--CA-[CB] |==|  0.25281
USER: genes 17 Torsion [N]-CA--C-[OXT] |==|  0.15166
USER: genes 18 Torsion [N]-CA--CB-[CG1] |==|  0.52767
USER: genes 19 Torsion [N]-CA--CB-[CG] |==|  0.20821
USER: genes 20 Torsion [CA]-CB--CG-[OD1] |==|  0.26878
ROOT
ATOM      1  CA  SER G  14      50.751 -16.760   9.894  1.00 44.70 LIG 0.20  C 
ENDROOT
BRANCH 1 2
ATOM      2  N   SER G  14      51.350 -17.528  10.989  1.00 46.20 LIG-0.34  N 
ATOM      3 H    SER G  14      51.729 -18.253  10.727  1.00 46.20 LIG 0.16  HD
ATOM      4  C   GLU G  13      51.319 -17.147  12.290  1.00 51.44 LIG 0.24  C 
ATOM      5 O    GLU G  13      50.762 -16.114  12.683  1.00 50.95 LIG-0.27  OA
BRANCH 4 6
ATOM      6  CA  GLU G  13      52.036 -18.061  13.311  1.00 50.06 LIG 0.18  C 
BRANCH 6 7
ATOM      7  CB  GLU G  13      51.190 -19.294  13.677  1.00 50.83 LIG 0.04  C 
BRANCH 7 8
ATOM      8  CG  GLU G  13      50.643 -20.104  12.517  1.00 52.88 LIG 0.12  C 
BRANCH 8 9
ATOM      9  CD  GLU G  13      50.553 -21.590  12.791  1.00 63.45 LIG 0.17  C 
ATOM     10 OE2  GLU G  13      50.178 -22.357  11.868  1.00 51.34 LIG-0.65  OA
ATOM     11 OE1  GLU G  13      50.830 -21.983  13.950  1.00 49.18 LIG-0.65  OA
ENDBRANCH 8 9
ENDBRANCH 7 8
ENDBRANCH 6 7
BRANCH 6 12
ATOM     12  N   GLU G  13      52.325 -17.282  14.514  1.00 52.96 LIG-0.35  N 
ATOM     13  C   ILE G  12      52.901 -17.673  15.664  1.00 61.55 LIG 0.26  C 
ATOM     14 O    ILE G  12      53.237 -18.836  15.908  1.00 62.55 LIG-0.27  OA
ATOM     15 H    GLU G  13      52.070 -16.467  14.418  1.00 52.96 LIG 0.16  HD
BRANCH 13 16
ATOM     16  CA  ILE G  12      53.112 -16.567  16.702  1.00 62.28 LIG 0.40  C 
ATOM     17  N   ILE G  12      54.176 -16.862  17.669  1.00 63.47 LIG 0.61  N 
BRANCH 16 18
ATOM     18  CB  ILE G  12      53.226 -15.154  16.039  1.00 65.80 LIG 0.03  C 
ATOM     19  CG2 ILE G  12      52.862 -14.036  17.030  1.00 67.40 LIG 0.01  C 
BRANCH 18 20
ATOM     20  CG1 ILE G  12      54.605 -14.926  15.346  1.00 66.47 LIG 0.00  C 
ATOM     21  CD1 ILE G  12      55.309 -13.560  15.683  1.00 71.32 LIG 0.01  C 
ENDBRANCH 18 20
ENDBRANCH 16 18
ENDBRANCH 13 16
ENDBRANCH 6 12
ENDBRANCH 4 6
ENDBRANCH 1 2
BRANCH 1 22
ATOM     22  CB  SER G  14      49.229 -16.726  10.034  1.00 46.99 LIG 0.20  C 
BRANCH 22 23
ATOM     23 OG   SER G  14      48.788 -15.868  11.072  1.00 54.54 LIG-0.40  OA
ATOM     24 HG   SER G  14      49.096 -16.135  11.806  1.00 54.54 LIG 0.21  HD
ENDBRANCH 22 23
ENDBRANCH 1 22
BRANCH 1 25
ATOM     25  C   SER G  14      51.281 -15.327   9.816  1.00 46.83 LIG 0.24  C 
ATOM     26 O    SER G  14      52.062 -14.903  10.656  1.00 45.69 LIG-0.27  OA
ATOM     27  N   ASP G  15      50.799 -14.573   8.841  1.00 44.02 LIG-0.34  N 
ATOM     28 H    ASP G  15      50.235 -14.869   8.263  1.00 44.02 LIG 0.16  HD
BRANCH 27 29
ATOM     29  CA  ASP G  15      51.154 -13.168   8.623  1.00 44.06 LIG 0.19  C 
BRANCH 29 30
ATOM     30  C   ASP G  15      49.920 -12.334   8.271  1.00 44.73 LIG 0.24  C 
ATOM     31 O    ASP G  15      49.149 -12.710   7.392  1.00 45.25 LIG-0.27  OA
ATOM     32  N   VAL G  16      49.735 -11.209   8.959  1.00 39.33 LIG-0.34  N 
ATOM     33 H    VAL G  16      50.269 -10.939   9.577  1.00 39.33 LIG 0.16  HD
BRANCH 32 34
ATOM     34  CA  VAL G  16      48.600 -10.320   8.729  1.00 42.56 LIG 0.19  C 
BRANCH 34 35
ATOM     35  C   VAL G  16      49.007  -8.824   8.772  1.00 36.49 LIG 0.20  C 
ATOM     36 OXT  VAL G  16      49.913  -8.435   8.039  1.00 48.65 LIG-0.65  OA
ATOM     37 O    VAL G  16      48.413  -8.052   9.549  1.00 44.52 LIG-0.65  OA
ENDBRANCH 34 35
BRANCH 34 38
ATOM     38  CB  VAL G  16      47.372 -10.666   9.634  1.00 46.62 LIG 0.01  C 
ATOM     39  CG1 VAL G  16      46.127  -9.884   9.201  1.00 46.76 LIG 0.01  C 
ATOM     40  CG2 VAL G  16      47.081 -12.160   9.632  1.00 45.99 LIG 0.01  C 
ENDBRANCH 34 38
ENDBRANCH 32 34
ENDBRANCH 29 30
BRANCH 29 41
ATOM     41  CB  ASP G  15      52.255 -13.042   7.542  1.00 46.49 LIG 0.15  C 
BRANCH 41 42
ATOM     42  CG  ASP G  15      51.780 -13.255   6.120  1.00 64.67 LIG 0.17  C 
ATOM     43 OD1  ASP G  15      51.503 -12.244   5.427  1.00 66.12 LIG-0.65  OA
ATOM     44 OD2  ASP G  15      51.651 -14.435   5.707  1.00 71.61 LIG-0.65  OA
ENDBRANCH 41 42
ENDBRANCH 29 41
ENDBRANCH 27 29
ENDBRANCH 1 25
TORSDOF 19
ENDMDL
MODEL 15
USER: ADFR SOLUTION from run 79
USER: SCORE 15.234450 LL:  -2.289 LR: -13.995 RR:   0.000 FEB:  -8.327
USER: RMSD 3.227954
USER: SEED 78
USER: STATUS no improvement in best in 5 clusters for 5 generations
USER: GENES 21
USER: genes 0 Translation |==|  0.52953 0.49725 0.35523
USER: genes 1 Rotation |==|  0.42808 0.68091 0.43483 0.95591
USER: genes 2 Torsion [CB]-CA--N-[C] |==|  0.80801
USER: genes 3 Torsion [N]-C--CA-[N] |==|  0.78364
USER: genes 4 Torsion [C]-CA--CB-[CG] |==|  0.21700
USER: genes 5 Torsion [CA]-CB--CG-[CD] |==|  0.73993
USER: genes 6 Torsion [CB]-CG--CD-[OE2] |==|  0.43400
USER: genes 7 Torsion [C]-CA--N-[C] |==|  0.21159
USER: genes 8 Torsion [N]-C--CA-[N] |==|  0.40658
USER: genes 9 Torsion [C]-CA--CB-[CG2] |==|  0.16892
USER: genes 10 Torsion [CA]-CB--CG1-[CD1] |==|  0.72868
USER: genes 11 Torsion [N]-CA--CB-[OG] |==|  0.00212
USER: genes 12 Torsion [CA]-CB--OG-[HG] |==|  0.16688
USER: genes 13 Torsion [N]-CA--C-[N] |==|  0.40841
USER: genes 14 Torsion [C]-N--CA-[C] |==|  0.74115
USER: genes 15 Torsion [N]-CA--C-[N] |==|  0.34078
USER: genes 16 Torsion [C]-N--CA-[CB] |==|  0.28457
USER: genes 17 Torsion [N]-CA--C-[OXT] |==|  0.15765
USER: genes 18 Torsion [N]-CA--CB-[CG1] |==|  0.52228
USER: genes 19 Torsion [N]-CA--CB-[CG] |==|  0.18788
USER: genes 20 Torsion [CA]-CB--CG-[OD1] |==|  0.31241
ROOT
ATOM      1  CA  SER G  14      50.775 -16.366   9.677  1.00 44.70 LIG 0.20  C 
ENDROOT
BRANCH 1 2
ATOM      2  N   SER G  14      51.327 -17.013  10.871  1.00 46.20 LIG-0.34  N 
ATOM      3 H    SER G  14      51.850 -17.671  10.690  1.00 46.20 LIG 0.16  HD
ATOM      4  C   GLU G  13      51.052 -16.626  12.141  1.00 51.44 LIG 0.24  C 
ATOM      5 O    GLU G  13      50.288 -15.691  12.415  1.00 50.95 LIG-0.27  OA
BRANCH 4 6
ATOM      6  CA  GLU G  13      51.752 -17.397  13.282  1.00 50.06 LIG 0.18  C 
BRANCH 6 7
ATOM      7  CB  GLU G  13      53.241 -17.647  12.983  1.00 50.83 LIG 0.04  C 
BRANCH 7 8
ATOM      8  CG  GLU G  13      54.177 -16.472  13.194  1.00 52.88 LIG 0.12  C 
BRANCH 8 9
ATOM      9  CD  GLU G  13      54.428 -15.650  11.948  1.00 63.45 LIG 0.17  C 
ATOM     10 OE2  GLU G  13      54.788 -14.452  12.072  1.00 51.34 LIG-0.65  OA
ATOM     11 OE1  GLU G  13      54.231 -16.205  10.840  1.00 49.18 LIG-0.65  OA
ENDBRANCH 8 9
ENDBRANCH 7 8
ENDBRANCH 6 7
BRANCH 6 12
ATOM     12  N   GLU G  13      51.064 -18.673  13.475  1.00 52.96 LIG-0.35  N 
ATOM     13  C   ILE G  12      51.123 -19.793  12.733  1.00 61.55 LIG 0.26  C 
ATOM     14 O    ILE G  12      51.760 -19.892  11.681  1.00 62.55 LIG-0.27  OA
ATOM     15 H    GLU G  13      50.566 -18.648  14.176  1.00 52.96 LIG 0.16  HD
BRANCH 13 16
ATOM     16  CA  ILE G  12      50.316 -20.979  13.269  1.00 62.28 LIG 0.40  C 
ATOM     17  N   ILE G  12      49.746 -21.829  12.217  1.00 63.47 LIG 0.61  N 
BRANCH 16 18
ATOM     18  CB  ILE G  12      51.095 -21.767  14.375  1.00 65.80 LIG 0.03  C 
ATOM     19  CG2 ILE G  12      51.413 -20.873  15.584  1.00 67.40 LIG 0.01  C 
BRANCH 18 20
ATOM     20  CG1 ILE G  12      50.387 -23.099  14.774  1.00 66.47 LIG 0.00  C 
ATOM     21  CD1 ILE G  12      49.497 -23.026  16.068  1.00 71.32 LIG 0.01  C 
ENDBRANCH 18 20
ENDBRANCH 16 18
ENDBRANCH 13 16
ENDBRANCH 6 12
ENDBRANCH 4 6
ENDBRANCH 1 2
BRANCH 1 22
ATOM     22  CB  SER G  14      49.275 -16.638   9.565  1.00 46.99 LIG 0.20  C 
BRANCH 22 23
ATOM     23 OG   SER G  14      48.775 -17.423  10.634  1.00 54.54 LIG-0.40  OA
ATOM     24 HG   SER G  14      48.908 -17.024  11.361  1.00 54.54 LIG 0.21  HD
ENDBRANCH 22 23
ENDBRANCH 1 22
BRANCH 1 25
ATOM     25  C   SER G  14      51.017 -14.856   9.656  1.00 46.83 LIG 0.24  C 
ATOM     26 O    SER G  14      50.980 -14.203  10.689  1.00 45.69 LIG-0.27  OA
ATOM     27  N   ASP G  15      51.197 -14.304   8.466  1.00 44.02 LIG-0.34  N 
ATOM     28 H    ASP G  15      51.203 -14.765   7.740  1.00 44.02 LIG 0.16  HD
BRANCH 27 29
ATOM     29  CA  ASP G  15      51.405 -12.872   8.236  1.00 44.06 LIG 0.19  C 
BRANCH 29 30
ATOM     30  C   ASP G  15      50.081 -12.161   7.943  1.00 44.73 LIG 0.24  C 
ATOM     31 O    ASP G  15      49.375 -12.530   7.009  1.00 45.25 LIG-0.27  OA
ATOM     32  N   VAL G  16      49.749 -11.150   8.743  1.00 39.33 LIG-0.34  N 
ATOM     33 H    VAL G  16      50.238 -10.886   9.400  1.00 39.33 LIG 0.16  HD
BRANCH 32 34
ATOM     34  CA  VAL G  16      48.517 -10.386   8.579  1.00 42.56 LIG 0.19  C 
BRANCH 34 35
ATOM     35  C   VAL G  16      48.775  -8.859   8.510  1.00 36.49 LIG 0.20  C 
ATOM     36 OXT  VAL G  16      49.538  -8.425   7.650  1.00 48.65 LIG-0.65  OA
ATOM     37 O    VAL G  16      48.212  -8.106   9.329  1.00 44.52 LIG-0.65  OA
ENDBRANCH 34 35
BRANCH 34 38
ATOM     38  CB  VAL G  16      47.416 -10.793   9.613  1.00 46.62 LIG 0.01  C 
ATOM     39  CG1 VAL G  16      46.077 -10.120   9.292  1.00 46.76 LIG 0.01  C 
ATOM     40  CG2 VAL G  16      47.241 -12.304   9.678  1.00 45.99 LIG 0.01  C 
ENDBRANCH 34 38
ENDBRANCH 32 34
ENDBRANCH 29 30
BRANCH 29 41
ATOM     41  CB  ASP G  15      52.438 -12.642   7.107  1.00 46.49 LIG 0.15  C 
BRANCH 41 42
ATOM     42  CG  ASP G  15      51.980 -13.067   5.727  1.00 64.67 LIG 0.17  C 
ATOM     43 OD1  ASP G  15      51.787 -12.175   4.863  1.00 66.12 LIG-0.65  OA
ATOM     44 OD2  ASP G  15      51.779 -14.290   5.518  1.00 71.61 LIG-0.65  OA
ENDBRANCH 41 42
ENDBRANCH 29 41
ENDBRANCH 27 29
ENDBRANCH 1 25
TORSDOF 19
ENDMDL
MODEL 16
USER: ADFR SOLUTION from run 168
USER: SCORE 14.263525 LL:  -3.151 LR: -13.948 RR:   0.000 FEB:  -8.280
USER: RMSD 9.398831
USER: SEED 167
USER: STATUS no improvement in best in 3 clusters for 5 generations
USER: GENES 21
USER: genes 0 Translation |==|  0.32564 0.62014 0.29486
USER: genes 1 Rotation |==|  0.25570 0.40173 0.08763 0.60301
USER: genes 2 Torsion [CB]-CA--N-[C] |==|  0.22778
USER: genes 3 Torsion [N]-C--CA-[N] |==|  0.90761
USER: genes 4 Torsion [C]-CA--CB-[CG] |==|  0.91510
USER: genes 5 Torsion [CA]-CB--CG-[CD] |==|  0.77028
USER: genes 6 Torsion [CB]-CG--CD-[OE2] |==|  0.65392
USER: genes 7 Torsion [C]-CA--N-[C] |==|  0.44324
USER: genes 8 Torsion [N]-C--CA-[N] |==|  0.84658
USER: genes 9 Torsion [C]-CA--CB-[CG2] |==|  0.33412
USER: genes 10 Torsion [CA]-CB--CG1-[CD1] |==|  0.66942
USER: genes 11 Torsion [N]-CA--CB-[OG] |==|  0.79218
USER: genes 12 Torsion [CA]-CB--OG-[HG] |==|  0.55922
USER: genes 13 Torsion [N]-CA--C-[N] |==|  0.87092
USER: genes 14 Torsion [C]-N--CA-[C] |==|  0.87284
USER: genes 15 Torsion [N]-CA--C-[N] |==|  0.28695
USER: genes 16 Torsion [C]-N--CA-[CB] |==|  0.77790
USER: genes 17 Torsion [N]-CA--C-[OXT] |==|  0.55561
USER: genes 18 Torsion [N]-CA--CB-[CG1] |==|  0.87674
USER: genes 19 Torsion [N]-CA--CB-[CG] |==|  0.82450
USER: genes 20 Torsion [CA]-CB--CG-[OD1] |==|  0.82634
ROOT
ATOM      1  CA  SER G  14      47.411 -13.417   8.635  1.00 44.70 LIG 0.20  C 
ENDROOT
BRANCH 1 2
ATOM      2  N   SER G  14      47.768 -12.019   8.893  1.00 46.20 LIG-0.34  N 
ATOM      3 H    SER G  14      48.590 -11.840   8.716  1.00 46.20 LIG 0.16  HD
ATOM      4  C   GLU G  13      46.902 -11.087   9.363  1.00 51.44 LIG 0.24  C 
ATOM      5 O    GLU G  13      45.721 -11.335   9.637  1.00 50.95 LIG-0.27  OA
BRANCH 4 6
ATOM      6  CA  GLU G  13      47.439  -9.649   9.541  1.00 50.06 LIG 0.18  C 
BRANCH 6 7
ATOM      7  CB  GLU G  13      47.288  -8.813   8.256  1.00 50.83 LIG 0.04  C 
BRANCH 7 8
ATOM      8  CG  GLU G  13      47.362  -9.572   6.945  1.00 52.88 LIG 0.12  C 
BRANCH 8 9
ATOM      9  CD  GLU G  13      48.773  -9.839   6.466  1.00 63.45 LIG 0.17  C 
ATOM     10 OE2  GLU G  13      49.106  -9.456   5.316  1.00 51.34 LIG-0.65  OA
ATOM     11 OE1  GLU G  13      49.538 -10.465   7.238  1.00 49.18 LIG-0.65  OA
ENDBRANCH 8 9
ENDBRANCH 7 8
ENDBRANCH 6 7
BRANCH 6 12
ATOM     12  N   GLU G  13      48.848  -9.719   9.924  1.00 52.96 LIG-0.35  N 
ATOM     13  C   ILE G  12      49.805  -8.779   9.829  1.00 61.55 LIG 0.26  C 
ATOM     14 O    ILE G  12      49.634  -7.669   9.317  1.00 62.55 LIG-0.27  OA
ATOM     15 H    GLU G  13      49.037 -10.492  10.249  1.00 52.96 LIG 0.16  HD
BRANCH 13 16
ATOM     16  CA  ILE G  12      51.172  -9.174  10.395  1.00 62.28 LIG 0.40  C 
ATOM     17  N   ILE G  12      51.127  -9.615  11.793  1.00 63.47 LIG 0.61  N 
BRANCH 16 18
ATOM     18  CB  ILE G  12      51.942 -10.149   9.442  1.00 65.80 LIG 0.03  C 
ATOM     19  CG2 ILE G  12      53.285  -9.552   8.992  1.00 67.40 LIG 0.01  C 
BRANCH 18 20
ATOM     20  CG1 ILE G  12      52.084 -11.583  10.039  1.00 66.47 LIG 0.00  C 
ATOM     21  CD1 ILE G  12      53.561 -12.074  10.265  1.00 71.32 LIG 0.01  C 
ENDBRANCH 18 20
ENDBRANCH 16 18
ENDBRANCH 13 16
ENDBRANCH 6 12
ENDBRANCH 4 6
ENDBRANCH 1 2
BRANCH 1 22
ATOM     22  CB  SER G  14      46.736 -13.554   7.271  1.00 46.99 LIG 0.20  C 
BRANCH 22 23
ATOM     23 OG   SER G  14      45.401 -13.079   7.265  1.00 54.54 LIG-0.40  OA
ATOM     24 HG   SER G  14      44.984 -13.424   6.623  1.00 54.54 LIG 0.21  HD
ENDBRANCH 22 23
ENDBRANCH 1 22
BRANCH 1 25
ATOM     25  C   SER G  14      48.616 -14.356   8.698  1.00 46.83 LIG 0.24  C 
ATOM     26 O    SER G  14      48.577 -15.380   9.366  1.00 45.69 LIG-0.27  OA
ATOM     27  N   ASP G  15      49.704 -13.964   8.052  1.00 44.02 LIG-0.34  N 
ATOM     28 H    ASP G  15      49.733 -13.234   7.599  1.00 44.02 LIG 0.16  HD
BRANCH 27 29
ATOM     29  CA  ASP G  15      50.968 -14.705   8.025  1.00 44.06 LIG 0.19  C 
BRANCH 29 30
ATOM     30  C   ASP G  15      51.358 -15.185   9.425  1.00 44.73 LIG 0.24  C 
ATOM     31 O    ASP G  15      51.828 -14.397  10.240  1.00 45.25 LIG-0.27  OA
ATOM     32  N   VAL G  16      51.157 -16.473   9.698  1.00 39.33 LIG-0.34  N 
ATOM     33 H    VAL G  16      50.827 -17.031   9.132  1.00 39.33 LIG 0.16  HD
BRANCH 32 34
ATOM     34  CA  VAL G  16      51.482 -17.065  10.992  1.00 42.56 LIG 0.19  C 
BRANCH 34 35
ATOM     35  C   VAL G  16      50.897 -16.250  12.175  1.00 36.49 LIG 0.20  C 
ATOM     36 OXT  VAL G  16      51.381 -16.398  13.294  1.00 48.65 LIG-0.65  OA
ATOM     37 O    VAL G  16      49.947 -15.469  11.968  1.00 44.52 LIG-0.65  OA
ENDBRANCH 34 35
BRANCH 34 38
ATOM     38  CB  VAL G  16      53.005 -17.387  11.141  1.00 46.62 LIG 0.01  C 
ATOM     39  CG1 VAL G  16      53.557 -18.053   9.876  1.00 46.76 LIG 0.01  C 
ATOM     40  CG2 VAL G  16      53.810 -16.138  11.471  1.00 45.99 LIG 0.01  C 
ENDBRANCH 34 38
ENDBRANCH 32 34
ENDBRANCH 29 30
BRANCH 29 41
ATOM     41  CB  ASP G  15      52.088 -13.853   7.381  1.00 46.49 LIG 0.15  C 
BRANCH 41 42
ATOM     42  CG  ASP G  15      51.858 -13.490   5.928  1.00 64.67 LIG 0.17  C 
ATOM     43 OD1  ASP G  15      51.788 -14.421   5.087  1.00 66.12 LIG-0.65  OA
ATOM     44 OD2  ASP G  15      51.782 -12.274   5.624  1.00 71.61 LIG-0.65  OA
ENDBRANCH 41 42
ENDBRANCH 29 41
ENDBRANCH 27 29
ENDBRANCH 1 25
TORSDOF 19
ENDMDL
MODEL 17
USER: ADFR SOLUTION from run 25
USER: SCORE 15.835088 LL:  -2.973 LR: -13.939 RR:   0.000 FEB:  -8.272
USER: RMSD 2.119821
USER: SEED 24
USER: STATUS no improvement in best in 5 clusters for 5 generations
USER: GENES 21
USER: genes 0 Translation |==|  0.51928 0.49242 0.39415
USER: genes 1 Rotation |==|  0.41964 0.55401 0.46842 0.98952
USER: genes 2 Torsion [CB]-CA--N-[C] |==|  0.22978
USER: genes 3 Torsion [N]-C--CA-[N] |==|  0.45080
USER: genes 4 Torsion [C]-CA--CB-[CG] |==|  0.43957
USER: genes 5 Torsion [CA]-CB--CG-[CD] |==|  0.21069
USER: genes 6 Torsion [CB]-CG--CD-[OE2] |==|  0.02943
USER: genes 7 Torsion [C]-CA--N-[C] |==|  0.76329
USER: genes 8 Torsion [N]-C--CA-[N] |==|  0.39711
USER: genes 9 Torsion [C]-CA--CB-[CG2] |==|  0.60320
USER: genes 10 Torsion [CA]-CB--CG1-[CD1] |==|  0.58839
USER: genes 11 Torsion [N]-CA--CB-[OG] |==|  0.13145
USER: genes 12 Torsion [CA]-CB--OG-[HG] |==|  0.90994
USER: genes 13 Torsion [N]-CA--C-[N] |==|  0.45000
USER: genes 14 Torsion [C]-N--CA-[C] |==|  0.77792
USER: genes 15 Torsion [N]-CA--C-[N] |==|  0.36167
USER: genes 16 Torsion [C]-N--CA-[CB] |==|  0.21439
USER: genes 17 Torsion [N]-CA--C-[OXT] |==|  0.77153
USER: genes 18 Torsion [N]-CA--CB-[CG1] |==|  0.73380
USER: genes 19 Torsion [N]-CA--CB-[CG] |==|  0.19150
USER: genes 20 Torsion [CA]-CB--CG-[OD1] |==|  0.37171
ROOT
ATOM      1  CA  SER G  14      50.606 -16.482  10.348  1.00 44.70 LIG 0.20  C 
ENDROOT
BRANCH 1 2
ATOM      2  N   SER G  14      50.649 -17.020  11.711  1.00 46.20 LIG-0.34  N 
ATOM      3 H    SER G  14      50.279 -16.505  12.291  1.00 46.20 LIG 0.16  HD
ATOM      4  C   GLU G  13      51.209 -18.209  12.041  1.00 51.44 LIG 0.24  C 
ATOM      5 O    GLU G  13      51.759 -18.953  11.218  1.00 50.95 LIG-0.27  OA
BRANCH 4 6
ATOM      6  CA  GLU G  13      51.131 -18.641  13.524  1.00 50.06 LIG 0.18  C 
BRANCH 6 7
ATOM      7  CB  GLU G  13      52.139 -17.877  14.401  1.00 50.83 LIG 0.04  C 
BRANCH 7 8
ATOM      8  CG  GLU G  13      51.832 -17.818  15.886  1.00 52.88 LIG 0.12  C 
BRANCH 8 9
ATOM      9  CD  GLU G  13      52.120 -19.107  16.626  1.00 63.45 LIG 0.17  C 
ATOM     10 OE2  GLU G  13      52.756 -20.017  16.036  1.00 51.34 LIG-0.65  OA
ATOM     11 OE1  GLU G  13      51.677 -19.214  17.795  1.00 49.18 LIG-0.65  OA
ENDBRANCH 8 9
ENDBRANCH 7 8
ENDBRANCH 6 7
BRANCH 6 12
ATOM     12  N   GLU G  13      51.389 -20.078  13.608  1.00 52.96 LIG-0.35  N 
ATOM     13  C   ILE G  12      50.535 -21.106  13.462  1.00 61.55 LIG 0.26  C 
ATOM     14 O    ILE G  12      49.321 -20.976  13.283  1.00 62.55 LIG-0.27  OA
ATOM     15 H    GLU G  13      52.218 -20.229  13.776  1.00 52.96 LIG 0.16  HD
BRANCH 13 16
ATOM     16  CA  ILE G  12      51.165 -22.499  13.547  1.00 62.28 LIG 0.40  C 
ATOM     17  N   ILE G  12      50.318 -23.489  14.223  1.00 63.47 LIG 0.61  N 
BRANCH 16 18
ATOM     18  CB  ILE G  12      51.726 -22.975  12.166  1.00 65.80 LIG 0.03  C 
ATOM     19  CG2 ILE G  12      51.504 -24.482  11.957  1.00 67.40 LIG 0.01  C 
BRANCH 18 20
ATOM     20  CG1 ILE G  12      51.200 -22.114  10.976  1.00 66.47 LIG 0.00  C 
ATOM     21  CD1 ILE G  12      51.028 -22.882   9.614  1.00 71.32 LIG 0.01  C 
ENDBRANCH 18 20
ENDBRANCH 16 18
ENDBRANCH 13 16
ENDBRANCH 6 12
ENDBRANCH 4 6
ENDBRANCH 1 2
BRANCH 1 22
ATOM     22  CB  SER G  14      49.432 -17.080   9.573  1.00 46.99 LIG 0.20  C 
BRANCH 22 23
ATOM     23 OG   SER G  14      48.218 -17.056  10.303  1.00 54.54 LIG-0.40  OA
ATOM     24 HG   SER G  14      48.382 -17.146  11.122  1.00 54.54 LIG 0.21  HD
ENDBRANCH 22 23
ENDBRANCH 1 22
BRANCH 1 25
ATOM     25  C   SER G  14      50.506 -14.956  10.318  1.00 46.83 LIG 0.24  C 
ATOM     26 O    SER G  14      50.088 -14.337  11.286  1.00 45.69 LIG-0.27  OA
ATOM     27  N   ASP G  15      50.828 -14.367   9.177  1.00 44.02 LIG-0.34  N 
ATOM     28 H    ASP G  15      51.103 -14.808   8.491  1.00 44.02 LIG 0.16  HD
BRANCH 27 29
ATOM     29  CA  ASP G  15      50.761 -12.923   8.938  1.00 44.06 LIG 0.19  C 
BRANCH 29 30
ATOM     30  C   ASP G  15      49.328 -12.478   8.636  1.00 44.73 LIG 0.24  C 
ATOM     31 O    ASP G  15      48.660 -13.072   7.794  1.00 45.25 LIG-0.27  OA
ATOM     32  N   VAL G  16      48.860 -11.439   9.326  1.00 39.33 LIG-0.34  N 
ATOM     33 H    VAL G  16      49.321 -11.019   9.918  1.00 39.33 LIG 0.16  HD
BRANCH 32 34
ATOM     34  CA  VAL G  16      47.512 -10.912   9.141  1.00 42.56 LIG 0.19  C 
BRANCH 34 35
ATOM     35  C   VAL G  16      47.416  -9.405   9.494  1.00 36.49 LIG 0.20  C 
ATOM     36 OXT  VAL G  16      47.284  -9.079  10.671  1.00 48.65 LIG-0.65  OA
ATOM     37 O    VAL G  16      47.468  -8.559   8.580  1.00 44.52 LIG-0.65  OA
ENDBRANCH 34 35
BRANCH 34 38
ATOM     38  CB  VAL G  16      46.421 -11.793   9.834  1.00 46.62 LIG 0.01  C 
ATOM     39  CG1 VAL G  16      45.794 -12.781   8.844  1.00 46.76 LIG 0.01  C 
ATOM     40  CG2 VAL G  16      46.987 -12.539  11.034  1.00 45.99 LIG 0.01  C 
ENDBRANCH 34 38
ENDBRANCH 32 34
ENDBRANCH 29 30
BRANCH 29 41
ATOM     41  CB  ASP G  15      51.737 -12.507   7.811  1.00 46.49 LIG 0.15  C 
BRANCH 41 42
ATOM     42  CG  ASP G  15      51.357 -12.994   6.427  1.00 64.67 LIG 0.17  C 
ATOM     43 OD1  ASP G  15      51.408 -12.176   5.474  1.00 66.12 LIG-0.65  OA
ATOM     44 OD2  ASP G  15      50.974 -14.184   6.300  1.00 71.61 LIG-0.65  OA
ENDBRANCH 41 42
ENDBRANCH 29 41
ENDBRANCH 27 29
ENDBRANCH 1 25
TORSDOF 19
ENDMDL
MODEL 18
USER: ADFR SOLUTION from run 159
USER: SCORE 14.980283 LL:  -2.173 LR: -13.910 RR:   0.000 FEB:  -8.242
USER: RMSD 3.054476
USER: SEED 158
USER: STATUS no improvement in best in 2 clusters for 5 generations
USER: GENES 21
USER: genes 0 Translation |==|  0.51376 0.47128 0.38679
USER: genes 1 Rotation |==|  0.44139 0.58171 0.43955 0.98604
USER: genes 2 Torsion [CB]-CA--N-[C] |==|  0.23888
USER: genes 3 Torsion [N]-C--CA-[N] |==|  0.43731
USER: genes 4 Torsion [C]-CA--CB-[CG] |==|  0.11030
USER: genes 5 Torsion [CA]-CB--CG-[CD] |==|  0.23015
USER: genes 6 Torsion [CB]-CG--CD-[OE2] |==|  0.73221
USER: genes 7 Torsion [C]-CA--N-[C] |==|  0.73755
USER: genes 8 Torsion [N]-C--CA-[N] |==|  0.87599
USER: genes 9 Torsion [C]-CA--CB-[CG2] |==|  0.05817
USER: genes 10 Torsion [CA]-CB--CG1-[CD1] |==|  0.68209
USER: genes 11 Torsion [N]-CA--CB-[OG] |==|  0.15378
USER: genes 12 Torsion [CA]-CB--OG-[HG] |==|  0.93190
USER: genes 13 Torsion [N]-CA--C-[N] |==|  0.44771
USER: genes 14 Torsion [C]-N--CA-[C] |==|  0.78286
USER: genes 15 Torsion [N]-CA--C-[N] |==|  0.97295
USER: genes 16 Torsion [C]-N--CA-[CB] |==|  0.86155
USER: genes 17 Torsion [N]-CA--C-[OXT] |==|  0.35024
USER: genes 18 Torsion [N]-CA--CB-[CG1] |==|  0.33606
USER: genes 19 Torsion [N]-CA--CB-[CG] |==|  0.20309
USER: genes 20 Torsion [CA]-CB--CG-[OD1] |==|  0.32352
ROOT
ATOM      1  CA  SER G  14      50.515 -16.989  10.221  1.00 44.70 LIG 0.20  C 
ENDROOT
BRANCH 1 2
ATOM      2  N   SER G  14      50.589 -17.640  11.532  1.00 46.20 LIG-0.34  N 
ATOM      3 H    SER G  14      50.302 -17.144  12.174  1.00 46.20 LIG 0.16  HD
ATOM      4  C   GLU G  13      51.057 -18.896  11.732  1.00 51.44 LIG 0.24  C 
ATOM      5 O    GLU G  13      51.487 -19.614  10.820  1.00 50.95 LIG-0.27  OA
BRANCH 4 6
ATOM      6  CA  GLU G  13      51.027 -19.440  13.179  1.00 50.06 LIG 0.18  C 
BRANCH 6 7
ATOM      7  CB  GLU G  13      52.220 -18.934  14.011  1.00 50.83 LIG 0.04  C 
BRANCH 7 8
ATOM      8  CG  GLU G  13      52.626 -17.488  13.797  1.00 52.88 LIG 0.12  C 
BRANCH 8 9
ATOM      9  CD  GLU G  13      51.806 -16.494  14.590  1.00 63.45 LIG 0.17  C 
ATOM     10 OE2  GLU G  13      50.833 -15.925  14.032  1.00 51.34 LIG-0.65  OA
ATOM     11 OE1  GLU G  13      52.163 -16.260  15.770  1.00 49.18 LIG-0.65  OA
ENDBRANCH 8 9
ENDBRANCH 7 8
ENDBRANCH 6 7
BRANCH 6 12
ATOM     12  N   GLU G  13      51.040 -20.901  13.131  1.00 52.96 LIG-0.35  N 
ATOM     13  C   ILE G  12      50.008 -21.763  13.159  1.00 61.55 LIG 0.26  C 
ATOM     14 O    ILE G  12      48.829 -21.426  13.299  1.00 62.55 LIG-0.27  OA
ATOM     15 H    GLU G  13      51.845 -21.197  13.077  1.00 52.96 LIG 0.16  HD
BRANCH 13 16
ATOM     16  CA  ILE G  12      50.384 -23.241  13.020  1.00 62.28 LIG 0.40  C 
ATOM     17  N   ILE G  12      51.370 -23.502  11.965  1.00 63.47 LIG 0.61  N 
BRANCH 16 18
ATOM     18  CB  ILE G  12      50.740 -23.889  14.401  1.00 65.80 LIG 0.03  C 
ATOM     19  CG2 ILE G  12      50.146 -23.085  15.569  1.00 67.40 LIG 0.01  C 
BRANCH 18 20
ATOM     20  CG1 ILE G  12      50.378 -25.405  14.462  1.00 66.47 LIG 0.00  C 
ATOM     21  CD1 ILE G  12      49.245 -25.786  15.485  1.00 71.32 LIG 0.01  C 
ENDBRANCH 18 20
ENDBRANCH 16 18
ENDBRANCH 13 16
ENDBRANCH 6 12
ENDBRANCH 4 6
ENDBRANCH 1 2
BRANCH 1 22
ATOM     22  CB  SER G  14      49.209 -17.354   9.516  1.00 46.99 LIG 0.20  C 
BRANCH 22 23
ATOM     23 OG   SER G  14      48.061 -17.054  10.289  1.00 54.54 LIG-0.40  OA
ATOM     24 HG   SER G  14      48.266 -17.043  11.103  1.00 54.54 LIG 0.21  HD
ENDBRANCH 22 23
ENDBRANCH 1 22
BRANCH 1 25
ATOM     25  C   SER G  14      50.633 -15.467  10.308  1.00 46.83 LIG 0.24  C 
ATOM     26 O    SER G  14      50.374 -14.878  11.348  1.00 45.69 LIG-0.27  OA
ATOM     27  N   ASP G  15      50.961 -14.836   9.192  1.00 44.02 LIG-0.34  N 
ATOM     28 H    ASP G  15      51.124 -15.253   8.457  1.00 44.02 LIG 0.16  HD
BRANCH 27 29
ATOM     29  CA  ASP G  15      51.087 -13.382   9.063  1.00 44.06 LIG 0.19  C 
BRANCH 29 30
ATOM     30  C   ASP G  15      49.713 -12.716   8.949  1.00 44.73 LIG 0.24  C 
ATOM     31 O    ASP G  15      49.611 -11.494   9.009  1.00 45.25 LIG-0.27  OA
ATOM     32  N   VAL G  16      48.665 -13.520   8.780  1.00 39.33 LIG-0.34  N 
ATOM     33 H    VAL G  16      48.728 -14.377   8.735  1.00 39.33 LIG 0.16  HD
BRANCH 32 34
ATOM     34  CA  VAL G  16      47.299 -13.020   8.654  1.00 42.56 LIG 0.19  C 
BRANCH 34 35
ATOM     35  C   VAL G  16      46.992 -12.503   7.225  1.00 36.49 LIG 0.20  C 
ATOM     36 OXT  VAL G  16      46.015 -12.952   6.630  1.00 48.65 LIG-0.65  OA
ATOM     37 O    VAL G  16      47.741 -11.652   6.709  1.00 44.52 LIG-0.65  OA
ENDBRANCH 34 35
BRANCH 34 38
ATOM     38  CB  VAL G  16      46.923 -12.008   9.786  1.00 46.62 LIG 0.01  C 
ATOM     39  CG1 VAL G  16      46.520 -10.649   9.203  1.00 46.76 LIG 0.01  C 
ATOM     40  CG2 VAL G  16      45.809 -12.550  10.671  1.00 45.99 LIG 0.01  C 
ENDBRANCH 34 38
ENDBRANCH 32 34
ENDBRANCH 29 30
BRANCH 29 41
ATOM     41  CB  ASP G  15      52.001 -13.014   7.870  1.00 46.49 LIG 0.15  C 
BRANCH 41 42
ATOM     42  CG  ASP G  15      51.383 -13.230   6.503  1.00 64.67 LIG 0.17  C 
ATOM     43 OD1  ASP G  15      51.200 -12.227   5.768  1.00 66.12 LIG-0.65  OA
ATOM     44 OD2  ASP G  15      51.049 -14.397   6.180  1.00 71.61 LIG-0.65  OA
ENDBRANCH 41 42
ENDBRANCH 29 41
ENDBRANCH 27 29
ENDBRANCH 1 25
TORSDOF 19
ENDMDL
MODEL 19
USER: ADFR SOLUTION from run 112
USER: SCORE 14.598623 LL:  -2.793 LR: -13.840 RR:   0.000 FEB:  -8.173
USER: RMSD 4.408352
USER: SEED 111
USER: STATUS no improvement in best in 7 clusters for 5 generations
USER: GENES 21
USER: genes 0 Translation |==|  0.44132 0.53034 0.34582
USER: genes 1 Rotation |==|  0.42444 0.95195 0.40515 0.67616
USER: genes 2 Torsion [CB]-CA--N-[C] |==|  0.48717
USER: genes 3 Torsion [N]-C--CA-[N] |==|  0.41202
USER: genes 4 Torsion [C]-CA--CB-[CG] |==|  0.15496
USER: genes 5 Torsion [CA]-CB--CG-[CD] |==|  0.12455
USER: genes 6 Torsion [CB]-CG--CD-[OE2] |==|  0.15382
USER: genes 7 Torsion [C]-CA--N-[C] |==|  0.67497
USER: genes 8 Torsion [N]-C--CA-[N] |==|  0.48963
USER: genes 9 Torsion [C]-CA--CB-[CG2] |==|  0.90311
USER: genes 10 Torsion [CA]-CB--CG1-[CD1] |==|  0.64592
USER: genes 11 Torsion [N]-CA--CB-[OG] |==|  0.01524
USER: genes 12 Torsion [CA]-CB--OG-[HG] |==|  0.79074
USER: genes 13 Torsion [N]-CA--C-[N] |==|  0.80963
USER: genes 14 Torsion [C]-N--CA-[C] |==|  0.10000
USER: genes 15 Torsion [N]-CA--C-[N] |==|  0.18249
USER: genes 16 Torsion [C]-N--CA-[CB] |==|  0.30180
USER: genes 17 Torsion [N]-CA--C-[OXT] |==|  0.67342
USER: genes 18 Torsion [N]-CA--CB-[CG1] |==|  0.79675
USER: genes 19 Torsion [N]-CA--CB-[CG] |==|  0.21144
USER: genes 20 Torsion [CA]-CB--CG-[OD1] |==|  0.29977
ROOT
ATOM      1  CA  SER G  14      49.320 -15.572   9.514  1.00 44.70 LIG 0.20  C 
ENDROOT
BRANCH 1 2
ATOM      2  N   SER G  14      50.316 -16.618   9.266  1.00 46.20 LIG-0.34  N 
ATOM      3 H    SER G  14      50.724 -16.873   9.978  1.00 46.20 LIG 0.16  HD
ATOM      4  C   GLU G  13      50.581 -17.141   8.044  1.00 51.44 LIG 0.24  C 
ATOM      5 O    GLU G  13      50.012 -16.770   7.009  1.00 50.95 LIG-0.27  OA
BRANCH 4 6
ATOM      6  CA  GLU G  13      51.638 -18.266   7.970  1.00 50.06 LIG 0.18  C 
BRANCH 6 7
ATOM      7  CB  GLU G  13      53.057 -17.711   7.743  1.00 50.83 LIG 0.04  C 
BRANCH 7 8
ATOM      8  CG  GLU G  13      53.549 -16.688   8.749  1.00 52.88 LIG 0.12  C 
BRANCH 8 9
ATOM      9  CD  GLU G  13      53.267 -17.055  10.190  1.00 63.45 LIG 0.17  C 
ATOM     10 OE2  GLU G  13      53.677 -18.161  10.627  1.00 51.34 LIG-0.65  OA
ATOM     11 OE1  GLU G  13      52.605 -16.240  10.876  1.00 49.18 LIG-0.65  OA
ENDBRANCH 8 9
ENDBRANCH 7 8
ENDBRANCH 6 7
BRANCH 6 12
ATOM     12  N   GLU G  13      51.281 -19.174   6.881  1.00 52.96 LIG-0.35  N 
ATOM     13  C   ILE G  12      50.952 -20.477   6.932  1.00 61.55 LIG 0.26  C 
ATOM     14 O    ILE G  12      50.962 -21.152   7.965  1.00 62.55 LIG-0.27  OA
ATOM     15 H    GLU G  13      51.300 -18.766   6.125  1.00 52.96 LIG 0.16  HD
BRANCH 13 16
ATOM     16  CA  ILE G  12      50.564 -21.109   5.592  1.00 62.28 LIG 0.40  C 
ATOM     17  N   ILE G  12      50.296 -22.549   5.675  1.00 63.47 LIG 0.61  N 
BRANCH 16 18
ATOM     18  CB  ILE G  12      49.447 -20.292   4.860  1.00 65.80 LIG 0.03  C 
ATOM     19  CG2 ILE G  12      48.454 -19.676   5.858  1.00 67.40 LIG 0.01  C 
BRANCH 18 20
ATOM     20  CG1 ILE G  12      50.027 -19.248   3.858  1.00 66.47 LIG 0.00  C 
ATOM     21  CD1 ILE G  12      49.502 -17.777   4.039  1.00 71.32 LIG 0.01  C 
ENDBRANCH 18 20
ENDBRANCH 16 18
ENDBRANCH 13 16
ENDBRANCH 6 12
ENDBRANCH 4 6
ENDBRANCH 1 2
BRANCH 1 22
ATOM     22  CB  SER G  14      49.197 -15.295  11.012  1.00 46.99 LIG 0.20  C 
BRANCH 22 23
ATOM     23 OG   SER G  14      50.145 -16.010  11.786  1.00 54.54 LIG-0.40  OA
ATOM     24 HG   SER G  14      49.913 -16.815  11.839  1.00 54.54 LIG 0.21  HD
ENDBRANCH 22 23
ENDBRANCH 1 22
BRANCH 1 25
ATOM     25  C   SER G  14      49.638 -14.266   8.785  1.00 46.83 LIG 0.24  C 
ATOM     26 O    SER G  14      48.972 -13.908   7.823  1.00 45.69 LIG-0.27  OA
ATOM     27  N   ASP G  15      50.699 -13.597   9.209  1.00 44.02 LIG-0.34  N 
ATOM     28 H    ASP G  15      51.176 -13.862   9.873  1.00 44.02 LIG 0.16  HD
BRANCH 27 29
ATOM     29  CA  ASP G  15      51.187 -12.348   8.617  1.00 44.06 LIG 0.19  C 
BRANCH 29 30
ATOM     30  C   ASP G  15      50.026 -11.468   8.146  1.00 44.73 LIG 0.24  C 
ATOM     31 O    ASP G  15      49.870 -11.238   6.950  1.00 45.25 LIG-0.27  OA
ATOM     32  N   VAL G  16      49.216 -10.985   9.086  1.00 39.33 LIG-0.34  N 
ATOM     33 H    VAL G  16      49.318 -11.142   9.926  1.00 39.33 LIG 0.16  HD
BRANCH 32 34
ATOM     34  CA  VAL G  16      48.070 -10.135   8.779  1.00 42.56 LIG 0.19  C 
BRANCH 34 35
ATOM     35  C   VAL G  16      48.155  -8.756   9.483  1.00 36.49 LIG 0.20  C 
ATOM     36 OXT  VAL G  16      47.288  -8.452  10.299  1.00 48.65 LIG-0.65  OA
ATOM     37 O    VAL G  16      49.093  -7.984   9.204  1.00 44.52 LIG-0.65  OA
ENDBRANCH 34 35
BRANCH 34 38
ATOM     38  CB  VAL G  16      46.704 -10.867   8.989  1.00 46.62 LIG 0.01  C 
ATOM     39  CG1 VAL G  16      46.451 -11.897   7.883  1.00 46.76 LIG 0.01  C 
ATOM     40  CG2 VAL G  16      46.634 -11.535  10.355  1.00 45.99 LIG 0.01  C 
ENDBRANCH 34 38
ENDBRANCH 32 34
ENDBRANCH 29 30
BRANCH 29 41
ATOM     41  CB  ASP G  15      52.185 -12.639   7.470  1.00 46.49 LIG 0.15  C 
BRANCH 41 42
ATOM     42  CG  ASP G  15      51.549 -13.102   6.175  1.00 64.67 LIG 0.17  C 
ATOM     43 OD1  ASP G  15      51.532 -12.305   5.203  1.00 66.12 LIG-0.65  OA
ATOM     44 OD2  ASP G  15      51.038 -14.249   6.141  1.00 71.61 LIG-0.65  OA
ENDBRANCH 41 42
ENDBRANCH 29 41
ENDBRANCH 27 29
ENDBRANCH 1 25
TORSDOF 19
ENDMDL
MODEL 20
USER: ADFR SOLUTION from run 95
USER: SCORE 15.193214 LL:  -2.595 LR: -13.835 RR:   0.000 FEB:  -8.167
USER: RMSD 10.165881
USER: SEED 94
USER: STATUS no improvement in best in 9 clusters for 5 generations
USER: GENES 21
USER: genes 0 Translation |==|  0.46881 0.49961 0.35942
USER: genes 1 Rotation |==|  0.34480 0.19500 0.13836 0.54588
USER: genes 2 Torsion [CB]-CA--N-[C] |==|  0.49953
USER: genes 3 Torsion [N]-C--CA-[N] |==|  0.37211
USER: genes 4 Torsion [C]-CA--CB-[CG] |==|  0.24118
USER: genes 5 Torsion [CA]-CB--CG-[CD] |==|  0.10100
USER: genes 6 Torsion [CB]-CG--CD-[OE2] |==|  0.76221
USER: genes 7 Torsion [C]-CA--N-[C] |==|  0.74791
USER: genes 8 Torsion [N]-C--CA-[N] |==|  0.81090
USER: genes 9 Torsion [C]-CA--CB-[CG2] |==|  0.78022
USER: genes 10 Torsion [CA]-CB--CG1-[CD1] |==|  0.73200
USER: genes 11 Torsion [N]-CA--CB-[OG] |==|  0.39389
USER: genes 12 Torsion [CA]-CB--OG-[HG] |==|  0.32615
USER: genes 13 Torsion [N]-CA--C-[N] |==|  0.43752
USER: genes 14 Torsion [C]-N--CA-[C] |==|  0.63336
USER: genes 15 Torsion [N]-CA--C-[N] |==|  0.86578
USER: genes 16 Torsion [C]-N--CA-[CB] |==|  0.24812
USER: genes 17 Torsion [N]-CA--C-[OXT] |==|  0.26167
USER: genes 18 Torsion [N]-CA--CB-[CG1] |==|  0.52548
USER: genes 19 Torsion [N]-CA--CB-[CG] |==|  0.55044
USER: genes 20 Torsion [CA]-CB--CG-[OD1] |==|  0.60234
ROOT
ATOM      1  CA  SER G  14      49.773 -16.309   9.749  1.00 44.70 LIG 0.20  C 
ENDROOT
BRANCH 1 2
ATOM      2  N   SER G  14      49.767 -15.074   8.960  1.00 46.20 LIG-0.34  N 
ATOM      3 H    SER G  14      49.822 -15.213   8.113  1.00 46.20 LIG 0.16  HD
ATOM      4  C   GLU G  13      49.682 -13.831   9.493  1.00 51.44 LIG 0.24  C 
ATOM      5 O    GLU G  13      49.619 -13.618  10.711  1.00 50.95 LIG-0.27  OA
BRANCH 4 6
ATOM      6  CA  GLU G  13      49.650 -12.640   8.509  1.00 50.06 LIG 0.18  C 
BRANCH 6 7
ATOM      7  CB  GLU G  13      50.996 -11.893   8.462  1.00 50.83 LIG 0.04  C 
BRANCH 7 8
ATOM      8  CG  GLU G  13      52.031 -12.430   7.491  1.00 52.88 LIG 0.12  C 
BRANCH 8 9
ATOM      9  CD  GLU G  13      51.449 -12.954   6.196  1.00 63.45 LIG 0.17  C 
ATOM     10 OE2  GLU G  13      51.039 -14.142   6.150  1.00 51.34 LIG-0.65  OA
ATOM     11 OE1  GLU G  13      51.432 -12.175   5.212  1.00 49.18 LIG-0.65  OA
ENDBRANCH 8 9
ENDBRANCH 7 8
ENDBRANCH 6 7
BRANCH 6 12
ATOM     12  N   GLU G  13      48.588 -11.722   8.918  1.00 52.96 LIG-0.35  N 
ATOM     13  C   ILE G  12      47.296 -11.694   8.546  1.00 61.55 LIG 0.26  C 
ATOM     14 O    ILE G  12      46.803 -12.451   7.705  1.00 62.55 LIG-0.27  OA
ATOM     15 H    GLU G  13      48.887 -11.140   9.476  1.00 52.96 LIG 0.16  HD
BRANCH 13 16
ATOM     16  CA  ILE G  12      46.439 -10.626   9.231  1.00 62.28 LIG 0.40  C 
ATOM     17  N   ILE G  12      46.229 -10.867  10.663  1.00 63.47 LIG 0.61  N 
BRANCH 16 18
ATOM     18  CB  ILE G  12      46.924  -9.177   8.891  1.00 65.80 LIG 0.03  C 
ATOM     19  CG2 ILE G  12      48.152  -8.785   9.729  1.00 67.40 LIG 0.01  C 
BRANCH 18 20
ATOM     20  CG1 ILE G  12      47.138  -8.959   7.362  1.00 66.47 LIG 0.00  C 
ATOM     21  CD1 ILE G  12      48.618  -9.134   6.858  1.00 71.32 LIG 0.01  C 
ENDBRANCH 18 20
ENDBRANCH 16 18
ENDBRANCH 13 16
ENDBRANCH 6 12
ENDBRANCH 4 6
ENDBRANCH 1 2
BRANCH 1 22
ATOM     22  CB  SER G  14      49.875 -17.529   8.834  1.00 46.99 LIG 0.20  C 
BRANCH 22 23
ATOM     23 OG   SER G  14      50.696 -18.553   9.367  1.00 54.54 LIG-0.40  OA
ATOM     24 HG   SER G  14      50.236 -19.244   9.493  1.00 54.54 LIG 0.21  HD
ENDBRANCH 22 23
ENDBRANCH 1 22
BRANCH 1 25
ATOM     25  C   SER G  14      50.909 -16.351  10.773  1.00 46.83 LIG 0.24  C 
ATOM     26 O    SER G  14      51.935 -15.711  10.596  1.00 45.69 LIG-0.27  OA
ATOM     27  N   ASP G  15      50.740 -17.160  11.808  1.00 44.02 LIG-0.34  N 
ATOM     28 H    ASP G  15      50.024 -17.624  11.919  1.00 44.02 LIG 0.16  HD
BRANCH 27 29
ATOM     29  CA  ASP G  15      51.725 -17.367  12.872  1.00 44.06 LIG 0.19  C 
BRANCH 29 30
ATOM     30  C   ASP G  15      51.936 -18.858  13.148  1.00 44.73 LIG 0.24  C 
ATOM     31 O    ASP G  15      53.072 -19.318  13.224  1.00 45.25 LIG-0.27  OA
ATOM     32  N   VAL G  16      50.844 -19.604  13.302  1.00 39.33 LIG-0.34  N 
ATOM     33 H    VAL G  16      50.045 -19.289  13.252  1.00 39.33 LIG 0.16  HD
BRANCH 32 34
ATOM     34  CA  VAL G  16      50.898 -21.037  13.571  1.00 42.56 LIG 0.19  C 
BRANCH 34 35
ATOM     35  C   VAL G  16      49.800 -21.822  12.807  1.00 36.49 LIG 0.20  C 
ATOM     36 OXT  VAL G  16      50.076 -22.319  11.718  1.00 48.65 LIG-0.65  OA
ATOM     37 O    VAL G  16      48.663 -21.925  13.308  1.00 44.52 LIG-0.65  OA
ENDBRANCH 34 35
BRANCH 34 38
ATOM     38  CB  VAL G  16      50.955 -21.360  15.100  1.00 46.62 LIG 0.01  C 
ATOM     39  CG1 VAL G  16      51.239 -22.846  15.344  1.00 46.76 LIG 0.01  C 
ATOM     40  CG2 VAL G  16      51.993 -20.504  15.813  1.00 45.99 LIG 0.01  C 
ENDBRANCH 34 38
ENDBRANCH 32 34
ENDBRANCH 29 30
BRANCH 29 41
ATOM     41  CB  ASP G  15      51.317 -16.601  14.153  1.00 46.49 LIG 0.15  C 
BRANCH 41 42
ATOM     42  CG  ASP G  15      52.437 -16.385  15.150  1.00 64.67 LIG 0.17  C 
ATOM     43 OD1  ASP G  15      52.164 -16.450  16.375  1.00 66.12 LIG-0.65  OA
ATOM     44 OD2  ASP G  15      53.583 -16.116  14.708  1.00 71.61 LIG-0.65  OA
ENDBRANCH 41 42
ENDBRANCH 29 41
ENDBRANCH 27 29
ENDBRANCH 1 25
TORSDOF 19
ENDMDL
MODEL 21
USER: ADFR SOLUTION from run 109
USER: SCORE 14.536627 LL:  -2.895 LR: -13.816 RR:   0.000 FEB:  -8.149
USER: RMSD 5.039808
USER: SEED 108
USER: STATUS no improvement in best in 14 clusters for 5 generations
USER: GENES 21
USER: genes 0 Translation |==|  0.47636 0.50022 0.38553
USER: genes 1 Rotation |==|  0.52949 0.02132 0.63842 0.52898
USER: genes 2 Torsion [CB]-CA--N-[C] |==|  0.77937
USER: genes 3 Torsion [N]-C--CA-[N] |==|  0.34964
USER: genes 4 Torsion [C]-CA--CB-[CG] |==|  0.27045
USER: genes 5 Torsion [CA]-CB--CG-[CD] |==|  0.17831
USER: genes 6 Torsion [CB]-CG--CD-[OE2] |==|  0.65075
USER: genes 7 Torsion [C]-CA--N-[C] |==|  0.73621
USER: genes 8 Torsion [N]-C--CA-[N] |==|  0.32232
USER: genes 9 Torsion [C]-CA--CB-[CG2] |==|  0.78036
USER: genes 10 Torsion [CA]-CB--CG1-[CD1] |==|  0.13866
USER: genes 11 Torsion [N]-CA--CB-[OG] |==|  0.70922
USER: genes 12 Torsion [CA]-CB--OG-[HG] |==|  0.02068
USER: genes 13 Torsion [N]-CA--C-[N] |==|  0.65611
USER: genes 14 Torsion [C]-N--CA-[C] |==|  0.16667
USER: genes 15 Torsion [N]-CA--C-[N] |==|  0.23504
USER: genes 16 Torsion [C]-N--CA-[CB] |==|  0.28456
USER: genes 17 Torsion [N]-CA--C-[OXT] |==|  0.10639
USER: genes 18 Torsion [N]-CA--CB-[CG1] |==|  0.54773
USER: genes 19 Torsion [N]-CA--CB-[CG] |==|  0.52623
USER: genes 20 Torsion [CA]-CB--CG-[OD1] |==|  0.25121
ROOT
ATOM      1  CA  SER G  14      49.898 -16.295  10.199  1.00 44.70 LIG 0.20  C 
ENDROOT
BRANCH 1 2
ATOM      2  N   SER G  14      50.081 -17.677   9.747  1.00 46.20 LIG-0.34  N 
ATOM      3 H    SER G  14      49.524 -18.227  10.102  1.00 46.20 LIG 0.16  HD
ATOM      4  C   GLU G  13      51.027 -18.066   8.857  1.00 51.44 LIG 0.24  C 
ATOM      5 O    GLU G  13      51.845 -17.287   8.350  1.00 50.95 LIG-0.27  OA
BRANCH 4 6
ATOM      6  CA  GLU G  13      51.053 -19.561   8.462  1.00 50.06 LIG 0.18  C 
BRANCH 6 7
ATOM      7  CB  GLU G  13      52.320 -20.271   8.974  1.00 50.83 LIG 0.04  C 
BRANCH 7 8
ATOM      8  CG  GLU G  13      52.180 -21.045  10.271  1.00 52.88 LIG 0.12  C 
BRANCH 8 9
ATOM      9  CD  GLU G  13      51.232 -22.221  10.189  1.00 63.45 LIG 0.17  C 
ATOM     10 OE2  GLU G  13      50.288 -22.300  11.017  1.00 51.34 LIG-0.65  OA
ATOM     11 OE1  GLU G  13      51.456 -23.085   9.307  1.00 49.18 LIG-0.65  OA
ENDBRANCH 8 9
ENDBRANCH 7 8
ENDBRANCH 6 7
BRANCH 6 12
ATOM     12  N   GLU G  13      50.983 -19.661   7.005  1.00 52.96 LIG-0.35  N 
ATOM     13  C   ILE G  12      49.910 -19.841   6.214  1.00 61.55 LIG 0.26  C 
ATOM     14 O    ILE G  12      48.763 -20.018   6.636  1.00 62.55 LIG-0.27  OA
ATOM     15 H    GLU G  13      51.765 -19.588   6.656  1.00 52.96 LIG 0.16  HD
BRANCH 13 16
ATOM     16  CA  ILE G  12      50.194 -19.831   4.710  1.00 62.28 LIG 0.40  C 
ATOM     17  N   ILE G  12      49.912 -21.110   4.048  1.00 63.47 LIG 0.61  N 
BRANCH 16 18
ATOM     18  CB  ILE G  12      49.556 -18.590   4.000  1.00 65.80 LIG 0.03  C 
ATOM     19  CG2 ILE G  12      48.052 -18.793   3.756  1.00 67.40 LIG 0.01  C 
BRANCH 18 20
ATOM     20  CG1 ILE G  12      49.876 -17.250   4.733  1.00 66.47 LIG 0.00  C 
ATOM     21  CD1 ILE G  12      51.393 -17.015   5.073  1.00 71.32 LIG 0.01  C 
ENDBRANCH 18 20
ENDBRANCH 16 18
ENDBRANCH 13 16
ENDBRANCH 6 12
ENDBRANCH 4 6
ENDBRANCH 1 2
BRANCH 1 22
ATOM     22  CB  SER G  14      50.931 -15.941  11.269  1.00 46.99 LIG 0.20  C 
BRANCH 22 23
ATOM     23 OG   SER G  14      50.385 -15.908  12.576  1.00 54.54 LIG-0.40  OA
ATOM     24 HG   SER G  14      49.595 -16.190  12.556  1.00 54.54 LIG 0.21  HD
ENDBRANCH 22 23
ENDBRANCH 1 22
BRANCH 1 25
ATOM     25  C   SER G  14      49.986 -15.281   9.057  1.00 46.83 LIG 0.24  C 
ATOM     26 O    SER G  14      49.297 -15.406   8.055  1.00 45.69 LIG-0.27  OA
ATOM     27  N   ASP G  15      50.886 -14.319   9.192  1.00 44.02 LIG-0.34  N 
ATOM     28 H    ASP G  15      51.382 -14.246   9.890  1.00 44.02 LIG 0.16  HD
BRANCH 27 29
ATOM     29  CA  ASP G  15      51.147 -13.279   8.193  1.00 44.06 LIG 0.19  C 
BRANCH 29 30
ATOM     30  C   ASP G  15      49.893 -12.444   7.922  1.00 44.73 LIG 0.24  C 
ATOM     31 O    ASP G  15      49.156 -12.723   6.980  1.00 45.25 LIG-0.27  OA
ATOM     32  N   VAL G  16      49.654 -11.429   8.750  1.00 39.33 LIG-0.34  N 
ATOM     33 H    VAL G  16      50.164 -11.228   9.412  1.00 39.33 LIG 0.16  HD
BRANCH 32 34
ATOM     34  CA  VAL G  16      48.494 -10.553   8.609  1.00 42.56 LIG 0.19  C 
BRANCH 34 35
ATOM     35  C   VAL G  16      48.890  -9.054   8.580  1.00 36.49 LIG 0.20  C 
ATOM     36 OXT  VAL G  16      49.913  -8.722   7.986  1.00 48.65 LIG-0.65  OA
ATOM     37 O    VAL G  16      48.169  -8.220   9.162  1.00 44.52 LIG-0.65  OA
ENDBRANCH 34 35
BRANCH 34 38
ATOM     38  CB  VAL G  16      47.361 -10.886   9.634  1.00 46.62 LIG 0.01  C 
ATOM     39  CG1 VAL G  16      46.027 -10.266   9.207  1.00 46.76 LIG 0.01  C 
ATOM     40  CG2 VAL G  16      47.205 -12.389   9.825  1.00 45.99 LIG 0.01  C 
ENDBRANCH 34 38
ENDBRANCH 32 34
ENDBRANCH 29 30
BRANCH 29 41
ATOM     41  CB  ASP G  15      51.713 -13.898   6.892  1.00 46.49 LIG 0.15  C 
BRANCH 41 42
ATOM     42  CG  ASP G  15      52.227 -12.895   5.880  1.00 64.67 LIG 0.17  C 
ATOM     43 OD1  ASP G  15      53.436 -12.556   5.938  1.00 66.12 LIG-0.65  OA
ATOM     44 OD2  ASP G  15      51.413 -12.419   5.049  1.00 71.61 LIG-0.65  OA
ENDBRANCH 41 42
ENDBRANCH 29 41
ENDBRANCH 27 29
ENDBRANCH 1 25
TORSDOF 19
ENDMDL
MODEL 22
USER: ADFR SOLUTION from run 56
USER: SCORE 14.887424 LL:  -2.737 LR: -13.732 RR:   0.000 FEB:  -8.065
USER: RMSD 5.727382
USER: SEED 55
USER: STATUS no improvement in best in 6 clusters for 5 generations
USER: GENES 21
USER: genes 0 Translation |==|  0.42151 0.55936 0.34779
USER: genes 1 Rotation |==|  0.63803 0.02523 0.57343 0.51218
USER: genes 2 Torsion [CB]-CA--N-[C] |==|  0.17238
USER: genes 3 Torsion [N]-C--CA-[N] |==|  0.51461
USER: genes 4 Torsion [C]-CA--CB-[CG] |==|  0.34403
USER: genes 5 Torsion [CA]-CB--CG-[CD] |==|  0.73400
USER: genes 6 Torsion [CB]-CG--CD-[OE2] |==|  0.16265
USER: genes 7 Torsion [C]-CA--N-[C] |==|  0.64949
USER: genes 8 Torsion [N]-C--CA-[N] |==|  0.50974
USER: genes 9 Torsion [C]-CA--CB-[CG2] |==|  0.46645
USER: genes 10 Torsion [CA]-CB--CG1-[CD1] |==|  0.44894
USER: genes 11 Torsion [N]-CA--CB-[OG] |==|  0.76845
USER: genes 12 Torsion [CA]-CB--OG-[HG] |==|  0.04121
USER: genes 13 Torsion [N]-CA--C-[N] |==|  0.57929
USER: genes 14 Torsion [C]-N--CA-[C] |==|  0.70556
USER: genes 15 Torsion [N]-CA--C-[N] |==|  0.85180
USER: genes 16 Torsion [C]-N--CA-[CB] |==|  0.38672
USER: genes 17 Torsion [N]-CA--C-[OXT] |==|  0.89151
USER: genes 18 Torsion [N]-CA--CB-[CG1] |==|  0.19669
USER: genes 19 Torsion [N]-CA--CB-[CG] |==|  0.40843
USER: genes 20 Torsion [CA]-CB--CG-[OD1] |==|  0.17190
ROOT
ATOM      1  CA  SER G  14      48.993 -14.875   9.548  1.00 44.70 LIG 0.20  C 
ENDROOT
BRANCH 1 2
ATOM      2  N   SER G  14      49.650 -15.894   8.725  1.00 46.20 LIG-0.34  N 
ATOM      3 H    SER G  14      49.746 -15.657   7.904  1.00 46.20 LIG 0.16  HD
ATOM      4  C   GLU G  13      50.070 -17.095   9.192  1.00 51.44 LIG 0.24  C 
ATOM      5 O    GLU G  13      49.923 -17.456  10.367  1.00 50.95 LIG-0.27  OA
BRANCH 4 6
ATOM      6  CA  GLU G  13      50.779 -18.035   8.190  1.00 50.06 LIG 0.18  C 
BRANCH 6 7
ATOM      7  CB  GLU G  13      49.940 -18.264   6.920  1.00 50.83 LIG 0.04  C 
BRANCH 7 8
ATOM      8  CG  GLU G  13      50.608 -17.924   5.601  1.00 52.88 LIG 0.12  C 
BRANCH 8 9
ATOM      9  CD  GLU G  13      50.283 -16.539   5.084  1.00 63.45 LIG 0.17  C 
ATOM     10 OE2  GLU G  13      50.561 -15.543   5.799  1.00 51.34 LIG-0.65  OA
ATOM     11 OE1  GLU G  13      49.719 -16.456   3.967  1.00 49.18 LIG-0.65  OA
ENDBRANCH 8 9
ENDBRANCH 7 8
ENDBRANCH 6 7
BRANCH 6 12
ATOM     12  N   GLU G  13      51.038 -19.314   8.851  1.00 52.96 LIG-0.35  N 
ATOM     13  C   ILE G  12      52.195 -19.986   8.982  1.00 61.55 LIG 0.26  C 
ATOM     14 O    ILE G  12      53.264 -19.626   8.480  1.00 62.55 LIG-0.27  OA
ATOM     15 H    GLU G  13      50.314 -19.636   9.184  1.00 52.96 LIG 0.16  HD
BRANCH 13 16
ATOM     16  CA  ILE G  12      52.115 -21.277   9.802  1.00 62.28 LIG 0.40  C 
ATOM     17  N   ILE G  12      53.412 -21.937   9.990  1.00 63.47 LIG 0.61  N 
BRANCH 16 18
ATOM     18  CB  ILE G  12      51.300 -21.082  11.124  1.00 65.80 LIG 0.03  C 
ATOM     19  CG2 ILE G  12      50.972 -22.430  11.786  1.00 67.40 LIG 0.01  C 
BRANCH 18 20
ATOM     20  CG1 ILE G  12      51.977 -20.074  12.104  1.00 66.47 LIG 0.00  C 
ATOM     21  CD1 ILE G  12      51.037 -19.484  13.218  1.00 71.32 LIG 0.01  C 
ENDBRANCH 18 20
ENDBRANCH 16 18
ENDBRANCH 13 16
ENDBRANCH 6 12
ENDBRANCH 4 6
ENDBRANCH 1 2
BRANCH 1 22
ATOM     22  CB  SER G  14      49.928 -14.403  10.661  1.00 46.99 LIG 0.20  C 
BRANCH 22 23
ATOM     23 OG   SER G  14      49.913 -15.253  11.794  1.00 54.54 LIG-0.40  OA
ATOM     24 HG   SER G  14      49.549 -15.983  11.592  1.00 54.54 LIG 0.21  HD
ENDBRANCH 22 23
ENDBRANCH 1 22
BRANCH 1 25
ATOM     25  C   SER G  14      48.526 -13.667   8.735  1.00 46.83 LIG 0.24  C 
ATOM     26 O    SER G  14      48.279 -13.774   7.542  1.00 45.69 LIG-0.27  OA
ATOM     27  N   ASP G  15      48.473 -12.510   9.376  1.00 44.02 LIG-0.34  N 
ATOM     28 H    ASP G  15      48.666 -12.435  10.210  1.00 44.02 LIG 0.16  HD
BRANCH 27 29
ATOM     29  CA  ASP G  15      48.088 -11.236   8.763  1.00 44.06 LIG 0.19  C 
BRANCH 29 30
ATOM     30  C   ASP G  15      49.306 -10.333   8.551  1.00 44.73 LIG 0.24  C 
ATOM     31 O    ASP G  15      49.538  -9.857   7.444  1.00 45.25 LIG-0.27  OA
ATOM     32  N   VAL G  16      50.075 -10.099   9.613  1.00 39.33 LIG-0.34  N 
ATOM     33 H    VAL G  16      49.919 -10.428  10.393  1.00 39.33 LIG 0.16  HD
BRANCH 32 34
ATOM     34  CA  VAL G  16      51.266  -9.257   9.555  1.00 42.56 LIG 0.19  C 
BRANCH 34 35
ATOM     35  C   VAL G  16      52.545 -10.069   9.226  1.00 36.49 LIG 0.20  C 
ATOM     36 OXT  VAL G  16      52.686 -11.182   9.726  1.00 48.65 LIG-0.65  OA
ATOM     37 O    VAL G  16      53.405  -9.575   8.470  1.00 44.52 LIG-0.65  OA
ENDBRANCH 34 35
BRANCH 34 38
ATOM     38  CB  VAL G  16      51.410  -8.332  10.807  1.00 46.62 LIG 0.01  C 
ATOM     39  CG1 VAL G  16      51.775  -9.142  12.056  1.00 46.76 LIG 0.01  C 
ATOM     40  CG2 VAL G  16      52.439  -7.234  10.575  1.00 45.99 LIG 0.01  C 
ENDBRANCH 34 38
ENDBRANCH 32 34
ENDBRANCH 29 30
BRANCH 29 41
ATOM     41  CB  ASP G  15      46.995 -10.532   9.602  1.00 46.49 LIG 0.15  C 
BRANCH 41 42
ATOM     42  CG  ASP G  15      47.058  -9.018   9.590  1.00 64.67 LIG 0.17  C 
ATOM     43 OD1  ASP G  15      46.913  -8.425   8.492  1.00 66.12 LIG-0.65  OA
ATOM     44 OD2  ASP G  15      47.288  -8.425  10.674  1.00 71.61 LIG-0.65  OA
ENDBRANCH 41 42
ENDBRANCH 29 41
ENDBRANCH 27 29
ENDBRANCH 1 25
TORSDOF 19
ENDMDL
MODEL 23
USER: ADFR SOLUTION from run 22
USER: SCORE 14.978139 LL:  -1.913 LR: -13.633 RR:   0.000 FEB:  -7.965
USER: RMSD 4.786078
USER: SEED 21
USER: STATUS no improvement in best in 10 clusters for 5 generations
USER: GENES 21
USER: genes 0 Translation |==|  0.49179 0.46983 0.41828
USER: genes 1 Rotation |==|  0.57351 0.00686 0.50141 0.53746
USER: genes 2 Torsion [CB]-CA--N-[C] |==|  0.83889
USER: genes 3 Torsion [N]-C--CA-[N] |==|  0.87752
USER: genes 4 Torsion [C]-CA--CB-[CG] |==|  0.05899
USER: genes 5 Torsion [CA]-CB--CG-[CD] |==|  0.37950
USER: genes 6 Torsion [CB]-CG--CD-[OE2] |==|  0.70557
USER: genes 7 Torsion [C]-CA--N-[C] |==|  0.66845
USER: genes 8 Torsion [N]-C--CA-[N] |==|  0.36457
USER: genes 9 Torsion [C]-CA--CB-[CG2] |==|  0.88276
USER: genes 10 Torsion [CA]-CB--CG1-[CD1] |==|  0.69801
USER: genes 11 Torsion [N]-CA--CB-[OG] |==|  0.51599
USER: genes 12 Torsion [CA]-CB--OG-[HG] |==|  0.11880
USER: genes 13 Torsion [N]-CA--C-[N] |==|  0.95902
USER: genes 14 Torsion [C]-N--CA-[C] |==|  0.83529
USER: genes 15 Torsion [N]-CA--C-[N] |==|  0.38881
USER: genes 16 Torsion [C]-N--CA-[CB] |==|  0.44986
USER: genes 17 Torsion [N]-CA--C-[OXT] |==|  0.25042
USER: genes 18 Torsion [N]-CA--CB-[CG1] |==|  0.14231
USER: genes 19 Torsion [N]-CA--CB-[CG] |==|  0.57674
USER: genes 20 Torsion [CA]-CB--CG-[OD1] |==|  0.58816
ROOT
ATOM      1  CA  SER G  14      50.152 -17.024  10.764  1.00 44.70 LIG 0.20  C 
ENDROOT
BRANCH 1 2
ATOM      2  N   SER G  14      50.392 -17.925   9.633  1.00 46.20 LIG-0.34  N 
ATOM      3 H    SER G  14      49.760 -18.495   9.514  1.00 46.20 LIG 0.16  HD
ATOM      4  C   GLU G  13      51.493 -17.878   8.844  1.00 51.44 LIG 0.24  C 
ATOM      5 O    GLU G  13      52.418 -17.073   9.015  1.00 50.95 LIG-0.27  OA
BRANCH 4 6
ATOM      6  CA  GLU G  13      51.565 -18.881   7.670  1.00 50.06 LIG 0.18  C 
BRANCH 6 7
ATOM      7  CB  GLU G  13      50.682 -18.447   6.485  1.00 50.83 LIG 0.04  C 
BRANCH 7 8
ATOM      8  CG  GLU G  13      50.318 -16.976   6.420  1.00 52.88 LIG 0.12  C 
BRANCH 8 9
ATOM      9  CD  GLU G  13      50.425 -16.375   5.035  1.00 63.45 LIG 0.17  C 
ATOM     10 OE2  GLU G  13      51.387 -15.606   4.778  1.00 51.34 LIG-0.65  OA
ATOM     11 OE1  GLU G  13      49.519 -16.652   4.212  1.00 49.18 LIG-0.65  OA
ENDBRANCH 8 9
ENDBRANCH 7 8
ENDBRANCH 6 7
BRANCH 6 12
ATOM     12  N   GLU G  13      51.140 -20.195   8.150  1.00 52.96 LIG-0.35  N 
ATOM     13  C   ILE G  12      51.825 -21.351   8.184  1.00 61.55 LIG 0.26  C 
ATOM     14 O    ILE G  12      52.964 -21.493   7.732  1.00 62.55 LIG-0.27  OA
ATOM     15 H    GLU G  13      50.331 -20.166   8.439  1.00 52.96 LIG 0.16  HD
BRANCH 13 16
ATOM     16  CA  ILE G  12      51.087 -22.532   8.822  1.00 62.28 LIG 0.40  C 
ATOM     17  N   ILE G  12      51.126 -23.757   8.015  1.00 63.47 LIG 0.61  N 
BRANCH 16 18
ATOM     18  CB  ILE G  12      51.495 -22.740  10.319  1.00 65.80 LIG 0.03  C 
ATOM     19  CG2 ILE G  12      53.011 -22.580  10.516  1.00 67.40 LIG 0.01  C 
BRANCH 18 20
ATOM     20  CG1 ILE G  12      50.660 -21.856  11.296  1.00 66.47 LIG 0.00  C 
ATOM     21  CD1 ILE G  12      51.442 -20.663  11.959  1.00 71.32 LIG 0.01  C 
ENDBRANCH 18 20
ENDBRANCH 16 18
ENDBRANCH 13 16
ENDBRANCH 6 12
ENDBRANCH 4 6
ENDBRANCH 1 2
BRANCH 1 22
ATOM     22  CB  SER G  14      51.289 -17.127  11.781  1.00 46.99 LIG 0.20  C 
BRANCH 22 23
ATOM     23 OG   SER G  14      51.049 -16.376  12.957  1.00 54.54 LIG-0.40  OA
ATOM     24 HG   SER G  14      50.251 -16.480  13.199  1.00 54.54 LIG 0.21  HD
ENDBRANCH 22 23
ENDBRANCH 1 22
BRANCH 1 25
ATOM     25  C   SER G  14      49.990 -15.565  10.335  1.00 46.83 LIG 0.24  C 
ATOM     26 O    SER G  14      49.471 -14.748  11.082  1.00 45.69 LIG-0.27  OA
ATOM     27  N   ASP G  15      50.378 -15.266   9.105  1.00 44.02 LIG-0.34  N 
ATOM     28 H    ASP G  15      50.725 -15.849   8.576  1.00 44.02 LIG 0.16  HD
BRANCH 27 29
ATOM     29  CA  ASP G  15      50.269 -13.937   8.498  1.00 44.06 LIG 0.19  C 
BRANCH 29 30
ATOM     30  C   ASP G  15      48.814 -13.463   8.462  1.00 44.73 LIG 0.24  C 
ATOM     31 O    ASP G  15      47.913 -14.252   8.191  1.00 45.25 LIG-0.27  OA
ATOM     32  N   VAL G  16      48.590 -12.179   8.740  1.00 39.33 LIG-0.34  N 
ATOM     33 H    VAL G  16      49.216 -11.621   8.932  1.00 39.33 LIG 0.16  HD
BRANCH 32 34
ATOM     34  CA  VAL G  16      47.253 -11.594   8.744  1.00 42.56 LIG 0.19  C 
BRANCH 34 35
ATOM     35  C   VAL G  16      46.634 -11.533   7.324  1.00 36.49 LIG 0.20  C 
ATOM     36 OXT  VAL G  16      45.967 -12.486   6.926  1.00 48.65 LIG-0.65  OA
ATOM     37 O    VAL G  16      46.829 -10.527   6.615  1.00 44.52 LIG-0.65  OA
ENDBRANCH 34 35
BRANCH 34 38
ATOM     38  CB  VAL G  16      47.193 -10.236   9.517  1.00 46.62 LIG 0.01  C 
ATOM     39  CG1 VAL G  16      48.282  -9.273   9.031  1.00 46.76 LIG 0.01  C 
ATOM     40  CG2 VAL G  16      45.823  -9.584   9.394  1.00 45.99 LIG 0.01  C 
ENDBRANCH 34 38
ENDBRANCH 32 34
ENDBRANCH 29 30
BRANCH 29 41
ATOM     41  CB  ASP G  15      50.908 -13.924   7.089  1.00 46.49 LIG 0.15  C 
BRANCH 41 42
ATOM     42  CG  ASP G  15      51.444 -12.578   6.645  1.00 64.67 LIG 0.17  C 
ATOM     43 OD1  ASP G  15      51.412 -12.299   5.419  1.00 66.12 LIG-0.65  OA
ATOM     44 OD2  ASP G  15      51.930 -11.815   7.517  1.00 71.61 LIG-0.65  OA
ENDBRANCH 41 42
ENDBRANCH 29 41
ENDBRANCH 27 29
ENDBRANCH 1 25
TORSDOF 19
ENDMDL
MODEL 24
USER: ADFR SOLUTION from run 51
USER: SCORE 14.915461 LL:  -3.217 LR: -13.614 RR:   0.000 FEB:  -7.947
USER: RMSD 9.514287
USER: SEED 50
USER: STATUS no improvement in best in 12 clusters for 5 generations
USER: GENES 21
USER: genes 0 Translation |==|  0.34999 0.61786 0.34912
USER: genes 1 Rotation |==|  0.19794 0.37627 0.14579 0.63409
USER: genes 2 Torsion [CB]-CA--N-[C] |==|  0.17967
USER: genes 3 Torsion [N]-C--CA-[N] |==|  0.93055
USER: genes 4 Torsion [C]-CA--CB-[CG] |==|  0.86421
USER: genes 5 Torsion [CA]-CB--CG-[CD] |==|  0.80243
USER: genes 6 Torsion [CB]-CG--CD-[OE2] |==|  0.23993
USER: genes 7 Torsion [C]-CA--N-[C] |==|  0.45555
USER: genes 8 Torsion [N]-C--CA-[N] |==|  0.54755
USER: genes 9 Torsion [C]-CA--CB-[CG2] |==|  0.26972
USER: genes 10 Torsion [CA]-CB--CG1-[CD1] |==|  0.35874
USER: genes 11 Torsion [N]-CA--CB-[OG] |==|  0.07332
USER: genes 12 Torsion [CA]-CB--OG-[HG] |==|  0.81495
USER: genes 13 Torsion [N]-CA--C-[N] |==|  0.14389
USER: genes 14 Torsion [C]-N--CA-[C] |==|  0.18300
USER: genes 15 Torsion [N]-CA--C-[N] |==|  0.11269
USER: genes 16 Torsion [C]-N--CA-[CB] |==|  0.87013
USER: genes 17 Torsion [N]-CA--C-[OXT] |==|  0.89910
USER: genes 18 Torsion [N]-CA--CB-[CG1] |==|  0.50016
USER: genes 19 Torsion [N]-CA--CB-[CG] |==|  0.81672
USER: genes 20 Torsion [CA]-CB--CG-[OD1] |==|  0.54786
ROOT
ATOM      1  CA  SER G  14      47.813 -13.471   9.571  1.00 44.70 LIG 0.20  C 
ENDROOT
BRANCH 1 2
ATOM      2  N   SER G  14      47.986 -12.016   9.577  1.00 46.20 LIG-0.34  N 
ATOM      3 H    SER G  14      48.778 -11.768   9.352  1.00 46.20 LIG 0.16  HD
ATOM      4  C   GLU G  13      47.008 -11.135   9.901  1.00 51.44 LIG 0.24  C 
ATOM      5 O    GLU G  13      45.869 -11.480  10.242  1.00 50.95 LIG-0.27  OA
BRANCH 4 6
ATOM      6  CA  GLU G  13      47.355  -9.631   9.817  1.00 50.06 LIG 0.18  C 
BRANCH 6 7
ATOM      7  CB  GLU G  13      46.907  -9.009   8.481  1.00 50.83 LIG 0.04  C 
BRANCH 7 8
ATOM      8  CG  GLU G  13      47.297  -9.761   7.223  1.00 52.88 LIG 0.12  C 
BRANCH 8 9
ATOM      9  CD  GLU G  13      48.775  -9.700   6.901  1.00 63.45 LIG 0.17  C 
ATOM     10 OE2  GLU G  13      49.546 -10.546   7.424  1.00 51.34 LIG-0.65  OA
ATOM     11 OE1  GLU G  13      49.165  -8.779   6.145  1.00 49.18 LIG-0.65  OA
ENDBRANCH 8 9
ENDBRANCH 7 8
ENDBRANCH 6 7
BRANCH 6 12
ATOM     12  N   GLU G  13      48.800  -9.474   9.977  1.00 52.96 LIG-0.35  N 
ATOM     13  C   ILE G  12      49.578  -8.415   9.692  1.00 61.55 LIG 0.26  C 
ATOM     14 O    ILE G  12      49.167  -7.377   9.165  1.00 62.55 LIG-0.27  OA
ATOM     15 H    GLU G  13      49.149 -10.188  10.303  1.00 52.96 LIG 0.16  HD
BRANCH 13 16
ATOM     16  CA  ILE G  12      51.058  -8.572  10.054  1.00 62.28 LIG 0.40  C 
ATOM     17  N   ILE G  12      51.790  -7.302  10.107  1.00 63.47 LIG 0.61  N 
BRANCH 16 18
ATOM     18  CB  ILE G  12      51.261  -9.480  11.313  1.00 65.80 LIG 0.03  C 
ATOM     19  CG2 ILE G  12      51.593 -10.928  10.915  1.00 67.40 LIG 0.01  C 
BRANCH 18 20
ATOM     20  CG1 ILE G  12      52.285  -8.880  12.325  1.00 66.47 LIG 0.00  C 
ATOM     21  CD1 ILE G  12      51.788  -8.800  13.816  1.00 71.32 LIG 0.01  C 
ENDBRANCH 18 20
ENDBRANCH 16 18
ENDBRANCH 13 16
ENDBRANCH 6 12
ENDBRANCH 4 6
ENDBRANCH 1 2
BRANCH 1 22
ATOM     22  CB  SER G  14      46.800 -13.885   8.504  1.00 46.99 LIG 0.20  C 
BRANCH 22 23
ATOM     23 OG   SER G  14      46.721 -12.964   7.430  1.00 54.54 LIG-0.40  OA
ATOM     24 HG   SER G  14      46.404 -12.238   7.707  1.00 54.54 LIG 0.21  HD
ENDBRANCH 22 23
ENDBRANCH 1 22
BRANCH 1 25
ATOM     25  C   SER G  14      49.125 -14.223   9.341  1.00 46.83 LIG 0.24  C 
ATOM     26 O    SER G  14      49.195 -15.117   8.510  1.00 45.69 LIG-0.27  OA
ATOM     27  N   ASP G  15      50.138 -13.895  10.128  1.00 44.02 LIG-0.34  N 
ATOM     28 H    ASP G  15      50.078 -13.278  10.724  1.00 44.02 LIG 0.16  HD
BRANCH 27 29
ATOM     29  CA  ASP G  15      51.460 -14.525  10.088  1.00 44.06 LIG 0.19  C 
BRANCH 29 30
ATOM     30  C   ASP G  15      52.174 -14.229   8.767  1.00 44.73 LIG 0.24  C 
ATOM     31 O    ASP G  15      52.815 -15.109   8.199  1.00 45.25 LIG-0.27  OA
ATOM     32  N   VAL G  16      52.058 -12.994   8.281  1.00 39.33 LIG-0.34  N 
ATOM     33 H    VAL G  16      51.609 -12.373   8.672  1.00 39.33 LIG 0.16  HD
BRANCH 32 34
ATOM     34  CA  VAL G  16      52.684 -12.576   7.031  1.00 42.56 LIG 0.19  C 
BRANCH 34 35
ATOM     35  C   VAL G  16      51.833 -12.954   5.791  1.00 36.49 LIG 0.20  C 
ATOM     36 OXT  VAL G  16      51.213 -14.015   5.799  1.00 48.65 LIG-0.65  OA
ATOM     37 O    VAL G  16      51.802 -12.182   4.813  1.00 44.52 LIG-0.65  OA
ENDBRANCH 34 35
BRANCH 34 38
ATOM     38  CB  VAL G  16      54.180 -13.021   6.930  1.00 46.62 LIG 0.01  C 
ATOM     39  CG1 VAL G  16      54.806 -12.565   5.607  1.00 46.76 LIG 0.01  C 
ATOM     40  CG2 VAL G  16      54.998 -12.503   8.104  1.00 45.99 LIG 0.01  C 
ENDBRANCH 34 38
ENDBRANCH 32 34
ENDBRANCH 29 30
BRANCH 29 41
ATOM     41  CB  ASP G  15      51.351 -16.047  10.349  1.00 46.49 LIG 0.15  C 
BRANCH 41 42
ATOM     42  CG  ASP G  15      50.884 -16.423  11.740  1.00 64.67 LIG 0.17  C 
ATOM     43 OD1  ASP G  15      51.081 -17.599  12.136  1.00 66.12 LIG-0.65  OA
ATOM     44 OD2  ASP G  15      50.291 -15.551  12.424  1.00 71.61 LIG-0.65  OA
ENDBRANCH 41 42
ENDBRANCH 29 41
ENDBRANCH 27 29
ENDBRANCH 1 25
TORSDOF 19
ENDMDL
MODEL 25
USER: ADFR SOLUTION from run 30
USER: SCORE 14.116694 LL:  -3.183 LR: -13.562 RR:   0.000 FEB:  -7.894
USER: RMSD 5.246635
USER: SEED 29
USER: STATUS no improvement in best in 5 clusters for 5 generations
USER: GENES 21
USER: genes 0 Translation |==|  0.49654 0.48171 0.38027
USER: genes 1 Rotation |==|  0.46495 0.98317 0.37713 0.51493
USER: genes 2 Torsion [CB]-CA--N-[C] |==|  0.78871
USER: genes 3 Torsion [N]-C--CA-[N] |==|  0.26279
USER: genes 4 Torsion [C]-CA--CB-[CG] |==|  0.76883
USER: genes 5 Torsion [CA]-CB--CG-[CD] |==|  0.78144
USER: genes 6 Torsion [CB]-CG--CD-[OE2] |==|  0.36448
USER: genes 7 Torsion [C]-CA--N-[C] |==|  0.60168
USER: genes 8 Torsion [N]-C--CA-[N] |==|  0.41852
USER: genes 9 Torsion [C]-CA--CB-[CG2] |==|  0.95552
USER: genes 10 Torsion [CA]-CB--CG1-[CD1] |==|  0.81455
USER: genes 11 Torsion [N]-CA--CB-[OG] |==|  0.62157
USER: genes 12 Torsion [CA]-CB--OG-[HG] |==|  0.08914
USER: genes 13 Torsion [N]-CA--C-[N] |==|  0.59563
USER: genes 14 Torsion [C]-N--CA-[C] |==|  0.19617
USER: genes 15 Torsion [N]-CA--C-[N] |==|  0.34800
USER: genes 16 Torsion [C]-N--CA-[CB] |==|  0.18164
USER: genes 17 Torsion [N]-CA--C-[OXT] |==|  0.09992
USER: genes 18 Torsion [N]-CA--CB-[CG1] |==|  0.73488
USER: genes 19 Torsion [N]-CA--CB-[CG] |==|  0.33628
USER: genes 20 Torsion [CA]-CB--CG-[OD1] |==|  0.69219
ROOT
ATOM      1  CA  SER G  14      50.231 -16.739  10.109  1.00 44.70 LIG 0.20  C 
ENDROOT
BRANCH 1 2
ATOM      2  N   SER G  14      50.580 -18.066   9.595  1.00 46.20 LIG-0.34  N 
ATOM      3 H    SER G  14      49.992 -18.666   9.777  1.00 46.20 LIG 0.16  HD
ATOM      4  C   GLU G  13      51.711 -18.339   8.899  1.00 51.44 LIG 0.24  C 
ATOM      5 O    GLU G  13      52.574 -17.488   8.645  1.00 50.95 LIG-0.27  OA
BRANCH 4 6
ATOM      6  CA  GLU G  13      51.902 -19.789   8.399  1.00 50.06 LIG 0.18  C 
BRANCH 6 7
ATOM      7  CB  GLU G  13      53.375 -20.232   8.457  1.00 50.83 LIG 0.04  C 
BRANCH 7 8
ATOM      8  CG  GLU G  13      54.248 -19.824   7.285  1.00 52.88 LIG 0.12  C 
BRANCH 8 9
ATOM      9  CD  GLU G  13      54.070 -20.686   6.054  1.00 63.45 LIG 0.17  C 
ATOM     10 OE2  GLU G  13      53.896 -20.127   4.941  1.00 51.34 LIG-0.65  OA
ATOM     11 OE1  GLU G  13      54.074 -21.930   6.214  1.00 49.18 LIG-0.65  OA
ENDBRANCH 8 9
ENDBRANCH 7 8
ENDBRANCH 6 7
BRANCH 6 12
ATOM     12  N   GLU G  13      51.411 -19.879   7.025  1.00 52.96 LIG-0.35  N 
ATOM     13  C   ILE G  12      50.763 -20.888   6.416  1.00 61.55 LIG 0.26  C 
ATOM     14 O    ILE G  12      50.527 -21.977   6.946  1.00 62.55 LIG-0.27  OA
ATOM     15 H    GLU G  13      51.588 -19.158   6.591  1.00 52.96 LIG 0.16  HD
BRANCH 13 16
ATOM     16  CA  ILE G  12      50.331 -20.614   4.972  1.00 62.28 LIG 0.40  C 
ATOM     17  N   ILE G  12      50.272 -21.818   4.136  1.00 63.47 LIG 0.61  N 
BRANCH 16 18
ATOM     18  CB  ILE G  12      49.044 -19.724   4.904  1.00 65.80 LIG 0.03  C 
ATOM     19  CG2 ILE G  12      48.319 -19.678   6.259  1.00 67.40 LIG 0.01  C 
BRANCH 18 20
ATOM     20  CG1 ILE G  12      49.326 -18.306   4.319  1.00 66.47 LIG 0.00  C 
ATOM     21  CD1 ILE G  12      50.235 -17.380   5.208  1.00 71.32 LIG 0.01  C 
ENDBRANCH 18 20
ENDBRANCH 16 18
ENDBRANCH 13 16
ENDBRANCH 6 12
ENDBRANCH 4 6
ENDBRANCH 1 2
BRANCH 1 22
ATOM     22  CB  SER G  14      51.057 -16.412  11.353  1.00 46.99 LIG 0.20  C 
BRANCH 22 23
ATOM     23 OG   SER G  14      50.287 -15.828  12.389  1.00 54.54 LIG-0.40  OA
ATOM     24 HG   SER G  14      49.505 -16.133  12.364  1.00 54.54 LIG 0.21  HD
ENDBRANCH 22 23
ENDBRANCH 1 22
BRANCH 1 25
ATOM     25  C   SER G  14      50.424 -15.632   9.070  1.00 46.83 LIG 0.24  C 
ATOM     26 O    SER G  14      50.271 -15.860   7.879  1.00 45.69 LIG-0.27  OA
ATOM     27  N   ASP G  15      50.825 -14.457   9.529  1.00 44.02 LIG-0.34  N 
ATOM     28 H    ASP G  15      50.951 -14.307  10.367  1.00 44.02 LIG 0.16  HD
BRANCH 27 29
ATOM     29  CA  ASP G  15      51.102 -13.287   8.692  1.00 44.06 LIG 0.19  C 
BRANCH 29 30
ATOM     30  C   ASP G  15      49.811 -12.705   8.111  1.00 44.73 LIG 0.24  C 
ATOM     31 O    ASP G  15      49.042 -13.419   7.473  1.00 45.25 LIG-0.27  OA
ATOM     32  N   VAL G  16      49.576 -11.414   8.337  1.00 39.33 LIG-0.34  N 
ATOM     33 H    VAL G  16      50.108 -10.907   8.784  1.00 39.33 LIG 0.16  HD
BRANCH 32 34
ATOM     34  CA  VAL G  16      48.384 -10.731   7.844  1.00 42.56 LIG 0.19  C 
BRANCH 34 35
ATOM     35  C   VAL G  16      48.524  -9.187   7.904  1.00 36.49 LIG 0.20  C 
ATOM     36 OXT  VAL G  16      49.620  -8.682   7.675  1.00 48.65 LIG-0.65  OA
ATOM     37 O    VAL G  16      47.527  -8.494   8.189  1.00 44.52 LIG-0.65  OA
ENDBRANCH 34 35
BRANCH 34 38
ATOM     38  CB  VAL G  16      47.069 -11.270   8.495  1.00 46.62 LIG 0.01  C 
ATOM     39  CG1 VAL G  16      46.409 -12.335   7.612  1.00 46.76 LIG 0.01  C 
ATOM     40  CG2 VAL G  16      47.324 -11.828   9.888  1.00 45.99 LIG 0.01  C 
ENDBRANCH 34 38
ENDBRANCH 32 34
ENDBRANCH 29 30
BRANCH 29 41
ATOM     41  CB  ASP G  15      52.121 -13.637   7.580  1.00 46.49 LIG 0.15  C 
BRANCH 41 42
ATOM     42  CG  ASP G  15      51.622 -13.418   6.167  1.00 64.67 LIG 0.17  C 
ATOM     43 OD1  ASP G  15      51.413 -14.427   5.447  1.00 66.12 LIG-0.65  OA
ATOM     44 OD2  ASP G  15      51.473 -12.237   5.766  1.00 71.61 LIG-0.65  OA
ENDBRANCH 41 42
ENDBRANCH 29 41
ENDBRANCH 27 29
ENDBRANCH 1 25
TORSDOF 19
ENDMDL
MODEL 26
USER: ADFR SOLUTION from run 161
USER: SCORE 12.635940 LL:  -1.889 LR: -13.521 RR:   0.000 FEB:  -7.854
USER: RMSD 3.780496
USER: SEED 160
USER: STATUS no improvement in best in 7 clusters for 5 generations
USER: GENES 21
USER: genes 0 Translation |==|  0.48389 0.53504 0.38337
USER: genes 1 Rotation |==|  0.40747 0.96325 0.38170 0.61331
USER: genes 2 Torsion [CB]-CA--N-[C] |==|  0.42796
USER: genes 3 Torsion [N]-C--CA-[N] |==|  0.43429
USER: genes 4 Torsion [C]-CA--CB-[CG] |==|  0.29153
USER: genes 5 Torsion [CA]-CB--CG-[CD] |==|  0.89682
USER: genes 6 Torsion [CB]-CG--CD-[OE2] |==|  0.79974
USER: genes 7 Torsion [C]-CA--N-[C] |==|  0.49444
USER: genes 8 Torsion [N]-C--CA-[N] |==|  0.24900
USER: genes 9 Torsion [C]-CA--CB-[CG2] |==|  0.15719
USER: genes 10 Torsion [CA]-CB--CG1-[CD1] |==|  0.81105
USER: genes 11 Torsion [N]-CA--CB-[OG] |==|  0.90958
USER: genes 12 Torsion [CA]-CB--OG-[HG] |==|  0.86519
USER: genes 13 Torsion [N]-CA--C-[N] |==|  0.77906
USER: genes 14 Torsion [C]-N--CA-[C] |==|  0.11226
USER: genes 15 Torsion [N]-CA--C-[N] |==|  0.16793
USER: genes 16 Torsion [C]-N--CA-[CB] |==|  0.28380
USER: genes 17 Torsion [N]-CA--C-[OXT] |==|  0.71634
USER: genes 18 Torsion [N]-CA--CB-[CG1] |==|  0.09566
USER: genes 19 Torsion [N]-CA--CB-[CG] |==|  0.23303
USER: genes 20 Torsion [CA]-CB--CG-[OD1] |==|  0.78644
ROOT
ATOM      1  CA  SER G  14      50.022 -15.459  10.162  1.00 44.70 LIG 0.20  C 
ENDROOT
BRANCH 1 2
ATOM      2  N   SER G  14      50.919 -16.570   9.833  1.00 46.20 LIG-0.34  N 
ATOM      3 H    SER G  14      51.647 -16.566  10.292  1.00 46.20 LIG 0.16  HD
ATOM      4  C   GLU G  13      50.647 -17.517   8.903  1.00 51.44 LIG 0.24  C 
ATOM      5 O    GLU G  13      49.611 -17.525   8.224  1.00 50.95 LIG-0.27  OA
BRANCH 4 6
ATOM      6  CA  GLU G  13      51.691 -18.641   8.710  1.00 50.06 LIG 0.18  C 
BRANCH 6 7
ATOM      7  CB  GLU G  13      52.848 -18.203   7.794  1.00 50.83 LIG 0.04  C 
BRANCH 7 8
ATOM      8  CG  GLU G  13      54.166 -17.890   8.476  1.00 52.88 LIG 0.12  C 
BRANCH 8 9
ATOM      9  CD  GLU G  13      54.019 -17.203   9.817  1.00 63.45 LIG 0.17  C 
ATOM     10 OE2  GLU G  13      53.648 -16.002   9.846  1.00 51.34 LIG-0.65  OA
ATOM     11 OE1  GLU G  13      54.309 -17.865  10.842  1.00 49.18 LIG-0.65  OA
ENDBRANCH 8 9
ENDBRANCH 7 8
ENDBRANCH 6 7
BRANCH 6 12
ATOM     12  N   GLU G  13      51.022 -19.810   8.141  1.00 52.96 LIG-0.35  N 
ATOM     13  C   ILE G  12      51.541 -20.995   7.776  1.00 61.55 LIG 0.26  C 
ATOM     14 O    ILE G  12      52.745 -21.264   7.817  1.00 62.55 LIG-0.27  OA
ATOM     15 H    GLU G  13      50.180 -19.663   8.047  1.00 52.96 LIG 0.16  HD
BRANCH 13 16
ATOM     16  CA  ILE G  12      50.529 -22.029   7.273  1.00 62.28 LIG 0.40  C 
ATOM     17  N   ILE G  12      50.292 -21.966   5.827  1.00 63.47 LIG 0.61  N 
BRANCH 16 18
ATOM     18  CB  ILE G  12      50.844 -23.466   7.807  1.00 65.80 LIG 0.03  C 
ATOM     19  CG2 ILE G  12      50.898 -23.497   9.343  1.00 67.40 LIG 0.01  C 
BRANCH 18 20
ATOM     20  CG1 ILE G  12      49.892 -24.549   7.212  1.00 66.47 LIG 0.00  C 
ATOM     21  CD1 ILE G  12      48.392 -24.452   7.674  1.00 71.32 LIG 0.01  C 
ENDBRANCH 18 20
ENDBRANCH 16 18
ENDBRANCH 13 16
ENDBRANCH 6 12
ENDBRANCH 4 6
ENDBRANCH 1 2
BRANCH 1 22
ATOM     22  CB  SER G  14      50.267 -14.980  11.593  1.00 46.99 LIG 0.20  C 
BRANCH 22 23
ATOM     23 OG   SER G  14      50.661 -16.024  12.466  1.00 54.54 LIG-0.40  OA
ATOM     24 HG   SER G  14      50.141 -16.677  12.374  1.00 54.54 LIG 0.21  HD
ENDBRANCH 22 23
ENDBRANCH 1 22
BRANCH 1 25
ATOM     25  C   SER G  14      50.167 -14.277   9.202  1.00 46.83 LIG 0.24  C 
ATOM     26 O    SER G  14      49.399 -14.138   8.261  1.00 45.69 LIG-0.27  OA
ATOM     27  N   ASP G  15      51.195 -13.470   9.412  1.00 44.02 LIG-0.34  N 
ATOM     28 H    ASP G  15      51.744 -13.582  10.064  1.00 44.02 LIG 0.16  HD
BRANCH 27 29
ATOM     29  CA  ASP G  15      51.525 -12.308   8.582  1.00 44.06 LIG 0.19  C 
BRANCH 29 30
ATOM     30  C   ASP G  15      50.262 -11.546   8.172  1.00 44.73 LIG 0.24  C 
ATOM     31 O    ASP G  15      49.974 -11.420   6.985  1.00 45.25 LIG-0.27  OA
ATOM     32  N   VAL G  16      49.514 -11.045   9.153  1.00 39.33 LIG-0.34  N 
ATOM     33 H    VAL G  16      49.709 -11.130   9.987  1.00 39.33 LIG 0.16  HD
BRANCH 32 34
ATOM     34  CA  VAL G  16      48.285 -10.298   8.906  1.00 42.56 LIG 0.19  C 
BRANCH 34 35
ATOM     35  C   VAL G  16      48.272  -8.929   9.634  1.00 36.49 LIG 0.20  C 
ATOM     36 OXT  VAL G  16      47.619  -8.814  10.668  1.00 48.65 LIG-0.65  OA
ATOM     37 O    VAL G  16      48.916  -7.976   9.154  1.00 44.52 LIG-0.65  OA
ENDBRANCH 34 35
BRANCH 34 38
ATOM     38  CB  VAL G  16      47.001 -11.156   9.153  1.00 46.62 LIG 0.01  C 
ATOM     39  CG1 VAL G  16      47.206 -12.144  10.306  1.00 46.76 LIG 0.01  C 
ATOM     40  CG2 VAL G  16      45.787 -10.277   9.424  1.00 45.99 LIG 0.01  C 
ENDBRANCH 34 38
ENDBRANCH 32 34
ENDBRANCH 29 30
BRANCH 29 41
ATOM     41  CB  ASP G  15      52.359 -12.734   7.350  1.00 46.49 LIG 0.15  C 
BRANCH 41 42
ATOM     42  CG  ASP G  15      51.548 -13.234   6.172  1.00 64.67 LIG 0.17  C 
ATOM     43 OD1  ASP G  15      51.076 -14.398   6.226  1.00 66.12 LIG-0.65  OA
ATOM     44 OD2  ASP G  15      51.413 -12.476   5.179  1.00 71.61 LIG-0.65  OA
ENDBRANCH 41 42
ENDBRANCH 29 41
ENDBRANCH 27 29
ENDBRANCH 1 25
TORSDOF 19
ENDMDL
MODEL 27
USER: ADFR SOLUTION from run 133
USER: SCORE 15.491136 LL:  -3.324 LR: -13.510 RR:   0.000 FEB:  -7.842
USER: RMSD 8.661420
USER: SEED 132
USER: STATUS no improvement in best in 8 clusters for 5 generations
USER: GENES 21
USER: genes 0 Translation |==|  0.56115 0.56726 0.41348
USER: genes 1 Rotation |==|  0.05703 0.36287 0.39148 0.65229
USER: genes 2 Torsion [CB]-CA--N-[C] |==|  0.47778
USER: genes 3 Torsion [N]-C--CA-[N] |==|  0.00918
USER: genes 4 Torsion [C]-CA--CB-[CG] |==|  0.48238
USER: genes 5 Torsion [CA]-CB--CG-[CD] |==|  0.06291
USER: genes 6 Torsion [CB]-CG--CD-[OE2] |==|  0.25689
USER: genes 7 Torsion [C]-CA--N-[C] |==|  0.73522
USER: genes 8 Torsion [N]-C--CA-[N] |==|  0.14842
USER: genes 9 Torsion [C]-CA--CB-[CG2] |==|  0.83098
USER: genes 10 Torsion [CA]-CB--CG1-[CD1] |==|  0.03049
USER: genes 11 Torsion [N]-CA--CB-[OG] |==|  0.65133
USER: genes 12 Torsion [CA]-CB--OG-[HG] |==|  0.64161
USER: genes 13 Torsion [N]-CA--C-[N] |==|  0.86041
USER: genes 14 Torsion [C]-N--CA-[C] |==|  0.75228
USER: genes 15 Torsion [N]-CA--C-[N] |==|  0.01048
USER: genes 16 Torsion [C]-N--CA-[CB] |==|  0.84428
USER: genes 17 Torsion [N]-CA--C-[OXT] |==|  0.61417
USER: genes 18 Torsion [N]-CA--CB-[CG1] |==|  0.54327
USER: genes 19 Torsion [N]-CA--CB-[CG] |==|  0.20367
USER: genes 20 Torsion [CA]-CB--CG-[OD1] |==|  0.38758
ROOT
ATOM      1  CA  SER G  14      51.297 -14.686  10.682  1.00 44.70 LIG 0.20  C 
ENDROOT
BRANCH 1 2
ATOM      2  N   SER G  14      50.849 -13.372  10.209  1.00 46.20 LIG-0.34  N 
ATOM      3 H    SER G  14      49.993 -13.292  10.191  1.00 46.20 LIG 0.16  HD
ATOM      4  C   GLU G  13      51.686 -12.373   9.836  1.00 51.44 LIG 0.24  C 
ATOM      5 O    GLU G  13      52.919 -12.482   9.841  1.00 50.95 LIG-0.27  OA
BRANCH 4 6
ATOM      6  CA  GLU G  13      51.041 -11.038   9.399  1.00 50.06 LIG 0.18  C 
BRANCH 6 7
ATOM      7  CB  GLU G  13      51.581  -9.844  10.208  1.00 50.83 LIG 0.04  C 
BRANCH 7 8
ATOM      8  CG  GLU G  13      51.127  -8.467   9.762  1.00 52.88 LIG 0.12  C 
BRANCH 8 9
ATOM      9  CD  GLU G  13      49.835  -8.469   8.973  1.00 63.45 LIG 0.17  C 
ATOM     10 OE2  GLU G  13      48.749  -8.308   9.586  1.00 51.34 LIG-0.65  OA
ATOM     11 OE1  GLU G  13      49.913  -8.664   7.737  1.00 49.18 LIG-0.65  OA
ENDBRANCH 8 9
ENDBRANCH 7 8
ENDBRANCH 6 7
BRANCH 6 12
ATOM     12  N   GLU G  13      49.592 -11.139   9.570  1.00 52.96 LIG-0.35  N 
ATOM     13  C   ILE G  12      48.650 -11.467   8.669  1.00 61.55 LIG 0.26  C 
ATOM     14 O    ILE G  12      48.880 -11.687   7.477  1.00 62.55 LIG-0.27  OA
ATOM     15 H    GLU G  13      49.367 -10.952  10.378  1.00 52.96 LIG 0.16  HD
BRANCH 13 16
ATOM     16  CA  ILE G  12      47.220 -11.542   9.213  1.00 62.28 LIG 0.40  C 
ATOM     17  N   ILE G  12      46.794 -10.329   9.920  1.00 63.47 LIG 0.61  N 
BRANCH 16 18
ATOM     18  CB  ILE G  12      46.205 -12.041   8.130  1.00 65.80 LIG 0.03  C 
ATOM     19  CG2 ILE G  12      46.162 -11.092   6.922  1.00 67.40 LIG 0.01  C 
BRANCH 18 20
ATOM     20  CG1 ILE G  12      46.443 -13.528   7.726  1.00 66.47 LIG 0.00  C 
ATOM     21  CD1 ILE G  12      47.444 -14.323   8.642  1.00 71.32 LIG 0.01  C 
ENDBRANCH 18 20
ENDBRANCH 16 18
ENDBRANCH 13 16
ENDBRANCH 6 12
ENDBRANCH 4 6
ENDBRANCH 1 2
BRANCH 1 22
ATOM     22  CB  SER G  14      50.113 -15.499  11.204  1.00 46.99 LIG 0.20  C 
BRANCH 22 23
ATOM     23 OG   SER G  14      50.304 -15.966  12.528  1.00 54.54 LIG-0.40  OA
ATOM     24 HG   SER G  14      50.150 -16.791  12.558  1.00 54.54 LIG 0.21  HD
ENDBRANCH 22 23
ENDBRANCH 1 22
BRANCH 1 25
ATOM     25  C   SER G  14      52.022 -15.488   9.600  1.00 46.83 LIG 0.24  C 
ATOM     26 O    SER G  14      53.136 -15.948   9.804  1.00 45.69 LIG-0.27  OA
ATOM     27  N   ASP G  15      51.407 -15.592   8.432  1.00 44.02 LIG-0.34  N 
ATOM     28 H    ASP G  15      50.632 -15.250   8.286  1.00 44.02 LIG 0.16  HD
BRANCH 27 29
ATOM     29  CA  ASP G  15      51.954 -16.286   7.263  1.00 44.06 LIG 0.19  C 
BRANCH 29 30
ATOM     30  C   ASP G  15      52.793 -15.339   6.400  1.00 44.73 LIG 0.24  C 
ATOM     31 O    ASP G  15      53.270 -15.729   5.338  1.00 45.25 LIG-0.27  OA
ATOM     32  N   VAL G  16      52.964 -14.099   6.856  1.00 39.33 LIG-0.34  N 
ATOM     33 H    VAL G  16      52.632 -13.818   7.598  1.00 39.33 LIG 0.16  HD
BRANCH 32 34
ATOM     34  CA  VAL G  16      53.738 -13.094   6.136  1.00 42.56 LIG 0.19  C 
BRANCH 34 35
ATOM     35  C   VAL G  16      52.985 -12.550   4.894  1.00 36.49 LIG 0.20  C 
ATOM     36 OXT  VAL G  16      53.613 -12.363   3.855  1.00 48.65 LIG-0.65  OA
ATOM     37 O    VAL G  16      51.765 -12.309   4.977  1.00 44.52 LIG-0.65  OA
ENDBRANCH 34 35
BRANCH 34 38
ATOM     38  CB  VAL G  16      55.199 -13.563   5.832  1.00 46.62 LIG 0.01  C 
ATOM     39  CG1 VAL G  16      56.090 -12.382   5.433  1.00 46.76 LIG 0.01  C 
ATOM     40  CG2 VAL G  16      55.806 -14.301   7.016  1.00 45.99 LIG 0.01  C 
ENDBRANCH 34 38
ENDBRANCH 32 34
ENDBRANCH 29 30
BRANCH 29 41
ATOM     41  CB  ASP G  15      50.824 -16.954   6.443  1.00 46.49 LIG 0.15  C 
BRANCH 41 42
ATOM     42  CG  ASP G  15      49.960 -15.996   5.650  1.00 64.67 LIG 0.17  C 
ATOM     43 OD1  ASP G  15      49.609 -16.331   4.490  1.00 66.12 LIG-0.65  OA
ATOM     44 OD2  ASP G  15      49.660 -14.894   6.174  1.00 71.61 LIG-0.65  OA
ENDBRANCH 41 42
ENDBRANCH 29 41
ENDBRANCH 27 29
ENDBRANCH 1 25
TORSDOF 19
ENDMDL
MODEL 28
USER: ADFR SOLUTION from run 117
USER: SCORE 14.552080 LL:  -2.328 LR: -13.484 RR:   0.000 FEB:  -7.816
USER: RMSD 4.947967
USER: SEED 116
USER: STATUS no improvement in best in 1 clusters for 5 generations
USER: GENES 21
USER: genes 0 Translation |==|  0.52268 0.49761 0.42084
USER: genes 1 Rotation |==|  0.41255 0.98147 0.58083 0.56326
USER: genes 2 Torsion [CB]-CA--N-[C] |==|  0.42153
USER: genes 3 Torsion [N]-C--CA-[N] |==|  0.36154
USER: genes 4 Torsion [C]-CA--CB-[CG] |==|  0.00117
USER: genes 5 Torsion [CA]-CB--CG-[CD] |==|  0.38341
USER: genes 6 Torsion [CB]-CG--CD-[OE2] |==|  0.36305
USER: genes 7 Torsion [C]-CA--N-[C] |==|  0.82879
USER: genes 8 Torsion [N]-C--CA-[N] |==|  0.86358
USER: genes 9 Torsion [C]-CA--CB-[CG2] |==|  0.67353
USER: genes 10 Torsion [CA]-CB--CG1-[CD1] |==|  0.60181
USER: genes 11 Torsion [N]-CA--CB-[OG] |==|  0.46804
USER: genes 12 Torsion [CA]-CB--OG-[HG] |==|  0.30134
USER: genes 13 Torsion [N]-CA--C-[N] |==|  0.90989
USER: genes 14 Torsion [C]-N--CA-[C] |==|  0.80556
USER: genes 15 Torsion [N]-CA--C-[N] |==|  0.38624
USER: genes 16 Torsion [C]-N--CA-[CB] |==|  0.31833
USER: genes 17 Torsion [N]-CA--C-[OXT] |==|  0.26438
USER: genes 18 Torsion [N]-CA--CB-[CG1] |==|  0.50461
USER: genes 19 Torsion [N]-CA--CB-[CG] |==|  0.88827
USER: genes 20 Torsion [CA]-CB--CG-[OD1] |==|  0.76141
ROOT
ATOM      1  CA  SER G  14      50.662 -16.357  10.809  1.00 44.70 LIG 0.20  C 
ENDROOT
BRANCH 1 2
ATOM      2  N   SER G  14      51.350 -16.766   9.580  1.00 46.20 LIG-0.34  N 
ATOM      3 H    SER G  14      52.197 -16.870   9.685  1.00 46.20 LIG 0.16  HD
ATOM      4  C   GLU G  13      50.730 -16.965   8.392  1.00 51.44 LIG 0.24  C 
ATOM      5 O    GLU G  13      49.514 -16.802   8.225  1.00 50.95 LIG-0.27  OA
BRANCH 4 6
ATOM      6  CA  GLU G  13      51.605 -17.432   7.206  1.00 50.06 LIG 0.18  C 
BRANCH 6 7
ATOM      7  CB  GLU G  13      51.803 -16.319   6.161  1.00 50.83 LIG 0.04  C 
BRANCH 7 8
ATOM      8  CG  GLU G  13      51.139 -14.988   6.459  1.00 52.88 LIG 0.12  C 
BRANCH 8 9
ATOM      9  CD  GLU G  13      52.000 -13.784   6.145  1.00 63.45 LIG 0.17  C 
ATOM     10 OE2  GLU G  13      51.510 -12.847   5.465  1.00 51.34 LIG-0.65  OA
ATOM     11 OE1  GLU G  13      53.185 -13.796   6.558  1.00 49.18 LIG-0.65  OA
ENDBRANCH 8 9
ENDBRANCH 7 8
ENDBRANCH 6 7
BRANCH 6 12
ATOM     12  N   GLU G  13      50.969 -18.591   6.582  1.00 52.96 LIG-0.35  N 
ATOM     13  C   ILE G  12      50.693 -19.797   7.109  1.00 61.55 LIG 0.26  C 
ATOM     14 O    ILE G  12      51.010 -20.142   8.251  1.00 62.55 LIG-0.27  OA
ATOM     15 H    GLU G  13      50.764 -18.422   5.765  1.00 52.96 LIG 0.16  HD
BRANCH 13 16
ATOM     16  CA  ILE G  12      49.950 -20.763   6.181  1.00 62.28 LIG 0.40  C 
ATOM     17  N   ILE G  12      48.774 -20.173   5.534  1.00 63.47 LIG 0.61  N 
BRANCH 16 18
ATOM     18  CB  ILE G  12      50.923 -21.495   5.196  1.00 65.80 LIG 0.03  C 
ATOM     19  CG2 ILE G  12      50.603 -21.150   3.732  1.00 67.40 LIG 0.01  C 
BRANCH 18 20
ATOM     20  CG1 ILE G  12      52.423 -21.271   5.558  1.00 66.47 LIG 0.00  C 
ATOM     21  CD1 ILE G  12      53.398 -21.131   4.332  1.00 71.32 LIG 0.01  C 
ENDBRANCH 18 20
ENDBRANCH 16 18
ENDBRANCH 13 16
ENDBRANCH 6 12
ENDBRANCH 4 6
ENDBRANCH 1 2
BRANCH 1 22
ATOM     22  CB  SER G  14      51.410 -16.874  12.037  1.00 46.99 LIG 0.20  C 
BRANCH 22 23
ATOM     23 OG   SER G  14      50.947 -16.300  13.248  1.00 54.54 LIG-0.40  OA
ATOM     24 HG   SER G  14      50.523 -16.877  13.687  1.00 54.54 LIG 0.21  HD
ENDBRANCH 22 23
ENDBRANCH 1 22
BRANCH 1 25
ATOM     25  C   SER G  14      50.498 -14.841  10.918  1.00 46.83 LIG 0.24  C 
ATOM     26 O    SER G  14      49.496 -14.355  11.424  1.00 45.69 LIG-0.27  OA
ATOM     27  N   ASP G  15      51.458 -14.103  10.382  1.00 44.02 LIG-0.34  N 
ATOM     28 H    ASP G  15      52.152 -14.449  10.010  1.00 44.02 LIG 0.16  HD
BRANCH 27 29
ATOM     29  CA  ASP G  15      51.464 -12.638  10.352  1.00 44.06 LIG 0.19  C 
BRANCH 29 30
ATOM     30  C   ASP G  15      50.396 -12.101   9.396  1.00 44.73 LIG 0.24  C 
ATOM     31 O    ASP G  15      50.202 -12.648   8.314  1.00 45.25 LIG-0.27  OA
ATOM     32  N   VAL G  16      49.707 -11.035   9.799  1.00 39.33 LIG-0.34  N 
ATOM     33 H    VAL G  16      49.836 -10.647  10.556  1.00 39.33 LIG 0.16  HD
BRANCH 32 34
ATOM     34  CA  VAL G  16      48.659 -10.420   8.990  1.00 42.56 LIG 0.19  C 
BRANCH 34 35
ATOM     35  C   VAL G  16      49.022  -8.976   8.556  1.00 36.49 LIG 0.20  C 
ATOM     36 OXT  VAL G  16      49.538  -8.800   7.455  1.00 48.65 LIG-0.65  OA
ATOM     37 O    VAL G  16      48.790  -8.029   9.333  1.00 44.52 LIG-0.65  OA
ENDBRANCH 34 35
BRANCH 34 38
ATOM     38  CB  VAL G  16      47.243 -10.546   9.643  1.00 46.62 LIG 0.01  C 
ATOM     39  CG1 VAL G  16      46.164  -9.927   8.748  1.00 46.76 LIG 0.01  C 
ATOM     40  CG2 VAL G  16      46.899 -11.995   9.955  1.00 45.99 LIG 0.01  C 
ENDBRANCH 34 38
ENDBRANCH 32 34
ENDBRANCH 29 30
BRANCH 29 41
ATOM     41  CB  ASP G  15      52.872 -12.103   9.994  1.00 46.49 LIG 0.15  C 
BRANCH 41 42
ATOM     42  CG  ASP G  15      54.020 -12.850  10.641  1.00 64.67 LIG 0.17  C 
ATOM     43 OD1  ASP G  15      54.379 -12.507  11.795  1.00 66.12 LIG-0.65  OA
ATOM     44 OD2  ASP G  15      54.586 -13.757   9.980  1.00 71.61 LIG-0.65  OA
ENDBRANCH 41 42
ENDBRANCH 29 41
ENDBRANCH 27 29
ENDBRANCH 1 25
TORSDOF 19
ENDMDL
MODEL 29
USER: ADFR SOLUTION from run 97
USER: SCORE 15.138596 LL:  -3.592 LR: -13.339 RR:   0.000 FEB:  -7.671
USER: RMSD 9.432665
USER: SEED 96
USER: STATUS no improvement in best in 7 clusters for 5 generations
USER: GENES 21
USER: genes 0 Translation |==|  0.63105 0.74386 0.45835
USER: genes 1 Rotation |==|  0.16372 0.75715 0.28695 0.65936
USER: genes 2 Torsion [CB]-CA--N-[C] |==|  0.38029
USER: genes 3 Torsion [N]-C--CA-[N] |==|  0.99135
USER: genes 4 Torsion [C]-CA--CB-[CG] |==|  0.58889
USER: genes 5 Torsion [CA]-CB--CG-[CD] |==|  0.23192
USER: genes 6 Torsion [CB]-CG--CD-[OE2] |==|  0.48759
USER: genes 7 Torsion [C]-CA--N-[C] |==|  0.75398
USER: genes 8 Torsion [N]-C--CA-[N] |==|  0.41296
USER: genes 9 Torsion [C]-CA--CB-[CG2] |==|  0.83123
USER: genes 10 Torsion [CA]-CB--CG1-[CD1] |==|  0.43418
USER: genes 11 Torsion [N]-CA--CB-[OG] |==|  0.90078
USER: genes 12 Torsion [CA]-CB--OG-[HG] |==|  0.83667
USER: genes 13 Torsion [N]-CA--C-[N] |==|  0.37288
USER: genes 14 Torsion [C]-N--CA-[C] |==|  0.72226
USER: genes 15 Torsion [N]-CA--C-[N] |==|  0.97805
USER: genes 16 Torsion [C]-N--CA-[CB] |==|  0.30767
USER: genes 17 Torsion [N]-CA--C-[OXT] |==|  0.29296
USER: genes 18 Torsion [N]-CA--CB-[CG1] |==|  0.75263
USER: genes 19 Torsion [N]-CA--CB-[CG] |==|  0.54461
USER: genes 20 Torsion [CA]-CB--CG-[OD1] |==|  0.07480
ROOT
ATOM      1  CA  SER G  14      52.450 -10.447  11.456  1.00 44.70 LIG 0.20  C 
ENDROOT
BRANCH 1 2
ATOM      2  N   SER G  14      53.833 -10.074  11.766  1.00 46.20 LIG-0.34  N 
ATOM      3 H    SER G  14      53.980  -9.229  11.700  1.00 46.20 LIG 0.16  HD
ATOM      4  C   GLU G  13      54.797 -10.958  12.123  1.00 51.44 LIG 0.24  C 
ATOM      5 O    GLU G  13      54.604 -12.178  12.205  1.00 50.95 LIG-0.27  OA
BRANCH 4 6
ATOM      6  CA  GLU G  13      56.195 -10.385  12.452  1.00 50.06 LIG 0.18  C 
BRANCH 6 7
ATOM      7  CB  GLU G  13      56.610 -10.677  13.906  1.00 50.83 LIG 0.04  C 
BRANCH 7 8
ATOM      8  CG  GLU G  13      57.487  -9.637  14.578  1.00 52.88 LIG 0.12  C 
BRANCH 8 9
ATOM      9  CD  GLU G  13      56.721  -8.475  15.172  1.00 63.45 LIG 0.17  C 
ATOM     10 OE2  GLU G  13      57.349  -7.603  15.825  1.00 51.34 LIG-0.65  OA
ATOM     11 OE1  GLU G  13      55.477  -8.457  15.007  1.00 49.18 LIG-0.65  OA
ENDBRANCH 8 9
ENDBRANCH 7 8
ENDBRANCH 6 7
BRANCH 6 12
ATOM     12  N   GLU G  13      56.175  -8.941  12.222  1.00 52.96 LIG-0.35  N 
ATOM     13  C   ILE G  12      56.434  -8.255  11.095  1.00 61.55 LIG 0.26  C 
ATOM     14 O    ILE G  12      56.807  -8.774  10.040  1.00 62.55 LIG-0.27  OA
ATOM     15 H    GLU G  13      55.963  -8.521  12.941  1.00 52.96 LIG 0.16  HD
BRANCH 13 16
ATOM     16  CA  ILE G  12      56.251  -6.737  11.195  1.00 62.28 LIG 0.40  C 
ATOM     17  N   ILE G  12      57.158  -5.976  10.328  1.00 63.47 LIG 0.61  N 
BRANCH 16 18
ATOM     18  CB  ILE G  12      54.748  -6.318  11.072  1.00 65.80 LIG 0.03  C 
ATOM     19  CG2 ILE G  12      54.154  -6.742   9.719  1.00 67.40 LIG 0.01  C 
BRANCH 18 20
ATOM     20  CG1 ILE G  12      53.891  -6.794  12.286  1.00 66.47 LIG 0.00  C 
ATOM     21  CD1 ILE G  12      52.580  -5.967  12.549  1.00 71.32 LIG 0.01  C 
ENDBRANCH 18 20
ENDBRANCH 16 18
ENDBRANCH 13 16
ENDBRANCH 6 12
ENDBRANCH 4 6
ENDBRANCH 1 2
BRANCH 1 22
ATOM     22  CB  SER G  14      51.474  -9.464  12.100  1.00 46.99 LIG 0.20  C 
BRANCH 22 23
ATOM     23 OG   SER G  14      51.911  -9.000  13.366  1.00 54.54 LIG-0.40  OA
ATOM     24 HG   SER G  14      52.015  -9.654  13.883  1.00 54.54 LIG 0.21  HD
ENDBRANCH 22 23
ENDBRANCH 1 22
BRANCH 1 25
ATOM     25  C   SER G  14      52.179 -10.515   9.952  1.00 46.83 LIG 0.24  C 
ATOM     26 O    SER G  14      52.514  -9.600   9.214  1.00 45.69 LIG-0.27  OA
ATOM     27  N   ASP G  15      51.511 -11.574   9.520  1.00 44.02 LIG-0.34  N 
ATOM     28 H    ASP G  15      51.260 -12.206  10.046  1.00 44.02 LIG 0.16  HD
BRANCH 27 29
ATOM     29  CA  ASP G  15      51.122 -11.801   8.126  1.00 44.06 LIG 0.19  C 
BRANCH 29 30
ATOM     30  C   ASP G  15      49.656 -11.429   7.893  1.00 44.73 LIG 0.24  C 
ATOM     31 O    ASP G  15      49.193 -11.421   6.756  1.00 45.25 LIG-0.27  OA
ATOM     32  N   VAL G  16      48.931 -11.129   8.970  1.00 39.33 LIG-0.34  N 
ATOM     33 H    VAL G  16      49.247 -11.134   9.770  1.00 39.33 LIG 0.16  HD
BRANCH 32 34
ATOM     34  CA  VAL G  16      47.521 -10.759   8.893  1.00 42.56 LIG 0.19  C 
BRANCH 34 35
ATOM     35  C   VAL G  16      47.257  -9.332   9.440  1.00 36.49 LIG 0.20  C 
ATOM     36 OXT  VAL G  16      47.031  -8.424   8.644  1.00 48.65 LIG-0.65  OA
ATOM     37 O    VAL G  16      47.287  -9.134  10.671  1.00 44.52 LIG-0.65  OA
ENDBRANCH 34 35
BRANCH 34 38
ATOM     38  CB  VAL G  16      46.579 -11.850   9.499  1.00 46.62 LIG 0.01  C 
ATOM     39  CG1 VAL G  16      46.168 -12.878   8.440  1.00 46.76 LIG 0.01  C 
ATOM     40  CG2 VAL G  16      47.227 -12.550  10.686  1.00 45.99 LIG 0.01  C 
ENDBRANCH 34 38
ENDBRANCH 32 34
ENDBRANCH 29 30
BRANCH 29 41
ATOM     41  CB  ASP G  15      51.414 -13.262   7.707  1.00 46.49 LIG 0.15  C 
BRANCH 41 42
ATOM     42  CG  ASP G  15      51.413 -13.509   6.213  1.00 64.67 LIG 0.17  C 
ATOM     43 OD1  ASP G  15      51.698 -12.550   5.451  1.00 66.12 LIG-0.65  OA
ATOM     44 OD2  ASP G  15      51.094 -14.652   5.799  1.00 71.61 LIG-0.65  OA
ENDBRANCH 41 42
ENDBRANCH 29 41
ENDBRANCH 27 29
ENDBRANCH 1 25
TORSDOF 19
ENDMDL
MODEL 30
USER: ADFR SOLUTION from run 171
USER: SCORE 14.248329 LL:  -2.839 LR: -13.329 RR:   0.000 FEB:  -7.662
USER: RMSD 4.330976
USER: SEED 170
USER: STATUS no improvement in best in 6 clusters for 5 generations
USER: GENES 21
USER: genes 0 Translation |==|  0.46077 0.53933 0.38110
USER: genes 1 Rotation |==|  0.45161 0.98253 0.39147 0.55520
USER: genes 2 Torsion [CB]-CA--N-[C] |==|  0.81577
USER: genes 3 Torsion [N]-C--CA-[N] |==|  0.85830
USER: genes 4 Torsion [C]-CA--CB-[CG] |==|  0.46640
USER: genes 5 Torsion [CA]-CB--CG-[CD] |==|  0.01345
USER: genes 6 Torsion [CB]-CG--CD-[OE2] |==|  0.25505
USER: genes 7 Torsion [C]-CA--N-[C] |==|  0.73599
USER: genes 8 Torsion [N]-C--CA-[N] |==|  0.37115
USER: genes 9 Torsion [C]-CA--CB-[CG2] |==|  0.51085
USER: genes 10 Torsion [CA]-CB--CG1-[CD1] |==|  0.42886
USER: genes 11 Torsion [N]-CA--CB-[OG] |==|  0.91519
USER: genes 12 Torsion [CA]-CB--OG-[HG] |==|  0.82988
USER: genes 13 Torsion [N]-CA--C-[N] |==|  0.73358
USER: genes 14 Torsion [C]-N--CA-[C] |==|  0.10804
USER: genes 15 Torsion [N]-CA--C-[N] |==|  0.15556
USER: genes 16 Torsion [C]-N--CA-[CB] |==|  0.30292
USER: genes 17 Torsion [N]-CA--C-[OXT] |==|  0.68388
USER: genes 18 Torsion [N]-CA--CB-[CG1] |==|  0.76791
USER: genes 19 Torsion [N]-CA--CB-[CG] |==|  0.23246
USER: genes 20 Torsion [CA]-CB--CG-[OD1] |==|  0.79596
ROOT
ATOM      1  CA  SER G  14      49.641 -15.356  10.123  1.00 44.70 LIG 0.20  C 
ENDROOT
BRANCH 1 2
ATOM      2  N   SER G  14      50.183 -16.608   9.588  1.00 46.20 LIG-0.34  N 
ATOM      3 H    SER G  14      49.597 -17.234   9.527  1.00 46.20 LIG 0.16  HD
ATOM      4  C   GLU G  13      51.476 -16.780   9.219  1.00 51.44 LIG 0.24  C 
ATOM      5 O    GLU G  13      52.334 -15.893   9.317  1.00 50.95 LIG-0.27  OA
BRANCH 4 6
ATOM      6  CA  GLU G  13      51.869 -18.158   8.638  1.00 50.06 LIG 0.18  C 
BRANCH 6 7
ATOM      7  CB  GLU G  13      51.273 -18.384   7.236  1.00 50.83 LIG 0.04  C 
BRANCH 7 8
ATOM      8  CG  GLU G  13      51.816 -19.566   6.456  1.00 52.88 LIG 0.12  C 
BRANCH 8 9
ATOM      9  CD  GLU G  13      52.794 -20.421   7.232  1.00 63.45 LIG 0.17  C 
ATOM     10 OE2  GLU G  13      52.358 -21.407   7.879  1.00 51.34 LIG-0.65  OA
ATOM     11 OE1  GLU G  13      54.001 -20.079   7.216  1.00 49.18 LIG-0.65  OA
ENDBRANCH 8 9
ENDBRANCH 7 8
ENDBRANCH 6 7
BRANCH 6 12
ATOM     12  N   GLU G  13      51.402 -19.201   9.550  1.00 52.96 LIG-0.35  N 
ATOM     13  C   ILE G  12      52.066 -19.831  10.535  1.00 61.55 LIG 0.26  C 
ATOM     14 O    ILE G  12      53.260 -19.649  10.789  1.00 62.55 LIG-0.27  OA
ATOM     15 H    GLU G  13      50.582 -19.401   9.389  1.00 52.96 LIG 0.16  HD
BRANCH 13 16
ATOM     16  CA  ILE G  12      51.241 -20.833  11.346  1.00 62.28 LIG 0.40  C 
ATOM     17  N   ILE G  12      51.916 -22.119  11.557  1.00 63.47 LIG 0.61  N 
BRANCH 16 18
ATOM     18  CB  ILE G  12      50.661 -20.195  12.653  1.00 65.80 LIG 0.03  C 
ATOM     19  CG2 ILE G  12      49.917 -21.236  13.505  1.00 67.40 LIG 0.01  C 
BRANCH 18 20
ATOM     20  CG1 ILE G  12      51.734 -19.404  13.462  1.00 66.47 LIG 0.00  C 
ATOM     21  CD1 ILE G  12      51.174 -18.257  14.380  1.00 71.32 LIG 0.01  C 
ENDBRANCH 18 20
ENDBRANCH 16 18
ENDBRANCH 13 16
ENDBRANCH 6 12
ENDBRANCH 4 6
ENDBRANCH 1 2
BRANCH 1 22
ATOM     22  CB  SER G  14      50.255 -15.047  11.488  1.00 46.99 LIG 0.20  C 
BRANCH 22 23
ATOM     23 OG   SER G  14      50.603 -16.213  12.214  1.00 54.54 LIG-0.40  OA
ATOM     24 HG   SER G  14      49.913 -16.669  12.358  1.00 54.54 LIG 0.21  HD
ENDBRANCH 22 23
ENDBRANCH 1 22
BRANCH 1 25
ATOM     25  C   SER G  14      49.864 -14.166   9.188  1.00 46.83 LIG 0.24  C 
ATOM     26 O    SER G  14      49.126 -13.975   8.232  1.00 45.69 LIG-0.27  OA
ATOM     27  N   ASP G  15      50.925 -13.413   9.435  1.00 44.02 LIG-0.34  N 
ATOM     28 H    ASP G  15      51.452 -13.563  10.098  1.00 44.02 LIG 0.16  HD
BRANCH 27 29
ATOM     29  CA  ASP G  15      51.328 -12.255   8.633  1.00 44.06 LIG 0.19  C 
BRANCH 29 30
ATOM     30  C   ASP G  15      50.111 -11.447   8.177  1.00 44.73 LIG 0.24  C 
ATOM     31 O    ASP G  15      49.925 -11.230   6.983  1.00 45.25 LIG-0.27  OA
ATOM     32  N   VAL G  16      49.287 -11.009   9.128  1.00 39.33 LIG-0.34  N 
ATOM     33 H    VAL G  16      49.410 -11.157   9.966  1.00 39.33 LIG 0.16  HD
BRANCH 32 34
ATOM     34  CA  VAL G  16      48.090 -10.228   8.835  1.00 42.56 LIG 0.19  C 
BRANCH 34 35
ATOM     35  C   VAL G  16      48.108  -8.840   9.527  1.00 36.49 LIG 0.20  C 
ATOM     36 OXT  VAL G  16      47.283  -8.605  10.406  1.00 48.65 LIG-0.65  OA
ATOM     37 O    VAL G  16      48.951  -7.993   9.174  1.00 44.52 LIG-0.65  OA
ENDBRANCH 34 35
BRANCH 34 38
ATOM     38  CB  VAL G  16      46.772 -11.036   9.076  1.00 46.62 LIG 0.01  C 
ATOM     39  CG1 VAL G  16      46.423 -11.904   7.863  1.00 46.76 LIG 0.01  C 
ATOM     40  CG2 VAL G  16      46.867 -11.897  10.328  1.00 45.99 LIG 0.01  C 
ENDBRANCH 34 38
ENDBRANCH 32 34
ENDBRANCH 29 30
BRANCH 29 41
ATOM     41  CB  ASP G  15      52.202 -12.697   7.435  1.00 46.49 LIG 0.15  C 
BRANCH 41 42
ATOM     42  CG  ASP G  15      51.428 -13.162   6.219  1.00 64.67 LIG 0.17  C 
ATOM     43 OD1  ASP G  15      50.863 -14.284   6.266  1.00 66.12 LIG-0.65  OA
ATOM     44 OD2  ASP G  15      51.413 -12.421   5.204  1.00 71.61 LIG-0.65  OA
ENDBRANCH 41 42
ENDBRANCH 29 41
ENDBRANCH 27 29
ENDBRANCH 1 25
TORSDOF 19
ENDMDL
MODEL 31
USER: ADFR SOLUTION from run 61
USER: SCORE 16.582263 LL:  -4.424 LR: -13.326 RR:   0.000 FEB:  -7.658
USER: RMSD 8.968368
USER: SEED 60
USER: STATUS no improvement in best in 4 clusters for 5 generations
USER: GENES 21
USER: genes 0 Translation |==|  0.59083 0.64352 0.40723
USER: genes 1 Rotation |==|  0.38097 0.09737 0.40315 0.75365
USER: genes 2 Torsion [CB]-CA--N-[C] |==|  0.21667
USER: genes 3 Torsion [N]-C--CA-[N] |==|  0.87297
USER: genes 4 Torsion [C]-CA--CB-[CG] |==|  0.94091
USER: genes 5 Torsion [CA]-CB--CG-[CD] |==|  0.76120
USER: genes 6 Torsion [CB]-CG--CD-[OE2] |==|  0.09693
USER: genes 7 Torsion [C]-CA--N-[C] |==|  0.75203
USER: genes 8 Torsion [N]-C--CA-[N] |==|  0.68547
USER: genes 9 Torsion [C]-CA--CB-[CG2] |==|  0.18876
USER: genes 10 Torsion [CA]-CB--CG1-[CD1] |==|  0.52229
USER: genes 11 Torsion [N]-CA--CB-[OG] |==|  0.81128
USER: genes 12 Torsion [CA]-CB--OG-[HG] |==|  0.04180
USER: genes 13 Torsion [N]-CA--C-[N] |==|  0.19301
USER: genes 14 Torsion [C]-N--CA-[C] |==|  0.75318
USER: genes 15 Torsion [N]-CA--C-[N] |==|  0.99283
USER: genes 16 Torsion [C]-N--CA-[CB] |==|  0.23307
USER: genes 17 Torsion [N]-CA--C-[OXT] |==|  0.04136
USER: genes 18 Torsion [N]-CA--CB-[CG1] |==|  0.65083
USER: genes 19 Torsion [N]-CA--CB-[CG] |==|  0.83426
USER: genes 20 Torsion [CA]-CB--CG-[OD1] |==|  0.47030
ROOT
ATOM      1  CA  SER G  14      51.787 -12.856  10.574  1.00 44.70 LIG 0.20  C 
ENDROOT
BRANCH 1 2
ATOM      2  N   SER G  14      50.482 -13.038   9.930  1.00 46.20 LIG-0.34  N 
ATOM      3 H    SER G  14      50.375 -12.544   9.235  1.00 46.20 LIG 0.16  HD
ATOM      4  C   GLU G  13      49.530 -13.895  10.373  1.00 51.44 LIG 0.24  C 
ATOM      5 O    GLU G  13      49.665 -14.599  11.382  1.00 50.95 LIG-0.27  OA
BRANCH 4 6
ATOM      6  CA  GLU G  13      48.225 -13.989   9.549  1.00 50.06 LIG 0.18  C 
BRANCH 6 7
ATOM      7  CB  GLU G  13      48.417 -14.797   8.253  1.00 50.83 LIG 0.04  C 
BRANCH 7 8
ATOM      8  CG  GLU G  13      49.840 -14.925   7.743  1.00 52.88 LIG 0.12  C 
BRANCH 8 9
ATOM      9  CD  GLU G  13      50.287 -13.773   6.868  1.00 63.45 LIG 0.17  C 
ATOM     10 OE2  GLU G  13      49.868 -12.616   7.126  1.00 51.34 LIG-0.65  OA
ATOM     11 OE1  GLU G  13      51.038 -14.040   5.899  1.00 49.18 LIG-0.65  OA
ENDBRANCH 8 9
ENDBRANCH 7 8
ENDBRANCH 6 7
BRANCH 6 12
ATOM     12  N   GLU G  13      47.777 -12.635   9.227  1.00 52.96 LIG-0.35  N 
ATOM     13  C   ILE G  12      46.969 -11.816   9.925  1.00 61.55 LIG 0.26  C 
ATOM     14 O    ILE G  12      46.407 -12.133  10.976  1.00 62.55 LIG-0.27  OA
ATOM     15 H    GLU G  13      48.105 -12.376   8.476  1.00 52.96 LIG 0.16  HD
BRANCH 13 16
ATOM     16  CA  ILE G  12      46.762 -10.425   9.318  1.00 62.28 LIG 0.40  C 
ATOM     17  N   ILE G  12      47.337  -9.341  10.122  1.00 63.47 LIG 0.61  N 
BRANCH 16 18
ATOM     18  CB  ILE G  12      47.159 -10.380   7.805  1.00 65.80 LIG 0.03  C 
ATOM     19  CG2 ILE G  12      46.196 -11.214   6.945  1.00 67.40 LIG 0.01  C 
BRANCH 18 20
ATOM     20  CG1 ILE G  12      47.339  -8.923   7.276  1.00 66.47 LIG 0.00  C 
ATOM     21  CD1 ILE G  12      47.544  -8.792   5.722  1.00 71.32 LIG 0.01  C 
ENDBRANCH 18 20
ENDBRANCH 16 18
ENDBRANCH 13 16
ENDBRANCH 6 12
ENDBRANCH 4 6
ENDBRANCH 1 2
BRANCH 1 22
ATOM     22  CB  SER G  14      52.728 -14.004  10.211  1.00 46.99 LIG 0.20  C 
BRANCH 22 23
ATOM     23 OG   SER G  14      52.328 -15.243  10.770  1.00 54.54 LIG-0.40  OA
ATOM     24 HG   SER G  14      51.533 -15.187  11.037  1.00 54.54 LIG 0.21  HD
ENDBRANCH 22 23
ENDBRANCH 1 22
BRANCH 1 25
ATOM     25  C   SER G  14      52.448 -11.526  10.205  1.00 46.83 LIG 0.24  C 
ATOM     26 O    SER G  14      53.479 -11.502   9.548  1.00 45.69 LIG-0.27  OA
ATOM     27  N   ASP G  15      51.881 -10.432  10.689  1.00 44.02 LIG-0.34  N 
ATOM     28 H    ASP G  15      51.166 -10.455  11.167  1.00 44.02 LIG 0.16  HD
BRANCH 27 29
ATOM     29  CA  ASP G  15      52.385  -9.072  10.480  1.00 44.06 LIG 0.19  C 
BRANCH 29 30
ATOM     30  C   ASP G  15      53.389  -8.681  11.567  1.00 44.73 LIG 0.24  C 
ATOM     31 O    ASP G  15      53.949  -7.589  11.527  1.00 45.25 LIG-0.27  OA
ATOM     32  N   VAL G  16      53.610  -9.571  12.533  1.00 39.33 LIG-0.34  N 
ATOM     33 H    VAL G  16      53.221 -10.337  12.568  1.00 39.33 LIG 0.16  HD
BRANCH 32 34
ATOM     34  CA  VAL G  16      54.540  -9.328  13.631  1.00 42.56 LIG 0.19  C 
BRANCH 34 35
ATOM     35  C   VAL G  16      55.255 -10.625  14.094  1.00 36.49 LIG 0.20  C 
ATOM     36 OXT  VAL G  16      55.211 -11.617  13.370  1.00 48.65 LIG-0.65  OA
ATOM     37 O    VAL G  16      55.850 -10.636  15.189  1.00 44.52 LIG-0.65  OA
ENDBRANCH 34 35
BRANCH 34 38
ATOM     38  CB  VAL G  16      53.892  -8.514  14.799  1.00 46.62 LIG 0.01  C 
ATOM     39  CG1 VAL G  16      54.718  -7.267  15.130  1.00 46.76 LIG 0.01  C 
ATOM     40  CG2 VAL G  16      52.457  -8.123  14.477  1.00 45.99 LIG 0.01  C 
ENDBRANCH 34 38
ENDBRANCH 32 34
ENDBRANCH 29 30
BRANCH 29 41
ATOM     41  CB  ASP G  15      51.216  -8.062  10.393  1.00 46.49 LIG 0.15  C 
BRANCH 41 42
ATOM     42  CG  ASP G  15      50.228  -8.324   9.275  1.00 64.67 LIG 0.17  C 
ATOM     43 OD1  ASP G  15      49.152  -7.675   9.267  1.00 66.12 LIG-0.65  OA
ATOM     44 OD2  ASP G  15      50.514  -9.204   8.424  1.00 71.61 LIG-0.65  OA
ENDBRANCH 41 42
ENDBRANCH 29 41
ENDBRANCH 27 29
ENDBRANCH 1 25
TORSDOF 19
ENDMDL
MODEL 32
USER: ADFR SOLUTION from run 176
USER: SCORE 13.644355 LL:  -2.905 LR: -13.283 RR:   0.000 FEB:  -7.615
USER: RMSD 2.830143
USER: SEED 175
USER: STATUS no improvement in best in 13 clusters for 5 generations
USER: GENES 21
USER: genes 0 Translation |==|  0.49773 0.49798 0.35737
USER: genes 1 Rotation |==|  0.51648 0.73088 0.30857 0.89972
USER: genes 2 Torsion [CB]-CA--N-[C] |==|  0.43759
USER: genes 3 Torsion [N]-C--CA-[N] |==|  0.43782
USER: genes 4 Torsion [C]-CA--CB-[CG] |==|  0.04370
USER: genes 5 Torsion [CA]-CB--CG-[CD] |==|  0.26670
USER: genes 6 Torsion [CB]-CG--CD-[OE2] |==|  0.21032
USER: genes 7 Torsion [C]-CA--N-[C] |==|  0.68782
USER: genes 8 Torsion [N]-C--CA-[N] |==|  0.38451
USER: genes 9 Torsion [C]-CA--CB-[CG2] |==|  0.73319
USER: genes 10 Torsion [CA]-CB--CG1-[CD1] |==|  0.60621
USER: genes 11 Torsion [N]-CA--CB-[OG] |==|  0.18529
USER: genes 12 Torsion [CA]-CB--OG-[HG] |==|  0.90992
USER: genes 13 Torsion [N]-CA--C-[N] |==|  0.53974
USER: genes 14 Torsion [C]-N--CA-[C] |==|  0.69442
USER: genes 15 Torsion [N]-CA--C-[N] |==|  0.70663
USER: genes 16 Torsion [C]-N--CA-[CB] |==|  0.21126
USER: genes 17 Torsion [N]-CA--C-[OXT] |==|  0.95447
USER: genes 18 Torsion [N]-CA--CB-[CG1] |==|  0.71614
USER: genes 19 Torsion [N]-CA--CB-[CG] |==|  0.07176
USER: genes 20 Torsion [CA]-CB--CG-[OD1] |==|  0.77695
ROOT
ATOM      1  CA  SER G  14      50.250 -16.348   9.714  1.00 44.70 LIG 0.20  C 
ENDROOT
BRANCH 1 2
ATOM      2  N   SER G  14      50.393 -17.390  10.735  1.00 46.20 LIG-0.34  N 
ATOM      3 H    SER G  14      49.888 -17.265  11.420  1.00 46.20 LIG 0.16  HD
ATOM      4  C   GLU G  13      51.229 -18.451  10.628  1.00 51.44 LIG 0.24  C 
ATOM      5 O    GLU G  13      51.973 -18.634   9.655  1.00 50.95 LIG-0.27  OA
BRANCH 4 6
ATOM      6  CA  GLU G  13      51.224 -19.476  11.785  1.00 50.06 LIG 0.18  C 
BRANCH 6 7
ATOM      7  CB  GLU G  13      52.075 -19.004  12.978  1.00 50.83 LIG 0.04  C 
BRANCH 7 8
ATOM      8  CG  GLU G  13      52.451 -17.535  12.999  1.00 52.88 LIG 0.12  C 
BRANCH 8 9
ATOM      9  CD  GLU G  13      51.530 -16.675  13.838  1.00 63.45 LIG 0.17  C 
ATOM     10 OE2  GLU G  13      51.631 -16.719  15.090  1.00 51.34 LIG-0.65  OA
ATOM     11 OE1  GLU G  13      50.681 -15.976  13.234  1.00 49.18 LIG-0.65  OA
ENDBRANCH 8 9
ENDBRANCH 7 8
ENDBRANCH 6 7
BRANCH 6 12
ATOM     12  N   GLU G  13      51.735 -20.751  11.284  1.00 52.96 LIG-0.35  N 
ATOM     13  C   ILE G  12      51.090 -21.919  11.112  1.00 61.55 LIG 0.26  C 
ATOM     14 O    ILE G  12      49.913 -22.111  11.429  1.00 62.55 LIG-0.27  OA
ATOM     15 H    GLU G  13      52.569 -20.688  11.087  1.00 52.96 LIG 0.16  HD
BRANCH 13 16
ATOM     16  CA  ILE G  12      51.925 -23.045  10.496  1.00 62.28 LIG 0.40  C 
ATOM     17  N   ILE G  12      51.706 -24.353  11.123  1.00 63.47 LIG 0.61  N 
BRANCH 16 18
ATOM     18  CB  ILE G  12      51.825 -23.061   8.933  1.00 65.80 LIG 0.03  C 
ATOM     19  CG2 ILE G  12      50.763 -24.060   8.448  1.00 67.40 LIG 0.01  C 
BRANCH 18 20
ATOM     20  CG1 ILE G  12      51.638 -21.635   8.329  1.00 66.47 LIG 0.00  C 
ATOM     21  CD1 ILE G  12      50.663 -21.548   7.098  1.00 71.32 LIG 0.01  C 
ENDBRANCH 18 20
ENDBRANCH 16 18
ENDBRANCH 13 16
ENDBRANCH 6 12
ENDBRANCH 4 6
ENDBRANCH 1 2
BRANCH 1 22
ATOM     22  CB  SER G  14      48.902 -15.644   9.852  1.00 46.99 LIG 0.20  C 
BRANCH 22 23
ATOM     23 OG   SER G  14      48.790 -14.893  11.049  1.00 54.54 LIG-0.40  OA
ATOM     24 HG   SER G  14      49.229 -15.270  11.658  1.00 54.54 LIG 0.21  HD
ENDBRANCH 22 23
ENDBRANCH 1 22
BRANCH 1 25
ATOM     25  C   SER G  14      51.371 -15.309   9.769  1.00 46.83 LIG 0.24  C 
ATOM     26 O    SER G  14      52.363 -15.495  10.458  1.00 45.69 LIG-0.27  OA
ATOM     27  N   ASP G  15      51.170 -14.189   9.091  1.00 44.02 LIG-0.34  N 
ATOM     28 H    ASP G  15      50.461 -14.054   8.623  1.00 44.02 LIG 0.16  HD
BRANCH 27 29
ATOM     29  CA  ASP G  15      52.105 -13.062   9.051  1.00 44.06 LIG 0.19  C 
BRANCH 29 30
ATOM     30  C   ASP G  15      51.549 -11.855   9.810  1.00 44.73 LIG 0.24  C 
ATOM     31 O    ASP G  15      51.534 -11.849  11.038  1.00 45.25 LIG-0.27  OA
ATOM     32  N   VAL G  16      51.098 -10.837   9.079  1.00 39.33 LIG-0.34  N 
ATOM     33 H    VAL G  16      51.106 -10.832   8.218  1.00 39.33 LIG 0.16  HD
BRANCH 32 34
ATOM     34  CA  VAL G  16      50.544  -9.624   9.671  1.00 42.56 LIG 0.19  C 
BRANCH 34 35
ATOM     35  C   VAL G  16      49.542  -8.911   8.725  1.00 36.49 LIG 0.20  C 
ATOM     36 OXT  VAL G  16      49.538  -9.210   7.534  1.00 48.65 LIG-0.65  OA
ATOM     37 O    VAL G  16      48.771  -8.050   9.190  1.00 44.52 LIG-0.65  OA
ENDBRANCH 34 35
BRANCH 34 38
ATOM     38  CB  VAL G  16      51.647  -8.678  10.249  1.00 46.62 LIG 0.01  C 
ATOM     39  CG1 VAL G  16      51.733  -8.793  11.775  1.00 46.76 LIG 0.01  C 
ATOM     40  CG2 VAL G  16      53.007  -8.960   9.625  1.00 45.99 LIG 0.01  C 
ENDBRANCH 34 38
ENDBRANCH 32 34
ENDBRANCH 29 30
BRANCH 29 41
ATOM     41  CB  ASP G  15      52.465 -12.700   7.590  1.00 46.49 LIG 0.15  C 
BRANCH 41 42
ATOM     42  CG  ASP G  15      51.418 -13.079   6.563  1.00 64.67 LIG 0.17  C 
ATOM     43 OD1  ASP G  15      51.372 -14.272   6.171  1.00 66.12 LIG-0.65  OA
ATOM     44 OD2  ASP G  15      50.663 -12.175   6.123  1.00 71.61 LIG-0.65  OA
ENDBRANCH 41 42
ENDBRANCH 29 41
ENDBRANCH 27 29
ENDBRANCH 1 25
TORSDOF 19
ENDMDL
