MODEL 1
USER: ADFR SOLUTION from run 78
USER: SCORE 14.925283 LL:  -0.938 LR: -14.637 RR:   0.000 FEB: -11.057
USER: RMSD 3.105357
USER: SEED 77
USER: STATUS no improvement in best in 11 clusters for 5 generations
USER: GENES 14
USER: genes 0 Translation |==|  0.39286 0.57843 0.46737
USER: genes 1 Rotation |==|  0.53993 0.54281 0.92048 0.76414
USER: genes 2 Torsion [CB]-CA--N-[H1] |==|  0.05460
USER: genes 3 Torsion [N]-CA--CB-[CG] |==|  0.77937
USER: genes 4 Torsion [CA]-CB--CG-[CD] |==|  0.19274
USER: genes 5 Torsion [CB]-CG--CD-[NE] |==|  0.38116
USER: genes 6 Torsion [CG]-CD--NE-[CZ] |==|  0.32611
USER: genes 7 Torsion [N]-CA--C-[N] |==|  0.11514
USER: genes 8 Torsion [C]-N--CA-[CB] |==|  0.22042
USER: genes 9 Torsion [N]-CA--CB-[CG2] |==|  0.08962
USER: genes 10 Torsion [CA]-CB--CG1-[CD1] |==|  0.69515
USER: genes 11 Torsion [N]-CA--C-[N] |==|  0.95263
USER: genes 12 Torsion [C]-N--CA-[CB] |==|  0.86985
USER: genes 13 Torsion [N]-CA--C-[O] |==|  0.23658
ROOT
ATOM      1  CA  ARG B   1      27.544  11.150  -9.449  1.00 59.17 LIG 0.27  C 
ENDROOT
BRANCH 1 2
ATOM      2  N   ARG B   1      26.526  10.091  -9.688  1.00 58.83 LIG-0.07  N 
ATOM      3 H3   ARG B   1      25.920  10.108  -9.037  1.00 58.83 LIG 0.28  HD
ATOM      4 H2   ARG B   1      26.923   9.295  -9.701  1.00 58.83 LIG 0.28  HD
ATOM      5 H1   ARG B   1      26.125  10.235 -10.469  1.00 58.83 LIG 0.28  HD
ENDBRANCH 1 2
BRANCH 1 6
ATOM      6  CB  ARG B   1      27.277  12.387 -10.316  1.00 59.00 LIG 0.04  C 
BRANCH 6 7
ATOM      7  CG  ARG B   1      27.734  12.283 -11.773  1.00 58.73 LIG 0.02  C 
BRANCH 7 8
ATOM      8  CD  ARG B   1      26.904  11.295 -12.596  1.00 57.79 LIG 0.14  C 
BRANCH 8 9
ATOM      9  NE  ARG B   1      26.589  11.833 -13.921  1.00 57.71 LIG-0.23  N 
ATOM     10  CZ  ARG B   1      26.990  11.300 -15.075  1.00 57.43 LIG 0.67  C 
ATOM     11  NH1 ARG B   1      27.735  10.203 -15.097  1.00 56.57 LIG-0.23  N 
ATOM     12  NH2 ARG B   1      26.637  11.868 -16.222  1.00 57.93 LIG-0.23  N 
ATOM     13 2HH1 ARG B   1      27.987   9.869 -15.848  1.00 56.57 LIG 0.17  HD
ATOM     14 1HH1 ARG B   1      27.967   9.825 -14.359  1.00 56.57 LIG 0.17  HD
ATOM     15 2HH2 ARG B   1      26.894  11.526 -16.967  1.00 57.93 LIG 0.17  HD
ATOM     16 1HH2 ARG B   1      26.151  12.578 -16.218  1.00 57.93 LIG 0.17  HD
ATOM     17 HE   ARG B   1      26.109  12.546 -13.958  1.00 57.71 LIG 0.18  HD
ENDBRANCH 8 9
ENDBRANCH 7 8
ENDBRANCH 6 7
ENDBRANCH 1 6
BRANCH 1 18
ATOM     18  C   ARG B   1      27.559  11.548  -7.986  1.00 59.69 LIG 0.25  C 
ATOM     19 O    ARG B   1      27.650  12.730  -7.664  1.00 59.48 LIG-0.27  OA
ATOM     20  N   ILE B   2      27.458  10.558  -7.105  1.00 60.56 LIG-0.35  N 
ATOM     21 H    ILE B   2      27.323   9.735  -7.317  1.00 60.56 LIG 0.16  HD
BRANCH 20 22
ATOM     22  CA  ILE B   2      27.573  10.805  -5.673  1.00 61.73 LIG 0.18  C 
BRANCH 22 23
ATOM     23  CB  ILE B   2      26.254  11.375  -5.063  1.00 61.78 LIG 0.01  C 
ATOM     24  CG2 ILE B   2      25.005  10.841  -5.781  1.00 61.94 LIG 0.01  C 
BRANCH 23 25
ATOM     25  CG1 ILE B   2      26.199  11.122  -3.553  1.00 62.37 LIG 0.00  C 
ATOM     26  CD1 ILE B   2      25.162  10.085  -3.139  1.00 63.06 LIG 0.01  C 
ENDBRANCH 23 25
ENDBRANCH 22 23
BRANCH 22 27
ATOM     27  C   ILE B   2      28.043   9.529  -4.976  1.00 62.33 LIG 0.24  C 
ATOM     28 O    ILE B   2      28.482   9.569  -3.820  1.00 62.62 LIG-0.27  OA
ATOM     29  N   ALA B   3      27.917   8.399  -5.671  1.00 63.04 LIG-0.35  N 
ATOM     30 H    ALA B   3      27.653   8.368  -6.489  1.00 63.04 LIG 0.16  HD
BRANCH 29 31
ATOM     31  CA  ALA B   3      28.226   7.090  -5.085  1.00 63.50 LIG 0.16  C 
ATOM     32  CB  ALA B   3      29.567   7.134  -4.348  1.00 63.68 LIG 0.04  C 
BRANCH 31 33
ATOM     33  C   ALA B   3      27.120   6.580  -4.165  1.00 63.68 LIG 0.22  C 
ATOM     34 O    ALA B   3      26.151   5.967  -4.614  1.00 63.94 LIG-0.29  OA
ENDBRANCH 31 33
ENDBRANCH 29 31
ENDBRANCH 22 27
ENDBRANCH 20 22
ENDBRANCH 1 18
TORSDOF 12
ENDMDL
MODEL 2
USER: ADFR SOLUTION from run 14
USER: SCORE 13.779230 LL:  -0.927 LR: -14.557 RR:   0.000 FEB: -10.977
USER: RMSD 1.333907
USER: SEED 807095
USER: STATUS no improvement in best in 6 clusters for 5 generations
USER: GENES 14
USER: genes 0 Translation |==|  0.34151 0.55818 0.51814
USER: genes 1 Rotation |==|  0.52102 0.50982 0.58487 0.99220
USER: genes 2 Torsion [CB]-CA--N-[H1] |==|  0.09952
USER: genes 3 Torsion [N]-CA--CB-[CG] |==|  0.74727
USER: genes 4 Torsion [CA]-CB--CG-[CD] |==|  0.31856
USER: genes 5 Torsion [CB]-CG--CD-[NE] |==|  0.84652
USER: genes 6 Torsion [CG]-CD--NE-[CZ] |==|  0.55920
USER: genes 7 Torsion [N]-CA--C-[N] |==|  0.35394
USER: genes 8 Torsion [C]-N--CA-[CB] |==|  0.37618
USER: genes 9 Torsion [N]-CA--CB-[CG2] |==|  0.38830
USER: genes 10 Torsion [CA]-CB--CG1-[CD1] |==|  0.74855
USER: genes 11 Torsion [N]-CA--C-[N] |==|  0.30910
USER: genes 12 Torsion [C]-N--CA-[CB] |==|  0.36831
USER: genes 13 Torsion [N]-CA--C-[O] |==|  0.97604
ROOT
ATOM      1  CA  ARG B   1      26.774  10.876  -8.344  1.00 59.17 LIG 0.27  C 
ENDROOT
BRANCH 1 2
ATOM      2  N   ARG B   1      25.819  11.948  -8.739  1.00 58.83 LIG-0.07  N 
ATOM      3 H3   ARG B   1      26.059  12.715  -8.357  1.00 58.83 LIG 0.28  HD
ATOM      4 H2   ARG B   1      24.999  11.728  -8.472  1.00 58.83 LIG 0.28  HD
ATOM      5 H1   ARG B   1      25.828  12.042  -9.624  1.00 58.83 LIG 0.28  HD
ENDBRANCH 1 2
BRANCH 1 6
ATOM      6  CB  ARG B   1      28.017  10.877  -9.244  1.00 59.00 LIG 0.04  C 
BRANCH 6 7
ATOM      7  CG  ARG B   1      27.935   9.984 -10.484  1.00 58.73 LIG 0.02  C 
BRANCH 7 8
ATOM      8  CD  ARG B   1      27.959  10.770 -11.796  1.00 57.79 LIG 0.14  C 
BRANCH 8 9
ATOM      9  NE  ARG B   1      26.901  11.783 -11.835  1.00 57.71 LIG-0.23  N 
ATOM     10  CZ  ARG B   1      26.411  12.330 -12.946  1.00 57.43 LIG 0.67  C 
ATOM     11  NH1 ARG B   1      26.872  11.980 -14.140  1.00 56.57 LIG-0.23  N 
ATOM     12  NH2 ARG B   1      25.443  13.235 -12.864  1.00 57.93 LIG-0.23  N 
ATOM     13 2HH1 ARG B   1      26.547  12.341 -14.849  1.00 56.57 LIG 0.17  HD
ATOM     14 1HH1 ARG B   1      27.497  11.393 -14.204  1.00 56.57 LIG 0.17  HD
ATOM     15 2HH2 ARG B   1      25.124  13.589 -13.579  1.00 57.93 LIG 0.17  HD
ATOM     16 1HH2 ARG B   1      25.134  13.466 -12.095  1.00 57.93 LIG 0.17  HD
ATOM     17 HE   ARG B   1      26.572  12.043 -11.084  1.00 57.71 LIG 0.18  HD
ENDBRANCH 8 9
ENDBRANCH 7 8
ENDBRANCH 6 7
ENDBRANCH 1 6
BRANCH 1 18
ATOM     18  C   ARG B   1      27.193  11.048  -6.897  1.00 59.69 LIG 0.25  C 
ATOM     19 O    ARG B   1      27.625  12.126  -6.499  1.00 59.48 LIG-0.27  OA
ATOM     20  N   ILE B   2      27.052   9.984  -6.114  1.00 60.56 LIG-0.35  N 
ATOM     21 H    ILE B   2      26.686   9.247  -6.362  1.00 60.56 LIG 0.16  HD
BRANCH 20 22
ATOM     22  CA  ILE B   2      27.524   9.993  -4.734  1.00 61.73 LIG 0.18  C 
BRANCH 22 23
ATOM     23  CB  ILE B   2      26.483   9.374  -3.749  1.00 61.78 LIG 0.01  C 
ATOM     24  CG2 ILE B   2      27.149   8.498  -2.677  1.00 61.94 LIG 0.01  C 
BRANCH 23 25
ATOM     25  CG1 ILE B   2      25.604  10.466  -3.131  1.00 62.37 LIG 0.00  C 
ATOM     26  CD1 ILE B   2      26.152  11.035  -1.829  1.00 63.06 LIG 0.01  C 
ENDBRANCH 23 25
ENDBRANCH 22 23
BRANCH 22 27
ATOM     27  C   ILE B   2      28.887   9.306  -4.662  1.00 62.33 LIG 0.24  C 
ATOM     28 O    ILE B   2      28.992   8.093  -4.883  1.00 62.62 LIG-0.27  OA
ATOM     29  N   ALA B   3      29.927  10.092  -4.384  1.00 63.04 LIG-0.35  N 
ATOM     30 H    ALA B   3      29.857  10.926  -4.188  1.00 63.04 LIG 0.16  HD
BRANCH 29 31
ATOM     31  CA  ALA B   3      31.304   9.585  -4.391  1.00 63.50 LIG 0.16  C 
ATOM     32  CB  ALA B   3      32.220  10.530  -5.175  1.00 63.68 LIG 0.04  C 
BRANCH 31 33
ATOM     33  C   ALA B   3      31.851   9.346  -2.986  1.00 63.68 LIG 0.22  C 
ATOM     34 O    ALA B   3      31.229   9.716  -1.989  1.00 63.94 LIG-0.29  OA
ENDBRANCH 31 33
ENDBRANCH 29 31
ENDBRANCH 22 27
ENDBRANCH 20 22
ENDBRANCH 1 18
TORSDOF 12
ENDMDL
MODEL 3
USER: ADFR SOLUTION from run 22
USER: SCORE 14.657454 LL:  -1.037 LR: -14.384 RR:   0.000 FEB: -10.805
USER: RMSD 3.504498
USER: SEED 21
USER: STATUS no improvement in best in 10 clusters for 5 generations
USER: GENES 14
USER: genes 0 Translation |==|  0.41224 0.55187 0.48757
USER: genes 1 Rotation |==|  0.49003 0.46611 0.77326 0.91723
USER: genes 2 Torsion [CB]-CA--N-[H1] |==|  0.11823
USER: genes 3 Torsion [N]-CA--CB-[CG] |==|  0.15047
USER: genes 4 Torsion [CA]-CB--CG-[CD] |==|  0.71545
USER: genes 5 Torsion [CB]-CG--CD-[NE] |==|  0.28400
USER: genes 6 Torsion [CG]-CD--NE-[CZ] |==|  0.50352
USER: genes 7 Torsion [N]-CA--C-[N] |==|  0.26709
USER: genes 8 Torsion [C]-N--CA-[CB] |==|  0.20550
USER: genes 9 Torsion [N]-CA--CB-[CG2] |==|  0.04767
USER: genes 10 Torsion [CA]-CB--CG1-[CD1] |==|  0.23973
USER: genes 11 Torsion [N]-CA--C-[N] |==|  0.89227
USER: genes 12 Torsion [C]-N--CA-[CB] |==|  0.80020
USER: genes 13 Torsion [N]-CA--C-[O] |==|  0.15193
ROOT
ATOM      1  CA  ARG B   1      27.835  10.791  -9.009  1.00 59.17 LIG 0.27  C 
ENDROOT
BRANCH 1 2
ATOM      2  N   ARG B   1      26.526  10.846  -9.716  1.00 58.83 LIG-0.07  N 
ATOM      3 H3   ARG B   1      26.095  11.590  -9.486  1.00 58.83 LIG 0.28  HD
ATOM      4 H2   ARG B   1      26.036  10.139  -9.489  1.00 58.83 LIG 0.28  HD
ATOM      5 H1   ARG B   1      26.662  10.843 -10.595  1.00 58.83 LIG 0.28  HD
ENDBRANCH 1 2
BRANCH 1 6
ATOM      6  CB  ARG B   1      28.864  11.718  -9.669  1.00 59.00 LIG 0.04  C 
BRANCH 6 7
ATOM      7  CG  ARG B   1      28.430  13.177  -9.832  1.00 58.73 LIG 0.02  C 
BRANCH 7 8
ATOM      8  CD  ARG B   1      27.999  13.522 -11.259  1.00 57.79 LIG 0.14  C 
BRANCH 8 9
ATOM      9  NE  ARG B   1      26.540  13.574 -11.382  1.00 57.71 LIG-0.23  N 
ATOM     10  CZ  ARG B   1      25.879  13.827 -12.510  1.00 57.43 LIG 0.67  C 
ATOM     11  NH1 ARG B   1      26.528  14.062 -13.643  1.00 56.57 LIG-0.23  N 
ATOM     12  NH2 ARG B   1      24.551  13.841 -12.508  1.00 57.93 LIG-0.23  N 
ATOM     13 2HH1 ARG B   1      26.090  14.224 -14.364  1.00 56.57 LIG 0.17  HD
ATOM     14 1HH1 ARG B   1      27.388  14.052 -13.656  1.00 56.57 LIG 0.17  HD
ATOM     15 2HH2 ARG B   1      24.122  14.004 -13.234  1.00 57.93 LIG 0.17  HD
ATOM     16 1HH2 ARG B   1      24.121  13.687 -11.779  1.00 57.93 LIG 0.17  HD
ATOM     17 HE   ARG B   1      26.076  13.431 -10.672  1.00 57.71 LIG 0.18  HD
ENDBRANCH 8 9
ENDBRANCH 7 8
ENDBRANCH 6 7
ENDBRANCH 1 6
BRANCH 1 18
ATOM     18  C   ARG B   1      27.666  11.174  -7.552  1.00 59.69 LIG 0.25  C 
ATOM     19 O    ARG B   1      27.650  12.356  -7.218  1.00 59.48 LIG-0.27  OA
ATOM     20  N   ILE B   2      27.529  10.171  -6.692  1.00 60.56 LIG-0.35  N 
ATOM     21 H    ILE B   2      27.467   9.344  -6.920  1.00 60.56 LIG 0.16  HD
BRANCH 20 22
ATOM     22  CA  ILE B   2      27.472  10.409  -5.254  1.00 61.73 LIG 0.18  C 
BRANCH 22 23
ATOM     23  CB  ILE B   2      26.106  11.021  -4.810  1.00 61.78 LIG 0.01  C 
ATOM     24  CG2 ILE B   2      25.015  10.841  -5.877  1.00 61.94 LIG 0.01  C 
BRANCH 23 25
ATOM     25  CG1 ILE B   2      25.675  10.460  -3.451  1.00 62.37 LIG 0.00  C 
ATOM     26  CD1 ILE B   2      26.249  11.219  -2.261  1.00 63.06 LIG 0.01  C 
ENDBRANCH 23 25
ENDBRANCH 22 23
BRANCH 22 27
ATOM     27  C   ILE B   2      27.808   9.116  -4.514  1.00 62.33 LIG 0.24  C 
ATOM     28 O    ILE B   2      28.470   9.144  -3.469  1.00 62.62 LIG-0.27  OA
ATOM     29  N   ALA B   3      27.323   7.993  -5.042  1.00 63.04 LIG-0.35  N 
ATOM     30 H    ALA B   3      26.899   7.960  -5.789  1.00 63.04 LIG 0.16  HD
BRANCH 29 31
ATOM     31  CA  ALA B   3      27.477   6.694  -4.377  1.00 63.50 LIG 0.16  C 
ATOM     32  CB  ALA B   3      28.930   6.217  -4.460  1.00 63.68 LIG 0.04  C 
BRANCH 31 33
ATOM     33  C   ALA B   3      26.996   6.713  -2.928  1.00 63.68 LIG 0.22  C 
ATOM     34 O    ALA B   3      25.857   7.083  -2.641  1.00 63.94 LIG-0.29  OA
ENDBRANCH 31 33
ENDBRANCH 29 31
ENDBRANCH 22 27
ENDBRANCH 20 22
ENDBRANCH 1 18
TORSDOF 12
ENDMDL
MODEL 4
USER: ADFR SOLUTION from run 97
USER: SCORE 13.943292 LL:  -0.901 LR: -14.096 RR:   0.000 FEB: -10.517
USER: RMSD 2.796311
USER: SEED 96
USER: STATUS no improvement in best in 8 clusters for 5 generations
USER: GENES 14
USER: genes 0 Translation |==|  0.34533 0.55556 0.51608
USER: genes 1 Rotation |==|  0.52894 0.51171 0.58126 0.99236
USER: genes 2 Torsion [CB]-CA--N-[H1] |==|  0.76814
USER: genes 3 Torsion [N]-CA--CB-[CG] |==|  0.74085
USER: genes 4 Torsion [CA]-CB--CG-[CD] |==|  0.31850
USER: genes 5 Torsion [CB]-CG--CD-[NE] |==|  0.85051
USER: genes 6 Torsion [CG]-CD--NE-[CZ] |==|  0.55705
USER: genes 7 Torsion [N]-CA--C-[N] |==|  0.36691
USER: genes 8 Torsion [C]-N--CA-[CB] |==|  0.17786
USER: genes 9 Torsion [N]-CA--CB-[CG2] |==|  0.11578
USER: genes 10 Torsion [CA]-CB--CG1-[CD1] |==|  0.54549
USER: genes 11 Torsion [N]-CA--C-[N] |==|  0.40266
USER: genes 12 Torsion [C]-N--CA-[CB] |==|  0.79134
USER: genes 13 Torsion [N]-CA--C-[O] |==|  0.09415
ROOT
ATOM      1  CA  ARG B   1      26.831  10.841  -8.389  1.00 59.17 LIG 0.27  C 
ENDROOT
BRANCH 1 2
ATOM      2  N   ARG B   1      25.888  11.937  -8.739  1.00 58.83 LIG-0.07  N 
ATOM      3 H3   ARG B   1      25.070  11.727  -8.459  1.00 58.83 LIG 0.28  HD
ATOM      4 H2   ARG B   1      25.878  12.051  -9.622  1.00 58.83 LIG 0.28  HD
ATOM      5 H1   ARG B   1      26.150  12.692  -8.346  1.00 58.83 LIG 0.28  HD
ENDBRANCH 1 2
BRANCH 1 6
ATOM      6  CB  ARG B   1      28.062  10.851  -9.305  1.00 59.00 LIG 0.04  C 
BRANCH 6 7
ATOM      7  CG  ARG B   1      27.972   9.953 -10.541  1.00 58.73 LIG 0.02  C 
BRANCH 7 8
ATOM      8  CD  ARG B   1      27.971  10.735 -11.856  1.00 57.79 LIG 0.14  C 
BRANCH 8 9
ATOM      9  NE  ARG B   1      26.924  11.760 -11.870  1.00 57.71 LIG-0.23  N 
ATOM     10  CZ  ARG B   1      26.422  12.321 -12.969  1.00 57.43 LIG 0.67  C 
ATOM     11  NH1 ARG B   1      26.859  11.974 -14.173  1.00 56.57 LIG-0.23  N 
ATOM     12  NH2 ARG B   1      25.466  13.237 -12.864  1.00 57.93 LIG-0.23  N 
ATOM     13 2HH1 ARG B   1      26.526  12.344 -14.874  1.00 56.57 LIG 0.17  HD
ATOM     14 1HH1 ARG B   1      27.476  11.380 -14.252  1.00 56.57 LIG 0.17  HD
ATOM     15 2HH2 ARG B   1      25.140  13.600 -13.571  1.00 57.93 LIG 0.17  HD
ATOM     16 1HH2 ARG B   1      25.174  13.466 -12.089  1.00 57.93 LIG 0.17  HD
ATOM     17 HE   ARG B   1      26.611  12.020 -11.112  1.00 57.71 LIG 0.18  HD
ENDBRANCH 8 9
ENDBRANCH 7 8
ENDBRANCH 6 7
ENDBRANCH 1 6
BRANCH 1 18
ATOM     18  C   ARG B   1      27.272  10.963  -6.944  1.00 59.69 LIG 0.25  C 
ATOM     19 O    ARG B   1      27.645  12.045  -6.497  1.00 59.48 LIG-0.27  OA
ATOM     20  N   ILE B   2      27.216   9.854  -6.215  1.00 60.56 LIG-0.35  N 
ATOM     21 H    ILE B   2      26.891   9.108  -6.495  1.00 60.56 LIG 0.16  HD
BRANCH 20 22
ATOM     22  CA  ILE B   2      27.718   9.820  -4.847  1.00 61.73 LIG 0.18  C 
BRANCH 22 23
ATOM     23  CB  ILE B   2      26.913  10.763  -3.898  1.00 61.78 LIG 0.01  C 
ATOM     24  CG2 ILE B   2      25.400  10.694  -4.159  1.00 61.94 LIG 0.01  C 
BRANCH 23 25
ATOM     25  CG1 ILE B   2      27.254  10.480  -2.432  1.00 62.37 LIG 0.00  C 
ATOM     26  CD1 ILE B   2      26.251  11.059  -1.442  1.00 63.06 LIG 0.01  C 
ENDBRANCH 23 25
ENDBRANCH 22 23
BRANCH 22 27
ATOM     27  C   ILE B   2      27.750   8.375  -4.355  1.00 62.33 LIG 0.24  C 
ATOM     28 O    ILE B   2      26.896   7.563  -4.733  1.00 62.62 LIG-0.27  OA
ATOM     29  N   ALA B   3      28.753   8.054  -3.539  1.00 63.04 LIG-0.35  N 
ATOM     30 H    ALA B   3      29.326   8.621  -3.238  1.00 63.04 LIG 0.16  HD
BRANCH 29 31
ATOM     31  CA  ALA B   3      28.968   6.677  -3.079  1.00 63.50 LIG 0.16  C 
ATOM     32  CB  ALA B   3      27.939   6.302  -2.008  1.00 63.68 LIG 0.04  C 
BRANCH 31 33
ATOM     33  C   ALA B   3      28.952   5.664  -4.220  1.00 63.68 LIG 0.22  C 
ATOM     34 O    ALA B   3      29.383   5.957  -5.337  1.00 63.94 LIG-0.29  OA
ENDBRANCH 31 33
ENDBRANCH 29 31
ENDBRANCH 22 27
ENDBRANCH 20 22
ENDBRANCH 1 18
TORSDOF 12
ENDMDL
MODEL 5
USER: ADFR SOLUTION from run 50
USER: SCORE 13.909313 LL:  -1.206 LR: -13.983 RR:   0.000 FEB: -10.403
USER: RMSD 2.941448
USER: SEED 49
USER: STATUS no improvement in best in 12 clusters for 5 generations
USER: GENES 14
USER: genes 0 Translation |==|  0.32912 0.55860 0.53208
USER: genes 1 Rotation |==|  0.45918 0.50866 0.54038 0.99662
USER: genes 2 Torsion [CB]-CA--N-[H1] |==|  0.06610
USER: genes 3 Torsion [N]-CA--CB-[CG] |==|  0.94587
USER: genes 4 Torsion [CA]-CB--CG-[CD] |==|  0.79022
USER: genes 5 Torsion [CB]-CG--CD-[NE] |==|  0.79493
USER: genes 6 Torsion [CG]-CD--NE-[CZ] |==|  0.62591
USER: genes 7 Torsion [N]-CA--C-[N] |==|  0.33806
USER: genes 8 Torsion [C]-N--CA-[CB] |==|  0.35763
USER: genes 9 Torsion [N]-CA--CB-[CG2] |==|  0.18582
USER: genes 10 Torsion [CA]-CB--CG1-[CD1] |==|  0.73269
USER: genes 11 Torsion [N]-CA--C-[N] |==|  0.90193
USER: genes 12 Torsion [C]-N--CA-[CB] |==|  0.13578
USER: genes 13 Torsion [N]-CA--C-[O] |==|  0.93690
ROOT
ATOM      1  CA  ARG B   1      26.588  10.882  -8.041  1.00 59.17 LIG 0.27  C 
ENDROOT
BRANCH 1 2
ATOM      2  N   ARG B   1      25.845  11.966  -8.739  1.00 58.83 LIG-0.07  N 
ATOM      3 H3   ARG B   1      26.091  12.755  -8.410  1.00 58.83 LIG 0.28  HD
ATOM      4 H2   ARG B   1      24.970  11.854  -8.616  1.00 58.83 LIG 0.28  HD
ATOM      5 H1   ARG B   1      26.027  11.939  -9.609  1.00 58.83 LIG 0.28  HD
ENDBRANCH 1 2
BRANCH 1 6
ATOM      6  CB  ARG B   1      27.827  10.453  -8.838  1.00 59.00 LIG 0.04  C 
BRANCH 6 7
ATOM      7  CG  ARG B   1      27.821  10.829 -10.321  1.00 58.73 LIG 0.02  C 
BRANCH 7 8
ATOM      8  CD  ARG B   1      26.901   9.943 -11.164  1.00 57.79 LIG 0.14  C 
BRANCH 8 9
ATOM      9  NE  ARG B   1      27.476   8.610 -11.363  1.00 57.71 LIG-0.23  N 
ATOM     10  CZ  ARG B   1      27.512   7.962 -12.526  1.00 57.43 LIG 0.67  C 
ATOM     11  NH1 ARG B   1      27.005   8.505 -13.625  1.00 56.57 LIG-0.23  N 
ATOM     12  NH2 ARG B   1      28.067   6.757 -12.593  1.00 57.93 LIG-0.23  N 
ATOM     13 2HH1 ARG B   1      27.036   8.076 -14.370  1.00 56.57 LIG 0.17  HD
ATOM     14 1HH1 ARG B   1      26.646   9.286 -13.593  1.00 56.57 LIG 0.17  HD
ATOM     15 2HH2 ARG B   1      28.092   6.337 -13.342  1.00 57.93 LIG 0.17  HD
ATOM     16 1HH2 ARG B   1      28.401   6.398 -11.887  1.00 57.93 LIG 0.17  HD
ATOM     17 HE   ARG B   1      27.814   8.216 -10.677  1.00 57.71 LIG 0.18  HD
ENDBRANCH 8 9
ENDBRANCH 7 8
ENDBRANCH 6 7
ENDBRANCH 1 6
BRANCH 1 18
ATOM     18  C   ARG B   1      27.005  11.334  -6.655  1.00 59.69 LIG 0.25  C 
ATOM     19 O    ARG B   1      27.703  12.334  -6.512  1.00 59.48 LIG-0.27  OA
ATOM     20  N   ILE B   2      26.566  10.600  -5.639  1.00 60.56 LIG-0.35  N 
ATOM     21 H    ILE B   2      26.019   9.940  -5.721  1.00 60.56 LIG 0.16  HD
BRANCH 20 22
ATOM     22  CA  ILE B   2      26.991  10.868  -4.271  1.00 61.73 LIG 0.18  C 
BRANCH 22 23
ATOM     23  CB  ILE B   2      25.784  10.995  -3.290  1.00 61.78 LIG 0.01  C 
ATOM     24  CG2 ILE B   2      25.038   9.663  -3.113  1.00 61.94 LIG 0.01  C 
BRANCH 23 25
ATOM     25  CG1 ILE B   2      26.233  11.582  -1.948  1.00 62.37 LIG 0.00  C 
ATOM     26  CD1 ILE B   2      26.523  10.533  -0.882  1.00 63.06 LIG 0.01  C 
ENDBRANCH 23 25
ENDBRANCH 22 23
BRANCH 22 27
ATOM     27  C   ILE B   2      27.997   9.804  -3.836  1.00 62.33 LIG 0.24  C 
ATOM     28 O    ILE B   2      28.923  10.091  -3.068  1.00 62.62 LIG-0.27  OA
ATOM     29  N   ALA B   3      27.789   8.573  -4.304  1.00 63.04 LIG-0.35  N 
ATOM     30 H    ALA B   3      27.174   8.374  -4.870  1.00 63.04 LIG 0.16  HD
BRANCH 29 31
ATOM     31  CA  ALA B   3      28.612   7.434  -3.880  1.00 63.50 LIG 0.16  C 
ATOM     32  CB  ALA B   3      28.729   7.394  -2.354  1.00 63.68 LIG 0.04  C 
BRANCH 31 33
ATOM     33  C   ALA B   3      28.096   6.102  -4.417  1.00 63.68 LIG 0.22  C 
ATOM     34 O    ALA B   3      26.919   5.966  -4.757  1.00 63.94 LIG-0.29  OA
ENDBRANCH 31 33
ENDBRANCH 29 31
ENDBRANCH 22 27
ENDBRANCH 20 22
ENDBRANCH 1 18
TORSDOF 12
ENDMDL
MODEL 6
USER: ADFR SOLUTION from run 105
USER: SCORE 14.009854 LL:  -1.181 LR: -13.888 RR:   0.000 FEB: -10.309
USER: RMSD 2.577088
USER: SEED 104
USER: STATUS no improvement in best in 13 clusters for 5 generations
USER: GENES 14
USER: genes 0 Translation |==|  0.40027 0.57079 0.46988
USER: genes 1 Rotation |==|  0.52300 0.53548 0.90263 0.79343
USER: genes 2 Torsion [CB]-CA--N-[H1] |==|  0.70367
USER: genes 3 Torsion [N]-CA--CB-[CG] |==|  0.88445
USER: genes 4 Torsion [CA]-CB--CG-[CD] |==|  0.54511
USER: genes 5 Torsion [CB]-CG--CD-[NE] |==|  0.54142
USER: genes 6 Torsion [CG]-CD--NE-[CZ] |==|  0.71470
USER: genes 7 Torsion [N]-CA--C-[N] |==|  0.14340
USER: genes 8 Torsion [C]-N--CA-[CB] |==|  0.21324
USER: genes 9 Torsion [N]-CA--CB-[CG2] |==|  0.09183
USER: genes 10 Torsion [CA]-CB--CG1-[CD1] |==|  0.71327
USER: genes 11 Torsion [N]-CA--C-[N] |==|  0.35000
USER: genes 12 Torsion [C]-N--CA-[CB] |==|  0.17033
USER: genes 13 Torsion [N]-CA--C-[O] |==|  0.97559
ROOT
ATOM      1  CA  ARG B   1      27.655  11.047  -9.394  1.00 59.17 LIG 0.27  C 
ENDROOT
BRANCH 1 2
ATOM      2  N   ARG B   1      26.526  10.124  -9.690  1.00 58.83 LIG-0.07  N 
ATOM      3 H3   ARG B   1      26.830   9.290  -9.746  1.00 58.83 LIG 0.28  HD
ATOM      4 H2   ARG B   1      26.149  10.354 -10.463  1.00 58.83 LIG 0.28  HD
ATOM      5 H1   ARG B   1      25.922  10.175  -9.039  1.00 58.83 LIG 0.28  HD
ENDBRANCH 1 2
BRANCH 1 6
ATOM      6  CB  ARG B   1      27.621  12.280 -10.306  1.00 59.00 LIG 0.04  C 
BRANCH 6 7
ATOM      7  CG  ARG B   1      27.276  12.008 -11.772  1.00 58.73 LIG 0.02  C 
BRANCH 7 8
ATOM      8  CD  ARG B   1      27.634  13.169 -12.702  1.00 57.79 LIG 0.14  C 
BRANCH 8 9
ATOM      9  NE  ARG B   1      26.986  13.030 -14.008  1.00 57.71 LIG-0.23  N 
ATOM     10  CZ  ARG B   1      27.593  12.616 -15.119  1.00 57.43 LIG 0.67  C 
ATOM     11  NH1 ARG B   1      28.880  12.293 -15.114  1.00 56.57 LIG-0.23  N 
ATOM     12  NH2 ARG B   1      26.904  12.519 -16.250  1.00 57.93 LIG-0.23  N 
ATOM     13 2HH1 ARG B   1      29.259  12.026 -15.838  1.00 56.57 LIG 0.17  HD
ATOM     14 1HH1 ARG B   1      29.334  12.349 -14.386  1.00 56.57 LIG 0.17  HD
ATOM     15 2HH2 ARG B   1      27.292  12.251 -16.969  1.00 57.93 LIG 0.17  HD
ATOM     16 1HH2 ARG B   1      26.069  12.723 -16.263  1.00 57.93 LIG 0.17  HD
ATOM     17 HE   ARG B   1      26.151  13.231 -14.062  1.00 57.71 LIG 0.18  HD
ENDBRANCH 8 9
ENDBRANCH 7 8
ENDBRANCH 6 7
ENDBRANCH 1 6
BRANCH 1 18
ATOM     18  C   ARG B   1      27.614  11.485  -7.943  1.00 59.69 LIG 0.25  C 
ATOM     19 O    ARG B   1      27.651  12.678  -7.653  1.00 59.48 LIG-0.27  OA
ATOM     20  N   ILE B   2      27.525  10.517  -7.038  1.00 60.56 LIG-0.35  N 
ATOM     21 H    ILE B   2      27.427   9.684  -7.229  1.00 60.56 LIG 0.16  HD
BRANCH 20 22
ATOM     22  CA  ILE B   2      27.590  10.808  -5.611  1.00 61.73 LIG 0.18  C 
BRANCH 22 23
ATOM     23  CB  ILE B   2      26.254  11.405  -5.067  1.00 61.78 LIG 0.01  C 
ATOM     24  CG2 ILE B   2      25.026  10.841  -5.800  1.00 61.94 LIG 0.01  C 
BRANCH 23 25
ATOM     25  CG1 ILE B   2      26.152  11.216  -3.550  1.00 62.37 LIG 0.00  C 
ATOM     26  CD1 ILE B   2      25.215  10.090  -3.130  1.00 63.06 LIG 0.01  C 
ENDBRANCH 23 25
ENDBRANCH 22 23
BRANCH 22 27
ATOM     27  C   ILE B   2      28.025   9.551  -4.858  1.00 62.33 LIG 0.24  C 
ATOM     28 O    ILE B   2      27.429   8.480  -5.026  1.00 62.62 LIG-0.27  OA
ATOM     29  N   ALA B   3      29.081   9.682  -4.057  1.00 63.04 LIG-0.35  N 
ATOM     30 H    ALA B   3      29.474  10.431  -3.902  1.00 63.04 LIG 0.16  HD
BRANCH 29 31
ATOM     31  CA  ALA B   3      29.672   8.535  -3.359  1.00 63.50 LIG 0.16  C 
ATOM     32  CB  ALA B   3      30.184   7.500  -4.365  1.00 63.68 LIG 0.04  C 
BRANCH 31 33
ATOM     33  C   ALA B   3      30.779   8.940  -2.389  1.00 63.68 LIG 0.22  C 
ATOM     34 O    ALA B   3      31.211  10.093  -2.363  1.00 63.94 LIG-0.29  OA
ENDBRANCH 31 33
ENDBRANCH 29 31
ENDBRANCH 22 27
ENDBRANCH 20 22
ENDBRANCH 1 18
TORSDOF 12
ENDMDL
MODEL 7
USER: ADFR SOLUTION from run 190
USER: SCORE 13.324631 LL:  -1.158 LR: -13.871 RR:   0.000 FEB: -10.291
USER: RMSD 1.451354
USER: SEED 189
USER: STATUS no improvement in best in 11 clusters for 5 generations
USER: GENES 14
USER: genes 0 Translation |==|  0.34095 0.55563 0.52201
USER: genes 1 Rotation |==|  0.50848 0.50177 0.56607 0.99554
USER: genes 2 Torsion [CB]-CA--N-[H1] |==|  0.08575
USER: genes 3 Torsion [N]-CA--CB-[CG] |==|  0.89169
USER: genes 4 Torsion [CA]-CB--CG-[CD] |==|  0.83292
USER: genes 5 Torsion [CB]-CG--CD-[NE] |==|  0.79768
USER: genes 6 Torsion [CG]-CD--NE-[CZ] |==|  0.67076
USER: genes 7 Torsion [N]-CA--C-[N] |==|  0.36807
USER: genes 8 Torsion [C]-N--CA-[CB] |==|  0.39647
USER: genes 9 Torsion [N]-CA--CB-[CG2] |==|  0.19664
USER: genes 10 Torsion [CA]-CB--CG1-[CD1] |==|  0.16603
USER: genes 11 Torsion [N]-CA--C-[N] |==|  0.25761
USER: genes 12 Torsion [C]-N--CA-[CB] |==|  0.42189
USER: genes 13 Torsion [N]-CA--C-[O] |==|  0.04076
ROOT
ATOM      1  CA  ARG B   1      26.765  10.842  -8.260  1.00 59.17 LIG 0.27  C 
ENDROOT
BRANCH 1 2
ATOM      2  N   ARG B   1      25.912  11.963  -8.739  1.00 58.83 LIG-0.07  N 
ATOM      3 H3   ARG B   1      26.150  12.715  -8.328  1.00 58.83 LIG 0.28  HD
ATOM      4 H2   ARG B   1      25.059  11.785  -8.558  1.00 58.83 LIG 0.28  HD
ATOM      5 H1   ARG B   1      26.014  12.060  -9.617  1.00 58.83 LIG 0.28  HD
ENDBRANCH 1 2
BRANCH 1 6
ATOM      6  CB  ARG B   1      28.036  10.706  -9.110  1.00 59.00 LIG 0.04  C 
BRANCH 6 7
ATOM      7  CG  ARG B   1      27.853  10.934 -10.612  1.00 58.73 LIG 0.02  C 
BRANCH 7 8
ATOM      8  CD  ARG B   1      26.869   9.953 -11.255  1.00 57.79 LIG 0.14  C 
BRANCH 8 9
ATOM      9  NE  ARG B   1      27.446   8.611 -11.367  1.00 57.71 LIG-0.23  N 
ATOM     10  CZ  ARG B   1      27.651   7.964 -12.513  1.00 57.43 LIG 0.67  C 
ATOM     11  NH1 ARG B   1      27.328   8.516 -13.676  1.00 56.57 LIG-0.23  N 
ATOM     12  NH2 ARG B   1      28.190   6.751 -12.498  1.00 57.93 LIG-0.23  N 
ATOM     13 2HH1 ARG B   1      27.465   8.087 -14.408  1.00 56.57 LIG 0.17  HD
ATOM     14 1HH1 ARG B   1      26.980   9.302 -13.697  1.00 56.57 LIG 0.17  HD
ATOM     15 2HH2 ARG B   1      28.323   6.330 -13.236  1.00 57.93 LIG 0.17  HD
ATOM     16 1HH2 ARG B   1      28.405   6.385 -11.750  1.00 57.93 LIG 0.17  HD
ATOM     17 HE   ARG B   1      27.669   8.212 -10.639  1.00 57.71 LIG 0.18  HD
ENDBRANCH 8 9
ENDBRANCH 7 8
ENDBRANCH 6 7
ENDBRANCH 1 6
BRANCH 1 18
ATOM     18  C   ARG B   1      27.145  11.050  -6.807  1.00 59.69 LIG 0.25  C 
ATOM     19 O    ARG B   1      27.558  12.140  -6.422  1.00 59.48 LIG-0.27  OA
ATOM     20  N   ILE B   2      26.992  10.003  -6.003  1.00 60.56 LIG-0.35  N 
ATOM     21 H    ILE B   2      26.638   9.256  -6.244  1.00 60.56 LIG 0.16  HD
BRANCH 20 22
ATOM     22  CA  ILE B   2      27.428  10.046  -4.613  1.00 61.73 LIG 0.18  C 
BRANCH 22 23
ATOM     23  CB  ILE B   2      26.453   9.280  -3.664  1.00 61.78 LIG 0.01  C 
ATOM     24  CG2 ILE B   2      26.526   7.758  -3.863  1.00 61.94 LIG 0.01  C 
BRANCH 23 25
ATOM     25  CG1 ILE B   2      26.692   9.678  -2.204  1.00 62.37 LIG 0.00  C 
ATOM     26  CD1 ILE B   2      26.492  11.163  -1.928  1.00 63.06 LIG 0.01  C 
ENDBRANCH 23 25
ENDBRANCH 22 23
BRANCH 22 27
ATOM     27  C   ILE B   2      28.866   9.539  -4.517  1.00 62.33 LIG 0.24  C 
ATOM     28 O    ILE B   2      29.100   8.329  -4.413  1.00 62.62 LIG-0.27  OA
ATOM     29  N   ALA B   3      29.821  10.466  -4.584  1.00 63.04 LIG-0.35  N 
ATOM     30 H    ALA B   3      29.666  11.311  -4.614  1.00 63.04 LIG 0.16  HD
BRANCH 29 31
ATOM     31  CA  ALA B   3      31.244  10.111  -4.614  1.00 63.50 LIG 0.16  C 
ATOM     32  CB  ALA B   3      32.049  11.179  -5.360  1.00 63.68 LIG 0.04  C 
BRANCH 31 33
ATOM     33  C   ALA B   3      31.822   9.873  -3.222  1.00 63.68 LIG 0.22  C 
ATOM     34 O    ALA B   3      31.087   9.716  -2.246  1.00 63.94 LIG-0.29  OA
ENDBRANCH 31 33
ENDBRANCH 29 31
ENDBRANCH 22 27
ENDBRANCH 20 22
ENDBRANCH 1 18
TORSDOF 12
ENDMDL
MODEL 8
USER: ADFR SOLUTION from run 113
USER: SCORE 13.552637 LL:  -0.686 LR: -13.828 RR:   0.000 FEB: -10.248
USER: RMSD 3.161910
USER: SEED 112
USER: STATUS no improvement in best in 10 clusters for 5 generations
USER: GENES 14
USER: genes 0 Translation |==|  0.37050 0.57920 0.53547
USER: genes 1 Rotation |==|  0.60289 0.45446 0.79298 0.88924
USER: genes 2 Torsion [CB]-CA--N-[H1] |==|  0.42174
USER: genes 3 Torsion [N]-CA--CB-[CG] |==|  0.87844
USER: genes 4 Torsion [CA]-CB--CG-[CD] |==|  0.81719
USER: genes 5 Torsion [CB]-CG--CD-[NE] |==|  0.20352
USER: genes 6 Torsion [CG]-CD--NE-[CZ] |==|  0.65957
USER: genes 7 Torsion [N]-CA--C-[N] |==|  0.20739
USER: genes 8 Torsion [C]-N--CA-[CB] |==|  0.21603
USER: genes 9 Torsion [N]-CA--CB-[CG2] |==|  0.37393
USER: genes 10 Torsion [CA]-CB--CG1-[CD1] |==|  0.63560
USER: genes 11 Torsion [N]-CA--C-[N] |==|  0.40669
USER: genes 12 Torsion [C]-N--CA-[CB] |==|  0.25550
USER: genes 13 Torsion [N]-CA--C-[O] |==|  0.39174
ROOT
ATOM      1  CA  ARG B   1      27.208  11.160  -7.968  1.00 59.17 LIG 0.27  C 
ENDROOT
BRANCH 1 2
ATOM      2  N   ARG B   1      25.776  11.216  -8.367  1.00 58.83 LIG-0.07  N 
ATOM      3 H3   ARG B   1      25.693  11.700  -9.109  1.00 58.83 LIG 0.28  HD
ATOM      4 H2   ARG B   1      25.300  11.591  -7.715  1.00 58.83 LIG 0.28  HD
ATOM      5 H1   ARG B   1      25.476  10.392  -8.516  1.00 58.83 LIG 0.28  HD
ENDBRANCH 1 2
BRANCH 1 6
ATOM      6  CB  ARG B   1      27.948  12.446  -8.362  1.00 59.00 LIG 0.04  C 
BRANCH 6 7
ATOM      7  CG  ARG B   1      27.644  12.978  -9.764  1.00 58.73 LIG 0.02  C 
BRANCH 7 8
ATOM      8  CD  ARG B   1      28.125  12.048 -10.880  1.00 57.79 LIG 0.14  C 
BRANCH 8 9
ATOM      9  NE  ARG B   1      27.280  10.856 -10.986  1.00 57.71 LIG-0.23  N 
ATOM     10  CZ  ARG B   1      27.717   9.601 -10.885  1.00 57.43 LIG 0.67  C 
ATOM     11  NH1 ARG B   1      29.002   9.341 -10.677  1.00 56.57 LIG-0.23  N 
ATOM     12  NH2 ARG B   1      26.859   8.594 -10.989  1.00 57.93 LIG-0.23  N 
ATOM     13 2HH1 ARG B   1      29.271   8.527 -10.614  1.00 56.57 LIG 0.17  HD
ATOM     14 1HH1 ARG B   1      29.565   9.987 -10.606  1.00 56.57 LIG 0.17  HD
ATOM     15 2HH2 ARG B   1      27.138   7.783 -10.924  1.00 57.93 LIG 0.17  HD
ATOM     16 1HH2 ARG B   1      26.024   8.752 -11.121  1.00 57.93 LIG 0.17  HD
ATOM     17 HE   ARG B   1      26.440  10.974 -11.124  1.00 57.71 LIG 0.18  HD
ENDBRANCH 8 9
ENDBRANCH 7 8
ENDBRANCH 6 7
ENDBRANCH 1 6
BRANCH 1 18
ATOM     18  C   ARG B   1      27.333  10.940  -6.473  1.00 59.69 LIG 0.25  C 
ATOM     19 O    ARG B   1      27.652  11.867  -5.732  1.00 59.48 LIG-0.27  OA
ATOM     20  N   ILE B   2      27.069   9.714  -6.034  1.00 60.56 LIG-0.35  N 
ATOM     21 H    ILE B   2      26.777   9.076  -6.531  1.00 60.56 LIG 0.16  HD
BRANCH 20 22
ATOM     22  CA  ILE B   2      27.263   9.353  -4.635  1.00 61.73 LIG 0.18  C 
BRANCH 22 23
ATOM     23  CB  ILE B   2      26.109   9.878  -3.724  1.00 61.78 LIG 0.01  C 
ATOM     24  CG2 ILE B   2      25.615   8.806  -2.739  1.00 61.94 LIG 0.01  C 
BRANCH 23 25
ATOM     25  CG1 ILE B   2      26.526  11.165  -3.006  1.00 62.37 LIG 0.00  C 
ATOM     26  CD1 ILE B   2      26.248  11.155  -1.508  1.00 63.06 LIG 0.01  C 
ENDBRANCH 23 25
ENDBRANCH 22 23
BRANCH 22 27
ATOM     27  C   ILE B   2      27.462   7.842  -4.525  1.00 62.33 LIG 0.24  C 
ATOM     28 O    ILE B   2      26.899   7.076  -5.317  1.00 62.62 LIG-0.27  OA
ATOM     29  N   ALA B   3      28.286   7.426  -3.565  1.00 63.04 LIG-0.35  N 
ATOM     30 H    ALA B   3      28.647   7.948  -2.985  1.00 63.04 LIG 0.16  HD
BRANCH 29 31
ATOM     31  CA  ALA B   3      28.652   6.013  -3.416  1.00 63.50 LIG 0.16  C 
ATOM     32  CB  ALA B   3      29.933   5.705  -4.196  1.00 63.68 LIG 0.04  C 
BRANCH 31 33
ATOM     33  C   ALA B   3      28.794   5.591  -1.956  1.00 63.68 LIG 0.22  C 
ATOM     34 O    ALA B   3      28.401   4.489  -1.571  1.00 63.94 LIG-0.29  OA
ENDBRANCH 31 33
ENDBRANCH 29 31
ENDBRANCH 22 27
ENDBRANCH 20 22
ENDBRANCH 1 18
TORSDOF 12
ENDMDL
MODEL 9
USER: ADFR SOLUTION from run 93
USER: SCORE 13.900691 LL:  -1.133 LR: -13.642 RR:   0.000 FEB: -10.062
USER: RMSD 2.346457
USER: SEED 92
USER: STATUS no improvement in best in 17 clusters for 5 generations
USER: GENES 14
USER: genes 0 Translation |==|  0.39928 0.48205 0.42112
USER: genes 1 Rotation |==|  0.53833 0.61718 0.82411 0.86021
USER: genes 2 Torsion [CB]-CA--N-[H1] |==|  0.76769
USER: genes 3 Torsion [N]-CA--CB-[CG] |==|  0.77098
USER: genes 4 Torsion [CA]-CB--CG-[CD] |==|  0.27523
USER: genes 5 Torsion [CB]-CG--CD-[NE] |==|  0.24959
USER: genes 6 Torsion [CG]-CD--NE-[CZ] |==|  0.25815
USER: genes 7 Torsion [N]-CA--C-[N] |==|  0.03202
USER: genes 8 Torsion [C]-N--CA-[CB] |==|  0.46667
USER: genes 9 Torsion [N]-CA--CB-[CG2] |==|  0.00912
USER: genes 10 Torsion [CA]-CB--CG1-[CD1] |==|  0.45113
USER: genes 11 Torsion [N]-CA--C-[N] |==|  0.44632
USER: genes 12 Torsion [C]-N--CA-[CB] |==|  0.34694
USER: genes 13 Torsion [N]-CA--C-[O] |==|  0.96944
ROOT
ATOM      1  CA  ARG B   1      27.640   9.849 -10.455  1.00 59.17 LIG 0.27  C 
ENDROOT
BRANCH 1 2
ATOM      2  N   ARG B   1      26.228   9.425 -10.256  1.00 58.83 LIG-0.07  N 
ATOM      3 H3   ARG B   1      26.208   8.661  -9.799  1.00 58.83 LIG 0.28  HD
ATOM      4 H2   ARG B   1      25.839   9.305 -11.048  1.00 58.83 LIG 0.28  HD
ATOM      5 H1   ARG B   1      25.790  10.052  -9.803  1.00 58.83 LIG 0.28  HD
ENDBRANCH 1 2
BRANCH 1 6
ATOM      6  CB  ARG B   1      27.780  10.772 -11.672  1.00 59.00 LIG 0.04  C 
BRANCH 6 7
ATOM      7  CG  ARG B   1      27.875  10.068 -13.027  1.00 58.73 LIG 0.02  C 
BRANCH 7 8
ATOM      8  CD  ARG B   1      26.546  10.034 -13.785  1.00 57.79 LIG 0.14  C 
BRANCH 8 9
ATOM      9  NE  ARG B   1      26.388  11.211 -14.643  1.00 57.71 LIG-0.23  N 
ATOM     10  CZ  ARG B   1      26.737  11.269 -15.927  1.00 57.43 LIG 0.67  C 
ATOM     11  NH1 ARG B   1      27.278  10.221 -16.536  1.00 56.57 LIG-0.23  N 
ATOM     12  NH2 ARG B   1      26.540  12.389 -16.614  1.00 57.93 LIG-0.23  N 
ATOM     13 2HH1 ARG B   1      27.499  10.273 -17.365  1.00 56.57 LIG 0.17  HD
ATOM     14 1HH1 ARG B   1      27.407   9.491 -16.100  1.00 56.57 LIG 0.17  HD
ATOM     15 2HH2 ARG B   1      26.764  12.429 -17.443  1.00 57.93 LIG 0.17  HD
ATOM     16 1HH2 ARG B   1      26.188  13.072 -16.230  1.00 57.93 LIG 0.17  HD
ATOM     17 HE   ARG B   1      26.044  11.917 -14.291  1.00 57.71 LIG 0.18  HD
ENDBRANCH 8 9
ENDBRANCH 7 8
ENDBRANCH 6 7
ENDBRANCH 1 6
BRANCH 1 18
ATOM     18  C   ARG B   1      28.159  10.556  -9.218  1.00 59.69 LIG 0.25  C 
ATOM     19 O    ARG B   1      29.220  11.174  -9.254  1.00 59.48 LIG-0.27  OA
ATOM     20  N   ILE B   2      27.402  10.470  -8.129  1.00 60.56 LIG-0.35  N 
ATOM     21 H    ILE B   2      26.625  10.101  -8.109  1.00 60.56 LIG 0.16  HD
BRANCH 20 22
ATOM     22  CA  ILE B   2      27.849  11.012  -6.852  1.00 61.73 LIG 0.18  C 
BRANCH 22 23
ATOM     23  CB  ILE B   2      26.698  11.070  -5.799  1.00 61.78 LIG 0.01  C 
ATOM     24  CG2 ILE B   2      25.390  10.466  -6.335  1.00 61.94 LIG 0.01  C 
BRANCH 23 25
ATOM     25  CG1 ILE B   2      27.132  10.416  -4.483  1.00 62.37 LIG 0.00  C 
ATOM     26  CD1 ILE B   2      26.261  10.791  -3.291  1.00 63.06 LIG 0.01  C 
ENDBRANCH 23 25
ENDBRANCH 22 23
BRANCH 22 27
ATOM     27  C   ILE B   2      29.059  10.220  -6.361  1.00 62.33 LIG 0.24  C 
ATOM     28 O    ILE B   2      29.312   9.104  -6.831  1.00 62.62 LIG-0.27  OA
ATOM     29  N   ALA B   3      29.818  10.816  -5.442  1.00 63.04 LIG-0.35  N 
ATOM     30 H    ALA B   3      29.627  11.572  -5.081  1.00 63.04 LIG 0.16  HD
BRANCH 29 31
ATOM     31  CA  ALA B   3      31.069  10.216  -4.963  1.00 63.50 LIG 0.16  C 
ATOM     32  CB  ALA B   3      32.235  11.194  -5.138  1.00 63.68 LIG 0.04  C 
BRANCH 31 33
ATOM     33  C   ALA B   3      30.978   9.738  -3.517  1.00 63.68 LIG 0.22  C 
ATOM     34 O    ALA B   3      30.019  10.042  -2.806  1.00 63.94 LIG-0.29  OA
ENDBRANCH 31 33
ENDBRANCH 29 31
ENDBRANCH 22 27
ENDBRANCH 20 22
ENDBRANCH 1 18
TORSDOF 12
ENDMDL
MODEL 10
USER: ADFR SOLUTION from run 195
USER: SCORE 14.077295 LL:  -1.136 LR: -13.600 RR:   0.000 FEB: -10.020
USER: RMSD 3.612678
USER: SEED 194
USER: STATUS no improvement in best in 13 clusters for 5 generations
USER: GENES 14
USER: genes 0 Translation |==|  0.39666 0.46026 0.40878
USER: genes 1 Rotation |==|  0.52994 0.63429 0.79337 0.88079
USER: genes 2 Torsion [CB]-CA--N-[H1] |==|  0.11655
USER: genes 3 Torsion [N]-CA--CB-[CG] |==|  0.80251
USER: genes 4 Torsion [CA]-CB--CG-[CD] |==|  0.27330
USER: genes 5 Torsion [CB]-CG--CD-[NE] |==|  0.22949
USER: genes 6 Torsion [CG]-CD--NE-[CZ] |==|  0.22686
USER: genes 7 Torsion [N]-CA--C-[N] |==|  0.16597
USER: genes 8 Torsion [C]-N--CA-[CB] |==|  0.22217
USER: genes 9 Torsion [N]-CA--CB-[CG2] |==|  0.75049
USER: genes 10 Torsion [CA]-CB--CG1-[CD1] |==|  0.30038
USER: genes 11 Torsion [N]-CA--C-[N] |==|  0.84191
USER: genes 12 Torsion [C]-N--CA-[CB] |==|  0.14055
USER: genes 13 Torsion [N]-CA--C-[O] |==|  0.22675
ROOT
ATOM      1  CA  ARG B   1      27.601   9.555 -10.723  1.00 59.17 LIG 0.27  C 
ENDROOT
BRANCH 1 2
ATOM      2  N   ARG B   1      26.151   9.339 -10.466  1.00 58.83 LIG-0.07  N 
ATOM      3 H3   ARG B   1      25.790  10.089 -10.151  1.00 58.83 LIG 0.28  HD
ATOM      4 H2   ARG B   1      26.049   8.688  -9.868  1.00 58.83 LIG 0.28  HD
ATOM      5 H1   ARG B   1      25.745   9.111 -11.224  1.00 58.83 LIG 0.28  HD
ENDBRANCH 1 2
BRANCH 1 6
ATOM      6  CB  ARG B   1      27.827  10.323 -12.032  1.00 59.00 LIG 0.04  C 
BRANCH 6 7
ATOM      7  CG  ARG B   1      27.534   9.542 -13.315  1.00 58.73 LIG 0.02  C 
BRANCH 7 8
ATOM      8  CD  ARG B   1      26.152   9.841 -13.900  1.00 57.79 LIG 0.14  C 
BRANCH 8 9
ATOM      9  NE  ARG B   1      26.164  11.063 -14.707  1.00 57.71 LIG-0.23  N 
ATOM     10  CZ  ARG B   1      26.571  11.135 -15.974  1.00 57.43 LIG 0.67  C 
ATOM     11  NH1 ARG B   1      27.013  10.059 -16.611  1.00 56.57 LIG-0.23  N 
ATOM     12  NH2 ARG B   1      26.530  12.298 -16.614  1.00 57.93 LIG-0.23  N 
ATOM     13 2HH1 ARG B   1      27.272  10.120 -17.428  1.00 56.57 LIG 0.17  HD
ATOM     14 1HH1 ARG B   1      27.041   9.301 -16.206  1.00 56.57 LIG 0.17  HD
ATOM     15 2HH2 ARG B   1      26.791  12.348 -17.431  1.00 57.93 LIG 0.17  HD
ATOM     16 1HH2 ARG B   1      26.242  13.001 -16.211  1.00 57.93 LIG 0.17  HD
ATOM     17 HE   ARG B   1      25.888  11.788 -14.336  1.00 57.71 LIG 0.18  HD
ENDBRANCH 8 9
ENDBRANCH 7 8
ENDBRANCH 6 7
ENDBRANCH 1 6
BRANCH 1 18
ATOM     18  C   ARG B   1      28.236  10.311  -9.572  1.00 59.69 LIG 0.25  C 
ATOM     19 O    ARG B   1      28.767  11.402  -9.764  1.00 59.48 LIG-0.27  OA
ATOM     20  N   ILE B   2      28.167   9.733  -8.378  1.00 60.56 LIG-0.35  N 
ATOM     21 H    ILE B   2      27.737   9.005  -8.218  1.00 60.56 LIG 0.16  HD
BRANCH 20 22
ATOM     22  CA  ILE B   2      28.837  10.309  -7.219  1.00 61.73 LIG 0.18  C 
BRANCH 22 23
ATOM     23  CB  ILE B   2      28.026  11.487  -6.592  1.00 61.78 LIG 0.01  C 
ATOM     24  CG2 ILE B   2      28.401  12.843  -7.211  1.00 61.94 LIG 0.01  C 
BRANCH 23 25
ATOM     25  CG1 ILE B   2      26.521  11.216  -6.677  1.00 62.37 LIG 0.00  C 
ATOM     26  CD1 ILE B   2      25.877  10.887  -5.336  1.00 63.06 LIG 0.01  C 
ENDBRANCH 23 25
ENDBRANCH 22 23
BRANCH 22 27
ATOM     27  C   ILE B   2      29.146   9.203  -6.211  1.00 62.33 LIG 0.24  C 
ATOM     28 O    ILE B   2      30.302   9.023  -5.810  1.00 62.62 LIG-0.27  OA
ATOM     29  N   ALA B   3      28.104   8.489  -5.785  1.00 63.04 LIG-0.35  N 
ATOM     30 H    ALA B   3      27.305   8.580  -6.090  1.00 63.04 LIG 0.16  HD
BRANCH 29 31
ATOM     31  CA  ALA B   3      28.240   7.470  -4.738  1.00 63.50 LIG 0.16  C 
ATOM     32  CB  ALA B   3      28.971   8.044  -3.521  1.00 63.68 LIG 0.04  C 
BRANCH 31 33
ATOM     33  C   ALA B   3      26.900   6.865  -4.327  1.00 63.68 LIG 0.22  C 
ATOM     34 O    ALA B   3      26.379   5.966  -4.989  1.00 63.94 LIG-0.29  OA
ENDBRANCH 31 33
ENDBRANCH 29 31
ENDBRANCH 22 27
ENDBRANCH 20 22
ENDBRANCH 1 18
TORSDOF 12
ENDMDL
MODEL 11
USER: ADFR SOLUTION from run 32
USER: SCORE 14.366322 LL:  -0.792 LR: -13.590 RR:   0.000 FEB: -10.010
USER: RMSD 3.841101
USER: SEED 31
USER: STATUS no improvement in best in 13 clusters for 5 generations
USER: GENES 14
USER: genes 0 Translation |==|  0.34811 0.55562 0.51143
USER: genes 1 Rotation |==|  0.54272 0.52239 0.58447 0.99045
USER: genes 2 Torsion [CB]-CA--N-[H1] |==|  0.42982
USER: genes 3 Torsion [N]-CA--CB-[CG] |==|  0.70858
USER: genes 4 Torsion [CA]-CB--CG-[CD] |==|  0.31466
USER: genes 5 Torsion [CB]-CG--CD-[NE] |==|  0.89424
USER: genes 6 Torsion [CG]-CD--NE-[CZ] |==|  0.51811
USER: genes 7 Torsion [N]-CA--C-[N] |==|  0.38851
USER: genes 8 Torsion [C]-N--CA-[CB] |==|  0.83880
USER: genes 9 Torsion [N]-CA--CB-[CG2] |==|  0.55533
USER: genes 10 Torsion [CA]-CB--CG1-[CD1] |==|  0.78232
USER: genes 11 Torsion [N]-CA--C-[N] |==|  0.39484
USER: genes 12 Torsion [C]-N--CA-[CB] |==|  0.81412
USER: genes 13 Torsion [N]-CA--C-[O] |==|  0.95126
ROOT
ATOM      1  CA  ARG B   1      26.873  10.842  -8.490  1.00 59.17 LIG 0.27  C 
ENDROOT
BRANCH 1 2
ATOM      2  N   ARG B   1      25.898  11.938  -8.739  1.00 58.83 LIG-0.07  N 
ATOM      3 H3   ARG B   1      25.861  12.111  -9.611  1.00 58.83 LIG 0.28  HD
ATOM      4 H2   ARG B   1      26.156  12.670  -8.303  1.00 58.83 LIG 0.28  HD
ATOM      5 H1   ARG B   1      25.093  11.691  -8.452  1.00 58.83 LIG 0.28  HD
ENDBRANCH 1 2
BRANCH 1 6
ATOM      6  CB  ARG B   1      28.055  10.915  -9.465  1.00 59.00 LIG 0.04  C 
BRANCH 6 7
ATOM      7  CG  ARG B   1      28.048   9.878 -10.591  1.00 58.73 LIG 0.02  C 
BRANCH 7 8
ATOM      8  CD  ARG B   1      27.854  10.495 -11.978  1.00 57.79 LIG 0.14  C 
BRANCH 8 9
ATOM      9  NE  ARG B   1      26.901  11.607 -11.942  1.00 57.71 LIG-0.23  N 
ATOM     10  CZ  ARG B   1      26.443  12.253 -13.013  1.00 57.43 LIG 0.67  C 
ATOM     11  NH1 ARG B   1      26.841  11.917 -14.234  1.00 56.57 LIG-0.23  N 
ATOM     12  NH2 ARG B   1      25.571  13.243 -12.864  1.00 57.93 LIG-0.23  N 
ATOM     13 2HH1 ARG B   1      26.537  12.342 -14.917  1.00 56.57 LIG 0.17  HD
ATOM     14 1HH1 ARG B   1      27.403  11.275 -14.342  1.00 56.57 LIG 0.17  HD
ATOM     15 2HH2 ARG B   1      25.274  13.661 -13.554  1.00 57.93 LIG 0.17  HD
ATOM     16 1HH2 ARG B   1      25.305  13.466 -12.078  1.00 57.93 LIG 0.17  HD
ATOM     17 HE   ARG B   1      26.616  11.863 -11.171  1.00 57.71 LIG 0.18  HD
ENDBRANCH 8 9
ENDBRANCH 7 8
ENDBRANCH 6 7
ENDBRANCH 1 6
BRANCH 1 18
ATOM     18  C   ARG B   1      27.384  10.902  -7.064  1.00 59.69 LIG 0.25  C 
ATOM     19 O    ARG B   1      27.630  11.984  -6.538  1.00 59.48 LIG-0.27  OA
ATOM     20  N   ILE B   2      27.532   9.738  -6.442  1.00 60.56 LIG-0.35  N 
ATOM     21 H    ILE B   2      27.297   8.980  -6.774  1.00 60.56 LIG 0.16  HD
BRANCH 20 22
ATOM     22  CA  ILE B   2      28.122   9.661  -5.111  1.00 61.73 LIG 0.18  C 
BRANCH 22 23
ATOM     23  CB  ILE B   2      29.561  10.263  -5.066  1.00 61.78 LIG 0.01  C 
ATOM     24  CG2 ILE B   2      30.361   9.764  -3.852  1.00 61.94 LIG 0.01  C 
BRANCH 23 25
ATOM     25  CG1 ILE B   2      30.300  10.005  -6.383  1.00 62.37 LIG 0.00  C 
ATOM     26  CD1 ILE B   2      30.849   8.590  -6.516  1.00 63.06 LIG 0.01  C 
ENDBRANCH 23 25
ENDBRANCH 22 23
BRANCH 22 27
ATOM     27  C   ILE B   2      27.177  10.310  -4.101  1.00 62.33 LIG 0.24  C 
ATOM     28 O    ILE B   2      26.518  11.310  -4.411  1.00 62.62 LIG-0.27  OA
ATOM     29  N   ALA B   3      27.094   9.719  -2.910  1.00 63.04 LIG-0.35  N 
ATOM     30 H    ALA B   3      27.579   9.050  -2.673  1.00 63.04 LIG 0.16  HD
BRANCH 29 31
ATOM     31  CA  ALA B   3      26.147  10.172  -1.885  1.00 63.50 LIG 0.16  C 
ATOM     32  CB  ALA B   3      26.525  11.568  -1.382  1.00 63.68 LIG 0.04  C 
BRANCH 31 33
ATOM     33  C   ALA B   3      24.699  10.146  -2.367  1.00 63.68 LIG 0.22  C 
ATOM     34 O    ALA B   3      24.429  10.091  -3.568  1.00 63.94 LIG-0.29  OA
ENDBRANCH 31 33
ENDBRANCH 29 31
ENDBRANCH 22 27
ENDBRANCH 20 22
ENDBRANCH 1 18
TORSDOF 12
ENDMDL
MODEL 12
USER: ADFR SOLUTION from run 45
USER: SCORE 13.717344 LL:  -1.171 LR: -13.377 RR:   0.000 FEB:  -9.797
USER: RMSD 3.698589
USER: SEED 44
USER: STATUS no improvement in best in 10 clusters for 5 generations
USER: GENES 14
USER: genes 0 Translation |==|  0.41156 0.55047 0.47942
USER: genes 1 Rotation |==|  0.48980 0.46754 0.74924 0.93211
USER: genes 2 Torsion [CB]-CA--N-[H1] |==|  0.83114
USER: genes 3 Torsion [N]-CA--CB-[CG] |==|  0.78893
USER: genes 4 Torsion [CA]-CB--CG-[CD] |==|  0.77075
USER: genes 5 Torsion [CB]-CG--CD-[NE] |==|  0.29975
USER: genes 6 Torsion [CG]-CD--NE-[CZ] |==|  0.28987
USER: genes 7 Torsion [N]-CA--C-[N] |==|  0.28930
USER: genes 8 Torsion [C]-N--CA-[CB] |==|  0.17796
USER: genes 9 Torsion [N]-CA--CB-[CG2] |==|  0.10103
USER: genes 10 Torsion [CA]-CB--CG1-[CD1] |==|  0.72285
USER: genes 11 Torsion [N]-CA--C-[N] |==|  0.91440
USER: genes 12 Torsion [C]-N--CA-[CB] |==|  0.80673
USER: genes 13 Torsion [N]-CA--C-[O] |==|  0.28081
ROOT
ATOM      1  CA  ARG B   1      27.824  10.772  -9.187  1.00 59.17 LIG 0.27  C 
ENDROOT
BRANCH 1 2
ATOM      2  N   ARG B   1      26.526  10.977  -9.884  1.00 58.83 LIG-0.07  N 
ATOM      3 H3   ARG B   1      25.895  10.490  -9.488  1.00 58.83 LIG 0.28  HD
ATOM      4 H2   ARG B   1      26.603  10.727 -10.735  1.00 58.83 LIG 0.28  HD
ATOM      5 H1   ARG B   1      26.302  11.838  -9.848  1.00 58.83 LIG 0.28  HD
ENDBRANCH 1 2
BRANCH 1 6
ATOM      6  CB  ARG B   1      28.948  11.580  -9.850  1.00 59.00 LIG 0.04  C 
BRANCH 6 7
ATOM      7  CG  ARG B   1      29.482  11.010 -11.166  1.00 58.73 LIG 0.02  C 
BRANCH 7 8
ATOM      8  CD  ARG B   1      30.523   9.906 -10.965  1.00 57.79 LIG 0.14  C 
BRANCH 8 9
ATOM      9  NE  ARG B   1      29.982   8.589 -11.308  1.00 57.71 LIG-0.23  N 
ATOM     10  CZ  ARG B   1      30.264   7.916 -12.423  1.00 57.43 LIG 0.67  C 
ATOM     11  NH1 ARG B   1      31.085   8.420 -13.335  1.00 56.57 LIG-0.23  N 
ATOM     12  NH2 ARG B   1      29.721   6.721 -12.627  1.00 57.93 LIG-0.23  N 
ATOM     13 2HH1 ARG B   1      31.258   7.975 -14.050  1.00 56.57 LIG 0.17  HD
ATOM     14 1HH1 ARG B   1      31.444   9.192 -13.211  1.00 56.57 LIG 0.17  HD
ATOM     15 2HH2 ARG B   1      29.901   6.285 -13.345  1.00 57.93 LIG 0.17  HD
ATOM     16 1HH2 ARG B   1      29.190   6.385 -12.041  1.00 57.93 LIG 0.17  HD
ATOM     17 HE   ARG B   1      29.441   8.223 -10.748  1.00 57.71 LIG 0.18  HD
ENDBRANCH 8 9
ENDBRANCH 7 8
ENDBRANCH 6 7
ENDBRANCH 1 6
BRANCH 1 18
ATOM     18  C   ARG B   1      27.709  11.166  -7.727  1.00 59.69 LIG 0.25  C 
ATOM     19 O    ARG B   1      27.682  12.350  -7.403  1.00 59.48 LIG-0.27  OA
ATOM     20  N   ILE B   2      27.630  10.168  -6.853  1.00 60.56 LIG-0.35  N 
ATOM     21 H    ILE B   2      27.576   9.338  -7.071  1.00 60.56 LIG 0.16  HD
BRANCH 20 22
ATOM     22  CA  ILE B   2      27.628  10.419  -5.417  1.00 61.73 LIG 0.18  C 
BRANCH 22 23
ATOM     23  CB  ILE B   2      26.375  11.230  -4.959  1.00 61.78 LIG 0.01  C 
ATOM     24  CG2 ILE B   2      25.113  10.841  -5.746  1.00 61.94 LIG 0.01  C 
BRANCH 23 25
ATOM     25  CG1 ILE B   2      26.167  11.102  -3.447  1.00 62.37 LIG 0.00  C 
ATOM     26  CD1 ILE B   2      25.104  10.084  -3.054  1.00 63.06 LIG 0.01  C 
ENDBRANCH 23 25
ENDBRANCH 22 23
BRANCH 22 27
ATOM     27  C   ILE B   2      27.778   9.094  -4.672  1.00 62.33 LIG 0.24  C 
ATOM     28 O    ILE B   2      28.325   9.055  -3.563  1.00 62.62 LIG-0.27  OA
ATOM     29  N   ALA B   3      27.264   8.021  -5.271  1.00 63.04 LIG-0.35  N 
ATOM     30 H    ALA B   3      26.920   8.032  -6.059  1.00 63.04 LIG 0.16  HD
BRANCH 29 31
ATOM     31  CA  ALA B   3      27.241   6.706  -4.621  1.00 63.50 LIG 0.16  C 
ATOM     32  CB  ALA B   3      28.658   6.138  -4.507  1.00 63.68 LIG 0.04  C 
BRANCH 31 33
ATOM     33  C   ALA B   3      26.560   6.735  -3.255  1.00 63.68 LIG 0.22  C 
ATOM     34 O    ALA B   3      25.401   6.343  -3.113  1.00 63.94 LIG-0.29  OA
ENDBRANCH 31 33
ENDBRANCH 29 31
ENDBRANCH 22 27
ENDBRANCH 20 22
ENDBRANCH 1 18
TORSDOF 12
ENDMDL
MODEL 13
USER: ADFR SOLUTION from run 131
USER: SCORE 13.998706 LL:  -0.779 LR: -13.268 RR:   0.000 FEB:  -9.689
USER: RMSD 2.534733
USER: SEED 130
USER: STATUS no improvement in best in 4 clusters for 5 generations
USER: GENES 14
USER: genes 0 Translation |==|  0.34380 0.54933 0.57374
USER: genes 1 Rotation |==|  0.51123 0.42452 0.78395 0.90441
USER: genes 2 Torsion [CB]-CA--N-[H1] |==|  0.12660
USER: genes 3 Torsion [N]-CA--CB-[CG] |==|  0.91832
USER: genes 4 Torsion [CA]-CB--CG-[CD] |==|  0.81596
USER: genes 5 Torsion [CB]-CG--CD-[NE] |==|  0.32504
USER: genes 6 Torsion [CG]-CD--NE-[CZ] |==|  0.59364
USER: genes 7 Torsion [N]-CA--C-[N] |==|  0.41121
USER: genes 8 Torsion [C]-N--CA-[CB] |==|  0.15150
USER: genes 9 Torsion [N]-CA--CB-[CG2] |==|  0.22850
USER: genes 10 Torsion [CA]-CB--CG1-[CD1] |==|  0.98757
USER: genes 11 Torsion [N]-CA--C-[N] |==|  0.10565
USER: genes 12 Torsion [C]-N--CA-[CB] |==|  0.30345
USER: genes 13 Torsion [N]-CA--C-[O] |==|  0.04481
ROOT
ATOM      1  CA  ARG B   1      26.808  10.757  -7.135  1.00 59.17 LIG 0.27  C 
ENDROOT
BRANCH 1 2
ATOM      2  N   ARG B   1      25.567  10.840  -7.952  1.00 58.83 LIG-0.07  N 
ATOM      3 H3   ARG B   1      25.080  11.534  -7.684  1.00 58.83 LIG 0.28  HD
ATOM      4 H2   ARG B   1      25.096  10.091  -7.853  1.00 58.83 LIG 0.28  HD
ATOM      5 H1   ARG B   1      25.782  10.942  -8.810  1.00 58.83 LIG 0.28  HD
ENDBRANCH 1 2
BRANCH 1 6
ATOM      6  CB  ARG B   1      27.815  11.843  -7.538  1.00 59.00 LIG 0.04  C 
BRANCH 6 7
ATOM      7  CG  ARG B   1      27.751  12.292  -9.000  1.00 58.73 LIG 0.02  C 
BRANCH 7 8
ATOM      8  CD  ARG B   1      28.157  11.194  -9.986  1.00 57.79 LIG 0.14  C 
BRANCH 8 9
ATOM      9  NE  ARG B   1      27.046  10.827 -10.867  1.00 57.71 LIG-0.23  N 
ATOM     10  CZ  ARG B   1      26.823   9.603 -11.342  1.00 57.43 LIG 0.67  C 
ATOM     11  NH1 ARG B   1      27.630   8.595 -11.037  1.00 56.57 LIG-0.23  N 
ATOM     12  NH2 ARG B   1      25.776   9.381 -12.129  1.00 57.93 LIG-0.23  N 
ATOM     13 2HH1 ARG B   1      27.475   7.810 -11.350  1.00 56.57 LIG 0.17  HD
ATOM     14 1HH1 ARG B   1      28.309   8.728 -10.526  1.00 56.57 LIG 0.17  HD
ATOM     15 2HH2 ARG B   1      25.630   8.592 -12.436  1.00 57.93 LIG 0.17  HD
ATOM     16 1HH2 ARG B   1      25.245  10.027 -12.330  1.00 57.93 LIG 0.17  HD
ATOM     17 HE   ARG B   1      26.497  11.449 -11.096  1.00 57.71 LIG 0.18  HD
ENDBRANCH 8 9
ENDBRANCH 7 8
ENDBRANCH 6 7
ENDBRANCH 1 6
BRANCH 1 18
ATOM     18  C   ARG B   1      26.480  10.889  -5.661  1.00 59.69 LIG 0.25  C 
ATOM     19 O    ARG B   1      25.529  11.575  -5.295  1.00 59.48 LIG-0.27  OA
ATOM     20  N   ILE B   2      27.265  10.223  -4.821  1.00 60.56 LIG-0.35  N 
ATOM     21 H    ILE B   2      27.889   9.684  -5.067  1.00 60.56 LIG 0.16  HD
BRANCH 20 22
ATOM     22  CA  ILE B   2      27.119  10.361  -3.377  1.00 61.73 LIG 0.18  C 
BRANCH 22 23
ATOM     23  CB  ILE B   2      25.662  10.065  -2.899  1.00 61.78 LIG 0.01  C 
ATOM     24  CG2 ILE B   2      25.399   8.559  -2.739  1.00 61.94 LIG 0.01  C 
BRANCH 23 25
ATOM     25  CG1 ILE B   2      25.342  10.841  -1.618  1.00 62.37 LIG 0.00  C 
ATOM     26  CD1 ILE B   2      26.526  11.619  -1.056  1.00 63.06 LIG 0.01  C 
ENDBRANCH 23 25
ENDBRANCH 22 23
BRANCH 22 27
ATOM     27  C   ILE B   2      28.159   9.488  -2.677  1.00 62.33 LIG 0.24  C 
ATOM     28 O    ILE B   2      27.864   8.858  -1.654  1.00 62.62 LIG-0.27  OA
ATOM     29  N   ALA B   3      29.360   9.431  -3.251  1.00 63.04 LIG-0.35  N 
ATOM     30 H    ALA B   3      29.585   9.898  -3.937  1.00 63.04 LIG 0.16  HD
BRANCH 29 31
ATOM     31  CA  ALA B   3      30.418   8.547  -2.748  1.00 63.50 LIG 0.16  C 
ATOM     32  CB  ALA B   3      30.658   7.389  -3.721  1.00 63.68 LIG 0.04  C 
BRANCH 31 33
ATOM     33  C   ALA B   3      31.720   9.290  -2.461  1.00 63.68 LIG 0.22  C 
ATOM     34 O    ALA B   3      31.743  10.518  -2.364  1.00 63.94 LIG-0.29  OA
ENDBRANCH 31 33
ENDBRANCH 29 31
ENDBRANCH 22 27
ENDBRANCH 20 22
ENDBRANCH 1 18
TORSDOF 12
ENDMDL
MODEL 14
USER: ADFR SOLUTION from run 38
USER: SCORE 13.525057 LL:  -0.799 LR: -13.155 RR:   0.000 FEB:  -9.576
USER: RMSD 4.144465
USER: SEED 37
USER: STATUS no improvement in best in 10 clusters for 5 generations
USER: GENES 14
USER: genes 0 Translation |==|  0.39531 0.45573 0.42203
USER: genes 1 Rotation |==|  0.46899 0.54848 0.78589 0.90615
USER: genes 2 Torsion [CB]-CA--N-[H1] |==|  0.55847
USER: genes 3 Torsion [N]-CA--CB-[CG] |==|  0.07192
USER: genes 4 Torsion [CA]-CB--CG-[CD] |==|  0.73340
USER: genes 5 Torsion [CB]-CG--CD-[NE] |==|  0.54610
USER: genes 6 Torsion [CG]-CD--NE-[CZ] |==|  0.37712
USER: genes 7 Torsion [N]-CA--C-[N] |==|  0.96216
USER: genes 8 Torsion [C]-N--CA-[CB] |==|  0.77195
USER: genes 9 Torsion [N]-CA--CB-[CG2] |==|  0.21025
USER: genes 10 Torsion [CA]-CB--CG1-[CD1] |==|  0.57972
USER: genes 11 Torsion [N]-CA--C-[N] |==|  0.13892
USER: genes 12 Torsion [C]-N--CA-[CB] |==|  0.48263
USER: genes 13 Torsion [N]-CA--C-[O] |==|  0.81309
ROOT
ATOM      1  CA  ARG B   1      27.581   9.493 -10.435  1.00 59.17 LIG 0.27  C 
ENDROOT
BRANCH 1 2
ATOM      2  N   ARG B   1      26.150   9.333 -10.812  1.00 58.83 LIG-0.07  N 
ATOM      3 H3   ARG B   1      26.065   8.645 -11.369  1.00 58.83 LIG 0.28  HD
ATOM      4 H2   ARG B   1      25.864  10.075 -11.212  1.00 58.83 LIG 0.28  HD
ATOM      5 H1   ARG B   1      25.665   9.184 -10.081  1.00 58.83 LIG 0.28  HD
ENDBRANCH 1 2
BRANCH 1 6
ATOM      6  CB  ARG B   1      28.363  10.245 -11.520  1.00 59.00 LIG 0.04  C 
BRANCH 6 7
ATOM      7  CG  ARG B   1      27.535  11.185 -12.399  1.00 58.73 LIG 0.02  C 
BRANCH 7 8
ATOM      8  CD  ARG B   1      27.091  10.545 -13.716  1.00 57.79 LIG 0.14  C 
BRANCH 8 9
ATOM      9  NE  ARG B   1      26.654  11.555 -14.683  1.00 57.71 LIG-0.23  N 
ATOM     10  CZ  ARG B   1      26.988  11.569 -15.973  1.00 57.43 LIG 0.67  C 
ATOM     11  NH1 ARG B   1      27.774  10.631 -16.485  1.00 56.57 LIG-0.23  N 
ATOM     12  NH2 ARG B   1      26.526  12.532 -16.763  1.00 57.93 LIG-0.23  N 
ATOM     13 2HH1 ARG B   1      27.981  10.652 -17.319  1.00 56.57 LIG 0.17  HD
ATOM     14 1HH1 ARG B   1      28.076  10.002 -15.982  1.00 56.57 LIG 0.17  HD
ATOM     15 2HH2 ARG B   1      26.739  12.543 -17.596  1.00 57.93 LIG 0.17  HD
ATOM     16 1HH2 ARG B   1      26.014  13.143 -16.442  1.00 57.93 LIG 0.17  HD
ATOM     17 HE   ARG B   1      26.145  12.187 -14.397  1.00 57.71 LIG 0.18  HD
ENDBRANCH 8 9
ENDBRANCH 7 8
ENDBRANCH 6 7
ENDBRANCH 1 6
BRANCH 1 18
ATOM     18  C   ARG B   1      27.701  10.234  -9.117  1.00 59.69 LIG 0.25  C 
ATOM     19 O    ARG B   1      28.770  10.259  -8.514  1.00 59.48 LIG-0.27  OA
ATOM     20  N   ILE B   2      26.603  10.843  -8.682  1.00 60.56 LIG-0.35  N 
ATOM     21 H    ILE B   2      25.869  10.892  -9.128  1.00 60.56 LIG 0.16  HD
BRANCH 20 22
ATOM     22  CA  ILE B   2      26.564  11.491  -7.377  1.00 61.73 LIG 0.18  C 
BRANCH 22 23
ATOM     23  CB  ILE B   2      26.293  10.477  -6.221  1.00 61.78 LIG 0.01  C 
ATOM     24  CG2 ILE B   2      27.535   9.636  -5.884  1.00 61.94 LIG 0.01  C 
BRANCH 23 25
ATOM     25  CG1 ILE B   2      25.737  11.194  -4.987  1.00 62.37 LIG 0.00  C 
ATOM     26  CD1 ILE B   2      26.078  10.510  -3.669  1.00 63.06 LIG 0.01  C 
ENDBRANCH 23 25
ENDBRANCH 22 23
BRANCH 22 27
ATOM     27  C   ILE B   2      27.848  12.292  -7.171  1.00 62.33 LIG 0.24  C 
ATOM     28 O    ILE B   2      28.524  12.142  -6.146  1.00 62.62 LIG-0.27  OA
ATOM     29  N   ALA B   3      28.193  13.114  -8.161  1.00 63.04 LIG-0.35  N 
ATOM     30 H    ALA B   3      27.708  13.255  -8.857  1.00 63.04 LIG 0.16  HD
BRANCH 29 31
ATOM     31  CA  ALA B   3      29.456  13.861  -8.144  1.00 63.50 LIG 0.16  C 
ATOM     32  CB  ALA B   3      29.661  14.601  -9.469  1.00 63.68 LIG 0.04  C 
BRANCH 31 33
ATOM     33  C   ALA B   3      29.554  14.826  -6.966  1.00 63.68 LIG 0.22  C 
ATOM     34 O    ALA B   3      28.820  15.812  -6.888  1.00 63.94 LIG-0.29  OA
ENDBRANCH 31 33
ENDBRANCH 29 31
ENDBRANCH 22 27
ENDBRANCH 20 22
ENDBRANCH 1 18
TORSDOF 12
ENDMDL
MODEL 15
USER: ADFR SOLUTION from run 20
USER: SCORE 13.158000 LL:  -1.093 LR: -13.147 RR:   0.000 FEB:  -9.567
USER: RMSD 2.594499
USER: SEED 19
USER: STATUS no improvement in best in 14 clusters for 5 generations
USER: GENES 14
USER: genes 0 Translation |==|  0.41351 0.54566 0.48452
USER: genes 1 Rotation |==|  0.48171 0.48302 0.75548 0.92907
USER: genes 2 Torsion [CB]-CA--N-[H1] |==|  0.44025
USER: genes 3 Torsion [N]-CA--CB-[CG] |==|  0.78979
USER: genes 4 Torsion [CA]-CB--CG-[CD] |==|  0.90948
USER: genes 5 Torsion [CB]-CG--CD-[NE] |==|  0.37736
USER: genes 6 Torsion [CG]-CD--NE-[CZ] |==|  0.43734
USER: genes 7 Torsion [N]-CA--C-[N] |==|  0.27680
USER: genes 8 Torsion [C]-N--CA-[CB] |==|  0.20605
USER: genes 9 Torsion [N]-CA--CB-[CG2] |==|  0.07489
USER: genes 10 Torsion [CA]-CB--CG1-[CD1] |==|  0.70323
USER: genes 11 Torsion [N]-CA--C-[N] |==|  0.33824
USER: genes 12 Torsion [C]-N--CA-[CB] |==|  0.15301
USER: genes 13 Torsion [N]-CA--C-[O] |==|  0.03701
ROOT
ATOM      1  CA  ARG B   1      27.854  10.707  -9.076  1.00 59.17 LIG 0.27  C 
ENDROOT
BRANCH 1 2
ATOM      2  N   ARG B   1      26.526  10.839  -9.735  1.00 58.83 LIG-0.07  N 
ATOM      3 H3   ARG B   1      26.631  10.833 -10.618  1.00 58.83 LIG 0.28  HD
ATOM      4 H2   ARG B   1      26.147  11.606  -9.487  1.00 58.83 LIG 0.28  HD
ATOM      5 H1   ARG B   1      26.005  10.160  -9.493  1.00 58.83 LIG 0.28  HD
ENDBRANCH 1 2
BRANCH 1 6
ATOM      6  CB  ARG B   1      28.931  11.499  -9.828  1.00 59.00 LIG 0.04  C 
BRANCH 6 7
ATOM      7  CG  ARG B   1      29.427  10.865 -11.130  1.00 58.73 LIG 0.02  C 
BRANCH 7 8
ATOM      8  CD  ARG B   1      29.422   9.335 -11.096  1.00 57.79 LIG 0.14  C 
BRANCH 8 9
ATOM      9  NE  ARG B   1      28.877   8.773 -12.335  1.00 57.71 LIG-0.23  N 
ATOM     10  CZ  ARG B   1      29.123   7.544 -12.785  1.00 57.43 LIG 0.67  C 
ATOM     11  NH1 ARG B   1      29.914   6.716 -12.114  1.00 56.57 LIG-0.23  N 
ATOM     12  NH2 ARG B   1      28.567   7.134 -13.920  1.00 57.93 LIG-0.23  N 
ATOM     13 2HH1 ARG B   1      30.064   5.925 -12.416  1.00 56.57 LIG 0.17  HD
ATOM     14 1HH1 ARG B   1      30.276   6.971 -11.377  1.00 56.57 LIG 0.17  HD
ATOM     15 2HH2 ARG B   1      28.724   6.341 -14.213  1.00 57.93 LIG 0.17  HD
ATOM     16 1HH2 ARG B   1      28.051   7.661 -14.360  1.00 57.93 LIG 0.17  HD
ATOM     17 HE   ARG B   1      28.361   9.274 -12.806  1.00 57.71 LIG 0.18  HD
ENDBRANCH 8 9
ENDBRANCH 7 8
ENDBRANCH 6 7
ENDBRANCH 1 6
BRANCH 1 18
ATOM     18  C   ARG B   1      27.781  11.187  -7.639  1.00 59.69 LIG 0.25  C 
ATOM     19 O    ARG B   1      27.819  12.387  -7.381  1.00 59.48 LIG-0.27  OA
ATOM     20  N   ILE B   2      27.666  10.245  -6.709  1.00 60.56 LIG-0.35  N 
ATOM     21 H    ILE B   2      27.567   9.407  -6.880  1.00 60.56 LIG 0.16  HD
BRANCH 20 22
ATOM     22  CA  ILE B   2      27.700  10.574  -5.289  1.00 61.73 LIG 0.18  C 
BRANCH 22 23
ATOM     23  CB  ILE B   2      26.379  11.253  -4.808  1.00 61.78 LIG 0.01  C 
ATOM     24  CG2 ILE B   2      25.170  10.841  -5.664  1.00 61.94 LIG 0.01  C 
BRANCH 23 25
ATOM     25  CG1 ILE B   2      26.142  10.986  -3.318  1.00 62.37 LIG 0.00  C 
ATOM     26  CD1 ILE B   2      25.026   9.986  -3.040  1.00 63.06 LIG 0.01  C 
ENDBRANCH 23 25
ENDBRANCH 22 23
BRANCH 22 27
ATOM     27  C   ILE B   2      28.047   9.321  -4.487  1.00 62.33 LIG 0.24  C 
ATOM     28 O    ILE B   2      27.355   8.300  -4.587  1.00 62.62 LIG-0.27  OA
ATOM     29  N   ALA B   3      29.134   9.396  -3.721  1.00 63.04 LIG-0.35  N 
ATOM     30 H    ALA B   3      29.595  10.114  -3.613  1.00 63.04 LIG 0.16  HD
BRANCH 29 31
ATOM     31  CA  ALA B   3      29.643   8.235  -2.983  1.00 63.50 LIG 0.16  C 
ATOM     32  CB  ALA B   3      29.888   7.059  -3.933  1.00 63.68 LIG 0.04  C 
BRANCH 31 33
ATOM     33  C   ALA B   3      30.903   8.552  -2.181  1.00 63.68 LIG 0.22  C 
ATOM     34 O    ALA B   3      31.259   9.716  -1.989  1.00 63.94 LIG-0.29  OA
ENDBRANCH 31 33
ENDBRANCH 29 31
ENDBRANCH 22 27
ENDBRANCH 20 22
ENDBRANCH 1 18
TORSDOF 12
ENDMDL
MODEL 16
USER: ADFR SOLUTION from run 114
USER: SCORE 13.184681 LL:  -1.162 LR: -13.027 RR:   0.000 FEB:  -9.447
USER: RMSD 2.266338
USER: SEED 113
USER: STATUS no improvement in best in 10 clusters for 5 generations
USER: GENES 14
USER: genes 0 Translation |==|  0.41084 0.47628 0.44381
USER: genes 1 Rotation |==|  0.45704 0.56889 0.65289 0.96908
USER: genes 2 Torsion [CB]-CA--N-[H1] |==|  0.41987
USER: genes 3 Torsion [N]-CA--CB-[CG] |==|  0.86621
USER: genes 4 Torsion [CA]-CB--CG-[CD] |==|  0.90107
USER: genes 5 Torsion [CB]-CG--CD-[NE] |==|  0.64755
USER: genes 6 Torsion [CG]-CD--NE-[CZ] |==|  0.72300
USER: genes 7 Torsion [N]-CA--C-[N] |==|  0.16963
USER: genes 8 Torsion [C]-N--CA-[CB] |==|  0.46111
USER: genes 9 Torsion [N]-CA--CB-[CG2] |==|  0.98382
USER: genes 10 Torsion [CA]-CB--CG1-[CD1] |==|  0.43852
USER: genes 11 Torsion [N]-CA--C-[N] |==|  0.40676
USER: genes 12 Torsion [C]-N--CA-[CB] |==|  0.42352
USER: genes 13 Torsion [N]-CA--C-[O] |==|  0.92388
ROOT
ATOM      1  CA  ARG B   1      27.814   9.771  -9.961  1.00 59.17 LIG 0.27  C 
ENDROOT
BRANCH 1 2
ATOM      2  N   ARG B   1      26.526  10.379 -10.393  1.00 58.83 LIG-0.07  N 
ATOM      3 H3   ARG B   1      26.419  10.259 -11.268  1.00 58.83 LIG 0.28  HD
ATOM      4 H2   ARG B   1      26.534  11.251 -10.213  1.00 58.83 LIG 0.28  HD
ATOM      5 H1   ARG B   1      25.854   9.993  -9.957  1.00 58.83 LIG 0.28  HD
ENDBRANCH 1 2
BRANCH 1 6
ATOM      6  CB  ARG B   1      28.862   9.830 -11.080  1.00 59.00 LIG 0.04  C 
BRANCH 6 7
ATOM      7  CG  ARG B   1      28.385   9.357 -12.456  1.00 58.73 LIG 0.02  C 
BRANCH 7 8
ATOM      8  CD  ARG B   1      27.398   8.190 -12.383  1.00 57.79 LIG 0.14  C 
BRANCH 8 9
ATOM      9  NE  ARG B   1      27.831   7.068 -13.220  1.00 57.71 LIG-0.23  N 
ATOM     10  CZ  ARG B   1      27.361   6.799 -14.437  1.00 57.43 LIG 0.67  C 
ATOM     11  NH1 ARG B   1      26.427   7.562 -14.991  1.00 56.57 LIG-0.23  N 
ATOM     12  NH2 ARG B   1      27.834   5.758 -15.111  1.00 57.93 LIG-0.23  N 
ATOM     13 2HH1 ARG B   1      26.133   7.377 -15.778  1.00 56.57 LIG 0.17  HD
ATOM     14 1HH1 ARG B   1      26.117   8.240 -14.564  1.00 56.57 LIG 0.17  HD
ATOM     15 2HH2 ARG B   1      27.532   5.582 -15.897  1.00 57.93 LIG 0.17  HD
ATOM     16 1HH2 ARG B   1      28.441   5.259 -14.762  1.00 57.93 LIG 0.17  HD
ATOM     17 HE   ARG B   1      28.434   6.543 -12.901  1.00 57.71 LIG 0.18  HD
ENDBRANCH 8 9
ENDBRANCH 7 8
ENDBRANCH 6 7
ENDBRANCH 1 6
BRANCH 1 18
ATOM     18  C   ARG B   1      28.345  10.477  -8.729  1.00 59.69 LIG 0.25  C 
ATOM     19 O    ARG B   1      29.427  11.057  -8.763  1.00 59.48 LIG-0.27  OA
ATOM     20  N   ILE B   2      27.575  10.433  -7.647  1.00 60.56 LIG-0.35  N 
ATOM     21 H    ILE B   2      26.786  10.092  -7.630  1.00 60.56 LIG 0.16  HD
BRANCH 20 22
ATOM     22  CA  ILE B   2      28.028  10.977  -6.373  1.00 61.73 LIG 0.18  C 
BRANCH 22 23
ATOM     23  CB  ILE B   2      26.860  11.137  -5.349  1.00 61.78 LIG 0.01  C 
ATOM     24  CG2 ILE B   2      25.493  10.818  -5.974  1.00 61.94 LIG 0.01  C 
BRANCH 23 25
ATOM     25  CG1 ILE B   2      27.123  10.303  -4.091  1.00 62.37 LIG 0.00  C 
ATOM     26  CD1 ILE B   2      26.360  10.782  -2.863  1.00 63.06 LIG 0.01  C 
ENDBRANCH 23 25
ENDBRANCH 22 23
BRANCH 22 27
ATOM     27  C   ILE B   2      29.173  10.120  -5.835  1.00 62.33 LIG 0.24  C 
ATOM     28 O    ILE B   2      29.210   8.906  -6.067  1.00 62.62 LIG-0.27  OA
ATOM     29  N   ALA B   3      30.115  10.763  -5.146  1.00 63.04 LIG-0.35  N 
ATOM     30 H    ALA B   3      30.075  11.598  -4.945  1.00 63.04 LIG 0.16  HD
BRANCH 29 31
ATOM     31  CA  ALA B   3      31.323  10.083  -4.666  1.00 63.50 LIG 0.16  C 
ATOM     32  CB  ALA B   3      32.484  11.075  -4.541  1.00 63.68 LIG 0.04  C 
BRANCH 31 33
ATOM     33  C   ALA B   3      31.101   9.344  -3.349  1.00 63.68 LIG 0.22  C 
ATOM     34 O    ALA B   3      30.241   9.716  -2.549  1.00 63.94 LIG-0.29  OA
ENDBRANCH 31 33
ENDBRANCH 29 31
ENDBRANCH 22 27
ENDBRANCH 20 22
ENDBRANCH 1 18
TORSDOF 12
ENDMDL
MODEL 17
USER: ADFR SOLUTION from run 145
USER: SCORE 13.431100 LL:  -0.658 LR: -13.023 RR:   0.000 FEB:  -9.444
USER: RMSD 3.909868
USER: SEED 144
USER: STATUS no improvement in best in 12 clusters for 5 generations
USER: GENES 14
USER: genes 0 Translation |==|  0.37354 0.59539 0.50745
USER: genes 1 Rotation |==|  0.60369 0.49645 0.75561 0.91701
USER: genes 2 Torsion [CB]-CA--N-[H1] |==|  0.03235
USER: genes 3 Torsion [N]-CA--CB-[CG] |==|  0.88365
USER: genes 4 Torsion [CA]-CB--CG-[CD] |==|  0.80151
USER: genes 5 Torsion [CB]-CG--CD-[NE] |==|  0.18666
USER: genes 6 Torsion [CG]-CD--NE-[CZ] |==|  0.69948
USER: genes 7 Torsion [N]-CA--C-[N] |==|  0.24003
USER: genes 8 Torsion [C]-N--CA-[CB] |==|  0.82724
USER: genes 9 Torsion [N]-CA--CB-[CG2] |==|  0.51175
USER: genes 10 Torsion [CA]-CB--CG1-[CD1] |==|  0.26015
USER: genes 11 Torsion [N]-CA--C-[N] |==|  0.46422
USER: genes 12 Torsion [C]-N--CA-[CB] |==|  0.21002
USER: genes 13 Torsion [N]-CA--C-[O] |==|  0.74153
ROOT
ATOM      1  CA  ARG B   1      27.254  11.379  -8.577  1.00 59.17 LIG 0.27  C 
ENDROOT
BRANCH 1 2
ATOM      2  N   ARG B   1      25.794  11.619  -8.739  1.00 58.83 LIG-0.07  N 
ATOM      3 H3   ARG B   1      25.443  11.854  -7.956  1.00 58.83 LIG 0.28  HD
ATOM      4 H2   ARG B   1      25.402  10.874  -9.028  1.00 58.83 LIG 0.28  HD
ATOM      5 H1   ARG B   1      25.664  12.271  -9.330  1.00 58.83 LIG 0.28  HD
ENDBRANCH 1 2
BRANCH 1 6
ATOM      6  CB  ARG B   1      28.079  12.493  -9.235  1.00 59.00 LIG 0.04  C 
BRANCH 6 7
ATOM      7  CG  ARG B   1      27.577  12.966 -10.601  1.00 58.73 LIG 0.02  C 
BRANCH 7 8
ATOM      8  CD  ARG B   1      27.803  11.942 -11.715  1.00 57.79 LIG 0.14  C 
BRANCH 8 9
ATOM      9  NE  ARG B   1      26.980  10.746 -11.520  1.00 57.71 LIG-0.23  N 
ATOM     10  CZ  ARG B   1      27.445   9.554 -11.148  1.00 57.43 LIG 0.67  C 
ATOM     11  NH1 ARG B   1      28.739   9.365 -10.926  1.00 56.57 LIG-0.23  N 
ATOM     12  NH2 ARG B   1      26.604   8.538 -10.992  1.00 57.93 LIG-0.23  N 
ATOM     13 2HH1 ARG B   1      29.026   8.591 -10.687  1.00 56.57 LIG 0.17  HD
ATOM     14 1HH1 ARG B   1      29.292  10.018 -11.022  1.00 56.57 LIG 0.17  HD
ATOM     15 2HH2 ARG B   1      26.901   7.768 -10.753  1.00 57.93 LIG 0.17  HD
ATOM     16 1HH2 ARG B   1      25.763   8.651 -11.131  1.00 57.93 LIG 0.17  HD
ATOM     17 HE   ARG B   1      26.134  10.819 -11.655  1.00 57.71 LIG 0.18  HD
ENDBRANCH 8 9
ENDBRANCH 7 8
ENDBRANCH 6 7
ENDBRANCH 1 6
BRANCH 1 18
ATOM     18  C   ARG B   1      27.614  11.280  -7.107  1.00 59.69 LIG 0.25  C 
ATOM     19 O    ARG B   1      27.984  12.275  -6.490  1.00 59.48 LIG-0.27  OA
ATOM     20  N   ILE B   2      27.493  10.080  -6.551  1.00 60.56 LIG-0.35  N 
ATOM     21 H    ILE B   2      27.169   9.392  -6.952  1.00 60.56 LIG 0.16  HD
BRANCH 20 22
ATOM     22  CA  ILE B   2      27.916   9.837  -5.177  1.00 61.73 LIG 0.18  C 
BRANCH 22 23
ATOM     23  CB  ILE B   2      29.446  10.072  -4.978  1.00 61.78 LIG 0.01  C 
ATOM     24  CG2 ILE B   2      29.908   9.716  -3.557  1.00 61.94 LIG 0.01  C 
BRANCH 23 25
ATOM     25  CG1 ILE B   2      30.254   9.328  -6.046  1.00 62.37 LIG 0.00  C 
ATOM     26  CD1 ILE B   2      30.590  10.174  -7.268  1.00 63.06 LIG 0.01  C 
ENDBRANCH 23 25
ENDBRANCH 22 23
BRANCH 22 27
ATOM     27  C   ILE B   2      27.061  10.675  -4.229  1.00 62.33 LIG 0.24  C 
ATOM     28 O    ILE B   2      26.321  11.564  -4.669  1.00 62.62 LIG-0.27  OA
ATOM     29  N   ALA B   3      27.143  10.367  -2.935  1.00 63.04 LIG-0.35  N 
ATOM     30 H    ALA B   3      27.686   9.781  -2.617  1.00 63.04 LIG 0.16  HD
BRANCH 29 31
ATOM     31  CA  ALA B   3      26.297  11.018  -1.928  1.00 63.50 LIG 0.16  C 
ATOM     32  CB  ALA B   3      24.870  10.466  -1.988  1.00 63.68 LIG 0.04  C 
BRANCH 31 33
ATOM     33  C   ALA B   3      26.864  10.898  -0.516  1.00 63.68 LIG 0.22  C 
ATOM     34 O    ALA B   3      26.526   9.977   0.229  1.00 63.94 LIG-0.29  OA
ENDBRANCH 31 33
ENDBRANCH 29 31
ENDBRANCH 22 27
ENDBRANCH 20 22
ENDBRANCH 1 18
TORSDOF 12
ENDMDL
MODEL 18
USER: ADFR SOLUTION from run 178
USER: SCORE 13.709480 LL:  -1.039 LR: -12.953 RR:   0.000 FEB:  -9.373
USER: RMSD 4.146725
USER: SEED 177
USER: STATUS no improvement in best in 14 clusters for 5 generations
USER: GENES 14
USER: genes 0 Translation |==|  0.39498 0.48237 0.42178
USER: genes 1 Rotation |==|  0.52903 0.61617 0.83447 0.85184
USER: genes 2 Torsion [CB]-CA--N-[H1] |==|  0.34613
USER: genes 3 Torsion [N]-CA--CB-[CG] |==|  0.77676
USER: genes 4 Torsion [CA]-CB--CG-[CD] |==|  0.28164
USER: genes 5 Torsion [CB]-CG--CD-[NE] |==|  0.24766
USER: genes 6 Torsion [CG]-CD--NE-[CZ] |==|  0.25970
USER: genes 7 Torsion [N]-CA--C-[N] |==|  0.19450
USER: genes 8 Torsion [C]-N--CA-[CB] |==|  0.87720
USER: genes 9 Torsion [N]-CA--CB-[CG2] |==|  0.35626
USER: genes 10 Torsion [CA]-CB--CG1-[CD1] |==|  0.86857
USER: genes 11 Torsion [N]-CA--C-[N] |==|  0.34482
USER: genes 12 Torsion [C]-N--CA-[CB] |==|  0.16822
USER: genes 13 Torsion [N]-CA--C-[O] |==|  0.32846
ROOT
ATOM      1  CA  ARG B   1      27.576   9.853 -10.440  1.00 59.17 LIG 0.27  C 
ENDROOT
BRANCH 1 2
ATOM      2  N   ARG B   1      26.187   9.347 -10.268  1.00 58.83 LIG-0.07  N 
ATOM      3 H3   ARG B   1      25.685   9.618 -10.950  1.00 58.83 LIG 0.28  HD
ATOM      4 H2   ARG B   1      25.848   9.663  -9.508  1.00 58.83 LIG 0.28  HD
ATOM      5 H1   ARG B   1      26.196   8.458 -10.241  1.00 58.83 LIG 0.28  HD
ENDBRANCH 1 2
BRANCH 1 6
ATOM      6  CB  ARG B   1      27.687  10.770 -11.666  1.00 59.00 LIG 0.04  C 
BRANCH 6 7
ATOM      7  CG  ARG B   1      27.806  10.056 -13.015  1.00 58.73 LIG 0.02  C 
BRANCH 7 8
ATOM      8  CD  ARG B   1      26.491  10.024 -13.797  1.00 57.79 LIG 0.14  C 
BRANCH 8 9
ATOM      9  NE  ARG B   1      26.347  11.204 -14.653  1.00 57.71 LIG-0.23  N 
ATOM     10  CZ  ARG B   1      26.711  11.266 -15.934  1.00 57.43 LIG 0.67  C 
ATOM     11  NH1 ARG B   1      27.254  10.218 -16.539  1.00 56.57 LIG-0.23  N 
ATOM     12  NH2 ARG B   1      26.526  12.388 -16.619  1.00 57.93 LIG-0.23  N 
ATOM     13 2HH1 ARG B   1      27.484  10.271 -17.366  1.00 56.57 LIG 0.17  HD
ATOM     14 1HH1 ARG B   1      27.376   9.485 -16.105  1.00 56.57 LIG 0.17  HD
ATOM     15 2HH2 ARG B   1      26.760  12.430 -17.445  1.00 57.93 LIG 0.17  HD
ATOM     16 1HH2 ARG B   1      26.172  13.072 -16.236  1.00 57.93 LIG 0.17  HD
ATOM     17 HE   ARG B   1      26.003  11.910 -14.303  1.00 57.71 LIG 0.18  HD
ENDBRANCH 8 9
ENDBRANCH 7 8
ENDBRANCH 6 7
ENDBRANCH 1 6
BRANCH 1 18
ATOM     18  C   ARG B   1      28.023  10.604  -9.201  1.00 59.69 LIG 0.25  C 
ATOM     19 O    ARG B   1      28.162  11.824  -9.230  1.00 59.48 LIG-0.27  OA
ATOM     20  N   ILE B   2      28.237   9.871  -8.114  1.00 60.56 LIG-0.35  N 
ATOM     21 H    ILE B   2      28.076   9.028  -8.060  1.00 60.56 LIG 0.16  HD
BRANCH 20 22
ATOM     22  CA  ILE B   2      28.776  10.464  -6.896  1.00 61.73 LIG 0.18  C 
BRANCH 22 23
ATOM     23  CB  ILE B   2      29.968  11.429  -7.186  1.00 61.78 LIG 0.01  C 
ATOM     24  CG2 ILE B   2      29.773  12.805  -6.530  1.00 61.94 LIG 0.01  C 
BRANCH 23 25
ATOM     25  CG1 ILE B   2      31.299  10.787  -6.782  1.00 62.37 LIG 0.00  C 
ATOM     26  CD1 ILE B   2      31.281  10.150  -5.398  1.00 63.06 LIG 0.01  C 
ENDBRANCH 23 25
ENDBRANCH 22 23
BRANCH 22 27
ATOM     27  C   ILE B   2      27.647  11.136  -6.117  1.00 62.33 LIG 0.24  C 
ATOM     28 O    ILE B   2      26.925  11.980  -6.662  1.00 62.62 LIG-0.27  OA
ATOM     29  N   ALA B   3      27.481  10.734  -4.858  1.00 63.04 LIG-0.35  N 
ATOM     30 H    ALA B   3      28.004  10.180  -4.460  1.00 63.04 LIG 0.16  HD
BRANCH 29 31
ATOM     31  CA  ALA B   3      26.369  11.216  -4.031  1.00 63.50 LIG 0.16  C 
ATOM     32  CB  ALA B   3      25.026  10.836  -4.662  1.00 63.68 LIG 0.04  C 
BRANCH 31 33
ATOM     33  C   ALA B   3      26.447  10.720  -2.589  1.00 63.68 LIG 0.22  C 
ATOM     34 O    ALA B   3      26.556  11.510  -1.650  1.00 63.94 LIG-0.29  OA
ENDBRANCH 31 33
ENDBRANCH 29 31
ENDBRANCH 22 27
ENDBRANCH 20 22
ENDBRANCH 1 18
TORSDOF 12
ENDMDL
MODEL 19
USER: ADFR SOLUTION from run 145
USER: SCORE 13.377055 LL:  -1.211 LR: -12.830 RR:   0.000 FEB:  -9.250
USER: RMSD 3.036538
USER: SEED 144
USER: STATUS no improvement in best in 12 clusters for 5 generations
USER: GENES 14
USER: genes 0 Translation |==|  0.34198 0.54766 0.57405
USER: genes 1 Rotation |==|  0.55903 0.47603 0.83148 0.86887
USER: genes 2 Torsion [CB]-CA--N-[H1] |==|  0.16291
USER: genes 3 Torsion [N]-CA--CB-[CG] |==|  0.74044
USER: genes 4 Torsion [CA]-CB--CG-[CD] |==|  0.41060
USER: genes 5 Torsion [CB]-CG--CD-[NE] |==|  0.75411
USER: genes 6 Torsion [CG]-CD--NE-[CZ] |==|  0.59450
USER: genes 7 Torsion [N]-CA--C-[N] |==|  0.34158
USER: genes 8 Torsion [C]-N--CA-[CB] |==|  0.19448
USER: genes 9 Torsion [N]-CA--CB-[CG2] |==|  0.36420
USER: genes 10 Torsion [CA]-CB--CG1-[CD1] |==|  0.81016
USER: genes 11 Torsion [N]-CA--C-[N] |==|  0.86411
USER: genes 12 Torsion [C]-N--CA-[CB] |==|  0.33109
USER: genes 13 Torsion [N]-CA--C-[O] |==|  0.99212
ROOT
ATOM      1  CA  ARG B   1      26.781  10.734  -7.128  1.00 59.17 LIG 0.27  C 
ENDROOT
BRANCH 1 2
ATOM      2  N   ARG B   1      25.400  10.468  -7.614  1.00 58.83 LIG-0.07  N 
ATOM      3 H3   ARG B   1      24.861  11.127  -7.355  1.00 58.83 LIG 0.28  HD
ATOM      4 H2   ARG B   1      25.109   9.698  -7.275  1.00 58.83 LIG 0.28  HD
ATOM      5 H1   ARG B   1      25.401  10.419  -8.502  1.00 58.83 LIG 0.28  HD
ENDBRANCH 1 2
BRANCH 1 6
ATOM      6  CB  ARG B   1      27.336  12.039  -7.715  1.00 59.00 LIG 0.04  C 
BRANCH 6 7
ATOM      7  CG  ARG B   1      28.158  11.889  -8.997  1.00 58.73 LIG 0.02  C 
BRANCH 7 8
ATOM      8  CD  ARG B   1      28.031  13.089  -9.939  1.00 57.79 LIG 0.14  C 
BRANCH 8 9
ATOM      9  NE  ARG B   1      26.901  12.932 -10.858  1.00 57.71 LIG-0.23  N 
ATOM     10  CZ  ARG B   1      26.874  13.374 -12.114  1.00 57.43 LIG 0.67  C 
ATOM     11  NH1 ARG B   1      27.913  14.016 -12.634  1.00 56.57 LIG-0.23  N 
ATOM     12  NH2 ARG B   1      25.797  13.169 -12.863  1.00 57.93 LIG-0.23  N 
ATOM     13 2HH1 ARG B   1      27.883  14.296 -13.446  1.00 56.57 LIG 0.17  HD
ATOM     14 1HH1 ARG B   1      28.616  14.152 -12.158  1.00 56.57 LIG 0.17  HD
ATOM     15 2HH2 ARG B   1      25.777  13.453 -13.674  1.00 57.93 LIG 0.17  HD
ATOM     16 1HH2 ARG B   1      25.120  12.752 -12.536  1.00 57.93 LIG 0.17  HD
ATOM     17 HE   ARG B   1      26.203  12.524 -10.564  1.00 57.71 LIG 0.18  HD
ENDBRANCH 8 9
ENDBRANCH 7 8
ENDBRANCH 6 7
ENDBRANCH 1 6
BRANCH 1 18
ATOM     18  C   ARG B   1      26.804  10.807  -5.614  1.00 59.69 LIG 0.25  C 
ATOM     19 O    ARG B   1      26.084  11.604  -5.019  1.00 59.48 LIG-0.27  OA
ATOM     20  N   ILE B   2      27.626   9.965  -4.997  1.00 60.56 LIG-0.35  N 
ATOM     21 H    ILE B   2      28.082   9.354  -5.397  1.00 60.56 LIG 0.16  HD
BRANCH 20 22
ATOM     22  CA  ILE B   2      27.818  10.017  -3.553  1.00 61.73 LIG 0.18  C 
BRANCH 22 23
ATOM     23  CB  ILE B   2      26.555   9.539  -2.770  1.00 61.78 LIG 0.01  C 
ATOM     24  CG2 ILE B   2      26.900   8.509  -1.683  1.00 61.94 LIG 0.01  C 
BRANCH 23 25
ATOM     25  CG1 ILE B   2      25.784  10.735  -2.201  1.00 62.37 LIG 0.00  C 
ATOM     26  CD1 ILE B   2      26.520  11.470  -1.087  1.00 63.06 LIG 0.01  C 
ENDBRANCH 23 25
ENDBRANCH 22 23
BRANCH 22 27
ATOM     27  C   ILE B   2      29.075   9.231  -3.181  1.00 62.33 LIG 0.24  C 
ATOM     28 O    ILE B   2      29.915   9.716  -2.414  1.00 62.62 LIG-0.27  OA
ATOM     29  N   ALA B   3      29.180   8.010  -3.704  1.00 63.04 LIG-0.35  N 
ATOM     30 H    ALA B   3      28.623   7.682  -4.271  1.00 63.04 LIG 0.16  HD
BRANCH 29 31
ATOM     31  CA  ALA B   3      30.279   7.106  -3.345  1.00 63.50 LIG 0.16  C 
ATOM     32  CB  ALA B   3      29.735   5.827  -2.703  1.00 63.68 LIG 0.04  C 
BRANCH 31 33
ATOM     33  C   ALA B   3      31.180   6.773  -4.532  1.00 63.68 LIG 0.22  C 
ATOM     34 O    ALA B   3      30.930   7.201  -5.660  1.00 63.94 LIG-0.29  OA
ENDBRANCH 31 33
ENDBRANCH 29 31
ENDBRANCH 22 27
ENDBRANCH 20 22
ENDBRANCH 1 18
TORSDOF 12
ENDMDL
MODEL 20
USER: ADFR SOLUTION from run 72
USER: SCORE 13.680263 LL:  -1.310 LR: -12.756 RR:   0.000 FEB:  -9.177
USER: RMSD 4.468945
USER: SEED 71
USER: STATUS no improvement in best in 15 clusters for 5 generations
USER: GENES 14
USER: genes 0 Translation |==|  0.39029 0.42754 0.41621
USER: genes 1 Rotation |==|  0.49205 0.66184 0.66010 0.94510
USER: genes 2 Torsion [CB]-CA--N-[H1] |==|  0.83878
USER: genes 3 Torsion [N]-CA--CB-[CG] |==|  0.08951
USER: genes 4 Torsion [CA]-CB--CG-[CD] |==|  0.68933
USER: genes 5 Torsion [CB]-CG--CD-[NE] |==|  0.52653
USER: genes 6 Torsion [CG]-CD--NE-[CZ] |==|  0.30354
USER: genes 7 Torsion [N]-CA--C-[N] |==|  0.11438
USER: genes 8 Torsion [C]-N--CA-[CB] |==|  0.21154
USER: genes 9 Torsion [N]-CA--CB-[CG2] |==|  0.73358
USER: genes 10 Torsion [CA]-CB--CG1-[CD1] |==|  0.71589
USER: genes 11 Torsion [N]-CA--C-[N] |==|  0.02171
USER: genes 12 Torsion [C]-N--CA-[CB] |==|  0.83260
USER: genes 13 Torsion [N]-CA--C-[O] |==|  0.05249
ROOT
ATOM      1  CA  ARG B   1      27.505   9.113 -10.562  1.00 59.17 LIG 0.27  C 
ENDROOT
BRANCH 1 2
ATOM      2  N   ARG B   1      26.151   9.716 -10.436  1.00 58.83 LIG-0.07  N 
ATOM      3 H3   ARG B   1      25.888   9.682  -9.586  1.00 58.83 LIG 0.28  HD
ATOM      4 H2   ARG B   1      25.576   9.263 -10.942  1.00 58.83 LIG 0.28  HD
ATOM      5 H1   ARG B   1      26.177  10.564 -10.704  1.00 58.83 LIG 0.28  HD
ENDBRANCH 1 2
BRANCH 1 6
ATOM      6  CB  ARG B   1      28.020   9.193 -12.005  1.00 59.00 LIG 0.04  C 
BRANCH 6 7
ATOM      7  CG  ARG B   1      27.558  10.415 -12.803  1.00 58.73 LIG 0.02  C 
BRANCH 7 8
ATOM      8  CD  ARG B   1      26.599  10.063 -13.942  1.00 57.79 LIG 0.14  C 
BRANCH 8 9
ATOM      9  NE  ARG B   1      26.358  11.215 -14.816  1.00 57.71 LIG-0.23  N 
ATOM     10  CZ  ARG B   1      26.814  11.335 -16.062  1.00 57.43 LIG 0.67  C 
ATOM     11  NH1 ARG B   1      27.551  10.379 -16.613  1.00 56.57 LIG-0.23  N 
ATOM     12  NH2 ARG B   1      26.526  12.422 -16.767  1.00 57.93 LIG-0.23  N 
ATOM     13 2HH1 ARG B   1      27.839  10.469 -17.418  1.00 56.57 LIG 0.17  HD
ATOM     14 1HH1 ARG B   1      27.741   9.670 -16.165  1.00 56.57 LIG 0.17  HD
ATOM     15 2HH2 ARG B   1      26.819  12.502 -17.572  1.00 57.93 LIG 0.17  HD
ATOM     16 1HH2 ARG B   1      26.047  13.045 -16.420  1.00 57.93 LIG 0.17  HD
ATOM     17 HE   ARG B   1      25.887  11.862 -14.500  1.00 57.71 LIG 0.18  HD
ENDBRANCH 8 9
ENDBRANCH 7 8
ENDBRANCH 6 7
ENDBRANCH 1 6
BRANCH 1 18
ATOM     18  C   ARG B   1      28.483   9.808  -9.634  1.00 59.69 LIG 0.25  C 
ATOM     19 O    ARG B   1      29.619  10.075 -10.015  1.00 59.48 LIG-0.27  OA
ATOM     20  N   ILE B   2      28.032  10.107  -8.420  1.00 60.56 LIG-0.35  N 
ATOM     21 H    ILE B   2      27.218   9.989  -8.165  1.00 60.56 LIG 0.16  HD
BRANCH 20 22
ATOM     22  CA  ILE B   2      28.910  10.673  -7.404  1.00 61.73 LIG 0.18  C 
BRANCH 22 23
ATOM     23  CB  ILE B   2      29.206  12.186  -7.655  1.00 61.78 LIG 0.01  C 
ATOM     24  CG2 ILE B   2      30.527  12.402  -8.408  1.00 61.94 LIG 0.01  C 
BRANCH 23 25
ATOM     25  CG1 ILE B   2      28.026  12.860  -8.363  1.00 62.37 LIG 0.00  C 
ATOM     26  CD1 ILE B   2      28.247  13.082  -9.855  1.00 63.06 LIG 0.01  C 
ENDBRANCH 23 25
ENDBRANCH 22 23
BRANCH 22 27
ATOM     27  C   ILE B   2      28.320  10.408  -6.020  1.00 62.33 LIG 0.24  C 
ATOM     28 O    ILE B   2      28.805  10.946  -5.017  1.00 62.62 LIG-0.27  OA
ATOM     29  N   ALA B   3      27.258   9.605  -5.978  1.00 63.04 LIG-0.35  N 
ATOM     30 H    ALA B   3      26.941   9.195  -6.664  1.00 63.04 LIG 0.16  HD
BRANCH 29 31
ATOM     31  CA  ALA B   3      26.527   9.352  -4.732  1.00 63.50 LIG 0.16  C 
ATOM     32  CB  ALA B   3      27.449   8.717  -3.687  1.00 63.68 LIG 0.04  C 
BRANCH 31 33
ATOM     33  C   ALA B   3      25.861  10.607  -4.173  1.00 63.68 LIG 0.22  C 
ATOM     34 O    ALA B   3      25.659  11.591  -4.886  1.00 63.94 LIG-0.29  OA
ENDBRANCH 31 33
ENDBRANCH 29 31
ENDBRANCH 22 27
ENDBRANCH 20 22
ENDBRANCH 1 18
TORSDOF 12
ENDMDL
MODEL 21
USER: ADFR SOLUTION from run 178
USER: SCORE 13.412772 LL:  -0.912 LR: -12.748 RR:   0.000 FEB:  -9.168
USER: RMSD 5.662623
USER: SEED 177
USER: STATUS no improvement in best in 14 clusters for 5 generations
USER: GENES 14
USER: genes 0 Translation |==|  0.37416 0.72563 0.32879
USER: genes 1 Rotation |==|  0.70423 0.46116 0.78847 0.85152
USER: genes 2 Torsion [CB]-CA--N-[H1] |==|  0.15658
USER: genes 3 Torsion [N]-CA--CB-[CG] |==|  0.66138
USER: genes 4 Torsion [CA]-CB--CG-[CD] |==|  0.22351
USER: genes 5 Torsion [CB]-CG--CD-[NE] |==|  0.84106
USER: genes 6 Torsion [CG]-CD--NE-[CZ] |==|  0.69785
USER: genes 7 Torsion [N]-CA--C-[N] |==|  0.10140
USER: genes 8 Torsion [C]-N--CA-[CB] |==|  0.86555
USER: genes 9 Torsion [N]-CA--CB-[CG2] |==|  0.46760
USER: genes 10 Torsion [CA]-CB--CG1-[CD1] |==|  0.31896
USER: genes 11 Torsion [N]-CA--C-[N] |==|  0.39972
USER: genes 12 Torsion [C]-N--CA-[CB] |==|  0.32130
USER: genes 13 Torsion [N]-CA--C-[O] |==|  0.11788
ROOT
ATOM      1  CA  ARG B   1      27.263  13.137 -12.463  1.00 59.17 LIG 0.27  C 
ENDROOT
BRANCH 1 2
ATOM      2  N   ARG B   1      25.776  13.091 -12.489  1.00 58.83 LIG-0.07  N 
ATOM      3 H3   ARG B   1      25.453  13.505 -11.771  1.00 58.83 LIG 0.28  HD
ATOM      4 H2   ARG B   1      25.505  12.243 -12.489  1.00 58.83 LIG 0.28  HD
ATOM      5 H1   ARG B   1      25.479  13.497 -13.223  1.00 58.83 LIG 0.28  HD
ENDBRANCH 1 2
BRANCH 1 6
ATOM      6  CB  ARG B   1      27.778  14.580 -12.552  1.00 59.00 LIG 0.04  C 
BRANCH 6 7
ATOM      7  CG  ARG B   1      28.710  14.876 -13.730  1.00 58.73 LIG 0.02  C 
BRANCH 7 8
ATOM      8  CD  ARG B   1      27.964  15.113 -15.044  1.00 57.79 LIG 0.14  C 
BRANCH 8 9
ATOM      9  NE  ARG B   1      27.117  13.970 -15.395  1.00 57.71 LIG-0.23  N 
ATOM     10  CZ  ARG B   1      27.359  13.120 -16.391  1.00 57.43 LIG 0.67  C 
ATOM     11  NH1 ARG B   1      28.427  13.264 -17.166  1.00 56.57 LIG-0.23  N 
ATOM     12  NH2 ARG B   1      26.526  12.111 -16.614  1.00 57.93 LIG-0.23  N 
ATOM     13 2HH1 ARG B   1      28.571  12.708 -17.806  1.00 56.57 LIG 0.17  HD
ATOM     14 1HH1 ARG B   1      28.974  13.913 -17.028  1.00 56.57 LIG 0.17  HD
ATOM     15 2HH2 ARG B   1      26.680  11.561 -17.256  1.00 57.93 LIG 0.17  HD
ATOM     16 1HH2 ARG B   1      25.833  12.008 -16.116  1.00 57.93 LIG 0.17  HD
ATOM     17 HE   ARG B   1      26.411  13.838 -14.921  1.00 57.71 LIG 0.18  HD
ENDBRANCH 8 9
ENDBRANCH 7 8
ENDBRANCH 6 7
ENDBRANCH 1 6
BRANCH 1 18
ATOM     18  C   ARG B   1      27.791  12.486 -11.199  1.00 59.69 LIG 0.25  C 
ATOM     19 O    ARG B   1      28.776  12.946 -10.628  1.00 59.48 LIG-0.27  OA
ATOM     20  N   ILE B   2      27.124  11.424 -10.761  1.00 60.56 LIG-0.35  N 
ATOM     21 H    ILE B   2      26.393  11.135 -11.111  1.00 60.56 LIG 0.16  HD
BRANCH 20 22
ATOM     22  CA  ILE B   2      27.599  10.648  -9.623  1.00 61.73 LIG 0.18  C 
BRANCH 22 23
ATOM     23  CB  ILE B   2      29.114  10.289  -9.742  1.00 61.78 LIG 0.01  C 
ATOM     24  CG2 ILE B   2      29.683   9.729  -8.430  1.00 61.94 LIG 0.01  C 
BRANCH 23 25
ATOM     25  CG1 ILE B   2      29.356   9.341 -10.921  1.00 62.37 LIG 0.00  C 
ATOM     26  CD1 ILE B   2      30.201   9.946 -12.036  1.00 63.06 LIG 0.01  C 
ENDBRANCH 23 25
ENDBRANCH 22 23
BRANCH 22 27
ATOM     27  C   ILE B   2      27.269  11.392  -8.330  1.00 62.33 LIG 0.24  C 
ATOM     28 O    ILE B   2      27.296  12.628  -8.293  1.00 62.62 LIG-0.27  OA
ATOM     29  N   ALA B   3      26.929  10.636  -7.287  1.00 63.04 LIG-0.35  N 
ATOM     30 H    ALA B   3      26.949   9.776  -7.293  1.00 63.04 LIG 0.16  HD
BRANCH 29 31
ATOM     31  CA  ALA B   3      26.483  11.222  -6.018  1.00 63.50 LIG 0.16  C 
ATOM     32  CB  ALA B   3      25.027  10.841  -5.732  1.00 63.68 LIG 0.04  C 
BRANCH 31 33
ATOM     33  C   ALA B   3      27.381  10.840  -4.844  1.00 63.68 LIG 0.22  C 
ATOM     34 O    ALA B   3      28.607  10.835  -4.957  1.00 63.94 LIG-0.29  OA
ENDBRANCH 31 33
ENDBRANCH 29 31
ENDBRANCH 22 27
ENDBRANCH 20 22
ENDBRANCH 1 18
TORSDOF 12
ENDMDL
MODEL 22
USER: ADFR SOLUTION from run 34
USER: SCORE 13.870308 LL:  -1.214 LR: -12.681 RR:   0.000 FEB:  -9.102
USER: RMSD 3.978706
USER: SEED 33
USER: STATUS no improvement in best in 16 clusters for 5 generations
USER: GENES 14
USER: genes 0 Translation |==|  0.32838 0.55310 0.51568
USER: genes 1 Rotation |==|  0.51791 0.53801 0.51437 0.99802
USER: genes 2 Torsion [CB]-CA--N-[H1] |==|  0.36199
USER: genes 3 Torsion [N]-CA--CB-[CG] |==|  0.73037
USER: genes 4 Torsion [CA]-CB--CG-[CD] |==|  0.43335
USER: genes 5 Torsion [CB]-CG--CD-[NE] |==|  0.50316
USER: genes 6 Torsion [CG]-CD--NE-[CZ] |==|  0.71770
USER: genes 7 Torsion [N]-CA--C-[N] |==|  0.43220
USER: genes 8 Torsion [C]-N--CA-[CB] |==|  0.84712
USER: genes 9 Torsion [N]-CA--CB-[CG2] |==|  0.54870
USER: genes 10 Torsion [CA]-CB--CG1-[CD1] |==|  0.76451
USER: genes 11 Torsion [N]-CA--C-[N] |==|  0.38322
USER: genes 12 Torsion [C]-N--CA-[CB] |==|  0.77060
USER: genes 13 Torsion [N]-CA--C-[O] |==|  0.12332
ROOT
ATOM      1  CA  ARG B   1      26.577  10.808  -8.398  1.00 59.17 LIG 0.27  C 
ENDROOT
BRANCH 1 2
ATOM      2  N   ARG B   1      25.907  12.092  -8.739  1.00 58.83 LIG-0.07  N 
ATOM      3 H3   ARG B   1      26.147  12.344  -9.558  1.00 58.83 LIG 0.28  HD
ATOM      4 H2   ARG B   1      26.150  12.718  -8.154  1.00 58.83 LIG 0.28  HD
ATOM      5 H1   ARG B   1      25.025  11.985  -8.709  1.00 58.83 LIG 0.28  HD
ENDBRANCH 1 2
BRANCH 1 6
ATOM      6  CB  ARG B   1      27.652  10.447  -9.432  1.00 59.00 LIG 0.04  C 
BRANCH 6 7
ATOM      7  CG  ARG B   1      27.215   9.468 -10.524  1.00 58.73 LIG 0.02  C 
BRANCH 7 8
ATOM      8  CD  ARG B   1      28.049   9.580 -11.802  1.00 57.79 LIG 0.14  C 
BRANCH 8 9
ATOM      9  NE  ARG B   1      27.582   8.646 -12.830  1.00 57.71 LIG-0.23  N 
ATOM     10  CZ  ARG B   1      28.167   7.487 -13.129  1.00 57.43 LIG 0.67  C 
ATOM     11  NH1 ARG B   1      29.260   7.090 -12.489  1.00 56.57 LIG-0.23  N 
ATOM     12  NH2 ARG B   1      27.652   6.713 -14.076  1.00 57.93 LIG-0.23  N 
ATOM     13 2HH1 ARG B   1      29.627   6.339 -12.691  1.00 56.57 LIG 0.17  HD
ATOM     14 1HH1 ARG B   1      29.600   7.582 -11.872  1.00 56.57 LIG 0.17  HD
ATOM     15 2HH2 ARG B   1      28.027   5.965 -14.271  1.00 57.93 LIG 0.17  HD
ATOM     16 1HH2 ARG B   1      26.943   6.960 -14.495  1.00 57.93 LIG 0.17  HD
ATOM     17 HE   ARG B   1      26.878   8.863 -13.275  1.00 57.71 LIG 0.18  HD
ENDBRANCH 8 9
ENDBRANCH 7 8
ENDBRANCH 6 7
ENDBRANCH 1 6
BRANCH 1 18
ATOM     18  C   ARG B   1      27.203  10.887  -7.019  1.00 59.69 LIG 0.25  C 
ATOM     19 O    ARG B   1      27.508  11.975  -6.537  1.00 59.48 LIG-0.27  OA
ATOM     20  N   ILE B   2      27.381   9.733  -6.386  1.00 60.56 LIG-0.35  N 
ATOM     21 H    ILE B   2      27.108   8.972  -6.682  1.00 60.56 LIG 0.16  HD
BRANCH 20 22
ATOM     22  CA  ILE B   2      28.075   9.671  -5.106  1.00 61.73 LIG 0.18  C 
BRANCH 22 23
ATOM     23  CB  ILE B   2      29.495  10.316  -5.170  1.00 61.78 LIG 0.01  C 
ATOM     24  CG2 ILE B   2      30.382   9.885  -3.992  1.00 61.94 LIG 0.01  C 
BRANCH 23 25
ATOM     25  CG1 ILE B   2      30.160  10.032  -6.521  1.00 62.37 LIG 0.00  C 
ATOM     26  CD1 ILE B   2      30.877   8.689  -6.585  1.00 63.06 LIG 0.01  C 
ENDBRANCH 23 25
ENDBRANCH 22 23
BRANCH 22 27
ATOM     27  C   ILE B   2      27.193  10.291  -4.023  1.00 62.33 LIG 0.24  C 
ATOM     28 O    ILE B   2      26.542  11.317  -4.254  1.00 62.62 LIG-0.27  OA
ATOM     29  N   ALA B   3      27.154   9.647  -2.857  1.00 63.04 LIG-0.35  N 
ATOM     30 H    ALA B   3      27.635   8.959  -2.674  1.00 63.04 LIG 0.16  HD
BRANCH 29 31
ATOM     31  CA  ALA B   3      26.266  10.070  -1.768  1.00 63.50 LIG 0.16  C 
ATOM     32  CB  ALA B   3      26.901  11.213  -0.970  1.00 63.68 LIG 0.04  C 
BRANCH 31 33
ATOM     33  C   ALA B   3      24.875  10.462  -2.259  1.00 63.68 LIG 0.22  C 
ATOM     34 O    ALA B   3      24.276   9.774  -3.086  1.00 63.94 LIG-0.29  OA
ENDBRANCH 31 33
ENDBRANCH 29 31
ENDBRANCH 22 27
ENDBRANCH 20 22
ENDBRANCH 1 18
TORSDOF 12
ENDMDL
MODEL 23
USER: ADFR SOLUTION from run 50
USER: SCORE 13.658776 LL:  -1.119 LR: -12.647 RR:   0.000 FEB:  -9.067
USER: RMSD 3.964978
USER: SEED 49
USER: STATUS no improvement in best in 12 clusters for 5 generations
USER: GENES 14
USER: genes 0 Translation |==|  0.37651 0.48496 0.44606
USER: genes 1 Rotation |==|  0.58050 0.67277 0.53621 0.96082
USER: genes 2 Torsion [CB]-CA--N-[H1] |==|  0.68277
USER: genes 3 Torsion [N]-CA--CB-[CG] |==|  0.85776
USER: genes 4 Torsion [CA]-CB--CG-[CD] |==|  0.53300
USER: genes 5 Torsion [CB]-CG--CD-[NE] |==|  0.65158
USER: genes 6 Torsion [CG]-CD--NE-[CZ] |==|  0.48467
USER: genes 7 Torsion [N]-CA--C-[N] |==|  0.17943
USER: genes 8 Torsion [C]-N--CA-[CB] |==|  0.16676
USER: genes 9 Torsion [N]-CA--CB-[CG2] |==|  0.19982
USER: genes 10 Torsion [CA]-CB--CG1-[CD1] |==|  0.67366
USER: genes 11 Torsion [N]-CA--C-[N] |==|  0.07222
USER: genes 12 Torsion [C]-N--CA-[CB] |==|  0.28038
USER: genes 13 Torsion [N]-CA--C-[O] |==|  0.02262
ROOT
ATOM      1  CA  ARG B   1      27.299   9.888  -9.912  1.00 59.17 LIG 0.27  C 
ENDROOT
BRANCH 1 2
ATOM      2  N   ARG B   1      26.526  11.096  -9.513  1.00 58.83 LIG-0.07  N 
ATOM      3 H3   ARG B   1      25.768  10.847  -9.120  1.00 58.83 LIG 0.28  HD
ATOM      4 H2   ARG B   1      26.340  11.581 -10.236  1.00 58.83 LIG 0.28  HD
ATOM      5 H1   ARG B   1      27.008  11.583  -8.946  1.00 58.83 LIG 0.28  HD
ENDBRANCH 1 2
BRANCH 1 6
ATOM      6  CB  ARG B   1      27.657   9.923 -11.404  1.00 59.00 LIG 0.04  C 
BRANCH 6 7
ATOM      7  CG  ARG B   1      26.490  10.188 -12.357  1.00 58.73 LIG 0.02  C 
BRANCH 7 8
ATOM      8  CD  ARG B   1      26.838   9.928 -13.824  1.00 57.79 LIG 0.14  C 
BRANCH 8 9
ATOM      9  NE  ARG B   1      26.556  11.099 -14.658  1.00 57.71 LIG-0.23  N 
ATOM     10  CZ  ARG B   1      26.855  11.203 -15.952  1.00 57.43 LIG 0.67  C 
ATOM     11  NH1 ARG B   1      27.457  10.211 -16.595  1.00 56.57 LIG-0.23  N 
ATOM     12  NH2 ARG B   1      26.544  12.311 -16.614  1.00 57.93 LIG-0.23  N 
ATOM     13 2HH1 ARG B   1      27.645  10.291 -17.430  1.00 56.57 LIG 0.17  HD
ATOM     14 1HH1 ARG B   1      27.660   9.488 -16.175  1.00 56.57 LIG 0.17  HD
ATOM     15 2HH2 ARG B   1      26.736  12.381 -17.449  1.00 57.93 LIG 0.17  HD
ATOM     16 1HH2 ARG B   1      26.151  12.959 -16.208  1.00 57.93 LIG 0.17  HD
ATOM     17 HE   ARG B   1      26.168  11.770 -14.284  1.00 57.71 LIG 0.18  HD
ENDBRANCH 8 9
ENDBRANCH 7 8
ENDBRANCH 6 7
ENDBRANCH 1 6
BRANCH 1 18
ATOM     18  C   ARG B   1      28.566   9.774  -9.087  1.00 59.69 LIG 0.25  C 
ATOM     19 O    ARG B   1      29.667   9.873  -9.622  1.00 59.48 LIG-0.27  OA
ATOM     20  N   ILE B   2      28.404   9.576  -7.783  1.00 60.56 LIG-0.35  N 
ATOM     21 H    ILE B   2      27.640   9.576  -7.386  1.00 60.56 LIG 0.16  HD
BRANCH 20 22
ATOM     22  CA  ILE B   2      29.543   9.339  -6.906  1.00 61.73 LIG 0.18  C 
BRANCH 22 23
ATOM     23  CB  ILE B   2      30.554  10.529  -6.916  1.00 61.78 LIG 0.01  C 
ATOM     24  CG2 ILE B   2      30.006  11.763  -6.183  1.00 61.94 LIG 0.01  C 
BRANCH 23 25
ATOM     25  CG1 ILE B   2      31.914  10.091  -6.361  1.00 62.37 LIG 0.00  C 
ATOM     26  CD1 ILE B   2      32.328  10.826  -5.092  1.00 63.06 LIG 0.01  C 
ENDBRANCH 23 25
ENDBRANCH 22 23
BRANCH 22 27
ATOM     27  C   ILE B   2      29.041   9.003  -5.503  1.00 62.33 LIG 0.24  C 
ATOM     28 O    ILE B   2      29.735   9.253  -4.511  1.00 62.62 LIG-0.27  OA
ATOM     29  N   ALA B   3      27.824   8.466  -5.428  1.00 63.04 LIG-0.35  N 
ATOM     30 H    ALA B   3      27.353   8.251  -6.115  1.00 63.04 LIG 0.16  HD
BRANCH 29 31
ATOM     31  CA  ALA B   3      27.174   8.195  -4.141  1.00 63.50 LIG 0.16  C 
ATOM     32  CB  ALA B   3      26.150   9.286  -3.815  1.00 63.68 LIG 0.04  C 
BRANCH 31 33
ATOM     33  C   ALA B   3      26.527   6.814  -4.086  1.00 63.68 LIG 0.22  C 
ATOM     34 O    ALA B   3      26.701   5.994  -4.989  1.00 63.94 LIG-0.29  OA
ENDBRANCH 31 33
ENDBRANCH 29 31
ENDBRANCH 22 27
ENDBRANCH 20 22
ENDBRANCH 1 18
TORSDOF 12
ENDMDL
