MODEL 1
USER: ADFR SOLUTION from run 179
USER: SCORE 14.501024 LL:  -1.251 LR: -14.412 RR:   0.000 FEB: -10.534
USER: RMSD 3.038209
USER: SEED 178
USER: STATUS no improvement in best in 8 clusters for 5 generations
USER: GENES 15
USER: genes 0 Translation |==|  0.35175 0.54016 0.58648
USER: genes 1 Rotation |==|  0.44583 0.47250 0.39440 0.98493
USER: genes 2 Torsion [N]-C--CA-[N] |==|  0.39500
USER: genes 3 Torsion [C]-CA--N-[H3] |==|  0.69480
USER: genes 4 Torsion [C]-CA--CB-[CG] |==|  0.51972
USER: genes 5 Torsion [CA]-CB--CG-[CD] |==|  0.74583
USER: genes 6 Torsion [CB]-CG--CD-[CE] |==|  0.62526
USER: genes 7 Torsion [CG]-CD--CE-[NZ] |==|  0.38286
USER: genes 8 Torsion [CD]-CE--NZ-[HZ3] |==|  0.00185
USER: genes 9 Torsion [C]-N--CA-[CB] |==|  0.29351
USER: genes 10 Torsion [N]-CA--CB-[CG2] |==|  0.29407
USER: genes 11 Torsion [CA]-CB--CG1-[CD1] |==|  0.59237
USER: genes 12 Torsion [N]-CA--C-[N] |==|  0.98884
USER: genes 13 Torsion [C]-N--CA-[CB] |==|  0.86532
USER: genes 14 Torsion [N]-CA--C-[O] |==|  0.04988
ROOT
ATOM      1  C   LYS B   1      26.871  11.367  -7.119  1.00 69.77 LIG 0.25  C 
ATOM      2 O    LYS B   1      27.370  12.425  -6.742  1.00 69.73 LIG-0.27  OA
ATOM      3  N   ILE B   2      26.680  10.322  -6.317  1.00 70.01 LIG-0.35  N 
ATOM      4 H    ILE B   2      26.292   9.595  -6.565  1.00 70.01 LIG 0.16  HD
ENDROOT
BRANCH 1 5
ATOM      5  CA  LYS B   1      26.424  11.197  -8.563  1.00 69.63 LIG 0.27  C 
BRANCH 5 6
ATOM      6  N   LYS B   1      25.831  12.462  -9.083  1.00 69.58 LIG-0.07  N 
ATOM      7 H3   LYS B   1      24.954  12.357  -9.191  1.00 69.58 LIG 0.28  HD
ATOM      8 H2   LYS B   1      26.203  12.665  -9.866  1.00 69.58 LIG 0.28  HD
ATOM      9 H1   LYS B   1      25.981  13.121  -8.504  1.00 69.58 LIG 0.28  HD
ENDBRANCH 5 6
BRANCH 5 10
ATOM     10  CB  LYS B   1      27.609  10.756  -9.431  1.00 69.57 LIG 0.04  C 
BRANCH 10 11
ATOM     11  CG  LYS B   1      27.328  10.715 -10.931  1.00 69.38 LIG 0.00  C 
BRANCH 11 12
ATOM     12  CD  LYS B   1      26.840   9.349 -11.393  1.00 68.73 LIG 0.03  C 
BRANCH 12 13
ATOM     13  CE  LYS B   1      27.548   8.917 -12.667  1.00 68.60 LIG 0.23  C 
BRANCH 13 14
ATOM     14  NZ  LYS B   1      27.937   7.480 -12.639  1.00 68.55 LIG-0.08  N 
ATOM     15 HZ1  LYS B   1      27.549   7.054 -13.316  1.00 68.55 LIG 0.27  HD
ATOM     16 HZ2  LYS B   1      28.821   7.410 -12.713  1.00 68.55 LIG 0.27  HD
ATOM     17 HZ3  LYS B   1      27.675   7.116 -11.870  1.00 68.55 LIG 0.27  HD
ENDBRANCH 13 14
ENDBRANCH 12 13
ENDBRANCH 11 12
ENDBRANCH 10 11
ENDBRANCH 5 10
ENDBRANCH 1 5
BRANCH 3 18
ATOM     18  CA  ILE B   2      27.120  10.318  -4.924  1.00 70.34 LIG 0.18  C 
BRANCH 18 19
ATOM     19  CB  ILE B   2      25.920  10.480  -3.938  1.00 70.35 LIG 0.01  C 
ATOM     20  CG2 ILE B   2      25.574   9.161  -3.228  1.00 70.46 LIG 0.01  C 
BRANCH 19 21
ATOM     21  CG1 ILE B   2      26.200  11.596  -2.919  1.00 70.36 LIG 0.00  C 
ATOM     22  CD1 ILE B   2      25.611  11.388  -1.522  1.00 70.48 LIG 0.01  C 
ENDBRANCH 19 21
ENDBRANCH 18 19
BRANCH 18 23
ATOM     23  C   ILE B   2      27.931   9.062  -4.617  1.00 70.53 LIG 0.24  C 
ATOM     24 O    ILE B   2      28.445   8.897  -3.507  1.00 70.63 LIG-0.27  OA
ATOM     25  N   ALA B   3      28.023   8.177  -5.608  1.00 70.71 LIG-0.35  N 
ATOM     26 H    ALA B   3      27.632   8.272  -6.367  1.00 70.71 LIG 0.16  HD
BRANCH 25 27
ATOM     27  CA  ALA B   3      28.805   6.948  -5.494  1.00 70.82 LIG 0.16  C 
ATOM     28  CB  ALA B   3      30.195   7.249  -4.949  1.00 70.79 LIG 0.04  C 
BRANCH 27 29
ATOM     29  C   ALA B   3      28.093   5.923  -4.613  1.00 70.87 LIG 0.22  C 
ATOM     30 O    ALA B   3      26.888   6.025  -4.370  1.00 70.95 LIG-0.29  OA
ENDBRANCH 27 29
ENDBRANCH 25 27
ENDBRANCH 18 23
ENDBRANCH 3 18
TORSDOF 13
ENDMDL
MODEL 2
USER: ADFR SOLUTION from run 58
USER: SCORE 14.157721 LL:  -0.846 LR: -14.316 RR:   0.000 FEB: -10.439
USER: RMSD 3.366027
USER: SEED 57
USER: STATUS no improvement in best in 8 clusters for 5 generations
USER: GENES 15
USER: genes 0 Translation |==|  0.39168 0.55018 0.59079
USER: genes 1 Rotation |==|  0.47877 0.43929 0.40397 0.98646
USER: genes 2 Torsion [N]-C--CA-[N] |==|  0.21318
USER: genes 3 Torsion [C]-CA--N-[H3] |==|  0.08494
USER: genes 4 Torsion [C]-CA--CB-[CG] |==|  0.63878
USER: genes 5 Torsion [CA]-CB--CG-[CD] |==|  0.77512
USER: genes 6 Torsion [CB]-CG--CD-[CE] |==|  0.52940
USER: genes 7 Torsion [CG]-CD--CE-[NZ] |==|  0.69010
USER: genes 8 Torsion [CD]-CE--NZ-[HZ3] |==|  0.46141
USER: genes 9 Torsion [C]-N--CA-[CB] |==|  0.27777
USER: genes 10 Torsion [N]-CA--CB-[CG2] |==|  0.32768
USER: genes 11 Torsion [CA]-CB--CG1-[CD1] |==|  0.63377
USER: genes 12 Torsion [N]-CA--C-[N] |==|  0.96170
USER: genes 13 Torsion [C]-N--CA-[CB] |==|  0.87349
USER: genes 14 Torsion [N]-CA--C-[O] |==|  0.03724
ROOT
ATOM      1  C   LYS B   1      27.500  11.495  -7.032  1.00 69.77 LIG 0.25  C 
ATOM      2 O    LYS B   1      27.865  12.534  -6.485  1.00 69.73 LIG-0.27  OA
ATOM      3  N   ILE B   2      27.262  10.364  -6.370  1.00 70.01 LIG-0.35  N 
ATOM      4 H    ILE B   2      26.965   9.648  -6.742  1.00 70.01 LIG 0.16  HD
ENDROOT
BRANCH 1 5
ATOM      5  CA  LYS B   1      27.285  11.451  -8.537  1.00 69.63 LIG 0.27  C 
BRANCH 5 6
ATOM      6  N   LYS B   1      25.831  11.502  -8.863  1.00 69.58 LIG-0.07  N 
ATOM      7 H3   LYS B   1      25.402  11.970  -8.239  1.00 69.58 LIG 0.28  HD
ATOM      8 H2   LYS B   1      25.503  10.674  -8.890  1.00 69.58 LIG 0.28  HD
ATOM      9 H1   LYS B   1      25.718  11.891  -9.655  1.00 69.58 LIG 0.28  HD
ENDBRANCH 5 6
BRANCH 5 10
ATOM     10  CB  LYS B   1      28.033  12.609  -9.209  1.00 69.57 LIG 0.04  C 
BRANCH 10 11
ATOM     11  CG  LYS B   1      27.199  13.437 -10.182  1.00 69.38 LIG 0.00  C 
BRANCH 11 12
ATOM     12  CD  LYS B   1      27.080  12.778 -11.550  1.00 68.73 LIG 0.03  C 
BRANCH 12 13
ATOM     13  CE  LYS B   1      26.472  13.732 -12.565  1.00 68.60 LIG 0.23  C 
BRANCH 13 14
ATOM     14  NZ  LYS B   1      25.111  13.308 -12.995  1.00 68.55 LIG-0.08  N 
ATOM     15 HZ1  LYS B   1      25.176  12.607 -13.539  1.00 68.55 LIG 0.27  HD
ATOM     16 HZ2  LYS B   1      24.630  13.084 -12.281  1.00 68.55 LIG 0.27  HD
ATOM     17 HZ3  LYS B   1      24.712  13.979 -13.423  1.00 68.55 LIG 0.27  HD
ENDBRANCH 13 14
ENDBRANCH 12 13
ENDBRANCH 11 12
ENDBRANCH 10 11
ENDBRANCH 5 10
ENDBRANCH 1 5
BRANCH 3 18
ATOM     18  CA  ILE B   2      27.490  10.241  -4.932  1.00 70.34 LIG 0.18  C 
BRANCH 18 19
ATOM     19  CB  ILE B   2      26.162  10.380  -4.123  1.00 70.35 LIG 0.01  C 
ATOM     20  CG2 ILE B   2      25.831   9.104  -3.332  1.00 70.46 LIG 0.01  C 
BRANCH 19 21
ATOM     21  CG1 ILE B   2      26.217  11.605  -3.194  1.00 70.36 LIG 0.00  C 
ATOM     22  CD1 ILE B   2      25.787  11.364  -1.746  1.00 70.48 LIG 0.01  C 
ENDBRANCH 19 21
ENDBRANCH 18 19
BRANCH 18 23
ATOM     23  C   ILE B   2      28.208   8.933  -4.609  1.00 70.53 LIG 0.24  C 
ATOM     24 O    ILE B   2      28.704   8.743  -3.494  1.00 70.63 LIG-0.27  OA
ATOM     25  N   ALA B   3      28.241   8.034  -5.591  1.00 70.71 LIG-0.35  N 
ATOM     26 H    ALA B   3      27.862   8.150  -6.353  1.00 70.71 LIG 0.16  HD
BRANCH 25 27
ATOM     27  CA  ALA B   3      28.933   6.754  -5.461  1.00 70.82 LIG 0.16  C 
ATOM     28  CB  ALA B   3      30.311   6.953  -4.844  1.00 70.79 LIG 0.04  C 
BRANCH 27 29
ATOM     29  C   ALA B   3      28.111   5.767  -4.634  1.00 70.87 LIG 0.22  C 
ATOM     30 O    ALA B   3      26.925   5.988  -4.378  1.00 70.95 LIG-0.29  OA
ENDBRANCH 27 29
ENDBRANCH 25 27
ENDBRANCH 18 23
ENDBRANCH 3 18
TORSDOF 13
ENDMDL
MODEL 3
USER: ADFR SOLUTION from run 125
USER: SCORE 13.346513 LL:  -0.815 LR: -14.236 RR:   0.000 FEB: -10.358
USER: RMSD 2.015148
USER: SEED 124
USER: STATUS no improvement in best in 10 clusters for 5 generations
USER: GENES 15
USER: genes 0 Translation |==|  0.40026 0.56159 0.58459
USER: genes 1 Rotation |==|  0.45883 0.45500 0.41455 0.98885
USER: genes 2 Torsion [N]-C--CA-[N] |==|  0.22129
USER: genes 3 Torsion [C]-CA--N-[H3] |==|  0.39847
USER: genes 4 Torsion [C]-CA--CB-[CG] |==|  0.66454
USER: genes 5 Torsion [CA]-CB--CG-[CD] |==|  0.73057
USER: genes 6 Torsion [CB]-CG--CD-[CE] |==|  0.51085
USER: genes 7 Torsion [CG]-CD--CE-[NZ] |==|  0.67889
USER: genes 8 Torsion [CD]-CE--NZ-[HZ3] |==|  0.16313
USER: genes 9 Torsion [C]-N--CA-[CB] |==|  0.37820
USER: genes 10 Torsion [N]-CA--CB-[CG2] |==|  0.39972
USER: genes 11 Torsion [CA]-CB--CG1-[CD1] |==|  0.71652
USER: genes 12 Torsion [N]-CA--C-[N] |==|  0.30105
USER: genes 13 Torsion [C]-N--CA-[CB] |==|  0.35920
USER: genes 14 Torsion [N]-CA--C-[O] |==|  0.75607
ROOT
ATOM      1  C   LYS B   1      27.635  11.640  -7.157  1.00 69.77 LIG 0.25  C 
ATOM      2 O    LYS B   1      28.007  12.725  -6.715  1.00 69.73 LIG-0.27  OA
ATOM      3  N   ILE B   2      27.488  10.554  -6.402  1.00 70.01 LIG-0.35  N 
ATOM      4 H    ILE B   2      27.187   9.804  -6.699  1.00 70.01 LIG 0.16  HD
ENDROOT
BRANCH 1 5
ATOM      5  CA  LYS B   1      27.305  11.483  -8.634  1.00 69.63 LIG 0.27  C 
BRANCH 5 6
ATOM      6  N   LYS B   1      25.831  11.541  -8.853  1.00 69.58 LIG-0.07  N 
ATOM      7 H3   LYS B   1      25.660  11.963  -9.618  1.00 69.58 LIG 0.28  HD
ATOM      8 H2   LYS B   1      25.448  11.980  -8.180  1.00 69.58 LIG 0.28  HD
ATOM      9 H1   LYS B   1      25.504  10.714  -8.892  1.00 69.58 LIG 0.28  HD
ENDBRANCH 5 6
BRANCH 5 10
ATOM     10  CB  LYS B   1      28.018  12.567  -9.450  1.00 69.57 LIG 0.04  C 
BRANCH 10 11
ATOM     11  CG  LYS B   1      27.096  13.480 -10.254  1.00 69.38 LIG 0.00  C 
BRANCH 11 12
ATOM     12  CD  LYS B   1      26.964  13.039 -11.705  1.00 68.73 LIG 0.03  C 
BRANCH 12 13
ATOM     13  CE  LYS B   1      26.118  14.020 -12.500  1.00 68.60 LIG 0.23  C 
BRANCH 13 14
ATOM     14  NZ  LYS B   1      24.855  13.405 -12.995  1.00 68.55 LIG-0.08  N 
ATOM     15 HZ1  LYS B   1      24.382  14.014 -13.438  1.00 68.55 LIG 0.27  HD
ATOM     16 HZ2  LYS B   1      25.047  12.728 -13.539  1.00 68.55 LIG 0.27  HD
ATOM     17 HZ3  LYS B   1      24.380  13.105 -12.305  1.00 68.55 LIG 0.27  HD
ENDBRANCH 13 14
ENDBRANCH 12 13
ENDBRANCH 11 12
ENDBRANCH 10 11
ENDBRANCH 5 10
ENDBRANCH 1 5
BRANCH 3 18
ATOM     18  CA  ILE B   2      27.831  10.540  -4.982  1.00 70.34 LIG 0.18  C 
BRANCH 18 19
ATOM     19  CB  ILE B   2      26.740   9.818  -4.131  1.00 70.35 LIG 0.01  C 
ATOM     20  CG2 ILE B   2      27.350   9.021  -2.966  1.00 70.46 LIG 0.01  C 
BRANCH 19 21
ATOM     21  CG1 ILE B   2      25.693  10.823  -3.622  1.00 70.36 LIG 0.00  C 
ATOM     22  CD1 ILE B   2      25.831  11.247  -2.159  1.00 70.48 LIG 0.01  C 
ENDBRANCH 19 21
ENDBRANCH 18 19
BRANCH 18 23
ATOM     23  C   ILE B   2      29.210   9.922  -4.766  1.00 70.53 LIG 0.24  C 
ATOM     24 O    ILE B   2      29.393   8.711  -4.927  1.00 70.63 LIG-0.27  OA
ATOM     25  N   ALA B   3      30.176  10.770  -4.416  1.00 70.71 LIG-0.35  N 
ATOM     26 H    ALA B   3      30.058  11.619  -4.343  1.00 70.71 LIG 0.16  HD
BRANCH 25 27
ATOM     27  CA  ALA B   3      31.538  10.333  -4.122  1.00 70.82 LIG 0.16  C 
ATOM     28  CB  ALA B   3      32.545  11.159  -4.912  1.00 70.79 LIG 0.04  C 
BRANCH 27 29
ATOM     29  C   ALA B   3      31.830  10.418  -2.625  1.00 70.87 LIG 0.22  C 
ATOM     30 O    ALA B   3      32.259  11.459  -2.120  1.00 70.95 LIG-0.29  OA
ENDBRANCH 27 29
ENDBRANCH 25 27
ENDBRANCH 18 23
ENDBRANCH 3 18
TORSDOF 13
ENDMDL
MODEL 4
USER: ADFR SOLUTION from run 62
USER: SCORE 13.730713 LL:  -1.196 LR: -14.239 RR:   0.000 FEB: -10.361
USER: RMSD 1.220652
USER: SEED 61
USER: STATUS no improvement in best in 6 clusters for 5 generations
USER: GENES 15
USER: genes 0 Translation |==|  0.36311 0.55527 0.56978
USER: genes 1 Rotation |==|  0.43718 0.47771 0.45026 0.99303
USER: genes 2 Torsion [N]-C--CA-[N] |==|  0.46042
USER: genes 3 Torsion [C]-CA--N-[H3] |==|  0.47756
USER: genes 4 Torsion [C]-CA--CB-[CG] |==|  0.54160
USER: genes 5 Torsion [CA]-CB--CG-[CD] |==|  0.75789
USER: genes 6 Torsion [CB]-CG--CD-[CE] |==|  0.60319
USER: genes 7 Torsion [CG]-CD--CE-[NZ] |==|  0.25798
USER: genes 8 Torsion [CD]-CE--NZ-[HZ3] |==|  0.81621
USER: genes 9 Torsion [C]-N--CA-[CB] |==|  0.35382
USER: genes 10 Torsion [N]-CA--CB-[CG2] |==|  0.37155
USER: genes 11 Torsion [CA]-CB--CG1-[CD1] |==|  0.64482
USER: genes 12 Torsion [N]-CA--C-[N] |==|  0.35393
USER: genes 13 Torsion [C]-N--CA-[CB] |==|  0.35488
USER: genes 14 Torsion [N]-CA--C-[O] |==|  0.72023
ROOT
ATOM      1  C   LYS B   1      27.050  11.560  -7.457  1.00 69.77 LIG 0.25  C 
ATOM      2 O    LYS B   1      27.323  12.716  -7.143  1.00 69.73 LIG-0.27  OA
ATOM      3  N   ILE B   2      27.132  10.534  -6.612  1.00 70.01 LIG-0.35  N 
ATOM      4 H    ILE B   2      26.901   9.730  -6.815  1.00 70.01 LIG 0.16  HD
ENDROOT
BRANCH 1 5
ATOM      5  CA  LYS B   1      26.581  11.234  -8.867  1.00 69.63 LIG 0.27  C 
BRANCH 5 6
ATOM      6  N   LYS B   1      26.206  12.479  -9.598  1.00 69.58 LIG-0.07  N 
ATOM      7 H3   LYS B   1      26.047  12.285 -10.452  1.00 69.58 LIG 0.28  HD
ATOM      8 H2   LYS B   1      26.873  13.066  -9.547  1.00 69.58 LIG 0.28  HD
ATOM      9 H1   LYS B   1      25.474  12.828  -9.232  1.00 69.58 LIG 0.28  HD
ENDBRANCH 5 6
BRANCH 5 10
ATOM     10  CB  LYS B   1      27.676  10.470  -9.622  1.00 69.57 LIG 0.04  C 
BRANCH 10 11
ATOM     11  CG  LYS B   1      27.484  10.397 -11.134  1.00 69.38 LIG 0.00  C 
BRANCH 11 12
ATOM     12  CD  LYS B   1      26.623   9.214 -11.553  1.00 68.73 LIG 0.03  C 
BRANCH 12 13
ATOM     13  CE  LYS B   1      27.125   8.605 -12.852  1.00 68.60 LIG 0.23  C 
BRANCH 13 14
ATOM     14  NZ  LYS B   1      28.079   7.484 -12.620  1.00 68.55 LIG-0.08  N 
ATOM     15 HZ1  LYS B   1      27.706   6.885 -12.079  1.00 68.55 LIG 0.27  HD
ATOM     16 HZ2  LYS B   1      28.279   7.099 -13.396  1.00 68.55 LIG 0.27  HD
ATOM     17 HZ3  LYS B   1      28.822   7.799 -12.245  1.00 68.55 LIG 0.27  HD
ENDBRANCH 13 14
ENDBRANCH 12 13
ENDBRANCH 11 12
ENDBRANCH 10 11
ENDBRANCH 5 10
ENDBRANCH 1 5
BRANCH 3 18
ATOM     18  CA  ILE B   2      27.630  10.686  -5.248  1.00 70.34 LIG 0.18  C 
BRANCH 18 19
ATOM     19  CB  ILE B   2      26.631  10.103  -4.199  1.00 70.35 LIG 0.01  C 
ATOM     20  CG2 ILE B   2      27.338   9.229  -3.151  1.00 70.46 LIG 0.01  C 
BRANCH 19 21
ATOM     21  CG1 ILE B   2      25.829  11.230  -3.526  1.00 70.36 LIG 0.00  C 
ATOM     22  CD1 ILE B   2      25.831  11.229  -1.997  1.00 70.48 LIG 0.01  C 
ENDBRANCH 19 21
ENDBRANCH 18 19
BRANCH 18 23
ATOM     23  C   ILE B   2      29.017  10.064  -5.106  1.00 70.53 LIG 0.24  C 
ATOM     24 O    ILE B   2      29.229   8.904  -5.471  1.00 70.63 LIG-0.27  OA
ATOM     25  N   ALA B   3      29.955  10.855  -4.587  1.00 70.71 LIG-0.35  N 
ATOM     26 H    ALA B   3      29.817  11.675  -4.370  1.00 70.71 LIG 0.16  HD
BRANCH 25 27
ATOM     27  CA  ALA B   3      31.319  10.397  -4.337  1.00 70.82 LIG 0.16  C 
ATOM     28  CB  ALA B   3      32.325  11.346  -4.976  1.00 70.79 LIG 0.04  C 
BRANCH 27 29
ATOM     29  C   ALA B   3      31.586  10.260  -2.839  1.00 70.87 LIG 0.22  C 
ATOM     30 O    ALA B   3      32.206  11.131  -2.223  1.00 70.95 LIG-0.29  OA
ENDBRANCH 27 29
ENDBRANCH 25 27
ENDBRANCH 18 23
ENDBRANCH 3 18
TORSDOF 13
ENDMDL
MODEL 5
USER: ADFR SOLUTION from run 200
USER: SCORE 14.352257 LL:  -0.790 LR: -13.597 RR:   0.000 FEB:  -9.719
USER: RMSD 4.514757
USER: SEED 199
USER: STATUS searching
USER: GENES 15
USER: genes 0 Translation |==|  0.39109 0.56180 0.53997
USER: genes 1 Rotation |==|  0.49258 0.43846 0.46815 0.99512
USER: genes 2 Torsion [N]-C--CA-[N] |==|  0.12938
USER: genes 3 Torsion [C]-CA--N-[H3] |==|  0.42961
USER: genes 4 Torsion [C]-CA--CB-[CG] |==|  0.47479
USER: genes 5 Torsion [CA]-CB--CG-[CD] |==|  0.51991
USER: genes 6 Torsion [CB]-CG--CD-[CE] |==|  0.72144
USER: genes 7 Torsion [CG]-CD--CE-[NZ] |==|  0.92293
USER: genes 8 Torsion [CD]-CE--NZ-[HZ3] |==|  0.88495
USER: genes 9 Torsion [C]-N--CA-[CB] |==|  0.82778
USER: genes 10 Torsion [N]-CA--CB-[CG2] |==|  0.55222
USER: genes 11 Torsion [CA]-CB--CG1-[CD1] |==|  0.34069
USER: genes 12 Torsion [N]-CA--C-[N] |==|  0.41846
USER: genes 13 Torsion [C]-N--CA-[CB] |==|  0.31370
USER: genes 14 Torsion [N]-CA--C-[O] |==|  0.30768
ROOT
ATOM      1  C   LYS B   1      27.491  11.643  -8.061  1.00 69.77 LIG 0.25  C 
ATOM      2 O    LYS B   1      27.575  12.728  -7.490  1.00 69.73 LIG-0.27  OA
ATOM      3  N   ILE B   2      27.559  10.475  -7.426  1.00 70.01 LIG-0.35  N 
ATOM      4 H    ILE B   2      27.458   9.714  -7.815  1.00 70.01 LIG 0.16  HD
ENDROOT
BRANCH 1 5
ATOM      5  CA  LYS B   1      27.288  11.579  -9.567  1.00 69.63 LIG 0.27  C 
BRANCH 5 6
ATOM      6  N   LYS B   1      26.206  10.613  -9.913  1.00 69.58 LIG-0.07  N 
ATOM      7 H3   LYS B   1      25.848  10.836 -10.697  1.00 69.58 LIG 0.28  HD
ATOM      8 H2   LYS B   1      25.577  10.634  -9.283  1.00 69.58 LIG 0.28  HD
ATOM      9 H1   LYS B   1      26.546   9.793  -9.965  1.00 69.58 LIG 0.28  HD
ENDBRANCH 5 6
BRANCH 5 10
ATOM     10  CB  LYS B   1      26.965  12.975 -10.114  1.00 69.57 LIG 0.04  C 
BRANCH 10 11
ATOM     11  CG  LYS B   1      26.953  13.084 -11.636  1.00 69.38 LIG 0.00  C 
BRANCH 11 12
ATOM     12  CD  LYS B   1      26.800  14.522 -12.113  1.00 68.73 LIG 0.03  C 
BRANCH 12 13
ATOM     13  CE  LYS B   1      25.366  14.812 -12.525  1.00 68.60 LIG 0.23  C 
BRANCH 13 14
ATOM     14  NZ  LYS B   1      24.655  13.590 -12.995  1.00 68.55 LIG-0.08  N 
ATOM     15 HZ1  LYS B   1      24.400  13.106 -12.293  1.00 68.55 LIG 0.27  HD
ATOM     16 HZ2  LYS B   1      23.940  13.826 -13.468  1.00 68.55 LIG 0.27  HD
ATOM     17 HZ3  LYS B   1      25.202  13.106 -13.505  1.00 68.55 LIG 0.27  HD
ENDBRANCH 13 14
ENDBRANCH 12 13
ENDBRANCH 11 12
ENDBRANCH 10 11
ENDBRANCH 5 10
ENDBRANCH 1 5
BRANCH 3 18
ATOM     18  CA  ILE B   2      27.817  10.382  -5.991  1.00 70.34 LIG 0.18  C 
BRANCH 18 19
ATOM     19  CB  ILE B   2      29.213  10.974  -5.616  1.00 70.35 LIG 0.01  C 
ATOM     20  CG2 ILE B   2      29.697  10.484  -4.241  1.00 70.46 LIG 0.01  C 
BRANCH 19 21
ATOM     21  CG1 ILE B   2      30.249  10.660  -6.708  1.00 70.36 LIG 0.00  C 
ATOM     22  CD1 ILE B   2      30.946  11.869  -7.334  1.00 70.48 LIG 0.01  C 
ENDBRANCH 19 21
ENDBRANCH 18 19
BRANCH 18 23
ATOM     23  C   ILE B   2      26.696  11.046  -5.196  1.00 70.53 LIG 0.24  C 
ATOM     24 O    ILE B   2      26.046  11.978  -5.678  1.00 70.63 LIG-0.27  OA
ATOM     25  N   ALA B   3      26.470  10.543  -3.984  1.00 70.71 LIG-0.35  N 
ATOM     26 H    ALA B   3      26.896   9.868  -3.664  1.00 70.71 LIG 0.16  HD
BRANCH 25 27
ATOM     27  CA  ALA B   3      25.469  11.096  -3.076  1.00 70.82 LIG 0.16  C 
ATOM     28  CB  ALA B   3      24.331  10.105  -2.870  1.00 70.79 LIG 0.04  C 
BRANCH 27 29
ATOM     29  C   ALA B   3      26.095  11.482  -1.737  1.00 70.87 LIG 0.22  C 
ATOM     30 O    ALA B   3      26.206  12.665  -1.406  1.00 70.95 LIG-0.29  OA
ENDBRANCH 27 29
ENDBRANCH 25 27
ENDBRANCH 18 23
ENDBRANCH 3 18
TORSDOF 13
ENDMDL
MODEL 6
USER: ADFR SOLUTION from run 106
USER: SCORE 14.569893 LL:  -1.168 LR: -13.597 RR:   0.000 FEB:  -9.720
USER: RMSD 3.948846
USER: SEED 105
USER: STATUS searching
USER: GENES 15
USER: genes 0 Translation |==|  0.37266 0.50809 0.58945
USER: genes 1 Rotation |==|  0.49492 0.52480 0.50007 0.99936
USER: genes 2 Torsion [N]-C--CA-[N] |==|  0.46545
USER: genes 3 Torsion [C]-CA--N-[H3] |==|  0.04132
USER: genes 4 Torsion [C]-CA--CB-[CG] |==|  0.52476
USER: genes 5 Torsion [CA]-CB--CG-[CD] |==|  0.72018
USER: genes 6 Torsion [CB]-CG--CD-[CE] |==|  0.66402
USER: genes 7 Torsion [CG]-CD--CE-[NZ] |==|  0.37332
USER: genes 8 Torsion [CD]-CE--NZ-[HZ3] |==|  0.97821
USER: genes 9 Torsion [C]-N--CA-[CB] |==|  0.86638
USER: genes 10 Torsion [N]-CA--CB-[CG2] |==|  0.54667
USER: genes 11 Torsion [CA]-CB--CG1-[CD1] |==|  0.36907
USER: genes 12 Torsion [N]-CA--C-[N] |==|  0.87227
USER: genes 13 Torsion [C]-N--CA-[CB] |==|  0.82653
USER: genes 14 Torsion [N]-CA--C-[O] |==|  0.29865
ROOT
ATOM      1  C   LYS B   1      27.200  10.958  -7.059  1.00 69.77 LIG 0.25  C 
ATOM      2 O    LYS B   1      27.344  12.049  -6.510  1.00 69.73 LIG-0.27  OA
ATOM      3  N   ILE B   2      27.619   9.811  -6.528  1.00 70.01 LIG-0.35  N 
ATOM      4 H    ILE B   2      27.482   9.042  -6.888  1.00 70.01 LIG 0.16  HD
ENDROOT
BRANCH 1 5
ATOM      5  CA  LYS B   1      26.506  10.861  -8.409  1.00 69.63 LIG 0.27  C 
BRANCH 5 6
ATOM      6  N   LYS B   1      25.830  12.146  -8.747  1.00 69.58 LIG-0.07  N 
ATOM      7 H3   LYS B   1      26.131  12.791  -8.212  1.00 69.58 LIG 0.28  HD
ATOM      8 H2   LYS B   1      24.951  12.057  -8.637  1.00 69.58 LIG 0.28  HD
ATOM      9 H1   LYS B   1      26.003  12.358  -9.594  1.00 69.58 LIG 0.28  HD
ENDBRANCH 5 6
BRANCH 5 10
ATOM     10  CB  LYS B   1      27.519  10.478  -9.494  1.00 69.57 LIG 0.04  C 
BRANCH 10 11
ATOM     11  CG  LYS B   1      26.992  10.556 -10.924  1.00 69.38 LIG 0.00  C 
BRANCH 11 12
ATOM     12  CD  LYS B   1      26.612   9.189 -11.478  1.00 68.73 LIG 0.03  C 
BRANCH 12 13
ATOM     13  CE  LYS B   1      27.409   8.867 -12.731  1.00 68.60 LIG 0.23  C 
BRANCH 13 14
ATOM     14  NZ  LYS B   1      27.953   7.480 -12.714  1.00 68.55 LIG-0.08  N 
ATOM     15 HZ1  LYS B   1      27.547   6.994 -13.338  1.00 68.55 LIG 0.27  HD
ATOM     16 HZ2  LYS B   1      28.827   7.501 -12.878  1.00 68.55 LIG 0.27  HD
ATOM     17 HZ3  LYS B   1      27.810   7.115 -11.915  1.00 68.55 LIG 0.27  HD
ENDBRANCH 13 14
ENDBRANCH 12 13
ENDBRANCH 11 12
ENDBRANCH 10 11
ENDBRANCH 5 10
ENDBRANCH 1 5
BRANCH 3 18
ATOM     18  CA  ILE B   2      28.359   9.760  -5.270  1.00 70.34 LIG 0.18  C 
BRANCH 18 19
ATOM     19  CB  ILE B   2      29.530  10.792  -5.246  1.00 70.35 LIG 0.01  C 
ATOM     20  CG2 ILE B   2      30.553  10.480  -4.141  1.00 70.46 LIG 0.01  C 
BRANCH 19 21
ATOM     21  CG1 ILE B   2      30.214  10.873  -6.621  1.00 70.36 LIG 0.00  C 
ATOM     22  CD1 ILE B   2      30.465  12.282  -7.160  1.00 70.48 LIG 0.01  C 
ENDBRANCH 19 21
ENDBRANCH 18 19
BRANCH 18 23
ATOM     23  C   ILE B   2      27.420   9.951  -4.082  1.00 70.53 LIG 0.24  C 
ATOM     24 O    ILE B   2      27.501   9.223  -3.088  1.00 70.63 LIG-0.27  OA
ATOM     25  N   ALA B   3      26.543  10.947  -4.193  1.00 70.71 LIG-0.35  N 
ATOM     26 H    ALA B   3      26.513  11.480  -4.867  1.00 70.71 LIG 0.16  HD
BRANCH 25 27
ATOM     27  CA  ALA B   3      25.541  11.231  -3.168  1.00 70.82 LIG 0.16  C 
ATOM     28  CB  ALA B   3      24.591  10.052  -3.012  1.00 70.79 LIG 0.04  C 
BRANCH 27 29
ATOM     29  C   ALA B   3      26.203  11.569  -1.833  1.00 70.87 LIG 0.22  C 
ATOM     30 O    ALA B   3      26.206  12.724  -1.401  1.00 70.95 LIG-0.29  OA
ENDBRANCH 27 29
ENDBRANCH 25 27
ENDBRANCH 18 23
ENDBRANCH 3 18
TORSDOF 13
ENDMDL
MODEL 7
USER: ADFR SOLUTION from run 18
USER: SCORE 13.337985 LL:  -1.183 LR: -13.304 RR:   0.000 FEB:  -9.426
USER: RMSD 2.252272
USER: SEED 17
USER: STATUS no improvement in best in 7 clusters for 5 generations
USER: GENES 15
USER: genes 0 Translation |==|  0.36923 0.52984 0.58659
USER: genes 1 Rotation |==|  0.45149 0.51186 0.46060 0.99594
USER: genes 2 Torsion [N]-C--CA-[N] |==|  0.41374
USER: genes 3 Torsion [C]-CA--N-[H3] |==|  0.03471
USER: genes 4 Torsion [C]-CA--CB-[CG] |==|  0.49195
USER: genes 5 Torsion [CA]-CB--CG-[CD] |==|  0.26093
USER: genes 6 Torsion [CB]-CG--CD-[CE] |==|  0.53187
USER: genes 7 Torsion [CG]-CD--CE-[NZ] |==|  0.36502
USER: genes 8 Torsion [CD]-CE--NZ-[HZ3] |==|  0.57644
USER: genes 9 Torsion [C]-N--CA-[CB] |==|  0.27778
USER: genes 10 Torsion [N]-CA--CB-[CG2] |==|  0.86125
USER: genes 11 Torsion [CA]-CB--CG1-[CD1] |==|  0.35163
USER: genes 12 Torsion [N]-CA--C-[N] |==|  0.45392
USER: genes 13 Torsion [C]-N--CA-[CB] |==|  0.48617
USER: genes 14 Torsion [N]-CA--C-[O] |==|  0.90314
ROOT
ATOM      1  C   LYS B   1      27.146  11.235  -7.116  1.00 69.77 LIG 0.25  C 
ATOM      2 O    LYS B   1      27.433  12.376  -6.761  1.00 69.73 LIG-0.27  OA
ATOM      3  N   ILE B   2      27.365  10.158  -6.366  1.00 70.01 LIG-0.35  N 
ATOM      4 H    ILE B   2      27.126   9.363  -6.592  1.00 70.01 LIG 0.16  HD
ENDROOT
BRANCH 1 5
ATOM      5  CA  LYS B   1      26.498  10.991  -8.471  1.00 69.63 LIG 0.27  C 
BRANCH 5 6
ATOM      6  N   LYS B   1      25.656  12.155  -8.869  1.00 69.58 LIG-0.07  N 
ATOM      7 H3   LYS B   1      25.829  12.845  -8.334  1.00 69.58 LIG 0.28  HD
ATOM      8 H2   LYS B   1      24.795  11.936  -8.801  1.00 69.58 LIG 0.28  HD
ATOM      9 H1   LYS B   1      25.839  12.380  -9.711  1.00 69.58 LIG 0.28  HD
ENDBRANCH 5 6
BRANCH 5 10
ATOM     10  CB  LYS B   1      27.576  10.714  -9.527  1.00 69.57 LIG 0.04  C 
BRANCH 10 11
ATOM     11  CG  LYS B   1      27.044  10.385 -10.919  1.00 69.38 LIG 0.00  C 
BRANCH 11 12
ATOM     12  CD  LYS B   1      26.957  11.615 -11.812  1.00 68.73 LIG 0.03  C 
BRANCH 12 13
ATOM     13  CE  LYS B   1      26.171  11.316 -13.079  1.00 68.60 LIG 0.23  C 
BRANCH 13 14
ATOM     14  NZ  LYS B   1      25.132  12.347 -13.355  1.00 68.55 LIG-0.08  N 
ATOM     15 HZ1  LYS B   1      24.819  12.667 -12.586  1.00 68.55 LIG 0.27  HD
ATOM     16 HZ2  LYS B   1      25.490  13.010 -13.828  1.00 68.55 LIG 0.27  HD
ATOM     17 HZ3  LYS B   1      24.465  11.980 -13.816  1.00 68.55 LIG 0.27  HD
ENDBRANCH 13 14
ENDBRANCH 12 13
ENDBRANCH 11 12
ENDBRANCH 10 11
ENDBRANCH 5 10
ENDBRANCH 1 5
BRANCH 3 18
ATOM     18  CA  ILE B   2      28.039  10.234  -5.072  1.00 70.34 LIG 0.18  C 
BRANCH 18 19
ATOM     19  CB  ILE B   2      27.022  10.209  -3.888  1.00 70.35 LIG 0.01  C 
ATOM     20  CG2 ILE B   2      25.889  11.231  -4.077  1.00 70.46 LIG 0.01  C 
BRANCH 19 21
ATOM     21  CG1 ILE B   2      26.458   8.793  -3.685  1.00 70.36 LIG 0.00  C 
ATOM     22  CD1 ILE B   2      26.578   8.223  -2.271  1.00 70.48 LIG 0.01  C 
ENDBRANCH 19 21
ENDBRANCH 18 19
BRANCH 18 23
ATOM     23  C   ILE B   2      29.080   9.125  -4.940  1.00 70.53 LIG 0.24  C 
ATOM     24 O    ILE B   2      29.071   8.155  -5.703  1.00 70.63 LIG-0.27  OA
ATOM     25  N   ALA B   3      29.982   9.292  -3.974  1.00 70.71 LIG-0.35  N 
ATOM     26 H    ALA B   3      30.013   9.986  -3.468  1.00 70.71 LIG 0.16  HD
BRANCH 25 27
ATOM     27  CA  ALA B   3      31.014   8.299  -3.682  1.00 70.82 LIG 0.16  C 
ATOM     28  CB  ALA B   3      31.967   8.821  -2.615  1.00 70.79 LIG 0.04  C 
BRANCH 27 29
ATOM     29  C   ALA B   3      30.392   6.974  -3.245  1.00 70.87 LIG 0.22  C 
ATOM     30 O    ALA B   3      29.354   6.949  -2.578  1.00 70.95 LIG-0.29  OA
ENDBRANCH 27 29
ENDBRANCH 25 27
ENDBRANCH 18 23
ENDBRANCH 3 18
TORSDOF 13
ENDMDL
MODEL 8
USER: ADFR SOLUTION from run 75
USER: SCORE 13.724097 LL:  -1.706 LR: -13.297 RR:   0.000 FEB:  -9.419
USER: RMSD 2.350257
USER: SEED 74
USER: STATUS no improvement in best in 10 clusters for 5 generations
USER: GENES 15
USER: genes 0 Translation |==|  0.34855 0.53519 0.59202
USER: genes 1 Rotation |==|  0.44651 0.47229 0.39146 0.98435
USER: genes 2 Torsion [N]-C--CA-[N] |==|  0.39901
USER: genes 3 Torsion [C]-CA--N-[H3] |==|  0.36373
USER: genes 4 Torsion [C]-CA--CB-[CG] |==|  0.51438
USER: genes 5 Torsion [CA]-CB--CG-[CD] |==|  0.74358
USER: genes 6 Torsion [CB]-CG--CD-[CE] |==|  0.59994
USER: genes 7 Torsion [CG]-CD--CE-[NZ] |==|  0.35821
USER: genes 8 Torsion [CD]-CE--NZ-[HZ3] |==|  0.05330
USER: genes 9 Torsion [C]-N--CA-[CB] |==|  0.43212
USER: genes 10 Torsion [N]-CA--CB-[CG2] |==|  0.23749
USER: genes 11 Torsion [CA]-CB--CG1-[CD1] |==|  0.12252
USER: genes 12 Torsion [N]-CA--C-[N] |==|  0.93411
USER: genes 13 Torsion [C]-N--CA-[CB] |==|  0.28572
USER: genes 14 Torsion [N]-CA--C-[O] |==|  0.99621
ROOT
ATOM      1  C   LYS B   1      26.821  11.304  -7.007  1.00 69.77 LIG 0.25  C 
ATOM      2 O    LYS B   1      27.331  12.355  -6.626  1.00 69.73 LIG-0.27  OA
ATOM      3  N   ILE B   2      26.615  10.258  -6.208  1.00 70.01 LIG-0.35  N 
ATOM      4 H    ILE B   2      26.219   9.537  -6.460  1.00 70.01 LIG 0.16  HD
ENDROOT
BRANCH 1 5
ATOM      5  CA  LYS B   1      26.376  11.143  -8.453  1.00 69.63 LIG 0.27  C 
BRANCH 5 6
ATOM      6  N   LYS B   1      25.831  12.426  -8.982  1.00 69.58 LIG-0.07  N 
ATOM      7 H3   LYS B   1      26.206  12.607  -9.769  1.00 69.58 LIG 0.28  HD
ATOM      8 H2   LYS B   1      26.012  13.084  -8.410  1.00 69.58 LIG 0.28  HD
ATOM      9 H1   LYS B   1      24.950  12.355  -9.083  1.00 69.58 LIG 0.28  HD
ENDBRANCH 5 6
BRANCH 5 10
ATOM     10  CB  LYS B   1      27.549  10.656  -9.312  1.00 69.57 LIG 0.04  C 
BRANCH 10 11
ATOM     11  CG  LYS B   1      27.260  10.575 -10.808  1.00 69.38 LIG 0.00  C 
BRANCH 11 12
ATOM     12  CD  LYS B   1      26.766   9.197 -11.230  1.00 68.73 LIG 0.03  C 
BRANCH 12 13
ATOM     13  CE  LYS B   1      27.294   8.824 -12.606  1.00 68.60 LIG 0.23  C 
BRANCH 13 14
ATOM     14  NZ  LYS B   1      27.935   7.480 -12.620  1.00 68.55 LIG-0.08  N 
ATOM     15 HZ1  LYS B   1      27.706   7.050 -13.364  1.00 68.55 LIG 0.27  HD
ATOM     16 HZ2  LYS B   1      28.819   7.572 -12.592  1.00 68.55 LIG 0.27  HD
ATOM     17 HZ3  LYS B   1      27.663   7.013 -11.912  1.00 68.55 LIG 0.27  HD
ENDBRANCH 13 14
ENDBRANCH 12 13
ENDBRANCH 11 12
ENDBRANCH 10 11
ENDBRANCH 5 10
ENDBRANCH 1 5
BRANCH 3 18
ATOM     18  CA  ILE B   2      27.051  10.246  -4.814  1.00 70.34 LIG 0.18  C 
BRANCH 18 19
ATOM     19  CB  ILE B   2      26.207   9.254  -3.953  1.00 70.35 LIG 0.01  C 
ATOM     20  CG2 ILE B   2      26.753   7.819  -4.022  1.00 70.46 LIG 0.01  C 
BRANCH 19 21
ATOM     21  CG1 ILE B   2      26.116   9.739  -2.497  1.00 70.36 LIG 0.00  C 
ATOM     22  CD1 ILE B   2      25.831  11.230  -2.306  1.00 70.48 LIG 0.01  C 
ENDBRANCH 19 21
ENDBRANCH 18 19
BRANCH 18 23
ATOM     23  C   ILE B   2      28.544   9.940  -4.718  1.00 70.53 LIG 0.24  C 
ATOM     24 O    ILE B   2      29.196  10.282  -3.727  1.00 70.63 LIG-0.27  OA
ATOM     25  N   ALA B   3      29.066   9.279  -5.749  1.00 70.71 LIG-0.35  N 
ATOM     26 H    ALA B   3      28.604   9.005  -6.421  1.00 70.71 LIG 0.16  HD
BRANCH 25 27
ATOM     27  CA  ALA B   3      30.488   8.954  -5.836  1.00 70.82 LIG 0.16  C 
ATOM     28  CB  ALA B   3      30.721   7.488  -5.495  1.00 70.79 LIG 0.04  C 
BRANCH 27 29
ATOM     29  C   ALA B   3      31.041   9.277  -7.223  1.00 70.87 LIG 0.22  C 
ATOM     30 O    ALA B   3      30.309   9.726  -8.109  1.00 70.95 LIG-0.29  OA
ENDBRANCH 27 29
ENDBRANCH 25 27
ENDBRANCH 18 23
ENDBRANCH 3 18
TORSDOF 13
ENDMDL
MODEL 9
USER: ADFR SOLUTION from run 16
USER: SCORE 13.232368 LL:  -1.181 LR: -13.303 RR:   0.000 FEB:  -9.426
USER: RMSD 2.624463
USER: SEED 551636
USER: STATUS no improvement in best in 9 clusters for 5 generations
USER: GENES 15
USER: genes 0 Translation |==|  0.39136 0.55278 0.59061
USER: genes 1 Rotation |==|  0.45993 0.43764 0.38782 0.98158
USER: genes 2 Torsion [N]-C--CA-[N] |==|  0.22099
USER: genes 3 Torsion [C]-CA--N-[H3] |==|  0.74560
USER: genes 4 Torsion [C]-CA--CB-[CG] |==|  0.66980
USER: genes 5 Torsion [CA]-CB--CG-[CD] |==|  0.75165
USER: genes 6 Torsion [CB]-CG--CD-[CE] |==|  0.48322
USER: genes 7 Torsion [CG]-CD--CE-[NZ] |==|  0.63294
USER: genes 8 Torsion [CD]-CE--NZ-[HZ3] |==|  0.48084
USER: genes 9 Torsion [C]-N--CA-[CB] |==|  0.43262
USER: genes 10 Torsion [N]-CA--CB-[CG2] |==|  0.22169
USER: genes 11 Torsion [CA]-CB--CG1-[CD1] |==|  0.14410
USER: genes 12 Torsion [N]-CA--C-[N] |==|  0.92722
USER: genes 13 Torsion [C]-N--CA-[CB] |==|  0.24172
USER: genes 14 Torsion [N]-CA--C-[O] |==|  0.00547
ROOT
ATOM      1  C   LYS B   1      27.495  11.528  -7.035  1.00 69.77 LIG 0.25  C 
ATOM      2 O    LYS B   1      27.940  12.571  -6.561  1.00 69.73 LIG-0.27  OA
ATOM      3  N   ILE B   2      27.177  10.466  -6.298  1.00 70.01 LIG-0.35  N 
ATOM      4 H    ILE B   2      26.824   9.750  -6.621  1.00 70.01 LIG 0.16  HD
ENDROOT
BRANCH 1 5
ATOM      5  CA  LYS B   1      27.269  11.399  -8.534  1.00 69.63 LIG 0.27  C 
BRANCH 5 6
ATOM      6  N   LYS B   1      25.831  11.605  -8.870  1.00 69.58 LIG-0.07  N 
ATOM      7 H3   LYS B   1      25.410  10.820  -8.868  1.00 69.58 LIG 0.28  HD
ATOM      8 H2   LYS B   1      25.764  11.974  -9.677  1.00 69.58 LIG 0.28  HD
ATOM      9 H1   LYS B   1      25.459  12.142  -8.266  1.00 69.58 LIG 0.28  HD
ENDBRANCH 5 6
BRANCH 5 10
ATOM     10  CB  LYS B   1      28.151  12.402  -9.287  1.00 69.57 LIG 0.04  C 
BRANCH 10 11
ATOM     11  CG  LYS B   1      27.391  13.429 -10.122  1.00 69.38 LIG 0.00  C 
BRANCH 11 12
ATOM     12  CD  LYS B   1      27.133  12.945 -11.542  1.00 68.73 LIG 0.03  C 
BRANCH 12 13
ATOM     13  CE  LYS B   1      26.250  13.922 -12.301  1.00 68.60 LIG 0.23  C 
BRANCH 13 14
ATOM     14  NZ  LYS B   1      25.129  13.239 -13.007  1.00 68.55 LIG-0.08  N 
ATOM     15 HZ1  LYS B   1      25.456  12.730 -13.659  1.00 68.55 LIG 0.27  HD
ATOM     16 HZ2  LYS B   1      24.680  12.731 -12.431  1.00 68.55 LIG 0.27  HD
ATOM     17 HZ3  LYS B   1      24.581  13.849 -13.354  1.00 68.55 LIG 0.27  HD
ENDBRANCH 13 14
ENDBRANCH 12 13
ENDBRANCH 11 12
ENDBRANCH 10 11
ENDBRANCH 5 10
ENDBRANCH 1 5
BRANCH 3 18
ATOM     18  CA  ILE B   2      27.402  10.423  -4.856  1.00 70.34 LIG 0.18  C 
BRANCH 18 19
ATOM     19  CB  ILE B   2      26.446   9.410  -4.151  1.00 70.35 LIG 0.01  C 
ATOM     20  CG2 ILE B   2      26.935   7.959  -4.291  1.00 70.46 LIG 0.01  C 
BRANCH 19 21
ATOM     21  CG1 ILE B   2      26.250   9.784  -2.672  1.00 70.36 LIG 0.00  C 
ATOM     22  CD1 ILE B   2      25.832  11.230  -2.400  1.00 70.48 LIG 0.01  C 
ENDBRANCH 19 21
ENDBRANCH 18 19
BRANCH 18 23
ATOM     23  C   ILE B   2      28.866  10.118  -4.546  1.00 70.53 LIG 0.24  C 
ATOM     24 O    ILE B   2      29.375  10.480  -3.482  1.00 70.63 LIG-0.27  OA
ATOM     25  N   ALA B   3      29.525   9.437  -5.482  1.00 70.71 LIG-0.35  N 
ATOM     26 H    ALA B   3      29.160   9.151  -6.206  1.00 70.71 LIG 0.16  HD
BRANCH 25 27
ATOM     27  CA  ALA B   3      30.944   9.110  -5.364  1.00 70.82 LIG 0.16  C 
ATOM     28  CB  ALA B   3      31.128   7.804  -4.603  1.00 70.79 LIG 0.04  C 
BRANCH 27 29
ATOM     29  C   ALA B   3      31.604   9.028  -6.739  1.00 70.87 LIG 0.22  C 
ATOM     30 O    ALA B   3      30.962   9.261  -7.766  1.00 70.95 LIG-0.29  OA
ENDBRANCH 27 29
ENDBRANCH 25 27
ENDBRANCH 18 23
ENDBRANCH 3 18
TORSDOF 13
ENDMDL
MODEL 10
USER: ADFR SOLUTION from run 71
USER: SCORE 14.019240 LL:  -1.056 LR: -13.236 RR:   0.000 FEB:  -9.358
USER: RMSD 3.784817
USER: SEED 70
USER: STATUS no improvement in best in 8 clusters for 5 generations
USER: GENES 15
USER: genes 0 Translation |==|  0.37805 0.50950 0.57245
USER: genes 1 Rotation |==|  0.55464 0.54976 0.57394 0.98895
USER: genes 2 Torsion [N]-C--CA-[N] |==|  0.52579
USER: genes 3 Torsion [C]-CA--N-[H3] |==|  0.02210
USER: genes 4 Torsion [C]-CA--CB-[CG] |==|  0.38039
USER: genes 5 Torsion [CA]-CB--CG-[CD] |==|  0.43168
USER: genes 6 Torsion [CB]-CG--CD-[CE] |==|  0.43065
USER: genes 7 Torsion [CG]-CD--CE-[NZ] |==|  0.79379
USER: genes 8 Torsion [CD]-CE--NZ-[HZ3] |==|  0.59503
USER: genes 9 Torsion [C]-N--CA-[CB] |==|  0.78310
USER: genes 10 Torsion [N]-CA--CB-[CG2] |==|  0.16714
USER: genes 11 Torsion [CA]-CB--CG1-[CD1] |==|  0.11660
USER: genes 12 Torsion [N]-CA--C-[N] |==|  0.20938
USER: genes 13 Torsion [C]-N--CA-[CB] |==|  0.22133
USER: genes 14 Torsion [N]-CA--C-[O] |==|  0.91462
ROOT
ATOM      1  C   LYS B   1      27.285  10.976  -7.403  1.00 69.77 LIG 0.25  C 
ATOM      2 O    LYS B   1      27.211  11.902  -6.598  1.00 69.73 LIG-0.27  OA
ATOM      3  N   ILE B   2      28.061   9.909  -7.222  1.00 70.01 LIG-0.35  N 
ATOM      4 H    ILE B   2      28.083   9.239  -7.761  1.00 70.01 LIG 0.16  HD
ENDROOT
BRANCH 1 5
ATOM      5  CA  LYS B   1      26.461  10.999  -8.682  1.00 69.63 LIG 0.27  C 
BRANCH 5 6
ATOM      6  N   LYS B   1      25.818  12.331  -8.870  1.00 69.58 LIG-0.07  N 
ATOM      7 H3   LYS B   1      26.128  12.900  -8.260  1.00 69.58 LIG 0.28  HD
ATOM      8 H2   LYS B   1      24.936  12.250  -8.778  1.00 69.58 LIG 0.28  HD
ATOM      9 H1   LYS B   1      26.005  12.638  -9.684  1.00 69.58 LIG 0.28  HD
ENDBRANCH 5 6
BRANCH 5 10
ATOM     10  CB  LYS B   1      27.347  10.649  -9.884  1.00 69.57 LIG 0.04  C 
BRANCH 10 11
ATOM     11  CG  LYS B   1      26.718   9.688 -10.888  1.00 69.38 LIG 0.00  C 
BRANCH 11 12
ATOM     12  CD  LYS B   1      27.318   9.830 -12.281  1.00 68.73 LIG 0.03  C 
BRANCH 12 13
ATOM     13  CE  LYS B   1      27.164   8.544 -13.076  1.00 68.60 LIG 0.23  C 
BRANCH 13 14
ATOM     14  NZ  LYS B   1      28.104   7.482 -12.620  1.00 68.55 LIG-0.08  N 
ATOM     15 HZ1  LYS B   1      28.818   7.857 -12.246  1.00 68.55 LIG 0.27  HD
ATOM     16 HZ2  LYS B   1      27.697   6.961 -12.024  1.00 68.55 LIG 0.27  HD
ATOM     17 HZ3  LYS B   1      28.359   6.990 -13.317  1.00 68.55 LIG 0.27  HD
ENDBRANCH 13 14
ENDBRANCH 12 13
ENDBRANCH 11 12
ENDBRANCH 10 11
ENDBRANCH 5 10
ENDBRANCH 1 5
BRANCH 3 18
ATOM     18  CA  ILE B   2      28.955   9.783  -6.074  1.00 70.34 LIG 0.18  C 
BRANCH 18 19
ATOM     19  CB  ILE B   2      30.255  10.628  -6.258  1.00 70.35 LIG 0.01  C 
ATOM     20  CG2 ILE B   2      29.952  12.126  -6.422  1.00 70.46 LIG 0.01  C 
BRANCH 19 21
ATOM     21  CG1 ILE B   2      31.230  10.388  -5.093  1.00 70.36 LIG 0.00  C 
ATOM     22  CD1 ILE B   2      31.373   8.937  -4.631  1.00 70.48 LIG 0.01  C 
ENDBRANCH 19 21
ENDBRANCH 18 19
BRANCH 18 23
ATOM     23  C   ILE B   2      28.230  10.147  -4.781  1.00 70.53 LIG 0.24  C 
ATOM     24 O    ILE B   2      28.428  11.233  -4.229  1.00 70.63 LIG-0.27  OA
ATOM     25  N   ALA B   3      27.379   9.232  -4.318  1.00 70.71 LIG-0.35  N 
ATOM     26 H    ALA B   3      27.211   8.492  -4.723  1.00 70.71 LIG 0.16  HD
BRANCH 25 27
ATOM     27  CA  ALA B   3      26.645   9.402  -3.067  1.00 70.82 LIG 0.16  C 
ATOM     28  CB  ALA B   3      25.442  10.313  -3.275  1.00 70.79 LIG 0.04  C 
BRANCH 27 29
ATOM     29  C   ALA B   3      26.206   8.053  -2.500  1.00 70.87 LIG 0.22  C 
ATOM     30 O    ALA B   3      25.950   7.105  -3.246  1.00 70.95 LIG-0.29  OA
ENDBRANCH 27 29
ENDBRANCH 25 27
ENDBRANCH 18 23
ENDBRANCH 3 18
TORSDOF 13
ENDMDL
MODEL 11
USER: ADFR SOLUTION from run 67
USER: SCORE 13.014986 LL:  -1.528 LR: -13.191 RR:   0.000 FEB:  -9.314
USER: RMSD 8.673671
USER: SEED 66
USER: STATUS no improvement in best in 10 clusters for 5 generations
USER: GENES 15
USER: genes 0 Translation |==|  0.40527 0.63655 0.42659
USER: genes 1 Rotation |==|  0.77565 0.90145 0.59674 0.55916
USER: genes 2 Torsion [N]-C--CA-[N] |==|  0.90090
USER: genes 3 Torsion [C]-CA--N-[H3] |==|  0.00757
USER: genes 4 Torsion [C]-CA--CB-[CG] |==|  0.88161
USER: genes 5 Torsion [CA]-CB--CG-[CD] |==|  0.27271
USER: genes 6 Torsion [CB]-CG--CD-[CE] |==|  0.47414
USER: genes 7 Torsion [CG]-CD--CE-[NZ] |==|  0.79516
USER: genes 8 Torsion [CD]-CE--NZ-[HZ3] |==|  0.76715
USER: genes 9 Torsion [C]-N--CA-[CB] |==|  0.34906
USER: genes 10 Torsion [N]-CA--CB-[CG2] |==|  0.72890
USER: genes 11 Torsion [CA]-CB--CG1-[CD1] |==|  0.52055
USER: genes 12 Torsion [N]-CA--C-[N] |==|  0.76743
USER: genes 13 Torsion [C]-N--CA-[CB] |==|  0.28292
USER: genes 14 Torsion [N]-CA--C-[O] |==|  0.38052
ROOT
ATOM      1  C   LYS B   1      27.714  12.596 -10.357  1.00 69.77 LIG 0.25  C 
ATOM      2 O    LYS B   1      28.822  13.125 -10.401  1.00 69.73 LIG-0.27  OA
ATOM      3  N   ILE B   2      26.829  12.667 -11.349  1.00 70.01 LIG-0.35  N 
ATOM      4 H    ILE B   2      26.070  12.262 -11.340  1.00 70.01 LIG 0.16  HD
ENDROOT
BRANCH 1 5
ATOM      5  CA  LYS B   1      27.289  11.801  -9.132  1.00 69.63 LIG 0.27  C 
BRANCH 5 6
ATOM      6  N   LYS B   1      25.831  11.975  -8.870  1.00 69.58 LIG-0.07  N 
ATOM      7 H3   LYS B   1      25.473  12.484  -9.507  1.00 69.58 LIG 0.28  HD
ATOM      8 H2   LYS B   1      25.716  12.367  -8.079  1.00 69.58 LIG 0.28  HD
ATOM      9 H1   LYS B   1      25.433  11.179  -8.868  1.00 69.58 LIG 0.28  HD
ENDBRANCH 5 6
BRANCH 5 10
ATOM     10  CB  LYS B   1      27.633  10.318  -9.322  1.00 69.57 LIG 0.04  C 
BRANCH 10 11
ATOM     11  CG  LYS B   1      27.323   9.758 -10.706  1.00 69.38 LIG 0.00  C 
BRANCH 11 12
ATOM     12  CD  LYS B   1      28.553   9.717 -11.604  1.00 68.73 LIG 0.03  C 
BRANCH 12 13
ATOM     13  CE  LYS B   1      28.269   8.950 -12.885  1.00 68.60 LIG 0.23  C 
BRANCH 13 14
ATOM     14  NZ  LYS B   1      28.193   7.480 -12.659  1.00 68.55 LIG-0.08  N 
ATOM     15 HZ1  LYS B   1      27.813   7.321 -11.870  1.00 68.55 LIG 0.27  HD
ATOM     16 HZ2  LYS B   1      27.706   7.105 -13.302  1.00 68.55 LIG 0.27  HD
ATOM     17 HZ3  LYS B   1      29.013   7.134 -12.668  1.00 68.55 LIG 0.27  HD
ENDBRANCH 13 14
ENDBRANCH 12 13
ENDBRANCH 11 12
ENDBRANCH 10 11
ENDBRANCH 5 10
ENDBRANCH 1 5
BRANCH 3 18
ATOM     18  CA  ILE B   2      27.075  13.451 -12.557  1.00 70.34 LIG 0.18  C 
BRANCH 18 19
ATOM     19  CB  ILE B   2      26.914  12.588 -13.848  1.00 70.35 LIG 0.01  C 
ATOM     20  CG2 ILE B   2      28.265  12.078 -14.375  1.00 70.46 LIG 0.01  C 
BRANCH 19 21
ATOM     21  CG1 ILE B   2      25.942  11.421 -13.606  1.00 70.36 LIG 0.00  C 
ATOM     22  CD1 ILE B   2      25.831  10.398 -14.737  1.00 70.48 LIG 0.01  C 
ENDBRANCH 19 21
ENDBRANCH 18 19
BRANCH 18 23
ATOM     23  C   ILE B   2      26.177  14.685 -12.592  1.00 70.53 LIG 0.24  C 
ATOM     24 O    ILE B   2      26.595  15.782 -12.214  1.00 70.63 LIG-0.27  OA
ATOM     25  N   ALA B   3      24.947  14.491 -13.067  1.00 70.71 LIG-0.35  N 
ATOM     26 H    ALA B   3      24.668  13.735 -13.368  1.00 70.71 LIG 0.16  HD
BRANCH 25 27
ATOM     27  CA  ALA B   3      23.948  15.556 -13.120  1.00 70.82 LIG 0.16  C 
ATOM     28  CB  ALA B   3      23.830  16.105 -14.536  1.00 70.79 LIG 0.04  C 
BRANCH 27 29
ATOM     29  C   ALA B   3      22.592  15.061 -12.621  1.00 70.87 LIG 0.22  C 
ATOM     30 O    ALA B   3      21.901  15.753 -11.870  1.00 70.95 LIG-0.29  OA
ENDBRANCH 27 29
ENDBRANCH 25 27
ENDBRANCH 18 23
ENDBRANCH 3 18
TORSDOF 13
ENDMDL
MODEL 12
USER: ADFR SOLUTION from run 69
USER: SCORE 13.740853 LL:  -0.641 LR: -13.104 RR:   0.000 FEB:  -9.226
USER: RMSD 3.959551
USER: SEED 68
USER: STATUS no improvement in best in 9 clusters for 5 generations
USER: GENES 15
USER: genes 0 Translation |==|  0.41308 0.54399 0.56493
USER: genes 1 Rotation |==|  0.56068 0.51037 0.41561 0.98897
USER: genes 2 Torsion [N]-C--CA-[N] |==|  0.21926
USER: genes 3 Torsion [C]-CA--N-[H3] |==|  0.46694
USER: genes 4 Torsion [C]-CA--CB-[CG] |==|  0.42363
USER: genes 5 Torsion [CA]-CB--CG-[CD] |==|  0.21704
USER: genes 6 Torsion [CB]-CG--CD-[CE] |==|  0.62727
USER: genes 7 Torsion [CG]-CD--CE-[NZ] |==|  0.43927
USER: genes 8 Torsion [CD]-CE--NZ-[HZ3] |==|  0.24563
USER: genes 9 Torsion [C]-N--CA-[CB] |==|  0.83042
USER: genes 10 Torsion [N]-CA--CB-[CG2] |==|  0.94569
USER: genes 11 Torsion [CA]-CB--CG1-[CD1] |==|  0.28944
USER: genes 12 Torsion [N]-CA--C-[N] |==|  0.39922
USER: genes 13 Torsion [C]-N--CA-[CB] |==|  0.14156
USER: genes 14 Torsion [N]-CA--C-[O] |==|  0.88653
ROOT
ATOM      1  C   LYS B   1      27.837  11.416  -7.555  1.00 69.77 LIG 0.25  C 
ATOM      2 O    LYS B   1      28.281  12.231  -6.749  1.00 69.73 LIG-0.27  OA
ATOM      3  N   ILE B   2      27.793  10.106  -7.322  1.00 70.01 LIG-0.35  N 
ATOM      4 H    ILE B   2      27.443   9.537  -7.865  1.00 70.01 LIG 0.16  HD
ENDROOT
BRANCH 1 5
ATOM      5  CA  LYS B   1      27.290  11.879  -8.897  1.00 69.63 LIG 0.27  C 
BRANCH 5 6
ATOM      6  N   LYS B   1      25.800  11.927  -8.870  1.00 69.58 LIG-0.07  N 
ATOM      7 H3   LYS B   1      25.503  12.359  -9.590  1.00 69.58 LIG 0.28  HD
ATOM      8 H2   LYS B   1      25.529  12.355  -8.137  1.00 69.58 LIG 0.28  HD
ATOM      9 H1   LYS B   1      25.476  11.099  -8.867  1.00 69.58 LIG 0.28  HD
ENDBRANCH 5 6
BRANCH 5 10
ATOM     10  CB  LYS B   1      27.871  13.253  -9.256  1.00 69.57 LIG 0.04  C 
BRANCH 10 11
ATOM     11  CG  LYS B   1      27.964  13.542 -10.751  1.00 69.38 LIG 0.00  C 
BRANCH 11 12
ATOM     12  CD  LYS B   1      26.620  13.935 -11.350  1.00 68.73 LIG 0.03  C 
BRANCH 12 13
ATOM     13  CE  LYS B   1      26.366  13.196 -12.654  1.00 68.60 LIG 0.23  C 
BRANCH 13 14
ATOM     14  NZ  LYS B   1      24.917  13.134 -12.995  1.00 68.55 LIG-0.08  N 
ATOM     15 HZ1  LYS B   1      24.756  12.404 -13.477  1.00 68.55 LIG 0.27  HD
ATOM     16 HZ2  LYS B   1      24.436  13.107 -12.247  1.00 68.55 LIG 0.27  HD
ATOM     17 HZ3  LYS B   1      24.691  13.855 -13.466  1.00 68.55 LIG 0.27  HD
ENDBRANCH 13 14
ENDBRANCH 12 13
ENDBRANCH 11 12
ENDBRANCH 10 11
ENDBRANCH 5 10
ENDBRANCH 1 5
BRANCH 3 18
ATOM     18  CA  ILE B   2      28.343   9.512  -6.106  1.00 70.34 LIG 0.18  C 
BRANCH 18 19
ATOM     19  CB  ILE B   2      29.877   9.773  -5.978  1.00 70.35 LIG 0.01  C 
ATOM     20  CG2 ILE B   2      30.515  10.143  -7.327  1.00 70.46 LIG 0.01  C 
BRANCH 19 21
ATOM     21  CG1 ILE B   2      30.158  10.855  -4.921  1.00 70.36 LIG 0.00  C 
ATOM     22  CD1 ILE B   2      30.693  10.353  -3.579  1.00 70.48 LIG 0.01  C 
ENDBRANCH 19 21
ENDBRANCH 18 19
BRANCH 18 23
ATOM     23  C   ILE B   2      27.586  10.004  -4.875  1.00 70.53 LIG 0.24  C 
ATOM     24 O    ILE B   2      27.156  11.160  -4.817  1.00 70.63 LIG-0.27  OA
ATOM     25  N   ALA B   3      27.418   9.108  -3.904  1.00 70.71 LIG-0.35  N 
ATOM     26 H    ALA B   3      27.683   8.292  -3.960  1.00 70.71 LIG 0.16  HD
BRANCH 25 27
ATOM     27  CA  ALA B   3      26.762   9.432  -2.639  1.00 70.82 LIG 0.16  C 
ATOM     28  CB  ALA B   3      25.421  10.108  -2.893  1.00 70.79 LIG 0.04  C 
BRANCH 27 29
ATOM     29  C   ALA B   3      26.580   8.183  -1.779  1.00 70.87 LIG 0.22  C 
ATOM     30 O    ALA B   3      26.235   7.111  -2.283  1.00 70.95 LIG-0.29  OA
ENDBRANCH 27 29
ENDBRANCH 25 27
ENDBRANCH 18 23
ENDBRANCH 3 18
TORSDOF 13
ENDMDL
MODEL 13
USER: ADFR SOLUTION from run 194
USER: SCORE 13.420632 LL:  -0.987 LR: -13.089 RR:   0.000 FEB:  -9.211
USER: RMSD 3.825888
USER: SEED 193
USER: STATUS searching
USER: GENES 15
USER: genes 0 Translation |==|  0.45482 0.46938 0.49613
USER: genes 1 Rotation |==|  0.34047 0.50981 0.29721 0.92817
USER: genes 2 Torsion [N]-C--CA-[N] |==|  0.13236
USER: genes 3 Torsion [C]-CA--N-[H3] |==|  0.57043
USER: genes 4 Torsion [C]-CA--CB-[CG] |==|  0.67031
USER: genes 5 Torsion [CA]-CB--CG-[CD] |==|  0.34881
USER: genes 6 Torsion [CB]-CG--CD-[CE] |==|  0.51573
USER: genes 7 Torsion [CG]-CD--CE-[NZ] |==|  0.96749
USER: genes 8 Torsion [CD]-CE--NZ-[HZ3] |==|  0.19083
USER: genes 9 Torsion [C]-N--CA-[CB] |==|  0.23738
USER: genes 10 Torsion [N]-CA--CB-[CG2] |==|  0.79807
USER: genes 11 Torsion [CA]-CB--CG1-[CD1] |==|  0.26066
USER: genes 12 Torsion [N]-CA--C-[N] |==|  0.95556
USER: genes 13 Torsion [C]-N--CA-[CB] |==|  0.84574
USER: genes 14 Torsion [N]-CA--C-[O] |==|  0.29982
ROOT
ATOM      1  C   LYS B   1      28.494  10.465  -8.948  1.00 69.77 LIG 0.25  C 
ATOM      2 O    LYS B   1      29.460  11.215  -9.072  1.00 69.73 LIG-0.27  OA
ATOM      3  N   ILE B   2      28.109   9.955  -7.780  1.00 70.01 LIG-0.35  N 
ATOM      4 H    ILE B   2      27.409   9.464  -7.682  1.00 70.01 LIG 0.16  HD
ENDROOT
BRANCH 1 5
ATOM      5  CA  LYS B   1      27.661  10.076 -10.160  1.00 69.63 LIG 0.27  C 
BRANCH 5 6
ATOM      6  N   LYS B   1      26.207  10.240  -9.873  1.00 69.58 LIG-0.07  N 
ATOM      7 H3   LYS B   1      25.737   9.695 -10.398  1.00 69.58 LIG 0.28  HD
ATOM      8 H2   LYS B   1      25.966  11.082 -10.031  1.00 69.58 LIG 0.28  HD
ATOM      9 H1   LYS B   1      26.048  10.040  -9.021  1.00 69.58 LIG 0.28  HD
ENDBRANCH 5 6
BRANCH 5 10
ATOM     10  CB  LYS B   1      28.073  10.918 -11.374  1.00 69.57 LIG 0.04  C 
BRANCH 10 11
ATOM     11  CG  LYS B   1      26.968  11.795 -11.955  1.00 69.38 LIG 0.00  C 
BRANCH 11 12
ATOM     12  CD  LYS B   1      27.378  13.258 -12.048  1.00 68.73 LIG 0.03  C 
BRANCH 12 13
ATOM     13  CE  LYS B   1      26.213  14.125 -12.498  1.00 68.60 LIG 0.23  C 
BRANCH 13 14
ATOM     14  NZ  LYS B   1      25.067  13.316 -12.998  1.00 68.55 LIG-0.08  N 
ATOM     15 HZ1  LYS B   1      24.462  13.853 -13.366  1.00 68.55 LIG 0.27  HD
ATOM     16 HZ2  LYS B   1      25.356  12.735 -13.607  1.00 68.55 LIG 0.27  HD
ATOM     17 HZ3  LYS B   1      24.696  12.874 -12.320  1.00 68.55 LIG 0.27  HD
ENDBRANCH 13 14
ENDBRANCH 12 13
ENDBRANCH 11 12
ENDBRANCH 10 11
ENDBRANCH 5 10
ENDBRANCH 1 5
BRANCH 3 18
ATOM     18  CA  ILE B   2      28.853  10.188  -6.545  1.00 70.34 LIG 0.18  C 
BRANCH 18 19
ATOM     19  CB  ILE B   2      28.431  11.526  -5.860  1.00 70.35 LIG 0.01  C 
ATOM     20  CG2 ILE B   2      28.955  12.755  -6.621  1.00 70.46 LIG 0.01  C 
BRANCH 19 21
ATOM     21  CG1 ILE B   2      26.904  11.593  -5.692  1.00 70.36 LIG 0.00  C 
ATOM     22  CD1 ILE B   2      26.359  11.109  -4.347  1.00 70.48 LIG 0.01  C 
ENDBRANCH 19 21
ENDBRANCH 18 19
BRANCH 18 23
ATOM     23  C   ILE B   2      28.708   9.002  -5.595  1.00 70.53 LIG 0.24  C 
ATOM     24 O    ILE B   2      29.467   8.869  -4.630  1.00 70.63 LIG-0.27  OA
ATOM     25  N   ALA B   3      27.715   8.158  -5.871  1.00 70.71 LIG-0.35  N 
ATOM     26 H    ALA B   3      27.162   8.272  -6.519  1.00 70.71 LIG 0.16  HD
BRANCH 25 27
ATOM     27  CA  ALA B   3      27.473   6.947  -5.091  1.00 70.82 LIG 0.16  C 
ATOM     28  CB  ALA B   3      28.725   6.082  -5.047  1.00 70.79 LIG 0.04  C 
BRANCH 27 29
ATOM     29  C   ALA B   3      27.007   7.289  -3.677  1.00 70.87 LIG 0.22  C 
ATOM     30 O    ALA B   3      25.837   7.104  -3.332  1.00 70.95 LIG-0.29  OA
ENDBRANCH 27 29
ENDBRANCH 25 27
ENDBRANCH 18 23
ENDBRANCH 3 18
TORSDOF 13
ENDMDL
MODEL 14
USER: ADFR SOLUTION from run 21
USER: SCORE 13.502083 LL:  -0.970 LR: -13.046 RR:   0.000 FEB:  -9.168
USER: RMSD 3.631122
USER: SEED 20
USER: STATUS no improvement in best in 10 clusters for 5 generations
USER: GENES 15
USER: genes 0 Translation |==|  0.45687 0.46044 0.49434
USER: genes 1 Rotation |==|  0.33984 0.55227 0.29193 0.92228
USER: genes 2 Torsion [N]-C--CA-[N] |==|  0.18248
USER: genes 3 Torsion [C]-CA--N-[H3] |==|  0.57998
USER: genes 4 Torsion [C]-CA--CB-[CG] |==|  0.52613
USER: genes 5 Torsion [CA]-CB--CG-[CD] |==|  0.83452
USER: genes 6 Torsion [CB]-CG--CD-[CE] |==|  0.79558
USER: genes 7 Torsion [CG]-CD--CE-[NZ] |==|  0.27146
USER: genes 8 Torsion [CD]-CE--NZ-[HZ3] |==|  0.11664
USER: genes 9 Torsion [C]-N--CA-[CB] |==|  0.21059
USER: genes 10 Torsion [N]-CA--CB-[CG2] |==|  0.72707
USER: genes 11 Torsion [CA]-CB--CG1-[CD1] |==|  0.17692
USER: genes 12 Torsion [N]-CA--C-[N] |==|  0.97783
USER: genes 13 Torsion [C]-N--CA-[CB] |==|  0.85762
USER: genes 14 Torsion [N]-CA--C-[O] |==|  0.34586
ROOT
ATOM      1  C   LYS B   1      28.527  10.351  -8.985  1.00 69.77 LIG 0.25  C 
ATOM      2 O    LYS B   1      29.526  11.031  -9.205  1.00 69.73 LIG-0.27  OA
ATOM      3  N   ILE B   2      28.263   9.798  -7.802  1.00 70.01 LIG-0.35  N 
ATOM      4 H    ILE B   2      27.544   9.358  -7.632  1.00 70.01 LIG 0.16  HD
ENDROOT
BRANCH 1 5
ATOM      5  CA  LYS B   1      27.504  10.106 -10.084  1.00 69.63 LIG 0.27  C 
BRANCH 5 6
ATOM      6  N   LYS B   1      26.206  10.760  -9.751  1.00 69.58 LIG-0.07  N 
ATOM      7 H3   LYS B   1      25.539  10.305 -10.128  1.00 69.58 LIG 0.28  HD
ATOM      8 H2   LYS B   1      26.206  11.595 -10.060  1.00 69.58 LIG 0.28  HD
ATOM      9 H1   LYS B   1      26.097  10.769  -8.869  1.00 69.58 LIG 0.28  HD
ENDBRANCH 5 6
BRANCH 5 10
ATOM     10  CB  LYS B   1      28.042  10.620 -11.426  1.00 69.57 LIG 0.04  C 
BRANCH 10 11
ATOM     11  CG  LYS B   1      27.025  10.638 -12.563  1.00 69.38 LIG 0.00  C 
BRANCH 11 12
ATOM     12  CD  LYS B   1      26.462   9.255 -12.859  1.00 68.73 LIG 0.03  C 
BRANCH 12 13
ATOM     13  CE  LYS B   1      27.487   8.388 -13.572  1.00 68.60 LIG 0.23  C 
BRANCH 13 14
ATOM     14  NZ  LYS B   1      28.207   7.480 -12.637  1.00 68.55 LIG-0.08  N 
ATOM     15 HZ1  LYS B   1      28.593   6.825 -13.097  1.00 68.55 LIG 0.27  HD
ATOM     16 HZ2  LYS B   1      28.830   7.939 -12.197  1.00 68.55 LIG 0.27  HD
ATOM     17 HZ3  LYS B   1      27.630   7.133 -12.055  1.00 68.55 LIG 0.27  HD
ENDBRANCH 13 14
ENDBRANCH 12 13
ENDBRANCH 11 12
ENDBRANCH 10 11
ENDBRANCH 5 10
ENDBRANCH 1 5
BRANCH 3 18
ATOM     18  CA  ILE B   2      29.187   9.893  -6.675  1.00 70.34 LIG 0.18  C 
BRANCH 18 19
ATOM     19  CB  ILE B   2      29.149  11.307  -6.014  1.00 70.35 LIG 0.01  C 
ATOM     20  CG2 ILE B   2      30.295  12.206  -6.506  1.00 70.46 LIG 0.01  C 
BRANCH 19 21
ATOM     21  CG1 ILE B   2      27.785  11.980  -6.245  1.00 70.36 LIG 0.00  C 
ATOM     22  CD1 ILE B   2      26.581  11.282  -5.610  1.00 70.48 LIG 0.01  C 
ENDBRANCH 19 21
ENDBRANCH 18 19
BRANCH 18 23
ATOM     23  C   ILE B   2      28.910   8.792  -5.655  1.00 70.53 LIG 0.24  C 
ATOM     24 O    ILE B   2      29.664   8.616  -4.693  1.00 70.63 LIG-0.27  OA
ATOM     25  N   ALA B   3      27.813   8.067  -5.870  1.00 70.71 LIG-0.35  N 
ATOM     26 H    ALA B   3      27.266   8.215  -6.517  1.00 70.71 LIG 0.16  HD
BRANCH 25 27
ATOM     27  CA  ALA B   3      27.433   6.943  -5.017  1.00 70.82 LIG 0.16  C 
ATOM     28  CB  ALA B   3      28.602   5.981  -4.853  1.00 70.79 LIG 0.04  C 
BRANCH 27 29
ATOM     29  C   ALA B   3      26.942   7.429  -3.655  1.00 70.87 LIG 0.22  C 
ATOM     30 O    ALA B   3      25.831   7.105  -3.229  1.00 70.95 LIG-0.29  OA
ENDBRANCH 27 29
ENDBRANCH 25 27
ENDBRANCH 18 23
ENDBRANCH 3 18
TORSDOF 13
ENDMDL
MODEL 15
USER: ADFR SOLUTION from run 130
USER: SCORE 13.520032 LL:  -0.989 LR: -12.796 RR:   0.000 FEB:  -8.918
USER: RMSD 3.866819
USER: SEED 129
USER: STATUS searching
USER: GENES 15
USER: genes 0 Translation |==|  0.38014 0.51931 0.56776
USER: genes 1 Rotation |==|  0.56252 0.53009 0.55255 0.99237
USER: genes 2 Torsion [N]-C--CA-[N] |==|  0.48932
USER: genes 3 Torsion [C]-CA--N-[H3] |==|  0.73093
USER: genes 4 Torsion [C]-CA--CB-[CG] |==|  0.38523
USER: genes 5 Torsion [CA]-CB--CG-[CD] |==|  0.34019
USER: genes 6 Torsion [CB]-CG--CD-[CE] |==|  0.63723
USER: genes 7 Torsion [CG]-CD--CE-[NZ] |==|  0.33231
USER: genes 8 Torsion [CD]-CE--NZ-[HZ3] |==|  0.18831
USER: genes 9 Torsion [C]-N--CA-[CB] |==|  0.77606
USER: genes 10 Torsion [N]-CA--CB-[CG2] |==|  0.18288
USER: genes 11 Torsion [CA]-CB--CG1-[CD1] |==|  0.62634
USER: genes 12 Torsion [N]-CA--C-[N] |==|  0.18333
USER: genes 13 Torsion [C]-N--CA-[CB] |==|  0.80940
USER: genes 14 Torsion [N]-CA--C-[O] |==|  0.09821
ROOT
ATOM      1  C   LYS B   1      27.318  11.101  -7.498  1.00 69.77 LIG 0.25  C 
ATOM      2 O    LYS B   1      27.281  12.006  -6.667  1.00 69.73 LIG-0.27  OA
ATOM      3  N   ILE B   2      27.974   9.958  -7.306  1.00 70.01 LIG-0.35  N 
ATOM      4 H    ILE B   2      27.967   9.305  -7.867  1.00 70.01 LIG 0.16  HD
ENDROOT
BRANCH 1 5
ATOM      5  CA  LYS B   1      26.586  11.243  -8.824  1.00 69.63 LIG 0.27  C 
BRANCH 5 6
ATOM      6  N   LYS B   1      25.822  12.522  -8.870  1.00 69.58 LIG-0.07  N 
ATOM      7 H3   LYS B   1      24.974  12.370  -8.646  1.00 69.58 LIG 0.28  HD
ATOM      8 H2   LYS B   1      25.855  12.858  -9.694  1.00 69.58 LIG 0.28  HD
ATOM      9 H1   LYS B   1      26.180  13.102  -8.299  1.00 69.58 LIG 0.28  HD
ENDBRANCH 5 6
BRANCH 5 10
ATOM     10  CB  LYS B   1      27.584  11.163  -9.986  1.00 69.57 LIG 0.04  C 
BRANCH 10 11
ATOM     11  CG  LYS B   1      27.111  10.347 -11.186  1.00 69.38 LIG 0.00  C 
BRANCH 11 12
ATOM     12  CD  LYS B   1      27.105  11.159 -12.474  1.00 68.73 LIG 0.03  C 
BRANCH 12 13
ATOM     13  CE  LYS B   1      25.780  11.015 -13.204  1.00 68.60 LIG 0.23  C 
BRANCH 13 14
ATOM     14  NZ  LYS B   1      25.081  12.320 -13.370  1.00 68.55 LIG-0.08  N 
ATOM     15 HZ1  LYS B   1      24.266  12.180 -13.698  1.00 68.55 LIG 0.27  HD
ATOM     16 HZ2  LYS B   1      25.017  12.725 -12.581  1.00 68.55 LIG 0.27  HD
ATOM     17 HZ3  LYS B   1      25.542  12.835 -13.931  1.00 68.55 LIG 0.27  HD
ENDBRANCH 13 14
ENDBRANCH 12 13
ENDBRANCH 11 12
ENDBRANCH 10 11
ENDBRANCH 5 10
ENDBRANCH 1 5
BRANCH 3 18
ATOM     18  CA  ILE B   2      28.775   9.711  -6.110  1.00 70.34 LIG 0.18  C 
BRANCH 18 19
ATOM     19  CB  ILE B   2      30.183  10.377  -6.210  1.00 70.35 LIG 0.01  C 
ATOM     20  CG2 ILE B   2      30.097  11.912  -6.235  1.00 70.46 LIG 0.01  C 
BRANCH 19 21
ATOM     21  CG1 ILE B   2      31.095   9.896  -5.068  1.00 70.36 LIG 0.00  C 
ATOM     22  CD1 ILE B   2      31.894  10.983  -4.348  1.00 70.48 LIG 0.01  C 
ENDBRANCH 19 21
ENDBRANCH 18 19
BRANCH 18 23
ATOM     23  C   ILE B   2      28.029  10.164  -4.857  1.00 70.53 LIG 0.24  C 
ATOM     24 O    ILE B   2      28.440  11.115  -4.186  1.00 70.63 LIG-0.27  OA
ATOM     25  N   ALA B   3      26.922   9.483  -4.565  1.00 70.71 LIG-0.35  N 
ATOM     26 H    ALA B   3      26.614   8.847  -5.054  1.00 70.71 LIG 0.16  HD
BRANCH 25 27
ATOM     27  CA  ALA B   3      26.122   9.756  -3.373  1.00 70.82 LIG 0.16  C 
ATOM     28  CB  ALA B   3      26.884   9.355  -2.117  1.00 70.79 LIG 0.04  C 
BRANCH 27 29
ATOM     29  C   ALA B   3      25.718  11.228  -3.310  1.00 70.87 LIG 0.22  C 
ATOM     30 O    ALA B   3      25.458  11.859  -4.337  1.00 70.95 LIG-0.29  OA
ENDBRANCH 27 29
ENDBRANCH 25 27
ENDBRANCH 18 23
ENDBRANCH 3 18
TORSDOF 13
ENDMDL
MODEL 16
USER: ADFR SOLUTION from run 20
USER: SCORE 13.097936 LL:  -1.061 LR: -12.650 RR:   0.000 FEB:  -8.772
USER: RMSD 2.373377
USER: SEED 19
USER: STATUS no improvement in best in 13 clusters for 5 generations
USER: GENES 15
USER: genes 0 Translation |==|  0.36944 0.49325 0.56856
USER: genes 1 Rotation |==|  0.34371 0.53398 0.06450 0.68644
USER: genes 2 Torsion [N]-C--CA-[N] |==|  0.06238
USER: genes 3 Torsion [C]-CA--N-[H3] |==|  0.07637
USER: genes 4 Torsion [C]-CA--CB-[CG] |==|  0.42961
USER: genes 5 Torsion [CA]-CB--CG-[CD] |==|  0.81192
USER: genes 6 Torsion [CB]-CG--CD-[CE] |==|  0.60547
USER: genes 7 Torsion [CG]-CD--CE-[NZ] |==|  0.32841
USER: genes 8 Torsion [CD]-CE--NZ-[HZ3] |==|  0.81685
USER: genes 9 Torsion [C]-N--CA-[CB] |==|  0.78237
USER: genes 10 Torsion [N]-CA--CB-[CG2] |==|  0.23066
USER: genes 11 Torsion [CA]-CB--CG1-[CD1] |==|  0.10319
USER: genes 12 Torsion [N]-CA--C-[N] |==|  0.06667
USER: genes 13 Torsion [C]-N--CA-[CB] |==|  0.28296
USER: genes 14 Torsion [N]-CA--C-[O] |==|  0.00952
ROOT
ATOM      1  C   LYS B   1      27.150  10.769  -7.482  1.00 69.77 LIG 0.25  C 
ATOM      2 O    LYS B   1      28.105  10.006  -7.355  1.00 69.73 LIG-0.27  OA
ATOM      3  N   ILE B   2      26.579  11.404  -6.460  1.00 70.01 LIG-0.35  N 
ATOM      4 H    ILE B   2      25.939  11.972  -6.549  1.00 70.01 LIG 0.16  HD
ENDROOT
BRANCH 1 5
ATOM      5  CA  LYS B   1      26.559  11.041  -8.857  1.00 69.63 LIG 0.27  C 
BRANCH 5 6
ATOM      6  N   LYS B   1      25.831  12.342  -8.870  1.00 69.58 LIG-0.07  N 
ATOM      7 H3   LYS B   1      26.183  12.886  -8.259  1.00 69.58 LIG 0.28  HD
ATOM      8 H2   LYS B   1      24.972  12.203  -8.682  1.00 69.58 LIG 0.28  HD
ATOM      9 H1   LYS B   1      25.902  12.714  -9.675  1.00 69.58 LIG 0.28  HD
ENDBRANCH 5 6
BRANCH 5 10
ATOM     10  CB  LYS B   1      27.668  11.030  -9.917  1.00 69.57 LIG 0.04  C 
BRANCH 10 11
ATOM     11  CG  LYS B   1      27.205  10.686 -11.329  1.00 69.38 LIG 0.00  C 
BRANCH 11 12
ATOM     12  CD  LYS B   1      26.742   9.240 -11.452  1.00 68.73 LIG 0.03  C 
BRANCH 12 13
ATOM     13  CE  LYS B   1      27.161   8.643 -12.785  1.00 68.60 LIG 0.23  C 
BRANCH 13 14
ATOM     14  NZ  LYS B   1      28.077   7.480 -12.620  1.00 68.55 LIG-0.08  N 
ATOM     15 HZ1  LYS B   1      27.703   6.882 -12.079  1.00 68.55 LIG 0.27  HD
ATOM     16 HZ2  LYS B   1      28.230   7.107 -13.413  1.00 68.55 LIG 0.27  HD
ATOM     17 HZ3  LYS B   1      28.848   7.756 -12.269  1.00 68.55 LIG 0.27  HD
ENDBRANCH 13 14
ENDBRANCH 12 13
ENDBRANCH 11 12
ENDBRANCH 10 11
ENDBRANCH 5 10
ENDBRANCH 1 5
BRANCH 3 18
ATOM     18  CA  ILE B   2      26.998  11.188  -5.077  1.00 70.34 LIG 0.18  C 
BRANCH 18 19
ATOM     19  CB  ILE B   2      26.416   9.860  -4.498  1.00 70.35 LIG 0.01  C 
ATOM     20  CG2 ILE B   2      27.263   8.639  -4.889  1.00 70.46 LIG 0.01  C 
BRANCH 19 21
ATOM     21  CG1 ILE B   2      26.259   9.956  -2.971  1.00 70.36 LIG 0.00  C 
ATOM     22  CD1 ILE B   2      25.815  11.315  -2.429  1.00 70.48 LIG 0.01  C 
ENDBRANCH 19 21
ENDBRANCH 18 19
BRANCH 18 23
ATOM     23  C   ILE B   2      28.520  11.230  -4.960  1.00 70.53 LIG 0.24  C 
ATOM     24 O    ILE B   2      29.099  10.647  -4.039  1.00 70.63 LIG-0.27  OA
ATOM     25  N   ALA B   3      29.154  11.912  -5.913  1.00 70.71 LIG-0.35  N 
ATOM     26 H    ALA B   3      28.754  12.284  -6.576  1.00 70.71 LIG 0.16  HD
BRANCH 25 27
ATOM     27  CA  ALA B   3      30.604  12.091  -5.918  1.00 70.82 LIG 0.16  C 
ATOM     28  CB  ALA B   3      31.255  11.139  -6.913  1.00 70.79 LIG 0.04  C 
BRANCH 27 29
ATOM     29  C   ALA B   3      30.976  13.538  -6.237  1.00 70.87 LIG 0.22  C 
ATOM     30 O    ALA B   3      30.106  14.399  -6.388  1.00 70.95 LIG-0.29  OA
ENDBRANCH 27 29
ENDBRANCH 25 27
ENDBRANCH 18 23
ENDBRANCH 3 18
TORSDOF 13
ENDMDL
MODEL 17
USER: ADFR SOLUTION from run 114
USER: SCORE 13.008181 LL:  -0.992 LR: -12.599 RR:   0.000 FEB:  -8.722
USER: RMSD 3.786260
USER: SEED 113
USER: STATUS no improvement in best in 16 clusters for 5 generations
USER: GENES 15
USER: genes 0 Translation |==|  0.40201 0.52608 0.57025
USER: genes 1 Rotation |==|  0.56223 0.58577 0.68077 0.95398
USER: genes 2 Torsion [N]-C--CA-[N] |==|  0.49361
USER: genes 3 Torsion [C]-CA--N-[H3] |==|  0.67055
USER: genes 4 Torsion [C]-CA--CB-[CG] |==|  0.40700
USER: genes 5 Torsion [CA]-CB--CG-[CD] |==|  0.40685
USER: genes 6 Torsion [CB]-CG--CD-[CE] |==|  0.65556
USER: genes 7 Torsion [CG]-CD--CE-[NZ] |==|  0.33451
USER: genes 8 Torsion [CD]-CE--NZ-[HZ3] |==|  0.82795
USER: genes 9 Torsion [C]-N--CA-[CB] |==|  0.85496
USER: genes 10 Torsion [N]-CA--CB-[CG2] |==|  0.56375
USER: genes 11 Torsion [CA]-CB--CG1-[CD1] |==|  0.37613
USER: genes 12 Torsion [N]-CA--C-[N] |==|  0.97194
USER: genes 13 Torsion [C]-N--CA-[CB] |==|  0.29756
USER: genes 14 Torsion [N]-CA--C-[O] |==|  0.54294
ROOT
ATOM      1  C   LYS B   1      27.663  11.188  -7.447  1.00 69.77 LIG 0.25  C 
ATOM      2 O    LYS B   1      27.294  11.953  -6.560  1.00 69.73 LIG-0.27  OA
ATOM      3  N   ILE B   2      28.841  10.568  -7.437  1.00 70.01 LIG-0.35  N 
ATOM      4 H    ILE B   2      29.085   9.998  -8.034  1.00 70.01 LIG 0.16  HD
ENDROOT
BRANCH 1 5
ATOM      5  CA  LYS B   1      26.759  10.893  -8.635  1.00 69.63 LIG 0.27  C 
BRANCH 5 6
ATOM      6  N   LYS B   1      25.456  11.605  -8.495  1.00 69.58 LIG-0.07  N 
ATOM      7 H3   LYS B   1      24.794  11.010  -8.460  1.00 69.58 LIG 0.28  HD
ATOM      8 H2   LYS B   1      25.334  12.142  -9.194  1.00 69.58 LIG 0.28  HD
ATOM      9 H1   LYS B   1      25.460  12.087  -7.747  1.00 69.58 LIG 0.28  HD
ENDBRANCH 5 6
BRANCH 5 10
ATOM     10  CB  LYS B   1      27.458  11.294  -9.940  1.00 69.57 LIG 0.04  C 
BRANCH 10 11
ATOM     11  CG  LYS B   1      27.129  10.415 -11.143  1.00 69.38 LIG 0.00  C 
BRANCH 11 12
ATOM     12  CD  LYS B   1      27.116  11.199 -12.448  1.00 68.73 LIG 0.03  C 
BRANCH 12 13
ATOM     13  CE  LYS B   1      25.785  11.045 -13.165  1.00 68.60 LIG 0.23  C 
BRANCH 13 14
ATOM     14  NZ  LYS B   1      25.098  12.351 -13.370  1.00 68.55 LIG-0.08  N 
ATOM     15 HZ1  LYS B   1      25.626  12.894 -13.836  1.00 68.55 LIG 0.27  HD
ATOM     16 HZ2  LYS B   1      24.339  12.221 -13.816  1.00 68.55 LIG 0.27  HD
ATOM     17 HZ3  LYS B   1      24.918  12.719 -12.580  1.00 68.55 LIG 0.27  HD
ENDBRANCH 13 14
ENDBRANCH 12 13
ENDBRANCH 11 12
ENDBRANCH 10 11
ENDBRANCH 5 10
ENDBRANCH 1 5
BRANCH 3 18
ATOM     18  CA  ILE B   2      29.836  10.805  -6.395  1.00 70.34 LIG 0.18  C 
BRANCH 18 19
ATOM     19  CB  ILE B   2      30.134  12.328  -6.216  1.00 70.35 LIG 0.01  C 
ATOM     20  CG2 ILE B   2      31.512  12.576  -5.581  1.00 70.46 LIG 0.01  C 
BRANCH 19 21
ATOM     21  CG1 ILE B   2      30.005  13.068  -7.558  1.00 70.36 LIG 0.00  C 
ATOM     22  CD1 ILE B   2      29.244  14.395  -7.517  1.00 70.48 LIG 0.01  C 
ENDBRANCH 19 21
ENDBRANCH 18 19
BRANCH 18 23
ATOM     23  C   ILE B   2      29.406  10.161  -5.079  1.00 70.53 LIG 0.24  C 
ATOM     24 O    ILE B   2      30.183  10.100  -4.122  1.00 70.63 LIG-0.27  OA
ATOM     25  N   ALA B   3      28.157   9.701  -5.042  1.00 70.71 LIG-0.35  N 
ATOM     26 H    ALA B   3      27.603   9.779  -5.695  1.00 70.71 LIG 0.16  HD
BRANCH 25 27
ATOM     27  CA  ALA B   3      27.606   9.012  -3.878  1.00 70.82 LIG 0.16  C 
ATOM     28  CB  ALA B   3      26.614   9.908  -3.148  1.00 70.79 LIG 0.04  C 
BRANCH 27 29
ATOM     29  C   ALA B   3      26.945   7.695  -4.281  1.00 70.87 LIG 0.22  C 
ATOM     30 O    ALA B   3      26.184   7.105  -3.510  1.00 70.95 LIG-0.29  OA
ENDBRANCH 27 29
ENDBRANCH 25 27
ENDBRANCH 18 23
ENDBRANCH 3 18
TORSDOF 13
ENDMDL
MODEL 18
USER: ADFR SOLUTION from run 200
USER: SCORE 12.942142 LL:  -1.408 LR: -12.502 RR:   0.000 FEB:  -8.624
USER: RMSD 1.893722
USER: SEED 199
USER: STATUS searching
USER: GENES 15
USER: genes 0 Translation |==|  0.38665 0.53279 0.57487
USER: genes 1 Rotation |==|  0.46741 0.53862 0.46633 0.99630
USER: genes 2 Torsion [N]-C--CA-[N] |==|  0.41309
USER: genes 3 Torsion [C]-CA--N-[H3] |==|  0.34402
USER: genes 4 Torsion [C]-CA--CB-[CG] |==|  0.48290
USER: genes 5 Torsion [CA]-CB--CG-[CD] |==|  0.76319
USER: genes 6 Torsion [CB]-CG--CD-[CE] |==|  0.63155
USER: genes 7 Torsion [CG]-CD--CE-[NZ] |==|  0.35269
USER: genes 8 Torsion [CD]-CE--NZ-[HZ3] |==|  0.12335
USER: genes 9 Torsion [C]-N--CA-[CB] |==|  0.46112
USER: genes 10 Torsion [N]-CA--CB-[CG2] |==|  0.53659
USER: genes 11 Torsion [CA]-CB--CG1-[CD1] |==|  0.42109
USER: genes 12 Torsion [N]-CA--C-[N] |==|  0.41722
USER: genes 13 Torsion [C]-N--CA-[CB] |==|  0.83899
USER: genes 14 Torsion [N]-CA--C-[O] |==|  0.07826
ROOT
ATOM      1  C   LYS B   1      27.421  11.273  -7.354  1.00 69.77 LIG 0.25  C 
ATOM      2 O    LYS B   1      27.735  12.390  -6.947  1.00 69.73 LIG-0.27  OA
ATOM      3  N   ILE B   2      27.723  10.148  -6.710  1.00 70.01 LIG-0.35  N 
ATOM      4 H    ILE B   2      27.469   9.368  -6.968  1.00 70.01 LIG 0.16  HD
ENDROOT
BRANCH 1 5
ATOM      5  CA  LYS B   1      26.638  11.117  -8.649  1.00 69.63 LIG 0.27  C 
BRANCH 5 6
ATOM      6  N   LYS B   1      25.746  12.291  -8.870  1.00 69.58 LIG-0.07  N 
ATOM      7 H3   LYS B   1      25.927  12.658  -9.661  1.00 69.58 LIG 0.28  HD
ATOM      8 H2   LYS B   1      25.881  12.892  -8.228  1.00 69.58 LIG 0.28  HD
ATOM      9 H1   LYS B   1      24.897  12.026  -8.854  1.00 69.58 LIG 0.28  HD
ENDBRANCH 5 6
BRANCH 5 10
ATOM     10  CB  LYS B   1      27.602  10.938  -9.828  1.00 69.57 LIG 0.04  C 
BRANCH 10 11
ATOM     11  CG  LYS B   1      26.935  10.624 -11.164  1.00 69.38 LIG 0.00  C 
BRANCH 11 12
ATOM     12  CD  LYS B   1      26.663   9.137 -11.341  1.00 68.73 LIG 0.03  C 
BRANCH 12 13
ATOM     13  CE  LYS B   1      27.120   8.656 -12.709  1.00 68.60 LIG 0.23  C 
BRANCH 13 14
ATOM     14  NZ  LYS B   1      28.029   7.480 -12.620  1.00 68.55 LIG-0.08  N 
ATOM     15 HZ1  LYS B   1      28.093   7.093 -13.418  1.00 68.55 LIG 0.27  HD
ATOM     16 HZ2  LYS B   1      28.836   7.747 -12.356  1.00 68.55 LIG 0.27  HD
ATOM     17 HZ3  LYS B   1      27.703   6.896 -12.033  1.00 68.55 LIG 0.27  HD
ENDBRANCH 13 14
ENDBRANCH 12 13
ENDBRANCH 11 12
ENDBRANCH 10 11
ENDBRANCH 5 10
ENDBRANCH 1 5
BRANCH 3 18
ATOM     18  CA  ILE B   2      28.528  10.141  -5.491  1.00 70.34 LIG 0.18  C 
BRANCH 18 19
ATOM     19  CB  ILE B   2      28.444   8.768  -4.751  1.00 70.35 LIG 0.01  C 
ATOM     20  CG2 ILE B   2      29.009   8.846  -3.323  1.00 70.46 LIG 0.01  C 
BRANCH 19 21
ATOM     21  CG1 ILE B   2      27.000   8.241  -4.744  1.00 70.36 LIG 0.00  C 
ATOM     22  CD1 ILE B   2      26.844   6.720  -4.695  1.00 70.48 LIG 0.01  C 
ENDBRANCH 19 21
ENDBRANCH 18 19
BRANCH 18 23
ATOM     23  C   ILE B   2      29.973  10.526  -5.794  1.00 70.53 LIG 0.24  C 
ATOM     24 O    ILE B   2      30.474  10.284  -6.897  1.00 70.63 LIG-0.27  OA
ATOM     25  N   ALA B   3      30.627  11.141  -4.810  1.00 70.71 LIG-0.35  N 
ATOM     26 H    ALA B   3      30.266  11.345  -4.056  1.00 70.71 LIG 0.16  HD
BRANCH 25 27
ATOM     27  CA  ALA B   3      32.031  11.529  -4.920  1.00 70.82 LIG 0.16  C 
ATOM     28  CB  ALA B   3      32.899  10.312  -5.211  1.00 70.79 LIG 0.04  C 
BRANCH 27 29
ATOM     29  C   ALA B   3      32.222  12.595  -5.997  1.00 70.87 LIG 0.22  C 
ATOM     30 O    ALA B   3      31.315  13.381  -6.281  1.00 70.95 LIG-0.29  OA
ENDBRANCH 27 29
ENDBRANCH 25 27
ENDBRANCH 18 23
ENDBRANCH 3 18
TORSDOF 13
ENDMDL
MODEL 19
USER: ADFR SOLUTION from run 185
USER: SCORE 12.730834 LL:  -0.655 LR: -12.457 RR:   0.000 FEB:  -8.579
USER: RMSD 4.610884
USER: SEED 184
USER: STATUS no improvement in best in 13 clusters for 5 generations
USER: GENES 15
USER: genes 0 Translation |==|  0.42672 0.45032 0.42856
USER: genes 1 Rotation |==|  0.25613 0.45217 0.29003 0.87968
USER: genes 2 Torsion [N]-C--CA-[N] |==|  0.08438
USER: genes 3 Torsion [C]-CA--N-[H3] |==|  0.17937
USER: genes 4 Torsion [C]-CA--CB-[CG] |==|  0.58166
USER: genes 5 Torsion [CA]-CB--CG-[CD] |==|  0.29017
USER: genes 6 Torsion [CB]-CG--CD-[CE] |==|  0.99374
USER: genes 7 Torsion [CG]-CD--CE-[NZ] |==|  0.55378
USER: genes 8 Torsion [CD]-CE--NZ-[HZ3] |==|  0.05580
USER: genes 9 Torsion [C]-N--CA-[CB] |==|  0.14298
USER: genes 10 Torsion [N]-CA--CB-[CG2] |==|  0.14253
USER: genes 11 Torsion [CA]-CB--CG1-[CD1] |==|  0.54290
USER: genes 12 Torsion [N]-CA--C-[N] |==|  0.17777
USER: genes 13 Torsion [C]-N--CA-[CB] |==|  0.52614
USER: genes 14 Torsion [N]-CA--C-[O] |==|  0.36516
ROOT
ATOM      1  C   LYS B   1      28.052  10.222 -10.317  1.00 69.77 LIG 0.25  C 
ATOM      2 O    LYS B   1      29.050  10.837 -10.686  1.00 69.73 LIG-0.27  OA
ATOM      3  N   ILE B   2      27.579  10.273  -9.073  1.00 70.01 LIG-0.35  N 
ATOM      4 H    ILE B   2      26.857   9.879  -8.821  1.00 70.01 LIG 0.16  HD
ENDROOT
BRANCH 1 5
ATOM      5  CA  LYS B   1      27.277   9.352 -11.296  1.00 69.63 LIG 0.27  C 
BRANCH 5 6
ATOM      6  N   LYS B   1      25.830   9.317 -10.938  1.00 69.58 LIG-0.07  N 
ATOM      7 H3   LYS B   1      25.482  10.132 -11.026  1.00 69.58 LIG 0.28  HD
ATOM      8 H2   LYS B   1      25.739   9.046 -10.095  1.00 69.58 LIG 0.28  HD
ATOM      9 H1   LYS B   1      25.405   8.753 -11.479  1.00 69.58 LIG 0.28  HD
ENDBRANCH 5 6
BRANCH 5 10
ATOM     10  CB  LYS B   1      27.471   9.870 -12.726  1.00 69.57 LIG 0.04  C 
BRANCH 10 11
ATOM     11  CG  LYS B   1      26.301   9.608 -13.670  1.00 69.38 LIG 0.00  C 
BRANCH 11 12
ATOM     12  CD  LYS B   1      25.476  10.860 -13.932  1.00 68.73 LIG 0.03  C 
BRANCH 12 13
ATOM     13  CE  LYS B   1      26.005  12.041 -13.135  1.00 68.60 LIG 0.23  C 
BRANCH 13 14
ATOM     14  NZ  LYS B   1      24.995  13.127 -12.995  1.00 68.55 LIG-0.08  N 
ATOM     15 HZ1  LYS B   1      25.035  13.466 -12.173  1.00 68.55 LIG 0.27  HD
ATOM     16 HZ2  LYS B   1      25.164  13.769 -13.588  1.00 68.55 LIG 0.27  HD
ATOM     17 HZ3  LYS B   1      24.181  12.797 -13.140  1.00 68.55 LIG 0.27  HD
ENDBRANCH 13 14
ENDBRANCH 12 13
ENDBRANCH 11 12
ENDBRANCH 10 11
ENDBRANCH 5 10
ENDBRANCH 1 5
BRANCH 3 18
ATOM     18  CA  ILE B   2      28.257  11.013  -8.012  1.00 70.34 LIG 0.18  C 
BRANCH 18 19
ATOM     19  CB  ILE B   2      28.571  12.481  -8.442  1.00 70.35 LIG 0.01  C 
ATOM     20  CG2 ILE B   2      27.329  13.200  -8.994  1.00 70.46 LIG 0.01  C 
BRANCH 19 21
ATOM     21  CG1 ILE B   2      29.189  13.269  -7.274  1.00 70.36 LIG 0.00  C 
ATOM     22  CD1 ILE B   2      29.206  14.791  -7.431  1.00 70.48 LIG 0.01  C 
ENDBRANCH 19 21
ENDBRANCH 18 19
BRANCH 18 23
ATOM     23  C   ILE B   2      27.446  10.969  -6.719  1.00 70.53 LIG 0.24  C 
ATOM     24 O    ILE B   2      26.964  12.000  -6.241  1.00 70.63 LIG-0.27  OA
ATOM     25  N   ALA B   3      27.292   9.764  -6.175  1.00 70.71 LIG-0.35  N 
ATOM     26 H    ALA B   3      27.594   9.041  -6.529  1.00 70.71 LIG 0.16  HD
BRANCH 25 27
ATOM     27  CA  ALA B   3      26.587   9.556  -4.912  1.00 70.82 LIG 0.16  C 
ATOM     28  CB  ALA B   3      26.771   8.123  -4.429  1.00 70.79 LIG 0.04  C 
BRANCH 27 29
ATOM     29  C   ALA B   3      27.063  10.545  -3.849  1.00 70.87 LIG 0.22  C 
ATOM     30 O    ALA B   3      26.255  11.188  -3.174  1.00 70.95 LIG-0.29  OA
ENDBRANCH 27 29
ENDBRANCH 25 27
ENDBRANCH 18 23
ENDBRANCH 3 18
TORSDOF 13
ENDMDL
MODEL 20
USER: ADFR SOLUTION from run 116
USER: SCORE 13.261636 LL:  -1.288 LR: -12.419 RR:   0.000 FEB:  -8.541
USER: RMSD 3.624445
USER: SEED 115
USER: STATUS no improvement in best in 13 clusters for 5 generations
USER: GENES 15
USER: genes 0 Translation |==|  0.41767 0.57256 0.56661
USER: genes 1 Rotation |==|  0.41144 0.60519 0.60003 0.97020
USER: genes 2 Torsion [N]-C--CA-[N] |==|  0.47728
USER: genes 3 Torsion [C]-CA--N-[H3] |==|  0.60704
USER: genes 4 Torsion [C]-CA--CB-[CG] |==|  0.50395
USER: genes 5 Torsion [CA]-CB--CG-[CD] |==|  0.41300
USER: genes 6 Torsion [CB]-CG--CD-[CE] |==|  0.42218
USER: genes 7 Torsion [CG]-CD--CE-[NZ] |==|  0.79631
USER: genes 8 Torsion [CD]-CE--NZ-[HZ3] |==|  0.95124
USER: genes 9 Torsion [C]-N--CA-[CB] |==|  0.53333
USER: genes 10 Torsion [N]-CA--CB-[CG2] |==|  0.45133
USER: genes 11 Torsion [CA]-CB--CG1-[CD1] |==|  0.91868
USER: genes 12 Torsion [N]-CA--C-[N] |==|  0.37496
USER: genes 13 Torsion [C]-N--CA-[CB] |==|  0.18500
USER: genes 14 Torsion [N]-CA--C-[O] |==|  0.92082
ROOT
ATOM      1  C   LYS B   1      27.909  11.780  -7.521  1.00 69.77 LIG 0.25  C 
ATOM      2 O    LYS B   1      27.685  12.975  -7.337  1.00 69.73 LIG-0.27  OA
ATOM      3  N   ILE B   2      28.912  11.125  -6.940  1.00 70.01 LIG-0.35  N 
ATOM      4 H    ILE B   2      29.047  10.281  -7.032  1.00 70.01 LIG 0.16  HD
ENDROOT
BRANCH 1 5
ATOM      5  CA  LYS B   1      27.018  10.963  -8.444  1.00 69.63 LIG 0.27  C 
BRANCH 5 6
ATOM      6  N   LYS B   1      25.831  11.758  -8.870  1.00 69.58 LIG-0.07  N 
ATOM      7 H3   LYS B   1      25.114  11.231  -8.896  1.00 69.58 LIG 0.28  HD
ATOM      8 H2   LYS B   1      25.976  12.099  -9.679  1.00 69.58 LIG 0.28  HD
ATOM      9 H1   LYS B   1      25.692  12.418  -8.290  1.00 69.58 LIG 0.28  HD
ENDBRANCH 5 6
BRANCH 5 10
ATOM     10  CB  LYS B   1      27.819  10.488  -9.663  1.00 69.57 LIG 0.04  C 
BRANCH 10 11
ATOM     11  CG  LYS B   1      27.020   9.682 -10.684  1.00 69.38 LIG 0.00  C 
BRANCH 11 12
ATOM     12  CD  LYS B   1      27.532   9.878 -12.105  1.00 68.73 LIG 0.03  C 
BRANCH 12 13
ATOM     13  CE  LYS B   1      27.251   8.654 -12.961  1.00 68.60 LIG 0.23  C 
BRANCH 13 14
ATOM     14  NZ  LYS B   1      28.142   7.510 -12.620  1.00 68.55 LIG-0.08  N 
ATOM     15 HZ1  LYS B   1      27.693   6.921 -12.127  1.00 68.55 LIG 0.27  HD
ATOM     16 HZ2  LYS B   1      28.421   7.118 -13.369  1.00 68.55 LIG 0.27  HD
ATOM     17 HZ3  LYS B   1      28.844   7.806 -12.161  1.00 68.55 LIG 0.27  HD
ENDBRANCH 13 14
ENDBRANCH 12 13
ENDBRANCH 11 12
ENDBRANCH 10 11
ENDBRANCH 5 10
ENDBRANCH 1 5
BRANCH 3 18
ATOM     18  CA  ILE B   2      29.886  11.796  -6.082  1.00 70.34 LIG 0.18  C 
BRANCH 18 19
ATOM     19  CB  ILE B   2      31.113  10.880  -5.775  1.00 70.35 LIG 0.01  C 
ATOM     20  CG2 ILE B   2      32.318  11.682  -5.257  1.00 70.46 LIG 0.01  C 
BRANCH 19 21
ATOM     21  CG1 ILE B   2      30.727   9.766  -4.788  1.00 70.36 LIG 0.00  C 
ATOM     22  CD1 ILE B   2      29.606  10.105  -3.804  1.00 70.48 LIG 0.01  C 
ENDBRANCH 19 21
ENDBRANCH 18 19
BRANCH 18 23
ATOM     23  C   ILE B   2      30.320  13.126  -6.693  1.00 70.53 LIG 0.24  C 
ATOM     24 O    ILE B   2      30.589  13.212  -7.895  1.00 70.63 LIG-0.27  OA
ATOM     25  N   ALA B   3      30.367  14.159  -5.854  1.00 70.71 LIG-0.35  N 
ATOM     26 H    ALA B   3      30.141  14.109  -5.026  1.00 70.71 LIG 0.16  HD
BRANCH 25 27
ATOM     27  CA  ALA B   3      30.810  15.488  -6.268  1.00 70.82 LIG 0.16  C 
ATOM     28  CB  ALA B   3      29.827  16.093  -7.261  1.00 70.79 LIG 0.04  C 
BRANCH 27 29
ATOM     29  C   ALA B   3      30.989  16.408  -5.061  1.00 70.87 LIG 0.22  C 
ATOM     30 O    ALA B   3      30.321  16.246  -4.037  1.00 70.95 LIG-0.29  OA
ENDBRANCH 27 29
ENDBRANCH 25 27
ENDBRANCH 18 23
ENDBRANCH 3 18
TORSDOF 13
ENDMDL
