MODEL 1
USER: ADFR SOLUTION from run 103
USER: SCORE 15.813160 LL:  -1.637 LR: -15.251 RR:   0.000 FEB: -10.776
USER: RMSD 5.228746
USER: SEED 102
USER: STATUS no improvement in best in 3 clusters for 5 generations
USER: GENES 17
USER: genes 0 Translation |==|  0.69202 0.39705 0.67778
USER: genes 1 Rotation |==|  0.44848 0.25714 0.71241 0.87848
USER: genes 2 Torsion [C]-N--CA-[CB] |==|  0.21608
USER: genes 3 Torsion [N]-CA--CB-[CG] |==|  0.47616
USER: genes 4 Torsion [CA]-CB--CG-[CD] |==|  0.49762
USER: genes 5 Torsion [CB]-CG--CD-[OE1] |==|  0.52334
USER: genes 6 Torsion [N]-CA--C-[N] |==|  0.83931
USER: genes 7 Torsion [C]-N--CA-[CB] |==|  0.20117
USER: genes 8 Torsion [N]-CA--C-[N] |==|  0.03333
USER: genes 9 Torsion [C]-N--CA-[CB] |==|  0.88525
USER: genes 10 Torsion [N]-CA--C-[O] |==|  0.34405
USER: genes 11 Torsion [N]-C--CA-[N] |==|  0.48459
USER: genes 12 Torsion [C]-CA--N-[H3] |==|  0.18971
USER: genes 13 Torsion [C]-CA--CB-[CG] |==|  0.61772
USER: genes 14 Torsion [CA]-CB--CG-[CD] |==|  0.31519
USER: genes 15 Torsion [CB]-CG--CD-[NE] |==|  0.79163
USER: genes 16 Torsion [CG]-CD--NE-[HE] |==|  0.04030
ROOT
ATOM      1  C   ARG X   1     -39.140  11.442  -6.022  1.00 28.35 LIG 0.25  C 
ATOM      2 O    ARG X   1     -38.654  11.245  -4.913  1.00 27.73 LIG-0.27  OA
ATOM      3  N   GLU X   2     -38.669  10.873  -7.125  1.00 29.79 LIG-0.35  N 
ATOM      4 H    GLU X   2     -39.069  10.896  -7.885  1.00 29.79 LIG 0.16  HD
ENDROOT
BRANCH 3 5
ATOM      5  CA  GLU X   2     -37.412  10.149  -7.128  1.00 30.62 LIG 0.18  C 
BRANCH 5 6
ATOM      6  CB  GLU X   2     -37.555   8.750  -6.519  1.00 30.95 LIG 0.04  C 
BRANCH 6 7
ATOM      7  CG  GLU X   2     -36.303   7.871  -6.691  1.00 31.16 LIG 0.12  C 
BRANCH 7 8
ATOM      8  CD  GLU X   2     -36.430   6.479  -6.067  1.00 32.27 LIG 0.17  C 
ATOM      9 OE1  GLU X   2     -35.420   5.751  -6.012  1.00 31.08 LIG-0.65  OA
ATOM     10 OE2  GLU X   2     -37.549   6.104  -5.648  1.00 30.98 LIG-0.65  OA
ENDBRANCH 7 8
ENDBRANCH 6 7
ENDBRANCH 5 6
BRANCH 5 11
ATOM     11  C   GLU X   2     -36.933  10.046  -8.559  1.00 31.96 LIG 0.24  C 
ATOM     12  N   ALA X   3     -37.770   9.455  -9.396  1.00 33.07 LIG-0.35  N 
ATOM     13 H    ALA X   3     -38.519   9.103  -9.162  1.00 33.07 LIG 0.16  HD
ATOM     14 O    GLU X   2     -35.829  10.491  -8.896  1.00 31.51 LIG-0.27  OA
BRANCH 12 15
ATOM     15  CA  ALA X   3     -37.473   9.358 -10.815  1.00 34.83 LIG 0.17  C 
ATOM     16  CB  ALA X   3     -36.359   8.335 -11.056  1.00 34.52 LIG 0.04  C 
BRANCH 15 17
ATOM     17  C   ALA X   3     -38.740   8.970 -11.548  1.00 35.72 LIG 0.24  C 
ATOM     18  N   ALA X   4     -39.869   9.042 -10.843  1.00 36.94 LIG-0.34  N 
ATOM     19 H    ALA X   4     -39.894   9.274 -10.016  1.00 36.94 LIG 0.16  HD
ATOM     20 O    ALA X   3     -38.685   8.587 -12.717  1.00 36.60 LIG-0.27  OA
BRANCH 18 21
ATOM     21  CA  ALA X   4     -41.185   8.730 -11.409  1.00 37.95 LIG 0.18  C 
ATOM     22  CB  ALA X   4     -41.309   9.302 -12.820  1.00 38.38 LIG 0.04  C 
BRANCH 21 23
ATOM     23  C   ALA X   4     -41.462   7.229 -11.425  1.00 38.48 LIG 0.20  C 
ATOM     24 O    ALA X   4     -42.457   6.748 -10.880  1.00 38.71 LIG-0.65  OA
ATOM     25 OXT  ALA X   4     -40.691   6.457 -11.991  1.00 39.00 LIG-0.65  OA
ENDBRANCH 21 23
ENDBRANCH 18 21
ENDBRANCH 15 17
ENDBRANCH 12 15
ENDBRANCH 5 11
ENDBRANCH 3 5
BRANCH 1 26
ATOM     26  CA  ARG X   1     -40.337  12.362  -6.206  1.00 28.22 LIG 0.27  C 
BRANCH 26 27
ATOM     27  N   ARG X   1     -40.871  12.845  -4.894  1.00 27.64 LIG-0.07  N 
ATOM     28 H3   ARG X   1     -40.280  13.394  -4.518  1.00 27.64 LIG 0.28  HD
ATOM     29 H2   ARG X   1     -41.014  12.150  -4.357  1.00 27.64 LIG 0.28  HD
ATOM     30 H1   ARG X   1     -41.636  13.279  -5.027  1.00 27.64 LIG 0.28  HD
ENDBRANCH 26 27
BRANCH 26 31
ATOM     31  CB  ARG X   1     -39.916  13.539  -7.095  1.00 28.04 LIG 0.04  C 
BRANCH 31 32
ATOM     32  CG  ARG X   1     -40.416  14.891  -6.659  1.00 27.94 LIG 0.02  C 
BRANCH 32 33
ATOM     33  CD  ARG X   1     -39.291  15.828  -6.205  1.00 29.24 LIG 0.14  C 
BRANCH 33 34
ATOM     34  NE  ARG X   1     -38.809  15.435  -4.880  1.00 27.62 LIG-0.23  N 
ATOM     35 HE   ARG X   1     -39.035  14.659  -4.586  1.00 27.62 LIG 0.18  HD
ATOM     36  CZ  ARG X   1     -38.044  16.195  -4.100  1.00 28.90 LIG 0.67  C 
ATOM     37  NH2 ARG X   1     -37.645  17.398  -4.506  1.00 29.13 LIG-0.23  N 
ATOM     38  NH1 ARG X   1     -37.664  15.748  -2.909  1.00 27.97 LIG-0.23  N 
ATOM     39 1HH2 ARG X   1     -37.883  17.692  -5.279  1.00 29.13 LIG 0.17  HD
ATOM     40 2HH2 ARG X   1     -37.151  17.883  -3.995  1.00 29.13 LIG 0.17  HD
ATOM     41 2HH1 ARG X   1     -37.170  16.238  -2.403  1.00 27.97 LIG 0.17  HD
ATOM     42 1HH1 ARG X   1     -37.912  14.969  -2.643  1.00 27.97 LIG 0.17  HD
ENDBRANCH 33 34
ENDBRANCH 32 33
ENDBRANCH 31 32
ENDBRANCH 26 31
ENDBRANCH 1 26
TORSDOF 15
ENDMDL
MODEL 2
USER: ADFR SOLUTION from run 77
USER: SCORE 14.966661 LL:  -1.893 LR: -15.127 RR:   0.000 FEB: -10.652
USER: RMSD 6.788032
USER: SEED 76
USER: STATUS no improvement in best in 10 clusters for 5 generations
USER: GENES 17
USER: genes 0 Translation |==|  0.64149 0.50400 0.63734
USER: genes 1 Rotation |==|  0.46201 0.88173 0.70705 0.74488
USER: genes 2 Torsion [C]-N--CA-[CB] |==|  0.81111
USER: genes 3 Torsion [N]-CA--CB-[CG] |==|  0.89123
USER: genes 4 Torsion [CA]-CB--CG-[CD] |==|  0.47117
USER: genes 5 Torsion [CB]-CG--CD-[OE1] |==|  0.23894
USER: genes 6 Torsion [N]-CA--C-[N] |==|  0.62163
USER: genes 7 Torsion [C]-N--CA-[CB] |==|  0.83205
USER: genes 8 Torsion [N]-CA--C-[N] |==|  0.21622
USER: genes 9 Torsion [C]-N--CA-[CB] |==|  0.11383
USER: genes 10 Torsion [N]-CA--C-[O] |==|  0.42410
USER: genes 11 Torsion [N]-C--CA-[N] |==|  0.88529
USER: genes 12 Torsion [C]-CA--N-[H3] |==|  0.33362
USER: genes 13 Torsion [C]-CA--CB-[CG] |==|  0.56362
USER: genes 14 Torsion [CA]-CB--CG-[CD] |==|  0.63557
USER: genes 15 Torsion [CB]-CG--CD-[NE] |==|  0.68838
USER: genes 16 Torsion [CG]-CD--NE-[HE] |==|  0.04233
ROOT
ATOM      1  C   ARG X   1     -39.936  13.688  -6.871  1.00 28.35 LIG 0.25  C 
ATOM      2 O    ARG X   1     -39.592  13.372  -8.005  1.00 27.73 LIG-0.27  OA
ATOM      3  N   GLU X   2     -39.955  12.829  -5.859  1.00 29.79 LIG-0.35  N 
ATOM      4 H    GLU X   2     -40.069  13.056  -5.038  1.00 29.79 LIG 0.16  HD
ENDROOT
BRANCH 3 5
ATOM      5  CA  GLU X   2     -39.781  11.405  -6.070  1.00 30.62 LIG 0.18  C 
BRANCH 5 6
ATOM      6  CB  GLU X   2     -40.966  10.787  -6.819  1.00 30.95 LIG 0.04  C 
BRANCH 6 7
ATOM      7  CG  GLU X   2     -42.332  11.354  -6.390  1.00 31.16 LIG 0.12  C 
BRANCH 7 8
ATOM      8  CD  GLU X   2     -43.492  10.935  -7.295  1.00 32.27 LIG 0.17  C 
ATOM      9 OE1  GLU X   2     -44.068   9.853  -7.072  1.00 31.08 LIG-0.65  OA
ATOM     10 OE2  GLU X   2     -43.817  11.681  -8.247  1.00 30.98 LIG-0.65  OA
ENDBRANCH 7 8
ENDBRANCH 6 7
ENDBRANCH 5 6
BRANCH 5 11
ATOM     11  C   GLU X   2     -38.505  11.198  -6.856  1.00 31.96 LIG 0.24  C 
ATOM     12  N   ALA X   3     -38.583  10.320  -7.843  1.00 33.07 LIG-0.35  N 
ATOM     13 H    ALA X   3     -39.282   9.851  -8.017  1.00 33.07 LIG 0.16  HD
ATOM     14 O    GLU X   2     -37.473  11.820  -6.574  1.00 31.51 LIG-0.27  OA
BRANCH 12 15
ATOM     15  CA  ALA X   3     -37.457  10.081  -8.729  1.00 34.83 LIG 0.17  C 
ATOM     16  CB  ALA X   3     -37.075  11.371  -9.464  1.00 34.52 LIG 0.04  C 
BRANCH 15 17
ATOM     17  C   ALA X   3     -36.298   9.558  -7.907  1.00 35.72 LIG 0.24  C 
ATOM     18  N   ALA X   4     -36.363   8.274  -7.556  1.00 36.94 LIG-0.34  N 
ATOM     19 H    ALA X   4     -37.024   7.762  -7.759  1.00 36.94 LIG 0.16  HD
ATOM     20 O    ALA X   3     -35.383  10.313  -7.576  1.00 36.60 LIG-0.27  OA
BRANCH 18 21
ATOM     21  CA  ALA X   4     -35.311   7.602  -6.787  1.00 37.95 LIG 0.18  C 
ATOM     22  CB  ALA X   4     -34.793   8.516  -5.678  1.00 38.38 LIG 0.04  C 
BRANCH 21 23
ATOM     23  C   ALA X   4     -35.789   6.278  -6.195  1.00 38.48 LIG 0.20  C 
ATOM     24 O    ALA X   4     -35.009   5.354  -5.960  1.00 38.71 LIG-0.65  OA
ATOM     25 OXT  ALA X   4     -36.978   6.104  -5.934  1.00 39.00 LIG-0.65  OA
ENDBRANCH 21 23
ENDBRANCH 18 21
ENDBRANCH 15 17
ENDBRANCH 12 15
ENDBRANCH 5 11
ENDBRANCH 3 5
BRANCH 1 26
ATOM     26  CA  ARG X   1     -40.361  15.111  -6.544  1.00 28.22 LIG 0.27  C 
BRANCH 26 27
ATOM     27  N   ARG X   1     -41.545  15.139  -5.630  1.00 27.64 LIG-0.07  N 
ATOM     28 H3   ARG X   1     -41.331  15.565  -4.879  1.00 27.64 LIG 0.28  HD
ATOM     29 H2   ARG X   1     -41.792  14.306  -5.437  1.00 27.64 LIG 0.28  HD
ATOM     30 H1   ARG X   1     -42.219  15.561  -6.030  1.00 27.64 LIG 0.28  HD
ENDBRANCH 26 27
BRANCH 26 31
ATOM     31  CB  ARG X   1     -39.169  15.847  -5.920  1.00 28.04 LIG 0.04  C 
BRANCH 31 32
ATOM     32  CG  ARG X   1     -39.517  17.035  -5.063  1.00 27.94 LIG 0.02  C 
BRANCH 32 33
ATOM     33  CD  ARG X   1     -38.697  18.284  -5.407  1.00 29.24 LIG 0.14  C 
BRANCH 33 34
ATOM     34  NE  ARG X   1     -37.789  18.612  -4.306  1.00 27.62 LIG-0.23  N 
ATOM     35 HE   ARG X   1     -37.651  18.009  -3.709  1.00 27.62 LIG 0.18  HD
ATOM     36  CZ  ARG X   1     -37.163  19.778  -4.167  1.00 28.90 LIG 0.67  C 
ATOM     37  NH2 ARG X   1     -37.322  20.745  -5.068  1.00 29.13 LIG-0.23  N 
ATOM     38  NH1 ARG X   1     -36.364  19.979  -3.126  1.00 27.97 LIG-0.23  N 
ATOM     39 1HH2 ARG X   1     -37.834  20.619  -5.748  1.00 29.13 LIG 0.17  HD
ATOM     40 2HH2 ARG X   1     -36.914  21.496  -4.970  1.00 29.13 LIG 0.17  HD
ATOM     41 2HH1 ARG X   1     -35.959  20.732  -3.034  1.00 27.97 LIG 0.17  HD
ATOM     42 1HH1 ARG X   1     -36.252  19.356  -2.544  1.00 27.97 LIG 0.17  HD
ENDBRANCH 33 34
ENDBRANCH 32 33
ENDBRANCH 31 32
ENDBRANCH 26 31
ENDBRANCH 1 26
TORSDOF 15
ENDMDL
MODEL 3
USER: ADFR SOLUTION from run 68
USER: SCORE 14.879759 LL:  -1.910 LR: -14.989 RR:   0.000 FEB: -10.515
USER: RMSD 6.067686
USER: SEED 67
USER: STATUS no improvement in best in 8 clusters for 5 generations
USER: GENES 17
USER: genes 0 Translation |==|  0.59686 0.40258 0.64459
USER: genes 1 Rotation |==|  0.49053 0.40649 0.52922 0.99022
USER: genes 2 Torsion [C]-N--CA-[CB] |==|  0.44102
USER: genes 3 Torsion [N]-CA--CB-[CG] |==|  0.66467
USER: genes 4 Torsion [CA]-CB--CG-[CD] |==|  0.23567
USER: genes 5 Torsion [CB]-CG--CD-[OE1] |==|  0.35329
USER: genes 6 Torsion [N]-CA--C-[N] |==|  0.23022
USER: genes 7 Torsion [C]-N--CA-[CB] |==|  0.15264
USER: genes 8 Torsion [N]-CA--C-[N] |==|  0.16080
USER: genes 9 Torsion [C]-N--CA-[CB] |==|  0.13342
USER: genes 10 Torsion [N]-CA--C-[O] |==|  0.88872
USER: genes 11 Torsion [N]-C--CA-[N] |==|  0.43679
USER: genes 12 Torsion [C]-CA--N-[H3] |==|  0.31623
USER: genes 13 Torsion [C]-CA--CB-[CG] |==|  0.38064
USER: genes 14 Torsion [CA]-CB--CG-[CD] |==|  0.31729
USER: genes 15 Torsion [CB]-CG--CD-[NE] |==|  0.91664
USER: genes 16 Torsion [CG]-CD--NE-[HE] |==|  0.98780
ROOT
ATOM      1  C   ARG X   1     -40.638  11.558  -6.719  1.00 28.35 LIG 0.25  C 
ATOM      2 O    ARG X   1     -40.005  10.633  -6.223  1.00 27.73 LIG-0.27  OA
ATOM      3  N   GLU X   2     -41.323  11.437  -7.849  1.00 29.79 LIG-0.35  N 
ATOM      4 H    GLU X   2     -41.872  12.029  -8.145  1.00 29.79 LIG 0.16  HD
ENDROOT
BRANCH 3 5
ATOM      5  CA  GLU X   2     -41.193  10.264  -8.693  1.00 30.62 LIG 0.18  C 
BRANCH 5 6
ATOM      6  CB  GLU X   2     -42.399  10.089  -9.620  1.00 30.95 LIG 0.04  C 
BRANCH 6 7
ATOM      7  CG  GLU X   2     -43.140   8.753  -9.424  1.00 31.16 LIG 0.12  C 
BRANCH 7 8
ATOM      8  CD  GLU X   2     -44.179   8.776  -8.301  1.00 32.27 LIG 0.17  C 
ATOM      9 OE1  GLU X   2     -45.343   8.409  -8.550  1.00 31.08 LIG-0.65  OA
ATOM     10 OE2  GLU X   2     -43.834   9.183  -7.167  1.00 30.98 LIG-0.65  OA
ENDBRANCH 7 8
ENDBRANCH 6 7
ENDBRANCH 5 6
BRANCH 5 11
ATOM     11  C   GLU X   2     -39.927  10.411  -9.509  1.00 31.96 LIG 0.24  C 
ATOM     12  N   ALA X   3     -38.812  10.049  -8.894  1.00 33.07 LIG-0.35  N 
ATOM     13 H    ALA X   3     -38.775   9.791  -8.075  1.00 33.07 LIG 0.16  HD
ATOM     14 O    GLU X   2     -39.961  10.842 -10.668  1.00 31.51 LIG-0.27  OA
BRANCH 12 15
ATOM     15  CA  ALA X   3     -37.534  10.063  -9.585  1.00 34.83 LIG 0.17  C 
ATOM     16  CB  ALA X   3     -37.267  11.449 -10.181  1.00 34.52 LIG 0.04  C 
BRANCH 15 17
ATOM     17  C   ALA X   3     -36.450   9.673  -8.602  1.00 35.72 LIG 0.24  C 
ATOM     18  N   ALA X   4     -36.594   8.486  -8.013  1.00 36.94 LIG-0.34  N 
ATOM     19 H    ALA X   4     -37.264   7.967  -8.156  1.00 36.94 LIG 0.16  HD
ATOM     20 O    ALA X   3     -35.522  10.448  -8.365  1.00 36.60 LIG-0.27  OA
BRANCH 18 21
ATOM     21  CA  ALA X   4     -35.620   7.944  -7.061  1.00 37.95 LIG 0.18  C 
ATOM     22  CB  ALA X   4     -35.257   8.993  -6.012  1.00 38.38 LIG 0.04  C 
BRANCH 21 23
ATOM     23  C   ALA X   4     -36.128   6.675  -6.380  1.00 38.48 LIG 0.20  C 
ATOM     24 O    ALA X   4     -37.300   6.559  -6.017  1.00 38.71 LIG-0.65  OA
ATOM     25 OXT  ALA X   4     -35.370   5.729  -6.178  1.00 39.00 LIG-0.65  OA
ENDBRANCH 21 23
ENDBRANCH 18 21
ENDBRANCH 15 17
ENDBRANCH 12 15
ENDBRANCH 5 11
ENDBRANCH 3 5
BRANCH 1 26
ATOM     26  CA  ARG X   1     -40.687  12.925  -6.054  1.00 28.22 LIG 0.27  C 
BRANCH 26 27
ATOM     27  N   ARG X   1     -40.383  12.842  -4.592  1.00 27.64 LIG-0.07  N 
ATOM     28 H3   ARG X   1     -39.616  13.259  -4.423  1.00 27.64 LIG 0.28  HD
ATOM     29 H2   ARG X   1     -40.315  11.988  -4.351  1.00 27.64 LIG 0.28  HD
ATOM     30 H1   ARG X   1     -41.039  13.228  -4.130  1.00 27.64 LIG 0.28  HD
ENDBRANCH 26 27
BRANCH 26 31
ATOM     31  CB  ARG X   1     -39.694  13.851  -6.769  1.00 28.04 LIG 0.04  C 
BRANCH 31 32
ATOM     32  CG  ARG X   1     -40.191  15.245  -7.044  1.00 27.94 LIG 0.02  C 
BRANCH 32 33
ATOM     33  CD  ARG X   1     -39.425  16.320  -6.264  1.00 29.24 LIG 0.14  C 
BRANCH 33 34
ATOM     34  NE  ARG X   1     -38.940  15.775  -4.995  1.00 27.62 LIG-0.23  N 
ATOM     35 HE   ARG X   1     -39.169  14.971  -4.792  1.00 27.62 LIG 0.18  HD
ATOM     36  CZ  ARG X   1     -38.170  16.437  -4.135  1.00 28.90 LIG 0.67  C 
ATOM     37  NH2 ARG X   1     -37.768  17.678  -4.401  1.00 29.13 LIG-0.23  N 
ATOM     38  NH1 ARG X   1     -37.789  15.854  -3.005  1.00 27.97 LIG-0.23  N 
ATOM     39 1HH2 ARG X   1     -38.007  18.059  -5.134  1.00 29.13 LIG 0.17  HD
ATOM     40 2HH2 ARG X   1     -37.271  18.098  -3.839  1.00 29.13 LIG 0.17  HD
ATOM     41 2HH1 ARG X   1     -37.291  16.280  -2.448  1.00 27.97 LIG 0.17  HD
ATOM     42 1HH1 ARG X   1     -38.039  15.050  -2.831  1.00 27.97 LIG 0.17  HD
ENDBRANCH 33 34
ENDBRANCH 32 33
ENDBRANCH 31 32
ENDBRANCH 26 31
ENDBRANCH 1 26
TORSDOF 15
ENDMDL
MODEL 4
USER: ADFR SOLUTION from run 42
USER: SCORE 13.488627 LL:  -1.976 LR: -14.922 RR:   0.000 FEB: -10.447
USER: RMSD 3.334285
USER: SEED 41
USER: STATUS no improvement in best in 14 clusters for 5 generations
USER: GENES 17
USER: genes 0 Translation |==|  0.56367 0.41060 0.65002
USER: genes 1 Rotation |==|  0.50390 0.41446 0.49093 0.99253
USER: genes 2 Torsion [C]-N--CA-[CB] |==|  0.41641
USER: genes 3 Torsion [N]-CA--CB-[CG] |==|  0.60377
USER: genes 4 Torsion [CA]-CB--CG-[CD] |==|  0.20438
USER: genes 5 Torsion [CB]-CG--CD-[OE1] |==|  0.29771
USER: genes 6 Torsion [N]-CA--C-[N] |==|  0.25578
USER: genes 7 Torsion [C]-N--CA-[CB] |==|  0.47803
USER: genes 8 Torsion [N]-CA--C-[N] |==|  0.87694
USER: genes 9 Torsion [C]-N--CA-[CB] |==|  0.23874
USER: genes 10 Torsion [N]-CA--C-[O] |==|  0.52163
USER: genes 11 Torsion [N]-C--CA-[N] |==|  0.47541
USER: genes 12 Torsion [C]-CA--N-[H3] |==|  0.37821
USER: genes 13 Torsion [C]-CA--CB-[CG] |==|  0.37711
USER: genes 14 Torsion [CA]-CB--CG-[CD] |==|  0.31731
USER: genes 15 Torsion [CB]-CG--CD-[NE] |==|  0.89263
USER: genes 16 Torsion [CG]-CD--NE-[HE] |==|  0.99822
ROOT
ATOM      1  C   ARG X   1     -41.161  11.727  -6.605  1.00 28.35 LIG 0.25  C 
ATOM      2 O    ARG X   1     -40.652  10.684  -6.206  1.00 27.73 LIG-0.27  OA
ATOM      3  N   GLU X   2     -41.887  11.795  -7.714  1.00 29.79 LIG-0.35  N 
ATOM      4 H    GLU X   2     -42.354  12.480  -7.941  1.00 29.79 LIG 0.16  HD
ENDROOT
BRANCH 3 5
ATOM      5  CA  GLU X   2     -41.948  10.688  -8.650  1.00 30.62 LIG 0.18  C 
BRANCH 5 6
ATOM      6  CB  GLU X   2     -43.289  10.635  -9.387  1.00 30.95 LIG 0.04  C 
BRANCH 6 7
ATOM      7  CG  GLU X   2     -43.804   9.204  -9.632  1.00 31.16 LIG 0.12  C 
BRANCH 7 8
ATOM      8  CD  GLU X   2     -44.339   8.512  -8.376  1.00 32.27 LIG 0.17  C 
ATOM      9 OE1  GLU X   2     -45.569   8.354  -8.255  1.00 31.08 LIG-0.65  OA
ATOM     10 OE2  GLU X   2     -43.528   8.143  -7.497  1.00 30.98 LIG-0.65  OA
ENDBRANCH 7 8
ENDBRANCH 6 7
ENDBRANCH 5 6
BRANCH 5 11
ATOM     11  C   GLU X   2     -40.816  10.847  -9.640  1.00 31.96 LIG 0.24  C 
ATOM     12  N   ALA X   3     -39.691  10.229  -9.319  1.00 33.07 LIG-0.35  N 
ATOM     13 H    ALA X   3     -39.569   9.800  -8.584  1.00 33.07 LIG 0.16  HD
ATOM     14 O    GLU X   2     -40.959  11.516 -10.671  1.00 31.51 LIG-0.27  OA
BRANCH 12 15
ATOM     15  CA  ALA X   3     -38.548  10.232 -10.216  1.00 34.83 LIG 0.17  C 
ATOM     16  CB  ALA X   3     -37.326   9.619  -9.523  1.00 34.52 LIG 0.04  C 
BRANCH 15 17
ATOM     17  C   ALA X   3     -38.912   9.457 -11.465  1.00 35.72 LIG 0.24  C 
ATOM     18  N   ALA X   4     -39.554   8.305 -11.272  1.00 36.94 LIG-0.34  N 
ATOM     19 H    ALA X   4     -39.741   7.994 -10.492  1.00 36.94 LIG 0.16  HD
ATOM     20 O    ALA X   3     -38.592   9.885 -12.574  1.00 36.60 LIG-0.27  OA
BRANCH 18 21
ATOM     21  CA  ALA X   4     -40.006   7.448 -12.372  1.00 37.95 LIG 0.18  C 
ATOM     22  CB  ALA X   4     -38.884   6.511 -12.815  1.00 38.38 LIG 0.04  C 
BRANCH 21 23
ATOM     23  C   ALA X   4     -41.248   6.642 -12.000  1.00 38.48 LIG 0.20  C 
ATOM     24 O    ALA X   4     -41.695   5.763 -12.738  1.00 38.71 LIG-0.65  OA
ATOM     25 OXT  ALA X   4     -41.835   6.854 -10.941  1.00 39.00 LIG-0.65  OA
ENDBRANCH 21 23
ENDBRANCH 18 21
ENDBRANCH 15 17
ENDBRANCH 12 15
ENDBRANCH 5 11
ENDBRANCH 3 5
BRANCH 1 26
ATOM     26  CA  ARG X   1     -40.996  13.029  -5.836  1.00 28.22 LIG 0.27  C 
BRANCH 26 27
ATOM     27  N   ARG X   1     -40.350  12.808  -4.505  1.00 27.64 LIG-0.07  N 
ATOM     28 H3   ARG X   1     -39.732  13.433  -4.367  1.00 27.64 LIG 0.28  HD
ATOM     29 H2   ARG X   1     -39.967  12.005  -4.490  1.00 27.64 LIG 0.28  HD
ATOM     30 H1   ARG X   1     -40.966  12.854  -3.865  1.00 27.64 LIG 0.28  HD
ENDBRANCH 26 27
BRANCH 26 31
ATOM     31  CB  ARG X   1     -40.173  14.000  -6.692  1.00 28.04 LIG 0.04  C 
BRANCH 31 32
ATOM     32  CG  ARG X   1     -40.688  15.414  -6.742  1.00 27.94 LIG 0.02  C 
BRANCH 32 33
ATOM     33  CD  ARG X   1     -39.738  16.422  -6.084  1.00 29.24 LIG 0.14  C 
BRANCH 33 34
ATOM     34  NE  ARG X   1     -39.140  15.842  -4.881  1.00 27.62 LIG-0.23  N 
ATOM     35 HE   ARG X   1     -39.371  15.042  -4.665  1.00 27.62 LIG 0.18  HD
ATOM     36  CZ  ARG X   1     -38.263  16.466  -4.099  1.00 28.90 LIG 0.67  C 
ATOM     37  NH2 ARG X   1     -37.853  17.699  -4.389  1.00 29.13 LIG-0.23  N 
ATOM     38  NH1 ARG X   1     -37.783  15.854  -3.023  1.00 27.97 LIG-0.23  N 
ATOM     39 1HH2 ARG X   1     -38.155  18.099  -5.087  1.00 29.13 LIG 0.17  HD
ATOM     40 2HH2 ARG X   1     -37.286  18.095  -3.877  1.00 29.13 LIG 0.17  HD
ATOM     41 2HH1 ARG X   1     -37.217  16.256  -2.516  1.00 27.97 LIG 0.17  HD
ATOM     42 1HH1 ARG X   1     -38.039  15.055  -2.833  1.00 27.97 LIG 0.17  HD
ENDBRANCH 33 34
ENDBRANCH 32 33
ENDBRANCH 31 32
ENDBRANCH 26 31
ENDBRANCH 1 26
TORSDOF 15
ENDMDL
MODEL 5
USER: ADFR SOLUTION from run 75
USER: SCORE 14.235907 LL:  -1.968 LR: -14.576 RR:   0.000 FEB: -10.101
USER: RMSD 5.999825
USER: SEED 74
USER: STATUS no improvement in best in 18 clusters for 5 generations
USER: GENES 17
USER: genes 0 Translation |==|  0.58391 0.40491 0.65814
USER: genes 1 Rotation |==|  0.50681 0.42927 0.50854 0.99485
USER: genes 2 Torsion [C]-N--CA-[CB] |==|  0.45035
USER: genes 3 Torsion [N]-CA--CB-[CG] |==|  0.58457
USER: genes 4 Torsion [CA]-CB--CG-[CD] |==|  0.19901
USER: genes 5 Torsion [CB]-CG--CD-[OE1] |==|  0.75554
USER: genes 6 Torsion [N]-CA--C-[N] |==|  0.20613
USER: genes 7 Torsion [C]-N--CA-[CB] |==|  0.14629
USER: genes 8 Torsion [N]-CA--C-[N] |==|  0.21103
USER: genes 9 Torsion [C]-N--CA-[CB] |==|  0.10100
USER: genes 10 Torsion [N]-CA--C-[O] |==|  0.37407
USER: genes 11 Torsion [N]-C--CA-[N] |==|  0.51610
USER: genes 12 Torsion [C]-CA--N-[H3] |==|  0.50784
USER: genes 13 Torsion [C]-CA--CB-[CG] |==|  0.40376
USER: genes 14 Torsion [CA]-CB--CG-[CD] |==|  0.41771
USER: genes 15 Torsion [CB]-CG--CD-[NE] |==|  0.49630
USER: genes 16 Torsion [CG]-CD--NE-[HE] |==|  0.17909
ROOT
ATOM      1  C   ARG X   1     -40.842  11.607  -6.434  1.00 28.35 LIG 0.25  C 
ATOM      2 O    ARG X   1     -40.237  10.605  -6.069  1.00 27.73 LIG-0.27  OA
ATOM      3  N   GLU X   2     -41.636  11.621  -7.498  1.00 29.79 LIG-0.35  N 
ATOM      4 H    GLU X   2     -42.163  12.270  -7.696  1.00 29.79 LIG 0.16  HD
ENDROOT
BRANCH 3 5
ATOM      5  CA  GLU X   2     -41.672  10.511  -8.431  1.00 30.62 LIG 0.18  C 
BRANCH 5 6
ATOM      6  CB  GLU X   2     -42.931  10.538  -9.304  1.00 30.95 LIG 0.04  C 
BRANCH 6 7
ATOM      7  CG  GLU X   2     -43.413   9.140  -9.736  1.00 31.16 LIG 0.12  C 
BRANCH 7 8
ATOM      8  CD  GLU X   2     -44.029   8.317  -8.602  1.00 32.27 LIG 0.17  C 
ATOM      9 OE1  GLU X   2     -43.283   7.611  -7.898  1.00 31.08 LIG-0.65  OA
ATOM     10 OE2  GLU X   2     -45.269   8.362  -8.428  1.00 30.98 LIG-0.65  OA
ENDBRANCH 7 8
ENDBRANCH 6 7
ENDBRANCH 5 6
BRANCH 5 11
ATOM     11  C   GLU X   2     -40.435  10.587  -9.300  1.00 31.96 LIG 0.24  C 
ATOM     12  N   ALA X   3     -39.306  10.228  -8.710  1.00 33.07 LIG-0.35  N 
ATOM     13 H    ALA X   3     -39.243  10.010  -7.881  1.00 33.07 LIG 0.16  HD
ATOM     14 O    GLU X   2     -40.504  10.962 -10.477  1.00 31.51 LIG-0.27  OA
BRANCH 12 15
ATOM     15  CA  ALA X   3     -38.056  10.177  -9.448  1.00 34.83 LIG 0.17  C 
ATOM     16  CB  ALA X   3     -37.808  11.507 -10.168  1.00 34.52 LIG 0.04  C 
BRANCH 15 17
ATOM     17  C   ALA X   3     -36.936   9.865  -8.478  1.00 35.72 LIG 0.24  C 
ATOM     18  N   ALA X   4     -36.851   8.599  -8.071  1.00 36.94 LIG-0.34  N 
ATOM     19 H    ALA X   4     -37.401   7.986  -8.318  1.00 36.94 LIG 0.16  HD
ATOM     20 O    ALA X   3     -36.186  10.762  -8.088  1.00 36.60 LIG-0.27  OA
BRANCH 18 21
ATOM     21  CA  ALA X   4     -35.808   8.122  -7.158  1.00 37.95 LIG 0.18  C 
ATOM     22  CB  ALA X   4     -35.481   9.189  -6.115  1.00 38.38 LIG 0.04  C 
BRANCH 21 23
ATOM     23  C   ALA X   4     -36.200   6.818  -6.468  1.00 38.48 LIG 0.20  C 
ATOM     24 O    ALA X   4     -35.415   5.873  -6.372  1.00 38.71 LIG-0.65  OA
ATOM     25 OXT  ALA X   4     -37.323   6.679  -5.987  1.00 39.00 LIG-0.65  OA
ENDBRANCH 21 23
ENDBRANCH 18 21
ENDBRANCH 15 17
ENDBRANCH 12 15
ENDBRANCH 5 11
ENDBRANCH 3 5
BRANCH 1 26
ATOM     26  CA  ARG X   1     -40.726  12.919  -5.673  1.00 28.22 LIG 0.27  C 
BRANCH 26 27
ATOM     27  N   ARG X   1     -39.708  12.837  -4.580  1.00 27.64 LIG-0.07  N 
ATOM     28 H3   ARG X   1     -39.693  13.604  -4.130  1.00 27.64 LIG 0.28  HD
ATOM     29 H2   ARG X   1     -38.905  12.685  -4.933  1.00 27.64 LIG 0.28  HD
ATOM     30 H1   ARG X   1     -39.919  12.172  -4.028  1.00 27.64 LIG 0.28  HD
ENDBRANCH 26 27
BRANCH 26 31
ATOM     31  CB  ARG X   1     -40.375  14.031  -6.669  1.00 28.04 LIG 0.04  C 
BRANCH 31 32
ATOM     32  CG  ARG X   1     -40.976  15.380  -6.371  1.00 27.94 LIG 0.02  C 
BRANCH 32 33
ATOM     33  CD  ARG X   1     -40.111  16.545  -6.868  1.00 29.24 LIG 0.14  C 
BRANCH 33 34
ATOM     34  NE  ARG X   1     -40.765  17.821  -6.576  1.00 27.62 LIG-0.23  N 
ATOM     35 HE   ARG X   1     -40.877  18.034  -5.750  1.00 27.62 LIG 0.18  HD
ATOM     36  CZ  ARG X   1     -41.198  18.675  -7.500  1.00 28.90 LIG 0.67  C 
ATOM     37  NH2 ARG X   1     -41.039  18.412  -8.795  1.00 29.13 LIG-0.23  N 
ATOM     38  NH1 ARG X   1     -41.787  19.807  -7.130  1.00 27.97 LIG-0.23  N 
ATOM     39 1HH2 ARG X   1     -40.653  17.684  -9.042  1.00 29.13 LIG 0.17  HD
ATOM     40 2HH2 ARG X   1     -41.322  18.970  -9.385  1.00 29.13 LIG 0.17  HD
ATOM     41 2HH1 ARG X   1     -42.068  20.360  -7.726  1.00 27.97 LIG 0.17  HD
ATOM     42 1HH1 ARG X   1     -41.887  19.986  -6.295  1.00 27.97 LIG 0.17  HD
ENDBRANCH 33 34
ENDBRANCH 32 33
ENDBRANCH 31 32
ENDBRANCH 26 31
ENDBRANCH 1 26
TORSDOF 15
ENDMDL
MODEL 6
USER: ADFR SOLUTION from run 182
USER: SCORE 15.309953 LL:  -2.104 LR: -14.442 RR:   0.000 FEB:  -9.967
USER: RMSD 5.431220
USER: SEED 181
USER: STATUS no improvement in best in 9 clusters for 5 generations
USER: GENES 17
USER: genes 0 Translation |==|  0.69576 0.39510 0.67499
USER: genes 1 Rotation |==|  0.45749 0.24645 0.69762 0.88059
USER: genes 2 Torsion [C]-N--CA-[CB] |==|  0.21667
USER: genes 3 Torsion [N]-CA--CB-[CG] |==|  0.50234
USER: genes 4 Torsion [CA]-CB--CG-[CD] |==|  0.48067
USER: genes 5 Torsion [CB]-CG--CD-[OE1] |==|  0.50228
USER: genes 6 Torsion [N]-CA--C-[N] |==|  0.82012
USER: genes 7 Torsion [C]-N--CA-[CB] |==|  0.19083
USER: genes 8 Torsion [N]-CA--C-[N] |==|  0.99499
USER: genes 9 Torsion [C]-N--CA-[CB] |==|  0.17713
USER: genes 10 Torsion [N]-CA--C-[O] |==|  0.62372
USER: genes 11 Torsion [N]-C--CA-[N] |==|  0.49253
USER: genes 12 Torsion [C]-CA--N-[H3] |==|  0.52856
USER: genes 13 Torsion [C]-CA--CB-[CG] |==|  0.59232
USER: genes 14 Torsion [CA]-CB--CG-[CD] |==|  0.49420
USER: genes 15 Torsion [CB]-CG--CD-[NE] |==|  0.51407
USER: genes 16 Torsion [CG]-CD--NE-[HE] |==|  0.12683
ROOT
ATOM      1  C   ARG X   1     -39.081  11.401  -6.080  1.00 28.35 LIG 0.25  C 
ATOM      2 O    ARG X   1     -38.623  11.109  -4.981  1.00 27.73 LIG-0.27  OA
ATOM      3  N   GLU X   2     -38.603  10.903  -7.214  1.00 29.79 LIG-0.35  N 
ATOM      4 H    GLU X   2     -38.986  10.994  -7.978  1.00 29.79 LIG 0.16  HD
ENDROOT
BRANCH 3 5
ATOM      5  CA  GLU X   2     -37.366  10.148  -7.249  1.00 30.62 LIG 0.18  C 
BRANCH 5 6
ATOM      6  CB  GLU X   2     -37.557   8.711  -6.755  1.00 30.95 LIG 0.04  C 
BRANCH 6 7
ATOM      7  CG  GLU X   2     -36.262   7.878  -6.756  1.00 31.16 LIG 0.12  C 
BRANCH 7 8
ATOM      8  CD  GLU X   2     -36.407   6.499  -6.109  1.00 32.27 LIG 0.17  C 
ATOM      9 OE1  GLU X   2     -35.409   5.756  -6.048  1.00 31.08 LIG-0.65  OA
ATOM     10 OE2  GLU X   2     -37.530   6.149  -5.678  1.00 30.98 LIG-0.65  OA
ENDBRANCH 7 8
ENDBRANCH 6 7
ENDBRANCH 5 6
BRANCH 5 11
ATOM     11  C   GLU X   2     -36.857  10.144  -8.674  1.00 31.96 LIG 0.24  C 
ATOM     12  N   ALA X   3     -37.627   9.516  -9.548  1.00 33.07 LIG-0.35  N 
ATOM     13 H    ALA X   3     -38.346   9.091  -9.341  1.00 33.07 LIG 0.16  HD
ATOM     14 O    GLU X   2     -35.792  10.696  -8.974  1.00 31.51 LIG-0.27  OA
BRANCH 12 15
ATOM     15  CA  ALA X   3     -37.302   9.501 -10.964  1.00 34.83 LIG 0.17  C 
ATOM     16  CB  ALA X   3     -36.043   8.663 -11.212  1.00 34.52 LIG 0.04  C 
BRANCH 15 17
ATOM     17  C   ALA X   3     -38.486   8.946 -11.726  1.00 35.72 LIG 0.24  C 
ATOM     18  N   ALA X   4     -39.528   8.561 -10.989  1.00 36.94 LIG-0.34  N 
ATOM     19 H    ALA X   4     -39.538   8.601 -10.130  1.00 36.94 LIG 0.16  HD
ATOM     20 O    ALA X   3     -38.440   8.844 -12.953  1.00 36.60 LIG-0.27  OA
BRANCH 18 21
ATOM     21  CA  ALA X   4     -40.765   8.031 -11.570  1.00 37.95 LIG 0.18  C 
ATOM     22  CB  ALA X   4     -40.492   6.718 -12.301  1.00 38.38 LIG 0.04  C 
BRANCH 21 23
ATOM     23  C   ALA X   4     -41.853   7.830 -10.518  1.00 38.48 LIG 0.20  C 
ATOM     24 O    ALA X   4     -42.540   6.807 -10.483  1.00 38.71 LIG-0.65  OA
ATOM     25 OXT  ALA X   4     -42.069   8.694  -9.670  1.00 39.00 LIG-0.65  OA
ENDBRANCH 21 23
ENDBRANCH 18 21
ENDBRANCH 15 17
ENDBRANCH 12 15
ENDBRANCH 5 11
ENDBRANCH 3 5
BRANCH 1 26
ATOM     26  CA  ARG X   1     -40.250  12.364  -6.216  1.00 28.22 LIG 0.27  C 
BRANCH 26 27
ATOM     27  N   ARG X   1     -40.753  12.816  -4.882  1.00 27.64 LIG-0.07  N 
ATOM     28 H3   ARG X   1     -41.521  13.253  -4.986  1.00 27.64 LIG 0.28  HD
ATOM     29 H2   ARG X   1     -40.154  13.355  -4.505  1.00 27.64 LIG 0.28  HD
ATOM     30 H1   ARG X   1     -40.884  12.107  -4.359  1.00 27.64 LIG 0.28  HD
ENDBRANCH 26 27
BRANCH 26 31
ATOM     31  CB  ARG X   1     -39.802  13.559  -7.068  1.00 28.04 LIG 0.04  C 
BRANCH 31 32
ATOM     32  CG  ARG X   1     -40.426  14.881  -6.706  1.00 27.94 LIG 0.02  C 
BRANCH 32 33
ATOM     33  CD  ARG X   1     -39.902  16.044  -7.557  1.00 29.24 LIG 0.14  C 
BRANCH 33 34
ATOM     34  NE  ARG X   1     -40.455  17.311  -7.077  1.00 27.62 LIG-0.23  N 
ATOM     35 HE   ARG X   1     -40.451  17.454  -6.229  1.00 27.62 LIG 0.18  HD
ATOM     36  CZ  ARG X   1     -40.963  18.258  -7.862  1.00 28.90 LIG 0.67  C 
ATOM     37  NH2 ARG X   1     -40.982  18.104  -9.184  1.00 29.13 LIG-0.23  N 
ATOM     38  NH1 ARG X   1     -41.448  19.371  -7.327  1.00 27.97 LIG-0.23  N 
ATOM     39 1HH2 ARG X   1     -40.664  17.388  -9.539  1.00 29.13 LIG 0.17  HD
ATOM     40 2HH2 ARG X   1     -41.313  18.721  -9.685  1.00 29.13 LIG 0.17  HD
ATOM     41 2HH1 ARG X   1     -41.777  19.984  -7.833  1.00 27.97 LIG 0.17  HD
ATOM     42 1HH1 ARG X   1     -41.432  19.480  -6.474  1.00 27.97 LIG 0.17  HD
ENDBRANCH 33 34
ENDBRANCH 32 33
ENDBRANCH 31 32
ENDBRANCH 26 31
ENDBRANCH 1 26
TORSDOF 15
ENDMDL
MODEL 7
USER: ADFR SOLUTION from run 23
USER: SCORE 14.831794 LL:  -1.836 LR: -14.410 RR:   0.000 FEB:  -9.935
USER: RMSD 2.089844
USER: SEED 22
USER: STATUS no improvement in best in 22 clusters for 5 generations
USER: GENES 17
USER: genes 0 Translation |==|  0.54754 0.40743 0.66178
USER: genes 1 Rotation |==|  0.48824 0.46209 0.47713 0.99790
USER: genes 2 Torsion [C]-N--CA-[CB] |==|  0.19316
USER: genes 3 Torsion [N]-CA--CB-[CG] |==|  0.49002
USER: genes 4 Torsion [CA]-CB--CG-[CD] |==|  0.73255
USER: genes 5 Torsion [CB]-CG--CD-[OE1] |==|  0.83205
USER: genes 6 Torsion [N]-CA--C-[N] |==|  0.41342
USER: genes 7 Torsion [C]-N--CA-[CB] |==|  0.19979
USER: genes 8 Torsion [N]-CA--C-[N] |==|  0.03333
USER: genes 9 Torsion [C]-N--CA-[CB] |==|  0.15422
USER: genes 10 Torsion [N]-CA--C-[O] |==|  0.44337
USER: genes 11 Torsion [N]-C--CA-[N] |==|  0.47007
USER: genes 12 Torsion [C]-CA--N-[H3] |==|  0.38668
USER: genes 13 Torsion [C]-CA--CB-[CG] |==|  0.38401
USER: genes 14 Torsion [CA]-CB--CG-[CD] |==|  0.30812
USER: genes 15 Torsion [CB]-CG--CD-[NE] |==|  0.86272
USER: genes 16 Torsion [CG]-CD--NE-[HE] |==|  0.03833
ROOT
ATOM      1  C   ARG X   1     -41.415  11.660  -6.358  1.00 28.35 LIG 0.25  C 
ATOM      2 O    ARG X   1     -40.900  10.604  -6.007  1.00 27.73 LIG-0.27  OA
ATOM      3  N   GLU X   2     -42.337  11.730  -7.311  1.00 29.79 LIG-0.35  N 
ATOM      4 H    GLU X   2     -42.798  12.434  -7.482  1.00 29.79 LIG 0.16  HD
ENDROOT
BRANCH 3 5
ATOM      5  CA  GLU X   2     -42.642  10.591  -8.155  1.00 30.62 LIG 0.18  C 
BRANCH 5 6
ATOM      6  CB  GLU X   2     -43.350   9.475  -7.380  1.00 30.95 LIG 0.04  C 
BRANCH 6 7
ATOM      7  CG  GLU X   2     -43.771   8.282  -8.259  1.00 31.16 LIG 0.12  C 
BRANCH 7 8
ATOM      8  CD  GLU X   2     -45.224   8.341  -8.732  1.00 32.27 LIG 0.17  C 
ATOM      9 OE1  GLU X   2     -46.134   8.354  -7.880  1.00 31.08 LIG-0.65  OA
ATOM     10 OE2  GLU X   2     -45.460   8.354  -9.962  1.00 30.98 LIG-0.65  OA
ENDBRANCH 7 8
ENDBRANCH 6 7
ENDBRANCH 5 6
BRANCH 5 11
ATOM     11  C   GLU X   2     -43.518  11.070  -9.292  1.00 31.96 LIG 0.24  C 
ATOM     12  N   ALA X   3     -43.374  10.415 -10.433  1.00 33.07 LIG-0.35  N 
ATOM     13 H    ALA X   3     -42.798   9.789 -10.561  1.00 33.07 LIG 0.16  HD
ATOM     14 O    GLU X   2     -44.304  12.012  -9.139  1.00 31.51 LIG-0.27  OA
BRANCH 12 15
ATOM     15  CA  ALA X   3     -44.207  10.717 -11.584  1.00 34.83 LIG 0.17  C 
ATOM     16  CB  ALA X   3     -43.810  12.068 -12.188  1.00 34.52 LIG 0.04  C 
BRANCH 15 17
ATOM     17  C   ALA X   3     -44.054   9.602 -12.596  1.00 35.72 LIG 0.24  C 
ATOM     18  N   ALA X   4     -43.437   8.501 -12.166  1.00 36.94 LIG-0.34  N 
ATOM     19 H    ALA X   4     -43.121   8.419 -11.370  1.00 36.94 LIG 0.16  HD
ATOM     20 O    ALA X   3     -44.463   9.751 -13.749  1.00 36.60 LIG-0.27  OA
BRANCH 18 21
ATOM     21  CA  ALA X   4     -43.234   7.318 -13.007  1.00 37.95 LIG 0.18  C 
ATOM     22  CB  ALA X   4     -42.502   7.695 -14.293  1.00 38.38 LIG 0.04  C 
BRANCH 21 23
ATOM     23  C   ALA X   4     -42.474   6.216 -12.274  1.00 38.48 LIG 0.20  C 
ATOM     24 O    ALA X   4     -42.519   5.041 -12.644  1.00 38.71 LIG-0.65  OA
ATOM     25 OXT  ALA X   4     -41.790   6.479 -11.287  1.00 39.00 LIG-0.65  OA
ENDBRANCH 21 23
ENDBRANCH 18 21
ENDBRANCH 15 17
ENDBRANCH 12 15
ENDBRANCH 5 11
ENDBRANCH 3 5
BRANCH 1 26
ATOM     26  CA  ARG X   1     -41.029  12.979  -5.707  1.00 28.22 LIG 0.27  C 
BRANCH 26 27
ATOM     27  N   ARG X   1     -40.190  12.770  -4.486  1.00 27.64 LIG-0.07  N 
ATOM     28 H3   ARG X   1     -39.539  13.376  -4.466  1.00 27.64 LIG 0.28  HD
ATOM     29 H2   ARG X   1     -39.834  11.955  -4.506  1.00 27.64 LIG 0.28  HD
ATOM     30 H1   ARG X   1     -40.697  12.855  -3.760  1.00 27.64 LIG 0.28  HD
ENDBRANCH 26 27
BRANCH 26 31
ATOM     31  CB  ARG X   1     -40.290  13.836  -6.742  1.00 28.04 LIG 0.04  C 
BRANCH 31 32
ATOM     32  CG  ARG X   1     -40.658  15.297  -6.756  1.00 27.94 LIG 0.02  C 
BRANCH 32 33
ATOM     33  CD  ARG X   1     -39.529  16.204  -6.254  1.00 29.24 LIG 0.14  C 
BRANCH 33 34
ATOM     34  NE  ARG X   1     -39.005  15.703  -4.981  1.00 27.62 LIG-0.23  N 
ATOM     35 HE   ARG X   1     -39.224  14.906  -4.745  1.00 27.62 LIG 0.18  HD
ATOM     36  CZ  ARG X   1     -38.214  16.397  -4.166  1.00 28.90 LIG 0.67  C 
ATOM     37  NH2 ARG X   1     -37.826  17.630  -4.484  1.00 29.13 LIG-0.23  N 
ATOM     38  NH1 ARG X   1     -37.798  15.854  -3.029  1.00 27.97 LIG-0.23  N 
ATOM     39 1HH2 ARG X   1     -38.087  17.986  -5.223  1.00 29.13 LIG 0.17  HD
ATOM     40 2HH2 ARG X   1     -37.315  18.071  -3.952  1.00 29.13 LIG 0.17  HD
ATOM     41 2HH1 ARG X   1     -37.287  16.301  -2.500  1.00 27.97 LIG 0.17  HD
ATOM     42 1HH1 ARG X   1     -38.039  15.055  -2.820  1.00 27.97 LIG 0.17  HD
ENDBRANCH 33 34
ENDBRANCH 32 33
ENDBRANCH 31 32
ENDBRANCH 26 31
ENDBRANCH 1 26
TORSDOF 15
ENDMDL
MODEL 8
USER: ADFR SOLUTION from run 12
USER: SCORE 13.846803 LL:  -1.489 LR: -14.316 RR:   0.000 FEB:  -9.841
USER: RMSD 4.218969
USER: SEED 404129
USER: STATUS no improvement in best in 15 clusters for 5 generations
USER: GENES 17
USER: genes 0 Translation |==|  0.58533 0.41587 0.67631
USER: genes 1 Rotation |==|  0.45786 0.51279 0.53758 0.99664
USER: genes 2 Torsion [C]-N--CA-[CB] |==|  0.36392
USER: genes 3 Torsion [N]-CA--CB-[CG] |==|  0.48572
USER: genes 4 Torsion [CA]-CB--CG-[CD] |==|  0.63419
USER: genes 5 Torsion [CB]-CG--CD-[OE1] |==|  0.25447
USER: genes 6 Torsion [N]-CA--C-[N] |==|  0.27167
USER: genes 7 Torsion [C]-N--CA-[CB] |==|  0.12223
USER: genes 8 Torsion [N]-CA--C-[N] |==|  0.11261
USER: genes 9 Torsion [C]-N--CA-[CB] |==|  0.40742
USER: genes 10 Torsion [N]-CA--C-[O] |==|  0.10693
USER: genes 11 Torsion [N]-C--CA-[N] |==|  0.50592
USER: genes 12 Torsion [C]-CA--N-[H3] |==|  0.46331
USER: genes 13 Torsion [C]-CA--CB-[CG] |==|  0.53470
USER: genes 14 Torsion [CA]-CB--CG-[CD] |==|  0.86885
USER: genes 15 Torsion [CB]-CG--CD-[NE] |==|  0.46769
USER: genes 16 Torsion [CG]-CD--NE-[HE] |==|  0.24846
ROOT
ATOM      1  C   ARG X   1     -40.820  11.837  -6.052  1.00 28.35 LIG 0.25  C 
ATOM      2 O    ARG X   1     -40.011  10.978  -5.718  1.00 27.73 LIG-0.27  OA
ATOM      3  N   GLU X   2     -41.899  11.566  -6.776  1.00 29.79 LIG-0.35  N 
ATOM      4 H    GLU X   2     -42.539  12.124  -6.912  1.00 29.79 LIG 0.16  HD
ENDROOT
BRANCH 3 5
ATOM      5  CA  GLU X   2     -42.084  10.274  -7.407  1.00 30.62 LIG 0.18  C 
BRANCH 5 6
ATOM      6  CB  GLU X   2     -43.473   9.692  -7.125  1.00 30.95 LIG 0.04  C 
BRANCH 6 7
ATOM      7  CG  GLU X   2     -43.758   8.379  -7.879  1.00 31.16 LIG 0.12  C 
BRANCH 7 8
ATOM      8  CD  GLU X   2     -45.108   8.355  -8.598  1.00 32.27 LIG 0.17  C 
ATOM      9 OE1  GLU X   2     -45.164   8.729  -9.785  1.00 31.08 LIG-0.65  OA
ATOM     10 OE2  GLU X   2     -46.122   7.979  -7.967  1.00 30.98 LIG-0.65  OA
ENDBRANCH 7 8
ENDBRANCH 6 7
ENDBRANCH 5 6
BRANCH 5 11
ATOM     11  C   GLU X   2     -41.885  10.446  -8.898  1.00 31.96 LIG 0.24  C 
ATOM     12  N   ALA X   3     -40.684  10.124  -9.349  1.00 33.07 LIG-0.35  N 
ATOM     13 H    ALA X   3     -40.030   9.878  -8.849  1.00 33.07 LIG 0.16  HD
ATOM     14 O    GLU X   2     -42.800  10.861  -9.620  1.00 31.51 LIG-0.27  OA
BRANCH 12 15
ATOM     15  CA  ALA X   3     -40.378  10.165 -10.769  1.00 34.83 LIG 0.17  C 
ATOM     16  CB  ALA X   3     -40.943  11.444 -11.398  1.00 34.52 LIG 0.04  C 
BRANCH 15 17
ATOM     17  C   ALA X   3     -38.876  10.090 -10.942  1.00 35.72 LIG 0.24  C 
ATOM     18  N   ALA X   4     -38.237   9.241 -10.136  1.00 36.94 LIG-0.34  N 
ATOM     19 H    ALA X   4     -38.634   8.771  -9.536  1.00 36.94 LIG 0.16  HD
ATOM     20 O    ALA X   3     -38.311  10.807 -11.768  1.00 36.60 LIG-0.27  OA
BRANCH 18 21
ATOM     21  CA  ALA X   4     -36.788   9.024 -10.193  1.00 37.95 LIG 0.18  C 
ATOM     22  CB  ALA X   4     -36.236   8.729  -8.800  1.00 38.38 LIG 0.04  C 
BRANCH 21 23
ATOM     23  C   ALA X   4     -36.413   7.899 -11.155  1.00 38.48 LIG 0.20  C 
ATOM     24 O    ALA X   4     -37.002   7.739 -12.226  1.00 38.71 LIG-0.65  OA
ATOM     25 OXT  ALA X   4     -35.503   7.120 -10.880  1.00 39.00 LIG-0.65  OA
ENDBRANCH 21 23
ENDBRANCH 18 21
ENDBRANCH 15 17
ENDBRANCH 12 15
ENDBRANCH 5 11
ENDBRANCH 3 5
BRANCH 1 26
ATOM     26  CA  ARG X   1     -40.639  13.292  -5.646  1.00 28.22 LIG 0.27  C 
BRANCH 26 27
ATOM     27  N   ARG X   1     -39.371  13.499  -4.880  1.00 27.64 LIG-0.07  N 
ATOM     28 H3   ARG X   1     -39.197  14.369  -4.824  1.00 27.64 LIG 0.28  HD
ATOM     29 H2   ARG X   1     -38.700  13.089  -5.298  1.00 27.64 LIG 0.28  HD
ATOM     30 H1   ARG X   1     -39.460  13.160  -4.062  1.00 27.64 LIG 0.28  HD
ENDBRANCH 26 27
BRANCH 26 31
ATOM     31  CB  ARG X   1     -40.664  14.159  -6.911  1.00 28.04 LIG 0.04  C 
BRANCH 31 32
ATOM     32  CG  ARG X   1     -40.209  15.583  -6.729  1.00 27.94 LIG 0.02  C 
BRANCH 32 33
ATOM     33  CD  ARG X   1     -40.846  16.265  -5.512  1.00 29.24 LIG 0.14  C 
BRANCH 33 34
ATOM     34  NE  ARG X   1     -40.167  17.530  -5.229  1.00 27.62 LIG-0.23  N 
ATOM     35 HE   ARG X   1     -40.463  18.239  -5.616  1.00 27.62 LIG 0.18  HD
ATOM     36  CZ  ARG X   1     -39.122  17.660  -4.415  1.00 28.90 LIG 0.67  C 
ATOM     37  NH2 ARG X   1     -38.627  16.604  -3.773  1.00 29.13 LIG-0.23  N 
ATOM     38  NH1 ARG X   1     -38.572  18.854  -4.230  1.00 27.97 LIG-0.23  N 
ATOM     39 1HH2 ARG X   1     -38.982  15.828  -3.883  1.00 29.13 LIG 0.17  HD
ATOM     40 2HH2 ARG X   1     -37.952  16.697  -3.248  1.00 29.13 LIG 0.17  HD
ATOM     41 2HH1 ARG X   1     -37.897  18.940  -3.704  1.00 27.97 LIG 0.17  HD
ATOM     42 1HH1 ARG X   1     -38.891  19.542  -4.636  1.00 27.97 LIG 0.17  HD
ENDBRANCH 33 34
ENDBRANCH 32 33
ENDBRANCH 31 32
ENDBRANCH 26 31
ENDBRANCH 1 26
TORSDOF 15
ENDMDL
MODEL 9
USER: ADFR SOLUTION from run 66
USER: SCORE 13.493230 LL:  -2.399 LR: -14.317 RR:   0.000 FEB:  -9.842
USER: RMSD 3.530606
USER: SEED 65
USER: STATUS no improvement in best in 14 clusters for 5 generations
USER: GENES 17
USER: genes 0 Translation |==|  0.56602 0.40858 0.65204
USER: genes 1 Rotation |==|  0.52768 0.44049 0.51566 0.99543
USER: genes 2 Torsion [C]-N--CA-[CB] |==|  0.44753
USER: genes 3 Torsion [N]-CA--CB-[CG] |==|  0.62366
USER: genes 4 Torsion [CA]-CB--CG-[CD] |==|  0.18682
USER: genes 5 Torsion [CB]-CG--CD-[OE1] |==|  0.83352
USER: genes 6 Torsion [N]-CA--C-[N] |==|  0.26115
USER: genes 7 Torsion [C]-N--CA-[CB] |==|  0.46175
USER: genes 8 Torsion [N]-CA--C-[N] |==|  0.88059
USER: genes 9 Torsion [C]-N--CA-[CB] |==|  0.22717
USER: genes 10 Torsion [N]-CA--C-[O] |==|  0.54441
USER: genes 11 Torsion [N]-C--CA-[N] |==|  0.48281
USER: genes 12 Torsion [C]-CA--N-[H3] |==|  0.02383
USER: genes 13 Torsion [C]-CA--CB-[CG] |==|  0.39964
USER: genes 14 Torsion [CA]-CB--CG-[CD] |==|  0.45270
USER: genes 15 Torsion [CB]-CG--CD-[NE] |==|  0.49700
USER: genes 16 Torsion [CG]-CD--NE-[HE] |==|  0.16763
ROOT
ATOM      1  C   ARG X   1     -41.124  11.684  -6.562  1.00 28.35 LIG 0.25  C 
ATOM      2 O    ARG X   1     -40.464  10.683  -6.304  1.00 27.73 LIG-0.27  OA
ATOM      3  N   GLU X   2     -41.967  11.746  -7.586  1.00 29.79 LIG-0.35  N 
ATOM      4 H    GLU X   2     -42.528  12.386  -7.709  1.00 29.79 LIG 0.16  HD
ENDROOT
BRANCH 3 5
ATOM      5  CA  GLU X   2     -42.004  10.711  -8.601  1.00 30.62 LIG 0.18  C 
BRANCH 5 6
ATOM      6  CB  GLU X   2     -43.313  10.735  -9.396  1.00 30.95 LIG 0.04  C 
BRANCH 6 7
ATOM      7  CG  GLU X   2     -43.930   9.340  -9.614  1.00 31.16 LIG 0.12  C 
BRANCH 7 8
ATOM      8  CD  GLU X   2     -44.434   8.676  -8.332  1.00 32.27 LIG 0.17  C 
ATOM      9 OE1  GLU X   2     -43.624   8.455  -7.411  1.00 31.08 LIG-0.65  OA
ATOM     10 OE2  GLU X   2     -45.642   8.354  -8.252  1.00 30.98 LIG-0.65  OA
ENDBRANCH 7 8
ENDBRANCH 6 7
ENDBRANCH 5 6
BRANCH 5 11
ATOM     11  C   GLU X   2     -40.828  10.920  -9.530  1.00 31.96 LIG 0.24  C 
ATOM     12  N   ALA X   3     -39.740  10.229  -9.230  1.00 33.07 LIG-0.35  N 
ATOM     13 H    ALA X   3     -39.663   9.727  -8.537  1.00 33.07 LIG 0.16  HD
ATOM     14 O    GLU X   2     -40.906  11.691 -10.494  1.00 31.51 LIG-0.27  OA
BRANCH 12 15
ATOM     15  CA  ALA X   3     -38.563  10.273 -10.081  1.00 34.83 LIG 0.17  C 
ATOM     16  CB  ALA X   3     -37.356   9.677  -9.349  1.00 34.52 LIG 0.04  C 
BRANCH 15 17
ATOM     17  C   ALA X   3     -38.859   9.511 -11.355  1.00 35.72 LIG 0.24  C 
ATOM     18  N   ALA X   4     -39.505   8.354 -11.208  1.00 36.94 LIG-0.34  N 
ATOM     19 H    ALA X   4     -39.730   8.034 -10.443  1.00 36.94 LIG 0.16  HD
ATOM     20 O    ALA X   3     -38.484   9.953 -12.442  1.00 36.60 LIG-0.27  OA
BRANCH 18 21
ATOM     21  CA  ALA X   4     -39.895   7.509 -12.340  1.00 37.95 LIG 0.18  C 
ATOM     22  CB  ALA X   4     -38.716   6.654 -12.801  1.00 38.38 LIG 0.04  C 
BRANCH 21 23
ATOM     23  C   ALA X   4     -41.090   6.618 -12.006  1.00 38.48 LIG 0.20  C 
ATOM     24 O    ALA X   4     -41.387   5.645 -12.701  1.00 38.71 LIG-0.65  OA
ATOM     25 OXT  ALA X   4     -41.789   6.854 -11.023  1.00 39.00 LIG-0.65  OA
ENDBRANCH 21 23
ENDBRANCH 18 21
ENDBRANCH 15 17
ENDBRANCH 12 15
ENDBRANCH 5 11
ENDBRANCH 3 5
BRANCH 1 26
ATOM     26  CA  ARG X   1     -41.023  12.937  -5.706  1.00 28.22 LIG 0.27  C 
BRANCH 26 27
ATOM     27  N   ARG X   1     -40.166  12.717  -4.500  1.00 27.64 LIG-0.07  N 
ATOM     28 H3   ARG X   1     -39.765  11.925  -4.562  1.00 27.64 LIG 0.28  HD
ATOM     29 H2   ARG X   1     -40.671  12.737  -3.768  1.00 27.64 LIG 0.28  HD
ATOM     30 H1   ARG X   1     -39.550  13.358  -4.453  1.00 27.64 LIG 0.28  HD
ENDBRANCH 26 27
BRANCH 26 31
ATOM     31  CB  ARG X   1     -40.470  14.077  -6.572  1.00 28.04 LIG 0.04  C 
BRANCH 31 32
ATOM     32  CG  ARG X   1     -41.040  15.441  -6.287  1.00 27.94 LIG 0.02  C 
BRANCH 32 33
ATOM     33  CD  ARG X   1     -40.187  16.579  -6.861  1.00 29.24 LIG 0.14  C 
BRANCH 33 34
ATOM     34  NE  ARG X   1     -40.808  17.873  -6.571  1.00 27.62 LIG-0.23  N 
ATOM     35 HE   ARG X   1     -40.923  18.085  -5.746  1.00 27.62 LIG 0.18  HD
ATOM     36  CZ  ARG X   1     -41.206  18.742  -7.497  1.00 28.90 LIG 0.67  C 
ATOM     37  NH2 ARG X   1     -41.039  18.479  -8.791  1.00 29.13 LIG-0.23  N 
ATOM     38  NH1 ARG X   1     -41.766  19.888  -7.130  1.00 27.97 LIG-0.23  N 
ATOM     39 1HH2 ARG X   1     -40.671  17.741  -9.036  1.00 29.13 LIG 0.17  HD
ATOM     40 2HH2 ARG X   1     -41.299  19.046  -9.383  1.00 29.13 LIG 0.17  HD
ATOM     41 2HH1 ARG X   1     -42.025  20.451  -7.727  1.00 27.97 LIG 0.17  HD
ATOM     42 1HH1 ARG X   1     -41.871  20.067  -6.296  1.00 27.97 LIG 0.17  HD
ENDBRANCH 33 34
ENDBRANCH 32 33
ENDBRANCH 31 32
ENDBRANCH 26 31
ENDBRANCH 1 26
TORSDOF 15
ENDMDL
MODEL 10
USER: ADFR SOLUTION from run 21
USER: SCORE 13.706266 LL:  -2.234 LR: -14.294 RR:   0.000 FEB:  -9.819
USER: RMSD 3.312793
USER: SEED 20
USER: STATUS no improvement in best in 20 clusters for 5 generations
USER: GENES 17
USER: genes 0 Translation |==|  0.55721 0.40809 0.64348
USER: genes 1 Rotation |==|  0.51987 0.45676 0.50647 0.99769
USER: genes 2 Torsion [C]-N--CA-[CB] |==|  0.15556
USER: genes 3 Torsion [N]-CA--CB-[CG] |==|  0.46394
USER: genes 4 Torsion [CA]-CB--CG-[CD] |==|  0.16498
USER: genes 5 Torsion [CB]-CG--CD-[OE1] |==|  0.43894
USER: genes 6 Torsion [N]-CA--C-[N] |==|  0.43246
USER: genes 7 Torsion [C]-N--CA-[CB] |==|  0.46496
USER: genes 8 Torsion [N]-CA--C-[N] |==|  0.89799
USER: genes 9 Torsion [C]-N--CA-[CB] |==|  0.37046
USER: genes 10 Torsion [N]-CA--C-[O] |==|  0.45135
USER: genes 11 Torsion [N]-C--CA-[N] |==|  0.44362
USER: genes 12 Torsion [C]-CA--N-[H3] |==|  0.71407
USER: genes 13 Torsion [C]-CA--CB-[CG] |==|  0.38079
USER: genes 14 Torsion [CA]-CB--CG-[CD] |==|  0.33203
USER: genes 15 Torsion [CB]-CG--CD-[NE] |==|  0.87160
USER: genes 16 Torsion [CG]-CD--NE-[HE] |==|  0.03091
ROOT
ATOM      1  C   ARG X   1     -41.263  11.674  -6.742  1.00 28.35 LIG 0.25  C 
ATOM      2 O    ARG X   1     -40.623  10.656  -6.498  1.00 27.73 LIG-0.27  OA
ATOM      3  N   GLU X   2     -42.169  11.739  -7.709  1.00 29.79 LIG-0.35  N 
ATOM      4 H    GLU X   2     -42.714  12.395  -7.814  1.00 29.79 LIG 0.16  HD
ENDROOT
BRANCH 3 5
ATOM      5  CA  GLU X   2     -42.312  10.678  -8.688  1.00 30.62 LIG 0.18  C 
BRANCH 5 6
ATOM      6  CB  GLU X   2     -42.562   9.319  -8.027  1.00 30.95 LIG 0.04  C 
BRANCH 6 7
ATOM      7  CG  GLU X   2     -43.031   8.230  -9.010  1.00 31.16 LIG 0.12  C 
BRANCH 7 8
ATOM      8  CD  GLU X   2     -42.043   7.950 -10.145  1.00 32.27 LIG 0.17  C 
ATOM      9 OE1  GLU X   2     -42.101   6.853 -10.735  1.00 31.08 LIG-0.65  OA
ATOM     10 OE2  GLU X   2     -41.192   8.821 -10.435  1.00 30.98 LIG-0.65  OA
ENDBRANCH 7 8
ENDBRANCH 6 7
ENDBRANCH 5 6
BRANCH 5 11
ATOM     11  C   GLU X   2     -43.466  11.032  -9.600  1.00 31.96 LIG 0.24  C 
ATOM     12  N   ALA X   3     -43.428  10.478 -10.802  1.00 33.07 LIG-0.35  N 
ATOM     13 H    ALA X   3     -42.783   9.987 -11.087  1.00 33.07 LIG 0.16  HD
ATOM     14 O    GLU X   2     -44.368  11.790  -9.224  1.00 31.51 LIG-0.27  OA
BRANCH 12 15
ATOM     15  CA  ALA X   3     -44.511  10.668 -11.752  1.00 34.83 LIG 0.17  C 
ATOM     16  CB  ALA X   3     -44.084  10.195 -13.146  1.00 34.52 LIG 0.04  C 
BRANCH 15 17
ATOM     17  C   ALA X   3     -45.722   9.903 -11.263  1.00 35.72 LIG 0.24  C 
ATOM     18  N   ALA X   4     -45.476   8.734 -10.671  1.00 36.94 LIG-0.34  N 
ATOM     19 H    ALA X   4     -44.685   8.409 -10.580  1.00 36.94 LIG 0.16  HD
ATOM     20 O    ALA X   3     -46.854  10.353 -11.447  1.00 36.60 LIG-0.27  OA
BRANCH 18 21
ATOM     21  CA  ALA X   4     -46.532   7.883 -10.115  1.00 37.95 LIG 0.18  C 
ATOM     22  CB  ALA X   4     -46.335   6.432 -10.549  1.00 38.38 LIG 0.04  C 
BRANCH 21 23
ATOM     23  C   ALA X   4     -46.597   7.971  -8.592  1.00 38.48 LIG 0.20  C 
ATOM     24 O    ALA X   4     -47.588   7.598  -7.963  1.00 38.71 LIG-0.65  OA
ATOM     25 OXT  ALA X   4     -45.648   8.419  -7.951  1.00 39.00 LIG-0.65  OA
ENDBRANCH 21 23
ENDBRANCH 18 21
ENDBRANCH 15 17
ENDBRANCH 12 15
ENDBRANCH 5 11
ENDBRANCH 3 5
BRANCH 1 26
ATOM     26  CA  ARG X   1     -41.060  12.946  -5.933  1.00 28.22 LIG 0.27  C 
BRANCH 26 27
ATOM     27  N   ARG X   1     -40.421  12.664  -4.610  1.00 27.64 LIG-0.07  N 
ATOM     28 H3   ARG X   1     -41.038  12.696  -3.970  1.00 27.64 LIG 0.28  HD
ATOM     29 H2   ARG X   1     -39.794  13.274  -4.446  1.00 27.64 LIG 0.28  HD
ATOM     30 H1   ARG X   1     -40.051  11.855  -4.625  1.00 27.64 LIG 0.28  HD
ENDBRANCH 26 27
BRANCH 26 31
ATOM     31  CB  ARG X   1     -40.208  13.918  -6.758  1.00 28.04 LIG 0.04  C 
BRANCH 31 32
ATOM     32  CG  ARG X   1     -40.663  15.354  -6.739  1.00 27.94 LIG 0.02  C 
BRANCH 32 33
ATOM     33  CD  ARG X   1     -39.607  16.310  -6.170  1.00 29.24 LIG 0.14  C 
BRANCH 33 34
ATOM     34  NE  ARG X   1     -39.043  15.762  -4.936  1.00 27.62 LIG-0.23  N 
ATOM     35 HE   ARG X   1     -39.226  14.945  -4.740  1.00 27.62 LIG 0.18  HD
ATOM     36  CZ  ARG X   1     -38.265  16.441  -4.096  1.00 28.90 LIG 0.67  C 
ATOM     37  NH2 ARG X   1     -37.931  17.704  -4.352  1.00 29.13 LIG-0.23  N 
ATOM     38  NH1 ARG X   1     -37.808  15.854  -2.997  1.00 27.97 LIG-0.23  N 
ATOM     39 1HH2 ARG X   1     -38.218  18.089  -5.065  1.00 29.13 LIG 0.17  HD
ATOM     40 2HH2 ARG X   1     -37.428  18.136  -3.803  1.00 29.13 LIG 0.17  HD
ATOM     41 2HH1 ARG X   1     -37.305  16.291  -2.452  1.00 27.97 LIG 0.17  HD
ATOM     42 1HH1 ARG X   1     -38.014  15.036  -2.829  1.00 27.97 LIG 0.17  HD
ENDBRANCH 33 34
ENDBRANCH 32 33
ENDBRANCH 31 32
ENDBRANCH 26 31
ENDBRANCH 1 26
TORSDOF 15
ENDMDL
MODEL 11
USER: ADFR SOLUTION from run 66
USER: SCORE 13.911698 LL:  -2.083 LR: -14.144 RR:   0.000 FEB:  -9.669
USER: RMSD 3.272494
USER: SEED 65
USER: STATUS no improvement in best in 14 clusters for 5 generations
USER: GENES 17
USER: genes 0 Translation |==|  0.63263 0.50778 0.64348
USER: genes 1 Rotation |==|  0.44481 0.69623 0.67248 0.92273
USER: genes 2 Torsion [C]-N--CA-[CB] |==|  0.50000
USER: genes 3 Torsion [N]-CA--CB-[CG] |==|  0.28661
USER: genes 4 Torsion [CA]-CB--CG-[CD] |==|  0.41607
USER: genes 5 Torsion [CB]-CG--CD-[OE1] |==|  0.87519
USER: genes 6 Torsion [N]-CA--C-[N] |==|  0.42255
USER: genes 7 Torsion [C]-N--CA-[CB] |==|  0.41538
USER: genes 8 Torsion [N]-CA--C-[N] |==|  0.92558
USER: genes 9 Torsion [C]-N--CA-[CB] |==|  0.85169
USER: genes 10 Torsion [N]-CA--C-[O] |==|  0.50661
USER: genes 11 Torsion [N]-C--CA-[N] |==|  0.04029
USER: genes 12 Torsion [C]-CA--N-[H3] |==|  0.68166
USER: genes 13 Torsion [C]-CA--CB-[CG] |==|  0.57611
USER: genes 14 Torsion [CA]-CB--CG-[CD] |==|  0.65409
USER: genes 15 Torsion [CB]-CG--CD-[NE] |==|  0.68886
USER: genes 16 Torsion [CG]-CD--NE-[HE] |==|  0.03016
ROOT
ATOM      1  C   ARG X   1     -40.075  13.767  -6.742  1.00 28.35 LIG 0.25  C 
ATOM      2 O    ARG X   1     -38.973  13.440  -7.168  1.00 27.73 LIG-0.27  OA
ATOM      3  N   GLU X   2     -41.039  12.890  -6.491  1.00 29.79 LIG-0.35  N 
ATOM      4 H    GLU X   2     -41.767  13.082  -6.076  1.00 29.79 LIG 0.16  HD
ENDROOT
BRANCH 3 5
ATOM      5  CA  GLU X   2     -40.933  11.506  -6.909  1.00 30.62 LIG 0.18  C 
BRANCH 5 6
ATOM      6  CB  GLU X   2     -42.165  10.689  -6.508  1.00 30.95 LIG 0.04  C 
BRANCH 6 7
ATOM      7  CG  GLU X   2     -43.131  10.413  -7.676  1.00 31.16 LIG 0.12  C 
BRANCH 7 8
ATOM      8  CD  GLU X   2     -43.904   9.099  -7.546  1.00 32.27 LIG 0.17  C 
ATOM      9 OE1  GLU X   2     -43.288   8.071  -7.202  1.00 31.08 LIG-0.65  OA
ATOM     10 OE2  GLU X   2     -45.128   9.089  -7.808  1.00 30.98 LIG-0.65  OA
ENDBRANCH 7 8
ENDBRANCH 6 7
ENDBRANCH 5 6
BRANCH 5 11
ATOM     11  C   GLU X   2     -40.760  11.481  -8.412  1.00 31.96 LIG 0.24  C 
ATOM     12  N   ALA X   3     -40.097  10.439  -8.888  1.00 33.07 LIG-0.35  N 
ATOM     13 H    ALA X   3     -39.739   9.830  -8.399  1.00 33.07 LIG 0.16  HD
ATOM     14 O    GLU X   2     -41.215  12.385  -9.122  1.00 31.51 LIG-0.27  OA
BRANCH 12 15
ATOM     15  CA  ALA X   3     -39.925  10.246 -10.318  1.00 34.83 LIG 0.17  C 
ATOM     16  CB  ALA X   3     -38.607   9.518 -10.602  1.00 34.52 LIG 0.04  C 
BRANCH 15 17
ATOM     17  C   ALA X   3     -41.107   9.460 -10.845  1.00 35.72 LIG 0.24  C 
ATOM     18  N   ALA X   4     -41.714   8.658  -9.969  1.00 36.94 LIG-0.34  N 
ATOM     19 H    ALA X   4     -41.452   8.565  -9.156  1.00 36.94 LIG 0.16  HD
ATOM     20 O    ALA X   3     -41.441   9.561 -12.026  1.00 36.60 LIG-0.27  OA
BRANCH 18 21
ATOM     21  CA  ALA X   4     -42.891   7.852 -10.307  1.00 37.95 LIG 0.18  C 
ATOM     22  CB  ALA X   4     -43.987   8.731 -10.907  1.00 38.38 LIG 0.04  C 
BRANCH 21 23
ATOM     23  C   ALA X   4     -42.550   6.711 -11.262  1.00 38.48 LIG 0.20  C 
ATOM     24 O    ALA X   4     -43.416   5.949 -11.696  1.00 38.71 LIG-0.65  OA
ATOM     25 OXT  ALA X   4     -41.391   6.526 -11.626  1.00 39.00 LIG-0.65  OA
ENDBRANCH 21 23
ENDBRANCH 18 21
ENDBRANCH 15 17
ENDBRANCH 12 15
ENDBRANCH 5 11
ENDBRANCH 3 5
BRANCH 1 26
ATOM     26  CA  ARG X   1     -40.411  15.224  -6.462  1.00 28.22 LIG 0.27  C 
BRANCH 26 27
ATOM     27  N   ARG X   1     -41.647  15.357  -5.630  1.00 27.64 LIG-0.07  N 
ATOM     28 H3   ARG X   1     -42.284  15.756  -6.107  1.00 27.64 LIG 0.28  HD
ATOM     29 H2   ARG X   1     -41.469  15.846  -4.908  1.00 27.64 LIG 0.28  HD
ATOM     30 H1   ARG X   1     -41.925  14.550  -5.380  1.00 27.64 LIG 0.28  HD
ENDBRANCH 26 27
BRANCH 26 31
ATOM     31  CB  ARG X   1     -39.209  15.877  -5.767  1.00 28.04 LIG 0.04  C 
BRANCH 31 32
ATOM     32  CG  ARG X   1     -39.535  17.039  -4.866  1.00 27.94 LIG 0.02  C 
BRANCH 32 33
ATOM     33  CD  ARG X   1     -38.767  18.315  -5.231  1.00 29.24 LIG 0.14  C 
BRANCH 33 34
ATOM     34  NE  ARG X   1     -37.801  18.641  -4.180  1.00 27.62 LIG-0.23  N 
ATOM     35 HE   ARG X   1     -37.655  18.050  -3.573  1.00 27.62 LIG 0.18  HD
ATOM     36  CZ  ARG X   1     -37.133  19.790  -4.101  1.00 28.90 LIG 0.67  C 
ATOM     37  NH2 ARG X   1     -37.302  20.738  -5.020  1.00 29.13 LIG-0.23  N 
ATOM     38  NH1 ARG X   1     -36.283  19.992  -3.102  1.00 27.97 LIG-0.23  N 
ATOM     39 1HH2 ARG X   1     -37.847  20.611  -5.673  1.00 29.13 LIG 0.17  HD
ATOM     40 2HH2 ARG X   1     -36.866  21.477  -4.960  1.00 29.13 LIG 0.17  HD
ATOM     41 2HH1 ARG X   1     -35.850  20.733  -3.048  1.00 27.97 LIG 0.17  HD
ATOM     42 1HH1 ARG X   1     -36.163  19.381  -2.508  1.00 27.97 LIG 0.17  HD
ENDBRANCH 33 34
ENDBRANCH 32 33
ENDBRANCH 31 32
ENDBRANCH 26 31
ENDBRANCH 1 26
TORSDOF 15
ENDMDL
MODEL 12
USER: ADFR SOLUTION from run 124
USER: SCORE 13.808500 LL:  -1.753 LR: -13.999 RR:   0.000 FEB:  -9.524
USER: RMSD 4.760362
USER: SEED 123
USER: STATUS no improvement in best in 19 clusters for 5 generations
USER: GENES 17
USER: genes 0 Translation |==|  0.60118 0.39376 0.65542
USER: genes 1 Rotation |==|  0.47421 0.55414 0.52181 0.99591
USER: genes 2 Torsion [C]-N--CA-[CB] |==|  0.39829
USER: genes 3 Torsion [N]-CA--CB-[CG] |==|  0.52285
USER: genes 4 Torsion [CA]-CB--CG-[CD] |==|  0.61016
USER: genes 5 Torsion [CB]-CG--CD-[OE1] |==|  0.25438
USER: genes 6 Torsion [N]-CA--C-[N] |==|  0.21885
USER: genes 7 Torsion [C]-N--CA-[CB] |==|  0.14023
USER: genes 8 Torsion [N]-CA--C-[N] |==|  0.13569
USER: genes 9 Torsion [C]-N--CA-[CB] |==|  0.37471
USER: genes 10 Torsion [N]-CA--C-[O] |==|  0.63046
USER: genes 11 Torsion [N]-C--CA-[N] |==|  0.08630
USER: genes 12 Torsion [C]-CA--N-[H3] |==|  0.50362
USER: genes 13 Torsion [C]-CA--CB-[CG] |==|  0.24769
USER: genes 14 Torsion [CA]-CB--CG-[CD] |==|  0.38749
USER: genes 15 Torsion [CB]-CG--CD-[NE] |==|  0.02201
USER: genes 16 Torsion [CG]-CD--NE-[HE] |==|  0.08262
ROOT
ATOM      1  C   ARG X   1     -40.570  11.373  -6.491  1.00 28.35 LIG 0.25  C 
ATOM      2 O    ARG X   1     -39.791  10.439  -6.333  1.00 27.73 LIG-0.27  OA
ATOM      3  N   GLU X   2     -41.771  11.224  -7.038  1.00 29.79 LIG-0.35  N 
ATOM      4 H    GLU X   2     -42.376  11.834  -7.042  1.00 29.79 LIG 0.16  HD
ENDROOT
BRANCH 3 5
ATOM      5  CA  GLU X   2     -42.160   9.986  -7.686  1.00 30.62 LIG 0.18  C 
BRANCH 5 6
ATOM      6  CB  GLU X   2     -43.635   9.652  -7.443  1.00 30.95 LIG 0.04  C 
BRANCH 6 7
ATOM      7  CG  GLU X   2     -44.042   8.252  -7.942  1.00 31.16 LIG 0.12  C 
BRANCH 7 8
ATOM      8  CD  GLU X   2     -45.422   8.203  -8.600  1.00 32.27 LIG 0.17  C 
ATOM      9 OE1  GLU X   2     -45.506   8.367  -9.833  1.00 31.08 LIG-0.65  OA
ATOM     10 OE2  GLU X   2     -46.430   8.020  -7.880  1.00 30.98 LIG-0.65  OA
ENDBRANCH 7 8
ENDBRANCH 6 7
ENDBRANCH 5 6
BRANCH 5 11
ATOM     11  C   GLU X   2     -41.897  10.129  -9.169  1.00 31.96 LIG 0.24  C 
ATOM     12  N   ALA X   3     -40.635   9.978  -9.538  1.00 33.07 LIG-0.35  N 
ATOM     13 H    ALA X   3     -39.984   9.854  -8.990  1.00 33.07 LIG 0.16  HD
ATOM     14 O    GLU X   2     -42.817  10.372  -9.960  1.00 31.51 LIG-0.27  OA
BRANCH 12 15
ATOM     15  CA  ALA X   3     -40.251  10.012 -10.938  1.00 34.83 LIG 0.17  C 
ATOM     16  CB  ALA X   3     -40.832  11.255 -11.620  1.00 34.52 LIG 0.04  C 
BRANCH 15 17
ATOM     17  C   ALA X   3     -38.740   9.998 -11.025  1.00 35.72 LIG 0.24  C 
ATOM     18  N   ALA X   4     -38.121   9.070 -10.296  1.00 36.94 LIG-0.34  N 
ATOM     19 H    ALA X   4     -38.536   8.516  -9.786  1.00 36.94 LIG 0.16  HD
ATOM     20 O    ALA X   3     -38.152  10.831 -11.716  1.00 36.60 LIG-0.27  OA
BRANCH 18 21
ATOM     21  CA  ALA X   4     -36.664   8.900 -10.289  1.00 37.95 LIG 0.18  C 
ATOM     22  CB  ALA X   4     -36.152   8.729  -8.860  1.00 38.38 LIG 0.04  C 
BRANCH 21 23
ATOM     23  C   ALA X   4     -36.220   7.720 -11.150  1.00 38.48 LIG 0.20  C 
ATOM     24 O    ALA X   4     -35.406   6.889 -10.742  1.00 38.71 LIG-0.65  OA
ATOM     25 OXT  ALA X   4     -36.671   7.570 -12.284  1.00 39.00 LIG-0.65  OA
ENDBRANCH 21 23
ENDBRANCH 18 21
ENDBRANCH 15 17
ENDBRANCH 12 15
ENDBRANCH 5 11
ENDBRANCH 3 5
BRANCH 1 26
ATOM     26  CA  ARG X   1     -40.208  12.785  -6.057  1.00 28.22 LIG 0.27  C 
BRANCH 26 27
ATOM     27  N   ARG X   1     -41.414  13.560  -5.630  1.00 27.64 LIG-0.07  N 
ATOM     28 H3   ARG X   1     -41.171  14.384  -5.401  1.00 27.64 LIG 0.28  HD
ATOM     29 H2   ARG X   1     -41.794  13.159  -4.933  1.00 27.64 LIG 0.28  HD
ATOM     30 H1   ARG X   1     -41.995  13.598  -6.303  1.00 27.64 LIG 0.28  HD
ENDBRANCH 26 27
BRANCH 26 31
ATOM     31  CB  ARG X   1     -39.181  12.697  -4.920  1.00 28.04 LIG 0.04  C 
BRANCH 31 32
ATOM     32  CG  ARG X   1     -37.739  12.661  -5.353  1.00 27.94 LIG 0.02  C 
BRANCH 32 33
ATOM     33  CD  ARG X   1     -36.823  13.506  -4.459  1.00 29.24 LIG 0.14  C 
BRANCH 33 34
ATOM     34  NE  ARG X   1     -37.562  13.988  -3.291  1.00 27.62 LIG-0.23  N 
ATOM     35 HE   ARG X   1     -38.208  13.502  -2.997  1.00 27.62 LIG 0.18  HD
ATOM     36  CZ  ARG X   1     -37.304  15.127  -2.652  1.00 28.90 LIG 0.67  C 
ATOM     37  NH2 ARG X   1     -36.306  15.914  -3.048  1.00 29.13 LIG-0.23  N 
ATOM     38  NH1 ARG X   1     -38.039  15.479  -1.605  1.00 27.97 LIG-0.23  N 
ATOM     39 1HH2 ARG X   1     -35.822  15.690  -3.722  1.00 29.13 LIG 0.17  HD
ATOM     40 2HH2 ARG X   1     -36.146  16.649  -2.629  1.00 29.13 LIG 0.17  HD
ATOM     41 2HH1 ARG X   1     -37.874  16.215  -1.191  1.00 27.97 LIG 0.17  HD
ATOM     42 1HH1 ARG X   1     -38.681  14.971  -1.340  1.00 27.97 LIG 0.17  HD
ENDBRANCH 33 34
ENDBRANCH 32 33
ENDBRANCH 31 32
ENDBRANCH 26 31
ENDBRANCH 1 26
TORSDOF 15
ENDMDL
MODEL 13
USER: ADFR SOLUTION from run 170
USER: SCORE 13.779733 LL:  -1.648 LR: -13.982 RR:   0.000 FEB:  -9.507
USER: RMSD 3.344844
USER: SEED 169
USER: STATUS no improvement in best in 14 clusters for 5 generations
USER: GENES 17
USER: genes 0 Translation |==|  0.56166 0.39421 0.66075
USER: genes 1 Rotation |==|  0.48185 0.56667 0.55217 0.99245
USER: genes 2 Torsion [C]-N--CA-[CB] |==|  0.43889
USER: genes 3 Torsion [N]-CA--CB-[CG] |==|  0.52513
USER: genes 4 Torsion [CA]-CB--CG-[CD] |==|  0.57291
USER: genes 5 Torsion [CB]-CG--CD-[OE1] |==|  0.23949
USER: genes 6 Torsion [N]-CA--C-[N] |==|  0.42290
USER: genes 7 Torsion [C]-N--CA-[CB] |==|  0.19689
USER: genes 8 Torsion [N]-CA--C-[N] |==|  0.58349
USER: genes 9 Torsion [C]-N--CA-[CB] |==|  0.22092
USER: genes 10 Torsion [N]-CA--C-[O] |==|  0.18676
USER: genes 11 Torsion [N]-C--CA-[N] |==|  0.35738
USER: genes 12 Torsion [C]-CA--N-[H3] |==|  0.09068
USER: genes 13 Torsion [C]-CA--CB-[CG] |==|  0.74385
USER: genes 14 Torsion [CA]-CB--CG-[CD] |==|  0.71468
USER: genes 15 Torsion [CB]-CG--CD-[NE] |==|  0.26170
USER: genes 16 Torsion [CG]-CD--NE-[HE] |==|  0.98933
ROOT
ATOM      1  C   ARG X   1     -41.193  11.382  -6.379  1.00 28.35 LIG 0.25  C 
ATOM      2 O    ARG X   1     -40.304  10.540  -6.307  1.00 27.73 LIG-0.27  OA
ATOM      3  N   GLU X   2     -42.399  11.115  -6.863  1.00 29.79 LIG-0.35  N 
ATOM      4 H    GLU X   2     -43.069  11.650  -6.807  1.00 29.79 LIG 0.16  HD
ENDROOT
BRANCH 3 5
ATOM      5  CA  GLU X   2     -42.685   9.865  -7.543  1.00 30.62 LIG 0.18  C 
BRANCH 5 6
ATOM      6  CB  GLU X   2     -44.180   9.536  -7.532  1.00 30.95 LIG 0.04  C 
BRANCH 6 7
ATOM      7  CG  GLU X   2     -44.505   8.120  -8.044  1.00 31.16 LIG 0.12  C 
BRANCH 7 8
ATOM      8  CD  GLU X   2     -45.910   7.979  -8.634  1.00 32.27 LIG 0.17  C 
ATOM      9 OE1  GLU X   2     -46.088   8.260  -9.835  1.00 31.08 LIG-0.65  OA
ATOM     10 OE2  GLU X   2     -46.844   7.604  -7.888  1.00 30.98 LIG-0.65  OA
ENDBRANCH 7 8
ENDBRANCH 6 7
ENDBRANCH 5 6
BRANCH 5 11
ATOM     11  C   GLU X   2     -42.188   9.981  -8.967  1.00 31.96 LIG 0.24  C 
ATOM     12  N   ALA X   3     -41.838   8.840  -9.539  1.00 33.07 LIG-0.35  N 
ATOM     13 H    ALA X   3     -41.838   8.079  -9.138  1.00 33.07 LIG 0.16  HD
ATOM     14 O    GLU X   2     -42.123  11.079  -9.534  1.00 31.51 LIG-0.27  OA
BRANCH 12 15
ATOM     15  CA  ALA X   3     -41.418   8.793 -10.929  1.00 34.83 LIG 0.17  C 
ATOM     16  CB  ALA X   3     -40.040   9.443 -11.091  1.00 34.52 LIG 0.04  C 
BRANCH 15 17
ATOM     17  C   ALA X   3     -41.395   7.347 -11.378  1.00 35.72 LIG 0.24  C 
ATOM     18  N   ALA X   4     -40.502   7.041 -12.319  1.00 36.94 LIG-0.34  N 
ATOM     19 H    ALA X   4     -39.976   7.620 -12.677  1.00 36.94 LIG 0.16  HD
ATOM     20 O    ALA X   3     -42.189   6.537 -10.898  1.00 36.60 LIG-0.27  OA
BRANCH 18 21
ATOM     21  CA  ALA X   4     -40.328   5.683 -12.843  1.00 37.95 LIG 0.18  C 
ATOM     22  CB  ALA X   4     -41.412   5.362 -13.870  1.00 38.38 LIG 0.04  C 
BRANCH 21 23
ATOM     23  C   ALA X   4     -38.945   5.478 -13.458  1.00 38.48 LIG 0.20  C 
ATOM     24 O    ALA X   4     -37.923   5.487 -12.771  1.00 38.71 LIG-0.65  OA
ATOM     25 OXT  ALA X   4     -38.821   5.295 -14.667  1.00 39.00 LIG-0.65  OA
ENDBRANCH 21 23
ENDBRANCH 18 21
ENDBRANCH 15 17
ENDBRANCH 12 15
ENDBRANCH 5 11
ENDBRANCH 3 5
BRANCH 1 26
ATOM     26  CA  ARG X   1     -40.967  12.810  -5.905  1.00 28.22 LIG 0.27  C 
BRANCH 26 27
ATOM     27  N   ARG X   1     -40.407  12.850  -4.518  1.00 27.64 LIG-0.07  N 
ATOM     28 H3   ARG X   1     -39.884  12.142  -4.388  1.00 27.64 LIG 0.28  HD
ATOM     29 H2   ARG X   1     -41.073  12.838  -3.928  1.00 27.64 LIG 0.28  HD
ATOM     30 H1   ARG X   1     -39.931  13.594  -4.412  1.00 27.64 LIG 0.28  HD
ENDBRANCH 26 27
BRANCH 26 31
ATOM     31  CB  ARG X   1     -40.030  13.511  -6.896  1.00 28.04 LIG 0.04  C 
BRANCH 31 32
ATOM     32  CG  ARG X   1     -38.563  13.440  -6.561  1.00 27.94 LIG 0.02  C 
BRANCH 32 33
ATOM     33  CD  ARG X   1     -38.022  14.743  -5.960  1.00 29.24 LIG 0.14  C 
BRANCH 33 34
ATOM     34  NE  ARG X   1     -38.060  14.680  -4.498  1.00 27.62 LIG-0.23  N 
ATOM     35 HE   ARG X   1     -38.411  13.983  -4.137  1.00 27.62 LIG 0.18  HD
ATOM     36  CZ  ARG X   1     -37.590  15.626  -3.690  1.00 28.90 LIG 0.67  C 
ATOM     37  NH2 ARG X   1     -37.020  16.721  -4.187  1.00 29.13 LIG-0.23  N 
ATOM     38  NH1 ARG X   1     -37.679  15.476  -2.374  1.00 27.97 LIG-0.23  N 
ATOM     39 1HH2 ARG X   1     -36.953  16.823  -5.039  1.00 29.13 LIG 0.17  HD
ATOM     40 2HH2 ARG X   1     -36.719  17.329  -3.657  1.00 29.13 LIG 0.17  HD
ATOM     41 2HH1 ARG X   1     -37.376  16.087  -1.849  1.00 27.97 LIG 0.17  HD
ATOM     42 1HH1 ARG X   1     -38.040  14.768  -2.045  1.00 27.97 LIG 0.17  HD
ENDBRANCH 33 34
ENDBRANCH 32 33
ENDBRANCH 31 32
ENDBRANCH 26 31
ENDBRANCH 1 26
TORSDOF 15
ENDMDL
MODEL 14
USER: ADFR SOLUTION from run 191
USER: SCORE 14.384570 LL:  -1.884 LR: -13.949 RR:   0.000 FEB:  -9.474
USER: RMSD 5.377434
USER: SEED 190
USER: STATUS no improvement in best in 8 clusters for 5 generations
USER: GENES 17
USER: genes 0 Translation |==|  0.71463 0.40049 0.66756
USER: genes 1 Rotation |==|  0.51667 0.11063 0.33164 0.76413
USER: genes 2 Torsion [C]-N--CA-[CB] |==|  0.88673
USER: genes 3 Torsion [N]-CA--CB-[CG] |==|  0.62573
USER: genes 4 Torsion [CA]-CB--CG-[CD] |==|  0.53694
USER: genes 5 Torsion [CB]-CG--CD-[OE1] |==|  0.97568
USER: genes 6 Torsion [N]-CA--C-[N] |==|  0.83889
USER: genes 7 Torsion [C]-N--CA-[CB] |==|  0.16402
USER: genes 8 Torsion [N]-CA--C-[N] |==|  0.94506
USER: genes 9 Torsion [C]-N--CA-[CB] |==|  0.82259
USER: genes 10 Torsion [N]-CA--C-[O] |==|  0.07288
USER: genes 11 Torsion [N]-C--CA-[N] |==|  0.51697
USER: genes 12 Torsion [C]-CA--N-[H3] |==|  0.33341
USER: genes 13 Torsion [C]-CA--CB-[CG] |==|  0.23092
USER: genes 14 Torsion [CA]-CB--CG-[CD] |==|  0.09723
USER: genes 15 Torsion [CB]-CG--CD-[NE] |==|  0.34248
USER: genes 16 Torsion [CG]-CD--NE-[HE] |==|  0.31659
ROOT
ATOM      1  C   ARG X   1     -38.784  11.514  -6.236  1.00 28.35 LIG 0.25  C 
ATOM      2 O    ARG X   1     -39.559  10.569  -6.328  1.00 27.73 LIG-0.27  OA
ATOM      3  N   GLU X   2     -37.636  11.570  -6.901  1.00 29.79 LIG-0.35  N 
ATOM      4 H    GLU X   2     -37.142  12.272  -6.949  1.00 29.79 LIG 0.16  HD
ENDROOT
BRANCH 3 5
ATOM      5  CA  GLU X   2     -37.115  10.419  -7.613  1.00 30.62 LIG 0.18  C 
BRANCH 5 6
ATOM      6  CB  GLU X   2     -37.309   9.121  -6.824  1.00 30.95 LIG 0.04  C 
BRANCH 6 7
ATOM      7  CG  GLU X   2     -36.060   8.219  -6.800  1.00 31.16 LIG 0.12  C 
BRANCH 7 8
ATOM      8  CD  GLU X   2     -36.329   6.798  -6.302  1.00 32.27 LIG 0.17  C 
ATOM      9 OE1  GLU X   2     -37.444   6.533  -5.812  1.00 31.08 LIG-0.65  OA
ATOM     10 OE2  GLU X   2     -35.414   5.946  -6.381  1.00 30.98 LIG-0.65  OA
ENDBRANCH 7 8
ENDBRANCH 6 7
ENDBRANCH 5 6
BRANCH 5 11
ATOM     11  C   GLU X   2     -37.827  10.329  -8.945  1.00 31.96 LIG 0.24  C 
ATOM     12  N   ALA X   3     -39.145  10.228  -8.877  1.00 33.07 LIG-0.35  N 
ATOM     13 H    ALA X   3     -39.587  10.167  -8.142  1.00 33.07 LIG 0.16  HD
ATOM     14 O    GLU X   2     -37.197  10.350 -10.009  1.00 31.51 LIG-0.27  OA
BRANCH 12 15
ATOM     15  CA  ALA X   3     -39.962  10.212 -10.078  1.00 34.83 LIG 0.17  C 
ATOM     16  CB  ALA X   3     -39.560   9.040 -10.979  1.00 34.52 LIG 0.04  C 
BRANCH 15 17
ATOM     17  C   ALA X   3     -41.417  10.115  -9.671  1.00 35.72 LIG 0.24  C 
ATOM     18  N   ALA X   4     -41.651   9.661  -8.440  1.00 36.94 LIG-0.34  N 
ATOM     19 H    ALA X   4     -41.027   9.416  -7.902  1.00 36.94 LIG 0.16  HD
ATOM     20 O    ALA X   3     -42.304  10.419 -10.470  1.00 36.60 LIG-0.27  OA
BRANCH 18 21
ATOM     21  CA  ALA X   4     -42.999   9.534  -7.879  1.00 37.95 LIG 0.18  C 
ATOM     22  CB  ALA X   4     -43.658  10.907  -7.755  1.00 38.38 LIG 0.04  C 
BRANCH 21 23
ATOM     23  C   ALA X   4     -43.880   8.601  -8.706  1.00 38.48 LIG 0.20  C 
ATOM     24 O    ALA X   4     -43.401   7.700  -9.396  1.00 38.71 LIG-0.65  OA
ATOM     25 OXT  ALA X   4     -45.103   8.729  -8.699  1.00 39.00 LIG-0.65  OA
ENDBRANCH 21 23
ENDBRANCH 18 21
ENDBRANCH 15 17
ENDBRANCH 12 15
ENDBRANCH 5 11
ENDBRANCH 3 5
BRANCH 1 26
ATOM     26  CA  ARG X   1     -39.096  12.707  -5.346  1.00 28.22 LIG 0.27  C 
BRANCH 26 27
ATOM     27  N   ARG X   1     -40.332  12.482  -4.533  1.00 27.64 LIG-0.07  N 
ATOM     28 H3   ARG X   1     -40.131  12.526  -3.668  1.00 27.64 LIG 0.28  HD
ATOM     29 H2   ARG X   1     -40.668  11.680  -4.719  1.00 27.64 LIG 0.28  HD
ATOM     30 H1   ARG X   1     -40.934  13.108  -4.730  1.00 27.64 LIG 0.28  HD
ENDBRANCH 26 27
BRANCH 26 31
ATOM     31  CB  ARG X   1     -37.885  12.971  -4.442  1.00 28.04 LIG 0.04  C 
BRANCH 31 32
ATOM     32  CG  ARG X   1     -36.782  13.789  -5.061  1.00 27.94 LIG 0.02  C 
BRANCH 32 33
ATOM     33  CD  ARG X   1     -37.301  14.870  -6.017  1.00 29.24 LIG 0.14  C 
BRANCH 33 34
ATOM     34  NE  ARG X   1     -36.824  16.188  -5.596  1.00 27.62 LIG-0.23  N 
ATOM     35 HE   ARG X   1     -36.276  16.600  -6.115  1.00 27.62 LIG 0.18  HD
ATOM     36  CZ  ARG X   1     -37.181  16.793  -4.466  1.00 28.90 LIG 0.67  C 
ATOM     37  NH2 ARG X   1     -38.040  16.215  -3.629  1.00 29.13 LIG-0.23  N 
ATOM     38  NH1 ARG X   1     -36.685  17.989  -4.172  1.00 27.97 LIG-0.23  N 
ATOM     39 1HH2 ARG X   1     -38.369  15.443  -3.816  1.00 29.13 LIG 0.17  HD
ATOM     40 2HH2 ARG X   1     -38.265  16.614  -2.900  1.00 29.13 LIG 0.17  HD
ATOM     41 2HH1 ARG X   1     -36.914  18.382  -3.441  1.00 27.97 LIG 0.17  HD
ATOM     42 1HH1 ARG X   1     -36.135  18.371  -4.711  1.00 27.97 LIG 0.17  HD
ENDBRANCH 33 34
ENDBRANCH 32 33
ENDBRANCH 31 32
ENDBRANCH 26 31
ENDBRANCH 1 26
TORSDOF 15
ENDMDL
MODEL 15
USER: ADFR SOLUTION from run 28
USER: SCORE 13.719917 LL:  -1.971 LR: -13.949 RR:   0.000 FEB:  -9.475
USER: RMSD 3.194790
USER: SEED 27
USER: STATUS no improvement in best in 18 clusters for 5 generations
USER: GENES 17
USER: genes 0 Translation |==|  0.55484 0.39440 0.66671
USER: genes 1 Rotation |==|  0.47490 0.54285 0.53875 0.99602
USER: genes 2 Torsion [C]-N--CA-[CB] |==|  0.41839
USER: genes 3 Torsion [N]-CA--CB-[CG] |==|  0.52573
USER: genes 4 Torsion [CA]-CB--CG-[CD] |==|  0.57356
USER: genes 5 Torsion [CB]-CG--CD-[OE1] |==|  0.73997
USER: genes 6 Torsion [N]-CA--C-[N] |==|  0.40679
USER: genes 7 Torsion [C]-N--CA-[CB] |==|  0.21430
USER: genes 8 Torsion [N]-CA--C-[N] |==|  0.59881
USER: genes 9 Torsion [C]-N--CA-[CB] |==|  0.20138
USER: genes 10 Torsion [N]-CA--C-[O] |==|  0.62505
USER: genes 11 Torsion [N]-C--CA-[N] |==|  0.40060
USER: genes 12 Torsion [C]-CA--N-[H3] |==|  0.74857
USER: genes 13 Torsion [C]-CA--CB-[CG] |==|  0.55693
USER: genes 14 Torsion [CA]-CB--CG-[CD] |==|  0.84621
USER: genes 15 Torsion [CB]-CG--CD-[NE] |==|  0.76983
USER: genes 16 Torsion [CG]-CD--NE-[HE] |==|  0.20645
ROOT
ATOM      1  C   ARG X   1     -41.300  11.386  -6.254  1.00 28.35 LIG 0.25  C 
ATOM      2 O    ARG X   1     -40.465  10.507  -6.074  1.00 27.73 LIG-0.27  OA
ATOM      3  N   GLU X   2     -42.464  11.162  -6.852  1.00 29.79 LIG-0.35  N 
ATOM      4 H    GLU X   2     -43.110  11.729  -6.875  1.00 29.79 LIG 0.16  HD
ENDROOT
BRANCH 3 5
ATOM      5  CA  GLU X   2     -42.740   9.909  -7.529  1.00 30.62 LIG 0.18  C 
BRANCH 5 6
ATOM      6  CB  GLU X   2     -44.231   9.560  -7.503  1.00 30.95 LIG 0.04  C 
BRANCH 6 7
ATOM      7  CG  GLU X   2     -44.542   8.139  -8.008  1.00 31.16 LIG 0.12  C 
BRANCH 7 8
ATOM      8  CD  GLU X   2     -45.949   7.979  -8.589  1.00 32.27 LIG 0.17  C 
ATOM      9 OE1  GLU X   2     -46.866   7.582  -7.844  1.00 31.08 LIG-0.65  OA
ATOM     10 OE2  GLU X   2     -46.135   8.232  -9.801  1.00 30.98 LIG-0.65  OA
ENDBRANCH 7 8
ENDBRANCH 6 7
ENDBRANCH 5 6
BRANCH 5 11
ATOM     11  C   GLU X   2     -42.260  10.032  -8.959  1.00 31.96 LIG 0.24  C 
ATOM     12  N   ALA X   3     -41.789   8.918  -9.496  1.00 33.07 LIG-0.35  N 
ATOM     13 H    ALA X   3     -41.706   8.175  -9.071  1.00 33.07 LIG 0.16  HD
ATOM     14 O    GLU X   2     -42.314  11.112  -9.560  1.00 31.51 LIG-0.27  OA
BRANCH 12 15
ATOM     15  CA  ALA X   3     -41.367   8.872 -10.885  1.00 34.83 LIG 0.17  C 
ATOM     16  CB  ALA X   3     -39.992   9.528 -11.045  1.00 34.52 LIG 0.04  C 
BRANCH 15 17
ATOM     17  C   ALA X   3     -41.338   7.427 -11.333  1.00 35.72 LIG 0.24  C 
ATOM     18  N   ALA X   4     -40.370   7.099 -12.189  1.00 36.94 LIG-0.34  N 
ATOM     19 H    ALA X   4     -39.799   7.665 -12.494  1.00 36.94 LIG 0.16  HD
ATOM     20 O    ALA X   3     -42.193   6.636 -10.931  1.00 36.60 LIG-0.27  OA
BRANCH 18 21
ATOM     21  CA  ALA X   4     -40.180   5.737 -12.698  1.00 37.95 LIG 0.18  C 
ATOM     22  CB  ALA X   4     -41.280   5.382 -13.697  1.00 38.38 LIG 0.04  C 
BRANCH 21 23
ATOM     23  C   ALA X   4     -38.808   5.549 -13.339  1.00 38.48 LIG 0.20  C 
ATOM     24 O    ALA X   4     -38.670   4.970 -14.418  1.00 38.71 LIG-0.65  OA
ATOM     25 OXT  ALA X   4     -37.797   5.979 -12.787  1.00 39.00 LIG-0.65  OA
ENDBRANCH 21 23
ENDBRANCH 18 21
ENDBRANCH 15 17
ENDBRANCH 12 15
ENDBRANCH 5 11
ENDBRANCH 3 5
BRANCH 1 26
ATOM     26  CA  ARG X   1     -41.054  12.814  -5.790  1.00 28.22 LIG 0.27  C 
BRANCH 26 27
ATOM     27  N   ARG X   1     -40.289  12.854  -4.505  1.00 27.64 LIG-0.07  N 
ATOM     28 H3   ARG X   1     -40.858  12.854  -3.821  1.00 27.64 LIG 0.28  HD
ATOM     29 H2   ARG X   1     -39.793  13.592  -4.477  1.00 27.64 LIG 0.28  HD
ATOM     30 H1   ARG X   1     -39.761  12.140  -4.452  1.00 27.64 LIG 0.28  HD
ENDBRANCH 26 27
BRANCH 26 31
ATOM     31  CB  ARG X   1     -40.306  13.565  -6.899  1.00 28.04 LIG 0.04  C 
BRANCH 31 32
ATOM     32  CG  ARG X   1     -39.566  14.801  -6.457  1.00 27.94 LIG 0.02  C 
BRANCH 32 33
ATOM     33  CD  ARG X   1     -40.464  15.811  -5.732  1.00 29.24 LIG 0.14  C 
BRANCH 33 34
ATOM     34  NE  ARG X   1     -41.182  16.637  -6.704  1.00 27.62 LIG-0.23  N 
ATOM     35 HE   ARG X   1     -41.837  16.277  -7.130  1.00 27.62 LIG 0.18  HD
ATOM     36  CZ  ARG X   1     -40.891  17.907  -6.974  1.00 28.90 LIG 0.67  C 
ATOM     37  NH2 ARG X   1     -39.900  18.527  -6.336  1.00 29.13 LIG-0.23  N 
ATOM     38  NH1 ARG X   1     -41.600  18.570  -7.880  1.00 27.97 LIG-0.23  N 
ATOM     39 1HH2 ARG X   1     -39.441  18.106  -5.744  1.00 29.13 LIG 0.17  HD
ATOM     40 2HH2 ARG X   1     -39.719  19.348  -6.517  1.00 29.13 LIG 0.17  HD
ATOM     41 2HH1 ARG X   1     -41.414  19.391  -8.056  1.00 27.97 LIG 0.17  HD
ATOM     42 1HH1 ARG X   1     -42.246  18.178  -8.291  1.00 27.97 LIG 0.17  HD
ENDBRANCH 33 34
ENDBRANCH 32 33
ENDBRANCH 31 32
ENDBRANCH 26 31
ENDBRANCH 1 26
TORSDOF 15
ENDMDL
MODEL 16
USER: ADFR SOLUTION from run 193
USER: SCORE 14.360317 LL:  -1.786 LR: -13.935 RR:   0.000 FEB:  -9.461
USER: RMSD 5.072230
USER: SEED 192
USER: STATUS no improvement in best in 20 clusters for 5 generations
USER: GENES 17
USER: genes 0 Translation |==|  0.73727 0.55689 0.70039
USER: genes 1 Rotation |==|  0.48941 0.69736 0.72591 0.89988
USER: genes 2 Torsion [C]-N--CA-[CB] |==|  0.21111
USER: genes 3 Torsion [N]-CA--CB-[CG] |==|  0.61271
USER: genes 4 Torsion [CA]-CB--CG-[CD] |==|  0.79630
USER: genes 5 Torsion [CB]-CG--CD-[OE1] |==|  0.28014
USER: genes 6 Torsion [N]-CA--C-[N] |==|  0.35561
USER: genes 7 Torsion [C]-N--CA-[CB] |==|  0.17324
USER: genes 8 Torsion [N]-CA--C-[N] |==|  0.14427
USER: genes 9 Torsion [C]-N--CA-[CB] |==|  0.40217
USER: genes 10 Torsion [N]-CA--C-[O] |==|  0.13709
USER: genes 11 Torsion [N]-C--CA-[N] |==|  0.25148
USER: genes 12 Torsion [C]-CA--N-[H3] |==|  0.56295
USER: genes 13 Torsion [C]-CA--CB-[CG] |==|  0.37976
USER: genes 14 Torsion [CA]-CB--CG-[CD] |==|  0.23043
USER: genes 15 Torsion [CB]-CG--CD-[NE] |==|  0.05122
USER: genes 16 Torsion [CG]-CD--NE-[HE] |==|  0.77655
ROOT
ATOM      1  C   ARG X   1     -38.427  14.799  -5.547  1.00 28.35 LIG 0.25  C 
ATOM      2 O    ARG X   1     -37.362  14.743  -6.153  1.00 27.73 LIG-0.27  OA
ATOM      3  N   GLU X   2     -39.228  13.750  -5.401  1.00 29.79 LIG-0.35  N 
ATOM      4 H    GLU X   2     -39.909  13.735  -4.878  1.00 29.79 LIG 0.16  HD
ENDROOT
BRANCH 3 5
ATOM      5  CA  GLU X   2     -39.007  12.519  -6.135  1.00 30.62 LIG 0.18  C 
BRANCH 5 6
ATOM      6  CB  GLU X   2     -37.848  11.705  -5.553  1.00 30.95 LIG 0.04  C 
BRANCH 6 7
ATOM      7  CG  GLU X   2     -36.945  11.062  -6.622  1.00 31.16 LIG 0.12  C 
BRANCH 7 8
ATOM      8  CD  GLU X   2     -37.580   9.867  -7.335  1.00 32.27 LIG 0.17  C 
ATOM      9 OE1  GLU X   2     -38.068  10.034  -8.470  1.00 31.08 LIG-0.65  OA
ATOM     10 OE2  GLU X   2     -37.610   8.759  -6.751  1.00 30.98 LIG-0.65  OA
ENDBRANCH 7 8
ENDBRANCH 6 7
ENDBRANCH 5 6
BRANCH 5 11
ATOM     11  C   GLU X   2     -40.284  11.709  -6.091  1.00 31.96 LIG 0.24  C 
ATOM     12  N   ALA X   3     -40.734  11.296  -7.265  1.00 33.07 LIG-0.35  N 
ATOM     13 H    ALA X   3     -40.373  11.499  -8.018  1.00 33.07 LIG 0.16  HD
ATOM     14 O    GLU X   2     -40.849  11.466  -5.017  1.00 31.51 LIG-0.27  OA
BRANCH 12 15
ATOM     15  CA  ALA X   3     -41.907  10.444  -7.364  1.00 34.83 LIG 0.17  C 
ATOM     16  CB  ALA X   3     -43.139  11.169  -6.815  1.00 34.52 LIG 0.04  C 
BRANCH 15 17
ATOM     17  C   ALA X   3     -42.102  10.058  -8.815  1.00 35.72 LIG 0.24  C 
ATOM     18  N   ALA X   4     -41.038   9.542  -9.430  1.00 36.94 LIG-0.34  N 
ATOM     19 H    ALA X   4     -40.274   9.444  -9.049  1.00 36.94 LIG 0.16  HD
ATOM     20 O    ALA X   3     -43.186  10.252  -9.366  1.00 36.60 LIG-0.27  OA
BRANCH 18 21
ATOM     21  CA  ALA X   4     -41.065   9.088 -10.824  1.00 37.95 LIG 0.18  C 
ATOM     22  CB  ALA X   4     -39.727   9.372 -11.505  1.00 38.38 LIG 0.04  C 
BRANCH 21 23
ATOM     23  C   ALA X   4     -41.407   7.605 -10.939  1.00 38.48 LIG 0.20  C 
ATOM     24 O    ALA X   4     -42.374   7.116 -10.352  1.00 38.71 LIG-0.65  OA
ATOM     25 OXT  ALA X   4     -40.718   6.856 -11.629  1.00 39.00 LIG-0.65  OA
ENDBRANCH 21 23
ENDBRANCH 18 21
ENDBRANCH 15 17
ENDBRANCH 12 15
ENDBRANCH 5 11
ENDBRANCH 3 5
BRANCH 1 26
ATOM     26  CA  ARG X   1     -38.902  16.093  -4.906  1.00 28.22 LIG 0.27  C 
BRANCH 26 27
ATOM     27  N   ARG X   1     -38.405  16.230  -3.501  1.00 27.64 LIG-0.07  N 
ATOM     28 H3   ARG X   1     -38.933  16.788  -3.052  1.00 27.64 LIG 0.28  HD
ATOM     29 H2   ARG X   1     -37.575  16.551  -3.509  1.00 27.64 LIG 0.28  HD
ATOM     30 H1   ARG X   1     -38.411  15.433  -3.105  1.00 27.64 LIG 0.28  HD
ENDBRANCH 26 27
BRANCH 26 31
ATOM     31  CB  ARG X   1     -38.430  17.268  -5.772  1.00 28.04 LIG 0.04  C 
BRANCH 31 32
ATOM     32  CG  ARG X   1     -39.450  18.353  -6.002  1.00 27.94 LIG 0.02  C 
BRANCH 32 33
ATOM     33  CD  ARG X   1     -39.522  19.363  -4.850  1.00 29.24 LIG 0.14  C 
BRANCH 33 34
ATOM     34  NE  ARG X   1     -38.309  19.284  -4.033  1.00 27.62 LIG-0.23  N 
ATOM     35 HE   ARG X   1     -38.259  18.654  -3.451  1.00 27.62 LIG 0.18  HD
ATOM     36  CZ  ARG X   1     -37.280  20.122  -4.130  1.00 28.90 LIG 0.67  C 
ATOM     37  NH2 ARG X   1     -37.289  21.108  -5.024  1.00 29.13 LIG-0.23  N 
ATOM     38  NH1 ARG X   1     -36.227  19.969  -3.336  1.00 27.97 LIG-0.23  N 
ATOM     39 1HH2 ARG X   1     -37.965  21.209  -5.545  1.00 29.13 LIG 0.17  HD
ATOM     40 2HH2 ARG X   1     -36.619  21.645  -5.079  1.00 29.13 LIG 0.17  HD
ATOM     41 2HH1 ARG X   1     -35.560  20.509  -3.396  1.00 27.97 LIG 0.17  HD
ATOM     42 1HH1 ARG X   1     -36.211  19.330  -2.761  1.00 27.97 LIG 0.17  HD
ENDBRANCH 33 34
ENDBRANCH 32 33
ENDBRANCH 31 32
ENDBRANCH 26 31
ENDBRANCH 1 26
TORSDOF 15
ENDMDL
MODEL 17
USER: ADFR SOLUTION from run 30
USER: SCORE 13.915339 LL:  -1.471 LR: -13.881 RR:   0.000 FEB:  -9.407
USER: RMSD 3.402948
USER: SEED 29
USER: STATUS no improvement in best in 19 clusters for 5 generations
USER: GENES 17
USER: genes 0 Translation |==|  0.55617 0.40121 0.65784
USER: genes 1 Rotation |==|  0.46401 0.39737 0.47782 0.98752
USER: genes 2 Torsion [C]-N--CA-[CB] |==|  0.22219
USER: genes 3 Torsion [N]-CA--CB-[CG] |==|  0.44279
USER: genes 4 Torsion [CA]-CB--CG-[CD] |==|  0.66237
USER: genes 5 Torsion [CB]-CG--CD-[OE1] |==|  0.80244
USER: genes 6 Torsion [N]-CA--C-[N] |==|  0.82396
USER: genes 7 Torsion [C]-N--CA-[CB] |==|  0.16696
USER: genes 8 Torsion [N]-CA--C-[N] |==|  0.55947
USER: genes 9 Torsion [C]-N--CA-[CB] |==|  0.49826
USER: genes 10 Torsion [N]-CA--C-[O] |==|  0.41715
USER: genes 11 Torsion [N]-C--CA-[N] |==|  0.48641
USER: genes 12 Torsion [C]-CA--N-[H3] |==|  0.40971
USER: genes 13 Torsion [C]-CA--CB-[CG] |==|  0.42327
USER: genes 14 Torsion [CA]-CB--CG-[CD] |==|  0.32107
USER: genes 15 Torsion [CB]-CG--CD-[NE] |==|  0.83027
USER: genes 16 Torsion [CG]-CD--NE-[HE] |==|  0.06389
ROOT
ATOM      1  C   ARG X   1     -41.279  11.529  -6.440  1.00 28.35 LIG 0.25  C 
ATOM      2 O    ARG X   1     -40.886  10.525  -5.858  1.00 27.73 LIG-0.27  OA
ATOM      3  N   GLU X   2     -41.928  11.483  -7.598  1.00 29.79 LIG-0.35  N 
ATOM      4 H    GLU X   2     -42.320  12.158  -7.956  1.00 29.79 LIG 0.16  HD
ENDROOT
BRANCH 3 5
ATOM      5  CA  GLU X   2     -42.025  10.255  -8.364  1.00 30.62 LIG 0.18  C 
BRANCH 5 6
ATOM      6  CB  GLU X   2     -43.112   9.324  -7.819  1.00 30.95 LIG 0.04  C 
BRANCH 6 7
ATOM      7  CG  GLU X   2     -43.601   8.280  -8.841  1.00 31.16 LIG 0.12  C 
BRANCH 7 8
ATOM      8  CD  GLU X   2     -45.102   8.350  -9.132  1.00 32.27 LIG 0.17  C 
ATOM      9 OE1  GLU X   2     -45.903   7.980  -8.252  1.00 31.08 LIG-0.65  OA
ATOM     10 OE2  GLU X   2     -45.482   8.758 -10.253  1.00 30.98 LIG-0.65  OA
ENDBRANCH 7 8
ENDBRANCH 6 7
ENDBRANCH 5 6
BRANCH 5 11
ATOM     11  C   GLU X   2     -42.325  10.620  -9.801  1.00 31.96 LIG 0.24  C 
ATOM     12  N   ALA X   3     -43.482  11.230 -10.001  1.00 33.07 LIG-0.35  N 
ATOM     13 H    ALA X   3     -44.062  11.378  -9.384  1.00 33.07 LIG 0.16  HD
ATOM     14 O    GLU X   2     -41.526  10.354 -10.708  1.00 31.51 LIG-0.27  OA
BRANCH 12 15
ATOM     15  CA  ALA X   3     -43.864  11.707 -11.318  1.00 34.83 LIG 0.17  C 
ATOM     16  CB  ALA X   3     -43.922  10.541 -12.310  1.00 34.52 LIG 0.04  C 
BRANCH 15 17
ATOM     17  C   ALA X   3     -45.206  12.400 -11.211  1.00 35.72 LIG 0.24  C 
ATOM     18  N   ALA X   4     -45.903  12.503 -12.343  1.00 36.94 LIG-0.34  N 
ATOM     19 H    ALA X   4     -45.616  12.216 -13.101  1.00 36.94 LIG 0.16  HD
ATOM     20 O    ALA X   3     -45.583  12.854 -10.130  1.00 36.60 LIG-0.27  OA
BRANCH 18 21
ATOM     21  CA  ALA X   4     -47.232  13.117 -12.408  1.00 37.95 LIG 0.18  C 
ATOM     22  CB  ALA X   4     -47.760  13.098 -13.842  1.00 38.38 LIG 0.04  C 
BRANCH 21 23
ATOM     23  C   ALA X   4     -48.227  12.434 -11.473  1.00 38.48 LIG 0.20  C 
ATOM     24 O    ALA X   4     -49.166  13.049 -10.964  1.00 38.71 LIG-0.65  OA
ATOM     25 OXT  ALA X   4     -48.113  11.240 -11.205  1.00 39.00 LIG-0.65  OA
ENDBRANCH 21 23
ENDBRANCH 18 21
ENDBRANCH 15 17
ENDBRANCH 12 15
ENDBRANCH 5 11
ENDBRANCH 3 5
BRANCH 1 26
ATOM     26  CA  ARG X   1     -41.052  12.917  -5.860  1.00 28.22 LIG 0.27  C 
BRANCH 26 27
ATOM     27  N   ARG X   1     -40.421  12.854  -4.505  1.00 27.64 LIG-0.07  N 
ATOM     28 H3   ARG X   1     -39.893  13.560  -4.391  1.00 27.64 LIG 0.28  HD
ATOM     29 H2   ARG X   1     -39.940  12.109  -4.435  1.00 27.64 LIG 0.28  HD
ATOM     30 H1   ARG X   1     -41.057  12.854  -3.882  1.00 27.64 LIG 0.28  HD
ENDBRANCH 26 27
BRANCH 26 31
ATOM     31  CB  ARG X   1     -40.180  13.717  -6.836  1.00 28.04 LIG 0.04  C 
BRANCH 31 32
ATOM     32  CG  ARG X   1     -40.371  15.211  -6.798  1.00 27.94 LIG 0.02  C 
BRANCH 32 33
ATOM     33  CD  ARG X   1     -39.119  15.963  -6.332  1.00 29.24 LIG 0.14  C 
BRANCH 33 34
ATOM     34  NE  ARG X   1     -38.763  15.558  -4.971  1.00 27.62 LIG-0.23  N 
ATOM     35 HE   ARG X   1     -39.041  14.792  -4.696  1.00 27.62 LIG 0.18  HD
ATOM     36  CZ  ARG X   1     -38.038  16.292  -4.131  1.00 28.90 LIG 0.67  C 
ATOM     37  NH2 ARG X   1     -37.563  17.479  -4.503  1.00 29.13 LIG-0.23  N 
ATOM     38  NH1 ARG X   1     -37.775  15.837  -2.912  1.00 27.97 LIG-0.23  N 
ATOM     39 1HH2 ARG X   1     -37.724  17.778  -5.293  1.00 29.13 LIG 0.17  HD
ATOM     40 2HH2 ARG X   1     -37.096  17.948  -3.953  1.00 29.13 LIG 0.17  HD
ATOM     41 2HH1 ARG X   1     -37.307  16.310  -2.367  1.00 27.97 LIG 0.17  HD
ATOM     42 1HH1 ARG X   1     -38.073  15.068  -2.667  1.00 27.97 LIG 0.17  HD
ENDBRANCH 33 34
ENDBRANCH 32 33
ENDBRANCH 31 32
ENDBRANCH 26 31
ENDBRANCH 1 26
TORSDOF 15
ENDMDL
MODEL 18
USER: ADFR SOLUTION from run 140
USER: SCORE 13.659390 LL:  -2.621 LR: -13.810 RR:   0.000 FEB:  -9.335
USER: RMSD 3.374446
USER: SEED 139
USER: STATUS no improvement in best in 18 clusters for 5 generations
USER: GENES 17
USER: genes 0 Translation |==|  0.55844 0.40525 0.65148
USER: genes 1 Rotation |==|  0.53369 0.45669 0.51841 0.99664
USER: genes 2 Torsion [C]-N--CA-[CB] |==|  0.16253
USER: genes 3 Torsion [N]-CA--CB-[CG] |==|  0.46362
USER: genes 4 Torsion [CA]-CB--CG-[CD] |==|  0.16873
USER: genes 5 Torsion [CB]-CG--CD-[OE1] |==|  0.93201
USER: genes 6 Torsion [N]-CA--C-[N] |==|  0.43333
USER: genes 7 Torsion [C]-N--CA-[CB] |==|  0.46924
USER: genes 8 Torsion [N]-CA--C-[N] |==|  0.89181
USER: genes 9 Torsion [C]-N--CA-[CB] |==|  0.37780
USER: genes 10 Torsion [N]-CA--C-[O] |==|  0.94447
USER: genes 11 Torsion [N]-C--CA-[N] |==|  0.47168
USER: genes 12 Torsion [C]-CA--N-[H3] |==|  0.67816
USER: genes 13 Torsion [C]-CA--CB-[CG] |==|  0.40603
USER: genes 14 Torsion [CA]-CB--CG-[CD] |==|  0.45431
USER: genes 15 Torsion [CB]-CG--CD-[NE] |==|  0.48439
USER: genes 16 Torsion [CG]-CD--NE-[HE] |==|  0.17342
ROOT
ATOM      1  C   ARG X   1     -41.244  11.614  -6.574  1.00 28.35 LIG 0.25  C 
ATOM      2 O    ARG X   1     -40.551  10.621  -6.380  1.00 27.73 LIG-0.27  OA
ATOM      3  N   GLU X   2     -42.152  11.681  -7.540  1.00 29.79 LIG-0.35  N 
ATOM      4 H    GLU X   2     -42.730  12.313  -7.612  1.00 29.79 LIG 0.16  HD
ENDROOT
BRANCH 3 5
ATOM      5  CA  GLU X   2     -42.238  10.665  -8.571  1.00 30.62 LIG 0.18  C 
BRANCH 5 6
ATOM      6  CB  GLU X   2     -42.479   9.271  -7.984  1.00 30.95 LIG 0.04  C 
BRANCH 6 7
ATOM      7  CG  GLU X   2     -42.893   8.222  -9.033  1.00 31.16 LIG 0.12  C 
BRANCH 7 8
ATOM      8  CD  GLU X   2     -41.850   7.993 -10.129  1.00 32.27 LIG 0.17  C 
ATOM      9 OE1  GLU X   2     -41.039   8.903 -10.386  1.00 31.08 LIG-0.65  OA
ATOM     10 OE2  GLU X   2     -41.855   6.906 -10.751  1.00 30.98 LIG-0.65  OA
ENDBRANCH 7 8
ENDBRANCH 6 7
ENDBRANCH 5 6
BRANCH 5 11
ATOM     11  C   GLU X   2     -43.369  11.038  -9.505  1.00 31.96 LIG 0.24  C 
ATOM     12  N   ALA X   3     -43.283  10.538 -10.727  1.00 33.07 LIG-0.35  N 
ATOM     13 H    ALA X   3     -42.620  10.072 -11.012  1.00 33.07 LIG 0.16  HD
ATOM     14 O    GLU X   2     -44.297  11.763  -9.125  1.00 31.51 LIG-0.27  OA
BRANCH 12 15
ATOM     15  CA  ALA X   3     -44.339  10.750 -11.703  1.00 34.83 LIG 0.17  C 
ATOM     16  CB  ALA X   3     -43.872  10.311 -13.094  1.00 34.52 LIG 0.04  C 
BRANCH 15 17
ATOM     17  C   ALA X   3     -45.562   9.973 -11.267  1.00 35.72 LIG 0.24  C 
ATOM     18  N   ALA X   4     -45.334   8.771 -10.738  1.00 36.94 LIG-0.34  N 
ATOM     19 H    ALA X   4     -44.548   8.433 -10.658  1.00 36.94 LIG 0.16  HD
ATOM     20 O    ALA X   3     -46.688  10.446 -11.434  1.00 36.60 LIG-0.27  OA
BRANCH 18 21
ATOM     21  CA  ALA X   4     -46.404   7.903 -10.237  1.00 37.95 LIG 0.18  C 
ATOM     22  CB  ALA X   4     -46.183   6.463 -10.695  1.00 38.38 LIG 0.04  C 
BRANCH 21 23
ATOM     23  C   ALA X   4     -46.523   7.957  -8.716  1.00 38.48 LIG 0.20  C 
ATOM     24 O    ALA X   4     -45.596   8.353  -8.007  1.00 38.71 LIG-0.65  OA
ATOM     25 OXT  ALA X   4     -47.560   7.605  -8.158  1.00 39.00 LIG-0.65  OA
ENDBRANCH 21 23
ENDBRANCH 18 21
ENDBRANCH 15 17
ENDBRANCH 12 15
ENDBRANCH 5 11
ENDBRANCH 3 5
BRANCH 1 26
ATOM     26  CA  ARG X   1     -41.108  12.852  -5.701  1.00 28.22 LIG 0.27  C 
BRANCH 26 27
ATOM     27  N   ARG X   1     -40.247  12.594  -4.505  1.00 27.64 LIG-0.07  N 
ATOM     28 H3   ARG X   1     -40.733  12.678  -3.765  1.00 27.64 LIG 0.28  HD
ATOM     29 H2   ARG X   1     -39.578  13.181  -4.487  1.00 27.64 LIG 0.28  HD
ATOM     30 H1   ARG X   1     -39.915  11.769  -4.550  1.00 27.64 LIG 0.28  HD
ENDBRANCH 26 27
BRANCH 26 31
ATOM     31  CB  ARG X   1     -40.536  13.991  -6.554  1.00 28.04 LIG 0.04  C 
BRANCH 31 32
ATOM     32  CG  ARG X   1     -41.032  15.371  -6.208  1.00 27.94 LIG 0.02  C 
BRANCH 32 33
ATOM     33  CD  ARG X   1     -40.157  16.486  -6.793  1.00 29.24 LIG 0.14  C 
BRANCH 33 34
ATOM     34  NE  ARG X   1     -40.765  17.793  -6.535  1.00 27.62 LIG-0.23  N 
ATOM     35 HE   ARG X   1     -40.862  18.034  -5.715  1.00 27.62 LIG 0.18  HD
ATOM     36  CZ  ARG X   1     -41.177  18.633  -7.481  1.00 28.90 LIG 0.67  C 
ATOM     37  NH2 ARG X   1     -41.039  18.325  -8.769  1.00 29.13 LIG-0.23  N 
ATOM     38  NH1 ARG X   1     -41.723  19.794  -7.142  1.00 27.97 LIG-0.23  N 
ATOM     39 1HH2 ARG X   1     -40.680  17.577  -8.996  1.00 29.13 LIG 0.17  HD
ATOM     40 2HH2 ARG X   1     -41.308  18.874  -9.374  1.00 29.13 LIG 0.17  HD
ATOM     41 2HH1 ARG X   1     -41.990  20.339  -7.752  1.00 27.97 LIG 0.17  HD
ATOM     42 1HH1 ARG X   1     -41.809  20.003  -6.312  1.00 27.97 LIG 0.17  HD
ENDBRANCH 33 34
ENDBRANCH 32 33
ENDBRANCH 31 32
ENDBRANCH 26 31
ENDBRANCH 1 26
TORSDOF 15
ENDMDL
MODEL 19
USER: ADFR SOLUTION from run 40
USER: SCORE 13.852422 LL:  -1.925 LR: -13.702 RR:   0.000 FEB:  -9.227
USER: RMSD 4.393273
USER: SEED 39
USER: STATUS no improvement in best in 6 clusters for 5 generations
USER: GENES 17
USER: genes 0 Translation |==|  0.56700 0.41041 0.64784
USER: genes 1 Rotation |==|  0.52252 0.44558 0.52489 0.99589
USER: genes 2 Torsion [C]-N--CA-[CB] |==|  0.45556
USER: genes 3 Torsion [N]-CA--CB-[CG] |==|  0.61043
USER: genes 4 Torsion [CA]-CB--CG-[CD] |==|  0.17998
USER: genes 5 Torsion [CB]-CG--CD-[OE1] |==|  0.29501
USER: genes 6 Torsion [N]-CA--C-[N] |==|  0.40660
USER: genes 7 Torsion [C]-N--CA-[CB] |==|  0.18618
USER: genes 8 Torsion [N]-CA--C-[N] |==|  0.57084
USER: genes 9 Torsion [C]-N--CA-[CB] |==|  0.24686
USER: genes 10 Torsion [N]-CA--C-[O] |==|  0.22004
USER: genes 11 Torsion [N]-C--CA-[N] |==|  0.45278
USER: genes 12 Torsion [C]-CA--N-[H3] |==|  0.02800
USER: genes 13 Torsion [C]-CA--CB-[CG] |==|  0.38197
USER: genes 14 Torsion [CA]-CB--CG-[CD] |==|  0.32338
USER: genes 15 Torsion [CB]-CG--CD-[NE] |==|  0.90497
USER: genes 16 Torsion [CG]-CD--NE-[HE] |==|  0.00838
ROOT
ATOM      1  C   ARG X   1     -41.109  11.723  -6.650  1.00 28.35 LIG 0.25  C 
ATOM      2 O    ARG X   1     -40.409  10.752  -6.379  1.00 27.73 LIG-0.27  OA
ATOM      3  N   GLU X   2     -41.970  11.728  -7.660  1.00 29.79 LIG-0.35  N 
ATOM      4 H    GLU X   2     -42.556  12.344  -7.789  1.00 29.79 LIG 0.16  HD
ENDROOT
BRANCH 3 5
ATOM      5  CA  GLU X   2     -41.989  10.666  -8.648  1.00 30.62 LIG 0.18  C 
BRANCH 5 6
ATOM      6  CB  GLU X   2     -43.283  10.669  -9.467  1.00 30.95 LIG 0.04  C 
BRANCH 6 7
ATOM      7  CG  GLU X   2     -43.833   9.260  -9.759  1.00 31.16 LIG 0.12  C 
BRANCH 7 8
ATOM      8  CD  GLU X   2     -44.275   8.494  -8.510  1.00 32.27 LIG 0.17  C 
ATOM      9 OE1  GLU X   2     -45.494   8.353  -8.292  1.00 31.08 LIG-0.65  OA
ATOM     10 OE2  GLU X   2     -43.401   8.048  -7.732  1.00 30.98 LIG-0.65  OA
ENDBRANCH 7 8
ENDBRANCH 6 7
ENDBRANCH 5 6
BRANCH 5 11
ATOM     11  C   GLU X   2     -40.796  10.852  -9.559  1.00 31.96 LIG 0.24  C 
ATOM     12  N   ALA X   3     -40.253   9.734 -10.017  1.00 33.07 LIG-0.35  N 
ATOM     13 H    ALA X   3     -40.510   8.946  -9.791  1.00 33.07 LIG 0.16  HD
ATOM     14 O    GLU X   2     -40.376  11.981  -9.841  1.00 31.51 LIG-0.27  OA
BRANCH 12 15
ATOM     15  CA  ALA X   3     -39.152   9.765 -10.963  1.00 34.83 LIG 0.17  C 
ATOM     16  CB  ALA X   3     -37.897  10.345 -10.301  1.00 34.52 LIG 0.04  C 
BRANCH 15 17
ATOM     17  C   ALA X   3     -38.904   8.358 -11.462  1.00 35.72 LIG 0.24  C 
ATOM     18  N   ALA X   4     -37.670   8.098 -11.893  1.00 36.94 LIG-0.34  N 
ATOM     19 H    ALA X   4     -37.043   8.687 -11.911  1.00 36.94 LIG 0.16  HD
ATOM     20 O    ALA X   3     -39.823   7.537 -11.481  1.00 36.60 LIG-0.27  OA
BRANCH 18 21
ATOM     21  CA  ALA X   4     -37.254   6.779 -12.379  1.00 37.95 LIG 0.18  C 
ATOM     22  CB  ALA X   4     -37.514   6.656 -13.879  1.00 38.38 LIG 0.04  C 
BRANCH 21 23
ATOM     23  C   ALA X   4     -35.786   6.491 -12.075  1.00 38.48 LIG 0.20  C 
ATOM     24 O    ALA X   4     -35.415   6.127 -10.958  1.00 38.71 LIG-0.65  OA
ATOM     25 OXT  ALA X   4     -34.932   6.616 -12.950  1.00 39.00 LIG-0.65  OA
ENDBRANCH 21 23
ENDBRANCH 18 21
ENDBRANCH 15 17
ENDBRANCH 12 15
ENDBRANCH 5 11
ENDBRANCH 3 5
BRANCH 1 26
ATOM     26  CA  ARG X   1     -41.038  13.000  -5.828  1.00 28.22 LIG 0.27  C 
BRANCH 26 27
ATOM     27  N   ARG X   1     -40.372  12.773  -4.508  1.00 27.64 LIG-0.07  N 
ATOM     28 H3   ARG X   1     -40.005  11.962  -4.496  1.00 27.64 LIG 0.28  HD
ATOM     29 H2   ARG X   1     -40.975  12.835  -3.856  1.00 27.64 LIG 0.28  HD
ATOM     30 H1   ARG X   1     -39.740  13.387  -4.385  1.00 27.64 LIG 0.28  HD
ENDBRANCH 26 27
BRANCH 26 31
ATOM     31  CB  ARG X   1     -40.291  14.064  -6.644  1.00 28.04 LIG 0.04  C 
BRANCH 31 32
ATOM     32  CG  ARG X   1     -40.886  15.447  -6.602  1.00 27.94 LIG 0.02  C 
BRANCH 32 33
ATOM     33  CD  ARG X   1     -39.957  16.480  -5.954  1.00 29.24 LIG 0.14  C 
BRANCH 33 34
ATOM     34  NE  ARG X   1     -39.180  15.859  -4.881  1.00 27.62 LIG-0.23  N 
ATOM     35 HE   ARG X   1     -39.281  15.015  -4.750  1.00 27.62 LIG 0.18  HD
ATOM     36  CZ  ARG X   1     -38.327  16.509  -4.093  1.00 28.90 LIG 0.67  C 
ATOM     37  NH2 ARG X   1     -38.113  17.813  -4.256  1.00 29.13 LIG-0.23  N 
ATOM     38  NH1 ARG X   1     -37.674  15.854  -3.141  1.00 27.97 LIG-0.23  N 
ATOM     39 1HH2 ARG X   1     -38.528  18.243  -4.874  1.00 29.13 LIG 0.17  HD
ATOM     40 2HH2 ARG X   1     -37.560  18.226  -3.742  1.00 29.13 LIG 0.17  HD
ATOM     41 2HH1 ARG X   1     -37.123  16.273  -2.630  1.00 27.97 LIG 0.17  HD
ATOM     42 1HH1 ARG X   1     -37.803  15.010  -3.035  1.00 27.97 LIG 0.17  HD
ENDBRANCH 33 34
ENDBRANCH 32 33
ENDBRANCH 31 32
ENDBRANCH 26 31
ENDBRANCH 1 26
TORSDOF 15
ENDMDL
MODEL 20
USER: ADFR SOLUTION from run 116
USER: SCORE 13.824486 LL:  -1.778 LR: -13.698 RR:   0.000 FEB:  -9.224
USER: RMSD 2.671948
USER: SEED 115
USER: STATUS no improvement in best in 15 clusters for 5 generations
USER: GENES 17
USER: genes 0 Translation |==|  0.55975 0.39295 0.66114
USER: genes 1 Rotation |==|  0.48199 0.58376 0.55813 0.98916
USER: genes 2 Torsion [C]-N--CA-[CB] |==|  0.45626
USER: genes 3 Torsion [N]-CA--CB-[CG] |==|  0.52507
USER: genes 4 Torsion [CA]-CB--CG-[CD] |==|  0.57431
USER: genes 5 Torsion [CB]-CG--CD-[OE1] |==|  0.73459
USER: genes 6 Torsion [N]-CA--C-[N] |==|  0.46659
USER: genes 7 Torsion [C]-N--CA-[CB] |==|  0.18463
USER: genes 8 Torsion [N]-CA--C-[N] |==|  0.18933
USER: genes 9 Torsion [C]-N--CA-[CB] |==|  0.46260
USER: genes 10 Torsion [N]-CA--C-[O] |==|  0.35304
USER: genes 11 Torsion [N]-C--CA-[N] |==|  0.33710
USER: genes 12 Torsion [C]-CA--N-[H3] |==|  0.09526
USER: genes 13 Torsion [C]-CA--CB-[CG] |==|  0.75303
USER: genes 14 Torsion [CA]-CB--CG-[CD] |==|  0.70675
USER: genes 15 Torsion [CB]-CG--CD-[NE] |==|  0.26251
USER: genes 16 Torsion [CG]-CD--NE-[HE] |==|  0.01341
ROOT
ATOM      1  C   ARG X   1     -41.223  11.356  -6.371  1.00 28.35 LIG 0.25  C 
ATOM      2 O    ARG X   1     -40.313  10.534  -6.358  1.00 27.73 LIG-0.27  OA
ATOM      3  N   GLU X   2     -42.454  11.060  -6.769  1.00 29.79 LIG-0.35  N 
ATOM      4 H    GLU X   2     -43.130  11.580  -6.667  1.00 29.79 LIG 0.16  HD
ENDROOT
BRANCH 3 5
ATOM      5  CA  GLU X   2     -42.758   9.801  -7.422  1.00 30.62 LIG 0.18  C 
BRANCH 5 6
ATOM      6  CB  GLU X   2     -44.262   9.513  -7.440  1.00 30.95 LIG 0.04  C 
BRANCH 6 7
ATOM      7  CG  GLU X   2     -44.615   8.094  -7.924  1.00 31.16 LIG 0.12  C 
BRANCH 7 8
ATOM      8  CD  GLU X   2     -46.004   7.979  -8.555  1.00 32.27 LIG 0.17  C 
ATOM      9 OE1  GLU X   2     -46.957   7.604  -7.846  1.00 31.08 LIG-0.65  OA
ATOM     10 OE2  GLU X   2     -46.139   8.245  -9.771  1.00 30.98 LIG-0.65  OA
ENDBRANCH 7 8
ENDBRANCH 6 7
ENDBRANCH 5 6
BRANCH 5 11
ATOM     11  C   GLU X   2     -42.224   9.865  -8.837  1.00 31.96 LIG 0.24  C 
ATOM     12  N   ALA X   3     -42.200   8.712  -9.485  1.00 33.07 LIG-0.35  N 
ATOM     13 H    ALA X   3     -42.420   7.957  -9.137  1.00 33.07 LIG 0.16  HD
ATOM     14 O    GLU X   2     -41.844  10.935  -9.327  1.00 31.51 LIG-0.27  OA
BRANCH 12 15
ATOM     15  CA  ALA X   3     -41.786   8.640 -10.876  1.00 34.83 LIG 0.17  C 
ATOM     16  CB  ALA X   3     -40.300   8.993 -11.008  1.00 34.52 LIG 0.04  C 
BRANCH 15 17
ATOM     17  C   ALA X   3     -42.062   7.243 -11.390  1.00 35.72 LIG 0.24  C 
ATOM     18  N   ALA X   4     -43.347   6.907 -11.508  1.00 36.94 LIG-0.34  N 
ATOM     19 H    ALA X   4     -43.993   7.432 -11.293  1.00 36.94 LIG 0.16  HD
ATOM     20 O    ALA X   3     -41.129   6.481 -11.645  1.00 36.60 LIG-0.27  OA
BRANCH 18 21
ATOM     21  CA  ALA X   4     -43.788   5.606 -12.019  1.00 37.95 LIG 0.18  C 
ATOM     22  CB  ALA X   4     -45.272   5.392 -11.729  1.00 38.38 LIG 0.04  C 
BRANCH 21 23
ATOM     23  C   ALA X   4     -43.519   5.454 -13.515  1.00 38.48 LIG 0.20  C 
ATOM     24 O    ALA X   4     -42.902   4.489 -13.968  1.00 38.71 LIG-0.65  OA
ATOM     25 OXT  ALA X   4     -43.918   6.302 -14.310  1.00 39.00 LIG-0.65  OA
ENDBRANCH 21 23
ENDBRANCH 18 21
ENDBRANCH 15 17
ENDBRANCH 12 15
ENDBRANCH 5 11
ENDBRANCH 3 5
BRANCH 1 26
ATOM     26  CA  ARG X   1     -40.997  12.790  -5.918  1.00 28.22 LIG 0.27  C 
BRANCH 26 27
ATOM     27  N   ARG X   1     -40.506  12.853  -4.506  1.00 27.64 LIG-0.07  N 
ATOM     28 H3   ARG X   1     -39.982  12.153  -4.342  1.00 27.64 LIG 0.28  HD
ATOM     29 H2   ARG X   1     -41.199  12.842  -3.949  1.00 27.64 LIG 0.28  HD
ATOM     30 H1   ARG X   1     -40.042  13.604  -4.386  1.00 27.64 LIG 0.28  HD
ENDBRANCH 26 27
BRANCH 26 31
ATOM     31  CB  ARG X   1     -40.000  13.453  -6.876  1.00 28.04 LIG 0.04  C 
BRANCH 31 32
ATOM     32  CG  ARG X   1     -38.547  13.300  -6.508  1.00 27.94 LIG 0.02  C 
BRANCH 32 33
ATOM     33  CD  ARG X   1     -37.934  14.585  -5.940  1.00 29.24 LIG 0.14  C 
BRANCH 33 34
ATOM     34  NE  ARG X   1     -37.998  14.573  -4.477  1.00 27.62 LIG-0.23  N 
ATOM     35 HE   ARG X   1     -38.294  13.862  -4.096  1.00 27.62 LIG 0.18  HD
ATOM     36  CZ  ARG X   1     -37.630  15.587  -3.698  1.00 28.90 LIG 0.67  C 
ATOM     37  NH2 ARG X   1     -37.148  16.709  -4.228  1.00 29.13 LIG-0.23  N 
ATOM     38  NH1 ARG X   1     -37.735  15.479  -2.379  1.00 27.97 LIG-0.23  N 
ATOM     39 1HH2 ARG X   1     -37.072  16.784  -5.081  1.00 29.13 LIG 0.17  HD
ATOM     40 2HH2 ARG X   1     -36.912  17.360  -3.716  1.00 29.13 LIG 0.17  HD
ATOM     41 2HH1 ARG X   1     -37.498  16.133  -1.874  1.00 27.97 LIG 0.17  HD
ATOM     42 1HH1 ARG X   1     -38.039  14.755  -2.030  1.00 27.97 LIG 0.17  HD
ENDBRANCH 33 34
ENDBRANCH 32 33
ENDBRANCH 31 32
ENDBRANCH 26 31
ENDBRANCH 1 26
TORSDOF 15
ENDMDL
MODEL 21
USER: ADFR SOLUTION from run 141
USER: SCORE 14.570422 LL:  -1.972 LR: -13.647 RR:   0.000 FEB:  -9.172
USER: RMSD 6.755845
USER: SEED 140
USER: STATUS no improvement in best in 17 clusters for 5 generations
USER: GENES 17
USER: genes 0 Translation |==|  0.59423 0.40669 0.64377
USER: genes 1 Rotation |==|  0.51848 0.28775 0.49996 0.95234
USER: genes 2 Torsion [C]-N--CA-[CB] |==|  0.47357
USER: genes 3 Torsion [N]-CA--CB-[CG] |==|  0.66792
USER: genes 4 Torsion [CA]-CB--CG-[CD] |==|  0.78262
USER: genes 5 Torsion [CB]-CG--CD-[OE1] |==|  0.82742
USER: genes 6 Torsion [N]-CA--C-[N] |==|  0.47131
USER: genes 7 Torsion [C]-N--CA-[CB] |==|  0.88095
USER: genes 8 Torsion [N]-CA--C-[N] |==|  0.40428
USER: genes 9 Torsion [C]-N--CA-[CB] |==|  0.87196
USER: genes 10 Torsion [N]-CA--C-[O] |==|  0.39476
USER: genes 11 Torsion [N]-C--CA-[N] |==|  0.55205
USER: genes 12 Torsion [C]-CA--N-[H3] |==|  0.68016
USER: genes 13 Torsion [C]-CA--CB-[CG] |==|  0.45755
USER: genes 14 Torsion [CA]-CB--CG-[CD] |==|  0.45929
USER: genes 15 Torsion [CB]-CG--CD-[NE] |==|  0.47298
USER: genes 16 Torsion [CG]-CD--NE-[HE] |==|  0.18811
ROOT
ATOM      1  C   ARG X   1     -40.680  11.644  -6.736  1.00 28.35 LIG 0.25  C 
ATOM      2 O    ARG X   1     -40.394  10.596  -6.167  1.00 27.73 LIG-0.27  OA
ATOM      3  N   GLU X   2     -40.743  11.751  -8.057  1.00 29.79 LIG-0.35  N 
ATOM      4 H    GLU X   2     -41.062  12.435  -8.469  1.00 29.79 LIG 0.16  HD
ENDROOT
BRANCH 3 5
ATOM      5  CA  GLU X   2     -40.266  10.694  -8.928  1.00 30.62 LIG 0.18  C 
BRANCH 5 6
ATOM      6  CB  GLU X   2     -40.653  10.937 -10.390  1.00 30.95 LIG 0.04  C 
BRANCH 6 7
ATOM      7  CG  GLU X   2     -41.538   9.828 -10.988  1.00 31.16 LIG 0.12  C 
BRANCH 7 8
ATOM      8  CD  GLU X   2     -40.770   8.567 -11.389  1.00 32.27 LIG 0.17  C 
ATOM      9 OE1  GLU X   2     -39.894   8.652 -12.272  1.00 31.08 LIG-0.65  OA
ATOM     10 OE2  GLU X   2     -41.056   7.482 -10.834  1.00 30.98 LIG-0.65  OA
ENDBRANCH 7 8
ENDBRANCH 6 7
ENDBRANCH 5 6
BRANCH 5 11
ATOM     11  C   GLU X   2     -38.761  10.617  -8.793  1.00 31.96 LIG 0.24  C 
ATOM     12  N   ALA X   3     -38.195   9.564  -9.360  1.00 33.07 LIG-0.35  N 
ATOM     13 H    ALA X   3     -38.630   8.929  -9.742  1.00 33.07 LIG 0.16  HD
ATOM     14 O    GLU X   2     -38.129  11.493  -8.190  1.00 31.51 LIG-0.27  OA
BRANCH 12 15
ATOM     15  CA  ALA X   3     -36.751   9.404  -9.377  1.00 34.83 LIG 0.17  C 
ATOM     16  CB  ALA X   3     -36.072  10.736  -9.712  1.00 34.52 LIG 0.04  C 
BRANCH 15 17
ATOM     17  C   ALA X   3     -36.306   8.891  -8.023  1.00 35.72 LIG 0.24  C 
ATOM     18  N   ALA X   4     -35.270   8.053  -8.028  1.00 36.94 LIG-0.34  N 
ATOM     19 H    ALA X   4     -34.876   7.793  -8.747  1.00 36.94 LIG 0.16  HD
ATOM     20 O    ALA X   3     -36.911   9.228  -7.005  1.00 36.60 LIG-0.27  OA
BRANCH 18 21
ATOM     21  CA  ALA X   4     -34.695   7.489  -6.803  1.00 37.95 LIG 0.18  C 
ATOM     22  CB  ALA X   4     -34.505   8.578  -5.749  1.00 38.38 LIG 0.04  C 
BRANCH 21 23
ATOM     23  C   ALA X   4     -35.547   6.354  -6.238  1.00 38.48 LIG 0.20  C 
ATOM     24 O    ALA X   4     -35.039   5.354  -5.729  1.00 38.71 LIG-0.65  OA
ATOM     25 OXT  ALA X   4     -36.774   6.416  -6.278  1.00 39.00 LIG-0.65  OA
ENDBRANCH 21 23
ENDBRANCH 18 21
ENDBRANCH 15 17
ENDBRANCH 12 15
ENDBRANCH 5 11
ENDBRANCH 3 5
BRANCH 1 26
ATOM     26  CA  ARG X   1     -40.992  12.909  -5.950  1.00 28.22 LIG 0.27  C 
BRANCH 26 27
ATOM     27  N   ARG X   1     -40.473  12.832  -4.549  1.00 27.64 LIG-0.07  N 
ATOM     28 H3   ARG X   1     -41.155  12.839  -3.978  1.00 27.64 LIG 0.28  HD
ATOM     29 H2   ARG X   1     -39.945  13.531  -4.389  1.00 27.64 LIG 0.28  HD
ATOM     30 H1   ARG X   1     -40.007  12.080  -4.446  1.00 27.64 LIG 0.28  HD
ENDBRANCH 26 27
BRANCH 26 31
ATOM     31  CB  ARG X   1     -40.390  14.107  -6.694  1.00 28.04 LIG 0.04  C 
BRANCH 31 32
ATOM     32  CG  ARG X   1     -40.899  15.458  -6.264  1.00 27.94 LIG 0.02  C 
BRANCH 32 33
ATOM     33  CD  ARG X   1     -40.028  16.615  -6.768  1.00 29.24 LIG 0.14  C 
BRANCH 33 34
ATOM     34  NE  ARG X   1     -40.693  17.895  -6.517  1.00 27.62 LIG-0.23  N 
ATOM     35 HE   ARG X   1     -40.785  18.145  -5.700  1.00 27.62 LIG 0.18  HD
ATOM     36  CZ  ARG X   1     -41.165  18.698  -7.467  1.00 28.90 LIG 0.67  C 
ATOM     37  NH2 ARG X   1     -41.039  18.376  -8.753  1.00 29.13 LIG-0.23  N 
ATOM     38  NH1 ARG X   1     -41.760  19.837  -7.135  1.00 27.97 LIG-0.23  N 
ATOM     39 1HH2 ARG X   1     -40.650  17.642  -8.976  1.00 29.13 LIG 0.17  HD
ATOM     40 2HH2 ARG X   1     -41.347  18.901  -9.360  1.00 29.13 LIG 0.17  HD
ATOM     41 2HH1 ARG X   1     -42.066  20.358  -7.747  1.00 27.97 LIG 0.17  HD
ATOM     42 1HH1 ARG X   1     -41.839  20.055  -6.306  1.00 27.97 LIG 0.17  HD
ENDBRANCH 33 34
ENDBRANCH 32 33
ENDBRANCH 31 32
ENDBRANCH 26 31
ENDBRANCH 1 26
TORSDOF 15
ENDMDL
MODEL 22
USER: ADFR SOLUTION from run 148
USER: SCORE 13.918794 LL:  -2.800 LR: -13.621 RR:   0.000 FEB:  -9.147
USER: RMSD 4.238789
USER: SEED 147
USER: STATUS no improvement in best in 10 clusters for 5 generations
USER: GENES 17
USER: genes 0 Translation |==|  0.61066 0.52641 0.59562
USER: genes 1 Rotation |==|  0.59896 0.79200 0.80669 0.74674
USER: genes 2 Torsion [C]-N--CA-[CB] |==|  0.30213
USER: genes 3 Torsion [N]-CA--CB-[CG] |==|  0.98864
USER: genes 4 Torsion [CA]-CB--CG-[CD] |==|  0.19990
USER: genes 5 Torsion [CB]-CG--CD-[OE1] |==|  0.91293
USER: genes 6 Torsion [N]-CA--C-[N] |==|  0.72184
USER: genes 7 Torsion [C]-N--CA-[CB] |==|  0.85508
USER: genes 8 Torsion [N]-CA--C-[N] |==|  0.13967
USER: genes 9 Torsion [C]-N--CA-[CB] |==|  0.24804
USER: genes 10 Torsion [N]-CA--C-[O] |==|  0.89093
USER: genes 11 Torsion [N]-C--CA-[N] |==|  0.06680
USER: genes 12 Torsion [C]-CA--N-[H3] |==|  0.09291
USER: genes 13 Torsion [C]-CA--CB-[CG] |==|  0.57500
USER: genes 14 Torsion [CA]-CB--CG-[CD] |==|  0.57079
USER: genes 15 Torsion [CB]-CG--CD-[NE] |==|  0.55637
USER: genes 16 Torsion [CG]-CD--NE-[HE] |==|  0.99295
ROOT
ATOM      1  C   ARG X   1     -40.421  14.159  -7.747  1.00 28.35 LIG 0.25  C 
ATOM      2 O    ARG X   1     -40.150  14.644  -8.840  1.00 27.73 LIG-0.27  OA
ATOM      3  N   GLU X   2     -40.624  12.859  -7.567  1.00 29.79 LIG-0.35  N 
ATOM      4 H    GLU X   2     -40.688  12.485  -6.796  1.00 29.79 LIG 0.16  HD
ENDROOT
BRANCH 3 5
ATOM      5  CA  GLU X   2     -40.755  11.949  -8.689  1.00 30.62 LIG 0.18  C 
BRANCH 5 6
ATOM      6  CB  GLU X   2     -39.534  11.035  -8.831  1.00 30.95 LIG 0.04  C 
BRANCH 6 7
ATOM      7  CG  GLU X   2     -38.408  11.347  -7.827  1.00 31.16 LIG 0.12  C 
BRANCH 7 8
ATOM      8  CD  GLU X   2     -38.728  10.942  -6.387  1.00 32.27 LIG 0.17  C 
ATOM      9 OE1  GLU X   2     -39.913  10.978  -6.002  1.00 31.08 LIG-0.65  OA
ATOM     10 OE2  GLU X   2     -37.789  10.604  -5.631  1.00 30.98 LIG-0.65  OA
ENDBRANCH 7 8
ENDBRANCH 6 7
ENDBRANCH 5 6
BRANCH 5 11
ATOM     11  C   GLU X   2     -42.003  11.120  -8.479  1.00 31.96 LIG 0.24  C 
ATOM     12  N   ALA X   3     -41.800   9.903  -8.001  1.00 33.07 LIG-0.35  N 
ATOM     13 H    ALA X   3     -41.023   9.564  -7.857  1.00 33.07 LIG 0.16  HD
ATOM     14 O    GLU X   2     -43.123  11.574  -8.744  1.00 31.51 LIG-0.27  OA
BRANCH 12 15
ATOM     15  CA  ALA X   3     -42.913   9.027  -7.678  1.00 34.83 LIG 0.17  C 
ATOM     16  CB  ALA X   3     -43.903   9.744  -6.754  1.00 34.52 LIG 0.04  C 
BRANCH 15 17
ATOM     17  C   ALA X   3     -43.581   8.598  -8.967  1.00 35.72 LIG 0.24  C 
ATOM     18  N   ALA X   4     -42.773   8.117  -9.912  1.00 36.94 LIG-0.34  N 
ATOM     19 H    ALA X   4     -41.920   8.063  -9.820  1.00 36.94 LIG 0.16  HD
ATOM     20 O    ALA X   3     -44.798   8.729  -9.107  1.00 36.60 LIG-0.27  OA
BRANCH 18 21
ATOM     21  CA  ALA X   4     -43.260   7.629 -11.206  1.00 37.95 LIG 0.18  C 
ATOM     22  CB  ALA X   4     -43.313   8.769 -12.221  1.00 38.38 LIG 0.04  C 
BRANCH 21 23
ATOM     23  C   ALA X   4     -42.408   6.484 -11.746  1.00 38.48 LIG 0.20  C 
ATOM     24 O    ALA X   4     -41.181   6.479 -11.630  1.00 38.71 LIG-0.65  OA
ATOM     25 OXT  ALA X   4     -42.933   5.529 -12.314  1.00 39.00 LIG-0.65  OA
ENDBRANCH 21 23
ENDBRANCH 18 21
ENDBRANCH 15 17
ENDBRANCH 12 15
ENDBRANCH 5 11
ENDBRANCH 3 5
BRANCH 1 26
ATOM     26  CA  ARG X   1     -40.537  15.029  -6.505  1.00 28.22 LIG 0.27  C 
BRANCH 26 27
ATOM     27  N   ARG X   1     -40.289  14.245  -5.255  1.00 27.64 LIG-0.07  N 
ATOM     28 H3   ARG X   1     -39.686  13.612  -5.416  1.00 27.64 LIG 0.28  HD
ATOM     29 H2   ARG X   1     -41.049  13.869  -4.984  1.00 27.64 LIG 0.28  HD
ATOM     30 H1   ARG X   1     -39.986  14.789  -4.619  1.00 27.64 LIG 0.28  HD
ENDBRANCH 26 27
BRANCH 26 31
ATOM     31  CB  ARG X   1     -39.545  16.192  -6.630  1.00 28.04 LIG 0.04  C 
BRANCH 31 32
ATOM     32  CG  ARG X   1     -39.053  16.766  -5.327  1.00 27.94 LIG 0.02  C 
BRANCH 32 33
ATOM     33  CD  ARG X   1     -38.605  18.227  -5.447  1.00 29.24 LIG 0.14  C 
BRANCH 33 34
ATOM     34  NE  ARG X   1     -37.718  18.577  -4.336  1.00 27.62 LIG-0.23  N 
ATOM     35 HE   ARG X   1     -37.569  17.976  -3.738  1.00 27.62 LIG 0.18  HD
ATOM     36  CZ  ARG X   1     -37.125  19.759  -4.188  1.00 28.90 LIG 0.67  C 
ATOM     37  NH2 ARG X   1     -37.301  20.724  -5.088  1.00 29.13 LIG-0.23  N 
ATOM     38  NH1 ARG X   1     -36.342  19.979  -3.138  1.00 27.97 LIG-0.23  N 
ATOM     39 1HH2 ARG X   1     -37.802  20.586  -5.773  1.00 29.13 LIG 0.17  HD
ATOM     40 2HH2 ARG X   1     -36.914  21.485  -4.984  1.00 29.13 LIG 0.17  HD
ATOM     41 2HH1 ARG X   1     -35.959  20.743  -3.040  1.00 27.97 LIG 0.17  HD
ATOM     42 1HH1 ARG X   1     -36.219  19.358  -2.557  1.00 27.97 LIG 0.17  HD
ENDBRANCH 33 34
ENDBRANCH 32 33
ENDBRANCH 31 32
ENDBRANCH 26 31
ENDBRANCH 1 26
TORSDOF 15
ENDMDL
MODEL 23
USER: ADFR SOLUTION from run 90
USER: SCORE 14.123226 LL:  -2.134 LR: -13.535 RR:   0.000 FEB:  -9.061
USER: RMSD 2.245322
USER: SEED 89
USER: STATUS no improvement in best in 15 clusters for 5 generations
USER: GENES 17
USER: genes 0 Translation |==|  0.55726 0.40830 0.65400
USER: genes 1 Rotation |==|  0.53049 0.45836 0.52033 0.99691
USER: genes 2 Torsion [C]-N--CA-[CB] |==|  0.16771
USER: genes 3 Torsion [N]-CA--CB-[CG] |==|  0.21900
USER: genes 4 Torsion [CA]-CB--CG-[CD] |==|  0.28292
USER: genes 5 Torsion [CB]-CG--CD-[OE1] |==|  0.56676
USER: genes 6 Torsion [N]-CA--C-[N] |==|  0.47531
USER: genes 7 Torsion [C]-N--CA-[CB] |==|  0.20772
USER: genes 8 Torsion [N]-CA--C-[N] |==|  0.00176
USER: genes 9 Torsion [C]-N--CA-[CB] |==|  0.15848
USER: genes 10 Torsion [N]-CA--C-[O] |==|  0.97654
USER: genes 11 Torsion [N]-C--CA-[N] |==|  0.47760
USER: genes 12 Torsion [C]-CA--N-[H3] |==|  0.66700
USER: genes 13 Torsion [C]-CA--CB-[CG] |==|  0.42107
USER: genes 14 Torsion [CA]-CB--CG-[CD] |==|  0.45394
USER: genes 15 Torsion [CB]-CG--CD-[NE] |==|  0.47071
USER: genes 16 Torsion [CG]-CD--NE-[HE] |==|  0.16250
ROOT
ATOM      1  C   ARG X   1     -41.262  11.678  -6.521  1.00 28.35 LIG 0.25  C 
ATOM      2 O    ARG X   1     -40.562  10.692  -6.318  1.00 27.73 LIG-0.27  OA
ATOM      3  N   GLU X   2     -42.176  11.726  -7.482  1.00 29.79 LIG-0.35  N 
ATOM      4 H    GLU X   2     -42.759  12.352  -7.560  1.00 29.79 LIG 0.16  HD
ENDROOT
BRANCH 3 5
ATOM      5  CA  GLU X   2     -42.262  10.695  -8.500  1.00 30.62 LIG 0.18  C 
BRANCH 5 6
ATOM      6  CB  GLU X   2     -42.535   9.315  -7.895  1.00 30.95 LIG 0.04  C 
BRANCH 6 7
ATOM      7  CG  GLU X   2     -44.009   9.088  -7.511  1.00 31.16 LIG 0.12  C 
BRANCH 7 8
ATOM      8  CD  GLU X   2     -44.789   8.235  -8.513  1.00 32.27 LIG 0.17  C 
ATOM      9 OE1  GLU X   2     -46.028   8.354  -8.568  1.00 31.08 LIG-0.65  OA
ATOM     10 OE2  GLU X   2     -44.162   7.427  -9.236  1.00 30.98 LIG-0.65  OA
ENDBRANCH 7 8
ENDBRANCH 6 7
ENDBRANCH 5 6
BRANCH 5 11
ATOM     11  C   GLU X   2     -43.370  11.071  -9.458  1.00 31.96 LIG 0.24  C 
ATOM     12  N   ALA X   3     -43.454  10.326 -10.548  1.00 33.07 LIG-0.35  N 
ATOM     13 H    ALA X   3     -42.902   9.697 -10.746  1.00 33.07 LIG 0.16  HD
ATOM     14 O    GLU X   2     -44.131  12.016  -9.215  1.00 31.51 LIG-0.27  OA
BRANCH 12 15
ATOM     15  CA  ALA X   3     -44.519  10.525 -11.516  1.00 34.83 LIG 0.17  C 
ATOM     16  CB  ALA X   3     -44.257  11.788 -12.343  1.00 34.52 LIG 0.04  C 
BRANCH 15 17
ATOM     17  C   ALA X   3     -44.601   9.300 -12.402  1.00 35.72 LIG 0.24  C 
ATOM     18  N   ALA X   4     -43.737   8.322 -12.129  1.00 36.94 LIG-0.34  N 
ATOM     19 H    ALA X   4     -43.148   8.373 -11.505  1.00 36.94 LIG 0.16  HD
ATOM     20 O    ALA X   3     -45.413   9.259 -13.328  1.00 36.60 LIG-0.27  OA
BRANCH 18 21
ATOM     21  CA  ALA X   4     -43.703   7.057 -12.870  1.00 37.95 LIG 0.18  C 
ATOM     22  CB  ALA X   4     -43.498   7.316 -14.361  1.00 38.38 LIG 0.04  C 
BRANCH 21 23
ATOM     23  C   ALA X   4     -42.622   6.114 -12.347  1.00 38.48 LIG 0.20  C 
ATOM     24 O    ALA X   4     -41.790   6.480 -11.514  1.00 38.71 LIG-0.65  OA
ATOM     25 OXT  ALA X   4     -42.558   4.954 -12.748  1.00 39.00 LIG-0.65  OA
ENDBRANCH 21 23
ENDBRANCH 18 21
ENDBRANCH 15 17
ENDBRANCH 12 15
ENDBRANCH 5 11
ENDBRANCH 3 5
BRANCH 1 26
ATOM     26  CA  ARG X   1     -41.130  12.929  -5.666  1.00 28.22 LIG 0.27  C 
BRANCH 26 27
ATOM     27  N   ARG X   1     -40.220  12.708  -4.499  1.00 27.64 LIG-0.07  N 
ATOM     28 H3   ARG X   1     -40.668  12.844  -3.743  1.00 27.64 LIG 0.28  HD
ATOM     29 H2   ARG X   1     -39.536  13.276  -4.544  1.00 27.64 LIG 0.28  HD
ATOM     30 H1   ARG X   1     -39.912  11.873  -4.516  1.00 27.64 LIG 0.28  HD
ENDBRANCH 26 27
BRANCH 26 31
ATOM     31  CB  ARG X   1     -40.622  14.074  -6.551  1.00 28.04 LIG 0.04  C 
BRANCH 31 32
ATOM     32  CG  ARG X   1     -41.041  15.456  -6.124  1.00 27.94 LIG 0.02  C 
BRANCH 32 33
ATOM     33  CD  ARG X   1     -40.202  16.564  -6.773  1.00 29.24 LIG 0.14  C 
BRANCH 33 34
ATOM     34  NE  ARG X   1     -40.810  17.872  -6.521  1.00 27.62 LIG-0.23  N 
ATOM     35 HE   ARG X   1     -40.922  18.110  -5.702  1.00 27.62 LIG 0.18  HD
ATOM     36  CZ  ARG X   1     -41.201  18.717  -7.471  1.00 28.90 LIG 0.67  C 
ATOM     37  NH2 ARG X   1     -41.039  18.414  -8.757  1.00 29.13 LIG-0.23  N 
ATOM     38  NH1 ARG X   1     -41.749  19.879  -7.138  1.00 27.97 LIG-0.23  N 
ATOM     39 1HH2 ARG X   1     -40.679  17.665  -8.981  1.00 29.13 LIG 0.17  HD
ATOM     40 2HH2 ARG X   1     -41.295  18.966  -9.365  1.00 29.13 LIG 0.17  HD
ATOM     41 2HH1 ARG X   1     -42.003  20.427  -7.751  1.00 27.97 LIG 0.17  HD
ATOM     42 1HH1 ARG X   1     -41.850  20.084  -6.309  1.00 27.97 LIG 0.17  HD
ENDBRANCH 33 34
ENDBRANCH 32 33
ENDBRANCH 31 32
ENDBRANCH 26 31
ENDBRANCH 1 26
TORSDOF 15
ENDMDL
MODEL 24
USER: ADFR SOLUTION from run 175
USER: SCORE 12.766707 LL:  -1.246 LR: -13.508 RR:   0.000 FEB:  -9.033
USER: RMSD 3.264644
USER: SEED 174
USER: STATUS searching
USER: GENES 17
USER: genes 0 Translation |==|  0.50432 0.38548 0.61509
USER: genes 1 Rotation |==|  0.31016 0.11643 0.24302 0.52819
USER: genes 2 Torsion [C]-N--CA-[CB] |==|  0.87775
USER: genes 3 Torsion [N]-CA--CB-[CG] |==|  0.51577
USER: genes 4 Torsion [CA]-CB--CG-[CD] |==|  0.62990
USER: genes 5 Torsion [CB]-CG--CD-[OE1] |==|  0.22527
USER: genes 6 Torsion [N]-CA--C-[N] |==|  0.34444
USER: genes 7 Torsion [C]-N--CA-[CB] |==|  0.29444
USER: genes 8 Torsion [N]-CA--C-[N] |==|  0.30813
USER: genes 9 Torsion [C]-N--CA-[CB] |==|  0.85242
USER: genes 10 Torsion [N]-CA--C-[O] |==|  0.59245
USER: genes 11 Torsion [N]-C--CA-[N] |==|  0.69538
USER: genes 12 Torsion [C]-CA--N-[H3] |==|  0.23362
USER: genes 13 Torsion [C]-CA--CB-[CG] |==|  0.50553
USER: genes 14 Torsion [CA]-CB--CG-[CD] |==|  0.82726
USER: genes 15 Torsion [CB]-CG--CD-[NE] |==|  0.22375
USER: genes 16 Torsion [CG]-CD--NE-[HE] |==|  0.16836
ROOT
ATOM      1  C   ARG X   1     -42.096  11.199  -7.338  1.00 28.35 LIG 0.25  C 
ATOM      2 O    ARG X   1     -43.143  11.532  -7.884  1.00 27.73 LIG-0.27  OA
ATOM      3  N   GLU X   2     -41.579   9.982  -7.456  1.00 29.79 LIG-0.35  N 
ATOM      4 H    GLU X   2     -40.791   9.767  -7.190  1.00 29.79 LIG 0.16  HD
ENDROOT
BRANCH 3 5
ATOM      5  CA  GLU X   2     -42.327   8.895  -8.059  1.00 30.62 LIG 0.18  C 
BRANCH 5 6
ATOM      6  CB  GLU X   2     -43.777   8.855  -7.566  1.00 30.95 LIG 0.04  C 
BRANCH 6 7
ATOM      7  CG  GLU X   2     -44.569   7.636  -8.074  1.00 31.16 LIG 0.12  C 
BRANCH 7 8
ATOM      8  CD  GLU X   2     -45.955   7.979  -8.623  1.00 32.27 LIG 0.17  C 
ATOM      9 OE1  GLU X   2     -46.050   8.412  -9.788  1.00 31.08 LIG-0.65  OA
ATOM     10 OE2  GLU X   2     -46.953   7.834  -7.880  1.00 30.98 LIG-0.65  OA
ENDBRANCH 7 8
ENDBRANCH 6 7
ENDBRANCH 5 6
BRANCH 5 11
ATOM     11  C   GLU X   2     -42.293   9.078  -9.561  1.00 31.96 LIG 0.24  C 
ATOM     12  N   ALA X   3     -41.821   8.050 -10.246  1.00 33.07 LIG-0.35  N 
ATOM     13 H    ALA X   3     -41.504   7.335  -9.887  1.00 33.07 LIG 0.16  HD
ATOM     14 O    GLU X   2     -42.686  10.127 -10.085  1.00 31.51 LIG-0.27  OA
BRANCH 12 15
ATOM     15  CA  ALA X   3     -41.804   8.057 -11.698  1.00 34.83 LIG 0.17  C 
ATOM     16  CB  ALA X   3     -40.375   8.266 -12.213  1.00 34.52 LIG 0.04  C 
BRANCH 15 17
ATOM     17  C   ALA X   3     -42.376   6.746 -12.194  1.00 35.72 LIG 0.24  C 
ATOM     18  N   ALA X   4     -43.562   6.818 -12.800  1.00 36.94 LIG-0.34  N 
ATOM     19 H    ALA X   4     -43.999   7.552 -12.895  1.00 36.94 LIG 0.16  HD
ATOM     20 O    ALA X   3     -41.766   5.693 -12.005  1.00 36.60 LIG-0.27  OA
BRANCH 18 21
ATOM     21  CA  ALA X   4     -44.241   5.648 -13.365  1.00 37.95 LIG 0.18  C 
ATOM     22  CB  ALA X   4     -43.315   4.902 -14.324  1.00 38.38 LIG 0.04  C 
BRANCH 21 23
ATOM     23  C   ALA X   4     -44.749   4.700 -12.282  1.00 38.48 LIG 0.20  C 
ATOM     24 O    ALA X   4     -44.785   3.480 -12.453  1.00 38.71 LIG-0.65  OA
ATOM     25 OXT  ALA X   4     -45.137   5.138 -11.201  1.00 39.00 LIG-0.65  OA
ENDBRANCH 21 23
ENDBRANCH 18 21
ENDBRANCH 15 17
ENDBRANCH 12 15
ENDBRANCH 5 11
ENDBRANCH 3 5
BRANCH 1 26
ATOM     26  CA  ARG X   1     -41.306  12.178  -6.483  1.00 28.22 LIG 0.27  C 
BRANCH 26 27
ATOM     27  N   ARG X   1     -42.006  12.479  -5.196  1.00 27.64 LIG-0.07  N 
ATOM     28 H3   ARG X   1     -41.814  11.848  -4.599  1.00 27.64 LIG 0.28  HD
ATOM     29 H2   ARG X   1     -42.885  12.499  -5.333  1.00 27.64 LIG 0.28  HD
ATOM     30 H1   ARG X   1     -41.737  13.270  -4.890  1.00 27.64 LIG 0.28  HD
ENDBRANCH 26 27
BRANCH 26 31
ATOM     31  CB  ARG X   1     -39.914  11.588  -6.226  1.00 28.04 LIG 0.04  C 
BRANCH 31 32
ATOM     32  CG  ARG X   1     -39.012  12.416  -5.349  1.00 27.94 LIG 0.02  C 
BRANCH 32 33
ATOM     33  CD  ARG X   1     -38.690  13.791  -5.948  1.00 29.24 LIG 0.14  C 
BRANCH 33 34
ATOM     34  NE  ARG X   1     -39.795  14.719  -5.705  1.00 27.62 LIG-0.23  N 
ATOM     35 HE   ARG X   1     -40.005  14.887  -4.889  1.00 27.62 LIG 0.18  HD
ATOM     36  CZ  ARG X   1     -40.498  15.321  -6.662  1.00 28.90 LIG 0.67  C 
ATOM     37  NH2 ARG X   1     -40.212  15.116  -7.945  1.00 29.13 LIG-0.23  N 
ATOM     38  NH1 ARG X   1     -41.489  16.142  -6.337  1.00 27.97 LIG-0.23  N 
ATOM     39 1HH2 ARG X   1     -39.567  14.589  -8.164  1.00 29.13 LIG 0.17  HD
ATOM     40 2HH2 ARG X   1     -40.671  15.509  -8.557  1.00 29.13 LIG 0.17  HD
ATOM     41 2HH1 ARG X   1     -41.945  16.532  -6.953  1.00 27.97 LIG 0.17  HD
ATOM     42 1HH1 ARG X   1     -41.675  16.285  -5.509  1.00 27.97 LIG 0.17  HD
ENDBRANCH 33 34
ENDBRANCH 32 33
ENDBRANCH 31 32
ENDBRANCH 26 31
ENDBRANCH 1 26
TORSDOF 15
ENDMDL
MODEL 25
USER: ADFR SOLUTION from run 190
USER: SCORE 14.544083 LL:  -2.729 LR: -13.468 RR:   0.000 FEB:  -8.993
USER: RMSD 6.311450
USER: SEED 189
USER: STATUS no improvement in best in 26 clusters for 5 generations
USER: GENES 17
USER: genes 0 Translation |==|  0.62653 0.39145 0.64164
USER: genes 1 Rotation |==|  0.54641 0.36423 0.48768 0.97881
USER: genes 2 Torsion [C]-N--CA-[CB] |==|  0.47222
USER: genes 3 Torsion [N]-CA--CB-[CG] |==|  0.76578
USER: genes 4 Torsion [CA]-CB--CG-[CD] |==|  0.20990
USER: genes 5 Torsion [CB]-CG--CD-[OE1] |==|  0.29717
USER: genes 6 Torsion [N]-CA--C-[N] |==|  0.42655
USER: genes 7 Torsion [C]-N--CA-[CB] |==|  0.85548
USER: genes 8 Torsion [N]-CA--C-[N] |==|  0.15618
USER: genes 9 Torsion [C]-N--CA-[CB] |==|  0.17121
USER: genes 10 Torsion [N]-CA--C-[O] |==|  0.84373
USER: genes 11 Torsion [N]-C--CA-[N] |==|  0.25414
USER: genes 12 Torsion [C]-CA--N-[H3] |==|  0.85556
USER: genes 13 Torsion [C]-CA--CB-[CG] |==|  0.36459
USER: genes 14 Torsion [CA]-CB--CG-[CD] |==|  0.93856
USER: genes 15 Torsion [CB]-CG--CD-[NE] |==|  0.22034
USER: genes 16 Torsion [CG]-CD--NE-[HE] |==|  0.09991
ROOT
ATOM      1  C   ARG X   1     -40.171  11.324  -6.781  1.00 28.35 LIG 0.25  C 
ATOM      2 O    ARG X   1     -39.724  10.228  -6.460  1.00 27.73 LIG-0.27  OA
ATOM      3  N   GLU X   2     -40.653  11.579  -7.991  1.00 29.79 LIG-0.35  N 
ATOM      4 H    GLU X   2     -41.084  12.294  -8.196  1.00 29.79 LIG 0.16  HD
ENDROOT
BRANCH 3 5
ATOM      5  CA  GLU X   2     -40.484  10.644  -9.087  1.00 30.62 LIG 0.18  C 
BRANCH 5 6
ATOM      6  CB  GLU X   2     -41.326  11.032 -10.306  1.00 30.95 LIG 0.04  C 
BRANCH 6 7
ATOM      7  CG  GLU X   2     -42.781  10.533 -10.238  1.00 31.16 LIG 0.12  C 
BRANCH 7 8
ATOM      8  CD  GLU X   2     -43.669  11.333  -9.283  1.00 32.27 LIG 0.17  C 
ATOM      9 OE1  GLU X   2     -44.523  12.104  -9.761  1.00 31.08 LIG-0.65  OA
ATOM     10 OE2  GLU X   2     -43.500  11.205  -8.049  1.00 30.98 LIG-0.65  OA
ENDBRANCH 7 8
ENDBRANCH 6 7
ENDBRANCH 5 6
BRANCH 5 11
ATOM     11  C   GLU X   2     -39.017  10.612  -9.456  1.00 31.96 LIG 0.24  C 
ATOM     12  N   ALA X   3     -38.597   9.486 -10.011  1.00 33.07 LIG-0.35  N 
ATOM     13 H    ALA X   3     -39.089   8.790 -10.122  1.00 33.07 LIG 0.16  HD
ATOM     14 O    GLU X   2     -38.284  11.585  -9.242  1.00 31.51 LIG-0.27  OA
BRANCH 12 15
ATOM     15  CA  ALA X   3     -37.232   9.346 -10.487  1.00 34.83 LIG 0.17  C 
ATOM     16  CB  ALA X   3     -36.872  10.506 -11.420  1.00 34.52 LIG 0.04  C 
BRANCH 15 17
ATOM     17  C   ALA X   3     -36.306   9.301  -9.290  1.00 35.72 LIG 0.24  C 
ATOM     18  N   ALA X   4     -36.562   8.354  -8.387  1.00 36.94 LIG-0.34  N 
ATOM     19 H    ALA X   4     -37.221   7.805  -8.454  1.00 36.94 LIG 0.16  HD
ATOM     20 O    ALA X   3     -35.399  10.126  -9.178  1.00 36.60 LIG-0.27  OA
BRANCH 18 21
ATOM     21  CA  ALA X   4     -35.745   8.153  -7.186  1.00 37.95 LIG 0.18  C 
ATOM     22  CB  ALA X   4     -35.780   9.398  -6.302  1.00 38.38 LIG 0.04  C 
BRANCH 21 23
ATOM     23  C   ALA X   4     -36.189   6.930  -6.388  1.00 38.48 LIG 0.20  C 
ATOM     24 O    ALA X   4     -37.346   6.804  -5.983  1.00 38.71 LIG-0.65  OA
ATOM     25 OXT  ALA X   4     -35.392   6.030  -6.131  1.00 39.00 LIG-0.65  OA
ENDBRANCH 21 23
ENDBRANCH 18 21
ENDBRANCH 15 17
ENDBRANCH 12 15
ENDBRANCH 5 11
ENDBRANCH 3 5
BRANCH 1 26
ATOM     26  CA  ARG X   1     -40.210  12.480  -5.792  1.00 28.22 LIG 0.27  C 
BRANCH 26 27
ATOM     27  N   ARG X   1     -41.471  12.479  -4.988  1.00 27.64 LIG-0.07  N 
ATOM     28 H3   ARG X   1     -42.172  12.437  -5.535  1.00 27.64 LIG 0.28  HD
ATOM     29 H2   ARG X   1     -41.517  13.225  -4.506  1.00 27.64 LIG 0.28  HD
ATOM     30 H1   ARG X   1     -41.477  11.774  -4.445  1.00 27.64 LIG 0.28  HD
ENDBRANCH 26 27
BRANCH 26 31
ATOM     31  CB  ARG X   1     -38.978  12.384  -4.882  1.00 28.04 LIG 0.04  C 
BRANCH 31 32
ATOM     32  CG  ARG X   1     -38.195  13.660  -4.718  1.00 27.94 LIG 0.02  C 
BRANCH 32 33
ATOM     33  CD  ARG X   1     -38.422  14.655  -5.863  1.00 29.24 LIG 0.14  C 
BRANCH 33 34
ATOM     34  NE  ARG X   1     -39.688  15.365  -5.672  1.00 27.62 LIG-0.23  N 
ATOM     35 HE   ARG X   1     -39.920  15.560  -4.868  1.00 27.62 LIG 0.18  HD
ATOM     36  CZ  ARG X   1     -40.503  15.729  -6.659  1.00 28.90 LIG 0.67  C 
ATOM     37  NH2 ARG X   1     -40.191  15.472  -7.927  1.00 29.13 LIG-0.23  N 
ATOM     38  NH1 ARG X   1     -41.635  16.364  -6.380  1.00 27.97 LIG-0.23  N 
ATOM     39 1HH2 ARG X   1     -39.457  15.066  -8.115  1.00 29.13 LIG 0.17  HD
ATOM     40 2HH2 ARG X   1     -40.725  15.711  -8.558  1.00 29.13 LIG 0.17  HD
ATOM     41 2HH1 ARG X   1     -42.164  16.601  -7.016  1.00 27.97 LIG 0.17  HD
ATOM     42 1HH1 ARG X   1     -41.840  16.540  -5.563  1.00 27.97 LIG 0.17  HD
ENDBRANCH 33 34
ENDBRANCH 32 33
ENDBRANCH 31 32
ENDBRANCH 26 31
ENDBRANCH 1 26
TORSDOF 15
ENDMDL
MODEL 26
USER: ADFR SOLUTION from run 39
USER: SCORE 13.494007 LL:  -2.244 LR: -13.399 RR:   0.000 FEB:  -8.925
USER: RMSD 6.654558
USER: SEED 38
USER: STATUS no improvement in best in 7 clusters for 5 generations
USER: GENES 17
USER: genes 0 Translation |==|  0.63386 0.51702 0.61847
USER: genes 1 Rotation |==|  0.51440 0.88054 0.72679 0.73141
USER: genes 2 Torsion [C]-N--CA-[CB] |==|  0.83888
USER: genes 3 Torsion [N]-CA--CB-[CG] |==|  0.70147
USER: genes 4 Torsion [CA]-CB--CG-[CD] |==|  0.45915
USER: genes 5 Torsion [CB]-CG--CD-[OE1] |==|  0.92780
USER: genes 6 Torsion [N]-CA--C-[N] |==|  0.54539
USER: genes 7 Torsion [C]-N--CA-[CB] |==|  0.85531
USER: genes 8 Torsion [N]-CA--C-[N] |==|  0.20028
USER: genes 9 Torsion [C]-N--CA-[CB] |==|  0.12688
USER: genes 10 Torsion [N]-CA--C-[O] |==|  0.45174
USER: genes 11 Torsion [N]-C--CA-[N] |==|  0.82534
USER: genes 12 Torsion [C]-CA--N-[H3] |==|  0.70701
USER: genes 13 Torsion [C]-CA--CB-[CG] |==|  0.11594
USER: genes 14 Torsion [CA]-CB--CG-[CD] |==|  0.65740
USER: genes 15 Torsion [CB]-CG--CD-[NE] |==|  0.92895
USER: genes 16 Torsion [CG]-CD--NE-[HE] |==|  0.27474
ROOT
ATOM      1  C   ARG X   1     -40.056  13.961  -7.267  1.00 28.35 LIG 0.25  C 
ATOM      2 O    ARG X   1     -39.890  13.809  -8.473  1.00 27.73 LIG-0.27  OA
ATOM      3  N   GLU X   2     -40.044  12.951  -6.406  1.00 29.79 LIG-0.35  N 
ATOM      4 H    GLU X   2     -40.031  13.048  -5.552  1.00 29.79 LIG 0.16  HD
ENDROOT
BRANCH 3 5
ATOM      5  CA  GLU X   2     -40.053  11.572  -6.855  1.00 30.62 LIG 0.18  C 
BRANCH 5 6
ATOM      6  CB  GLU X   2     -41.271  11.262  -7.730  1.00 30.95 LIG 0.04  C 
BRANCH 6 7
ATOM      7  CG  GLU X   2     -42.327  10.385  -7.031  1.00 31.16 LIG 0.12  C 
BRANCH 7 8
ATOM      8  CD  GLU X   2     -43.683  10.361  -7.739  1.00 32.27 LIG 0.17  C 
ATOM      9 OE1  GLU X   2     -44.009  11.333  -8.448  1.00 31.08 LIG-0.65  OA
ATOM     10 OE2  GLU X   2     -44.436   9.375  -7.570  1.00 30.98 LIG-0.65  OA
ENDBRANCH 7 8
ENDBRANCH 6 7
ENDBRANCH 5 6
BRANCH 5 11
ATOM     11  C   GLU X   2     -38.779  11.322  -7.632  1.00 31.96 LIG 0.24  C 
ATOM     12  N   ALA X   3     -38.780  10.236  -8.387  1.00 33.07 LIG-0.35  N 
ATOM     13 H    ALA X   3     -39.425   9.669  -8.417  1.00 33.07 LIG 0.16  HD
ATOM     14 O    GLU X   2     -37.817  12.096  -7.547  1.00 31.51 LIG-0.27  OA
BRANCH 12 15
ATOM     15  CA  ALA X   3     -37.653   9.916  -9.247  1.00 34.83 LIG 0.17  C 
ATOM     16  CB  ALA X   3     -37.301  11.116 -10.132  1.00 34.52 LIG 0.04  C 
BRANCH 15 17
ATOM     17  C   ALA X   3     -36.480   9.518  -8.376  1.00 35.72 LIG 0.24  C 
ATOM     18  N   ALA X   4     -36.571   8.330  -7.779  1.00 36.94 LIG-0.34  N 
ATOM     19 H    ALA X   4     -37.255   7.815  -7.856  1.00 36.94 LIG 0.16  HD
ATOM     20 O    ALA X   3     -35.528  10.287  -8.230  1.00 36.60 LIG-0.27  OA
BRANCH 18 21
ATOM     21  CA  ALA X   4     -35.512   7.780  -6.928  1.00 37.95 LIG 0.18  C 
ATOM     22  CB  ALA X   4     -35.000   8.842  -5.957  1.00 38.38 LIG 0.04  C 
BRANCH 21 23
ATOM     23  C   ALA X   4     -35.975   6.545  -6.159  1.00 38.48 LIG 0.20  C 
ATOM     24 O    ALA X   4     -35.174   5.762  -5.646  1.00 38.71 LIG-0.65  OA
ATOM     25 OXT  ALA X   4     -37.174   6.303  -6.031  1.00 39.00 LIG-0.65  OA
ENDBRANCH 21 23
ENDBRANCH 18 21
ENDBRANCH 15 17
ENDBRANCH 12 15
ENDBRANCH 5 11
ENDBRANCH 3 5
BRANCH 1 26
ATOM     26  CA  ARG X   1     -40.281  15.342  -6.670  1.00 28.22 LIG 0.27  C 
BRANCH 26 27
ATOM     27  N   ARG X   1     -41.624  15.451  -6.019  1.00 27.64 LIG-0.07  N 
ATOM     28 H3   ARG X   1     -42.165  15.935  -6.534  1.00 27.64 LIG 0.28  HD
ATOM     29 H2   ARG X   1     -41.539  15.845  -5.226  1.00 27.64 LIG 0.28  HD
ATOM     30 H1   ARG X   1     -41.968  14.638  -5.910  1.00 27.64 LIG 0.28  HD
ENDBRANCH 26 27
BRANCH 26 31
ATOM     31  CB  ARG X   1     -39.159  15.629  -5.665  1.00 28.04 LIG 0.04  C 
BRANCH 31 32
ATOM     32  CG  ARG X   1     -37.779  15.208  -6.099  1.00 27.94 LIG 0.02  C 
BRANCH 32 33
ATOM     33  CD  ARG X   1     -37.107  14.245  -5.112  1.00 29.24 LIG 0.14  C 
BRANCH 33 34
ATOM     34  NE  ARG X   1     -37.657  14.434  -3.769  1.00 27.62 LIG-0.23  N 
ATOM     35 HE   ARG X   1     -38.264  13.886  -3.504  1.00 27.62 LIG 0.18  HD
ATOM     36  CZ  ARG X   1     -37.281  15.395  -2.929  1.00 28.90 LIG 0.67  C 
ATOM     37  NH2 ARG X   1     -36.333  16.264  -3.273  1.00 29.13 LIG-0.23  N 
ATOM     38  NH1 ARG X   1     -37.847  15.486  -1.732  1.00 27.97 LIG-0.23  N 
ATOM     39 1HH2 ARG X   1     -35.958  16.208  -4.045  1.00 29.13 LIG 0.17  HD
ATOM     40 2HH2 ARG X   1     -36.096  16.883  -2.724  1.00 29.13 LIG 0.17  HD
ATOM     41 2HH1 ARG X   1     -37.605  16.106  -1.187  1.00 27.97 LIG 0.17  HD
ATOM     42 1HH1 ARG X   1     -38.455  14.923  -1.500  1.00 27.97 LIG 0.17  HD
ENDBRANCH 33 34
ENDBRANCH 32 33
ENDBRANCH 31 32
ENDBRANCH 26 31
ENDBRANCH 1 26
TORSDOF 15
ENDMDL
MODEL 27
USER: ADFR SOLUTION from run 53
USER: SCORE 14.618404 LL:  -2.902 LR: -13.320 RR:   0.000 FEB:  -8.845
USER: RMSD 5.149006
USER: SEED 52
USER: STATUS no improvement in best in 17 clusters for 5 generations
USER: GENES 17
USER: genes 0 Translation |==|  0.56037 0.40803 0.64995
USER: genes 1 Rotation |==|  0.51489 0.45409 0.50343 0.99765
USER: genes 2 Torsion [C]-N--CA-[CB] |==|  0.45907
USER: genes 3 Torsion [N]-CA--CB-[CG] |==|  0.56193
USER: genes 4 Torsion [CA]-CB--CG-[CD] |==|  0.18695
USER: genes 5 Torsion [CB]-CG--CD-[OE1] |==|  0.75178
USER: genes 6 Torsion [N]-CA--C-[N] |==|  0.42280
USER: genes 7 Torsion [C]-N--CA-[CB] |==|  0.83333
USER: genes 8 Torsion [N]-CA--C-[N] |==|  0.03884
USER: genes 9 Torsion [C]-N--CA-[CB] |==|  0.21652
USER: genes 10 Torsion [N]-CA--C-[O] |==|  0.26417
USER: genes 11 Torsion [N]-C--CA-[N] |==|  0.45463
USER: genes 12 Torsion [C]-CA--N-[H3] |==|  0.38051
USER: genes 13 Torsion [C]-CA--CB-[CG] |==|  0.37800
USER: genes 14 Torsion [CA]-CB--CG-[CD] |==|  0.32301
USER: genes 15 Torsion [CB]-CG--CD-[NE] |==|  0.87925
USER: genes 16 Torsion [CG]-CD--NE-[HE] |==|  0.01488
ROOT
ATOM      1  C   ARG X   1     -41.213  11.673  -6.606  1.00 28.35 LIG 0.25  C 
ATOM      2 O    ARG X   1     -40.591  10.651  -6.336  1.00 27.73 LIG-0.27  OA
ATOM      3  N   GLU X   2     -42.109  11.732  -7.584  1.00 29.79 LIG-0.35  N 
ATOM      4 H    GLU X   2     -42.643  12.394  -7.707  1.00 29.79 LIG 0.16  HD
ENDROOT
BRANCH 3 5
ATOM      5  CA  GLU X   2     -42.256  10.655  -8.544  1.00 30.62 LIG 0.18  C 
BRANCH 5 6
ATOM      6  CB  GLU X   2     -43.561  10.771  -9.339  1.00 30.95 LIG 0.04  C 
BRANCH 6 7
ATOM      7  CG  GLU X   2     -44.034   9.438  -9.948  1.00 31.16 LIG 0.12  C 
BRANCH 7 8
ATOM      8  CD  GLU X   2     -44.470   8.400  -8.912  1.00 32.27 LIG 0.17  C 
ATOM      9 OE1  GLU X   2     -43.617   7.617  -8.450  1.00 31.08 LIG-0.65  OA
ATOM     10 OE2  GLU X   2     -45.674   8.353  -8.572  1.00 30.98 LIG-0.65  OA
ENDBRANCH 7 8
ENDBRANCH 6 7
ENDBRANCH 5 6
BRANCH 5 11
ATOM     11  C   GLU X   2     -41.071  10.697  -9.483  1.00 31.96 LIG 0.24  C 
ATOM     12  N   ALA X   3     -40.730   9.534 -10.017  1.00 33.07 LIG-0.35  N 
ATOM     13 H    ALA X   3     -41.108   8.786  -9.825  1.00 33.07 LIG 0.16  HD
ATOM     14 O    GLU X   2     -40.478  11.757  -9.717  1.00 31.51 LIG-0.27  OA
BRANCH 12 15
ATOM     15  CA  ALA X   3     -39.661   9.440 -10.996  1.00 34.83 LIG 0.17  C 
ATOM     16  CB  ALA X   3     -39.988  10.295 -12.225  1.00 34.52 LIG 0.04  C 
BRANCH 15 17
ATOM     17  C   ALA X   3     -38.370   9.891 -10.346  1.00 35.72 LIG 0.24  C 
ATOM     18  N   ALA X   4     -38.388   9.989  -9.016  1.00 36.94 LIG-0.34  N 
ATOM     19 H    ALA X   4     -39.086   9.828  -8.541  1.00 36.94 LIG 0.16  HD
ATOM     20 O    ALA X   3     -37.392  10.170 -11.040  1.00 36.60 LIG-0.27  OA
BRANCH 18 21
ATOM     21  CA  ALA X   4     -37.216  10.381  -8.229  1.00 37.95 LIG 0.18  C 
ATOM     22  CB  ALA X   4     -37.007  11.893  -8.296  1.00 38.38 LIG 0.04  C 
BRANCH 21 23
ATOM     23  C   ALA X   4     -37.324   9.931  -6.774  1.00 38.48 LIG 0.20  C 
ATOM     24 O    ALA X   4     -36.821   8.876  -6.383  1.00 38.71 LIG-0.65  OA
ATOM     25 OXT  ALA X   4     -37.921  10.620  -5.950  1.00 39.00 LIG-0.65  OA
ENDBRANCH 21 23
ENDBRANCH 18 21
ENDBRANCH 15 17
ENDBRANCH 12 15
ENDBRANCH 5 11
ENDBRANCH 3 5
BRANCH 1 26
ATOM     26  CA  ARG X   1     -41.000  12.956  -5.819  1.00 28.22 LIG 0.27  C 
BRANCH 26 27
ATOM     27  N   ARG X   1     -40.293  12.702  -4.525  1.00 27.64 LIG-0.07  N 
ATOM     28 H3   ARG X   1     -39.672  13.326  -4.398  1.00 27.64 LIG 0.28  HD
ATOM     29 H2   ARG X   1     -39.907  11.901  -4.550  1.00 27.64 LIG 0.28  HD
ATOM     30 H1   ARG X   1     -40.880  12.727  -3.857  1.00 27.64 LIG 0.28  HD
ENDBRANCH 26 27
BRANCH 26 31
ATOM     31  CB  ARG X   1     -40.210  13.939  -6.693  1.00 28.04 LIG 0.04  C 
BRANCH 31 32
ATOM     32  CG  ARG X   1     -40.710  15.360  -6.682  1.00 27.94 LIG 0.02  C 
BRANCH 32 33
ATOM     33  CD  ARG X   1     -39.695  16.349  -6.096  1.00 29.24 LIG 0.14  C 
BRANCH 33 34
ATOM     34  NE  ARG X   1     -39.087  15.791  -4.887  1.00 27.62 LIG-0.23  N 
ATOM     35 HE   ARG X   1     -39.287  14.982  -4.674  1.00 27.62 LIG 0.18  HD
ATOM     36  CZ  ARG X   1     -38.244  16.449  -4.095  1.00 28.90 LIG 0.67  C 
ATOM     37  NH2 ARG X   1     -37.880  17.697  -4.379  1.00 29.13 LIG-0.23  N 
ATOM     38  NH1 ARG X   1     -37.751  15.854  -3.015  1.00 27.97 LIG-0.23  N 
ATOM     39 1HH2 ARG X   1     -38.190  18.086  -5.080  1.00 29.13 LIG 0.17  HD
ATOM     40 2HH2 ARG X   1     -37.335  18.115  -3.861  1.00 29.13 LIG 0.17  HD
ATOM     41 2HH1 ARG X   1     -37.206  16.278  -2.501  1.00 27.97 LIG 0.17  HD
ATOM     42 1HH1 ARG X   1     -37.977  15.045  -2.829  1.00 27.97 LIG 0.17  HD
ENDBRANCH 33 34
ENDBRANCH 32 33
ENDBRANCH 31 32
ENDBRANCH 26 31
ENDBRANCH 1 26
TORSDOF 15
ENDMDL
MODEL 28
USER: ADFR SOLUTION from run 126
USER: SCORE 14.037563 LL:  -1.980 LR: -13.308 RR:   0.000 FEB:  -8.834
USER: RMSD 3.321604
USER: SEED 125
USER: STATUS no improvement in best in 21 clusters for 5 generations
USER: GENES 17
USER: genes 0 Translation |==|  0.62046 0.50072 0.62153
USER: genes 1 Rotation |==|  0.47318 0.74145 0.68299 0.89686
USER: genes 2 Torsion [C]-N--CA-[CB] |==|  0.50556
USER: genes 3 Torsion [N]-CA--CB-[CG] |==|  0.26920
USER: genes 4 Torsion [CA]-CB--CG-[CD] |==|  0.33755
USER: genes 5 Torsion [CB]-CG--CD-[OE1] |==|  0.93383
USER: genes 6 Torsion [N]-CA--C-[N] |==|  0.45766
USER: genes 7 Torsion [C]-N--CA-[CB] |==|  0.50047
USER: genes 8 Torsion [N]-CA--C-[N] |==|  0.28252
USER: genes 9 Torsion [C]-N--CA-[CB] |==|  0.84314
USER: genes 10 Torsion [N]-CA--C-[O] |==|  0.56178
USER: genes 11 Torsion [N]-C--CA-[N] |==|  0.05104
USER: genes 12 Torsion [C]-CA--N-[H3] |==|  0.52424
USER: genes 13 Torsion [C]-CA--CB-[CG] |==|  0.61400
USER: genes 14 Torsion [CA]-CB--CG-[CD] |==|  0.64178
USER: genes 15 Torsion [CB]-CG--CD-[NE] |==|  0.61092
USER: genes 16 Torsion [CG]-CD--NE-[HE] |==|  0.01955
ROOT
ATOM      1  C   ARG X   1     -40.267  13.619  -7.203  1.00 28.35 LIG 0.25  C 
ATOM      2 O    ARG X   1     -39.295  13.320  -7.889  1.00 27.73 LIG-0.27  OA
ATOM      3  N   GLU X   2     -41.143  12.722  -6.766  1.00 29.79 LIG-0.35  N 
ATOM      4 H    GLU X   2     -41.753  12.890  -6.185  1.00 29.79 LIG 0.16  HD
ENDROOT
BRANCH 3 5
ATOM      5  CA  GLU X   2     -41.135  11.356  -7.252  1.00 30.62 LIG 0.18  C 
BRANCH 5 6
ATOM      6  CB  GLU X   2     -42.267  10.524  -6.641  1.00 30.95 LIG 0.04  C 
BRANCH 6 7
ATOM      7  CG  GLU X   2     -43.514  10.423  -7.539  1.00 31.16 LIG 0.12  C 
BRANCH 7 8
ATOM      8  CD  GLU X   2     -43.902   8.990  -7.905  1.00 32.27 LIG 0.17  C 
ATOM      9 OE1  GLU X   2     -43.026   8.104  -7.877  1.00 31.08 LIG-0.65  OA
ATOM     10 OE2  GLU X   2     -45.084   8.750  -8.243  1.00 30.98 LIG-0.65  OA
ENDBRANCH 7 8
ENDBRANCH 6 7
ENDBRANCH 5 6
BRANCH 5 11
ATOM     11  C   GLU X   2     -41.271  11.391  -8.758  1.00 31.96 LIG 0.24  C 
ATOM     12  N   ALA X   3     -40.968  10.263  -9.381  1.00 33.07 LIG-0.35  N 
ATOM     13 H    ALA X   3     -40.668   9.560  -8.988  1.00 33.07 LIG 0.16  HD
ATOM     14 O    GLU X   2     -41.641  12.417  -9.342  1.00 31.51 LIG-0.27  OA
BRANCH 12 15
ATOM     15  CA  ALA X   3     -41.129  10.131 -10.819  1.00 34.83 LIG 0.17  C 
ATOM     16  CB  ALA X   3     -40.712   8.729 -11.274  1.00 34.52 LIG 0.04  C 
BRANCH 15 17
ATOM     17  C   ALA X   3     -42.575  10.411 -11.171  1.00 35.72 LIG 0.24  C 
ATOM     18  N   ALA X   4     -42.830  11.619 -11.675  1.00 36.94 LIG-0.34  N 
ATOM     19 H    ALA X   4     -42.227  12.222 -11.782  1.00 36.94 LIG 0.16  HD
ATOM     20 O    ALA X   3     -43.439   9.559 -10.962  1.00 36.60 LIG-0.27  OA
BRANCH 18 21
ATOM     21  CA  ALA X   4     -44.170  12.041 -12.096  1.00 37.95 LIG 0.18  C 
ATOM     22  CB  ALA X   4     -44.731  11.077 -13.139  1.00 38.38 LIG 0.04  C 
BRANCH 21 23
ATOM     23  C   ALA X   4     -45.132  12.157 -10.917  1.00 38.48 LIG 0.20  C 
ATOM     24 O    ALA X   4     -46.354  12.099 -11.069  1.00 38.71 LIG-0.65  OA
ATOM     25 OXT  ALA X   4     -44.705  12.312  -9.775  1.00 39.00 LIG-0.65  OA
ENDBRANCH 21 23
ENDBRANCH 18 21
ENDBRANCH 15 17
ENDBRANCH 12 15
ENDBRANCH 5 11
ENDBRANCH 3 5
BRANCH 1 26
ATOM     26  CA  ARG X   1     -40.530  15.060  -6.795  1.00 28.22 LIG 0.27  C 
BRANCH 26 27
ATOM     27  N   ARG X   1     -41.465  15.144  -5.630  1.00 27.64 LIG-0.07  N 
ATOM     28 H3   ARG X   1     -41.698  15.992  -5.497  1.00 27.64 LIG 0.28  HD
ATOM     29 H2   ARG X   1     -41.062  14.829  -4.902  1.00 27.64 LIG 0.28  HD
ATOM     30 H1   ARG X   1     -42.193  14.660  -5.798  1.00 27.64 LIG 0.28  HD
ENDBRANCH 26 27
BRANCH 26 31
ATOM     31  CB  ARG X   1     -39.188  15.729  -6.471  1.00 28.04 LIG 0.04  C 
BRANCH 31 32
ATOM     32  CG  ARG X   1     -39.189  16.631  -5.265  1.00 27.94 LIG 0.02  C 
BRANCH 32 33
ATOM     33  CD  ARG X   1     -38.599  18.017  -5.553  1.00 29.24 LIG 0.14  C 
BRANCH 33 34
ATOM     34  NE  ARG X   1     -37.776  18.460  -4.426  1.00 27.62 LIG-0.23  N 
ATOM     35 HE   ARG X   1     -37.629  17.898  -3.792  1.00 27.62 LIG 0.18  HD
ATOM     36  CZ  ARG X   1     -37.239  19.673  -4.316  1.00 28.90 LIG 0.67  C 
ATOM     37  NH2 ARG X   1     -37.415  20.582  -5.272  1.00 29.13 LIG-0.23  N 
ATOM     38  NH1 ARG X   1     -36.512  19.979  -3.248  1.00 27.97 LIG-0.23  N 
ATOM     39 1HH2 ARG X   1     -37.880  20.389  -5.969  1.00 29.13 LIG 0.17  HD
ATOM     40 2HH2 ARG X   1     -37.065  21.364  -5.192  1.00 29.13 LIG 0.17  HD
ATOM     41 2HH1 ARG X   1     -36.165  20.763  -3.175  1.00 27.97 LIG 0.17  HD
ATOM     42 1HH1 ARG X   1     -36.389  19.395  -2.630  1.00 27.97 LIG 0.17  HD
ENDBRANCH 33 34
ENDBRANCH 32 33
ENDBRANCH 31 32
ENDBRANCH 26 31
ENDBRANCH 1 26
TORSDOF 15
ENDMDL
MODEL 29
USER: ADFR SOLUTION from run 134
USER: SCORE 13.175739 LL:  -1.927 LR: -13.314 RR:   0.000 FEB:  -8.839
USER: RMSD 3.504962
USER: SEED 133
USER: STATUS no improvement in best in 19 clusters for 5 generations
USER: GENES 17
USER: genes 0 Translation |==|  0.56306 0.40849 0.65729
USER: genes 1 Rotation |==|  0.49382 0.45926 0.47698 0.99777
USER: genes 2 Torsion [C]-N--CA-[CB] |==|  0.24183
USER: genes 3 Torsion [N]-CA--CB-[CG] |==|  0.57599
USER: genes 4 Torsion [CA]-CB--CG-[CD] |==|  0.67111
USER: genes 5 Torsion [CB]-CG--CD-[OE1] |==|  0.42246
USER: genes 6 Torsion [N]-CA--C-[N] |==|  0.55558
USER: genes 7 Torsion [C]-N--CA-[CB] |==|  0.48416
USER: genes 8 Torsion [N]-CA--C-[N] |==|  0.53889
USER: genes 9 Torsion [C]-N--CA-[CB] |==|  0.44341
USER: genes 10 Torsion [N]-CA--C-[O] |==|  0.51425
USER: genes 11 Torsion [N]-C--CA-[N] |==|  0.45631
USER: genes 12 Torsion [C]-CA--N-[H3] |==|  0.73214
USER: genes 13 Torsion [C]-CA--CB-[CG] |==|  0.46298
USER: genes 14 Torsion [CA]-CB--CG-[CD] |==|  0.62459
USER: genes 15 Torsion [CB]-CG--CD-[NE] |==|  0.41275
USER: genes 16 Torsion [CG]-CD--NE-[HE] |==|  0.04165
ROOT
ATOM      1  C   ARG X   1     -41.171  11.682  -6.452  1.00 28.35 LIG 0.25  C 
ATOM      2 O    ARG X   1     -40.659  10.619  -6.118  1.00 27.73 LIG-0.27  OA
ATOM      3  N   GLU X   2     -42.080  11.771  -7.414  1.00 29.79 LIG-0.35  N 
ATOM      4 H    GLU X   2     -42.541  12.479  -7.577  1.00 29.79 LIG 0.16  HD
ENDROOT
BRANCH 3 5
ATOM      5  CA  GLU X   2     -42.373  10.651  -8.288  1.00 30.62 LIG 0.18  C 
BRANCH 5 6
ATOM      6  CB  GLU X   2     -43.439   9.725  -7.693  1.00 30.95 LIG 0.04  C 
BRANCH 6 7
ATOM      7  CG  GLU X   2     -43.327   8.265  -8.172  1.00 31.16 LIG 0.12  C 
BRANCH 7 8
ATOM      8  CD  GLU X   2     -44.554   7.766  -8.938  1.00 32.27 LIG 0.17  C 
ATOM      9 OE1  GLU X   2     -44.406   6.869  -9.791  1.00 31.08 LIG-0.65  OA
ATOM     10 OE2  GLU X   2     -45.668   8.286  -8.701  1.00 30.98 LIG-0.65  OA
ENDBRANCH 7 8
ENDBRANCH 6 7
ENDBRANCH 5 6
BRANCH 5 11
ATOM     11  C   GLU X   2     -42.845  11.201  -9.616  1.00 31.96 LIG 0.24  C 
ATOM     12  N   ALA X   3     -43.532  10.355 -10.367  1.00 33.07 LIG-0.35  N 
ATOM     13 H    ALA X   3     -43.674   9.533 -10.162  1.00 33.07 LIG 0.16  HD
ATOM     14 O    GLU X   2     -42.591  12.364  -9.952  1.00 31.51 LIG-0.27  OA
BRANCH 12 15
ATOM     15  CA  ALA X   3     -44.112  10.773 -11.632  1.00 34.83 LIG 0.17  C 
ATOM     16  CB  ALA X   3     -44.726   9.571 -12.358  1.00 34.52 LIG 0.04  C 
BRANCH 15 17
ATOM     17  C   ALA X   3     -45.154  11.836 -11.357  1.00 35.72 LIG 0.24  C 
ATOM     18  N   ALA X   4     -45.980  12.119 -12.365  1.00 36.94 LIG-0.34  N 
ATOM     19 H    ALA X   4     -45.928  11.745 -13.137  1.00 36.94 LIG 0.16  HD
ATOM     20 O    ALA X   3     -45.187  12.404 -10.265  1.00 36.60 LIG-0.27  OA
BRANCH 18 21
ATOM     21  CA  ALA X   4     -47.065  13.100 -12.257  1.00 37.95 LIG 0.18  C 
ATOM     22  CB  ALA X   4     -47.498  13.573 -13.643  1.00 38.38 LIG 0.04  C 
BRANCH 21 23
ATOM     23  C   ALA X   4     -48.265  12.547 -11.492  1.00 38.48 LIG 0.20  C 
ATOM     24 O    ALA X   4     -49.311  13.188 -11.377  1.00 38.71 LIG-0.65  OA
ATOM     25 OXT  ALA X   4     -48.214  11.436 -10.969  1.00 39.00 LIG-0.65  OA
ENDBRANCH 21 23
ENDBRANCH 18 21
ENDBRANCH 15 17
ENDBRANCH 12 15
ENDBRANCH 5 11
ENDBRANCH 3 5
BRANCH 1 26
ATOM     26  CA  ARG X   1     -40.795  12.988  -5.768  1.00 28.22 LIG 0.27  C 
BRANCH 26 27
ATOM     27  N   ARG X   1     -40.073  12.750  -4.480  1.00 27.64 LIG-0.07  N 
ATOM     28 H3   ARG X   1     -40.650  12.791  -3.804  1.00 27.64 LIG 0.28  HD
ATOM     29 H2   ARG X   1     -39.445  13.371  -4.371  1.00 27.64 LIG 0.28  HD
ATOM     30 H1   ARG X   1     -39.693  11.945  -4.496  1.00 27.64 LIG 0.28  HD
ENDBRANCH 26 27
BRANCH 26 31
ATOM     31  CB  ARG X   1     -39.937  13.815  -6.734  1.00 28.04 LIG 0.04  C 
BRANCH 31 32
ATOM     32  CG  ARG X   1     -39.738  15.258  -6.349  1.00 27.94 LIG 0.02  C 
BRANCH 32 33
ATOM     33  CD  ARG X   1     -39.919  16.223  -7.526  1.00 29.24 LIG 0.14  C 
BRANCH 33 34
ATOM     34  NE  ARG X   1     -40.448  17.504  -7.053  1.00 27.62 LIG-0.23  N 
ATOM     35 HE   ARG X   1     -40.415  17.663  -6.209  1.00 27.62 LIG 0.18  HD
ATOM     36  CZ  ARG X   1     -40.977  18.437  -7.840  1.00 28.90 LIG 0.67  C 
ATOM     37  NH2 ARG X   1     -41.041  18.258  -9.157  1.00 29.13 LIG-0.23  N 
ATOM     38  NH1 ARG X   1     -41.437  19.564  -7.311  1.00 27.97 LIG-0.23  N 
ATOM     39 1HH2 ARG X   1     -40.740  17.532  -9.508  1.00 29.13 LIG 0.17  HD
ATOM     40 2HH2 ARG X   1     -41.385  18.866  -9.658  1.00 29.13 LIG 0.17  HD
ATOM     41 2HH1 ARG X   1     -41.779  20.169  -7.818  1.00 27.97 LIG 0.17  HD
ATOM     42 1HH1 ARG X   1     -41.392  19.690  -6.461  1.00 27.97 LIG 0.17  HD
ENDBRANCH 33 34
ENDBRANCH 32 33
ENDBRANCH 31 32
ENDBRANCH 26 31
ENDBRANCH 1 26
TORSDOF 15
ENDMDL
MODEL 30
USER: ADFR SOLUTION from run 51
USER: SCORE 14.125579 LL:  -2.332 LR: -13.300 RR:   0.000 FEB:  -8.826
USER: RMSD 5.335687
USER: SEED 50
USER: STATUS no improvement in best in 11 clusters for 5 generations
USER: GENES 17
USER: genes 0 Translation |==|  0.67427 0.38432 0.67067
USER: genes 1 Rotation |==|  0.59083 0.09732 0.30744 0.70621
USER: genes 2 Torsion [C]-N--CA-[CB] |==|  0.88332
USER: genes 3 Torsion [N]-CA--CB-[CG] |==|  0.58182
USER: genes 4 Torsion [CA]-CB--CG-[CD] |==|  0.47181
USER: genes 5 Torsion [CB]-CG--CD-[OE1] |==|  0.50101
USER: genes 6 Torsion [N]-CA--C-[N] |==|  0.80347
USER: genes 7 Torsion [C]-N--CA-[CB] |==|  0.20391
USER: genes 8 Torsion [N]-CA--C-[N] |==|  0.96153
USER: genes 9 Torsion [C]-N--CA-[CB] |==|  0.28956
USER: genes 10 Torsion [N]-CA--C-[O] |==|  0.42025
USER: genes 11 Torsion [N]-C--CA-[N] |==|  0.94296
USER: genes 12 Torsion [C]-CA--N-[H3] |==|  0.99133
USER: genes 13 Torsion [C]-CA--CB-[CG] |==|  0.78607
USER: genes 14 Torsion [CA]-CB--CG-[CD] |==|  0.71268
USER: genes 15 Torsion [CB]-CG--CD-[NE] |==|  0.69154
USER: genes 16 Torsion [CG]-CD--NE-[HE] |==|  0.11991
ROOT
ATOM      1  C   ARG X   1     -39.419  11.175  -6.171  1.00 28.35 LIG 0.25  C 
ATOM      2 O    ARG X   1     -40.004  10.229  -6.688  1.00 27.73 LIG-0.27  OA
ATOM      3  N   GLU X   2     -38.147  11.457  -6.420  1.00 29.79 LIG-0.35  N 
ATOM      4 H    GLU X   2     -37.757  12.182  -6.170  1.00 29.79 LIG 0.16  HD
ENDROOT
BRANCH 3 5
ATOM      5  CA  GLU X   2     -37.295  10.540  -7.153  1.00 30.62 LIG 0.18  C 
BRANCH 5 6
ATOM      6  CB  GLU X   2     -37.514   9.087  -6.722  1.00 30.95 LIG 0.04  C 
BRANCH 6 7
ATOM      7  CG  GLU X   2     -36.262   8.202  -6.873  1.00 31.16 LIG 0.12  C 
BRANCH 7 8
ATOM      8  CD  GLU X   2     -36.393   6.823  -6.222  1.00 32.27 LIG 0.17  C 
ATOM      9 OE1  GLU X   2     -35.429   6.036  -6.284  1.00 31.08 LIG-0.65  OA
ATOM     10 OE2  GLU X   2     -37.471   6.518  -5.663  1.00 30.98 LIG-0.65  OA
ENDBRANCH 7 8
ENDBRANCH 6 7
ENDBRANCH 5 6
BRANCH 5 11
ATOM     11  C   GLU X   2     -37.597  10.695  -8.628  1.00 31.96 LIG 0.24  C 
ATOM     12  N   ALA X   3     -38.773  10.230  -9.017  1.00 33.07 LIG-0.35  N 
ATOM     13 H    ALA X   3     -39.325   9.821  -8.501  1.00 33.07 LIG 0.16  HD
ATOM     14 O    GLU X   2     -36.782  11.224  -9.394  1.00 31.51 LIG-0.27  OA
BRANCH 12 15
ATOM     15  CA  ALA X   3     -39.226  10.383 -10.389  1.00 34.83 LIG 0.17  C 
ATOM     16  CB  ALA X   3     -38.458   9.431 -11.312  1.00 34.52 LIG 0.04  C 
BRANCH 15 17
ATOM     17  C   ALA X   3     -40.714  10.110 -10.439  1.00 35.72 LIG 0.24  C 
ATOM     18  N   ALA X   4     -41.239   9.527  -9.361  1.00 36.94 LIG-0.34  N 
ATOM     19 H    ALA X   4     -40.772   9.295  -8.677  1.00 36.94 LIG 0.16  HD
ATOM     20 O    ALA X   3     -41.363  10.398 -11.446  1.00 36.60 LIG-0.27  OA
BRANCH 18 21
ATOM     21  CA  ALA X   4     -42.667   9.221  -9.234  1.00 37.95 LIG 0.18  C 
ATOM     22  CB  ALA X   4     -42.914   7.728  -9.437  1.00 38.38 LIG 0.04  C 
BRANCH 21 23
ATOM     23  C   ALA X   4     -43.232   9.669  -7.888  1.00 38.48 LIG 0.20  C 
ATOM     24 O    ALA X   4     -44.414   9.992  -7.757  1.00 38.71 LIG-0.65  OA
ATOM     25 OXT  ALA X   4     -42.512   9.716  -6.893  1.00 39.00 LIG-0.65  OA
ENDBRANCH 21 23
ENDBRANCH 18 21
ENDBRANCH 15 17
ENDBRANCH 12 15
ENDBRANCH 5 11
ENDBRANCH 3 5
BRANCH 1 26
ATOM     26  CA  ARG X   1     -40.130  12.104  -5.199  1.00 28.22 LIG 0.27  C 
BRANCH 26 27
ATOM     27  N   ARG X   1     -39.160  12.854  -4.341  1.00 27.64 LIG-0.07  N 
ATOM     28 H3   ARG X   1     -38.332  12.585  -4.524  1.00 27.64 LIG 0.28  HD
ATOM     29 H2   ARG X   1     -39.340  12.698  -3.484  1.00 27.64 LIG 0.28  HD
ATOM     30 H1   ARG X   1     -39.232  13.726  -4.504  1.00 27.64 LIG 0.28  HD
ENDBRANCH 26 27
BRANCH 26 31
ATOM     31  CB  ARG X   1     -41.012  13.069  -6.003  1.00 28.04 LIG 0.04  C 
BRANCH 31 32
ATOM     32  CG  ARG X   1     -40.283  14.198  -6.682  1.00 27.94 LIG 0.02  C 
BRANCH 32 33
ATOM     33  CD  ARG X   1     -40.444  15.539  -5.955  1.00 29.24 LIG 0.14  C 
BRANCH 33 34
ATOM     34  NE  ARG X   1     -41.260  16.453  -6.755  1.00 27.62 LIG-0.23  N 
ATOM     35 HE   ARG X   1     -41.965  16.135  -7.132  1.00 27.62 LIG 0.18  HD
ATOM     36  CZ  ARG X   1     -40.987  17.743  -6.939  1.00 28.90 LIG 0.67  C 
ATOM     37  NH2 ARG X   1     -39.921  18.298  -6.368  1.00 29.13 LIG-0.23  N 
ATOM     38  NH1 ARG X   1     -41.789  18.487  -7.690  1.00 27.97 LIG-0.23  N 
ATOM     39 1HH2 ARG X   1     -39.400  17.823  -5.876  1.00 29.13 LIG 0.17  HD
ATOM     40 2HH2 ARG X   1     -39.751  19.133  -6.493  1.00 29.13 LIG 0.17  HD
ATOM     41 2HH1 ARG X   1     -41.614  19.321  -7.811  1.00 27.97 LIG 0.17  HD
ATOM     42 1HH1 ARG X   1     -42.484  18.137  -8.056  1.00 27.97 LIG 0.17  HD
ENDBRANCH 33 34
ENDBRANCH 32 33
ENDBRANCH 31 32
ENDBRANCH 26 31
ENDBRANCH 1 26
TORSDOF 15
ENDMDL
MODEL 31
USER: ADFR SOLUTION from run 80
USER: SCORE 14.762394 LL:  -2.698 LR: -13.280 RR:   0.000 FEB:  -8.805
USER: RMSD 6.290170
USER: SEED 79
USER: STATUS no improvement in best in 15 clusters for 5 generations
USER: GENES 17
USER: genes 0 Translation |==|  0.60811 0.39906 0.63086
USER: genes 1 Rotation |==|  0.55668 0.36655 0.46443 0.97719
USER: genes 2 Torsion [C]-N--CA-[CB] |==|  0.48889
USER: genes 3 Torsion [N]-CA--CB-[CG] |==|  0.72137
USER: genes 4 Torsion [CA]-CB--CG-[CD] |==|  0.21459
USER: genes 5 Torsion [CB]-CG--CD-[OE1] |==|  0.84264
USER: genes 6 Torsion [N]-CA--C-[N] |==|  0.40682
USER: genes 7 Torsion [C]-N--CA-[CB] |==|  0.82730
USER: genes 8 Torsion [N]-CA--C-[N] |==|  0.21540
USER: genes 9 Torsion [C]-N--CA-[CB] |==|  0.16764
USER: genes 10 Torsion [N]-CA--C-[O] |==|  0.28052
USER: genes 11 Torsion [N]-C--CA-[N] |==|  0.27839
USER: genes 12 Torsion [C]-CA--N-[H3] |==|  0.86927
USER: genes 13 Torsion [C]-CA--CB-[CG] |==|  0.23451
USER: genes 14 Torsion [CA]-CB--CG-[CD] |==|  0.41175
USER: genes 15 Torsion [CB]-CG--CD-[NE] |==|  0.91212
USER: genes 16 Torsion [CG]-CD--NE-[HE] |==|  0.12855
ROOT
ATOM      1  C   ARG X   1     -40.461  11.484  -7.007  1.00 28.35 LIG 0.25  C 
ATOM      2 O    ARG X   1     -40.096  10.339  -6.766  1.00 27.73 LIG-0.27  OA
ATOM      3  N   GLU X   2     -40.937  11.854  -8.190  1.00 29.79 LIG-0.35  N 
ATOM      4 H    GLU X   2     -41.313  12.612  -8.341  1.00 29.79 LIG 0.16  HD
ENDROOT
BRANCH 3 5
ATOM      5  CA  GLU X   2     -40.854  10.983  -9.347  1.00 30.62 LIG 0.18  C 
BRANCH 5 6
ATOM      6  CB  GLU X   2     -41.555  11.585 -10.568  1.00 30.95 LIG 0.04  C 
BRANCH 6 7
ATOM      7  CG  GLU X   2     -42.962  11.012 -10.820  1.00 31.16 LIG 0.12  C 
BRANCH 7 8
ATOM      8  CD  GLU X   2     -44.038  11.571  -9.886  1.00 32.27 LIG 0.17  C 
ATOM      9 OE1  GLU X   2     -43.880  11.462  -8.655  1.00 31.08 LIG-0.65  OA
ATOM     10 OE2  GLU X   2     -45.054  12.104 -10.386  1.00 30.98 LIG-0.65  OA
ENDBRANCH 7 8
ENDBRANCH 6 7
ENDBRANCH 5 6
BRANCH 5 11
ATOM     11  C   GLU X   2     -39.392  10.743  -9.652  1.00 31.96 LIG 0.24  C 
ATOM     12  N   ALA X   3     -39.104   9.547 -10.139  1.00 33.07 LIG-0.35  N 
ATOM     13 H    ALA X   3     -39.678   8.916 -10.240  1.00 33.07 LIG 0.16  HD
ATOM     14 O    GLU X   2     -38.545  11.622  -9.449  1.00 31.51 LIG-0.27  OA
BRANCH 12 15
ATOM     15  CA  ALA X   3     -37.752   9.208 -10.550  1.00 34.83 LIG 0.17  C 
ATOM     16  CB  ALA X   3     -37.302  10.115 -11.700  1.00 34.52 LIG 0.04  C 
BRANCH 15 17
ATOM     17  C   ALA X   3     -36.835   9.347  -9.354  1.00 35.72 LIG 0.24  C 
ATOM     18  N   ALA X   4     -36.877   8.354  -8.465  1.00 36.94 LIG-0.34  N 
ATOM     19 H    ALA X   4     -37.401   7.676  -8.540  1.00 36.94 LIG 0.16  HD
ATOM     20 O    ALA X   3     -36.127  10.348  -9.229  1.00 36.60 LIG-0.27  OA
BRANCH 18 21
ATOM     21  CA  ALA X   4     -36.032   8.317  -7.268  1.00 37.95 LIG 0.18  C 
ATOM     22  CB  ALA X   4     -36.310   9.529  -6.380  1.00 38.38 LIG 0.04  C 
BRANCH 21 23
ATOM     23  C   ALA X   4     -36.221   7.028  -6.471  1.00 38.48 LIG 0.20  C 
ATOM     24 O    ALA X   4     -35.415   6.099  -6.543  1.00 38.71 LIG-0.65  OA
ATOM     25 OXT  ALA X   4     -37.191   6.889  -5.730  1.00 39.00 LIG-0.65  OA
ENDBRANCH 21 23
ENDBRANCH 18 21
ENDBRANCH 15 17
ENDBRANCH 12 15
ENDBRANCH 5 11
ENDBRANCH 3 5
BRANCH 1 26
ATOM     26  CA  ARG X   1     -40.398  12.571  -5.945  1.00 28.22 LIG 0.27  C 
BRANCH 26 27
ATOM     27  N   ARG X   1     -41.547  12.481  -4.991  1.00 27.64 LIG-0.07  N 
ATOM     28 H3   ARG X   1     -42.304  12.381  -5.447  1.00 27.64 LIG 0.28  HD
ATOM     29 H2   ARG X   1     -41.589  13.225  -4.505  1.00 27.64 LIG 0.28  HD
ATOM     30 H1   ARG X   1     -41.430  11.782  -4.452  1.00 27.64 LIG 0.28  HD
ENDBRANCH 26 27
BRANCH 26 31
ATOM     31  CB  ARG X   1     -39.059  12.454  -5.206  1.00 28.04 LIG 0.04  C 
BRANCH 31 32
ATOM     32  CG  ARG X   1     -37.893  13.143  -5.865  1.00 27.94 LIG 0.02  C 
BRANCH 32 33
ATOM     33  CD  ARG X   1     -36.865  13.676  -4.860  1.00 29.24 LIG 0.14  C 
BRANCH 33 34
ATOM     34  NE  ARG X   1     -37.530  14.070  -3.617  1.00 27.62 LIG-0.23  N 
ATOM     35 HE   ARG X   1     -38.107  13.527  -3.282  1.00 27.62 LIG 0.18  HD
ATOM     36  CZ  ARG X   1     -37.305  15.211  -2.971  1.00 28.90 LIG 0.67  C 
ATOM     37  NH2 ARG X   1     -36.412  16.086  -3.429  1.00 29.13 LIG-0.23  N 
ATOM     38  NH1 ARG X   1     -37.967  15.479  -1.852  1.00 27.97 LIG-0.23  N 
ATOM     39 1HH2 ARG X   1     -35.975  15.916  -4.150  1.00 29.13 LIG 0.17  HD
ATOM     40 2HH2 ARG X   1     -36.272  16.821  -3.005  1.00 29.13 LIG 0.17  HD
ATOM     41 2HH1 ARG X   1     -37.823  16.216  -1.432  1.00 27.97 LIG 0.17  HD
ATOM     42 1HH1 ARG X   1     -38.540  14.915  -1.546  1.00 27.97 LIG 0.17  HD
ENDBRANCH 33 34
ENDBRANCH 32 33
ENDBRANCH 31 32
ENDBRANCH 26 31
ENDBRANCH 1 26
TORSDOF 15
ENDMDL
MODEL 32
USER: ADFR SOLUTION from run 146
USER: SCORE 14.139037 LL:  -1.801 LR: -13.282 RR:   0.000 FEB:  -8.807
USER: RMSD 3.414646
USER: SEED 145
USER: STATUS searching
USER: GENES 17
USER: genes 0 Translation |==|  0.56651 0.40996 0.64334
USER: genes 1 Rotation |==|  0.52091 0.41089 0.49844 0.99155
USER: genes 2 Torsion [C]-N--CA-[CB] |==|  0.87679
USER: genes 3 Torsion [N]-CA--CB-[CG] |==|  0.59873
USER: genes 4 Torsion [CA]-CB--CG-[CD] |==|  0.83444
USER: genes 5 Torsion [CB]-CG--CD-[OE1] |==|  0.77381
USER: genes 6 Torsion [N]-CA--C-[N] |==|  0.40921
USER: genes 7 Torsion [C]-N--CA-[CB] |==|  0.18316
USER: genes 8 Torsion [N]-CA--C-[N] |==|  0.17778
USER: genes 9 Torsion [C]-N--CA-[CB] |==|  0.47689
USER: genes 10 Torsion [N]-CA--C-[O] |==|  0.11252
USER: genes 11 Torsion [N]-C--CA-[N] |==|  0.45946
USER: genes 12 Torsion [C]-CA--N-[H3] |==|  0.37605
USER: genes 13 Torsion [C]-CA--CB-[CG] |==|  0.35839
USER: genes 14 Torsion [CA]-CB--CG-[CD] |==|  0.32386
USER: genes 15 Torsion [CB]-CG--CD-[NE] |==|  0.92595
USER: genes 16 Torsion [CG]-CD--NE-[HE] |==|  0.99001
ROOT
ATOM      1  C   ARG X   1     -41.116  11.713  -6.745  1.00 28.35 LIG 0.25  C 
ATOM      2 O    ARG X   1     -40.571  10.670  -6.402  1.00 27.73 LIG-0.27  OA
ATOM      3  N   GLU X   2     -41.828  11.820  -7.860  1.00 29.79 LIG-0.35  N 
ATOM      4 H    GLU X   2     -42.319  12.499  -8.054  1.00 29.79 LIG 0.16  HD
ENDROOT
BRANCH 3 5
ATOM      5  CA  GLU X   2     -41.829  10.772  -8.863  1.00 30.62 LIG 0.18  C 
BRANCH 5 6
ATOM      6  CB  GLU X   2     -40.419  10.242  -9.140  1.00 30.95 LIG 0.04  C 
BRANCH 6 7
ATOM      7  CG  GLU X   2     -40.180   9.857 -10.612  1.00 31.16 LIG 0.12  C 
BRANCH 7 8
ATOM      8  CD  GLU X   2     -41.123   8.769 -11.130  1.00 32.27 LIG 0.17  C 
ATOM      9 OE1  GLU X   2     -40.863   7.577 -10.876  1.00 31.08 LIG-0.65  OA
ATOM     10 OE2  GLU X   2     -42.118   9.106 -11.812  1.00 30.98 LIG-0.65  OA
ENDBRANCH 7 8
ENDBRANCH 6 7
ENDBRANCH 5 6
BRANCH 5 11
ATOM     11  C   GLU X   2     -42.718   9.651  -8.370  1.00 31.96 LIG 0.24  C 
ATOM     12  N   ALA X   3     -43.366   8.986  -9.313  1.00 33.07 LIG-0.35  N 
ATOM     13 H    ALA X   3     -43.340   9.185 -10.149  1.00 33.07 LIG 0.16  HD
ATOM     14 O    GLU X   2     -42.814   9.396  -7.163  1.00 31.51 LIG-0.27  OA
BRANCH 12 15
ATOM     15  CA  ALA X   3     -44.192   7.836  -8.989  1.00 34.83 LIG 0.17  C 
ATOM     16  CB  ALA X   3     -45.398   8.267  -8.148  1.00 34.52 LIG 0.04  C 
BRANCH 15 17
ATOM     17  C   ALA X   3     -44.634   7.181 -10.281  1.00 35.72 LIG 0.24  C 
ATOM     18  N   ALA X   4     -43.665   6.665 -11.036  1.00 36.94 LIG-0.34  N 
ATOM     19 H    ALA X   4     -42.831   6.709 -10.829  1.00 36.94 LIG 0.16  HD
ATOM     20 O    ALA X   3     -45.825   7.171 -10.594  1.00 36.60 LIG-0.27  OA
BRANCH 18 21
ATOM     21  CA  ALA X   4     -43.922   5.969 -12.301  1.00 37.95 LIG 0.18  C 
ATOM     22  CB  ALA X   4     -42.611   5.678 -13.028  1.00 38.38 LIG 0.04  C 
BRANCH 21 23
ATOM     23  C   ALA X   4     -44.707   4.676 -12.095  1.00 38.48 LIG 0.20  C 
ATOM     24 O    ALA X   4     -45.639   4.604 -11.292  1.00 38.71 LIG-0.65  OA
ATOM     25 OXT  ALA X   4     -44.424   3.665 -12.735  1.00 39.00 LIG-0.65  OA
ENDBRANCH 21 23
ENDBRANCH 18 21
ENDBRANCH 15 17
ENDBRANCH 12 15
ENDBRANCH 5 11
ENDBRANCH 3 5
BRANCH 1 26
ATOM     26  CA  ARG X   1     -41.017  12.971  -5.895  1.00 28.22 LIG 0.27  C 
BRANCH 26 27
ATOM     27  N   ARG X   1     -40.510  12.671  -4.520  1.00 27.64 LIG-0.07  N 
ATOM     28 H3   ARG X   1     -39.896  13.272  -4.292  1.00 27.64 LIG 0.28  HD
ATOM     29 H2   ARG X   1     -40.149  11.858  -4.506  1.00 27.64 LIG 0.28  HD
ATOM     30 H1   ARG X   1     -41.186  12.704  -3.941  1.00 27.64 LIG 0.28  HD
ENDBRANCH 26 27
BRANCH 26 31
ATOM     31  CB  ARG X   1     -40.103  13.973  -6.611  1.00 28.04 LIG 0.04  C 
BRANCH 31 32
ATOM     32  CG  ARG X   1     -40.667  15.360  -6.776  1.00 27.94 LIG 0.02  C 
BRANCH 32 33
ATOM     33  CD  ARG X   1     -39.860  16.428  -6.027  1.00 29.24 LIG 0.14  C 
BRANCH 33 34
ATOM     34  NE  ARG X   1     -39.174  15.831  -4.880  1.00 27.62 LIG-0.23  N 
ATOM     35 HE   ARG X   1     -39.318  14.999  -4.716  1.00 27.62 LIG 0.18  HD
ATOM     36  CZ  ARG X   1     -38.341  16.486  -4.075  1.00 28.90 LIG 0.67  C 
ATOM     37  NH2 ARG X   1     -38.063  17.770  -4.287  1.00 29.13 LIG-0.23  N 
ATOM     38  NH1 ARG X   1     -37.773  15.854  -3.056  1.00 27.97 LIG-0.23  N 
ATOM     39 1HH2 ARG X   1     -38.423  18.185  -4.950  1.00 29.13 LIG 0.17  HD
ATOM     40 2HH2 ARG X   1     -37.524  18.187  -3.762  1.00 29.13 LIG 0.17  HD
ATOM     41 2HH1 ARG X   1     -37.235  16.276  -2.534  1.00 27.97 LIG 0.17  HD
ATOM     42 1HH1 ARG X   1     -37.943  15.023  -2.917  1.00 27.97 LIG 0.17  HD
ENDBRANCH 33 34
ENDBRANCH 32 33
ENDBRANCH 31 32
ENDBRANCH 26 31
ENDBRANCH 1 26
TORSDOF 15
ENDMDL
MODEL 33
USER: ADFR SOLUTION from run 161
USER: SCORE 14.110259 LL:  -1.673 LR: -13.269 RR:   0.000 FEB:  -8.795
USER: RMSD 6.271614
USER: SEED 160
USER: STATUS no improvement in best in 11 clusters for 5 generations
USER: GENES 17
USER: genes 0 Translation |==|  0.63946 0.50521 0.66935
USER: genes 1 Rotation |==|  0.40518 0.65849 0.64970 0.93986
USER: genes 2 Torsion [C]-N--CA-[CB] |==|  0.52800
USER: genes 3 Torsion [N]-CA--CB-[CG] |==|  0.35575
USER: genes 4 Torsion [CA]-CB--CG-[CD] |==|  0.63387
USER: genes 5 Torsion [CB]-CG--CD-[OE1] |==|  0.16086
USER: genes 6 Torsion [N]-CA--C-[N] |==|  0.33610
USER: genes 7 Torsion [C]-N--CA-[CB] |==|  0.14522
USER: genes 8 Torsion [N]-CA--C-[N] |==|  0.14132
USER: genes 9 Torsion [C]-N--CA-[CB] |==|  0.19040
USER: genes 10 Torsion [N]-CA--C-[O] |==|  0.95904
USER: genes 11 Torsion [N]-C--CA-[N] |==|  0.04064
USER: genes 12 Torsion [C]-CA--N-[H3] |==|  0.65385
USER: genes 13 Torsion [C]-CA--CB-[CG] |==|  0.51044
USER: genes 14 Torsion [CA]-CB--CG-[CD] |==|  0.94416
USER: genes 15 Torsion [CB]-CG--CD-[NE] |==|  0.50036
USER: genes 16 Torsion [CG]-CD--NE-[HE] |==|  0.92371
ROOT
ATOM      1  C   ARG X   1     -39.968  13.713  -6.199  1.00 28.35 LIG 0.25  C 
ATOM      2 O    ARG X   1     -38.811  13.330  -6.336  1.00 27.73 LIG-0.27  OA
ATOM      3  N   GLU X   2     -40.992  12.879  -6.072  1.00 29.79 LIG-0.35  N 
ATOM      4 H    GLU X   2     -41.786  13.123  -5.850  1.00 29.79 LIG 0.16  HD
ENDROOT
BRANCH 3 5
ATOM      5  CA  GLU X   2     -40.844  11.455  -6.307  1.00 30.62 LIG 0.18  C 
BRANCH 5 6
ATOM      6  CB  GLU X   2     -42.197  10.738  -6.344  1.00 30.95 LIG 0.04  C 
BRANCH 6 7
ATOM      7  CG  GLU X   2     -42.399   9.865  -7.597  1.00 31.16 LIG 0.12  C 
BRANCH 7 8
ATOM      8  CD  GLU X   2     -43.744  10.081  -8.295  1.00 32.27 LIG 0.17  C 
ATOM      9 OE1  GLU X   2     -44.038  11.225  -8.693  1.00 31.08 LIG-0.65  OA
ATOM     10 OE2  GLU X   2     -44.519   9.107  -8.429  1.00 30.98 LIG-0.65  OA
ENDBRANCH 7 8
ENDBRANCH 6 7
ENDBRANCH 5 6
BRANCH 5 11
ATOM     11  C   GLU X   2     -40.120  11.268  -7.622  1.00 31.96 LIG 0.24  C 
ATOM     12  N   ALA X   3     -38.980  10.599  -7.550  1.00 33.07 LIG-0.35  N 
ATOM     13 H    ALA X   3     -38.629  10.321  -6.817  1.00 33.07 LIG 0.16  HD
ATOM     14 O    GLU X   2     -40.583  11.721  -8.676  1.00 31.51 LIG-0.27  OA
BRANCH 12 15
ATOM     15  CA  ALA X   3     -38.220  10.278  -8.746  1.00 34.83 LIG 0.17  C 
ATOM     16  CB  ALA X   3     -37.979  11.542  -9.579  1.00 34.52 LIG 0.04  C 
BRANCH 15 17
ATOM     17  C   ALA X   3     -36.911   9.641  -8.330  1.00 35.72 LIG 0.24  C 
ATOM     18  N   ALA X   4     -37.002   8.626  -7.471  1.00 36.94 LIG-0.34  N 
ATOM     19 H    ALA X   4     -37.749   8.348  -7.147  1.00 36.94 LIG 0.16  HD
ATOM     20 O    ALA X   3     -35.844  10.083  -8.758  1.00 36.60 LIG-0.27  OA
BRANCH 18 21
ATOM     21  CA  ALA X   4     -35.836   7.880  -6.990  1.00 37.95 LIG 0.18  C 
ATOM     22  CB  ALA X   4     -34.973   8.760  -6.087  1.00 38.38 LIG 0.04  C 
BRANCH 21 23
ATOM     23  C   ALA X   4     -36.234   6.603  -6.253  1.00 38.48 LIG 0.20  C 
ATOM     24 O    ALA X   4     -37.389   6.409  -5.871  1.00 38.71 LIG-0.65  OA
ATOM     25 OXT  ALA X   4     -35.401   5.729  -6.024  1.00 39.00 LIG-0.65  OA
ENDBRANCH 21 23
ENDBRANCH 18 21
ENDBRANCH 15 17
ENDBRANCH 12 15
ENDBRANCH 5 11
ENDBRANCH 3 5
BRANCH 1 26
ATOM     26  CA  ARG X   1     -40.307  15.196  -6.156  1.00 28.22 LIG 0.27  C 
BRANCH 26 27
ATOM     27  N   ARG X   1     -41.687  15.433  -5.632  1.00 27.64 LIG-0.07  N 
ATOM     28 H3   ARG X   1     -42.151  15.911  -6.222  1.00 27.64 LIG 0.28  HD
ATOM     29 H2   ARG X   1     -41.641  15.877  -4.862  1.00 27.64 LIG 0.28  HD
ATOM     30 H1   ARG X   1     -42.093  14.652  -5.499  1.00 27.64 LIG 0.28  HD
ENDBRANCH 26 27
BRANCH 26 31
ATOM     31  CB  ARG X   1     -39.260  15.911  -5.292  1.00 28.04 LIG 0.04  C 
BRANCH 31 32
ATOM     32  CG  ARG X   1     -39.499  17.382  -5.072  1.00 27.94 LIG 0.02  C 
BRANCH 32 33
ATOM     33  CD  ARG X   1     -40.436  18.000  -6.117  1.00 29.24 LIG 0.14  C 
BRANCH 33 34
ATOM     34  NE  ARG X   1     -40.623  19.427  -5.847  1.00 27.62 LIG-0.23  N 
ATOM     35 HE   ARG X   1     -40.542  19.694  -5.034  1.00 27.62 LIG 0.18  HD
ATOM     36  CZ  ARG X   1     -40.909  20.338  -6.774  1.00 28.90 LIG 0.67  C 
ATOM     37  NH2 ARG X   1     -41.030  19.989  -8.053  1.00 29.13 LIG-0.23  N 
ATOM     38  NH1 ARG X   1     -41.066  21.609  -6.425  1.00 27.97 LIG-0.23  N 
ATOM     39 1HH2 ARG X   1     -40.924  19.169  -8.287  1.00 29.13 LIG 0.17  HD
ATOM     40 2HH2 ARG X   1     -41.215  20.585  -8.646  1.00 29.13 LIG 0.17  HD
ATOM     41 2HH1 ARG X   1     -41.251  22.200  -7.022  1.00 27.97 LIG 0.17  HD
ATOM     42 1HH1 ARG X   1     -40.982  21.842  -5.602  1.00 27.97 LIG 0.17  HD
ENDBRANCH 33 34
ENDBRANCH 32 33
ENDBRANCH 31 32
ENDBRANCH 26 31
ENDBRANCH 1 26
TORSDOF 15
ENDMDL
MODEL 34
USER: ADFR SOLUTION from run 6
USER: SCORE 13.255897 LL:  -1.851 LR: -13.257 RR:   0.000 FEB:  -8.782
USER: RMSD 3.077132
USER: SEED 898025
USER: STATUS no improvement in best in 18 clusters for 5 generations
USER: GENES 17
USER: genes 0 Translation |==|  0.61040 0.47424 0.66196
USER: genes 1 Rotation |==|  0.38499 0.44933 0.52856 0.98311
USER: genes 2 Torsion [C]-N--CA-[CB] |==|  0.26667
USER: genes 3 Torsion [N]-CA--CB-[CG] |==|  0.26303
USER: genes 4 Torsion [CA]-CB--CG-[CD] |==|  0.31016
USER: genes 5 Torsion [CB]-CG--CD-[OE1] |==|  0.46764
USER: genes 6 Torsion [N]-CA--C-[N] |==|  0.44895
USER: genes 7 Torsion [C]-N--CA-[CB] |==|  0.21148
USER: genes 8 Torsion [N]-CA--C-[N] |==|  0.60961
USER: genes 9 Torsion [C]-N--CA-[CB] |==|  0.24362
USER: genes 10 Torsion [N]-CA--C-[O] |==|  0.30047
USER: genes 11 Torsion [N]-C--CA-[N] |==|  0.21258
USER: genes 12 Torsion [C]-CA--N-[H3] |==|  0.35122
USER: genes 13 Torsion [C]-CA--CB-[CG] |==|  0.44225
USER: genes 14 Torsion [CA]-CB--CG-[CD] |==|  0.22247
USER: genes 15 Torsion [CB]-CG--CD-[NE] |==|  0.33184
USER: genes 16 Torsion [CG]-CD--NE-[HE] |==|  0.80265
ROOT
ATOM      1  C   ARG X   1     -40.425  13.063  -6.354  1.00 28.35 LIG 0.25  C 
ATOM      2 O    ARG X   1     -39.772  12.356  -5.594  1.00 27.73 LIG-0.27  OA
ATOM      3  N   GLU X   2     -41.279  12.568  -7.241  1.00 29.79 LIG-0.35  N 
ATOM      4 H    GLU X   2     -41.835  13.045  -7.691  1.00 29.79 LIG 0.16  HD
ENDROOT
BRANCH 3 5
ATOM      5  CA  GLU X   2     -41.340  11.147  -7.526  1.00 30.62 LIG 0.18  C 
BRANCH 5 6
ATOM      6  CB  GLU X   2     -42.437  10.447  -6.717  1.00 30.95 LIG 0.04  C 
BRANCH 6 7
ATOM      7  CG  GLU X   2     -43.771  10.310  -7.475  1.00 31.16 LIG 0.12  C 
BRANCH 7 8
ATOM      8  CD  GLU X   2     -44.131   8.870  -7.843  1.00 32.27 LIG 0.17  C 
ATOM      9 OE1  GLU X   2     -45.281   8.625  -8.258  1.00 31.08 LIG-0.65  OA
ATOM     10 OE2  GLU X   2     -43.268   7.974  -7.700  1.00 30.98 LIG-0.65  OA
ENDBRANCH 7 8
ENDBRANCH 6 7
ENDBRANCH 5 6
BRANCH 5 11
ATOM     11  C   GLU X   2     -41.595  10.974  -9.007  1.00 31.96 LIG 0.24  C 
ATOM     12  N   ALA X   3     -41.306   9.779  -9.496  1.00 33.07 LIG-0.35  N 
ATOM     13 H    ALA X   3     -40.953   9.143  -9.038  1.00 33.07 LIG 0.16  HD
ATOM     14 O    GLU X   2     -42.043  11.903  -9.690  1.00 31.51 LIG-0.27  OA
BRANCH 12 15
ATOM     15  CA  ALA X   3     -41.575   9.449 -10.885  1.00 34.83 LIG 0.17  C 
ATOM     16  CB  ALA X   3     -40.529  10.097 -11.798  1.00 34.52 LIG 0.04  C 
BRANCH 15 17
ATOM     17  C   ALA X   3     -41.571   7.942 -11.033  1.00 35.72 LIG 0.24  C 
ATOM     18  N   ALA X   4     -41.004   7.465 -12.141  1.00 36.94 LIG-0.34  N 
ATOM     19 H    ALA X   4     -40.673   7.968 -12.755  1.00 36.94 LIG 0.16  HD
ATOM     20 O    ALA X   3     -42.096   7.235 -10.172  1.00 36.60 LIG-0.27  OA
BRANCH 18 21
ATOM     21  CA  ALA X   4     -40.889   6.032 -12.425  1.00 37.95 LIG 0.18  C 
ATOM     22  CB  ALA X   4     -42.141   5.526 -13.140  1.00 38.38 LIG 0.04  C 
BRANCH 21 23
ATOM     23  C   ALA X   4     -39.646   5.708 -13.251  1.00 38.48 LIG 0.20  C 
ATOM     24 O    ALA X   4     -38.675   5.130 -12.760  1.00 38.71 LIG-0.65  OA
ATOM     25 OXT  ALA X   4     -39.587   6.019 -14.439  1.00 39.00 LIG-0.65  OA
ENDBRANCH 21 23
ENDBRANCH 18 21
ENDBRANCH 15 17
ENDBRANCH 12 15
ENDBRANCH 5 11
ENDBRANCH 3 5
BRANCH 1 26
ATOM     26  CA  ARG X   1     -40.301  14.578  -6.322  1.00 28.22 LIG 0.27  C 
BRANCH 26 27
ATOM     27  N   ARG X   1     -41.465  15.215  -5.631  1.00 27.64 LIG-0.07  N 
ATOM     28 H3   ARG X   1     -41.169  15.752  -4.986  1.00 27.64 LIG 0.28  HD
ATOM     29 H2   ARG X   1     -41.982  14.584  -5.276  1.00 27.64 LIG 0.28  HD
ATOM     30 H1   ARG X   1     -41.937  15.689  -6.218  1.00 27.64 LIG 0.28  HD
ENDBRANCH 26 27
BRANCH 26 31
ATOM     31  CB  ARG X   1     -38.982  14.946  -5.630  1.00 28.04 LIG 0.04  C 
BRANCH 31 32
ATOM     32  CG  ARG X   1     -38.457  16.325  -5.929  1.00 27.94 LIG 0.02  C 
BRANCH 32 33
ATOM     33  CD  ARG X   1     -39.148  17.421  -5.109  1.00 29.24 LIG 0.14  C 
BRANCH 33 34
ATOM     34  NE  ARG X   1     -38.169  18.123  -4.277  1.00 27.62 LIG-0.23  N 
ATOM     35 HE   ARG X   1     -37.837  17.700  -3.607  1.00 27.62 LIG 0.18  HD
ATOM     36  CZ  ARG X   1     -37.759  19.372  -4.488  1.00 28.90 LIG 0.67  C 
ATOM     37  NH2 ARG X   1     -38.223  20.074  -5.519  1.00 29.13 LIG-0.23  N 
ATOM     38  NH1 ARG X   1     -36.871  19.922  -3.670  1.00 27.97 LIG-0.23  N 
ATOM     39 1HH2 ARG X   1     -38.795  19.721  -6.057  1.00 29.13 LIG 0.17  HD
ATOM     40 2HH2 ARG X   1     -37.953  20.880  -5.648  1.00 29.13 LIG 0.17  HD
ATOM     41 2HH1 ARG X   1     -36.604  20.729  -3.804  1.00 27.97 LIG 0.17  HD
ATOM     42 1HH1 ARG X   1     -36.561  19.472  -3.005  1.00 27.97 LIG 0.17  HD
ENDBRANCH 33 34
ENDBRANCH 32 33
ENDBRANCH 31 32
ENDBRANCH 26 31
ENDBRANCH 1 26
TORSDOF 15
ENDMDL
