MODEL 1
USER: ADFR SOLUTION from run 40
USER: SCORE 14.388113 LL:  -0.742 LR: -13.855 RR:   0.000 FEB: -10.276
USER: RMSD 1.310911
USER: SEED 39
USER: STATUS no improvement in best in 5 clusters for 5 generations
USER: GENES 14
USER: genes 0 Translation |==|  0.57431 0.47145 0.61768
USER: genes 1 Rotation |==|  0.49958 0.44464 0.47994 0.99652
USER: genes 2 Torsion [N]-CA--C-[N] |==|  0.38455
USER: genes 3 Torsion [C]-N--CA-[C] |==|  0.75449
USER: genes 4 Torsion [N]-CA--C-[N] |==|  0.26345
USER: genes 5 Torsion [C]-N--CA-[CB] |==|  0.41764
USER: genes 6 Torsion [N]-CA--C-[O] |==|  0.91304
USER: genes 7 Torsion [N]-CA--CB-[CG] |==|  0.50130
USER: genes 8 Torsion [CA]-CB--CG-[OD2] |==|  0.52527
USER: genes 9 Torsion [C]-CA--CB-[CG] |==|  0.40892
USER: genes 10 Torsion [CA]-CB--CG-[CD] |==|  0.31895
USER: genes 11 Torsion [CB]-CG--CD-[NE] |==|  0.84101
USER: genes 12 Torsion [CG]-CD--NE-[HE] |==|  0.04694
USER: genes 13 Torsion [C]-CA--N-[H3] |==|  0.41016
ROOT
ATOM      1  CA  ARG X   1     -40.338  13.147  -6.383  1.00 44.42 LIG 0.27  C 
ENDROOT
BRANCH 1 2
ATOM      2  C   ARG X   1     -40.623  11.782  -7.008  1.00 44.91 LIG 0.25  C 
ATOM      3 O    ARG X   1     -39.801  10.868  -6.913  1.00 44.76 LIG-0.27  OA
ATOM      4  N   ASP X   2     -41.790  11.647  -7.638  1.00 45.46 LIG-0.34  N 
ATOM      5 H    ASP X   2     -42.405  12.247  -7.641  1.00 45.46 LIG 0.16  HD
BRANCH 4 6
ATOM      6  CA  ASP X   2     -42.123  10.437  -8.390  1.00 46.23 LIG 0.19  C 
BRANCH 6 7
ATOM      7  C   ASP X   2     -41.646  10.536  -9.845  1.00 46.82 LIG 0.24  C 
ATOM      8  N   ALA X   3     -40.453   9.997 -10.100  1.00 47.39 LIG-0.35  N 
ATOM      9 H    ALA X   3     -39.973   9.610  -9.501  1.00 47.39 LIG 0.16  HD
ATOM     10 O    ASP X   2     -42.345  11.080 -10.705  1.00 46.73 LIG-0.27  OA
BRANCH 8 11
ATOM     11  CA  ALA X   3     -39.840  10.010 -11.428  1.00 47.83 LIG 0.16  C 
ATOM     12  CB  ALA X   3     -38.322  10.026 -11.309  1.00 47.95 LIG 0.04  C 
BRANCH 11 13
ATOM     13  C   ALA X   3     -40.304   8.833 -12.292  1.00 48.01 LIG 0.22  C 
ATOM     14 O    ALA X   3     -40.600   7.747 -11.784  1.00 47.84 LIG-0.29  OA
ENDBRANCH 11 13
ENDBRANCH 8 11
ENDBRANCH 6 7
BRANCH 6 15
ATOM     15  CB  ASP X   2     -43.631  10.158  -8.323  1.00 46.29 LIG 0.15  C 
BRANCH 15 16
ATOM     16  CG  ASP X   2     -44.045   8.896  -9.084  1.00 46.38 LIG 0.17  C 
ATOM     17 OD1  ASP X   2     -43.176   8.121  -9.537  1.00 47.16 LIG-0.65  OA
ATOM     18 OD2  ASP X   2     -45.258   8.675  -9.237  1.00 46.37 LIG-0.65  OA
ENDBRANCH 15 16
ENDBRANCH 6 15
ENDBRANCH 4 6
ENDBRANCH 1 2
BRANCH 1 19
ATOM     19  CB  ARG X   1     -39.440  13.980  -7.318  1.00 44.35 LIG 0.04  C 
BRANCH 19 20
ATOM     20  CG  ARG X   1     -39.669  15.497  -7.301  1.00 42.92 LIG 0.02  C 
BRANCH 20 21
ATOM     21  CD  ARG X   1     -38.465  16.256  -6.762  1.00 41.32 LIG 0.14  C 
BRANCH 21 22
ATOM     22  NE  ARG X   1     -38.093  15.824  -5.413  1.00 39.81 LIG-0.23  N 
ATOM     23 HE   ARG X   1     -38.406  15.071  -5.139  1.00 39.81 LIG 0.18  HD
ATOM     24  CZ  ARG X   1     -37.310  16.501  -4.576  1.00 39.75 LIG 0.67  C 
ATOM     25  NH1 ARG X   1     -36.785  17.678  -4.924  1.00 38.76 LIG-0.23  N 
ATOM     26  NH2 ARG X   1     -37.048  15.997  -3.379  1.00 38.02 LIG-0.23  N 
ATOM     27 1HH1 ARG X   1     -36.951  18.010  -5.700  1.00 38.76 LIG 0.17  HD
ATOM     28 2HH1 ARG X   1     -36.281  18.103  -4.373  1.00 38.76 LIG 0.17  HD
ATOM     29 1HH2 ARG X   1     -37.383  15.239  -3.149  1.00 38.02 LIG 0.17  HD
ATOM     30 2HH2 ARG X   1     -36.544  16.428  -2.832  1.00 38.02 LIG 0.17  HD
ENDBRANCH 21 22
ENDBRANCH 20 21
ENDBRANCH 19 20
ENDBRANCH 1 19
BRANCH 1 31
ATOM     31  N   ARG X   1     -39.708  12.997  -5.038  1.00 44.45 LIG-0.07  N 
ATOM     32 H3   ARG X   1     -39.149  13.675  -4.894  1.00 44.45 LIG 0.28  HD
ATOM     33 H2   ARG X   1     -39.258  12.229  -5.005  1.00 44.45 LIG 0.28  HD
ATOM     34 H1   ARG X   1     -40.341  12.997  -4.412  1.00 44.45 LIG 0.28  HD
ENDBRANCH 1 31
TORSDOF 12
ENDMDL
MODEL 2
USER: ADFR SOLUTION from run 104
USER: SCORE 14.216508 LL:  -0.998 LR: -13.437 RR:   0.000 FEB:  -9.857
USER: RMSD 1.351254
USER: SEED 103
USER: STATUS no improvement in best in 9 clusters for 5 generations
USER: GENES 14
USER: genes 0 Translation |==|  0.58376 0.47018 0.61399
USER: genes 1 Rotation |==|  0.48561 0.41900 0.46157 0.99169
USER: genes 2 Torsion [N]-CA--C-[N] |==|  0.36612
USER: genes 3 Torsion [C]-N--CA-[C] |==|  0.75261
USER: genes 4 Torsion [N]-CA--C-[N] |==|  0.25235
USER: genes 5 Torsion [C]-N--CA-[CB] |==|  0.43040
USER: genes 6 Torsion [N]-CA--C-[O] |==|  0.93268
USER: genes 7 Torsion [N]-CA--CB-[CG] |==|  0.50281
USER: genes 8 Torsion [CA]-CB--CG-[OD2] |==|  0.02553
USER: genes 9 Torsion [C]-CA--CB-[CG] |==|  0.51442
USER: genes 10 Torsion [CA]-CB--CG-[CD] |==|  0.88531
USER: genes 11 Torsion [CB]-CG--CD-[NE] |==|  0.76547
USER: genes 12 Torsion [CG]-CD--NE-[HE] |==|  0.21646
USER: genes 13 Torsion [C]-CA--N-[H3] |==|  0.09287
ROOT
ATOM      1  CA  ARG X   1     -40.189  13.121  -6.447  1.00 44.42 LIG 0.27  C 
ENDROOT
BRANCH 1 2
ATOM      2  C   ARG X   1     -40.522  11.749  -7.032  1.00 44.91 LIG 0.25  C 
ATOM      3 O    ARG X   1     -39.731  10.810  -6.913  1.00 44.76 LIG-0.27  OA
ATOM      4  N   ASP X   2     -41.694  11.636  -7.656  1.00 45.46 LIG-0.34  N 
ATOM      5 H    ASP X   2     -42.288  12.256  -7.676  1.00 45.46 LIG 0.16  HD
BRANCH 4 6
ATOM      6  CA  ASP X   2     -42.071  10.417  -8.374  1.00 46.23 LIG 0.19  C 
BRANCH 6 7
ATOM      7  C   ASP X   2     -41.608  10.467  -9.836  1.00 46.82 LIG 0.24  C 
ATOM      8  N   ALA X   3     -40.397   9.962 -10.077  1.00 47.39 LIG-0.35  N 
ATOM      9 H    ALA X   3     -39.898   9.622  -9.465  1.00 47.39 LIG 0.16  HD
ATOM     10 O    ASP X   2     -42.334  10.943 -10.714  1.00 46.73 LIG-0.27  OA
BRANCH 8 11
ATOM     11  CA  ALA X   3     -39.795   9.936 -11.409  1.00 47.83 LIG 0.16  C 
ATOM     12  CB  ALA X   3     -38.277   9.901 -11.303  1.00 47.95 LIG 0.04  C 
BRANCH 11 13
ATOM     13  C   ALA X   3     -40.307   8.764 -12.254  1.00 48.01 LIG 0.22  C 
ATOM     14 O    ALA X   3     -40.757   7.744 -11.724  1.00 47.84 LIG-0.29  OA
ENDBRANCH 11 13
ENDBRANCH 8 11
ENDBRANCH 6 7
BRANCH 6 15
ATOM     15  CB  ASP X   2     -43.584  10.183  -8.283  1.00 46.29 LIG 0.15  C 
BRANCH 15 16
ATOM     16  CG  ASP X   2     -44.041   8.907  -8.995  1.00 46.38 LIG 0.17  C 
ATOM     17 OD1  ASP X   2     -45.258   8.672  -9.148  1.00 47.16 LIG-0.65  OA
ATOM     18 OD2  ASP X   2     -43.169   8.122  -9.405  1.00 46.37 LIG-0.65  OA
ENDBRANCH 15 16
ENDBRANCH 6 15
ENDBRANCH 4 6
ENDBRANCH 1 2
BRANCH 1 19
ATOM     19  CB  ARG X   1     -39.137  13.829  -7.322  1.00 44.35 LIG 0.04  C 
BRANCH 19 20
ATOM     20  CG  ARG X   1     -38.609  15.168  -6.793  1.00 42.92 LIG 0.02  C 
BRANCH 20 21
ATOM     21  CD  ARG X   1     -39.714  16.030  -6.199  1.00 41.32 LIG 0.14  C 
BRANCH 21 22
ATOM     22  NE  ARG X   1     -40.418  16.812  -7.218  1.00 39.81 LIG-0.23  N 
ATOM     23 HE   ARG X   1     -41.001  16.400  -7.699  1.00 39.81 LIG 0.18  HD
ATOM     24  CZ  ARG X   1     -40.230  18.107  -7.460  1.00 39.75 LIG 0.67  C 
ATOM     25  NH1 ARG X   1     -39.345  18.817  -6.758  1.00 38.76 LIG-0.23  N 
ATOM     26  NH2 ARG X   1     -40.936  18.699  -8.413  1.00 38.02 LIG-0.23  N 
ATOM     27 1HH1 ARG X   1     -38.884  18.438  -6.138  1.00 38.76 LIG 0.17  HD
ATOM     28 2HH1 ARG X   1     -39.235  19.653  -6.927  1.00 38.76 LIG 0.17  HD
ATOM     29 1HH2 ARG X   1     -41.508  18.247  -8.868  1.00 38.02 LIG 0.17  HD
ATOM     30 2HH2 ARG X   1     -40.820  19.536  -8.576  1.00 38.02 LIG 0.17  HD
ENDBRANCH 21 22
ENDBRANCH 20 21
ENDBRANCH 19 20
ENDBRANCH 1 19
BRANCH 1 31
ATOM     31  N   ARG X   1     -39.711  12.997  -5.038  1.00 44.45 LIG-0.07  N 
ATOM     32 H3   ARG X   1     -39.258  12.236  -4.944  1.00 44.45 LIG 0.28  HD
ATOM     33 H2   ARG X   1     -40.409  12.997  -4.486  1.00 44.45 LIG 0.28  HD
ATOM     34 H1   ARG X   1     -39.180  13.684  -4.843  1.00 44.45 LIG 0.28  HD
ENDBRANCH 1 31
TORSDOF 12
ENDMDL
MODEL 3
USER: ADFR SOLUTION from run 57
USER: SCORE 13.607344 LL:  -0.775 LR: -13.369 RR:   0.000 FEB:  -9.790
USER: RMSD 2.729871
USER: SEED 56
USER: STATUS no improvement in best in 6 clusters for 5 generations
USER: GENES 14
USER: genes 0 Translation |==|  0.57388 0.47125 0.61734
USER: genes 1 Rotation |==|  0.50110 0.44211 0.48387 0.99637
USER: genes 2 Torsion [N]-CA--C-[N] |==|  0.38492
USER: genes 3 Torsion [C]-N--CA-[C] |==|  0.69295
USER: genes 4 Torsion [N]-CA--C-[N] |==|  0.80576
USER: genes 5 Torsion [C]-N--CA-[CB] |==|  0.15130
USER: genes 6 Torsion [N]-CA--C-[O] |==|  0.01552
USER: genes 7 Torsion [N]-CA--CB-[CG] |==|  0.44265
USER: genes 8 Torsion [CA]-CB--CG-[OD2] |==|  0.10949
USER: genes 9 Torsion [C]-CA--CB-[CG] |==|  0.40829
USER: genes 10 Torsion [CA]-CB--CG-[CD] |==|  0.32050
USER: genes 11 Torsion [CB]-CG--CD-[NE] |==|  0.84410
USER: genes 12 Torsion [CG]-CD--NE-[HE] |==|  0.04069
USER: genes 13 Torsion [C]-CA--N-[H3] |==|  0.07581
ROOT
ATOM      1  CA  ARG X   1     -40.344  13.143  -6.389  1.00 44.42 LIG 0.27  C 
ENDROOT
BRANCH 1 2
ATOM      2  C   ARG X   1     -40.601  11.776  -7.022  1.00 44.91 LIG 0.25  C 
ATOM      3 O    ARG X   1     -39.766  10.874  -6.920  1.00 44.76 LIG-0.27  OA
ATOM      4  N   ASP X   2     -41.757  11.625  -7.666  1.00 45.46 LIG-0.34  N 
ATOM      5 H    ASP X   2     -42.382  12.216  -7.675  1.00 45.46 LIG 0.16  HD
BRANCH 4 6
ATOM      6  CA  ASP X   2     -42.063  10.413  -8.427  1.00 46.23 LIG 0.19  C 
BRANCH 6 7
ATOM      7  C   ASP X   2     -42.089  10.693  -9.935  1.00 46.82 LIG 0.24  C 
ATOM      8  N   ALA X   3     -43.111  11.434 -10.368  1.00 47.39 LIG-0.35  N 
ATOM      9 H    ALA X   3     -43.720  11.746  -9.849  1.00 47.39 LIG 0.16  HD
ATOM     10 O    ASP X   2     -41.204  10.255 -10.676  1.00 46.73 LIG-0.27  OA
BRANCH 8 11
ATOM     11  CA  ALA X   3     -43.297  11.789 -11.775  1.00 47.83 LIG 0.16  C 
ATOM     12  CB  ALA X   3     -43.305  10.537 -12.640  1.00 47.95 LIG 0.04  C 
BRANCH 11 13
ATOM     13  C   ALA X   3     -44.570  12.613 -12.000  1.00 48.01 LIG 0.22  C 
ATOM     14 O    ALA X   3     -45.258  12.997 -11.050  1.00 47.84 LIG-0.29  OA
ENDBRANCH 11 13
ENDBRANCH 8 11
ENDBRANCH 6 7
BRANCH 6 15
ATOM     15  CB  ASP X   2     -43.391   9.801  -7.958  1.00 46.29 LIG 0.15  C 
BRANCH 15 16
ATOM     16  CG  ASP X   2     -44.022   8.866  -8.992  1.00 46.38 LIG 0.17  C 
ATOM     17 OD1  ASP X   2     -45.259   8.863  -9.168  1.00 47.16 LIG-0.65  OA
ATOM     18 OD2  ASP X   2     -43.271   8.115  -9.639  1.00 46.37 LIG-0.65  OA
ENDBRANCH 15 16
ENDBRANCH 6 15
ENDBRANCH 4 6
ENDBRANCH 1 2
BRANCH 1 19
ATOM     19  CB  ARG X   1     -39.451  13.994  -7.312  1.00 44.35 LIG 0.04  C 
BRANCH 19 20
ATOM     20  CG  ARG X   1     -39.709  15.506  -7.295  1.00 42.92 LIG 0.02  C 
BRANCH 20 21
ATOM     21  CD  ARG X   1     -38.521  16.288  -6.752  1.00 41.32 LIG 0.14  C 
BRANCH 21 22
ATOM     22  NE  ARG X   1     -38.128  15.845  -5.413  1.00 39.81 LIG-0.23  N 
ATOM     23 HE   ARG X   1     -38.444  15.094  -5.137  1.00 39.81 LIG 0.18  HD
ATOM     24  CZ  ARG X   1     -37.323  16.510  -4.588  1.00 39.75 LIG 0.67  C 
ATOM     25  NH1 ARG X   1     -36.792  17.683  -4.940  1.00 38.76 LIG-0.23  N 
ATOM     26  NH2 ARG X   1     -37.044  15.997  -3.398  1.00 38.02 LIG-0.23  N 
ATOM     27 1HH1 ARG X   1     -36.969  18.021  -5.711  1.00 38.76 LIG 0.17  HD
ATOM     28 2HH1 ARG X   1     -36.273  18.100  -4.396  1.00 38.76 LIG 0.17  HD
ATOM     29 1HH2 ARG X   1     -37.382  15.242  -3.166  1.00 38.02 LIG 0.17  HD
ATOM     30 2HH2 ARG X   1     -36.524  16.420  -2.859  1.00 38.02 LIG 0.17  HD
ENDBRANCH 21 22
ENDBRANCH 20 21
ENDBRANCH 19 20
ENDBRANCH 1 19
BRANCH 1 31
ATOM     31  N   ARG X   1     -39.726  12.998  -5.038  1.00 44.45 LIG-0.07  N 
ATOM     32 H3   ARG X   1     -39.269  12.235  -5.001  1.00 44.45 LIG 0.28  HD
ATOM     33 H2   ARG X   1     -40.365  12.990  -4.418  1.00 44.45 LIG 0.28  HD
ATOM     34 H1   ARG X   1     -39.176  13.681  -4.888  1.00 44.45 LIG 0.28  HD
ENDBRANCH 1 31
TORSDOF 12
ENDMDL
MODEL 4
USER: ADFR SOLUTION from run 106
USER: SCORE 12.979486 LL:  -0.340 LR: -12.984 RR:   0.000 FEB:  -9.405
USER: RMSD 2.913122
USER: SEED 105
USER: STATUS no improvement in best in 9 clusters for 5 generations
USER: GENES 14
USER: genes 0 Translation |==|  0.63166 0.45826 0.61524
USER: genes 1 Rotation |==|  0.44106 0.26554 0.32749 0.90224
USER: genes 2 Torsion [N]-CA--C-[N] |==|  0.21858
USER: genes 3 Torsion [C]-N--CA-[C] |==|  0.60001
USER: genes 4 Torsion [N]-CA--C-[N] |==|  0.31332
USER: genes 5 Torsion [C]-N--CA-[CB] |==|  0.52895
USER: genes 6 Torsion [N]-CA--C-[O] |==|  0.24297
USER: genes 7 Torsion [N]-CA--CB-[CG] |==|  0.49089
USER: genes 8 Torsion [CA]-CB--CG-[OD2] |==|  0.67189
USER: genes 9 Torsion [C]-CA--CB-[CG] |==|  0.48639
USER: genes 10 Torsion [CA]-CB--CG-[CD] |==|  0.85450
USER: genes 11 Torsion [CB]-CG--CD-[NE] |==|  0.18021
USER: genes 12 Torsion [CG]-CD--NE-[HE] |==|  0.14876
USER: genes 13 Torsion [C]-CA--N-[H3] |==|  0.45893
ROOT
ATOM      1  CA  ARG X   1     -39.434  12.871  -6.425  1.00 44.42 LIG 0.27  C 
ENDROOT
BRANCH 1 2
ATOM      2  C   ARG X   1     -40.079  11.700  -7.165  1.00 44.91 LIG 0.25  C 
ATOM      3 O    ARG X   1     -39.485  10.625  -7.274  1.00 44.76 LIG-0.27  OA
ATOM      4  N   ASP X   2     -41.297  11.908  -7.666  1.00 45.46 LIG-0.34  N 
ATOM      5 H    ASP X   2     -41.756  12.622  -7.528  1.00 45.46 LIG 0.16  HD
BRANCH 4 6
ATOM      6  CA  ASP X   2     -41.965  10.916  -8.509  1.00 46.23 LIG 0.19  C 
BRANCH 6 7
ATOM      7  C   ASP X   2     -42.794  11.588  -9.611  1.00 46.82 LIG 0.24  C 
ATOM      8  N   ALA X   3     -42.357  11.404 -10.857  1.00 47.39 LIG-0.35  N 
ATOM      9 H    ALA X   3     -41.661  10.937 -11.048  1.00 47.39 LIG 0.16  HD
ATOM     10 O    ASP X   2     -43.801  12.247  -9.333  1.00 46.73 LIG-0.27  OA
BRANCH 8 11
ATOM     11  CA  ALA X   3     -43.019  11.980 -12.027  1.00 47.83 LIG 0.16  C 
ATOM     12  CB  ALA X   3     -42.444  11.386 -13.306  1.00 47.95 LIG 0.04  C 
BRANCH 11 13
ATOM     13  C   ALA X   3     -44.540  11.797 -11.980  1.00 48.01 LIG 0.22  C 
ATOM     14 O    ALA X   3     -45.265  12.620 -11.413  1.00 47.84 LIG-0.29  OA
ENDBRANCH 11 13
ENDBRANCH 8 11
ENDBRANCH 6 7
BRANCH 6 15
ATOM     15  CB  ASP X   2     -42.835   9.982  -7.657  1.00 46.29 LIG 0.15  C 
BRANCH 15 16
ATOM     16  CG  ASP X   2     -43.624   8.969  -8.490  1.00 46.38 LIG 0.17  C 
ATOM     17 OD1  ASP X   2     -43.025   8.132  -9.198  1.00 47.16 LIG-0.65  OA
ATOM     18 OD2  ASP X   2     -44.865   9.011  -8.440  1.00 46.37 LIG-0.65  OA
ENDBRANCH 15 16
ENDBRANCH 6 15
ENDBRANCH 4 6
ENDBRANCH 1 2
BRANCH 1 19
ATOM     19  CB  ARG X   1     -37.904  12.695  -6.389  1.00 44.35 LIG 0.04  C 
BRANCH 19 20
ATOM     20  CG  ARG X   1     -37.106  13.854  -5.779  1.00 42.92 LIG 0.02  C 
BRANCH 20 21
ATOM     21  CD  ARG X   1     -37.459  15.194  -6.409  1.00 41.32 LIG 0.14  C 
BRANCH 21 22
ATOM     22  NE  ARG X   1     -38.846  15.584  -6.145  1.00 39.81 LIG-0.23  N 
ATOM     23 HE   ARG X   1     -39.104  15.596  -5.325  1.00 39.81 LIG 0.18  HD
ATOM     24  CZ  ARG X   1     -39.740  15.922  -7.072  1.00 39.75 LIG 0.67  C 
ATOM     25  NH1 ARG X   1     -39.420  15.929  -8.368  1.00 38.76 LIG-0.23  N 
ATOM     26  NH2 ARG X   1     -40.966  16.258  -6.700  1.00 38.02 LIG-0.23  N 
ATOM     27 1HH1 ARG X   1     -38.625  15.712  -8.615  1.00 38.76 LIG 0.17  HD
ATOM     28 2HH1 ARG X   1     -40.008  16.149  -8.954  1.00 38.76 LIG 0.17  HD
ATOM     29 1HH2 ARG X   1     -41.178  16.256  -5.867  1.00 38.02 LIG 0.17  HD
ATOM     30 2HH2 ARG X   1     -41.550  16.477  -7.292  1.00 38.02 LIG 0.17  HD
ENDBRANCH 21 22
ENDBRANCH 20 21
ENDBRANCH 19 20
ENDBRANCH 1 19
BRANCH 1 31
ATOM     31  N   ARG X   1     -39.987  12.997  -5.044  1.00 44.45 LIG-0.07  N 
ATOM     32 H3   ARG X   1     -39.462  13.531  -4.562  1.00 44.45 LIG 0.28  HD
ATOM     33 H2   ARG X   1     -40.022  12.193  -4.663  1.00 44.45 LIG 0.28  HD
ATOM     34 H1   ARG X   1     -40.806  13.342  -5.083  1.00 44.45 LIG 0.28  HD
ENDBRANCH 1 31
TORSDOF 12
ENDMDL
MODEL 5
USER: ADFR SOLUTION from run 114
USER: SCORE 13.241581 LL:  -1.196 LR: -12.625 RR:   0.000 FEB:  -9.046
USER: RMSD 2.799435
USER: SEED 113
USER: STATUS no improvement in best in 8 clusters for 5 generations
USER: GENES 14
USER: genes 0 Translation |==|  0.56319 0.47106 0.63045
USER: genes 1 Rotation |==|  0.52880 0.49909 0.52229 0.99867
USER: genes 2 Torsion [N]-CA--C-[N] |==|  0.41149
USER: genes 3 Torsion [C]-N--CA-[C] |==|  0.72043
USER: genes 4 Torsion [N]-CA--C-[N] |==|  0.79462
USER: genes 5 Torsion [C]-N--CA-[CB] |==|  0.15421
USER: genes 6 Torsion [N]-CA--C-[O] |==|  0.01879
USER: genes 7 Torsion [N]-CA--CB-[CG] |==|  0.44858
USER: genes 8 Torsion [CA]-CB--CG-[OD2] |==|  0.10865
USER: genes 9 Torsion [C]-CA--CB-[CG] |==|  0.40587
USER: genes 10 Torsion [CA]-CB--CG-[CD] |==|  0.40544
USER: genes 11 Torsion [CB]-CG--CD-[NE] |==|  0.49649
USER: genes 12 Torsion [CG]-CD--NE-[HE] |==|  0.22029
USER: genes 13 Torsion [C]-CA--N-[H3] |==|  0.36653
ROOT
ATOM      1  CA  ARG X   1     -40.513  13.139  -6.163  1.00 44.42 LIG 0.27  C 
ENDROOT
BRANCH 1 2
ATOM      2  C   ARG X   1     -40.695  11.803  -6.882  1.00 44.91 LIG 0.25  C 
ATOM      3 O    ARG X   1     -39.777  10.980  -6.913  1.00 44.76 LIG-0.27  OA
ATOM      4  N   ASP X   2     -41.881  11.589  -7.451  1.00 45.46 LIG-0.34  N 
ATOM      5 H    ASP X   2     -42.554  12.117  -7.368  1.00 45.46 LIG 0.16  HD
BRANCH 4 6
ATOM      6  CA  ASP X   2     -42.136  10.412  -8.282  1.00 46.23 LIG 0.19  C 
BRANCH 6 7
ATOM      7  C   ASP X   2     -42.064  10.757  -9.775  1.00 46.82 LIG 0.24  C 
ATOM      8  N   ALA X   3     -43.098  11.447 -10.259  1.00 47.39 LIG-0.35  N 
ATOM      9 H    ALA X   3     -43.766  11.695  -9.778  1.00 47.39 LIG 0.16  HD
ATOM     10 O    ASP X   2     -41.096  10.412 -10.459  1.00 46.73 LIG-0.27  OA
BRANCH 8 11
ATOM     11  CA  ALA X   3     -43.199  11.853 -11.661  1.00 47.83 LIG 0.16  C 
ATOM     12  CB  ALA X   3     -43.079  10.639 -12.572  1.00 47.95 LIG 0.04  C 
BRANCH 11 13
ATOM     13  C   ALA X   3     -44.492  12.622 -11.950  1.00 48.01 LIG 0.22  C 
ATOM     14 O    ALA X   3     -45.257  12.951 -11.038  1.00 47.84 LIG-0.29  OA
ENDBRANCH 11 13
ENDBRANCH 8 11
ENDBRANCH 6 7
BRANCH 6 15
ATOM     15  CB  ASP X   2     -43.490   9.784  -7.927  1.00 46.29 LIG 0.15  C 
BRANCH 15 16
ATOM     16  CG  ASP X   2     -44.028   8.854  -9.017  1.00 46.38 LIG 0.17  C 
ATOM     17 OD1  ASP X   2     -45.248   8.839  -9.287  1.00 47.16 LIG-0.65  OA
ATOM     18 OD2  ASP X   2     -43.220   8.122  -9.613  1.00 46.37 LIG-0.65  OA
ENDBRANCH 15 16
ENDBRANCH 6 15
ENDBRANCH 4 6
ENDBRANCH 1 2
BRANCH 1 19
ATOM     19  CB  ARG X   1     -39.996  14.205  -7.148  1.00 44.35 LIG 0.04  C 
BRANCH 19 20
ATOM     20  CG  ARG X   1     -40.488  15.638  -6.912  1.00 42.92 LIG 0.02  C 
BRANCH 20 21
ATOM     21  CD  ARG X   1     -39.435  16.677  -7.273  1.00 41.32 LIG 0.14  C 
BRANCH 21 22
ATOM     22  NE  ARG X   1     -39.915  18.046  -7.076  1.00 39.81 LIG-0.23  N 
ATOM     23 HE   ARG X   1     -39.915  18.353  -6.272  1.00 39.81 LIG 0.18  HD
ATOM     24  CZ  ARG X   1     -40.351  18.855  -8.039  1.00 39.75 LIG 0.67  C 
ATOM     25  NH1 ARG X   1     -40.383  18.455  -9.312  1.00 38.76 LIG-0.23  N 
ATOM     26  NH2 ARG X   1     -40.758  20.077  -7.727  1.00 38.02 LIG-0.23  N 
ATOM     27 1HH1 ARG X   1     -40.120  17.663  -9.521  1.00 38.76 LIG 0.17  HD
ATOM     28 2HH1 ARG X   1     -40.667  18.989  -9.923  1.00 38.76 LIG 0.17  HD
ATOM     29 1HH2 ARG X   1     -40.739  20.341  -6.909  1.00 38.02 LIG 0.17  HD
ATOM     30 2HH2 ARG X   1     -41.041  20.606  -8.343  1.00 38.02 LIG 0.17  HD
ENDBRANCH 21 22
ENDBRANCH 20 21
ENDBRANCH 19 20
ENDBRANCH 1 19
BRANCH 1 31
ATOM     31  N   ARG X   1     -39.587  12.997  -5.001  1.00 44.45 LIG-0.07  N 
ATOM     32 H3   ARG X   1     -38.979  13.647  -5.024  1.00 44.45 LIG 0.28  HD
ATOM     33 H2   ARG X   1     -39.177  12.207  -5.042  1.00 44.45 LIG 0.28  HD
ATOM     34 H1   ARG X   1     -40.050  13.051  -4.243  1.00 44.45 LIG 0.28  HD
ENDBRANCH 1 31
TORSDOF 12
ENDMDL
MODEL 6
USER: ADFR SOLUTION from run 184
USER: SCORE 13.317263 LL:  -1.132 LR: -12.270 RR:   0.000 FEB:  -8.691
USER: RMSD 2.641216
USER: SEED 183
USER: STATUS searching
USER: GENES 14
USER: genes 0 Translation |==|  0.57925 0.47639 0.61381
USER: genes 1 Rotation |==|  0.51332 0.40840 0.46542 0.99014
USER: genes 2 Torsion [N]-CA--C-[N] |==|  0.40314
USER: genes 3 Torsion [C]-N--CA-[C] |==|  0.73976
USER: genes 4 Torsion [N]-CA--C-[N] |==|  0.95932
USER: genes 5 Torsion [C]-N--CA-[CB] |==|  0.21600
USER: genes 6 Torsion [N]-CA--C-[O] |==|  0.02898
USER: genes 7 Torsion [N]-CA--CB-[CG] |==|  0.66229
USER: genes 8 Torsion [CA]-CB--CG-[OD2] |==|  0.53515
USER: genes 9 Torsion [C]-CA--CB-[CG] |==|  0.36545
USER: genes 10 Torsion [CA]-CB--CG-[CD] |==|  0.32310
USER: genes 11 Torsion [CB]-CG--CD-[NE] |==|  0.90076
USER: genes 12 Torsion [CG]-CD--NE-[HE] |==|  0.99832
USER: genes 13 Torsion [C]-CA--N-[H3] |==|  0.74564
ROOT
ATOM      1  CA  ARG X   1     -40.260  13.251  -6.450  1.00 44.42 LIG 0.27  C 
ENDROOT
BRANCH 1 2
ATOM      2  C   ARG X   1     -40.513  11.938  -7.189  1.00 44.91 LIG 0.25  C 
ATOM      3 O    ARG X   1     -39.836  10.939  -6.938  1.00 44.76 LIG-0.27  OA
ATOM      4  N   ASP X   2     -41.493  11.942  -8.093  1.00 45.46 LIG-0.34  N 
ATOM      5 H    ASP X   2     -42.025  12.605  -8.219  1.00 45.46 LIG 0.16  HD
BRANCH 4 6
ATOM      6  CA  ASP X   2     -41.746  10.791  -8.961  1.00 46.23 LIG 0.19  C 
BRANCH 6 7
ATOM      7  C   ASP X   2     -41.014  10.933 -10.301  1.00 46.82 LIG 0.24  C 
ATOM      8  N   ALA X   3     -40.549  12.151 -10.580  1.00 47.39 LIG-0.35  N 
ATOM      9 H    ALA X   3     -40.639  12.823 -10.050  1.00 47.39 LIG 0.16  HD
ATOM     10 O    ASP X   2     -40.874   9.963 -11.052  1.00 46.73 LIG-0.27  OA
BRANCH 8 11
ATOM     11  CA  ALA X   3     -39.835  12.468 -11.817  1.00 47.83 LIG 0.16  C 
ATOM     12  CB  ALA X   3     -40.818  12.618 -12.970  1.00 47.95 LIG 0.04  C 
BRANCH 11 13
ATOM     13  C   ALA X   3     -38.966  13.723 -11.679  1.00 48.01 LIG 0.22  C 
ATOM     14 O    ALA X   3     -38.763  14.241 -10.577  1.00 47.84 LIG-0.29  OA
ENDBRANCH 11 13
ENDBRANCH 8 11
ENDBRANCH 6 7
BRANCH 6 15
ATOM     15  CB  ASP X   2     -43.254  10.597  -9.173  1.00 46.29 LIG 0.15  C 
BRANCH 15 16
ATOM     16  CG  ASP X   2     -43.753   9.222  -8.724  1.00 46.38 LIG 0.17  C 
ATOM     17 OD1  ASP X   2     -43.021   8.479  -8.036  1.00 47.16 LIG-0.65  OA
ATOM     18 OD2  ASP X   2     -44.895   8.872  -9.068  1.00 46.37 LIG-0.65  OA
ENDBRANCH 15 16
ENDBRANCH 6 15
ENDBRANCH 4 6
ENDBRANCH 1 2
BRANCH 1 19
ATOM     19  CB  ARG X   1     -39.193  14.079  -7.192  1.00 44.35 LIG 0.04  C 
BRANCH 19 20
ATOM     20  CG  ARG X   1     -39.535  15.553  -7.441  1.00 42.92 LIG 0.02  C 
BRANCH 20 21
ATOM     21  CD  ARG X   1     -38.585  16.496  -6.716  1.00 41.32 LIG 0.14  C 
BRANCH 21 22
ATOM     22  NE  ARG X   1     -38.169  15.973  -5.413  1.00 39.81 LIG-0.23  N 
ATOM     23 HE   ARG X   1     -38.490  15.212  -5.172  1.00 39.81 LIG 0.18  HD
ATOM     24  CZ  ARG X   1     -37.336  16.580  -4.571  1.00 39.75 LIG 0.67  C 
ATOM     25  NH1 ARG X   1     -36.796  17.763  -4.868  1.00 38.76 LIG-0.23  N 
ATOM     26  NH2 ARG X   1     -37.039  15.997  -3.418  1.00 38.02 LIG-0.23  N 
ATOM     27 1HH1 ARG X   1     -36.985  18.146  -5.615  1.00 38.76 LIG 0.17  HD
ATOM     28 2HH1 ARG X   1     -36.260  18.143  -4.314  1.00 38.76 LIG 0.17  HD
ATOM     29 1HH2 ARG X   1     -37.383  15.234  -3.221  1.00 38.02 LIG 0.17  HD
ATOM     30 2HH2 ARG X   1     -36.502  16.382  -2.868  1.00 38.02 LIG 0.17  HD
ENDBRANCH 21 22
ENDBRANCH 20 21
ENDBRANCH 19 20
ENDBRANCH 1 19
BRANCH 1 31
ATOM     31  N   ARG X   1     -39.847  12.997  -5.038  1.00 44.45 LIG-0.07  N 
ATOM     32 H3   ARG X   1     -40.567  12.990  -4.515  1.00 44.45 LIG 0.28  HD
ATOM     33 H2   ARG X   1     -39.292  13.640  -4.770  1.00 44.45 LIG 0.28  HD
ATOM     34 H1   ARG X   1     -39.435  12.210  -4.986  1.00 44.45 LIG 0.28  HD
ENDBRANCH 1 31
TORSDOF 12
ENDMDL
MODEL 7
USER: ADFR SOLUTION from run 69
USER: SCORE 13.643988 LL:  -1.528 LR: -12.263 RR:   0.000 FEB:  -8.683
USER: RMSD 7.130553
USER: SEED 68
USER: STATUS no improvement in best in 7 clusters for 5 generations
USER: GENES 14
USER: genes 0 Translation |==|  0.60794 0.63124 0.59828
USER: genes 1 Rotation |==|  0.59256 0.04596 0.54500 0.68236
USER: genes 2 Torsion [N]-CA--C-[N] |==|  0.90064
USER: genes 3 Torsion [C]-N--CA-[C] |==|  0.16111
USER: genes 4 Torsion [N]-CA--C-[N] |==|  0.13972
USER: genes 5 Torsion [C]-N--CA-[CB] |==|  0.24045
USER: genes 6 Torsion [N]-CA--C-[O] |==|  0.10695
USER: genes 7 Torsion [N]-CA--CB-[CG] |==|  0.77625
USER: genes 8 Torsion [CA]-CB--CG-[OD2] |==|  0.44005
USER: genes 9 Torsion [C]-CA--CB-[CG] |==|  0.27539
USER: genes 10 Torsion [CA]-CB--CG-[CD] |==|  0.81114
USER: genes 11 Torsion [CB]-CG--CD-[NE] |==|  0.69270
USER: genes 12 Torsion [CG]-CD--NE-[HE] |==|  0.21222
USER: genes 13 Torsion [C]-CA--N-[H3] |==|  0.15093
ROOT
ATOM      1  CA  ARG X   1     -39.808  16.503  -6.718  1.00 44.42 LIG 0.27  C 
ENDROOT
BRANCH 1 2
ATOM      2  C   ARG X   1     -38.694  15.483  -6.488  1.00 44.91 LIG 0.25  C 
ATOM      3 O    ARG X   1     -37.560  15.687  -6.927  1.00 44.76 LIG-0.27  OA
ATOM      4  N   ASP X   2     -39.017  14.392  -5.795  1.00 45.46 LIG-0.34  N 
ATOM      5 H    ASP X   2     -39.779  14.275  -5.414  1.00 45.46 LIG 0.16  HD
BRANCH 4 6
ATOM      6  CA  ASP X   2     -38.080  13.281  -5.623  1.00 46.23 LIG 0.19  C 
BRANCH 6 7
ATOM      7  C   ASP X   2     -36.780  13.747  -4.956  1.00 46.82 LIG 0.24  C 
ATOM      8  N   ALA X   3     -36.928  14.461  -3.839  1.00 47.39 LIG-0.35  N 
ATOM      9 H    ALA X   3     -37.694  14.651  -3.499  1.00 47.39 LIG 0.16  HD
ATOM     10 O    ASP X   2     -35.681  13.459  -5.439  1.00 46.73 LIG-0.27  OA
BRANCH 8 11
ATOM     11  CA  ALA X   3     -35.797  14.993  -3.078  1.00 47.83 LIG 0.16  C 
ATOM     12  CB  ALA X   3     -35.379  16.349  -3.632  1.00 47.95 LIG 0.04  C 
BRANCH 11 13
ATOM     13  C   ALA X   3     -36.101  15.090  -1.580  1.00 48.01 LIG 0.22  C 
ATOM     14 O    ALA X   3     -36.756  14.216  -1.003  1.00 47.84 LIG-0.29  OA
ENDBRANCH 11 13
ENDBRANCH 8 11
ENDBRANCH 6 7
BRANCH 6 15
ATOM     15  CB  ASP X   2     -37.796  12.601  -6.970  1.00 46.29 LIG 0.15  C 
BRANCH 15 16
ATOM     16  CG  ASP X   2     -38.891  11.619  -7.392  1.00 46.38 LIG 0.17  C 
ATOM     17 OD1  ASP X   2     -39.657  11.125  -6.538  1.00 47.16 LIG-0.65  OA
ATOM     18 OD2  ASP X   2     -38.985  11.330  -8.597  1.00 46.37 LIG-0.65  OA
ENDBRANCH 15 16
ENDBRANCH 6 15
ENDBRANCH 4 6
ENDBRANCH 1 2
BRANCH 1 19
ATOM     19  CB  ARG X   1     -39.875  17.488  -5.535  1.00 44.35 LIG 0.04  C 
BRANCH 19 20
ATOM     20  CG  ARG X   1     -39.190  18.844  -5.746  1.00 42.92 LIG 0.02  C 
BRANCH 20 21
ATOM     21  CD  ARG X   1     -37.676  18.717  -5.841  1.00 41.32 LIG 0.14  C 
BRANCH 21 22
ATOM     22  NE  ARG X   1     -36.996  19.293  -4.679  1.00 39.81 LIG-0.23  N 
ATOM     23 HE   ARG X   1     -37.004  18.836  -3.950  1.00 39.81 LIG 0.18  HD
ATOM     24  CZ  ARG X   1     -36.365  20.465  -4.658  1.00 39.75 LIG 0.67  C 
ATOM     25  NH1 ARG X   1     -36.306  21.234  -5.747  1.00 38.76 LIG-0.23  N 
ATOM     26  NH2 ARG X   1     -35.786  20.872  -3.538  1.00 38.02 LIG-0.23  N 
ATOM     27 1HH1 ARG X   1     -36.680  20.975  -6.478  1.00 38.76 LIG 0.17  HD
ATOM     28 2HH1 ARG X   1     -35.895  21.989  -5.718  1.00 38.76 LIG 0.17  HD
ATOM     29 1HH2 ARG X   1     -35.820  20.380  -2.834  1.00 38.02 LIG 0.17  HD
ATOM     30 2HH2 ARG X   1     -35.377  21.628  -3.516  1.00 38.02 LIG 0.17  HD
ENDBRANCH 21 22
ENDBRANCH 20 21
ENDBRANCH 19 20
ENDBRANCH 1 19
BRANCH 1 31
ATOM     31  N   ARG X   1     -41.121  15.822  -6.916  1.00 44.45 LIG-0.07  N 
ATOM     32 H3   ARG X   1     -41.280  15.277  -6.230  1.00 44.45 LIG 0.28  HD
ATOM     33 H2   ARG X   1     -41.100  15.350  -7.671  1.00 44.45 LIG 0.28  HD
ATOM     34 H1   ARG X   1     -41.768  16.432  -6.966  1.00 44.45 LIG 0.28  HD
ENDBRANCH 1 31
TORSDOF 12
ENDMDL
MODEL 8
USER: ADFR SOLUTION from run 80
USER: SCORE 13.353705 LL:  -1.197 LR: -12.206 RR:   0.000 FEB:  -8.627
USER: RMSD 2.839440
USER: SEED 79
USER: STATUS no improvement in best in 11 clusters for 5 generations
USER: GENES 14
USER: genes 0 Translation |==|  0.61719 0.59922 0.58653
USER: genes 1 Rotation |==|  0.46948 0.08432 0.43829 0.76920
USER: genes 2 Torsion [N]-CA--C-[N] |==|  0.99657
USER: genes 3 Torsion [C]-N--CA-[C] |==|  0.79354
USER: genes 4 Torsion [N]-CA--C-[N] |==|  0.45550
USER: genes 5 Torsion [C]-N--CA-[CB] |==|  0.33843
USER: genes 6 Torsion [N]-CA--C-[O] |==|  0.68200
USER: genes 7 Torsion [N]-CA--CB-[CG] |==|  0.30432
USER: genes 8 Torsion [CA]-CB--CG-[OD2] |==|  0.27678
USER: genes 9 Torsion [C]-CA--CB-[CG] |==|  0.51789
USER: genes 10 Torsion [CA]-CB--CG-[CD] |==|  0.69543
USER: genes 11 Torsion [CB]-CG--CD-[NE] |==|  0.68704
USER: genes 12 Torsion [CG]-CD--NE-[HE] |==|  0.08040
USER: genes 13 Torsion [C]-CA--N-[H3] |==|  0.78027
ROOT
ATOM      1  CA  ARG X   1     -39.662  15.831  -6.920  1.00 44.42 LIG 0.27  C 
ENDROOT
BRANCH 1 2
ATOM      2  C   ARG X   1     -39.368  14.353  -7.174  1.00 44.91 LIG 0.25  C 
ATOM      3 O    ARG X   1     -38.237  13.989  -7.506  1.00 44.76 LIG-0.27  OA
ATOM      4  N   ASP X   2     -40.383  13.505  -7.009  1.00 45.46 LIG-0.34  N 
ATOM      5 H    ASP X   2     -41.152  13.733  -6.699  1.00 45.46 LIG 0.16  HD
BRANCH 4 6
ATOM      6  CA  ASP X   2     -40.267  12.087  -7.350  1.00 46.23 LIG 0.19  C 
BRANCH 6 7
ATOM      7  C   ASP X   2     -40.291  11.875  -8.869  1.00 46.82 LIG 0.24  C 
ATOM      8  N   ALA X   3     -39.864  10.684  -9.293  1.00 47.39 LIG-0.35  N 
ATOM      9 H    ALA X   3     -39.595  10.063  -8.763  1.00 47.39 LIG 0.16  HD
ATOM     10 O    ASP X   2     -40.692  12.764  -9.626  1.00 46.73 LIG-0.27  OA
BRANCH 8 11
ATOM     11  CA  ALA X   3     -39.811  10.315 -10.707  1.00 47.83 LIG 0.16  C 
ATOM     12  CB  ALA X   3     -38.390   9.934 -11.101  1.00 47.95 LIG 0.04  C 
BRANCH 11 13
ATOM     13  C   ALA X   3     -40.789   9.186 -11.049  1.00 48.01 LIG 0.22  C 
ATOM     14 O    ALA X   3     -40.384   8.079 -11.413  1.00 47.84 LIG-0.29  OA
ENDBRANCH 11 13
ENDBRANCH 8 11
ENDBRANCH 6 7
BRANCH 6 15
ATOM     15  CB  ASP X   2     -41.372  11.274  -6.662  1.00 46.29 LIG 0.15  C 
BRANCH 15 16
ATOM     16  CG  ASP X   2     -42.428  10.749  -7.637  1.00 46.38 LIG 0.17  C 
ATOM     17 OD1  ASP X   2     -43.346  11.497  -8.036  1.00 47.16 LIG-0.65  OA
ATOM     18 OD2  ASP X   2     -42.345   9.566  -8.010  1.00 46.37 LIG-0.65  OA
ENDBRANCH 15 16
ENDBRANCH 6 15
ENDBRANCH 4 6
ENDBRANCH 1 2
BRANCH 1 19
ATOM     19  CB  ARG X   1     -38.731  16.375  -5.819  1.00 44.35 LIG 0.04  C 
BRANCH 19 20
ATOM     20  CG  ARG X   1     -39.011  17.806  -5.346  1.00 42.92 LIG 0.02  C 
BRANCH 20 21
ATOM     21  CD  ARG X   1     -37.931  18.783  -5.790  1.00 41.32 LIG 0.14  C 
BRANCH 21 22
ATOM     22  NE  ARG X   1     -37.156  19.305  -4.663  1.00 39.81 LIG-0.23  N 
ATOM     23 HE   ARG X   1     -37.075  18.799  -3.971  1.00 39.81 LIG 0.18  HD
ATOM     24  CZ  ARG X   1     -36.566  20.497  -4.622  1.00 39.75 LIG 0.67  C 
ATOM     25  NH1 ARG X   1     -36.644  21.341  -5.653  1.00 38.76 LIG-0.23  N 
ATOM     26  NH2 ARG X   1     -35.889  20.850  -3.538  1.00 38.02 LIG-0.23  N 
ATOM     27 1HH1 ARG X   1     -37.081  21.117  -6.359  1.00 38.76 LIG 0.17  HD
ATOM     28 2HH1 ARG X   1     -36.258  22.107  -5.611  1.00 38.76 LIG 0.17  HD
ATOM     29 1HH2 ARG X   1     -35.835  20.311  -2.871  1.00 38.02 LIG 0.17  HD
ATOM     30 2HH2 ARG X   1     -35.505  21.619  -3.503  1.00 38.02 LIG 0.17  HD
ENDBRANCH 21 22
ENDBRANCH 20 21
ENDBRANCH 19 20
ENDBRANCH 1 19
BRANCH 1 31
ATOM     31  N   ARG X   1     -41.095  16.033  -6.552  1.00 44.45 LIG-0.07  N 
ATOM     32 H3   ARG X   1     -41.596  16.015  -7.288  1.00 44.45 LIG 0.28  HD
ATOM     33 H2   ARG X   1     -41.189  16.820  -6.148  1.00 44.45 LIG 0.28  HD
ATOM     34 H1   ARG X   1     -41.354  15.384  -6.001  1.00 44.45 LIG 0.28  HD
ENDBRANCH 1 31
TORSDOF 12
ENDMDL
MODEL 9
USER: ADFR SOLUTION from run 111
USER: SCORE 13.468878 LL:  -1.365 LR: -12.161 RR:   0.000 FEB:  -8.581
USER: RMSD 2.747547
USER: SEED 110
USER: STATUS no improvement in best in 6 clusters for 5 generations
USER: GENES 14
USER: genes 0 Translation |==|  0.57145 0.47006 0.60732
USER: genes 1 Rotation |==|  0.48698 0.40165 0.46201 0.98858
USER: genes 2 Torsion [N]-CA--C-[N] |==|  0.38192
USER: genes 3 Torsion [C]-N--CA-[C] |==|  0.83333
USER: genes 4 Torsion [N]-CA--C-[N] |==|  0.95100
USER: genes 5 Torsion [C]-N--CA-[CB] |==|  0.36614
USER: genes 6 Torsion [N]-CA--C-[O] |==|  0.98629
USER: genes 7 Torsion [N]-CA--CB-[CG] |==|  0.14278
USER: genes 8 Torsion [CA]-CB--CG-[OD2] |==|  0.09805
USER: genes 9 Torsion [C]-CA--CB-[CG] |==|  0.42962
USER: genes 10 Torsion [CA]-CB--CG-[CD] |==|  0.33782
USER: genes 11 Torsion [CB]-CG--CD-[NE] |==|  0.80949
USER: genes 12 Torsion [CG]-CD--NE-[HE] |==|  0.08237
USER: genes 13 Torsion [C]-CA--N-[H3] |==|  0.09166
ROOT
ATOM      1  CA  ARG X   1     -40.383  13.118  -6.562  1.00 44.42 LIG 0.27  C 
ENDROOT
BRANCH 1 2
ATOM      2  C   ARG X   1     -40.668  11.745  -7.168  1.00 44.91 LIG 0.25  C 
ATOM      3 O    ARG X   1     -39.942  10.783  -6.908  1.00 44.76 LIG-0.27  OA
ATOM      4  N   ASP X   2     -41.730  11.656  -7.969  1.00 45.46 LIG-0.34  N 
ATOM      5 H    ASP X   2     -42.291  12.296  -8.094  1.00 45.46 LIG 0.16  HD
BRANCH 4 6
ATOM      6  CA  ASP X   2     -42.032  10.434  -8.716  1.00 46.23 LIG 0.19  C 
BRANCH 6 7
ATOM      7  C   ASP X   2     -40.888  10.067  -9.670  1.00 46.82 LIG 0.24  C 
ATOM      8  N   ALA X   3     -40.025  11.047  -9.942  1.00 47.39 LIG-0.35  N 
ATOM      9 H    ALA X   3     -40.088  11.837  -9.608  1.00 47.39 LIG 0.16  HD
ATOM     10 O    ASP X   2     -40.793   8.928 -10.136  1.00 46.73 LIG-0.27  OA
BRANCH 8 11
ATOM     11  CA  ALA X   3     -38.882  10.876 -10.838  1.00 47.83 LIG 0.16  C 
ATOM     12  CB  ALA X   3     -38.819  12.021 -11.839  1.00 47.95 LIG 0.04  C 
BRANCH 11 13
ATOM     13  C   ALA X   3     -37.560  10.752 -10.073  1.00 48.01 LIG 0.22  C 
ATOM     14 O    ALA X   3     -37.517  10.888  -8.847  1.00 47.84 LIG-0.29  OA
ENDBRANCH 11 13
ENDBRANCH 8 11
ENDBRANCH 6 7
BRANCH 6 15
ATOM     15  CB  ASP X   2     -43.358  10.580  -9.476  1.00 46.29 LIG 0.15  C 
BRANCH 15 16
ATOM     16  CG  ASP X   2     -43.426  11.850 -10.329  1.00 46.38 LIG 0.17  C 
ATOM     17 OD1  ASP X   2     -44.508  12.459 -10.466  1.00 47.16 LIG-0.65  OA
ATOM     18 OD2  ASP X   2     -42.383  12.244 -10.877  1.00 46.37 LIG-0.65  OA
ENDBRANCH 15 16
ENDBRANCH 6 15
ENDBRANCH 4 6
ENDBRANCH 1 2
BRANCH 1 19
ATOM     19  CB  ARG X   1     -39.274  13.830  -7.361  1.00 44.35 LIG 0.04  C 
BRANCH 19 20
ATOM     20  CG  ARG X   1     -39.276  15.362  -7.301  1.00 42.92 LIG 0.02  C 
BRANCH 20 21
ATOM     21  CD  ARG X   1     -37.968  15.920  -6.759  1.00 41.32 LIG 0.14  C 
BRANCH 21 22
ATOM     22  NE  ARG X   1     -37.781  15.617  -5.338  1.00 39.81 LIG-0.23  N 
ATOM     23 HE   ARG X   1     -38.137  14.894  -5.038  1.00 39.81 LIG 0.18  HD
ATOM     24  CZ  ARG X   1     -37.105  16.370  -4.473  1.00 39.75 LIG 0.67  C 
ATOM     25  NH1 ARG X   1     -36.523  17.508  -4.858  1.00 38.76 LIG-0.23  N 
ATOM     26  NH2 ARG X   1     -37.008  15.981  -3.210  1.00 38.02 LIG-0.23  N 
ATOM     27 1HH1 ARG X   1     -36.581  17.765  -5.677  1.00 38.76 LIG 0.17  HD
ATOM     28 2HH1 ARG X   1     -36.089  17.983  -4.288  1.00 38.76 LIG 0.17  HD
ATOM     29 1HH2 ARG X   1     -37.381  15.249  -2.956  1.00 38.02 LIG 0.17  HD
ATOM     30 2HH2 ARG X   1     -36.574  16.462  -2.644  1.00 38.02 LIG 0.17  HD
ENDBRANCH 21 22
ENDBRANCH 20 21
ENDBRANCH 19 20
ENDBRANCH 1 19
BRANCH 1 31
ATOM     31  N   ARG X   1     -40.005  12.997  -5.123  1.00 44.45 LIG-0.07  N 
ATOM     32 H3   ARG X   1     -39.563  12.235  -4.995  1.00 44.45 LIG 0.28  HD
ATOM     33 H2   ARG X   1     -40.740  13.001  -4.621  1.00 44.45 LIG 0.28  HD
ATOM     34 H1   ARG X   1     -39.486  13.683  -4.893  1.00 44.45 LIG 0.28  HD
ENDBRANCH 1 31
TORSDOF 12
ENDMDL
MODEL 10
USER: ADFR SOLUTION from run 77
USER: SCORE 12.613512 LL:  -1.240 LR: -12.088 RR:   0.000 FEB:  -8.509
USER: RMSD 4.727237
USER: SEED 76
USER: STATUS no improvement in best in 9 clusters for 5 generations
USER: GENES 14
USER: genes 0 Translation |==|  0.61460 0.71095 0.52822
USER: genes 1 Rotation |==|  0.53745 0.00585 0.43473 0.51239
USER: genes 2 Torsion [N]-CA--C-[N] |==|  0.85613
USER: genes 3 Torsion [C]-N--CA-[C] |==|  0.70555
USER: genes 4 Torsion [N]-CA--C-[N] |==|  0.71752
USER: genes 5 Torsion [C]-N--CA-[CB] |==|  0.21360
USER: genes 6 Torsion [N]-CA--C-[O] |==|  0.01385
USER: genes 7 Torsion [N]-CA--CB-[CG] |==|  0.50662
USER: genes 8 Torsion [CA]-CB--CG-[OD2] |==|  0.68326
USER: genes 9 Torsion [C]-CA--CB-[CG] |==|  0.25800
USER: genes 10 Torsion [CA]-CB--CG-[CD] |==|  0.92087
USER: genes 11 Torsion [CB]-CG--CD-[NE] |==|  0.54452
USER: genes 12 Torsion [CG]-CD--NE-[HE] |==|  0.23089
USER: genes 13 Torsion [C]-CA--N-[H3] |==|  0.28054
ROOT
ATOM      1  CA  ARG X   1     -39.703  18.177  -7.926  1.00 44.42 LIG 0.27  C 
ENDROOT
BRANCH 1 2
ATOM      2  C   ARG X   1     -39.166  16.757  -7.757  1.00 44.91 LIG 0.25  C 
ATOM      3 O    ARG X   1     -37.951  16.549  -7.707  1.00 44.76 LIG-0.27  OA
ATOM      4  N   ASP X   2     -40.072  15.783  -7.663  1.00 45.46 LIG-0.34  N 
ATOM      5 H    ASP X   2     -40.919  15.921  -7.615  1.00 45.46 LIG 0.16  HD
BRANCH 4 6
ATOM      6  CA  ASP X   2     -39.688  14.372  -7.634  1.00 46.23 LIG 0.19  C 
BRANCH 6 7
ATOM      7  C   ASP X   2     -40.007  13.680  -8.965  1.00 46.82 LIG 0.24  C 
ATOM      8  N   ALA X   3     -41.109  12.927  -8.976  1.00 47.39 LIG-0.35  N 
ATOM      9 H    ALA X   3     -41.620  12.830  -8.291  1.00 47.39 LIG 0.16  HD
ATOM     10 O    ASP X   2     -39.278  13.833  -9.950  1.00 46.73 LIG-0.27  OA
BRANCH 8 11
ATOM     11  CA  ALA X   3     -41.558  12.188 -10.155  1.00 47.83 LIG 0.16  C 
ATOM     12  CB  ALA X   3     -40.717  10.933 -10.345  1.00 47.95 LIG 0.04  C 
BRANCH 11 13
ATOM     13  C   ALA X   3     -43.048  11.838 -10.087  1.00 48.01 LIG 0.22  C 
ATOM     14 O    ALA X   3     -43.758  12.247  -9.164  1.00 47.84 LIG-0.29  OA
ENDBRANCH 11 13
ENDBRANCH 8 11
ENDBRANCH 6 7
BRANCH 6 15
ATOM     15  CB  ASP X   2     -40.367  13.651  -6.462  1.00 46.29 LIG 0.15  C 
BRANCH 15 16
ATOM     16  CG  ASP X   2     -39.959  12.181  -6.341  1.00 46.38 LIG 0.17  C 
ATOM     17 OD1  ASP X   2     -38.782  11.874  -6.057  1.00 47.16 LIG-0.65  OA
ATOM     18 OD2  ASP X   2     -40.828  11.314  -6.538  1.00 46.37 LIG-0.65  OA
ENDBRANCH 15 16
ENDBRANCH 6 15
ENDBRANCH 4 6
ENDBRANCH 1 2
BRANCH 1 19
ATOM     19  CB  ARG X   1     -40.348  18.659  -6.612  1.00 44.35 LIG 0.04  C 
BRANCH 19 20
ATOM     20  CG  ARG X   1     -39.434  19.437  -5.657  1.00 42.92 LIG 0.02  C 
BRANCH 20 21
ATOM     21  CD  ARG X   1     -37.974  19.032  -5.798  1.00 41.32 LIG 0.14  C 
BRANCH 21 22
ATOM     22  NE  ARG X   1     -37.162  19.477  -4.663  1.00 39.81 LIG-0.23  N 
ATOM     23 HE   ARG X   1     -37.163  18.982  -3.959  1.00 39.81 LIG 0.18  HD
ATOM     24  CZ  ARG X   1     -36.422  20.583  -4.632  1.00 39.75 LIG 0.67  C 
ATOM     25  NH1 ARG X   1     -36.367  21.404  -5.683  1.00 38.76 LIG-0.23  N 
ATOM     26  NH2 ARG X   1     -35.730  20.872  -3.540  1.00 38.02 LIG-0.23  N 
ATOM     27 1HH1 ARG X   1     -36.814  21.221  -6.395  1.00 38.76 LIG 0.17  HD
ATOM     28 2HH1 ARG X   1     -35.885  22.114  -5.648  1.00 38.76 LIG 0.17  HD
ATOM     29 1HH2 ARG X   1     -35.761  20.347  -2.860  1.00 38.02 LIG 0.17  HD
ATOM     30 2HH2 ARG X   1     -35.250  21.585  -3.511  1.00 38.02 LIG 0.17  HD
ENDBRANCH 21 22
ENDBRANCH 20 21
ENDBRANCH 19 20
ENDBRANCH 1 19
BRANCH 1 31
ATOM     31  N   ARG X   1     -40.679  18.247  -9.053  1.00 44.45 LIG-0.07  N 
ATOM     32 H3   ARG X   1     -41.508  18.247  -8.729  1.00 44.45 LIG 0.28  HD
ATOM     33 H2   ARG X   1     -40.569  17.542  -9.586  1.00 44.45 LIG 0.28  HD
ATOM     34 H1   ARG X   1     -40.543  18.994  -9.519  1.00 44.45 LIG 0.28  HD
ENDBRANCH 1 31
TORSDOF 12
ENDMDL
MODEL 11
USER: ADFR SOLUTION from run 115
USER: SCORE 12.743891 LL:  -1.375 LR: -12.052 RR:   0.000 FEB:  -8.472
USER: RMSD 3.766239
USER: SEED 114
USER: STATUS no improvement in best in 3 clusters for 5 generations
USER: GENES 14
USER: genes 0 Translation |==|  0.59881 0.60082 0.56376
USER: genes 1 Rotation |==|  0.55222 0.20383 0.45843 0.89728
USER: genes 2 Torsion [N]-CA--C-[N] |==|  0.09428
USER: genes 3 Torsion [C]-N--CA-[C] |==|  0.54791
USER: genes 4 Torsion [N]-CA--C-[N] |==|  0.56665
USER: genes 5 Torsion [C]-N--CA-[CB] |==|  0.49204
USER: genes 6 Torsion [N]-CA--C-[O] |==|  0.45594
USER: genes 7 Torsion [N]-CA--CB-[CG] |==|  0.12276
USER: genes 8 Torsion [CA]-CB--CG-[OD2] |==|  0.11964
USER: genes 9 Torsion [C]-CA--CB-[CG] |==|  0.56608
USER: genes 10 Torsion [CA]-CB--CG-[CD] |==|  0.62461
USER: genes 11 Torsion [CB]-CG--CD-[NE] |==|  0.66931
USER: genes 12 Torsion [CG]-CD--NE-[HE] |==|  0.99866
USER: genes 13 Torsion [C]-CA--N-[H3] |==|  0.81950
ROOT
ATOM      1  CA  ARG X   1     -39.952  15.864  -7.313  1.00 44.42 LIG 0.27  C 
ENDROOT
BRANCH 1 2
ATOM      2  C   ARG X   1     -39.513  14.642  -8.118  1.00 44.91 LIG 0.25  C 
ATOM      3 O    ARG X   1     -38.400  14.610  -8.649  1.00 44.76 LIG-0.27  OA
ATOM      4  N   ASP X   2     -40.385  13.637  -8.200  1.00 45.46 LIG-0.34  N 
ATOM      5 H    ASP X   2     -41.128  13.611  -7.769  1.00 45.46 LIG 0.16  HD
BRANCH 4 6
ATOM      6  CA  ASP X   2     -40.140  12.471  -9.050  1.00 46.23 LIG 0.19  C 
BRANCH 6 7
ATOM      7  C   ASP X   2     -41.433  11.685  -9.303  1.00 46.82 LIG 0.24  C 
ATOM      8  N   ALA X   3     -41.275  10.398  -9.615  1.00 47.39 LIG-0.35  N 
ATOM      9 H    ALA X   3     -40.506  10.016  -9.669  1.00 47.39 LIG 0.16  HD
ATOM     10 O    ASP X   2     -42.536  12.233  -9.211  1.00 46.73 LIG-0.27  OA
BRANCH 8 11
ATOM     11  CA  ALA X   3     -42.397   9.503  -9.897  1.00 47.83 LIG 0.16  C 
ATOM     12  CB  ALA X   3     -41.888   8.122 -10.287  1.00 47.95 LIG 0.04  C 
BRANCH 11 13
ATOM     13  C   ALA X   3     -43.373   9.408  -8.720  1.00 48.01 LIG 0.22  C 
ATOM     14 O    ALA X   3     -44.508   8.945  -8.867  1.00 47.84 LIG-0.29  OA
ENDBRANCH 11 13
ENDBRANCH 8 11
ENDBRANCH 6 7
BRANCH 6 15
ATOM     15  CB  ASP X   2     -39.060  11.571  -8.434  1.00 46.29 LIG 0.15  C 
BRANCH 15 16
ATOM     16  CG  ASP X   2     -39.242  11.356  -6.929  1.00 46.38 LIG 0.17  C 
ATOM     17 OD1  ASP X   2     -38.256  11.400  -6.163  1.00 47.16 LIG-0.65  OA
ATOM     18 OD2  ASP X   2     -40.388  11.135  -6.503  1.00 46.37 LIG-0.65  OA
ENDBRANCH 15 16
ENDBRANCH 6 15
ENDBRANCH 4 6
ENDBRANCH 1 2
BRANCH 1 19
ATOM     19  CB  ARG X   1     -38.718  16.648  -6.826  1.00 44.35 LIG 0.04  C 
BRANCH 19 20
ATOM     20  CG  ARG X   1     -38.923  17.527  -5.586  1.00 42.92 LIG 0.02  C 
BRANCH 20 21
ATOM     21  CD  ARG X   1     -38.299  18.906  -5.746  1.00 41.32 LIG 0.14  C 
BRANCH 21 22
ATOM     22  NE  ARG X   1     -37.262  19.166  -4.745  1.00 39.81 LIG-0.23  N 
ATOM     23 HE   ARG X   1     -37.103  18.547  -4.170  1.00 39.81 LIG 0.18  HD
ATOM     24  CZ  ARG X   1     -36.545  20.284  -4.653  1.00 39.75 LIG 0.67  C 
ATOM     25  NH1 ARG X   1     -36.730  21.294  -5.506  1.00 38.76 LIG-0.23  N 
ATOM     26  NH2 ARG X   1     -35.632  20.394  -3.698  1.00 38.02 LIG-0.23  N 
ATOM     27 1HH1 ARG X   1     -37.321  21.228  -6.128  1.00 38.76 LIG 0.17  HD
ATOM     28 2HH1 ARG X   1     -36.259  22.009  -5.434  1.00 38.76 LIG 0.17  HD
ATOM     29 1HH2 ARG X   1     -35.508  19.747  -3.146  1.00 38.02 LIG 0.17  HD
ATOM     30 2HH2 ARG X   1     -35.165  21.113  -3.631  1.00 38.02 LIG 0.17  HD
ENDBRANCH 21 22
ENDBRANCH 20 21
ENDBRANCH 19 20
ENDBRANCH 1 19
BRANCH 1 31
ATOM     31  N   ARG X   1     -40.814  15.463  -6.163  1.00 44.45 LIG-0.07  N 
ATOM     32 H3   ARG X   1     -41.572  15.110  -6.469  1.00 44.45 LIG 0.28  HD
ATOM     33 H2   ARG X   1     -41.000  16.179  -5.667  1.00 44.45 LIG 0.28  HD
ATOM     34 H1   ARG X   1     -40.386  14.861  -5.666  1.00 44.45 LIG 0.28  HD
ENDBRANCH 1 31
TORSDOF 12
ENDMDL
MODEL 12
USER: ADFR SOLUTION from run 197
USER: SCORE 12.247423 LL:  -1.030 LR: -12.035 RR:   0.000 FEB:  -8.456
USER: RMSD 3.121797
USER: SEED 196
USER: STATUS no improvement in best in 6 clusters for 5 generations
USER: GENES 14
USER: genes 0 Translation |==|  0.59900 0.44856 0.58501
USER: genes 1 Rotation |==|  0.44705 0.23043 0.22811 0.81718
USER: genes 2 Torsion [N]-CA--C-[N] |==|  0.03994
USER: genes 3 Torsion [C]-N--CA-[C] |==|  0.18602
USER: genes 4 Torsion [N]-CA--C-[N] |==|  0.57235
USER: genes 5 Torsion [C]-N--CA-[CB] |==|  0.30075
USER: genes 6 Torsion [N]-CA--C-[O] |==|  0.19509
USER: genes 7 Torsion [N]-CA--CB-[CG] |==|  0.60252
USER: genes 8 Torsion [CA]-CB--CG-[OD2] |==|  0.63560
USER: genes 9 Torsion [C]-CA--CB-[CG] |==|  0.39456
USER: genes 10 Torsion [CA]-CB--CG-[CD] |==|  0.16948
USER: genes 11 Torsion [CB]-CG--CD-[NE] |==|  0.60840
USER: genes 12 Torsion [CG]-CD--NE-[HE] |==|  0.05721
USER: genes 13 Torsion [C]-CA--N-[H3] |==|  0.92476
ROOT
ATOM      1  CA  ARG X   1     -39.949  12.667  -6.947  1.00 44.42 LIG 0.27  C 
ENDROOT
BRANCH 1 2
ATOM      2  C   ARG X   1     -40.693  11.903  -8.041  1.00 44.91 LIG 0.25  C 
ATOM      3 O    ARG X   1     -40.070  11.346  -8.948  1.00 44.76 LIG-0.27  OA
ATOM      4  N   ASP X   2     -42.022  11.872  -7.948  1.00 45.46 LIG-0.34  N 
ATOM      5 H    ASP X   2     -42.463  12.185  -7.280  1.00 45.46 LIG 0.16  HD
BRANCH 4 6
ATOM      6  CA  ASP X   2     -42.855  11.290  -9.002  1.00 46.23 LIG 0.19  C 
BRANCH 6 7
ATOM      7  C   ASP X   2     -42.646   9.774  -9.105  1.00 46.82 LIG 0.24  C 
ATOM      8  N   ALA X   3     -42.896   9.236 -10.299  1.00 47.39 LIG-0.35  N 
ATOM      9 H    ALA X   3     -43.154   9.695 -10.979  1.00 47.39 LIG 0.16  HD
ATOM     10 O    ASP X   2     -42.262   9.120  -8.130  1.00 46.73 LIG-0.27  OA
BRANCH 8 11
ATOM     11  CA  ALA X   3     -42.758   7.806 -10.573  1.00 47.83 LIG 0.16  C 
ATOM     12  CB  ALA X   3     -44.129   7.164 -10.737  1.00 47.95 LIG 0.04  C 
BRANCH 11 13
ATOM     13  C   ALA X   3     -41.882   7.533 -11.800  1.00 48.01 LIG 0.22  C 
ATOM     14 O    ALA X   3     -40.665   7.737 -11.773  1.00 47.84 LIG-0.29  OA
ENDBRANCH 11 13
ENDBRANCH 8 11
ENDBRANCH 6 7
BRANCH 6 15
ATOM     15  CB  ASP X   2     -42.582  11.977 -10.347  1.00 46.29 LIG 0.15  C 
BRANCH 15 16
ATOM     16  CG  ASP X   2     -43.840  12.146 -11.203  1.00 46.38 LIG 0.17  C 
ATOM     17 OD1  ASP X   2     -44.882  12.622 -10.705  1.00 47.16 LIG-0.65  OA
ATOM     18 OD2  ASP X   2     -43.790  11.792 -12.393  1.00 46.37 LIG-0.65  OA
ENDBRANCH 15 16
ENDBRANCH 6 15
ENDBRANCH 4 6
ENDBRANCH 1 2
BRANCH 1 19
ATOM     19  CB  ARG X   1     -38.707  11.873  -6.498  1.00 44.35 LIG 0.04  C 
BRANCH 19 20
ATOM     20  CG  ARG X   1     -37.455  12.701  -6.179  1.00 42.92 LIG 0.02  C 
BRANCH 20 21
ATOM     21  CD  ARG X   1     -37.687  13.680  -5.037  1.00 41.32 LIG 0.14  C 
BRANCH 21 22
ATOM     22  NE  ARG X   1     -37.028  14.968  -5.267  1.00 39.81 LIG-0.23  N 
ATOM     23 HE   ARG X   1     -36.821  15.167  -6.078  1.00 39.81 LIG 0.18  HD
ATOM     24  CZ  ARG X   1     -36.722  15.855  -4.323  1.00 39.75 LIG 0.67  C 
ATOM     25  NH1 ARG X   1     -37.008  15.622  -3.040  1.00 38.76 LIG-0.23  N 
ATOM     26  NH2 ARG X   1     -36.125  16.988  -4.664  1.00 38.02 LIG-0.23  N 
ATOM     27 1HH1 ARG X   1     -37.396  14.888  -2.813  1.00 38.76 LIG 0.17  HD
ATOM     28 2HH1 ARG X   1     -36.804  16.205  -2.442  1.00 38.76 LIG 0.17  HD
ATOM     29 1HH2 ARG X   1     -35.939  17.144  -5.489  1.00 38.02 LIG 0.17  HD
ATOM     30 2HH2 ARG X   1     -35.924  17.566  -4.060  1.00 38.02 LIG 0.17  HD
ENDBRANCH 21 22
ENDBRANCH 20 21
ENDBRANCH 19 20
ENDBRANCH 1 19
BRANCH 1 31
ATOM     31  N   ARG X   1     -40.847  12.947  -5.788  1.00 44.45 LIG-0.07  N 
ATOM     32 H3   ARG X   1     -41.691  12.987  -6.069  1.00 44.45 LIG 0.28  HD
ATOM     33 H2   ARG X   1     -40.620  13.724  -5.417  1.00 44.45 LIG 0.28  HD
ATOM     34 H1   ARG X   1     -40.765  12.297  -5.185  1.00 44.45 LIG 0.28  HD
ENDBRANCH 1 31
TORSDOF 12
ENDMDL
MODEL 13
USER: ADFR SOLUTION from run 121
USER: SCORE 12.442810 LL:  -0.911 LR: -12.022 RR:   0.000 FEB:  -8.442
USER: RMSD 4.835131
USER: SEED 120
USER: STATUS no improvement in best in 6 clusters for 5 generations
USER: GENES 14
USER: genes 0 Translation |==|  0.59698 0.63221 0.59534
USER: genes 1 Rotation |==|  0.52842 0.07651 0.44468 0.75843
USER: genes 2 Torsion [N]-CA--C-[N] |==|  0.89354
USER: genes 3 Torsion [C]-N--CA-[C] |==|  0.63269
USER: genes 4 Torsion [N]-CA--C-[N] |==|  0.17300
USER: genes 5 Torsion [C]-N--CA-[CB] |==|  0.53299
USER: genes 6 Torsion [N]-CA--C-[O] |==|  0.64486
USER: genes 7 Torsion [N]-CA--CB-[CG] |==|  0.58566
USER: genes 8 Torsion [CA]-CB--CG-[OD2] |==|  0.33346
USER: genes 9 Torsion [C]-CA--CB-[CG] |==|  0.15456
USER: genes 10 Torsion [CA]-CB--CG-[CD] |==|  0.29361
USER: genes 11 Torsion [CB]-CG--CD-[NE] |==|  0.30072
USER: genes 12 Torsion [CG]-CD--NE-[HE] |==|  0.97189
USER: genes 13 Torsion [C]-CA--N-[H3] |==|  0.12365
ROOT
ATOM      1  CA  ARG X   1     -39.981  16.523  -6.768  1.00 44.42 LIG 0.27  C 
ENDROOT
BRANCH 1 2
ATOM      2  C   ARG X   1     -39.367  15.171  -7.127  1.00 44.91 LIG 0.25  C 
ATOM      3 O    ARG X   1     -38.484  15.092  -7.984  1.00 44.76 LIG-0.27  OA
ATOM      4  N   ASP X   2     -39.831  14.111  -6.464  1.00 45.46 LIG-0.34  N 
ATOM      5 H    ASP X   2     -40.385  14.161  -5.809  1.00 45.46 LIG 0.16  HD
BRANCH 4 6
ATOM      6  CA  ASP X   2     -39.423  12.748  -6.807  1.00 46.23 LIG 0.19  C 
BRANCH 6 7
ATOM      7  C   ASP X   2     -40.636  11.815  -6.916  1.00 46.82 LIG 0.24  C 
ATOM      8  N   ALA X   3     -41.521  12.124  -7.865  1.00 47.39 LIG-0.35  N 
ATOM      9 H    ALA X   3     -41.429  12.795  -8.394  1.00 47.39 LIG 0.16  HD
ATOM     10 O    ASP X   2     -40.757  10.843  -6.163  1.00 46.73 LIG-0.27  OA
BRANCH 8 11
ATOM     11  CA  ALA X   3     -42.739  11.349  -8.102  1.00 47.83 LIG 0.16  C 
ATOM     12  CB  ALA X   3     -43.382  11.766  -9.418  1.00 47.95 LIG 0.04  C 
BRANCH 11 13
ATOM     13  C   ALA X   3     -42.479   9.839  -8.080  1.00 48.01 LIG 0.22  C 
ATOM     14 O    ALA X   3     -42.848   9.114  -9.008  1.00 47.84 LIG-0.29  OA
ENDBRANCH 11 13
ENDBRANCH 8 11
ENDBRANCH 6 7
BRANCH 6 15
ATOM     15  CB  ASP X   2     -38.408  12.215  -5.788  1.00 46.29 LIG 0.15  C 
BRANCH 15 16
ATOM     16  CG  ASP X   2     -37.411  11.224  -6.393  1.00 46.38 LIG 0.17  C 
ATOM     17 OD1  ASP X   2     -37.815  10.162  -6.913  1.00 47.16 LIG-0.65  OA
ATOM     18 OD2  ASP X   2     -36.202  11.505  -6.344  1.00 46.37 LIG-0.65  OA
ENDBRANCH 15 16
ENDBRANCH 6 15
ENDBRANCH 4 6
ENDBRANCH 1 2
BRANCH 1 19
ATOM     19  CB  ARG X   1     -39.262  17.122  -5.544  1.00 44.35 LIG 0.04  C 
BRANCH 19 20
ATOM     20  CG  ARG X   1     -37.742  17.281  -5.664  1.00 42.92 LIG 0.02  C 
BRANCH 20 21
ATOM     21  CD  ARG X   1     -37.327  18.732  -5.866  1.00 41.32 LIG 0.14  C 
BRANCH 21 22
ATOM     22  NE  ARG X   1     -36.683  19.297  -4.678  1.00 39.81 LIG-0.23  N 
ATOM     23 HE   ARG X   1     -36.715  18.834  -3.953  1.00 39.81 LIG 0.18  HD
ATOM     24  CZ  ARG X   1     -36.054  20.468  -4.628  1.00 39.75 LIG 0.67  C 
ATOM     25  NH1 ARG X   1     -35.960  21.247  -5.708  1.00 38.76 LIG-0.23  N 
ATOM     26  NH2 ARG X   1     -35.510  20.866  -3.487  1.00 38.02 LIG-0.23  N 
ATOM     27 1HH1 ARG X   1     -36.311  20.994  -6.452  1.00 38.76 LIG 0.17  HD
ATOM     28 2HH1 ARG X   1     -35.550  22.001  -5.660  1.00 38.76 LIG 0.17  HD
ATOM     29 1HH2 ARG X   1     -35.566  20.369  -2.788  1.00 38.02 LIG 0.17  HD
ATOM     30 2HH2 ARG X   1     -35.101  21.622  -3.446  1.00 38.02 LIG 0.17  HD
ENDBRANCH 21 22
ENDBRANCH 20 21
ENDBRANCH 19 20
ENDBRANCH 1 19
BRANCH 1 31
ATOM     31  N   ARG X   1     -41.446  16.393  -6.514  1.00 44.45 LIG-0.07  N 
ATOM     32 H3   ARG X   1     -41.596  15.678  -6.005  1.00 44.45 LIG 0.28  HD
ATOM     33 H2   ARG X   1     -41.875  16.301  -7.288  1.00 44.45 LIG 0.28  HD
ATOM     34 H1   ARG X   1     -41.740  17.122  -6.096  1.00 44.45 LIG 0.28  HD
ENDBRANCH 1 31
TORSDOF 12
ENDMDL
