MODEL 1
USER: ADFR SOLUTION from run 15
USER: SCORE 15.177319 LL:  -1.630 LR: -16.956 RR:   0.000 FEB: -12.183
USER: RMSD 8.333641
USER: SEED 871077
USER: STATUS no improvement in best in 9 clusters for 5 generations
USER: GENES 18
USER: genes 0 Translation |==|  0.56731 0.70917 0.68340
USER: genes 1 Rotation |==|  0.11278 0.53075 0.75079 0.69032
USER: genes 2 Torsion [C]-CA--CB-[CG] |==|  0.45195
USER: genes 3 Torsion [CA]-CB--CG-[CD] |==|  0.29446
USER: genes 4 Torsion [CB]-CG--CD-[NE] |==|  0.01653
USER: genes 5 Torsion [CG]-CD--NE-[HE] |==|  0.79626
USER: genes 6 Torsion [N]-CA--C-[N] |==|  0.33920
USER: genes 7 Torsion [C]-N--CA-[CB] |==|  0.39346
USER: genes 8 Torsion [N]-CA--C-[N] |==|  0.56601
USER: genes 9 Torsion [C]-N--CA-[CB] |==|  0.86916
USER: genes 10 Torsion [N]-CA--C-[OXT] |==|  0.68285
USER: genes 11 Torsion [CB]-CA--N-[C] |==|  0.36658
USER: genes 12 Torsion [N]-C--CA-[N] |==|  0.87166
USER: genes 13 Torsion [C]-CA--CB-[CG] |==|  0.21534
USER: genes 14 Torsion [CA]-CB--CG-[CD] |==|  0.36643
USER: genes 15 Torsion [CB]-CG--CD-[NE] |==|  0.67869
USER: genes 16 Torsion [CG]-CD--NE-[HE] |==|  0.17897
USER: genes 17 Torsion [C]-CA--N-[H3] |==|  0.45614
ROOT
ATOM      1  CA  ARG X   2     -29.806  -0.829  -6.150  1.00 56.86 LIG 0.18  C 
ENDROOT
BRANCH 1 2
ATOM      2  CB  ARG X   2     -29.383   0.068  -4.983  1.00 56.93 LIG 0.04  C 
BRANCH 2 3
ATOM      3  CG  ARG X   2     -29.970   1.471  -5.029  1.00 58.33 LIG 0.02  C 
BRANCH 3 4
ATOM      4  CD  ARG X   2     -31.068   1.664  -4.011  1.00 61.73 LIG 0.14  C 
BRANCH 4 5
ATOM      5  NE  ARG X   2     -31.234   0.520  -3.116  1.00 63.99 LIG-0.23  N 
ATOM      6 HE   ARG X   2     -31.598  -0.188  -3.438  1.00 63.99 LIG 0.18  HD
ATOM      7  CZ  ARG X   2     -30.860   0.496  -1.834  1.00 64.82 LIG 0.67  C 
ATOM      8  NH1 ARG X   2     -30.277   1.549  -1.266  1.00 63.71 LIG-0.23  N 
ATOM      9  NH2 ARG X   2     -31.068  -0.599  -1.115  1.00 65.19 LIG-0.23  N 
ATOM     10 2HH1 ARG X   2     -30.043   1.516  -0.439  1.00 63.71 LIG 0.17  HD
ATOM     11 1HH1 ARG X   2     -30.134   2.262  -1.726  1.00 63.71 LIG 0.17  HD
ATOM     12 2HH2 ARG X   2     -30.831  -0.622  -0.288  1.00 65.19 LIG 0.17  HD
ATOM     13 1HH2 ARG X   2     -31.441  -1.286  -1.474  1.00 65.19 LIG 0.17  HD
ENDBRANCH 4 5
ENDBRANCH 3 4
ENDBRANCH 2 3
ENDBRANCH 1 2
BRANCH 1 14
ATOM     14  C   ARG X   2     -28.873  -2.024  -6.266  1.00 57.66 LIG 0.24  C 
ATOM     15  N   ALA X   3     -28.151  -2.113  -7.385  1.00 58.84 LIG-0.35  N 
ATOM     16 H    ALA X   3     -28.215  -1.557  -8.038  1.00 58.84 LIG 0.16  HD
ATOM     17 O    ARG X   2     -28.818  -2.849  -5.350  1.00 57.54 LIG-0.27  OA
BRANCH 15 18
ATOM     18  CA  ALA X   3     -27.169  -3.184  -7.600  1.00 60.16 LIG 0.17  C 
ATOM     19  CB  ALA X   3     -27.185  -3.666  -9.060  1.00 60.10 LIG 0.04  C 
BRANCH 18 20
ATOM     20  C   ALA X   3     -25.769  -2.731  -7.187  1.00 60.84 LIG 0.24  C 
ATOM     21  N   ALA X   4     -24.763  -3.387  -7.773  1.00 61.66 LIG-0.34  N 
ATOM     22 H    ALA X   4     -24.896  -3.993  -8.368  1.00 61.66 LIG 0.16  HD
ATOM     23 O    ALA X   3     -25.615  -1.831  -6.351  1.00 61.07 LIG-0.27  OA
BRANCH 21 24
ATOM     24  CA  ALA X   4     -23.330  -3.167  -7.490  1.00 62.39 LIG 0.18  C 
ATOM     25  CB  ALA X   4     -22.981  -1.666  -7.482  1.00 62.29 LIG 0.04  C 
BRANCH 24 26
ATOM     26  C   ALA X   4     -22.826  -3.869  -6.220  1.00 62.72 LIG 0.20  C 
ATOM     27 OXT  ALA X   4     -22.442  -3.224  -5.240  1.00 62.96 LIG-0.65  OA
ATOM     28 O    ALA X   4     -22.775  -5.099  -6.136  1.00 63.08 LIG-0.65  OA
ENDBRANCH 24 26
ENDBRANCH 21 24
ENDBRANCH 18 20
ENDBRANCH 15 18
ENDBRANCH 1 14
BRANCH 1 29
ATOM     29  N   ARG X   2     -31.168  -1.313  -5.957  1.00 55.62 LIG-0.35  N 
ATOM     30 H    ARG X   2     -31.320  -1.634  -5.174  1.00 55.62 LIG 0.16  HD
ATOM     31  C   ARG X   1     -32.083  -1.255  -6.924  1.00 54.36 LIG 0.25  C 
ATOM     32 O    ARG X   1     -31.866  -0.743  -8.024  1.00 54.20 LIG-0.27  OA
BRANCH 31 33
ATOM     33  CA  ARG X   1     -33.438  -1.879  -6.608  1.00 53.49 LIG 0.27  C 
BRANCH 33 34
ATOM     34  CB  ARG X   1     -34.230  -0.936  -5.695  1.00 53.17 LIG 0.04  C 
BRANCH 34 35
ATOM     35  CG  ARG X   1     -34.871   0.260  -6.378  1.00 51.16 LIG 0.02  C 
BRANCH 35 36
ATOM     36  CD  ARG X   1     -36.318   0.424  -5.976  1.00 48.38 LIG 0.14  C 
BRANCH 36 37
ATOM     37  NE  ARG X   1     -37.229   0.243  -7.104  1.00 47.01 LIG-0.23  N 
ATOM     38 HE   ARG X   1     -37.258  -0.535  -7.470  1.00 47.01 LIG 0.18  HD
ATOM     39  CZ  ARG X   1     -38.022   1.190  -7.609  1.00 46.53 LIG 0.67  C 
ATOM     40  NH2 ARG X   1     -38.821   0.901  -8.632  1.00 45.07 LIG-0.23  N 
ATOM     41  NH1 ARG X   1     -38.030   2.420  -7.101  1.00 44.67 LIG-0.23  N 
ATOM     42 2HH2 ARG X   1     -39.334   1.507  -8.962  1.00 45.07 LIG 0.17  HD
ATOM     43 1HH2 ARG X   1     -38.825   0.108  -8.963  1.00 45.07 LIG 0.17  HD
ATOM     44 2HH1 ARG X   1     -38.545   3.021  -7.437  1.00 44.67 LIG 0.17  HD
ATOM     45 1HH1 ARG X   1     -37.519   2.614  -6.437  1.00 44.67 LIG 0.17  HD
ENDBRANCH 36 37
ENDBRANCH 35 36
ENDBRANCH 34 35
ENDBRANCH 33 34
BRANCH 33 46
ATOM     46  N   ARG X   1     -33.288  -3.224  -5.976  1.00 53.50 LIG-0.07  N 
ATOM     47 H1   ARG X   1     -33.064  -3.821  -6.597  1.00 53.50 LIG 0.28  HD
ATOM     48 H3   ARG X   1     -34.058  -3.462  -5.599  1.00 53.50 LIG 0.28  HD
ATOM     49 H2   ARG X   1     -32.652  -3.190  -5.354  1.00 53.50 LIG 0.28  HD
ENDBRANCH 33 46
ENDBRANCH 31 33
ENDBRANCH 1 29
TORSDOF 16
ENDMDL
MODEL 2
USER: ADFR SOLUTION from run 139
USER: SCORE 17.166646 LL:  -1.669 LR: -16.889 RR:   0.000 FEB: -12.116
USER: RMSD 5.806051
USER: SEED 138
USER: STATUS no improvement in best in 7 clusters for 5 generations
USER: GENES 18
USER: genes 0 Translation |==|  0.60696 0.48938 0.59551
USER: genes 1 Rotation |==|  0.60319 0.45519 0.46252 0.98574
USER: genes 2 Torsion [C]-CA--CB-[CG] |==|  0.21346
USER: genes 3 Torsion [CA]-CB--CG-[CD] |==|  0.76026
USER: genes 4 Torsion [CB]-CG--CD-[NE] |==|  0.23638
USER: genes 5 Torsion [CG]-CD--NE-[HE] |==|  0.92020
USER: genes 6 Torsion [N]-CA--C-[N] |==|  0.25662
USER: genes 7 Torsion [C]-N--CA-[CB] |==|  0.12869
USER: genes 8 Torsion [N]-CA--C-[N] |==|  0.12720
USER: genes 9 Torsion [C]-N--CA-[CB] |==|  0.15954
USER: genes 10 Torsion [N]-CA--C-[OXT] |==|  0.67002
USER: genes 11 Torsion [CB]-CA--N-[C] |==|  0.48464
USER: genes 12 Torsion [N]-C--CA-[N] |==|  0.49484
USER: genes 13 Torsion [C]-CA--CB-[CG] |==|  0.59520
USER: genes 14 Torsion [CA]-CB--CG-[CD] |==|  0.69285
USER: genes 15 Torsion [CB]-CG--CD-[NE] |==|  0.51470
USER: genes 16 Torsion [CG]-CD--NE-[HE] |==|  0.35808
USER: genes 17 Torsion [C]-CA--N-[H3] |==|  0.80349
ROOT
ATOM      1  CA  ARG X   2     -29.062  -6.104  -7.863  1.00 56.86 LIG 0.18  C 
ENDROOT
BRANCH 1 2
ATOM      2  CB  ARG X   2     -29.710  -7.335  -8.504  1.00 56.93 LIG 0.04  C 
BRANCH 2 3
ATOM      3  CG  ARG X   2     -28.718  -8.372  -9.007  1.00 58.33 LIG 0.02  C 
BRANCH 3 4
ATOM      4  CD  ARG X   2     -28.248  -8.079 -10.411  1.00 61.73 LIG 0.14  C 
BRANCH 4 5
ATOM      5  NE  ARG X   2     -27.123  -7.145 -10.460  1.00 63.99 LIG-0.23  N 
ATOM      6 HE   ARG X   2     -27.057  -6.568  -9.827  1.00 63.99 LIG 0.18  HD
ATOM      7  CZ  ARG X   2     -26.193  -7.125 -11.418  1.00 64.82 LIG 0.67  C 
ATOM      8  NH1 ARG X   2     -26.220  -7.995 -12.424  1.00 63.71 LIG-0.23  N 
ATOM      9  NH2 ARG X   2     -25.220  -6.224 -11.362  1.00 65.19 LIG-0.23  N 
ATOM     10 2HH1 ARG X   2     -25.612  -7.967 -13.033  1.00 63.71 LIG 0.17  HD
ATOM     11 1HH1 ARG X   2     -26.844  -8.585 -12.466  1.00 63.71 LIG 0.17  HD
ATOM     12 2HH2 ARG X   2     -24.617  -6.204 -11.975  1.00 65.19 LIG 0.17  HD
ATOM     13 1HH2 ARG X   2     -25.193  -5.660 -10.713  1.00 65.19 LIG 0.17  HD
ENDBRANCH 4 5
ENDBRANCH 3 4
ENDBRANCH 2 3
ENDBRANCH 1 2
BRANCH 1 14
ATOM     14  C   ARG X   2     -28.514  -5.174  -8.934  1.00 57.66 LIG 0.24  C 
ATOM     15  N   ALA X   3     -27.401  -4.504  -8.632  1.00 58.84 LIG-0.35  N 
ATOM     16 H    ALA X   3     -27.011  -4.548  -7.867  1.00 58.84 LIG 0.16  HD
ATOM     17 O    ARG X   2     -29.102  -5.071 -10.015  1.00 57.54 LIG-0.27  OA
BRANCH 15 18
ATOM     18  CA  ALA X   3     -26.734  -3.618  -9.595  1.00 60.16 LIG 0.17  C 
ATOM     19  CB  ALA X   3     -27.746  -2.697 -10.296  1.00 60.10 LIG 0.04  C 
BRANCH 18 20
ATOM     20  C   ALA X   3     -25.631  -2.805  -8.916  1.00 60.84 LIG 0.24  C 
ATOM     21  N   ALA X   4     -24.827  -3.503  -8.108  1.00 61.66 LIG-0.34  N 
ATOM     22 H    ALA X   4     -24.903  -4.354  -8.009  1.00 61.66 LIG 0.16  HD
ATOM     23 O    ALA X   3     -25.533  -1.587  -9.108  1.00 61.07 LIG-0.27  OA
BRANCH 21 24
ATOM     24  CA  ALA X   4     -23.732  -2.927  -7.301  1.00 62.39 LIG 0.18  C 
ATOM     25  CB  ALA X   4     -24.250  -1.830  -6.351  1.00 62.29 LIG 0.04  C 
BRANCH 24 26
ATOM     26  C   ALA X   4     -22.890  -3.969  -6.551  1.00 62.72 LIG 0.20  C 
ATOM     27 OXT  ALA X   4     -22.818  -3.971  -5.318  1.00 62.96 LIG-0.65  OA
ATOM     28 O    ALA X   4     -22.244  -4.834  -7.151  1.00 63.08 LIG-0.65  OA
ENDBRANCH 24 26
ENDBRANCH 21 24
ENDBRANCH 18 20
ENDBRANCH 15 18
ENDBRANCH 1 14
BRANCH 1 29
ATOM     29  N   ARG X   2     -30.035  -5.373  -7.059  1.00 55.62 LIG-0.35  N 
ATOM     30 H    ARG X   2     -30.837  -5.678  -7.113  1.00 55.62 LIG 0.16  HD
ATOM     31  C   ARG X   1     -29.690  -4.325  -6.313  1.00 54.36 LIG 0.25  C 
ATOM     32 O    ARG X   1     -28.527  -3.932  -6.203  1.00 54.20 LIG-0.27  OA
BRANCH 31 33
ATOM     33  CA  ARG X   1     -30.827  -3.604  -5.595  1.00 53.49 LIG 0.27  C 
BRANCH 33 34
ATOM     34  CB  ARG X   1     -31.837  -3.097  -6.629  1.00 53.17 LIG 0.04  C 
BRANCH 34 35
ATOM     35  CG  ARG X   1     -32.518  -1.779  -6.296  1.00 51.16 LIG 0.02  C 
BRANCH 35 36
ATOM     36  CD  ARG X   1     -33.982  -1.971  -5.978  1.00 48.38 LIG 0.14  C 
BRANCH 36 37
ATOM     37  NE  ARG X   1     -34.676  -0.700  -5.777  1.00 47.01 LIG-0.23  N 
ATOM     38 HE   ARG X   1     -35.402  -0.571  -6.220  1.00 47.01 LIG 0.18  HD
ATOM     39  CZ  ARG X   1     -34.270   0.275  -4.961  1.00 46.53 LIG 0.67  C 
ATOM     40  NH2 ARG X   1     -34.996   1.383  -4.852  1.00 45.07 LIG-0.23  N 
ATOM     41  NH1 ARG X   1     -33.153   0.151  -4.248  1.00 44.67 LIG-0.23  N 
ATOM     42 2HH2 ARG X   1     -34.740   2.015  -4.327  1.00 45.07 LIG 0.17  HD
ATOM     43 1HH2 ARG X   1     -35.721   1.469  -5.306  1.00 45.07 LIG 0.17  HD
ATOM     44 2HH1 ARG X   1     -32.904   0.787  -3.726  1.00 44.67 LIG 0.17  HD
ATOM     45 1HH1 ARG X   1     -32.681  -0.564  -4.310  1.00 44.67 LIG 0.17  HD
ENDBRANCH 36 37
ENDBRANCH 35 36
ENDBRANCH 34 35
ENDBRANCH 33 34
BRANCH 33 46
ATOM     46  N   ARG X   1     -30.318  -2.478  -4.756  1.00 53.50 LIG-0.07  N 
ATOM     47 H1   ARG X   1     -29.766  -1.974  -5.239  1.00 53.50 LIG 0.28  HD
ATOM     48 H3   ARG X   1     -29.882  -2.805  -4.053  1.00 53.50 LIG 0.28  HD
ATOM     49 H2   ARG X   1     -31.003  -1.984  -4.476  1.00 53.50 LIG 0.28  HD
ENDBRANCH 33 46
ENDBRANCH 31 33
ENDBRANCH 1 29
TORSDOF 16
ENDMDL
MODEL 3
USER: ADFR SOLUTION from run 7
USER: SCORE 17.066360 LL:  -1.686 LR: -16.864 RR:   0.000 FEB: -12.091
USER: RMSD 5.026301
USER: SEED 336578
USER: STATUS no improvement in best in 8 clusters for 5 generations
USER: GENES 18
USER: genes 0 Translation |==|  0.60780 0.49976 0.58329
USER: genes 1 Rotation |==|  0.59756 0.45118 0.45519 0.98589
USER: genes 2 Torsion [C]-CA--CB-[CG] |==|  0.36954
USER: genes 3 Torsion [CA]-CB--CG-[CD] |==|  0.38209
USER: genes 4 Torsion [CB]-CG--CD-[NE] |==|  0.26617
USER: genes 5 Torsion [CG]-CD--NE-[HE] |==|  0.79911
USER: genes 6 Torsion [N]-CA--C-[N] |==|  0.26112
USER: genes 7 Torsion [C]-N--CA-[CB] |==|  0.13279
USER: genes 8 Torsion [N]-CA--C-[N] |==|  0.09302
USER: genes 9 Torsion [C]-N--CA-[CB] |==|  0.21178
USER: genes 10 Torsion [N]-CA--C-[OXT] |==|  0.19469
USER: genes 11 Torsion [CB]-CA--N-[C] |==|  0.47285
USER: genes 12 Torsion [N]-C--CA-[N] |==|  0.40407
USER: genes 13 Torsion [C]-CA--CB-[CG] |==|  0.33689
USER: genes 14 Torsion [CA]-CB--CG-[CD] |==|  0.16165
USER: genes 15 Torsion [CB]-CG--CD-[NE] |==|  0.31333
USER: genes 16 Torsion [CG]-CD--NE-[HE] |==|  0.22909
USER: genes 17 Torsion [C]-CA--N-[H3] |==|  0.38039
ROOT
ATOM      1  CA  ARG X   2     -29.047  -5.855  -8.102  1.00 56.86 LIG 0.18  C 
ENDROOT
BRANCH 1 2
ATOM      2  CB  ARG X   2     -29.731  -7.076  -8.722  1.00 56.93 LIG 0.04  C 
BRANCH 2 3
ATOM      3  CG  ARG X   2     -29.370  -8.398  -8.061  1.00 58.33 LIG 0.02  C 
BRANCH 3 4
ATOM      4  CD  ARG X   2     -30.573  -9.290  -7.876  1.00 61.73 LIG 0.14  C 
BRANCH 4 5
ATOM      5  NE  ARG X   2     -30.736 -10.269  -8.949  1.00 63.99 LIG-0.23  N 
ATOM      6 HE   ARG X   2     -31.000  -9.981  -9.715  1.00 63.99 LIG 0.18  HD
ATOM      7  CZ  ARG X   2     -30.507 -11.579  -8.826  1.00 64.82 LIG 0.67  C 
ATOM      8  NH1 ARG X   2     -30.085 -12.100  -7.677  1.00 63.71 LIG-0.23  N 
ATOM      9  NH2 ARG X   2     -30.697 -12.375  -9.870  1.00 65.19 LIG-0.23  N 
ATOM     10 2HH1 ARG X   2     -29.942 -12.947  -7.615  1.00 63.71 LIG 0.17  HD
ATOM     11 1HH1 ARG X   2     -29.955 -11.591  -6.996  1.00 63.71 LIG 0.17  HD
ATOM     12 2HH2 ARG X   2     -30.551 -13.220  -9.799  1.00 65.19 LIG 0.17  HD
ATOM     13 1HH2 ARG X   2     -30.966 -12.047 -10.619  1.00 65.19 LIG 0.17  HD
ENDBRANCH 4 5
ENDBRANCH 3 4
ENDBRANCH 2 3
ENDBRANCH 1 2
BRANCH 1 14
ATOM     14  C   ARG X   2     -28.460  -4.966  -9.187  1.00 57.66 LIG 0.24  C 
ATOM     15  N   ALA X   3     -27.309  -4.354  -8.901  1.00 58.84 LIG-0.35  N 
ATOM     16 H    ALA X   3     -26.915  -4.412  -8.139  1.00 58.84 LIG 0.16  HD
ATOM     17 O    ARG X   2     -29.051  -4.843 -10.263  1.00 57.54 LIG-0.27  OA
BRANCH 15 18
ATOM     18  CA  ALA X   3     -26.604  -3.515  -9.880  1.00 60.16 LIG 0.17  C 
ATOM     19  CB  ALA X   3     -27.565  -2.523 -10.555  1.00 60.10 LIG 0.04  C 
BRANCH 18 20
ATOM     20  C   ALA X   3     -25.431  -2.784  -9.226  1.00 60.84 LIG 0.24  C 
ATOM     21  N   ALA X   4     -24.816  -3.457  -8.250  1.00 61.66 LIG-0.34  N 
ATOM     22 H    ALA X   4     -25.041  -4.258  -8.032  1.00 61.66 LIG 0.16  HD
ATOM     23 O    ALA X   3     -25.115  -1.644  -9.588  1.00 61.07 LIG-0.27  OA
BRANCH 21 24
ATOM     24  CA  ALA X   4     -23.699  -2.935  -7.436  1.00 62.39 LIG 0.18  C 
ATOM     25  CB  ALA X   4     -24.195  -1.935  -6.374  1.00 62.29 LIG 0.04  C 
BRANCH 24 26
ATOM     26  C   ALA X   4     -22.814  -4.024  -6.812  1.00 62.72 LIG 0.20  C 
ATOM     27 OXT  ALA X   4     -22.067  -4.721  -7.507  1.00 62.96 LIG-0.65  OA
ATOM     28 O    ALA X   4     -22.823  -4.251  -5.599  1.00 63.08 LIG-0.65  OA
ENDBRANCH 24 26
ENDBRANCH 21 24
ENDBRANCH 18 20
ENDBRANCH 15 18
ENDBRANCH 1 14
BRANCH 1 29
ATOM     29  N   ARG X   2     -30.000  -5.075  -7.321  1.00 55.62 LIG-0.35  N 
ATOM     30 H    ARG X   2     -30.819  -5.318  -7.419  1.00 55.62 LIG 0.16  HD
ATOM     31  C   ARG X   1     -29.614  -4.076  -6.528  1.00 54.36 LIG 0.25  C 
ATOM     32 O    ARG X   1     -28.432  -3.774  -6.354  1.00 54.20 LIG-0.27  OA
BRANCH 31 33
ATOM     33  CA  ARG X   1     -30.728  -3.292  -5.841  1.00 53.49 LIG 0.27  C 
BRANCH 33 34
ATOM     34  CB  ARG X   1     -31.119  -2.095  -6.715  1.00 53.17 LIG 0.04  C 
BRANCH 34 35
ATOM     35  CG  ARG X   1     -32.573  -2.045  -7.155  1.00 51.16 LIG 0.02  C 
BRANCH 35 36
ATOM     36  CD  ARG X   1     -33.514  -2.032  -5.973  1.00 48.38 LIG 0.14  C 
BRANCH 36 37
ATOM     37  NE  ARG X   1     -34.230  -0.764  -5.851  1.00 47.01 LIG-0.23  N 
ATOM     38 HE   ARG X   1     -34.931  -0.656  -6.337  1.00 47.01 LIG 0.18  HD
ATOM     39  CZ  ARG X   1     -33.881   0.240  -5.043  1.00 46.53 LIG 0.67  C 
ATOM     40  NH2 ARG X   1     -34.622   1.343  -5.009  1.00 45.07 LIG-0.23  N 
ATOM     41  NH1 ARG X   1     -32.804   0.151  -4.266  1.00 44.67 LIG-0.23  N 
ATOM     42 2HH2 ARG X   1     -34.402   1.993  -4.491  1.00 45.07 LIG 0.17  HD
ATOM     43 1HH2 ARG X   1     -35.321   1.407  -5.506  1.00 45.07 LIG 0.17  HD
ATOM     44 2HH1 ARG X   1     -32.591   0.806  -3.751  1.00 44.67 LIG 0.17  HD
ATOM     45 1HH1 ARG X   1     -32.322  -0.560  -4.279  1.00 44.67 LIG 0.17  HD
ENDBRANCH 36 37
ENDBRANCH 35 36
ENDBRANCH 34 35
ENDBRANCH 33 34
BRANCH 33 46
ATOM     46  N   ARG X   1     -30.318  -2.839  -4.478  1.00 53.50 LIG-0.07  N 
ATOM     47 H1   ARG X   1     -30.697  -3.361  -3.865  1.00 53.50 LIG 0.28  HD
ATOM     48 H3   ARG X   1     -30.579  -1.998  -4.354  1.00 53.50 LIG 0.28  HD
ATOM     49 H2   ARG X   1     -29.432  -2.888  -4.403  1.00 53.50 LIG 0.28  HD
ENDBRANCH 33 46
ENDBRANCH 31 33
ENDBRANCH 1 29
TORSDOF 16
ENDMDL
MODEL 4
USER: ADFR SOLUTION from run 76
USER: SCORE 15.495191 LL:  -1.568 LR: -16.105 RR:   0.000 FEB: -11.332
USER: RMSD 5.202707
USER: SEED 75
USER: STATUS no improvement in best in 6 clusters for 5 generations
USER: GENES 18
USER: genes 0 Translation |==|  0.56520 0.47664 0.59734
USER: genes 1 Rotation |==|  0.32549 0.71094 0.60144 0.90591
USER: genes 2 Torsion [C]-CA--CB-[CG] |==|  0.21376
USER: genes 3 Torsion [CA]-CB--CG-[CD] |==|  0.90958
USER: genes 4 Torsion [CB]-CG--CD-[NE] |==|  0.33479
USER: genes 5 Torsion [CG]-CD--NE-[HE] |==|  0.01768
USER: genes 6 Torsion [N]-CA--C-[N] |==|  0.74350
USER: genes 7 Torsion [C]-N--CA-[CB] |==|  0.13970
USER: genes 8 Torsion [N]-CA--C-[N] |==|  0.87149
USER: genes 9 Torsion [C]-N--CA-[CB] |==|  0.79818
USER: genes 10 Torsion [N]-CA--C-[OXT] |==|  0.58332
USER: genes 11 Torsion [CB]-CA--N-[C] |==|  0.18314
USER: genes 12 Torsion [N]-C--CA-[N] |==|  0.42924
USER: genes 13 Torsion [C]-CA--CB-[CG] |==|  0.27333
USER: genes 14 Torsion [CA]-CB--CG-[CD] |==|  0.15471
USER: genes 15 Torsion [CB]-CG--CD-[NE] |==|  0.13060
USER: genes 16 Torsion [CG]-CD--NE-[HE] |==|  0.82419
USER: genes 17 Torsion [C]-CA--N-[H3] |==|  0.06707
ROOT
ATOM      1  CA  ARG X   2     -29.845  -6.410  -7.828  1.00 56.86 LIG 0.18  C 
ENDROOT
BRANCH 1 2
ATOM      2  CB  ARG X   2     -29.203  -7.378  -6.831  1.00 56.93 LIG 0.04  C 
BRANCH 2 3
ATOM      3  CG  ARG X   2     -28.083  -8.225  -7.416  1.00 58.33 LIG 0.02  C 
BRANCH 3 4
ATOM      4  CD  ARG X   2     -28.313  -8.550  -8.871  1.00 61.73 LIG 0.14  C 
BRANCH 4 5
ATOM      5  NE  ARG X   2     -27.249  -8.064  -9.748  1.00 63.99 LIG-0.23  N 
ATOM      6 HE   ARG X   2     -26.554  -7.719  -9.377  1.00 63.99 LIG 0.18  HD
ATOM      7  CZ  ARG X   2     -27.278  -8.118 -11.082  1.00 64.82 LIG 0.67  C 
ATOM      8  NH1 ARG X   2     -28.312  -8.649 -11.728  1.00 63.71 LIG-0.23  N 
ATOM      9  NH2 ARG X   2     -26.254  -7.638 -11.775  1.00 65.19 LIG-0.23  N 
ATOM     10 2HH1 ARG X   2     -28.314  -8.675 -12.588  1.00 63.71 LIG 0.17  HD
ATOM     11 1HH1 ARG X   2     -28.978  -8.967 -11.287  1.00 63.71 LIG 0.17  HD
ATOM     12 2HH2 ARG X   2     -26.265  -7.668 -12.635  1.00 65.19 LIG 0.17  HD
ATOM     13 1HH2 ARG X   2     -25.579  -7.296 -11.366  1.00 65.19 LIG 0.17  HD
ENDBRANCH 4 5
ENDBRANCH 3 4
ENDBRANCH 2 3
ENDBRANCH 1 2
BRANCH 1 14
ATOM     14  C   ARG X   2     -30.792  -7.154  -8.756  1.00 57.66 LIG 0.24  C 
ATOM     15  N   ALA X   3     -31.378  -8.247  -8.264  1.00 58.84 LIG-0.35  N 
ATOM     16 H    ALA X   3     -31.220  -8.558  -7.478  1.00 58.84 LIG 0.16  HD
ATOM     17 O    ARG X   2     -30.979  -6.736  -9.902  1.00 57.54 LIG-0.27  OA
BRANCH 15 18
ATOM     18  CA  ALA X   3     -32.357  -9.025  -9.033  1.00 60.16 LIG 0.17  C 
ATOM     19  CB  ALA X   3     -31.823  -9.360 -10.435  1.00 60.10 LIG 0.04  C 
BRANCH 18 20
ATOM     20  C   ALA X   3     -32.757 -10.294  -8.280  1.00 60.84 LIG 0.24  C 
ATOM     21  N   ALA X   4     -31.741 -10.992  -7.763  1.00 61.66 LIG-0.34  N 
ATOM     22 H    ALA X   4     -30.926 -10.724  -7.818  1.00 61.66 LIG 0.16  HD
ATOM     23 O    ALA X   3     -33.945 -10.631  -8.194  1.00 61.07 LIG-0.27  OA
BRANCH 21 24
ATOM     24  CA  ALA X   4     -31.875 -12.277  -7.047  1.00 62.39 LIG 0.18  C 
ATOM     25  CB  ALA X   4     -32.491 -12.082  -5.648  1.00 62.29 LIG 0.04  C 
BRANCH 24 26
ATOM     26  C   ALA X   4     -32.615 -13.363  -7.841  1.00 62.72 LIG 0.20  C 
ATOM     27 OXT  ALA X   4     -33.276 -14.237  -7.271  1.00 62.96 LIG-0.65  OA
ATOM     28 O    ALA X   4     -32.568 -13.412  -9.073  1.00 63.08 LIG-0.65  OA
ENDBRANCH 24 26
ENDBRANCH 21 24
ENDBRANCH 18 20
ENDBRANCH 15 18
ENDBRANCH 1 14
BRANCH 1 29
ATOM     29  N   ARG X   2     -30.594  -5.373  -7.126  1.00 55.62 LIG-0.35  N 
ATOM     30 H    ARG X   2     -31.443  -5.402  -7.257  1.00 55.62 LIG 0.16  HD
ATOM     31  C   ARG X   1     -29.994  -4.468  -6.354  1.00 54.36 LIG 0.25  C 
ATOM     32 O    ARG X   1     -28.782  -4.472  -6.131  1.00 54.20 LIG-0.27  OA
BRANCH 31 33
ATOM     33  CA  ARG X   1     -30.893  -3.391  -5.754  1.00 53.49 LIG 0.27  C 
BRANCH 33 34
ATOM     34  CB  ARG X   1     -31.108  -2.279  -6.786  1.00 53.17 LIG 0.04  C 
BRANCH 34 35
ATOM     35  CG  ARG X   1     -32.406  -2.349  -7.572  1.00 51.16 LIG 0.02  C 
BRANCH 35 36
ATOM     36  CD  ARG X   1     -33.610  -2.382  -6.661  1.00 48.38 LIG 0.14  C 
BRANCH 36 37
ATOM     37  NE  ARG X   1     -33.537  -1.368  -5.611  1.00 47.01 LIG-0.23  N 
ATOM     38 HE   ARG X   1     -32.895  -1.432  -5.042  1.00 47.01 LIG 0.18  HD
ATOM     39  CZ  ARG X   1     -34.389  -0.351  -5.466  1.00 46.53 LIG 0.67  C 
ATOM     40  NH2 ARG X   1     -34.211   0.518  -4.476  1.00 45.07 LIG-0.23  N 
ATOM     41  NH1 ARG X   1     -35.413  -0.190  -6.301  1.00 44.67 LIG-0.23  N 
ATOM     42 2HH2 ARG X   1     -34.756   1.176  -4.377  1.00 45.07 LIG 0.17  HD
ATOM     43 1HH2 ARG X   1     -33.550   0.424  -3.934  1.00 45.07 LIG 0.17  HD
ATOM     44 2HH1 ARG X   1     -35.954   0.470  -6.196  1.00 44.67 LIG 0.17  HD
ATOM     45 1HH1 ARG X   1     -35.533  -0.746  -6.946  1.00 44.67 LIG 0.17  HD
ENDBRANCH 36 37
ENDBRANCH 35 36
ENDBRANCH 34 35
ENDBRANCH 33 34
BRANCH 33 46
ATOM     46  N   ARG X   1     -30.316  -2.837  -4.493  1.00 53.50 LIG-0.07  N 
ATOM     47 H1   ARG X   1     -30.498  -1.967  -4.440  1.00 53.50 LIG 0.28  HD
ATOM     48 H3   ARG X   1     -29.435  -2.956  -4.492  1.00 53.50 LIG 0.28  HD
ATOM     49 H2   ARG X   1     -30.673  -3.257  -3.794  1.00 53.50 LIG 0.28  HD
ENDBRANCH 33 46
ENDBRANCH 31 33
ENDBRANCH 1 29
TORSDOF 16
ENDMDL
MODEL 5
USER: ADFR SOLUTION from run 19
USER: SCORE 15.901952 LL:  -0.954 LR: -16.048 RR:   0.000 FEB: -11.275
USER: RMSD 6.204295
USER: SEED 18
USER: STATUS no improvement in best in 12 clusters for 5 generations
USER: GENES 18
USER: genes 0 Translation |==|  0.57727 0.55710 0.69615
USER: genes 1 Rotation |==|  0.60641 0.28825 0.52296 0.93967
USER: genes 2 Torsion [C]-CA--CB-[CG] |==|  0.82362
USER: genes 3 Torsion [CA]-CB--CG-[CD] |==|  0.44602
USER: genes 4 Torsion [CB]-CG--CD-[NE] |==|  0.75404
USER: genes 5 Torsion [CG]-CD--NE-[HE] |==|  0.02393
USER: genes 6 Torsion [N]-CA--C-[N] |==|  0.68314
USER: genes 7 Torsion [C]-N--CA-[CB] |==|  0.84196
USER: genes 8 Torsion [N]-CA--C-[N] |==|  0.40415
USER: genes 9 Torsion [C]-N--CA-[CB] |==|  0.82429
USER: genes 10 Torsion [N]-CA--C-[OXT] |==|  0.20658
USER: genes 11 Torsion [CB]-CA--N-[C] |==|  0.77697
USER: genes 12 Torsion [N]-C--CA-[N] |==|  0.96857
USER: genes 13 Torsion [C]-CA--CB-[CG] |==|  0.54515
USER: genes 14 Torsion [CA]-CB--CG-[CD] |==|  0.71732
USER: genes 15 Torsion [CB]-CG--CD-[NE] |==|  0.38993
USER: genes 16 Torsion [CG]-CD--NE-[HE] |==|  0.68039
USER: genes 17 Torsion [C]-CA--N-[H3] |==|  0.22648
ROOT
ATOM      1  CA  ARG X   2     -29.619  -4.479  -5.901  1.00 56.86 LIG 0.18  C 
ENDROOT
BRANCH 1 2
ATOM      2  CB  ARG X   2     -29.583  -5.754  -6.748  1.00 56.93 LIG 0.04  C 
BRANCH 2 3
ATOM      3  CG  ARG X   2     -29.924  -5.540  -8.215  1.00 58.33 LIG 0.02  C 
BRANCH 3 4
ATOM      4  CD  ARG X   2     -29.435  -6.671  -9.086  1.00 61.73 LIG 0.14  C 
BRANCH 4 5
ATOM      5  NE  ARG X   2     -28.069  -6.479  -9.570  1.00 63.99 LIG-0.23  N 
ATOM      6 HE   ARG X   2     -27.619  -5.824  -9.243  1.00 63.99 LIG 0.18  HD
ATOM      7  CZ  ARG X   2     -27.470  -7.249 -10.482  1.00 64.82 LIG 0.67  C 
ATOM      8  NH1 ARG X   2     -28.096  -8.290 -11.024  1.00 63.71 LIG-0.23  N 
ATOM      9  NH2 ARG X   2     -26.226  -6.974 -10.851  1.00 65.19 LIG-0.23  N 
ATOM     10 2HH1 ARG X   2     -27.695  -8.775 -11.611  1.00 63.71 LIG 0.17  HD
ATOM     11 1HH1 ARG X   2     -28.902  -8.479 -10.788  1.00 63.71 LIG 0.17  HD
ATOM     12 2HH2 ARG X   2     -25.833  -7.465 -11.439  1.00 65.19 LIG 0.17  HD
ATOM     13 1HH2 ARG X   2     -25.812  -6.305 -10.503  1.00 65.19 LIG 0.17  HD
ENDBRANCH 4 5
ENDBRANCH 3 4
ENDBRANCH 2 3
ENDBRANCH 1 2
BRANCH 1 14
ATOM     14  C   ARG X   2     -28.564  -3.494  -6.378  1.00 57.66 LIG 0.24  C 
ATOM     15  N   ALA X   3     -27.914  -3.809  -7.500  1.00 58.84 LIG-0.35  N 
ATOM     16 H    ALA X   3     -28.040  -4.541  -7.934  1.00 58.84 LIG 0.16  HD
ATOM     17 O    ARG X   2     -28.347  -2.467  -5.729  1.00 57.54 LIG-0.27  OA
BRANCH 15 18
ATOM     18  CA  ALA X   3     -26.913  -2.919  -8.102  1.00 60.16 LIG 0.17  C 
ATOM     19  CB  ALA X   3     -27.509  -1.534  -8.401  1.00 60.10 LIG 0.04  C 
BRANCH 18 20
ATOM     20  C   ALA X   3     -25.678  -2.804  -7.208  1.00 60.84 LIG 0.24  C 
ATOM     21  N   ALA X   4     -24.516  -2.679  -7.858  1.00 61.66 LIG-0.34  N 
ATOM     22 H    ALA X   4     -24.474  -2.628  -8.715  1.00 61.66 LIG 0.16  HD
ATOM     23 O    ALA X   3     -25.782  -2.849  -5.976  1.00 61.07 LIG-0.27  OA
BRANCH 21 24
ATOM     24  CA  ALA X   4     -23.189  -2.612  -7.212  1.00 62.39 LIG 0.18  C 
ATOM     25  CB  ALA X   4     -23.061  -1.365  -6.317  1.00 62.29 LIG 0.04  C 
BRANCH 24 26
ATOM     26  C   ALA X   4     -22.792  -3.889  -6.459  1.00 62.72 LIG 0.20  C 
ATOM     27 OXT  ALA X   4     -22.443  -4.909  -7.062  1.00 62.96 LIG-0.65  OA
ATOM     28 O    ALA X   4     -22.817  -3.949  -5.226  1.00 63.08 LIG-0.65  OA
ENDBRANCH 24 26
ENDBRANCH 21 24
ENDBRANCH 18 20
ENDBRANCH 15 18
ENDBRANCH 1 14
BRANCH 1 29
ATOM     29  N   ARG X   2     -30.929  -3.843  -5.988  1.00 55.62 LIG-0.35  N 
ATOM     30 H    ARG X   2     -31.444  -4.005  -5.319  1.00 55.62 LIG 0.16  HD
ATOM     31  C   ARG X   1     -31.277  -3.081  -7.024  1.00 54.36 LIG 0.25  C 
ATOM     32 O    ARG X   1     -30.509  -2.812  -7.949  1.00 54.20 LIG-0.27  OA
BRANCH 31 33
ATOM     33  CA  ARG X   1     -32.709  -2.554  -7.022  1.00 53.49 LIG 0.27  C 
BRANCH 33 34
ATOM     34  CB  ARG X   1     -32.690  -1.036  -6.809  1.00 53.17 LIG 0.04  C 
BRANCH 34 35
ATOM     35  CG  ARG X   1     -34.013  -0.410  -6.401  1.00 51.16 LIG 0.02  C 
BRANCH 35 36
ATOM     36  CD  ARG X   1     -34.693   0.268  -7.567  1.00 48.38 LIG 0.14  C 
BRANCH 36 37
ATOM     37  NE  ARG X   1     -36.139   0.056  -7.563  1.00 47.01 LIG-0.23  N 
ATOM     38 HE   ARG X   1     -36.476  -0.397  -8.212  1.00 47.01 LIG 0.18  HD
ATOM     39  CZ  ARG X   1     -36.979   0.510  -6.630  1.00 46.53 LIG 0.67  C 
ATOM     40  NH2 ARG X   1     -38.277   0.240  -6.727  1.00 45.07 LIG-0.23  N 
ATOM     41  NH1 ARG X   1     -36.535   1.225  -5.599  1.00 44.67 LIG-0.23  N 
ATOM     42 2HH2 ARG X   1     -38.822   0.530  -6.129  1.00 45.07 LIG 0.17  HD
ATOM     43 1HH2 ARG X   1     -38.571  -0.224  -7.388  1.00 45.07 LIG 0.17  HD
ATOM     44 2HH1 ARG X   1     -37.087   1.512  -5.005  1.00 44.67 LIG 0.17  HD
ATOM     45 1HH1 ARG X   1     -35.696   1.401  -5.526  1.00 44.67 LIG 0.17  HD
ENDBRANCH 36 37
ENDBRANCH 35 36
ENDBRANCH 34 35
ENDBRANCH 33 34
BRANCH 33 46
ATOM     46  N   ARG X   1     -33.537  -3.224  -5.976  1.00 53.50 LIG-0.07  N 
ATOM     47 H1   ARG X   1     -34.399  -3.147  -6.185  1.00 53.50 LIG 0.28  HD
ATOM     48 H3   ARG X   1     -33.388  -2.839  -5.188  1.00 53.50 LIG 0.28  HD
ATOM     49 H2   ARG X   1     -33.319  -4.086  -5.931  1.00 53.50 LIG 0.28  HD
ENDBRANCH 33 46
ENDBRANCH 31 33
ENDBRANCH 1 29
TORSDOF 16
ENDMDL
MODEL 6
USER: ADFR SOLUTION from run 147
USER: SCORE 16.998721 LL:  -1.490 LR: -15.958 RR:   0.000 FEB: -11.185
USER: RMSD 5.127855
USER: SEED 146
USER: STATUS searching
USER: GENES 18
USER: genes 0 Translation |==|  0.56947 0.50658 0.53731
USER: genes 1 Rotation |==|  0.19177 0.78328 0.76442 0.56951
USER: genes 2 Torsion [C]-CA--CB-[CG] |==|  0.28676
USER: genes 3 Torsion [CA]-CB--CG-[CD] |==|  0.93601
USER: genes 4 Torsion [CB]-CG--CD-[NE] |==|  0.59085
USER: genes 5 Torsion [CG]-CD--NE-[HE] |==|  0.64188
USER: genes 6 Torsion [N]-CA--C-[N] |==|  0.39515
USER: genes 7 Torsion [C]-N--CA-[CB] |==|  0.86535
USER: genes 8 Torsion [N]-CA--C-[N] |==|  0.42272
USER: genes 9 Torsion [C]-N--CA-[CB] |==|  0.85611
USER: genes 10 Torsion [N]-CA--C-[OXT] |==|  0.71602
USER: genes 11 Torsion [CB]-CA--N-[C] |==|  0.86667
USER: genes 12 Torsion [N]-C--CA-[N] |==|  0.46896
USER: genes 13 Torsion [C]-CA--CB-[CG] |==|  0.34263
USER: genes 14 Torsion [CA]-CB--CG-[CD] |==|  0.15938
USER: genes 15 Torsion [CB]-CG--CD-[NE] |==|  0.33361
USER: genes 16 Torsion [CG]-CD--NE-[HE] |==|  0.23952
USER: genes 17 Torsion [C]-CA--N-[H3] |==|  0.71649
ROOT
ATOM      1  CA  ARG X   2     -29.765  -5.691  -8.998  1.00 56.86 LIG 0.18  C 
ENDROOT
BRANCH 1 2
ATOM      2  CB  ARG X   2     -28.458  -4.928  -9.229  1.00 56.93 LIG 0.04  C 
BRANCH 2 3
ATOM      3  CG  ARG X   2     -27.999  -4.899 -10.679  1.00 58.33 LIG 0.02  C 
BRANCH 3 4
ATOM      4  CD  ARG X   2     -28.574  -6.039 -11.483  1.00 61.73 LIG 0.14  C 
BRANCH 4 5
ATOM      5  NE  ARG X   2     -27.677  -6.513 -12.536  1.00 63.99 LIG-0.23  N 
ATOM      6 HE   ARG X   2     -27.996  -6.582 -13.331  1.00 63.99 LIG 0.18  HD
ATOM      7  CZ  ARG X   2     -26.397  -6.848 -12.352  1.00 64.82 LIG 0.67  C 
ATOM      8  NH1 ARG X   2     -25.826  -6.756 -11.153  1.00 63.71 LIG-0.23  N 
ATOM      9  NH2 ARG X   2     -25.679  -7.273 -13.383  1.00 65.19 LIG-0.23  N 
ATOM     10 2HH1 ARG X   2     -25.000  -6.976 -11.053  1.00 63.71 LIG 0.17  HD
ATOM     11 1HH1 ARG X   2     -26.282  -6.478 -10.480  1.00 63.71 LIG 0.17  HD
ATOM     12 2HH2 ARG X   2     -24.854  -7.491 -13.273  1.00 65.19 LIG 0.17  HD
ATOM     13 1HH2 ARG X   2     -26.039  -7.332 -14.163  1.00 65.19 LIG 0.17  HD
ENDBRANCH 4 5
ENDBRANCH 3 4
ENDBRANCH 2 3
ENDBRANCH 1 2
BRANCH 1 14
ATOM     14  C   ARG X   2     -29.484  -7.058  -8.396  1.00 57.66 LIG 0.24  C 
ATOM     15  N   ALA X   3     -29.421  -8.085  -9.246  1.00 58.84 LIG-0.35  N 
ATOM     16 H    ALA X   3     -29.563  -8.014 -10.091  1.00 58.84 LIG 0.16  HD
ATOM     17 O    ARG X   2     -29.329  -7.170  -7.177  1.00 57.54 LIG-0.27  OA
BRANCH 15 18
ATOM     18  CA  ALA X   3     -29.098  -9.449  -8.805  1.00 60.16 LIG 0.17  C 
ATOM     19  CB  ALA X   3     -27.855  -9.461  -7.902  1.00 60.10 LIG 0.04  C 
BRANCH 18 20
ATOM     20  C   ALA X   3     -30.294 -10.091  -8.102  1.00 60.84 LIG 0.24  C 
ATOM     21  N   ALA X   4     -30.349 -11.424  -8.179  1.00 61.66 LIG-0.34  N 
ATOM     22 H    ALA X   4     -29.735 -11.887  -8.564  1.00 61.66 LIG 0.16  HD
ATOM     23 O    ALA X   3     -31.141  -9.395  -7.530  1.00 61.07 LIG-0.27  OA
BRANCH 21 24
ATOM     24  CA  ALA X   4     -31.437 -12.259  -7.631  1.00 62.39 LIG 0.18  C 
ATOM     25  CB  ALA X   4     -31.710 -11.928  -6.150  1.00 62.29 LIG 0.04  C 
BRANCH 24 26
ATOM     26  C   ALA X   4     -32.729 -12.233  -8.460  1.00 62.72 LIG 0.20  C 
ATOM     27 OXT  ALA X   4     -33.703 -11.559  -8.111  1.00 62.96 LIG-0.65  OA
ATOM     28 O    ALA X   4     -32.847 -12.891  -9.498  1.00 63.08 LIG-0.65  OA
ENDBRANCH 24 26
ENDBRANCH 21 24
ENDBRANCH 18 20
ENDBRANCH 15 18
ENDBRANCH 1 14
BRANCH 1 29
ATOM     29  N   ARG X   2     -30.638  -4.951  -8.095  1.00 55.62 LIG-0.35  N 
ATOM     30 H    ARG X   2     -31.450  -4.877  -8.370  1.00 55.62 LIG 0.16  HD
ATOM     31  C   ARG X   1     -30.197  -4.439  -6.947  1.00 54.36 LIG 0.25  C 
ATOM     32 O    ARG X   1     -29.045  -4.598  -6.539  1.00 54.20 LIG-0.27  OA
BRANCH 31 33
ATOM     33  CA  ARG X   1     -31.199  -3.613  -6.146  1.00 53.49 LIG 0.27  C 
BRANCH 33 34
ATOM     34  CB  ARG X   1     -31.504  -2.315  -6.901  1.00 53.17 LIG 0.04  C 
BRANCH 34 35
ATOM     35  CG  ARG X   1     -32.968  -2.065  -7.223  1.00 51.16 LIG 0.02  C 
BRANCH 35 36
ATOM     36  CD  ARG X   1     -33.821  -2.058  -5.977  1.00 48.38 LIG 0.14  C 
BRANCH 36 37
ATOM     37  NE  ARG X   1     -34.512  -0.784  -5.787  1.00 47.01 LIG-0.23  N 
ATOM     38 HE   ARG X   1     -35.270  -0.682  -6.181  1.00 47.01 LIG 0.18  HD
ATOM     39  CZ  ARG X   1     -34.059   0.232  -5.050  1.00 46.53 LIG 0.67  C 
ATOM     40  NH2 ARG X   1     -34.787   1.339  -4.942  1.00 45.07 LIG-0.23  N 
ATOM     41  NH1 ARG X   1     -32.891   0.152  -4.417  1.00 44.67 LIG-0.23  N 
ATOM     42 2HH2 ARG X   1     -34.500   1.998  -4.468  1.00 45.07 LIG 0.17  HD
ATOM     43 1HH2 ARG X   1     -35.544   1.397  -5.345  1.00 45.07 LIG 0.17  HD
ATOM     44 2HH1 ARG X   1     -32.611   0.815  -3.946  1.00 44.67 LIG 0.17  HD
ATOM     45 1HH1 ARG X   1     -32.416  -0.562  -4.479  1.00 44.67 LIG 0.17  HD
ENDBRANCH 36 37
ENDBRANCH 35 36
ENDBRANCH 34 35
ENDBRANCH 33 34
BRANCH 33 46
ATOM     46  N   ARG X   1     -30.693  -3.319  -4.772  1.00 53.50 LIG-0.07  N 
ATOM     47 H1   ARG X   1     -29.813  -3.445  -4.747  1.00 53.50 LIG 0.28  HD
ATOM     48 H3   ARG X   1     -31.088  -3.862  -4.188  1.00 53.50 LIG 0.28  HD
ATOM     49 H2   ARG X   1     -30.878  -2.474  -4.563  1.00 53.50 LIG 0.28  HD
ENDBRANCH 33 46
ENDBRANCH 31 33
ENDBRANCH 1 29
TORSDOF 16
ENDMDL
MODEL 7
USER: ADFR SOLUTION from run 143
USER: SCORE 16.036176 LL:  -1.336 LR: -15.906 RR:   0.000 FEB: -11.133
USER: RMSD 6.183214
USER: SEED 142
USER: STATUS no improvement in best in 9 clusters for 5 generations
USER: GENES 18
USER: genes 0 Translation |==|  0.57976 0.55538 0.69177
USER: genes 1 Rotation |==|  0.56917 0.31511 0.53007 0.95840
USER: genes 2 Torsion [C]-CA--CB-[CG] |==|  0.83972
USER: genes 3 Torsion [CA]-CB--CG-[CD] |==|  0.40977
USER: genes 4 Torsion [CB]-CG--CD-[NE] |==|  0.74735
USER: genes 5 Torsion [CG]-CD--NE-[HE] |==|  0.05491
USER: genes 6 Torsion [N]-CA--C-[N] |==|  0.20540
USER: genes 7 Torsion [C]-N--CA-[CB] |==|  0.55556
USER: genes 8 Torsion [N]-CA--C-[N] |==|  0.76067
USER: genes 9 Torsion [C]-N--CA-[CB] |==|  0.15126
USER: genes 10 Torsion [N]-CA--C-[OXT] |==|  0.85854
USER: genes 11 Torsion [CB]-CA--N-[C] |==|  0.77089
USER: genes 12 Torsion [N]-C--CA-[N] |==|  0.06188
USER: genes 13 Torsion [C]-CA--CB-[CG] |==|  0.73791
USER: genes 14 Torsion [CA]-CB--CG-[CD] |==|  0.17242
USER: genes 15 Torsion [CB]-CG--CD-[NE] |==|  0.69057
USER: genes 16 Torsion [CG]-CD--NE-[HE] |==|  0.30131
USER: genes 17 Torsion [C]-CA--N-[H3] |==|  0.45323
ROOT
ATOM      1  CA  ARG X   2     -29.572  -4.520  -5.987  1.00 56.86 LIG 0.18  C 
ENDROOT
BRANCH 1 2
ATOM      2  CB  ARG X   2     -29.645  -5.916  -6.611  1.00 56.93 LIG 0.04  C 
BRANCH 2 3
ATOM      3  CG  ARG X   2     -30.016  -5.922  -8.086  1.00 58.33 LIG 0.02  C 
BRANCH 3 4
ATOM      4  CD  ARG X   2     -29.360  -7.056  -8.836  1.00 61.73 LIG 0.14  C 
BRANCH 4 5
ATOM      5  NE  ARG X   2     -28.064  -6.697  -9.410  1.00 63.99 LIG-0.23  N 
ATOM      6 HE   ARG X   2     -27.660  -6.013  -9.083  1.00 63.99 LIG 0.18  HD
ATOM      7  CZ  ARG X   2     -27.464  -7.355 -10.405  1.00 64.82 LIG 0.67  C 
ATOM      8  NH1 ARG X   2     -28.021  -8.432 -10.954  1.00 63.71 LIG-0.23  N 
ATOM      9  NH2 ARG X   2     -26.289  -6.932 -10.851  1.00 65.19 LIG-0.23  N 
ATOM     10 2HH1 ARG X   2     -27.621  -8.844 -11.595  1.00 63.71 LIG 0.17  HD
ATOM     11 1HH1 ARG X   2     -28.781  -8.716 -10.669  1.00 63.71 LIG 0.17  HD
ATOM     12 2HH2 ARG X   2     -25.896  -7.350 -11.492  1.00 65.19 LIG 0.17  HD
ATOM     13 1HH2 ARG X   2     -25.919  -6.239 -10.499  1.00 65.19 LIG 0.17  HD
ENDBRANCH 4 5
ENDBRANCH 3 4
ENDBRANCH 2 3
ENDBRANCH 1 2
BRANCH 1 14
ATOM     14  C   ARG X   2     -28.569  -3.655  -6.733  1.00 57.66 LIG 0.24  C 
ATOM     15  N   ALA X   3     -28.168  -2.540  -6.121  1.00 58.84 LIG-0.35  N 
ATOM     16 H    ALA X   3     -28.470  -2.279  -5.359  1.00 58.84 LIG 0.16  HD
ATOM     17 O    ARG X   2     -28.172  -4.002  -7.849  1.00 57.54 LIG-0.27  OA
BRANCH 15 18
ATOM     18  CA  ALA X   3     -27.159  -1.645  -6.704  1.00 60.16 LIG 0.17  C 
ATOM     19  CB  ALA X   3     -26.528  -0.745  -5.630  1.00 60.10 LIG 0.04  C 
BRANCH 18 20
ATOM     20  C   ALA X   3     -26.089  -2.443  -7.450  1.00 60.84 LIG 0.24  C 
ATOM     21  N   ALA X   4     -25.078  -2.882  -6.694  1.00 61.66 LIG-0.34  N 
ATOM     22 H    ALA X   4     -25.053  -2.757  -5.844  1.00 61.66 LIG 0.16  HD
ATOM     23 O    ALA X   3     -26.176  -2.631  -8.670  1.00 61.07 LIG-0.27  OA
BRANCH 21 24
ATOM     24  CA  ALA X   4     -23.903  -3.621  -7.200  1.00 62.39 LIG 0.18  C 
ATOM     25  CB  ALA X   4     -23.199  -2.851  -8.333  1.00 62.29 LIG 0.04  C 
BRANCH 24 26
ATOM     26  C   ALA X   4     -22.912  -4.047  -6.108  1.00 62.72 LIG 0.20  C 
ATOM     27 OXT  ALA X   4     -22.479  -3.238  -5.281  1.00 62.96 LIG-0.65  OA
ATOM     28 O    ALA X   4     -22.501  -5.208  -6.023  1.00 63.08 LIG-0.65  OA
ENDBRANCH 24 26
ENDBRANCH 21 24
ENDBRANCH 18 20
ENDBRANCH 15 18
ENDBRANCH 1 14
BRANCH 1 29
ATOM     29  N   ARG X   2     -30.877  -3.870  -6.031  1.00 55.62 LIG-0.35  N 
ATOM     30 H    ARG X   2     -31.327  -3.933  -5.301  1.00 55.62 LIG 0.16  HD
ATOM     31  C   ARG X   1     -31.317  -3.240  -7.119  1.00 54.36 LIG 0.25  C 
ATOM     32 O    ARG X   1     -30.639  -3.111  -8.140  1.00 54.20 LIG-0.27  OA
BRANCH 31 33
ATOM     33  CA  ARG X   1     -32.736  -2.684  -7.050  1.00 53.49 LIG 0.27  C 
BRANCH 33 34
ATOM     34  CB  ARG X   1     -32.804  -1.371  -7.836  1.00 53.17 LIG 0.04  C 
BRANCH 34 35
ATOM     35  CG  ARG X   1     -32.608  -0.102  -7.023  1.00 51.16 LIG 0.02  C 
BRANCH 35 36
ATOM     36  CD  ARG X   1     -31.240  -0.055  -6.382  1.00 48.38 LIG 0.14  C 
BRANCH 36 37
ATOM     37  NE  ARG X   1     -31.306  -0.183  -4.928  1.00 47.01 LIG-0.23  N 
ATOM     38 HE   ARG X   1     -31.029  -0.921  -4.582  1.00 47.01 LIG 0.18  HD
ATOM     39  CZ  ARG X   1     -31.761   0.754  -4.095  1.00 46.53 LIG 0.67  C 
ATOM     40  NH2 ARG X   1     -31.758   0.526  -2.785  1.00 45.07 LIG-0.23  N 
ATOM     41  NH1 ARG X   1     -32.213   1.919  -4.555  1.00 44.67 LIG-0.23  N 
ATOM     42 2HH2 ARG X   1     -32.049   1.127  -2.243  1.00 45.07 LIG 0.17  HD
ATOM     43 1HH2 ARG X   1     -31.464  -0.222  -2.480  1.00 45.07 LIG 0.17  HD
ATOM     44 2HH1 ARG X   1     -32.504   2.514  -4.006  1.00 44.67 LIG 0.17  HD
ATOM     45 1HH1 ARG X   1     -32.215   2.076  -5.400  1.00 44.67 LIG 0.17  HD
ENDBRANCH 36 37
ENDBRANCH 35 36
ENDBRANCH 34 35
ENDBRANCH 33 34
BRANCH 33 46
ATOM     46  N   ARG X   1     -33.174  -2.478  -5.637  1.00 53.50 LIG-0.07  N 
ATOM     47 H1   ARG X   1     -33.390  -3.262  -5.275  1.00 53.50 LIG 0.28  HD
ATOM     48 H3   ARG X   1     -33.883  -1.940  -5.622  1.00 53.50 LIG 0.28  HD
ATOM     49 H2   ARG X   1     -32.512  -2.108  -5.172  1.00 53.50 LIG 0.28  HD
ENDBRANCH 33 46
ENDBRANCH 31 33
ENDBRANCH 1 29
TORSDOF 16
ENDMDL
MODEL 8
USER: ADFR SOLUTION from run 19
USER: SCORE 15.567629 LL:  -1.035 LR: -15.800 RR:   0.000 FEB: -11.027
USER: RMSD 5.894992
USER: SEED 18
USER: STATUS no improvement in best in 12 clusters for 5 generations
USER: GENES 18
USER: genes 0 Translation |==|  0.57259 0.56173 0.68933
USER: genes 1 Rotation |==|  0.63025 0.29297 0.49267 0.93603
USER: genes 2 Torsion [C]-CA--CB-[CG] |==|  0.29675
USER: genes 3 Torsion [CA]-CB--CG-[CD] |==|  0.46722
USER: genes 4 Torsion [CB]-CG--CD-[NE] |==|  0.87072
USER: genes 5 Torsion [CG]-CD--NE-[HE] |==|  0.04299
USER: genes 6 Torsion [N]-CA--C-[N] |==|  0.67550
USER: genes 7 Torsion [C]-N--CA-[CB] |==|  0.82979
USER: genes 8 Torsion [N]-CA--C-[N] |==|  0.41504
USER: genes 9 Torsion [C]-N--CA-[CB] |==|  0.83171
USER: genes 10 Torsion [N]-CA--C-[OXT] |==|  0.19741
USER: genes 11 Torsion [CB]-CA--N-[C] |==|  0.79596
USER: genes 12 Torsion [N]-C--CA-[N] |==|  0.92495
USER: genes 13 Torsion [C]-CA--CB-[CG] |==|  0.59739
USER: genes 14 Torsion [CA]-CB--CG-[CD] |==|  0.66273
USER: genes 15 Torsion [CB]-CG--CD-[NE] |==|  0.35811
USER: genes 16 Torsion [CG]-CD--NE-[HE] |==|  0.25926
USER: genes 17 Torsion [C]-CA--N-[H3] |==|  0.40532
ROOT
ATOM      1  CA  ARG X   2     -29.707  -4.367  -6.034  1.00 56.86 LIG 0.18  C 
ENDROOT
BRANCH 1 2
ATOM      2  CB  ARG X   2     -29.783  -5.513  -7.047  1.00 56.93 LIG 0.04  C 
BRANCH 2 3
ATOM      3  CG  ARG X   2     -29.244  -6.839  -6.532  1.00 58.33 LIG 0.02  C 
BRANCH 3 4
ATOM      4  CD  ARG X   2     -29.595  -7.991  -7.442  1.00 61.73 LIG 0.14  C 
BRANCH 4 5
ATOM      5  NE  ARG X   2     -30.996  -7.992  -7.859  1.00 63.99 LIG-0.23  N 
ATOM      6 HE   ARG X   2     -31.447  -7.270  -7.743  1.00 63.99 LIG 0.18  HD
ATOM      7  CZ  ARG X   2     -31.625  -9.034  -8.408  1.00 64.82 LIG 0.67  C 
ATOM      8  NH1 ARG X   2     -30.992 -10.183  -8.632  1.00 63.71 LIG-0.23  N 
ATOM      9  NH2 ARG X   2     -32.904  -8.921  -8.741  1.00 65.19 LIG-0.23  N 
ATOM     10 2HH1 ARG X   2     -31.413 -10.844  -8.986  1.00 63.71 LIG 0.17  HD
ATOM     11 1HH1 ARG X   2     -30.161 -10.264  -8.423  1.00 63.71 LIG 0.17  HD
ATOM     12 2HH2 ARG X   2     -33.317  -9.588  -9.095  1.00 65.19 LIG 0.17  HD
ATOM     13 1HH2 ARG X   2     -33.321  -8.181  -8.604  1.00 65.19 LIG 0.17  HD
ENDBRANCH 4 5
ENDBRANCH 3 4
ENDBRANCH 2 3
ENDBRANCH 1 2
BRANCH 1 14
ATOM     14  C   ARG X   2     -28.609  -3.390  -6.419  1.00 57.66 LIG 0.24  C 
ATOM     15  N   ALA X   3     -27.983  -3.617  -7.576  1.00 58.84 LIG-0.35  N 
ATOM     16 H    ALA X   3     -28.147  -4.294  -8.081  1.00 58.84 LIG 0.16  HD
ATOM     17 O    ARG X   2     -28.338  -2.447  -5.671  1.00 57.54 LIG-0.27  OA
BRANCH 15 18
ATOM     18  CA  ALA X   3     -26.944  -2.718  -8.095  1.00 60.16 LIG 0.17  C 
ATOM     19  CB  ALA X   3     -27.503  -1.308  -8.344  1.00 60.10 LIG 0.04  C 
BRANCH 18 20
ATOM     20  C   ALA X   3     -25.741  -2.673  -7.152  1.00 60.84 LIG 0.24  C 
ATOM     21  N   ALA X   4     -24.563  -2.456  -7.744  1.00 61.66 LIG-0.34  N 
ATOM     22 H    ALA X   4     -24.494  -2.314  -8.589  1.00 61.66 LIG 0.16  HD
ATOM     23 O    ALA X   3     -25.884  -2.849  -5.936  1.00 61.07 LIG-0.27  OA
BRANCH 21 24
ATOM     24  CA  ALA X   4     -23.260  -2.430  -7.050  1.00 62.39 LIG 0.18  C 
ATOM     25  CB  ALA X   4     -23.214  -1.323  -5.979  1.00 62.29 LIG 0.04  C 
BRANCH 24 26
ATOM     26  C   ALA X   4     -22.826  -3.786  -6.476  1.00 62.72 LIG 0.20  C 
ATOM     27 OXT  ALA X   4     -22.471  -4.712  -7.213  1.00 62.96 LIG-0.65  OA
ATOM     28 O    ALA X   4     -22.827  -4.007  -5.262  1.00 63.08 LIG-0.65  OA
ENDBRANCH 24 26
ENDBRANCH 21 24
ENDBRANCH 18 20
ENDBRANCH 15 18
ENDBRANCH 1 14
BRANCH 1 29
ATOM     29  N   ARG X   2     -30.975  -3.650  -5.975  1.00 55.62 LIG-0.35  N 
ATOM     30 H    ARG X   2     -31.434  -3.804  -5.265  1.00 55.62 LIG 0.16  HD
ATOM     31  C   ARG X   1     -31.371  -2.833  -6.950  1.00 54.36 LIG 0.25  C 
ATOM     32 O    ARG X   1     -30.678  -2.580  -7.938  1.00 54.20 LIG-0.27  OA
BRANCH 31 33
ATOM     33  CA  ARG X   1     -32.759  -2.220  -6.795  1.00 53.49 LIG 0.27  C 
BRANCH 33 34
ATOM     34  CB  ARG X   1     -32.631  -0.830  -6.163  1.00 53.17 LIG 0.04  C 
BRANCH 34 35
ATOM     35  CG  ARG X   1     -33.750  -0.429  -5.216  1.00 51.16 LIG 0.02  C 
BRANCH 35 36
ATOM     36  CD  ARG X   1     -34.441   0.836  -5.670  1.00 48.38 LIG 0.14  C 
BRANCH 36 37
ATOM     37  NE  ARG X   1     -35.893   0.683  -5.725  1.00 47.01 LIG-0.23  N 
ATOM     38 HE   ARG X   1     -36.343   0.915  -5.030  1.00 47.01 LIG 0.18  HD
ATOM     39  CZ  ARG X   1     -36.576   0.211  -6.771  1.00 46.53 LIG 0.67  C 
ATOM     40  NH2 ARG X   1     -37.901   0.132  -6.708  1.00 45.07 LIG-0.23  N 
ATOM     41  NH1 ARG X   1     -35.949  -0.176  -7.880  1.00 44.67 LIG-0.23  N 
ATOM     42 2HH2 ARG X   1     -38.346  -0.171  -7.378  1.00 45.07 LIG 0.17  HD
ATOM     43 1HH2 ARG X   1     -38.313   0.383  -5.996  1.00 45.07 LIG 0.17  HD
ATOM     44 2HH1 ARG X   1     -36.402  -0.478  -8.546  1.00 44.67 LIG 0.17  HD
ATOM     45 1HH1 ARG X   1     -35.093  -0.124  -7.930  1.00 44.67 LIG 0.17  HD
ENDBRANCH 36 37
ENDBRANCH 35 36
ENDBRANCH 34 35
ENDBRANCH 33 34
BRANCH 33 46
ATOM     46  N   ARG X   1     -33.654  -3.092  -5.976  1.00 53.50 LIG-0.07  N 
ATOM     47 H1   ARG X   1     -34.127  -3.620  -6.514  1.00 53.50 LIG 0.28  HD
ATOM     48 H3   ARG X   1     -34.206  -2.584  -5.498  1.00 53.50 LIG 0.28  HD
ATOM     49 H2   ARG X   1     -33.161  -3.591  -5.429  1.00 53.50 LIG 0.28  HD
ENDBRANCH 33 46
ENDBRANCH 31 33
ENDBRANCH 1 29
TORSDOF 16
ENDMDL
MODEL 9
USER: ADFR SOLUTION from run 19
USER: SCORE 15.820191 LL:  -1.503 LR: -15.612 RR:   0.000 FEB: -10.839
USER: RMSD 5.970322
USER: SEED 18
USER: STATUS no improvement in best in 12 clusters for 5 generations
USER: GENES 18
USER: genes 0 Translation |==|  0.57337 0.56086 0.68867
USER: genes 1 Rotation |==|  0.62107 0.28940 0.50037 0.93703
USER: genes 2 Torsion [C]-CA--CB-[CG] |==|  0.30637
USER: genes 3 Torsion [CA]-CB--CG-[CD] |==|  0.46240
USER: genes 4 Torsion [CB]-CG--CD-[NE] |==|  0.87370
USER: genes 5 Torsion [CG]-CD--NE-[HE] |==|  0.04225
USER: genes 6 Torsion [N]-CA--C-[N] |==|  0.67785
USER: genes 7 Torsion [C]-N--CA-[CB] |==|  0.82919
USER: genes 8 Torsion [N]-CA--C-[N] |==|  0.41523
USER: genes 9 Torsion [C]-N--CA-[CB] |==|  0.83351
USER: genes 10 Torsion [N]-CA--C-[OXT] |==|  0.19626
USER: genes 11 Torsion [CB]-CA--N-[C] |==|  0.80556
USER: genes 12 Torsion [N]-C--CA-[N] |==|  0.93919
USER: genes 13 Torsion [C]-CA--CB-[CG] |==|  0.07217
USER: genes 14 Torsion [CA]-CB--CG-[CD] |==|  0.62595
USER: genes 15 Torsion [CB]-CG--CD-[NE] |==|  0.08020
USER: genes 16 Torsion [CG]-CD--NE-[HE] |==|  0.10556
USER: genes 17 Torsion [C]-CA--N-[H3] |==|  0.26764
ROOT
ATOM      1  CA  ARG X   2     -29.692  -4.388  -6.047  1.00 56.86 LIG 0.18  C 
ENDROOT
BRANCH 1 2
ATOM      2  CB  ARG X   2     -29.741  -5.580  -7.007  1.00 56.93 LIG 0.04  C 
BRANCH 2 3
ATOM      3  CG  ARG X   2     -29.280  -6.894  -6.395  1.00 58.33 LIG 0.02  C 
BRANCH 3 4
ATOM      4  CD  ARG X   2     -29.646  -8.082  -7.251  1.00 61.73 LIG 0.14  C 
BRANCH 4 5
ATOM      5  NE  ARG X   2     -31.022  -8.038  -7.743  1.00 63.99 LIG-0.23  N 
ATOM      6 HE   ARG X   2     -31.439  -7.288  -7.692  1.00 63.99 LIG 0.18  HD
ATOM      7  CZ  ARG X   2     -31.677  -9.078  -8.265  1.00 64.82 LIG 0.67  C 
ATOM      8  NH1 ARG X   2     -31.095 -10.268  -8.389  1.00 63.71 LIG-0.23  N 
ATOM      9  NH2 ARG X   2     -32.929  -8.921  -8.673  1.00 65.19 LIG-0.23  N 
ATOM     10 2HH1 ARG X   2     -31.532 -10.928  -8.726  1.00 63.71 LIG 0.17  HD
ATOM     11 1HH1 ARG X   2     -30.281 -10.378  -8.131  1.00 63.71 LIG 0.17  HD
ATOM     12 2HH2 ARG X   2     -33.359  -9.587  -9.010  1.00 65.19 LIG 0.17  HD
ATOM     13 1HH2 ARG X   2     -33.313  -8.155  -8.600  1.00 65.19 LIG 0.17  HD
ENDBRANCH 4 5
ENDBRANCH 3 4
ENDBRANCH 2 3
ENDBRANCH 1 2
BRANCH 1 14
ATOM     14  C   ARG X   2     -28.594  -3.420  -6.457  1.00 57.66 LIG 0.24  C 
ATOM     15  N   ALA X   3     -27.958  -3.686  -7.599  1.00 58.84 LIG-0.35  N 
ATOM     16 H    ALA X   3     -28.114  -4.380  -8.082  1.00 58.84 LIG 0.16  HD
ATOM     17 O    ARG X   2     -28.334  -2.450  -5.740  1.00 57.54 LIG-0.27  OA
BRANCH 15 18
ATOM     18  CA  ALA X   3     -26.918  -2.801  -8.141  1.00 60.16 LIG 0.17  C 
ATOM     19  CB  ALA X   3     -27.482  -1.405  -8.450  1.00 60.10 LIG 0.04  C 
BRANCH 18 20
ATOM     20  C   ALA X   3     -25.726  -2.713  -7.187  1.00 60.84 LIG 0.24  C 
ATOM     21  N   ALA X   4     -24.542  -2.511  -7.774  1.00 61.66 LIG-0.34  N 
ATOM     22 H    ALA X   4     -24.465  -2.400  -8.623  1.00 61.66 LIG 0.16  HD
ATOM     23 O    ALA X   3     -25.881  -2.845  -5.967  1.00 61.07 LIG-0.27  OA
BRANCH 21 24
ATOM     24  CA  ALA X   4     -23.247  -2.451  -7.067  1.00 62.39 LIG 0.18  C 
ATOM     25  CB  ALA X   4     -23.225  -1.315  -6.026  1.00 62.29 LIG 0.04  C 
BRANCH 24 26
ATOM     26  C   ALA X   4     -22.804  -3.786  -6.452  1.00 62.72 LIG 0.20  C 
ATOM     27 OXT  ALA X   4     -22.438  -4.729  -7.160  1.00 62.96 LIG-0.65  OA
ATOM     28 O    ALA X   4     -22.809  -3.971  -5.231  1.00 63.08 LIG-0.65  OA
ENDBRANCH 24 26
ENDBRANCH 21 24
ENDBRANCH 18 20
ENDBRANCH 15 18
ENDBRANCH 1 14
BRANCH 1 29
ATOM     29  N   ARG X   2     -30.967  -3.680  -6.044  1.00 55.62 LIG-0.35  N 
ATOM     30 H    ARG X   2     -31.417  -3.766  -5.317  1.00 55.62 LIG 0.16  HD
ATOM     31  C   ARG X   1     -31.381  -2.966  -7.090  1.00 54.36 LIG 0.25  C 
ATOM     32 O    ARG X   1     -30.702  -2.805  -8.106  1.00 54.20 LIG-0.27  OA
BRANCH 31 33
ATOM     33  CA  ARG X   1     -32.773  -2.353  -6.980  1.00 53.49 LIG 0.27  C 
BRANCH 33 34
ATOM     34  CB  ARG X   1     -32.646  -0.870  -6.614  1.00 53.17 LIG 0.04  C 
BRANCH 34 35
ATOM     35  CG  ARG X   1     -31.349  -0.195  -7.029  1.00 51.16 LIG 0.02  C 
BRANCH 35 36
ATOM     36  CD  ARG X   1     -30.777   0.650  -5.916  1.00 48.38 LIG 0.14  C 
BRANCH 36 37
ATOM     37  NE  ARG X   1     -31.139   0.142  -4.594  1.00 47.01 LIG-0.23  N 
ATOM     38 HE   ARG X   1     -31.158  -0.711  -4.488  1.00 47.01 LIG 0.18  HD
ATOM     39  CZ  ARG X   1     -31.443   0.900  -3.538  1.00 46.53 LIG 0.67  C 
ATOM     40  NH2 ARG X   1     -31.744   0.321  -2.380  1.00 45.07 LIG-0.23  N 
ATOM     41  NH1 ARG X   1     -31.443   2.228  -3.625  1.00 44.67 LIG-0.23  N 
ATOM     42 2HH2 ARG X   1     -31.940   0.804  -1.696  1.00 45.07 LIG 0.17  HD
ATOM     43 1HH2 ARG X   1     -31.742  -0.536  -2.314  1.00 45.07 LIG 0.17  HD
ATOM     44 2HH1 ARG X   1     -31.641   2.704  -2.937  1.00 44.67 LIG 0.17  HD
ATOM     45 1HH1 ARG X   1     -31.246   2.610  -4.370  1.00 44.67 LIG 0.17  HD
ENDBRANCH 36 37
ENDBRANCH 35 36
ENDBRANCH 34 35
ENDBRANCH 33 34
BRANCH 33 46
ATOM     46  N   ARG X   1     -33.611  -3.075  -5.976  1.00 53.50 LIG-0.07  N 
ATOM     47 H1   ARG X   1     -34.454  -3.104  -6.259  1.00 53.50 LIG 0.28  HD
ATOM     48 H3   ARG X   1     -33.575  -2.647  -5.197  1.00 53.50 LIG 0.28  HD
ATOM     49 H2   ARG X   1     -33.303  -3.904  -5.874  1.00 53.50 LIG 0.28  HD
ENDBRANCH 33 46
ENDBRANCH 31 33
ENDBRANCH 1 29
TORSDOF 16
ENDMDL
MODEL 10
USER: ADFR SOLUTION from run 129
USER: SCORE 15.774551 LL:  -1.584 LR: -15.553 RR:   0.000 FEB: -10.781
USER: RMSD 5.216097
USER: SEED 128
USER: STATUS no improvement in best in 8 clusters for 5 generations
USER: GENES 18
USER: genes 0 Translation |==|  0.61050 0.50889 0.55358
USER: genes 1 Rotation |==|  0.69562 0.41473 0.44547 0.94887
USER: genes 2 Torsion [C]-CA--CB-[CG] |==|  0.57496
USER: genes 3 Torsion [CA]-CB--CG-[CD] |==|  0.57199
USER: genes 4 Torsion [CB]-CG--CD-[NE] |==|  0.61317
USER: genes 5 Torsion [CG]-CD--NE-[HE] |==|  0.82759
USER: genes 6 Torsion [N]-CA--C-[N] |==|  0.48321
USER: genes 7 Torsion [C]-N--CA-[CB] |==|  0.84941
USER: genes 8 Torsion [N]-CA--C-[N] |==|  0.15153
USER: genes 9 Torsion [C]-N--CA-[CB] |==|  0.19486
USER: genes 10 Torsion [N]-CA--C-[OXT] |==|  0.08100
USER: genes 11 Torsion [CB]-CA--N-[C] |==|  0.48889
USER: genes 12 Torsion [N]-C--CA-[N] |==|  0.50279
USER: genes 13 Torsion [C]-CA--CB-[CG] |==|  0.61499
USER: genes 14 Torsion [CA]-CB--CG-[CD] |==|  0.71251
USER: genes 15 Torsion [CB]-CG--CD-[NE] |==|  0.54512
USER: genes 16 Torsion [CG]-CD--NE-[HE] |==|  0.36308
USER: genes 17 Torsion [C]-CA--N-[H3] |==|  0.32961
ROOT
ATOM      1  CA  ARG X   2     -28.996  -5.636  -8.681  1.00 56.86 LIG 0.18  C 
ENDROOT
BRANCH 1 2
ATOM      2  CB  ARG X   2     -29.556  -6.465  -9.840  1.00 56.93 LIG 0.04  C 
BRANCH 2 3
ATOM      3  CG  ARG X   2     -30.820  -7.240  -9.501  1.00 58.33 LIG 0.02  C 
BRANCH 3 4
ATOM      4  CD  ARG X   2     -30.989  -8.465 -10.366  1.00 61.73 LIG 0.14  C 
BRANCH 4 5
ATOM      5  NE  ARG X   2     -32.369  -8.681 -10.798  1.00 63.99 LIG-0.23  N 
ATOM      6 HE   ARG X   2     -32.960  -8.820 -10.189  1.00 63.99 LIG 0.18  HD
ATOM      7  CZ  ARG X   2     -32.778  -8.679 -12.069  1.00 64.82 LIG 0.67  C 
ATOM      8  NH1 ARG X   2     -31.925  -8.459 -13.067  1.00 63.71 LIG-0.23  N 
ATOM      9  NH2 ARG X   2     -34.058  -8.894 -12.343  1.00 65.19 LIG-0.23  N 
ATOM     10 2HH1 ARG X   2     -32.206  -8.462 -13.881  1.00 63.71 LIG 0.17  HD
ATOM     11 1HH1 ARG X   2     -31.094  -8.314 -12.899  1.00 63.71 LIG 0.17  HD
ATOM     12 2HH2 ARG X   2     -34.329  -8.895 -13.160  1.00 65.19 LIG 0.17  HD
ATOM     13 1HH2 ARG X   2     -34.617  -9.034 -11.704  1.00 65.19 LIG 0.17  HD
ENDBRANCH 4 5
ENDBRANCH 3 4
ENDBRANCH 2 3
ENDBRANCH 1 2
BRANCH 1 14
ATOM     14  C   ARG X   2     -28.213  -4.445  -9.210  1.00 57.66 LIG 0.24  C 
ATOM     15  N   ALA X   3     -27.109  -4.716  -9.908  1.00 58.84 LIG-0.35  N 
ATOM     16 H    ALA X   3     -26.812  -5.512 -10.038  1.00 58.84 LIG 0.16  HD
ATOM     17 O    ARG X   2     -28.612  -3.299  -8.980  1.00 57.54 LIG-0.27  OA
BRANCH 15 18
ATOM     18  CA  ALA X   3     -26.292  -3.662 -10.524  1.00 60.16 LIG 0.17  C 
ATOM     19  CB  ALA X   3     -27.143  -2.760 -11.432  1.00 60.10 LIG 0.04  C 
BRANCH 18 20
ATOM     20  C   ALA X   3     -25.567  -2.841  -9.458  1.00 60.84 LIG 0.24  C 
ATOM     21  N   ALA X   4     -24.823  -3.550  -8.604  1.00 61.66 LIG-0.34  N 
ATOM     22 H    ALA X   4     -24.729  -4.402  -8.675  1.00 61.66 LIG 0.16  HD
ATOM     23 O    ALA X   3     -25.699  -1.612  -9.407  1.00 61.07 LIG-0.27  OA
BRANCH 21 24
ATOM     24  CA  ALA X   4     -24.080  -2.985  -7.458  1.00 62.39 LIG 0.18  C 
ATOM     25  CB  ALA X   4     -25.036  -2.508  -6.348  1.00 62.29 LIG 0.04  C 
BRANCH 24 26
ATOM     26  C   ALA X   4     -22.988  -3.909  -6.901  1.00 62.72 LIG 0.20  C 
ATOM     27 OXT  ALA X   4     -22.403  -4.721  -7.625  1.00 62.96 LIG-0.65  OA
ATOM     28 O    ALA X   4     -22.662  -3.883  -5.711  1.00 63.08 LIG-0.65  OA
ENDBRANCH 24 26
ENDBRANCH 21 24
ENDBRANCH 18 20
ENDBRANCH 15 18
ENDBRANCH 1 14
BRANCH 1 29
ATOM     29  N   ARG X   2     -30.076  -5.148  -7.831  1.00 55.62 LIG-0.35  N 
ATOM     30 H    ARG X   2     -30.864  -5.339  -8.118  1.00 55.62 LIG 0.16  HD
ATOM     31  C   ARG X   1     -29.841  -4.467  -6.710  1.00 54.36 LIG 0.25  C 
ATOM     32 O    ARG X   1     -28.706  -4.247  -6.283  1.00 54.20 LIG-0.27  OA
BRANCH 31 33
ATOM     33  CA  ARG X   1     -31.067  -3.944  -5.969  1.00 53.49 LIG 0.27  C 
BRANCH 33 34
ATOM     34  CB  ARG X   1     -31.897  -3.070  -6.917  1.00 53.17 LIG 0.04  C 
BRANCH 34 35
ATOM     35  CG  ARG X   1     -32.466  -1.797  -6.313  1.00 51.16 LIG 0.02  C 
BRANCH 35 36
ATOM     36  CD  ARG X   1     -33.941  -1.930  -6.015  1.00 48.38 LIG 0.14  C 
BRANCH 36 37
ATOM     37  NE  ARG X   1     -34.581  -0.635  -5.800  1.00 47.01 LIG-0.23  N 
ATOM     38 HE   ARG X   1     -35.309  -0.475  -6.230  1.00 47.01 LIG 0.18  HD
ATOM     39  CZ  ARG X   1     -34.125   0.321  -4.986  1.00 46.53 LIG 0.67  C 
ATOM     40  NH2 ARG X   1     -34.805   1.456  -4.863  1.00 45.07 LIG-0.23  N 
ATOM     41  NH1 ARG X   1     -33.003   0.151  -4.292  1.00 44.67 LIG-0.23  N 
ATOM     42 2HH2 ARG X   1     -34.517   2.075  -4.340  1.00 45.07 LIG 0.17  HD
ATOM     43 1HH2 ARG X   1     -35.533   1.572  -5.305  1.00 45.07 LIG 0.17  HD
ATOM     44 2HH1 ARG X   1     -32.721   0.775  -3.772  1.00 44.67 LIG 0.17  HD
ATOM     45 1HH1 ARG X   1     -32.559  -0.582  -4.364  1.00 44.67 LIG 0.17  HD
ENDBRANCH 36 37
ENDBRANCH 35 36
ENDBRANCH 34 35
ENDBRANCH 33 34
BRANCH 33 46
ATOM     46  N   ARG X   1     -30.683  -3.178  -4.746  1.00 53.50 LIG-0.07  N 
ATOM     47 H1   ARG X   1     -31.052  -3.557  -4.030  1.00 53.50 LIG 0.28  HD
ATOM     48 H3   ARG X   1     -30.969  -2.339  -4.819  1.00 53.50 LIG 0.28  HD
ATOM     49 H2   ARG X   1     -29.797  -3.182  -4.660  1.00 53.50 LIG 0.28  HD
ENDBRANCH 33 46
ENDBRANCH 31 33
ENDBRANCH 1 29
TORSDOF 16
ENDMDL
MODEL 11
USER: ADFR SOLUTION from run 116
USER: SCORE 15.724946 LL:  -1.258 LR: -15.446 RR:   0.000 FEB: -10.674
USER: RMSD 7.478149
USER: SEED 115
USER: STATUS searching
USER: GENES 18
USER: genes 0 Translation |==|  0.59795 0.67972 0.69871
USER: genes 1 Rotation |==|  0.74038 0.32469 0.41380 0.89249
USER: genes 2 Torsion [C]-CA--CB-[CG] |==|  0.18892
USER: genes 3 Torsion [CA]-CB--CG-[CD] |==|  0.16546
USER: genes 4 Torsion [CB]-CG--CD-[NE] |==|  0.01837
USER: genes 5 Torsion [CG]-CD--NE-[HE] |==|  0.73860
USER: genes 6 Torsion [N]-CA--C-[N] |==|  0.46407
USER: genes 7 Torsion [C]-N--CA-[CB] |==|  0.17176
USER: genes 8 Torsion [N]-CA--C-[N] |==|  0.02232
USER: genes 9 Torsion [C]-N--CA-[CB] |==|  0.84600
USER: genes 10 Torsion [N]-CA--C-[OXT] |==|  0.82137
USER: genes 11 Torsion [CB]-CA--N-[C] |==|  0.84780
USER: genes 12 Torsion [N]-C--CA-[N] |==|  0.10871
USER: genes 13 Torsion [C]-CA--CB-[CG] |==|  0.30671
USER: genes 14 Torsion [CA]-CB--CG-[CD] |==|  0.24758
USER: genes 15 Torsion [CB]-CG--CD-[NE] |==|  0.09597
USER: genes 16 Torsion [CG]-CD--NE-[HE] |==|  0.72969
USER: genes 17 Torsion [C]-CA--N-[H3] |==|  0.90631
ROOT
ATOM      1  CA  ARG X   2     -29.231  -1.536  -5.851  1.00 56.86 LIG 0.18  C 
ENDROOT
BRANCH 1 2
ATOM      2  CB  ARG X   2     -29.505  -1.948  -7.300  1.00 56.93 LIG 0.04  C 
BRANCH 2 3
ATOM      3  CG  ARG X   2     -28.394  -2.771  -7.936  1.00 58.33 LIG 0.02  C 
BRANCH 3 4
ATOM      4  CD  ARG X   2     -28.134  -4.054  -7.186  1.00 61.73 LIG 0.14  C 
BRANCH 4 5
ATOM      5  NE  ARG X   2     -29.096  -4.303  -6.114  1.00 63.99 LIG-0.23  N 
ATOM      6 HE   ARG X   2     -28.887  -4.042  -5.323  1.00 63.99 LIG 0.18  HD
ATOM      7  CZ  ARG X   2     -30.277  -4.906  -6.276  1.00 64.82 LIG 0.67  C 
ATOM      8  NH1 ARG X   2     -30.678  -5.326  -7.473  1.00 63.71 LIG-0.23  N 
ATOM      9  NH2 ARG X   2     -31.067  -5.084  -5.226  1.00 65.19 LIG-0.23  N 
ATOM     10 2HH1 ARG X   2     -31.441  -5.714  -7.560  1.00 63.71 LIG 0.17  HD
ATOM     11 1HH1 ARG X   2     -30.174  -5.212  -8.161  1.00 63.71 LIG 0.17  HD
ATOM     12 2HH2 ARG X   2     -31.829  -5.472  -5.322  1.00 65.19 LIG 0.17  HD
ATOM     13 1HH2 ARG X   2     -30.818  -4.812  -4.449  1.00 65.19 LIG 0.17  HD
ENDBRANCH 4 5
ENDBRANCH 3 4
ENDBRANCH 2 3
ENDBRANCH 1 2
BRANCH 1 14
ATOM     14  C   ARG X   2     -28.088  -0.536  -5.790  1.00 57.66 LIG 0.24  C 
ATOM     15  N   ALA X   3     -26.866  -1.008  -6.042  1.00 58.84 LIG-0.35  N 
ATOM     16 H    ALA X   3     -26.698  -1.836  -6.199  1.00 58.84 LIG 0.16  HD
ATOM     17 O    ARG X   2     -28.321   0.645  -5.515  1.00 57.54 LIG-0.27  OA
BRANCH 15 18
ATOM     18  CA  ALA X   3     -25.681  -0.139  -6.074  1.00 60.16 LIG 0.17  C 
ATOM     19  CB  ALA X   3     -25.444   0.526  -4.708  1.00 60.10 LIG 0.04  C 
BRANCH 18 20
ATOM     20  C   ALA X   3     -24.446  -0.918  -6.527  1.00 60.84 LIG 0.24  C 
ATOM     21  N   ALA X   4     -24.686  -2.157  -6.965  1.00 61.66 LIG-0.34  N 
ATOM     22 H    ALA X   4     -25.481  -2.478  -7.022  1.00 61.66 LIG 0.16  HD
ATOM     23 O    ALA X   3     -23.319  -0.411  -6.461  1.00 61.07 LIG-0.27  OA
BRANCH 21 24
ATOM     24  CA  ALA X   4     -23.649  -3.117  -7.398  1.00 62.39 LIG 0.18  C 
ATOM     25  CB  ALA X   4     -22.762  -2.524  -8.510  1.00 62.29 LIG 0.04  C 
BRANCH 24 26
ATOM     26  C   ALA X   4     -22.805  -3.689  -6.251  1.00 62.72 LIG 0.20  C 
ATOM     27 OXT  ALA X   4     -22.071  -2.966  -5.570  1.00 62.96 LIG-0.65  OA
ATOM     28 O    ALA X   4     -22.818  -4.892  -5.974  1.00 63.08 LIG-0.65  OA
ENDBRANCH 24 26
ENDBRANCH 21 24
ENDBRANCH 18 20
ENDBRANCH 15 18
ENDBRANCH 1 14
BRANCH 1 29
ATOM     29  N   ARG X   2     -30.418  -0.930  -5.258  1.00 55.62 LIG-0.35  N 
ATOM     30 H    ARG X   2     -30.675  -1.301  -4.526  1.00 55.62 LIG 0.16  HD
ATOM     31  C   ARG X   1     -31.037   0.109  -5.818  1.00 54.36 LIG 0.25  C 
ATOM     32 O    ARG X   1     -30.626   0.665  -6.838  1.00 54.20 LIG-0.27  OA
BRANCH 31 33
ATOM     33  CA  ARG X   1     -32.316   0.581  -5.134  1.00 53.49 LIG 0.27  C 
BRANCH 33 34
ATOM     34  CB  ARG X   1     -32.643   2.004  -5.598  1.00 53.17 LIG 0.04  C 
BRANCH 34 35
ATOM     35  CG  ARG X   1     -33.866   2.143  -6.490  1.00 51.16 LIG 0.02  C 
BRANCH 35 36
ATOM     36  CD  ARG X   1     -35.125   2.358  -5.682  1.00 48.38 LIG 0.14  C 
BRANCH 36 37
ATOM     37  NE  ARG X   1     -34.880   3.149  -4.478  1.00 47.01 LIG-0.23  N 
ATOM     38 HE   ARG X   1     -34.767   2.723  -3.739  1.00 47.01 LIG 0.18  HD
ATOM     39  CZ  ARG X   1     -34.818   4.482  -4.434  1.00 46.53 LIG 0.67  C 
ATOM     40  NH2 ARG X   1     -34.575   5.090  -3.278  1.00 45.07 LIG-0.23  N 
ATOM     41  NH1 ARG X   1     -34.990   5.212  -5.534  1.00 44.67 LIG-0.23  N 
ATOM     42 2HH2 ARG X   1     -34.533   5.949  -3.243  1.00 45.07 LIG 0.17  HD
ATOM     43 1HH2 ARG X   1     -34.459   4.626  -2.563  1.00 45.07 LIG 0.17  HD
ATOM     44 2HH1 ARG X   1     -34.947   6.070  -5.491  1.00 44.67 LIG 0.17  HD
ATOM     45 1HH1 ARG X   1     -35.143   4.826  -6.287  1.00 44.67 LIG 0.17  HD
ENDBRANCH 36 37
ENDBRANCH 35 36
ENDBRANCH 34 35
ENDBRANCH 33 34
BRANCH 33 46
ATOM     46  N   ARG X   1     -32.193   0.526  -3.646  1.00 53.50 LIG-0.07  N 
ATOM     47 H1   ARG X   1     -31.826   1.281  -3.350  1.00 53.50 LIG 0.28  HD
ATOM     48 H3   ARG X   1     -31.680  -0.163  -3.416  1.00 53.50 LIG 0.28  HD
ATOM     49 H2   ARG X   1     -33.001   0.428  -3.285  1.00 53.50 LIG 0.28  HD
ENDBRANCH 33 46
ENDBRANCH 31 33
ENDBRANCH 1 29
TORSDOF 16
ENDMDL
MODEL 12
USER: ADFR SOLUTION from run 77
USER: SCORE 15.030226 LL:  -1.408 LR: -15.325 RR:   0.000 FEB: -10.553
USER: RMSD 6.563599
USER: SEED 76
USER: STATUS no improvement in best in 4 clusters for 5 generations
USER: GENES 18
USER: genes 0 Translation |==|  0.57272 0.60342 0.62298
USER: genes 1 Rotation |==|  0.13921 0.58745 0.71705 0.75509
USER: genes 2 Torsion [C]-CA--CB-[CG] |==|  0.44332
USER: genes 3 Torsion [CA]-CB--CG-[CD] |==|  0.31918
USER: genes 4 Torsion [CB]-CG--CD-[NE] |==|  0.61726
USER: genes 5 Torsion [CG]-CD--NE-[HE] |==|  0.98707
USER: genes 6 Torsion [N]-CA--C-[N] |==|  0.00364
USER: genes 7 Torsion [C]-N--CA-[CB] |==|  0.25374
USER: genes 8 Torsion [N]-CA--C-[N] |==|  0.64936
USER: genes 9 Torsion [C]-N--CA-[CB] |==|  0.24239
USER: genes 10 Torsion [N]-CA--C-[OXT] |==|  0.17653
USER: genes 11 Torsion [CB]-CA--N-[C] |==|  0.23594
USER: genes 12 Torsion [N]-C--CA-[N] |==|  0.12313
USER: genes 13 Torsion [C]-CA--CB-[CG] |==|  0.71862
USER: genes 14 Torsion [CA]-CB--CG-[CD] |==|  0.61721
USER: genes 15 Torsion [CB]-CG--CD-[NE] |==|  0.00406
USER: genes 16 Torsion [CG]-CD--NE-[HE] |==|  0.19361
USER: genes 17 Torsion [C]-CA--N-[H3] |==|  0.14685
ROOT
ATOM      1  CA  ARG X   2     -29.705  -3.367  -7.328  1.00 56.86 LIG 0.18  C 
ENDROOT
BRANCH 1 2
ATOM      2  CB  ARG X   2     -28.992  -2.826  -6.085  1.00 56.93 LIG 0.04  C 
BRANCH 2 3
ATOM      3  CG  ARG X   2     -28.974  -1.308  -5.987  1.00 58.33 LIG 0.02  C 
BRANCH 3 4
ATOM      4  CD  ARG X   2     -29.764  -0.803  -4.804  1.00 61.73 LIG 0.14  C 
BRANCH 4 5
ATOM      5  NE  ARG X   2     -30.582   0.369  -5.113  1.00 63.99 LIG-0.23  N 
ATOM      6 HE   ARG X   2     -30.508   0.710  -5.899  1.00 63.99 LIG 0.18  HD
ATOM      7  CZ  ARG X   2     -31.435   0.947  -4.264  1.00 64.82 LIG 0.67  C 
ATOM      8  NH1 ARG X   2     -31.614   0.470  -3.035  1.00 63.71 LIG-0.23  N 
ATOM      9  NH2 ARG X   2     -32.121   2.014  -4.654  1.00 65.19 LIG-0.23  N 
ATOM     10 2HH1 ARG X   2     -32.168   0.855  -2.500  1.00 63.71 LIG 0.17  HD
ATOM     11 1HH1 ARG X   2     -31.177  -0.224  -2.775  1.00 63.71 LIG 0.17  HD
ATOM     12 2HH2 ARG X   2     -32.672   2.392  -4.113  1.00 65.19 LIG 0.17  HD
ATOM     13 1HH2 ARG X   2     -32.014   2.327  -5.448  1.00 65.19 LIG 0.17  HD
ENDBRANCH 4 5
ENDBRANCH 3 4
ENDBRANCH 2 3
ENDBRANCH 1 2
BRANCH 1 14
ATOM     14  C   ARG X   2     -29.261  -4.792  -7.616  1.00 57.66 LIG 0.24  C 
ATOM     15  N   ALA X   3     -30.219  -5.719  -7.668  1.00 58.84 LIG-0.35  N 
ATOM     16 H    ALA X   3     -31.049  -5.554  -7.515  1.00 58.84 LIG 0.16  HD
ATOM     17 O    ARG X   2     -28.063  -5.038  -7.786  1.00 57.54 LIG-0.27  OA
BRANCH 15 18
ATOM     18  CA  ALA X   3     -29.935  -7.122  -7.995  1.00 60.16 LIG 0.17  C 
ATOM     19  CB  ALA X   3     -29.662  -7.944  -6.726  1.00 60.10 LIG 0.04  C 
BRANCH 18 20
ATOM     20  C   ALA X   3     -31.076  -7.734  -8.810  1.00 60.84 LIG 0.24  C 
ATOM     21  N   ALA X   4     -31.587  -8.864  -8.313  1.00 61.66 LIG-0.34  N 
ATOM     22 H    ALA X   4     -31.318  -9.200  -7.568  1.00 61.66 LIG 0.16  HD
ATOM     23 O    ALA X   3     -31.458  -7.203  -9.860  1.00 61.07 LIG-0.27  OA
BRANCH 21 24
ATOM     24  CA  ALA X   4     -32.651  -9.665  -8.952  1.00 62.39 LIG 0.18  C 
ATOM     25  CB  ALA X   4     -32.066 -10.683  -9.950  1.00 62.29 LIG 0.04  C 
BRANCH 24 26
ATOM     26  C   ALA X   4     -33.613 -10.336  -7.962  1.00 62.72 LIG 0.20  C 
ATOM     27 OXT  ALA X   4     -34.335  -9.668  -7.215  1.00 62.96 LIG-0.65  OA
ATOM     28 O    ALA X   4     -33.693 -11.564  -7.867  1.00 63.08 LIG-0.65  OA
ENDBRANCH 24 26
ENDBRANCH 21 24
ENDBRANCH 18 20
ENDBRANCH 15 18
ENDBRANCH 1 14
BRANCH 1 29
ATOM     29  N   ARG X   2     -31.150  -3.354  -7.136  1.00 55.62 LIG-0.35  N 
ATOM     30 H    ARG X   2     -31.475  -4.100  -6.858  1.00 55.62 LIG 0.16  HD
ATOM     31  C   ARG X   1     -31.886  -2.270  -7.378  1.00 54.36 LIG 0.25  C 
ATOM     32 O    ARG X   1     -31.400  -1.192  -7.724  1.00 54.20 LIG-0.27  OA
BRANCH 31 33
ATOM     33  CA  ARG X   1     -33.395  -2.430  -7.219  1.00 53.49 LIG 0.27  C 
BRANCH 33 34
ATOM     34  CB  ARG X   1     -34.052  -1.046  -7.212  1.00 53.17 LIG 0.04  C 
BRANCH 34 35
ATOM     35  CG  ARG X   1     -34.442  -0.506  -5.846  1.00 51.16 LIG 0.02  C 
BRANCH 35 36
ATOM     36  CD  ARG X   1     -35.800   0.154  -5.872  1.00 48.38 LIG 0.14  C 
BRANCH 36 37
ATOM     37  NE  ARG X   1     -36.424   0.084  -7.192  1.00 47.01 LIG-0.23  N 
ATOM     38 HE   ARG X   1     -36.688  -0.687  -7.466  1.00 47.01 LIG 0.18  HD
ATOM     39  CZ  ARG X   1     -36.616   1.125  -8.006  1.00 46.53 LIG 0.67  C 
ATOM     40  NH2 ARG X   1     -37.208   0.938  -9.181  1.00 45.07 LIG-0.23  N 
ATOM     41  NH1 ARG X   1     -36.228   2.349  -7.656  1.00 44.67 LIG-0.23  N 
ATOM     42 2HH2 ARG X   1     -37.335   1.605  -9.709  1.00 45.07 LIG 0.17  HD
ATOM     43 1HH2 ARG X   1     -37.466   0.151  -9.412  1.00 45.07 LIG 0.17  HD
ATOM     44 2HH1 ARG X   1     -36.357   3.010  -8.190  1.00 44.67 LIG 0.17  HD
ATOM     45 1HH1 ARG X   1     -35.847   2.479  -6.896  1.00 44.67 LIG 0.17  HD
ENDBRANCH 36 37
ENDBRANCH 35 36
ENDBRANCH 34 35
ENDBRANCH 33 34
BRANCH 33 46
ATOM     46  N   ARG X   1     -33.737  -3.184  -5.976  1.00 53.50 LIG-0.07  N 
ATOM     47 H1   ARG X   1     -34.619  -3.173  -5.855  1.00 53.50 LIG 0.28  HD
ATOM     48 H3   ARG X   1     -33.338  -2.803  -5.278  1.00 53.50 LIG 0.28  HD
ATOM     49 H2   ARG X   1     -33.459  -4.026  -6.053  1.00 53.50 LIG 0.28  HD
ENDBRANCH 33 46
ENDBRANCH 31 33
ENDBRANCH 1 29
TORSDOF 16
ENDMDL
MODEL 13
USER: ADFR SOLUTION from run 21
USER: SCORE 15.562793 LL:  -1.578 LR: -15.320 RR:   0.000 FEB: -10.547
USER: RMSD 4.605027
USER: SEED 20
USER: STATUS no improvement in best in 6 clusters for 5 generations
USER: GENES 18
USER: genes 0 Translation |==|  0.56454 0.48427 0.55880
USER: genes 1 Rotation |==|  0.40079 0.63552 0.51590 0.97068
USER: genes 2 Torsion [C]-CA--CB-[CG] |==|  0.25894
USER: genes 3 Torsion [CA]-CB--CG-[CD] |==|  0.86766
USER: genes 4 Torsion [CB]-CG--CD-[NE] |==|  0.25537
USER: genes 5 Torsion [CG]-CD--NE-[HE] |==|  0.03280
USER: genes 6 Torsion [N]-CA--C-[N] |==|  0.68216
USER: genes 7 Torsion [C]-N--CA-[CB] |==|  0.12492
USER: genes 8 Torsion [N]-CA--C-[N] |==|  0.11653
USER: genes 9 Torsion [C]-N--CA-[CB] |==|  0.11157
USER: genes 10 Torsion [N]-CA--C-[OXT] |==|  0.11653
USER: genes 11 Torsion [CB]-CA--N-[C] |==|  0.22775
USER: genes 12 Torsion [N]-C--CA-[N] |==|  0.36399
USER: genes 13 Torsion [C]-CA--CB-[CG] |==|  0.72615
USER: genes 14 Torsion [CA]-CB--CG-[CD] |==|  0.70447
USER: genes 15 Torsion [CB]-CG--CD-[NE] |==|  0.25523
USER: genes 16 Torsion [CG]-CD--NE-[HE] |==|  0.02517
USER: genes 17 Torsion [C]-CA--N-[H3] |==|  0.78616
ROOT
ATOM      1  CA  ARG X   2     -29.858  -6.227  -8.579  1.00 56.86 LIG 0.18  C 
ENDROOT
BRANCH 1 2
ATOM      2  CB  ARG X   2     -30.022  -7.521  -7.777  1.00 56.93 LIG 0.04  C 
BRANCH 2 3
ATOM      3  CG  ARG X   2     -28.838  -8.471  -7.876  1.00 58.33 LIG 0.02  C 
BRANCH 3 4
ATOM      4  CD  ARG X   2     -28.386  -8.674  -9.302  1.00 61.73 LIG 0.14  C 
BRANCH 4 5
ATOM      5  NE  ARG X   2     -27.338  -7.742  -9.714  1.00 63.99 LIG-0.23  N 
ATOM      6 HE   ARG X   2     -26.956  -7.275  -9.101  1.00 63.99 LIG 0.18  HD
ATOM      7  CZ  ARG X   2     -26.930  -7.564 -10.973  1.00 64.82 LIG 0.67  C 
ATOM      8  NH1 ARG X   2     -27.463  -8.259 -11.975  1.00 63.71 LIG-0.23  N 
ATOM      9  NH2 ARG X   2     -25.972  -6.683 -11.230  1.00 65.19 LIG-0.23  N 
ATOM     10 2HH1 ARG X   2     -27.188  -8.131 -12.781  1.00 63.71 LIG 0.17  HD
ATOM     11 1HH1 ARG X   2     -28.081  -8.835 -11.818  1.00 63.71 LIG 0.17  HD
ATOM     12 2HH2 ARG X   2     -25.704  -6.562 -12.038  1.00 65.19 LIG 0.17  HD
ATOM     13 1HH2 ARG X   2     -25.619  -6.232 -10.588  1.00 65.19 LIG 0.17  HD
ENDBRANCH 4 5
ENDBRANCH 3 4
ENDBRANCH 2 3
ENDBRANCH 1 2
BRANCH 1 14
ATOM     14  C   ARG X   2     -30.470  -6.378  -9.963  1.00 57.66 LIG 0.24  C 
ATOM     15  N   ALA X   3     -31.153  -7.500 -10.196  1.00 58.84 LIG-0.35  N 
ATOM     16 H    ALA X   3     -31.230  -8.138  -9.624  1.00 58.84 LIG 0.16  HD
ATOM     17 O    ARG X   2     -30.317  -5.485 -10.801  1.00 57.54 LIG-0.27  OA
BRANCH 15 18
ATOM     18  CA  ALA X   3     -31.843  -7.748 -11.468  1.00 60.16 LIG 0.17  C 
ATOM     19  CB  ALA X   3     -30.953  -7.374 -12.665  1.00 60.10 LIG 0.04  C 
BRANCH 18 20
ATOM     20  C   ALA X   3     -32.308  -9.201 -11.563  1.00 60.84 LIG 0.24  C 
ATOM     21  N   ALA X   4     -32.837  -9.702 -10.442  1.00 61.66 LIG-0.34  N 
ATOM     22 H    ALA X   4     -32.942  -9.228  -9.733  1.00 61.66 LIG 0.16  HD
ATOM     23 O    ALA X   3     -32.171  -9.843 -12.611  1.00 61.07 LIG-0.27  OA
BRANCH 21 24
ATOM     24  CA  ALA X   4     -33.300 -11.095 -10.274  1.00 62.39 LIG 0.18  C 
ATOM     25  CB  ALA X   4     -32.343 -12.093 -10.956  1.00 62.29 LIG 0.04  C 
BRANCH 24 26
ATOM     26  C   ALA X   4     -33.583 -11.492  -8.819  1.00 62.72 LIG 0.20  C 
ATOM     27 OXT  ALA X   4     -34.165 -10.725  -8.045  1.00 62.96 LIG-0.65  OA
ATOM     28 O    ALA X   4     -33.230 -12.584  -8.364  1.00 63.08 LIG-0.65  OA
ENDBRANCH 24 26
ENDBRANCH 21 24
ENDBRANCH 18 20
ENDBRANCH 15 18
ENDBRANCH 1 14
BRANCH 1 29
ATOM     29  N   ARG X   2     -30.509  -5.115  -7.897  1.00 55.62 LIG-0.35  N 
ATOM     30 H    ARG X   2     -31.295  -4.931  -8.193  1.00 55.62 LIG 0.16  HD
ATOM     31  C   ARG X   1     -29.919  -4.453  -6.902  1.00 54.36 LIG 0.25  C 
ATOM     32 O    ARG X   1     -28.815  -4.762  -6.451  1.00 54.20 LIG-0.27  OA
BRANCH 31 33
ATOM     33  CA  ARG X   1     -30.683  -3.256  -6.342  1.00 53.49 LIG 0.27  C 
BRANCH 33 34
ATOM     34  CB  ARG X   1     -30.012  -1.962  -6.815  1.00 53.17 LIG 0.04  C 
BRANCH 34 35
ATOM     35  CG  ARG X   1     -29.072  -1.303  -5.820  1.00 51.16 LIG 0.02  C 
BRANCH 35 36
ATOM     36  CD  ARG X   1     -29.679  -0.058  -5.216  1.00 48.38 LIG 0.14  C 
BRANCH 36 37
ATOM     37  NE  ARG X   1     -30.398  -0.340  -3.975  1.00 47.01 LIG-0.23  N 
ATOM     38 HE   ARG X   1     -30.316  -1.127  -3.639  1.00 47.01 LIG 0.18  HD
ATOM     39  CZ  ARG X   1     -31.171   0.531  -3.322  1.00 46.53 LIG 0.67  C 
ATOM     40  NH2 ARG X   1     -31.764   0.162  -2.191  1.00 45.07 LIG-0.23  N 
ATOM     41  NH1 ARG X   1     -31.351   1.766  -3.783  1.00 44.67 LIG-0.23  N 
ATOM     42 2HH2 ARG X   1     -32.263   0.718  -1.765  1.00 45.07 LIG 0.17  HD
ATOM     43 1HH2 ARG X   1     -31.648  -0.634  -1.885  1.00 45.07 LIG 0.17  HD
ATOM     44 2HH1 ARG X   1     -31.852   2.317  -3.352  1.00 44.67 LIG 0.17  HD
ATOM     45 1HH1 ARG X   1     -30.968   2.014  -4.511  1.00 44.67 LIG 0.17  HD
ENDBRANCH 36 37
ENDBRANCH 35 36
ENDBRANCH 34 35
ENDBRANCH 33 34
BRANCH 33 46
ATOM     46  N   ARG X   1     -30.752  -3.301  -4.851  1.00 53.50 LIG-0.07  N 
ATOM     47 H1   ARG X   1     -29.959  -3.537  -4.523  1.00 53.50 LIG 0.28  HD
ATOM     48 H3   ARG X   1     -31.365  -3.895  -4.600  1.00 53.50 LIG 0.28  HD
ATOM     49 H2   ARG X   1     -30.974  -2.497  -4.540  1.00 53.50 LIG 0.28  HD
ENDBRANCH 33 46
ENDBRANCH 31 33
ENDBRANCH 1 29
TORSDOF 16
ENDMDL
MODEL 14
USER: ADFR SOLUTION from run 197
USER: SCORE 16.891623 LL:  -2.418 LR: -15.221 RR:   0.000 FEB: -10.448
USER: RMSD 3.391389
USER: SEED 196
USER: STATUS searching
USER: GENES 18
USER: genes 0 Translation |==|  0.60798 0.48250 0.56910
USER: genes 1 Rotation |==|  0.33696 0.64525 0.63354 0.92952
USER: genes 2 Torsion [C]-CA--CB-[CG] |==|  0.97794
USER: genes 3 Torsion [CA]-CB--CG-[CD] |==|  0.82383
USER: genes 4 Torsion [CB]-CG--CD-[NE] |==|  0.62119
USER: genes 5 Torsion [CG]-CD--NE-[HE] |==|  0.27051
USER: genes 6 Torsion [N]-CA--C-[N] |==|  0.96314
USER: genes 7 Torsion [C]-N--CA-[CB] |==|  0.87184
USER: genes 8 Torsion [N]-CA--C-[N] |==|  0.35631
USER: genes 9 Torsion [C]-N--CA-[CB] |==|  0.87928
USER: genes 10 Torsion [N]-CA--C-[OXT] |==|  0.61152
USER: genes 11 Torsion [CB]-CA--N-[C] |==|  0.20380
USER: genes 12 Torsion [N]-C--CA-[N] |==|  0.41806
USER: genes 13 Torsion [C]-CA--CB-[CG] |==|  0.37169
USER: genes 14 Torsion [CA]-CB--CG-[CD] |==|  0.30794
USER: genes 15 Torsion [CB]-CG--CD-[NE] |==|  0.92697
USER: genes 16 Torsion [CG]-CD--NE-[HE] |==|  0.98314
USER: genes 17 Torsion [C]-CA--N-[H3] |==|  0.72818
ROOT
ATOM      1  CA  ARG X   2     -29.043  -6.269  -8.379  1.00 56.86 LIG 0.18  C 
ENDROOT
BRANCH 1 2
ATOM      2  CB  ARG X   2     -28.436  -7.312  -7.436  1.00 56.93 LIG 0.04  C 
BRANCH 2 3
ATOM      3  CG  ARG X   2     -28.747  -8.752  -7.815  1.00 58.33 LIG 0.02  C 
BRANCH 3 4
ATOM      4  CD  ARG X   2     -30.224  -9.055  -7.743  1.00 61.73 LIG 0.14  C 
BRANCH 4 5
ATOM      5  NE  ARG X   2     -30.520 -10.339  -7.109  1.00 63.99 LIG-0.23  N 
ATOM      6 HE   ARG X   2     -30.733 -10.332  -6.277  1.00 63.99 LIG 0.18  HD
ATOM      7  CZ  ARG X   2     -30.482 -11.521  -7.730  1.00 64.82 LIG 0.67  C 
ATOM      8  NH1 ARG X   2     -30.173 -11.612  -9.021  1.00 63.71 LIG-0.23  N 
ATOM      9  NH2 ARG X   2     -30.764 -12.624  -7.049  1.00 65.19 LIG-0.23  N 
ATOM     10 2HH1 ARG X   2     -30.153 -12.381  -9.405  1.00 63.71 LIG 0.17  HD
ATOM     11 1HH1 ARG X   2     -29.993 -10.901  -9.471  1.00 63.71 LIG 0.17  HD
ATOM     12 2HH2 ARG X   2     -30.742 -13.389  -7.442  1.00 65.19 LIG 0.17  HD
ATOM     13 1HH2 ARG X   2     -30.969 -12.574  -6.215  1.00 65.19 LIG 0.17  HD
ENDBRANCH 4 5
ENDBRANCH 3 4
ENDBRANCH 2 3
ENDBRANCH 1 2
BRANCH 1 14
ATOM     14  C   ARG X   2     -29.661  -6.945  -9.592  1.00 57.66 LIG 0.24  C 
ATOM     15  N   ALA X   3     -30.993  -6.958  -9.657  1.00 58.84 LIG-0.35  N 
ATOM     16 H    ALA X   3     -31.503  -6.640  -9.042  1.00 58.84 LIG 0.16  HD
ATOM     17 O    ARG X   2     -28.930  -7.447 -10.451  1.00 57.54 LIG-0.27  OA
BRANCH 15 18
ATOM     18  CA  ALA X   3     -31.717  -7.526 -10.803  1.00 60.16 LIG 0.17  C 
ATOM     19  CB  ALA X   3     -31.112  -7.049 -12.133  1.00 60.10 LIG 0.04  C 
BRANCH 18 20
ATOM     20  C   ALA X   3     -31.744  -9.053 -10.727  1.00 60.84 LIG 0.24  C 
ATOM     21  N   ALA X   4     -32.954  -9.606 -10.846  1.00 61.66 LIG-0.34  N 
ATOM     22 H    ALA X   4     -33.660  -9.137 -10.992  1.00 61.66 LIG 0.16  HD
ATOM     23 O    ALA X   3     -30.702  -9.696 -10.549  1.00 61.07 LIG-0.27  OA
BRANCH 21 24
ATOM     24  CA  ALA X   4     -33.237 -11.053 -10.746  1.00 62.39 LIG 0.18  C 
ATOM     25  CB  ALA X   4     -32.195 -11.885 -11.519  1.00 62.29 LIG 0.04  C 
BRANCH 24 26
ATOM     26  C   ALA X   4     -33.409 -11.561  -9.308  1.00 62.72 LIG 0.20  C 
ATOM     27 OXT  ALA X   4     -32.943 -12.648  -8.951  1.00 62.96 LIG-0.65  OA
ATOM     28 O    ALA X   4     -34.029 -10.912  -8.461  1.00 63.08 LIG-0.65  OA
ENDBRANCH 24 26
ENDBRANCH 21 24
ENDBRANCH 18 20
ENDBRANCH 15 18
ENDBRANCH 1 14
BRANCH 1 29
ATOM     29  N   ARG X   2     -30.075  -5.499  -7.694  1.00 55.62 LIG-0.35  N 
ATOM     30 H    ARG X   2     -30.878  -5.693  -7.935  1.00 55.62 LIG 0.16  HD
ATOM     31  C   ARG X   1     -29.779  -4.578  -6.777  1.00 54.36 LIG 0.25  C 
ATOM     32 O    ARG X   1     -28.628  -4.349  -6.403  1.00 54.20 LIG-0.27  OA
BRANCH 31 33
ATOM     33  CA  ARG X   1     -30.955  -3.790  -6.210  1.00 53.49 LIG 0.27  C 
BRANCH 33 34
ATOM     34  CB  ARG X   1     -31.238  -2.583  -7.111  1.00 53.17 LIG 0.04  C 
BRANCH 34 35
ATOM     35  CG  ARG X   1     -32.697  -2.351  -7.466  1.00 51.16 LIG 0.02  C 
BRANCH 35 36
ATOM     36  CD  ARG X   1     -33.242  -1.106  -6.807  1.00 48.38 LIG 0.14  C 
BRANCH 36 37
ATOM     37  NE  ARG X   1     -32.530  -0.776  -5.575  1.00 47.01 LIG-0.23  N 
ATOM     38 HE   ARG X   1     -31.941  -1.337  -5.294  1.00 47.01 LIG 0.18  HD
ATOM     39  CZ  ARG X   1     -32.720   0.329  -4.850  1.00 46.53 LIG 0.67  C 
ATOM     40  NH2 ARG X   1     -31.999   0.526  -3.751  1.00 45.07 LIG-0.23  N 
ATOM     41  NH1 ARG X   1     -33.619   1.241  -5.216  1.00 44.67 LIG-0.23  N 
ATOM     42 2HH2 ARG X   1     -32.117   1.236  -3.281  1.00 45.07 LIG 0.17  HD
ATOM     43 1HH2 ARG X   1     -31.414  -0.056  -3.511  1.00 45.07 LIG 0.17  HD
ATOM     44 2HH1 ARG X   1     -33.731   1.948  -4.739  1.00 44.67 LIG 0.17  HD
ATOM     45 1HH1 ARG X   1     -34.086   1.123  -5.927  1.00 44.67 LIG 0.17  HD
ENDBRANCH 36 37
ENDBRANCH 35 36
ENDBRANCH 34 35
ENDBRANCH 33 34
BRANCH 33 46
ATOM     46  N   ARG X   1     -30.693  -3.350  -4.806  1.00 53.50 LIG-0.07  N 
ATOM     47 H1   ARG X   1     -29.816  -3.336  -4.659  1.00 53.50 LIG 0.28  HD
ATOM     48 H3   ARG X   1     -31.080  -3.918  -4.241  1.00 53.50 LIG 0.28  HD
ATOM     49 H2   ARG X   1     -31.028  -2.535  -4.683  1.00 53.50 LIG 0.28  HD
ENDBRANCH 33 46
ENDBRANCH 31 33
ENDBRANCH 1 29
TORSDOF 16
ENDMDL
MODEL 15
USER: ADFR SOLUTION from run 28
USER: SCORE 16.478388 LL:  -2.151 LR: -15.205 RR:   0.000 FEB: -10.433
USER: RMSD 7.385231
USER: SEED 27
USER: STATUS no improvement in best in 3 clusters for 5 generations
USER: GENES 18
USER: genes 0 Translation |==|  0.39376 0.65315 0.65358
USER: genes 1 Rotation |==|  0.56542 0.45738 0.14760 0.84601
USER: genes 2 Torsion [C]-CA--CB-[CG] |==|  0.56039
USER: genes 3 Torsion [CA]-CB--CG-[CD] |==|  0.37470
USER: genes 4 Torsion [CB]-CG--CD-[NE] |==|  0.19440
USER: genes 5 Torsion [CG]-CD--NE-[HE] |==|  0.89832
USER: genes 6 Torsion [N]-CA--C-[N] |==|  0.28242
USER: genes 7 Torsion [C]-N--CA-[CB] |==|  0.15226
USER: genes 8 Torsion [N]-CA--C-[N] |==|  0.11376
USER: genes 9 Torsion [C]-N--CA-[CB] |==|  0.24687
USER: genes 10 Torsion [N]-CA--C-[OXT] |==|  0.51818
USER: genes 11 Torsion [CB]-CA--N-[C] |==|  0.83849
USER: genes 12 Torsion [N]-C--CA-[N] |==|  0.88615
USER: genes 13 Torsion [C]-CA--CB-[CG] |==|  0.99011
USER: genes 14 Torsion [CA]-CB--CG-[CD] |==|  0.69261
USER: genes 15 Torsion [CB]-CG--CD-[NE] |==|  0.25022
USER: genes 16 Torsion [CG]-CD--NE-[HE] |==|  0.82511
USER: genes 17 Torsion [C]-CA--N-[H3] |==|  0.21887
ROOT
ATOM      1  CA  ARG X   2     -33.060  -2.173  -6.731  1.00 56.86 LIG 0.18  C 
ENDROOT
BRANCH 1 2
ATOM      2  CB  ARG X   2     -34.446  -1.639  -7.102  1.00 56.93 LIG 0.04  C 
BRANCH 2 3
ATOM      3  CG  ARG X   2     -35.193  -0.986  -5.949  1.00 58.33 LIG 0.02  C 
BRANCH 3 4
ATOM      4  CD  ARG X   2     -35.835   0.319  -6.351  1.00 61.73 LIG 0.14  C 
BRANCH 4 5
ATOM      5  NE  ARG X   2     -36.967   0.151  -7.261  1.00 63.99 LIG-0.23  N 
ATOM      6 HE   ARG X   2     -36.914  -0.472  -7.851  1.00 63.99 LIG 0.18  HD
ATOM      7  CZ  ARG X   2     -38.075   0.895  -7.242  1.00 64.82 LIG 0.67  C 
ATOM      8  NH1 ARG X   2     -38.237   1.870  -6.351  1.00 63.71 LIG-0.23  N 
ATOM      9  NH2 ARG X   2     -39.037   0.655  -8.124  1.00 65.19 LIG-0.23  N 
ATOM     10 2HH1 ARG X   2     -38.957   2.340  -6.354  1.00 63.71 LIG 0.17  HD
ATOM     11 1HH1 ARG X   2     -37.621   2.030  -5.773  1.00 63.71 LIG 0.17  HD
ATOM     12 2HH2 ARG X   2     -39.754   1.130  -8.119  1.00 65.19 LIG 0.17  HD
ATOM     13 1HH2 ARG X   2     -38.943   0.024  -8.702  1.00 65.19 LIG 0.17  HD
ENDBRANCH 4 5
ENDBRANCH 3 4
ENDBRANCH 2 3
ENDBRANCH 1 2
BRANCH 1 14
ATOM     14  C   ARG X   2     -32.193  -2.308  -7.973  1.00 57.66 LIG 0.24  C 
ATOM     15  N   ALA X   3     -31.464  -3.421  -8.076  1.00 58.84 LIG-0.35  N 
ATOM     16 H    ALA X   3     -31.438  -4.031  -7.471  1.00 58.84 LIG 0.16  HD
ATOM     17 O    ARG X   2     -32.191  -1.409  -8.819  1.00 57.54 LIG-0.27  OA
BRANCH 15 18
ATOM     18  CA  ALA X   3     -30.628  -3.704  -9.251  1.00 60.16 LIG 0.17  C 
ATOM     19  CB  ALA X   3     -29.647  -2.553  -9.525  1.00 60.10 LIG 0.04  C 
BRANCH 18 20
ATOM     20  C   ALA X   3     -29.886  -5.030  -9.085  1.00 60.84 LIG 0.24  C 
ATOM     21  N   ALA X   4     -30.604  -6.019  -8.542  1.00 61.66 LIG-0.34  N 
ATOM     22 H    ALA X   4     -31.434  -5.924  -8.338  1.00 61.66 LIG 0.16  HD
ATOM     23 O    ALA X   3     -28.701  -5.139  -9.421  1.00 61.07 LIG-0.27  OA
BRANCH 21 24
ATOM     24  CA  ALA X   4     -30.087  -7.367  -8.231  1.00 62.39 LIG 0.18  C 
ATOM     25  CB  ALA X   4     -29.490  -7.427  -6.811  1.00 62.29 LIG 0.04  C 
BRANCH 24 26
ATOM     26  C   ALA X   4     -31.100  -8.497  -8.463  1.00 62.72 LIG 0.20  C 
ATOM     27 OXT  ALA X   4     -30.851  -9.661  -8.134  1.00 62.96 LIG-0.65  OA
ATOM     28 O    ALA X   4     -32.193  -8.289  -8.998  1.00 63.08 LIG-0.65  OA
ENDBRANCH 24 26
ENDBRANCH 21 24
ENDBRANCH 18 20
ENDBRANCH 15 18
ENDBRANCH 1 14
BRANCH 1 29
ATOM     29  N   ARG X   2     -32.399  -1.275  -5.792  1.00 55.62 LIG-0.35  N 
ATOM     30 H    ARG X   2     -32.176  -1.645  -5.048  1.00 55.62 LIG 0.16  HD
ATOM     31  C   ARG X   1     -32.171   0.006  -6.080  1.00 54.36 LIG 0.25  C 
ATOM     32 O    ARG X   1     -32.447   0.509  -7.170  1.00 54.20 LIG-0.27  OA
BRANCH 31 33
ATOM     33  CA  ARG X   1     -31.551   0.847  -4.968  1.00 53.49 LIG 0.27  C 
BRANCH 33 34
ATOM     34  CB  ARG X   1     -30.036   0.620  -4.946  1.00 53.17 LIG 0.04  C 
BRANCH 34 35
ATOM     35  CG  ARG X   1     -29.507  -0.410  -5.930  1.00 51.16 LIG 0.02  C 
BRANCH 35 36
ATOM     36  CD  ARG X   1     -29.006  -1.649  -5.226  1.00 48.38 LIG 0.14  C 
BRANCH 36 37
ATOM     37  NE  ARG X   1     -30.055  -2.652  -5.057  1.00 47.01 LIG-0.23  N 
ATOM     38 HE   ARG X   1     -30.732  -2.441  -4.570  1.00 47.01 LIG 0.18  HD
ATOM     39  CZ  ARG X   1     -30.046  -3.872  -5.601  1.00 46.53 LIG 0.67  C 
ATOM     40  NH2 ARG X   1     -31.068  -4.694  -5.386  1.00 45.07 LIG-0.23  N 
ATOM     41  NH1 ARG X   1     -29.031  -4.275  -6.361  1.00 44.67 LIG-0.23  N 
ATOM     42 2HH2 ARG X   1     -31.068  -5.480  -5.734  1.00 45.07 LIG 0.17  HD
ATOM     43 1HH2 ARG X   1     -31.730  -4.439  -4.899  1.00 45.07 LIG 0.17  HD
ATOM     44 2HH1 ARG X   1     -29.038  -5.063  -6.705  1.00 44.67 LIG 0.17  HD
ATOM     45 1HH1 ARG X   1     -28.368  -3.748  -6.508  1.00 44.67 LIG 0.17  HD
ENDBRANCH 36 37
ENDBRANCH 35 36
ENDBRANCH 34 35
ENDBRANCH 33 34
BRANCH 33 46
ATOM     46  N   ARG X   1     -32.153   0.526  -3.639  1.00 53.50 LIG-0.07  N 
ATOM     47 H1   ARG X   1     -31.988   1.190  -3.070  1.00 53.50 LIG 0.28  HD
ATOM     48 H3   ARG X   1     -31.797  -0.227  -3.327  1.00 53.50 LIG 0.28  HD
ATOM     49 H2   ARG X   1     -33.032   0.423  -3.728  1.00 53.50 LIG 0.28  HD
ENDBRANCH 33 46
ENDBRANCH 31 33
ENDBRANCH 1 29
TORSDOF 16
ENDMDL
MODEL 16
USER: ADFR SOLUTION from run 14
USER: SCORE 15.690194 LL:  -1.858 LR: -15.129 RR:   0.000 FEB: -10.356
USER: RMSD 8.271489
USER: SEED 259950
USER: STATUS no improvement in best in 3 clusters for 5 generations
USER: GENES 18
USER: genes 0 Translation |==|  0.54472 0.65085 0.58441
USER: genes 1 Rotation |==|  0.20383 0.41454 0.89344 0.51374
USER: genes 2 Torsion [C]-CA--CB-[CG] |==|  0.51760
USER: genes 3 Torsion [CA]-CB--CG-[CD] |==|  0.89328
USER: genes 4 Torsion [CB]-CG--CD-[NE] |==|  0.63668
USER: genes 5 Torsion [CG]-CD--NE-[HE] |==|  0.03846
USER: genes 6 Torsion [N]-CA--C-[N] |==|  0.02719
USER: genes 7 Torsion [C]-N--CA-[CB] |==|  0.83889
USER: genes 8 Torsion [N]-CA--C-[N] |==|  0.29655
USER: genes 9 Torsion [C]-N--CA-[CB] |==|  0.15585
USER: genes 10 Torsion [N]-CA--C-[OXT] |==|  0.13533
USER: genes 11 Torsion [CB]-CA--N-[C] |==|  0.83831
USER: genes 12 Torsion [N]-C--CA-[N] |==|  0.87413
USER: genes 13 Torsion [C]-CA--CB-[CG] |==|  0.88706
USER: genes 14 Torsion [CA]-CB--CG-[CD] |==|  0.48088
USER: genes 15 Torsion [CB]-CG--CD-[NE] |==|  0.70168
USER: genes 16 Torsion [CG]-CD--NE-[HE] |==|  0.06040
USER: genes 17 Torsion [C]-CA--N-[H3] |==|  0.28077
ROOT
ATOM      1  CA  ARG X   2     -30.230  -2.229  -8.080  1.00 56.86 LIG 0.18  C 
ENDROOT
BRANCH 1 2
ATOM      2  CB  ARG X   2     -30.345  -0.998  -7.177  1.00 56.93 LIG 0.04  C 
BRANCH 2 3
ATOM      3  CG  ARG X   2     -31.614  -0.953  -6.340  1.00 58.33 LIG 0.02  C 
BRANCH 3 4
ATOM      4  CD  ARG X   2     -32.817  -1.457  -7.100  1.00 61.73 LIG 0.14  C 
BRANCH 4 5
ATOM      5  NE  ARG X   2     -33.968  -0.560  -7.021  1.00 63.99 LIG-0.23  N 
ATOM      6 HE   ARG X   2     -33.833   0.236  -6.727  1.00 63.99 LIG 0.18  HD
ATOM      7  CZ  ARG X   2     -35.214  -0.887  -7.374  1.00 64.82 LIG 0.67  C 
ATOM      8  NH1 ARG X   2     -35.500  -2.096  -7.851  1.00 63.71 LIG-0.23  N 
ATOM      9  NH2 ARG X   2     -36.183   0.010  -7.252  1.00 65.19 LIG-0.23  N 
ATOM     10 2HH1 ARG X   2     -36.309  -2.290  -8.073  1.00 63.71 LIG 0.17  HD
ATOM     11 1HH1 ARG X   2     -34.878  -2.683  -7.938  1.00 63.71 LIG 0.17  HD
ATOM     12 2HH2 ARG X   2     -36.989  -0.193  -7.476  1.00 65.19 LIG 0.17  HD
ATOM     13 1HH2 ARG X   2     -36.007   0.795  -6.948  1.00 65.19 LIG 0.17  HD
ENDBRANCH 4 5
ENDBRANCH 3 4
ENDBRANCH 2 3
ENDBRANCH 1 2
BRANCH 1 14
ATOM     14  C   ARG X   2     -28.868  -2.266  -8.755  1.00 57.66 LIG 0.24  C 
ATOM     15  N   ALA X   3     -28.205  -3.423  -8.701  1.00 58.84 LIG-0.35  N 
ATOM     16 H    ALA X   3     -28.491  -4.117  -8.282  1.00 58.84 LIG 0.16  HD
ATOM     17 O    ARG X   2     -28.433  -1.255  -9.314  1.00 57.54 LIG-0.27  OA
BRANCH 15 18
ATOM     18  CA  ALA X   3     -26.906  -3.613  -9.361  1.00 60.16 LIG 0.17  C 
ATOM     19  CB  ALA X   3     -27.007  -3.343 -10.871  1.00 60.10 LIG 0.04  C 
BRANCH 18 20
ATOM     20  C   ALA X   3     -25.833  -2.737  -8.716  1.00 60.84 LIG 0.24  C 
ATOM     21  N   ALA X   4     -24.945  -3.390  -7.960  1.00 61.66 LIG-0.34  N 
ATOM     22 H    ALA X   4     -24.957  -4.245  -7.874  1.00 61.66 LIG 0.16  HD
ATOM     23 O    ALA X   3     -25.828  -1.512  -8.888  1.00 61.07 LIG-0.27  OA
BRANCH 21 24
ATOM     24  CA  ALA X   4     -23.857  -2.752  -7.191  1.00 62.39 LIG 0.18  C 
ATOM     25  CB  ALA X   4     -24.402  -1.687  -6.220  1.00 62.29 LIG 0.04  C 
BRANCH 24 26
ATOM     26  C   ALA X   4     -22.929  -3.744  -6.475  1.00 62.72 LIG 0.20  C 
ATOM     27 OXT  ALA X   4     -22.447  -4.715  -7.066  1.00 62.96 LIG-0.65  OA
ATOM     28 O    ALA X   4     -22.640  -3.615  -5.282  1.00 63.08 LIG-0.65  OA
ENDBRANCH 24 26
ENDBRANCH 21 24
ENDBRANCH 18 20
ENDBRANCH 15 18
ENDBRANCH 1 14
BRANCH 1 29
ATOM     29  N   ARG X   2     -30.404  -3.451  -7.305  1.00 55.62 LIG-0.35  N 
ATOM     30 H    ARG X   2     -31.051  -3.950  -7.573  1.00 55.62 LIG 0.16  HD
ATOM     31  C   ARG X   1     -29.617  -3.752  -6.272  1.00 54.36 LIG 0.25  C 
ATOM     32 O    ARG X   1     -28.659  -3.056  -5.932  1.00 54.20 LIG-0.27  OA
BRANCH 31 33
ATOM     33  CA  ARG X   1     -29.972  -5.019  -5.500  1.00 53.49 LIG 0.27  C 
BRANCH 33 34
ATOM     34  CB  ARG X   1     -29.500  -6.243  -6.292  1.00 53.17 LIG 0.04  C 
BRANCH 34 35
ATOM     35  CG  ARG X   1     -29.716  -6.182  -7.795  1.00 51.16 LIG 0.02  C 
BRANCH 35 36
ATOM     36  CD  ARG X   1     -29.072  -7.352  -8.501  1.00 48.38 LIG 0.14  C 
BRANCH 36 37
ATOM     37  NE  ARG X   1     -27.876  -6.960  -9.243  1.00 47.01 LIG-0.23  N 
ATOM     38 HE   ARG X   1     -27.482  -6.233  -9.006  1.00 47.01 LIG 0.18  HD
ATOM     39  CZ  ARG X   1     -27.347  -7.642 -10.261  1.00 46.53 LIG 0.67  C 
ATOM     40  NH2 ARG X   1     -26.245  -7.191 -10.851  1.00 45.07 LIG-0.23  N 
ATOM     41  NH1 ARG X   1     -27.903  -8.772 -10.691  1.00 44.67 LIG-0.23  N 
ATOM     42 2HH2 ARG X   1     -25.899  -7.626 -11.507  1.00 45.07 LIG 0.17  HD
ATOM     43 1HH2 ARG X   1     -25.877  -6.464 -10.576  1.00 45.07 LIG 0.17  HD
ATOM     44 2HH1 ARG X   1     -27.552  -9.201 -11.349  1.00 44.67 LIG 0.17  HD
ATOM     45 1HH1 ARG X   1     -28.614  -9.073 -10.313  1.00 44.67 LIG 0.17  HD
ENDBRANCH 36 37
ENDBRANCH 35 36
ENDBRANCH 34 35
ENDBRANCH 33 34
BRANCH 33 46
ATOM     46  N   ARG X   1     -31.438  -5.100  -5.226  1.00 53.50 LIG-0.07  N 
ATOM     47 H1   ARG X   1     -31.569  -5.398  -4.398  1.00 53.50 LIG 0.28  HD
ATOM     48 H3   ARG X   1     -31.818  -5.658  -5.805  1.00 53.50 LIG 0.28  HD
ATOM     49 H2   ARG X   1     -31.801  -4.292  -5.312  1.00 53.50 LIG 0.28  HD
ENDBRANCH 33 46
ENDBRANCH 31 33
ENDBRANCH 1 29
TORSDOF 16
ENDMDL
MODEL 17
USER: ADFR SOLUTION from run 148
USER: SCORE 15.408213 LL:  -2.218 LR: -15.060 RR:   0.000 FEB: -10.288
USER: RMSD 6.620947
USER: SEED 147
USER: STATUS no improvement in best in 10 clusters for 5 generations
USER: GENES 18
USER: genes 0 Translation |==|  0.53588 0.61925 0.71216
USER: genes 1 Rotation |==|  0.50203 0.30358 0.52598 0.95907
USER: genes 2 Torsion [C]-CA--CB-[CG] |==|  0.15175
USER: genes 3 Torsion [CA]-CB--CG-[CD] |==|  0.61839
USER: genes 4 Torsion [CB]-CG--CD-[NE] |==|  0.27294
USER: genes 5 Torsion [CG]-CD--NE-[HE] |==|  0.26613
USER: genes 6 Torsion [N]-CA--C-[N] |==|  0.33889
USER: genes 7 Torsion [C]-N--CA-[CB] |==|  0.43879
USER: genes 8 Torsion [N]-CA--C-[N] |==|  0.62520
USER: genes 9 Torsion [C]-N--CA-[CB] |==|  0.28749
USER: genes 10 Torsion [N]-CA--C-[OXT] |==|  0.34569
USER: genes 11 Torsion [CB]-CA--N-[C] |==|  0.85545
USER: genes 12 Torsion [N]-C--CA-[N] |==|  0.66702
USER: genes 13 Torsion [C]-CA--CB-[CG] |==|  0.49631
USER: genes 14 Torsion [CA]-CB--CG-[CD] |==|  0.72198
USER: genes 15 Torsion [CB]-CG--CD-[NE] |==|  0.71565
USER: genes 16 Torsion [CG]-CD--NE-[HE] |==|  0.05978
USER: genes 17 Torsion [C]-CA--N-[H3] |==|  0.30132
ROOT
ATOM      1  CA  ARG X   2     -30.395  -2.987  -5.589  1.00 56.86 LIG 0.18  C 
ENDROOT
BRANCH 1 2
ATOM      2  CB  ARG X   2     -30.618  -4.474  -5.876  1.00 56.93 LIG 0.04  C 
BRANCH 2 3
ATOM      3  CG  ARG X   2     -29.373  -5.334  -5.720  1.00 58.33 LIG 0.02  C 
BRANCH 3 4
ATOM      4  CD  ARG X   2     -29.235  -6.347  -6.830  1.00 61.73 LIG 0.14  C 
BRANCH 4 5
ATOM      5  NE  ARG X   2     -28.322  -5.921  -7.890  1.00 63.99 LIG-0.23  N 
ATOM      6 HE   ARG X   2     -27.509  -6.195  -7.849  1.00 63.99 LIG 0.18  HD
ATOM      7  CZ  ARG X   2     -28.662  -5.138  -8.917  1.00 64.82 LIG 0.67  C 
ATOM      8  NH1 ARG X   2     -29.905  -4.684  -9.057  1.00 63.71 LIG-0.23  N 
ATOM      9  NH2 ARG X   2     -27.745  -4.810  -9.818  1.00 65.19 LIG-0.23  N 
ATOM     10 2HH1 ARG X   2     -30.106  -4.180  -9.724  1.00 63.71 LIG 0.17  HD
ATOM     11 1HH1 ARG X   2     -30.507  -4.895  -8.480  1.00 63.71 LIG 0.17  HD
ATOM     12 2HH2 ARG X   2     -27.955  -4.305 -10.482  1.00 65.19 LIG 0.17  HD
ATOM     13 1HH2 ARG X   2     -26.940  -5.102  -9.738  1.00 65.19 LIG 0.17  HD
ENDBRANCH 4 5
ENDBRANCH 3 4
ENDBRANCH 2 3
ENDBRANCH 1 2
BRANCH 1 14
ATOM     14  C   ARG X   2     -29.262  -2.445  -6.445  1.00 57.66 LIG 0.24  C 
ATOM     15  N   ALA X   3     -28.181  -2.004  -5.798  1.00 58.84 LIG-0.35  N 
ATOM     16 H    ALA X   3     -28.115  -1.982  -4.941  1.00 58.84 LIG 0.16  HD
ATOM     17 O    ARG X   2     -29.376  -2.429  -7.674  1.00 57.54 LIG-0.27  OA
BRANCH 15 18
ATOM     18  CA  ALA X   3     -26.992  -1.509  -6.504  1.00 60.16 LIG 0.17  C 
ATOM     19  CB  ALA X   3     -26.154  -0.588  -5.604  1.00 60.10 LIG 0.04  C 
BRANCH 18 20
ATOM     20  C   ALA X   3     -26.152  -2.670  -7.036  1.00 60.84 LIG 0.24  C 
ATOM     21  N   ALA X   4     -24.836  -2.562  -6.827  1.00 61.66 LIG-0.34  N 
ATOM     22 H    ALA X   4     -24.494  -1.905  -6.391  1.00 61.66 LIG 0.16  HD
ATOM     23 O    ALA X   3     -26.683  -3.616  -7.630  1.00 61.07 LIG-0.27  OA
BRANCH 21 24
ATOM     24  CA  ALA X   4     -23.822  -3.526  -7.300  1.00 62.39 LIG 0.18  C 
ATOM     25  CB  ALA X   4     -23.064  -2.989  -8.529  1.00 62.29 LIG 0.04  C 
BRANCH 24 26
ATOM     26  C   ALA X   4     -22.855  -4.007  -6.209  1.00 62.72 LIG 0.20  C 
ATOM     27 OXT  ALA X   4     -22.708  -5.209  -5.964  1.00 62.96 LIG-0.65  OA
ATOM     28 O    ALA X   4     -22.199  -3.213  -5.528  1.00 63.08 LIG-0.65  OA
ENDBRANCH 24 26
ENDBRANCH 21 24
ENDBRANCH 18 20
ENDBRANCH 15 18
ENDBRANCH 1 14
BRANCH 1 29
ATOM     29  N   ARG X   2     -31.605  -2.223  -5.873  1.00 55.62 LIG-0.35  N 
ATOM     30 H    ARG X   2     -31.862  -1.717  -5.227  1.00 55.62 LIG 0.16  HD
ATOM     31  C   ARG X   1     -32.243  -2.317  -7.039  1.00 54.36 LIG 0.25  C 
ATOM     32 O    ARG X   1     -31.833  -3.004  -7.976  1.00 54.20 LIG-0.27  OA
BRANCH 31 33
ATOM     33  CA  ARG X   1     -33.542  -1.528  -7.162  1.00 53.49 LIG 0.27  C 
BRANCH 33 34
ATOM     34  CB  ARG X   1     -33.773  -0.728  -5.875  1.00 53.17 LIG 0.04  C 
BRANCH 34 35
ATOM     35  CG  ARG X   1     -35.020   0.141  -5.851  1.00 51.16 LIG 0.02  C 
BRANCH 35 36
ATOM     36  CD  ARG X   1     -34.697   1.588  -6.139  1.00 48.38 LIG 0.14  C 
BRANCH 36 37
ATOM     37  NE  ARG X   1     -34.683   2.404  -4.927  1.00 47.01 LIG-0.23  N 
ATOM     38 HE   ARG X   1     -34.568   1.998  -4.177  1.00 47.01 LIG 0.18  HD
ATOM     39  CZ  ARG X   1     -34.836   3.729  -4.892  1.00 46.53 LIG 0.67  C 
ATOM     40  NH2 ARG X   1     -34.790   4.365  -3.726  1.00 45.07 LIG-0.23  N 
ATOM     41  NH1 ARG X   1     -35.027   4.427  -6.010  1.00 44.67 LIG-0.23  N 
ATOM     42 2HH2 ARG X   1     -34.888   5.219  -3.697  1.00 45.07 LIG 0.17  HD
ATOM     43 1HH2 ARG X   1     -34.663   3.922  -3.000  1.00 45.07 LIG 0.17  HD
ATOM     44 2HH1 ARG X   1     -35.124   5.280  -5.973  1.00 44.67 LIG 0.17  HD
ATOM     45 1HH1 ARG X   1     -35.054   4.023  -6.769  1.00 44.67 LIG 0.17  HD
ENDBRANCH 36 37
ENDBRANCH 35 36
ENDBRANCH 34 35
ENDBRANCH 33 34
BRANCH 33 46
ATOM     46  N   ARG X   1     -34.703  -2.425  -7.441  1.00 53.50 LIG-0.07  N 
ATOM     47 H1   ARG X   1     -35.175  -2.098  -8.121  1.00 53.50 LIG 0.28  HD
ATOM     48 H3   ARG X   1     -35.220  -2.476  -6.719  1.00 53.50 LIG 0.28  HD
ATOM     49 H2   ARG X   1     -34.406  -3.238  -7.650  1.00 53.50 LIG 0.28  HD
ENDBRANCH 33 46
ENDBRANCH 31 33
ENDBRANCH 1 29
TORSDOF 16
ENDMDL
MODEL 18
USER: ADFR SOLUTION from run 182
USER: SCORE 15.981467 LL:  -2.127 LR: -15.045 RR:   0.000 FEB: -10.272
USER: RMSD 5.906914
USER: SEED 181
USER: STATUS no improvement in best in 3 clusters for 5 generations
USER: GENES 18
USER: genes 0 Translation |==|  0.61408 0.53260 0.54863
USER: genes 1 Rotation |==|  0.69612 0.42294 0.38663 0.93903
USER: genes 2 Torsion [C]-CA--CB-[CG] |==|  0.36049
USER: genes 3 Torsion [CA]-CB--CG-[CD] |==|  0.91919
USER: genes 4 Torsion [CB]-CG--CD-[NE] |==|  0.82244
USER: genes 5 Torsion [CG]-CD--NE-[HE] |==|  0.34748
USER: genes 6 Torsion [N]-CA--C-[N] |==|  0.44445
USER: genes 7 Torsion [C]-N--CA-[CB] |==|  0.84052
USER: genes 8 Torsion [N]-CA--C-[N] |==|  0.14596
USER: genes 9 Torsion [C]-N--CA-[CB] |==|  0.21360
USER: genes 10 Torsion [N]-CA--C-[OXT] |==|  0.01923
USER: genes 11 Torsion [CB]-CA--N-[C] |==|  0.50883
USER: genes 12 Torsion [N]-C--CA-[N] |==|  0.22730
USER: genes 13 Torsion [C]-CA--CB-[CG] |==|  0.25354
USER: genes 14 Torsion [CA]-CB--CG-[CD] |==|  0.46993
USER: genes 15 Torsion [CB]-CG--CD-[NE] |==|  0.63293
USER: genes 16 Torsion [CG]-CD--NE-[HE] |==|  0.68858
USER: genes 17 Torsion [C]-CA--N-[H3] |==|  0.72972
ROOT
ATOM      1  CA  ARG X   2     -28.929  -5.067  -8.778  1.00 56.86 LIG 0.18  C 
ENDROOT
BRANCH 1 2
ATOM      2  CB  ARG X   2     -29.768  -5.683  -9.901  1.00 56.93 LIG 0.04  C 
BRANCH 2 3
ATOM      3  CG  ARG X   2     -29.776  -7.204  -9.911  1.00 58.33 LIG 0.02  C 
BRANCH 3 4
ATOM      4  CD  ARG X   2     -28.505  -7.786  -9.344  1.00 61.73 LIG 0.14  C 
BRANCH 4 5
ATOM      5  NE  ARG X   2     -27.318  -7.459 -10.132  1.00 63.99 LIG-0.23  N 
ATOM      6 HE   ARG X   2     -26.661  -7.081  -9.726  1.00 63.99 LIG 0.18  HD
ATOM      7  CZ  ARG X   2     -27.179  -7.706 -11.437  1.00 64.82 LIG 0.67  C 
ATOM      8  NH1 ARG X   2     -28.146  -8.301 -12.133  1.00 63.71 LIG-0.23  N 
ATOM      9  NH2 ARG X   2     -26.056  -7.358 -12.051  1.00 65.19 LIG-0.23  N 
ATOM     10 2HH1 ARG X   2     -28.040  -8.451 -12.974  1.00 63.71 LIG 0.17  HD
ATOM     11 1HH1 ARG X   2     -28.876  -8.534 -11.743  1.00 63.71 LIG 0.17  HD
ATOM     12 2HH2 ARG X   2     -25.959  -7.513 -12.892  1.00 65.19 LIG 0.17  HD
ATOM     13 1HH2 ARG X   2     -25.425  -6.976 -11.609  1.00 65.19 LIG 0.17  HD
ENDBRANCH 4 5
ENDBRANCH 3 4
ENDBRANCH 2 3
ENDBRANCH 1 2
BRANCH 1 14
ATOM     14  C   ARG X   2     -27.981  -4.019  -9.338  1.00 57.66 LIG 0.24  C 
ATOM     15  N   ALA X   3     -26.876  -4.469  -9.935  1.00 58.84 LIG-0.35  N 
ATOM     16 H    ALA X   3     -26.667  -5.302  -9.985  1.00 58.84 LIG 0.16  HD
ATOM     17 O    ARG X   2     -28.255  -2.821  -9.222  1.00 57.54 LIG-0.27  OA
BRANCH 15 18
ATOM     18  CA  ALA X   3     -25.905  -3.568 -10.570  1.00 60.16 LIG 0.17  C 
ATOM     19  CB  ALA X   3     -26.573  -2.708 -11.655  1.00 60.10 LIG 0.04  C 
BRANCH 18 20
ATOM     20  C   ALA X   3     -25.210  -2.693  -9.526  1.00 60.84 LIG 0.24  C 
ATOM     21  N   ALA X   4     -24.660  -3.357  -8.505  1.00 61.66 LIG-0.34  N 
ATOM     22 H    ALA X   4     -24.665  -4.215  -8.460  1.00 61.66 LIG 0.16  HD
ATOM     23 O    ALA X   3     -25.195  -1.461  -9.641  1.00 61.07 LIG-0.27  OA
BRANCH 21 24
ATOM     24  CA  ALA X   4     -23.989  -2.726  -7.350  1.00 62.39 LIG 0.18  C 
ATOM     25  CB  ALA X   4     -25.011  -2.148  -6.351  1.00 62.29 LIG 0.04  C 
BRANCH 24 26
ATOM     26  C   ALA X   4     -22.965  -3.629  -6.648  1.00 62.72 LIG 0.20  C 
ATOM     27 OXT  ALA X   4     -22.654  -4.730  -7.113  1.00 62.96 LIG-0.65  OA
ATOM     28 O    ALA X   4     -22.426  -3.296  -5.589  1.00 63.08 LIG-0.65  OA
ENDBRANCH 24 26
ENDBRANCH 21 24
ENDBRANCH 18 20
ENDBRANCH 15 18
ENDBRANCH 1 14
BRANCH 1 29
ATOM     29  N   ARG X   2     -29.789  -4.438  -7.781  1.00 55.62 LIG-0.35  N 
ATOM     30 H    ARG X   2     -30.630  -4.534  -7.931  1.00 55.62 LIG 0.16  HD
ATOM     31  C   ARG X   1     -29.293  -3.777  -6.736  1.00 54.36 LIG 0.25  C 
ATOM     32 O    ARG X   1     -28.086  -3.695  -6.504  1.00 54.20 LIG-0.27  OA
BRANCH 31 33
ATOM     33  CA  ARG X   1     -30.310  -3.096  -5.825  1.00 53.49 LIG 0.27  C 
BRANCH 33 34
ATOM     34  CB  ARG X   1     -29.633  -1.933  -5.092  1.00 53.17 LIG 0.04  C 
BRANCH 34 35
ATOM     35  CG  ARG X   1     -29.716  -0.581  -5.781  1.00 51.16 LIG 0.02  C 
BRANCH 35 36
ATOM     36  CD  ARG X   1     -29.260   0.538  -4.873  1.00 48.38 LIG 0.14  C 
BRANCH 36 37
ATOM     37  NE  ARG X   1     -30.194   1.661  -4.867  1.00 47.01 LIG-0.23  N 
ATOM     38 HE   ARG X   1     -29.928   2.400  -5.219  1.00 47.01 LIG 0.18  HD
ATOM     39  CZ  ARG X   1     -31.428   1.630  -4.360  1.00 46.53 LIG 0.67  C 
ATOM     40  NH2 ARG X   1     -32.192   2.716  -4.426  1.00 45.07 LIG-0.23  N 
ATOM     41  NH1 ARG X   1     -31.908   0.526  -3.793  1.00 44.67 LIG-0.23  N 
ATOM     42 2HH2 ARG X   1     -32.989   2.702  -4.101  1.00 45.07 LIG 0.17  HD
ATOM     43 1HH2 ARG X   1     -31.891   3.432  -4.794  1.00 45.07 LIG 0.17  HD
ATOM     44 2HH1 ARG X   1     -32.705   0.520  -3.470  1.00 44.67 LIG 0.17  HD
ATOM     45 1HH1 ARG X   1     -31.422  -0.181  -3.749  1.00 44.67 LIG 0.17  HD
ENDBRANCH 36 37
ENDBRANCH 35 36
ENDBRANCH 34 35
ENDBRANCH 33 34
BRANCH 33 46
ATOM     46  N   ARG X   1     -30.904  -4.060  -4.851  1.00 53.50 LIG-0.07  N 
ATOM     47 H1   ARG X   1     -30.353  -4.751  -4.744  1.00 53.50 LIG 0.28  HD
ATOM     48 H3   ARG X   1     -31.686  -4.350  -5.160  1.00 53.50 LIG 0.28  HD
ATOM     49 H2   ARG X   1     -31.026  -3.654  -4.069  1.00 53.50 LIG 0.28  HD
ENDBRANCH 33 46
ENDBRANCH 31 33
ENDBRANCH 1 29
TORSDOF 16
ENDMDL
MODEL 19
USER: ADFR SOLUTION from run 62
USER: SCORE 15.119818 LL:  -1.987 LR: -15.030 RR:   0.000 FEB: -10.257
USER: RMSD 7.112298
USER: SEED 61
USER: STATUS no improvement in best in 8 clusters for 5 generations
USER: GENES 18
USER: genes 0 Translation |==|  0.52884 0.63258 0.66495
USER: genes 1 Rotation |==|  0.70972 0.37540 0.39292 0.92312
USER: genes 2 Torsion [C]-CA--CB-[CG] |==|  0.23127
USER: genes 3 Torsion [CA]-CB--CG-[CD] |==|  0.97957
USER: genes 4 Torsion [CB]-CG--CD-[NE] |==|  0.59853
USER: genes 5 Torsion [CG]-CD--NE-[HE] |==|  0.66713
USER: genes 6 Torsion [N]-CA--C-[N] |==|  0.35016
USER: genes 7 Torsion [C]-N--CA-[CB] |==|  0.29105
USER: genes 8 Torsion [N]-CA--C-[N] |==|  0.74279
USER: genes 9 Torsion [C]-N--CA-[CB] |==|  0.13154
USER: genes 10 Torsion [N]-CA--C-[OXT] |==|  0.78460
USER: genes 11 Torsion [CB]-CA--N-[C] |==|  0.87222
USER: genes 12 Torsion [N]-C--CA-[N] |==|  0.16971
USER: genes 13 Torsion [C]-CA--CB-[CG] |==|  0.29593
USER: genes 14 Torsion [CA]-CB--CG-[CD] |==|  0.43843
USER: genes 15 Torsion [CB]-CG--CD-[NE] |==|  0.34766
USER: genes 16 Torsion [CG]-CD--NE-[HE] |==|  0.92928
USER: genes 17 Torsion [C]-CA--N-[H3] |==|  0.92791
ROOT
ATOM      1  CA  ARG X   2     -30.527  -2.667  -6.510  1.00 56.86 LIG 0.18  C 
ENDROOT
BRANCH 1 2
ATOM      2  CB  ARG X   2     -31.160  -3.209  -7.795  1.00 56.93 LIG 0.04  C 
BRANCH 2 3
ATOM      3  CG  ARG X   2     -30.394  -4.360  -8.430  1.00 58.33 LIG 0.02  C 
BRANCH 3 4
ATOM      4  CD  ARG X   2     -29.070  -4.609  -7.751  1.00 61.73 LIG 0.14  C 
BRANCH 4 5
ATOM      5  NE  ARG X   2     -28.015  -5.024  -8.675  1.00 63.99 LIG-0.23  N 
ATOM      6 HE   ARG X   2     -27.651  -5.791  -8.545  1.00 63.99 LIG 0.18  HD
ATOM      7  CZ  ARG X   2     -27.578  -4.298  -9.707  1.00 64.82 LIG 0.67  C 
ATOM      8  NH1 ARG X   2     -28.102  -3.106  -9.982  1.00 63.71 LIG-0.23  N 
ATOM      9  NH2 ARG X   2     -26.609  -4.775 -10.476  1.00 65.19 LIG-0.23  N 
ATOM     10 2HH1 ARG X   2     -27.807  -2.651 -10.651  1.00 63.71 LIG 0.17  HD
ATOM     11 1HH1 ARG X   2     -28.734  -2.790  -9.492  1.00 63.71 LIG 0.17  HD
ATOM     12 2HH2 ARG X   2     -26.321  -4.313 -11.143  1.00 65.19 LIG 0.17  HD
ATOM     13 1HH2 ARG X   2     -26.267  -5.547 -10.308  1.00 65.19 LIG 0.17  HD
ENDBRANCH 4 5
ENDBRANCH 3 4
ENDBRANCH 2 3
ENDBRANCH 1 2
BRANCH 1 14
ATOM     14  C   ARG X   2     -29.430  -1.668  -6.838  1.00 57.66 LIG 0.24  C 
ATOM     15  N   ALA X   3     -28.180  -2.032  -6.543  1.00 58.84 LIG-0.35  N 
ATOM     16 H    ALA X   3     -27.979  -2.772  -6.154  1.00 58.84 LIG 0.16  HD
ATOM     17 O    ARG X   2     -29.722  -0.584  -7.350  1.00 57.54 LIG-0.27  OA
BRANCH 15 18
ATOM     18  CA  ALA X   3     -27.022  -1.187  -6.861  1.00 60.16 LIG 0.17  C 
ATOM     19  CB  ALA X   3     -26.473  -0.500  -5.600  1.00 60.10 LIG 0.04  C 
BRANCH 18 20
ATOM     20  C   ALA X   3     -25.932  -1.997  -7.563  1.00 60.84 LIG 0.24  C 
ATOM     21  N   ALA X   4     -25.006  -2.523  -6.756  1.00 61.66 LIG-0.34  N 
ATOM     22 H    ALA X   4     -25.043  -2.442  -5.901  1.00 61.66 LIG 0.16  HD
ATOM     23 O    ALA X   3     -25.929  -2.120  -8.794  1.00 61.07 LIG-0.27  OA
BRANCH 21 24
ATOM     24  CA  ALA X   4     -23.828  -3.292  -7.208  1.00 62.39 LIG 0.18  C 
ATOM     25  CB  ALA X   4     -23.100  -2.579  -8.364  1.00 62.29 LIG 0.04  C 
BRANCH 24 26
ATOM     26  C   ALA X   4     -22.857  -3.673  -6.082  1.00 62.72 LIG 0.20  C 
ATOM     27 OXT  ALA X   4     -22.068  -2.849  -5.607  1.00 62.96 LIG-0.65  OA
ATOM     28 O    ALA X   4     -22.819  -4.816  -5.617  1.00 63.08 LIG-0.65  OA
ENDBRANCH 24 26
ENDBRANCH 21 24
ENDBRANCH 18 20
ENDBRANCH 15 18
ENDBRANCH 1 14
BRANCH 1 29
ATOM     29  N   ARG X   2     -31.531  -2.008  -5.683  1.00 55.62 LIG-0.35  N 
ATOM     30 H    ARG X   2     -31.501  -2.224  -4.851  1.00 55.62 LIG 0.16  HD
ATOM     31  C   ARG X   1     -32.412  -1.147  -6.192  1.00 54.36 LIG 0.25  C 
ATOM     32 O    ARG X   1     -32.409  -0.804  -7.376  1.00 54.20 LIG-0.27  OA
BRANCH 31 33
ATOM     33  CA  ARG X   1     -33.459  -0.602  -5.226  1.00 53.49 LIG 0.27  C 
BRANCH 33 34
ATOM     34  CB  ARG X   1     -34.440   0.291  -5.993  1.00 53.17 LIG 0.04  C 
BRANCH 34 35
ATOM     35  CG  ARG X   1     -35.820  -0.297  -6.232  1.00 51.16 LIG 0.02  C 
BRANCH 35 36
ATOM     36  CD  ARG X   1     -36.850   0.779  -6.487  1.00 48.38 LIG 0.14  C 
BRANCH 36 37
ATOM     37  NE  ARG X   1     -37.566   0.573  -7.744  1.00 47.01 LIG-0.23  N 
ATOM     38 HE   ARG X   1     -37.165   0.126  -8.360  1.00 47.01 LIG 0.18  HD
ATOM     39  CZ  ARG X   1     -38.793   1.025  -8.011  1.00 46.53 LIG 0.67  C 
ATOM     40  NH2 ARG X   1     -39.347   0.761  -9.190  1.00 45.07 LIG-0.23  N 
ATOM     41  NH1 ARG X   1     -39.474   1.731  -7.111  1.00 44.67 LIG-0.23  N 
ATOM     42 2HH2 ARG X   1     -40.138   1.049  -9.367  1.00 45.07 LIG 0.17  HD
ATOM     43 1HH2 ARG X   1     -38.916   0.302  -9.775  1.00 45.07 LIG 0.17  HD
ATOM     44 2HH1 ARG X   1     -40.264   2.016  -7.296  1.00 44.67 LIG 0.17  HD
ATOM     45 1HH1 ARG X   1     -39.124   1.902  -6.345  1.00 44.67 LIG 0.17  HD
ENDBRANCH 36 37
ENDBRANCH 35 36
ENDBRANCH 34 35
ENDBRANCH 33 34
BRANCH 33 46
ATOM     46  N   ARG X   1     -32.827   0.151  -4.101  1.00 53.50 LIG-0.07  N 
ATOM     47 H1   ARG X   1     -32.801   1.018  -4.302  1.00 53.50 LIG 0.28  HD
ATOM     48 H3   ARG X   1     -31.999  -0.148  -3.972  1.00 53.50 LIG 0.28  HD
ATOM     49 H2   ARG X   1     -33.304   0.033  -3.359  1.00 53.50 LIG 0.28  HD
ENDBRANCH 33 46
ENDBRANCH 31 33
ENDBRANCH 1 29
TORSDOF 16
ENDMDL
MODEL 20
USER: ADFR SOLUTION from run 116
USER: SCORE 16.007205 LL:  -1.356 LR: -15.023 RR:   0.000 FEB: -10.250
USER: RMSD 7.748036
USER: SEED 115
USER: STATUS searching
USER: GENES 18
USER: genes 0 Translation |==|  0.60690 0.68800 0.69554
USER: genes 1 Rotation |==|  0.74796 0.35814 0.44387 0.90650
USER: genes 2 Torsion [C]-CA--CB-[CG] |==|  0.22243
USER: genes 3 Torsion [CA]-CB--CG-[CD] |==|  0.16647
USER: genes 4 Torsion [CB]-CG--CD-[NE] |==|  0.02494
USER: genes 5 Torsion [CG]-CD--NE-[HE] |==|  0.72057
USER: genes 6 Torsion [N]-CA--C-[N] |==|  0.39662
USER: genes 7 Torsion [C]-N--CA-[CB] |==|  0.15537
USER: genes 8 Torsion [N]-CA--C-[N] |==|  0.09779
USER: genes 9 Torsion [C]-N--CA-[CB] |==|  0.10352
USER: genes 10 Torsion [N]-CA--C-[OXT] |==|  0.59868
USER: genes 11 Torsion [CB]-CA--N-[C] |==|  0.86078
USER: genes 12 Torsion [N]-C--CA-[N] |==|  0.13844
USER: genes 13 Torsion [C]-CA--CB-[CG] |==|  0.22572
USER: genes 14 Torsion [CA]-CB--CG-[CD] |==|  0.11622
USER: genes 15 Torsion [CB]-CG--CD-[NE] |==|  0.36217
USER: genes 16 Torsion [CG]-CD--NE-[HE] |==|  0.33091
USER: genes 17 Torsion [C]-CA--N-[H3] |==|  0.89452
ROOT
ATOM      1  CA  ARG X   2     -29.064  -1.337  -5.913  1.00 56.86 LIG 0.18  C 
ENDROOT
BRANCH 1 2
ATOM      2  CB  ARG X   2     -29.344  -1.831  -7.335  1.00 56.93 LIG 0.04  C 
BRANCH 2 3
ATOM      3  CG  ARG X   2     -28.249  -2.711  -7.918  1.00 58.33 LIG 0.02  C 
BRANCH 3 4
ATOM      4  CD  ARG X   2     -28.018  -3.955  -7.097  1.00 61.73 LIG 0.14  C 
BRANCH 4 5
ATOM      5  NE  ARG X   2     -29.021  -4.153  -6.052  1.00 63.99 LIG-0.23  N 
ATOM      6 HE   ARG X   2     -28.809  -3.931  -5.249  1.00 63.99 LIG 0.18  HD
ATOM      7  CZ  ARG X   2     -30.243  -4.653  -6.255  1.00 64.82 LIG 0.67  C 
ATOM      8  NH1 ARG X   2     -30.650  -5.008  -7.471  1.00 63.71 LIG-0.23  N 
ATOM      9  NH2 ARG X   2     -31.068  -4.794  -5.226  1.00 65.19 LIG-0.23  N 
ATOM     10 2HH1 ARG X   2     -31.440  -5.330  -7.583  1.00 63.71 LIG 0.17  HD
ATOM     11 1HH1 ARG X   2     -30.123  -4.917  -8.145  1.00 63.71 LIG 0.17  HD
ATOM     12 2HH2 ARG X   2     -31.857  -5.116  -5.348  1.00 65.19 LIG 0.17  HD
ATOM     13 1HH2 ARG X   2     -30.816  -4.563  -4.437  1.00 65.19 LIG 0.17  HD
ENDBRANCH 4 5
ENDBRANCH 3 4
ENDBRANCH 2 3
ENDBRANCH 1 2
BRANCH 1 14
ATOM     14  C   ARG X   2     -28.116  -0.149  -5.941  1.00 57.66 LIG 0.24  C 
ATOM     15  N   ALA X   3     -26.820  -0.412  -5.761  1.00 58.84 LIG-0.35  N 
ATOM     16 H    ALA X   3     -26.512  -1.198  -5.601  1.00 58.84 LIG 0.16  HD
ATOM     17 O    ARG X   2     -28.564   0.987  -6.121  1.00 57.54 LIG-0.27  OA
BRANCH 15 18
ATOM     18  CA  ALA X   3     -25.792   0.636  -5.823  1.00 60.16 LIG 0.17  C 
ATOM     19  CB  ALA X   3     -26.094   1.769  -4.830  1.00 60.10 LIG 0.04  C 
BRANCH 18 20
ATOM     20  C   ALA X   3     -24.401   0.049  -5.581  1.00 60.84 LIG 0.24  C 
ATOM     21  N   ALA X   4     -24.210  -1.179  -6.072  1.00 61.66 LIG-0.34  N 
ATOM     22 H    ALA X   4     -24.814  -1.592  -6.524  1.00 61.66 LIG 0.16  HD
ATOM     23 O    ALA X   3     -23.546   0.686  -4.955  1.00 61.07 LIG-0.27  OA
BRANCH 21 24
ATOM     24  CA  ALA X   4     -22.973  -1.971  -5.912  1.00 62.39 LIG 0.18  C 
ATOM     25  CB  ALA X   4     -22.347  -1.763  -4.519  1.00 62.29 LIG 0.04  C 
BRANCH 24 26
ATOM     26  C   ALA X   4     -23.135  -3.462  -6.238  1.00 62.72 LIG 0.20  C 
ATOM     27 OXT  ALA X   4     -22.522  -4.329  -5.607  1.00 62.96 LIG-0.65  OA
ATOM     28 O    ALA X   4     -23.872  -3.850  -7.149  1.00 63.08 LIG-0.65  OA
ENDBRANCH 24 26
ENDBRANCH 21 24
ENDBRANCH 18 20
ENDBRANCH 15 18
ENDBRANCH 1 14
BRANCH 1 29
ATOM     29  N   ARG X   2     -30.302  -0.936  -5.256  1.00 55.62 LIG-0.35  N 
ATOM     30 H    ARG X   2     -30.414  -1.278  -4.475  1.00 55.62 LIG 0.16  HD
ATOM     31  C   ARG X   1     -31.173  -0.109  -5.833  1.00 54.36 LIG 0.25  C 
ATOM     32 O    ARG X   1     -30.975   0.417  -6.930  1.00 54.20 LIG-0.27  OA
BRANCH 31 33
ATOM     33  CA  ARG X   1     -32.465   0.152  -5.066  1.00 53.49 LIG 0.27  C 
BRANCH 33 34
ATOM     34  CB  ARG X   1     -33.260   1.255  -5.774  1.00 53.17 LIG 0.04  C 
BRANCH 34 35
ATOM     35  CG  ARG X   1     -34.086   0.811  -6.970  1.00 51.16 LIG 0.02  C 
BRANCH 35 36
ATOM     36  CD  ARG X   1     -34.791  -0.499  -6.707  1.00 48.38 LIG 0.14  C 
BRANCH 36 37
ATOM     37  NE  ARG X   1     -36.212  -0.439  -7.042  1.00 47.01 LIG-0.23  N 
ATOM     38 HE   ARG X   1     -36.499  -0.977  -7.650  1.00 47.01 LIG 0.18  HD
ATOM     39  CZ  ARG X   1     -37.099   0.384  -6.479  1.00 46.53 LIG 0.67  C 
ATOM     40  NH2 ARG X   1     -38.372   0.335  -6.860  1.00 45.07 LIG-0.23  N 
ATOM     41  NH1 ARG X   1     -36.730   1.249  -5.538  1.00 44.67 LIG-0.23  N 
ATOM     42 2HH2 ARG X   1     -38.949   0.863  -6.500  1.00 45.07 LIG 0.17  HD
ATOM     43 1HH2 ARG X   1     -38.619  -0.224  -7.465  1.00 45.07 LIG 0.17  HD
ATOM     44 2HH1 ARG X   1     -37.313   1.773  -5.184  1.00 44.67 LIG 0.17  HD
ATOM     45 1HH1 ARG X   1     -35.910   1.283  -5.284  1.00 44.67 LIG 0.17  HD
ENDBRANCH 36 37
ENDBRANCH 35 36
ENDBRANCH 34 35
ENDBRANCH 33 34
BRANCH 33 46
ATOM     46  N   ARG X   1     -32.193   0.526  -3.646  1.00 53.50 LIG-0.07  N 
ATOM     47 H1   ARG X   1     -31.992   1.392  -3.600  1.00 53.50 LIG 0.28  HD
ATOM     48 H3   ARG X   1     -31.510   0.046  -3.339  1.00 53.50 LIG 0.28  HD
ATOM     49 H2   ARG X   1     -32.916   0.363  -3.153  1.00 53.50 LIG 0.28  HD
ENDBRANCH 33 46
ENDBRANCH 31 33
ENDBRANCH 1 29
TORSDOF 16
ENDMDL
MODEL 21
USER: ADFR SOLUTION from run 64
USER: SCORE 16.556871 LL:  -2.089 LR: -14.980 RR:   0.000 FEB: -10.208
USER: RMSD 8.316162
USER: SEED 63
USER: STATUS no improvement in best in 17 clusters for 5 generations
USER: GENES 18
USER: genes 0 Translation |==|  0.31913 0.69393 0.67920
USER: genes 1 Rotation |==|  0.58278 0.65647 0.06007 0.65850
USER: genes 2 Torsion [C]-CA--CB-[CG] |==|  0.06596
USER: genes 3 Torsion [CA]-CB--CG-[CD] |==|  0.28536
USER: genes 4 Torsion [CB]-CG--CD-[NE] |==|  0.69359
USER: genes 5 Torsion [CG]-CD--NE-[HE] |==|  0.11478
USER: genes 6 Torsion [N]-CA--C-[N] |==|  0.43307
USER: genes 7 Torsion [C]-N--CA-[CB] |==|  0.87037
USER: genes 8 Torsion [N]-CA--C-[N] |==|  0.32924
USER: genes 9 Torsion [C]-N--CA-[CB] |==|  0.42854
USER: genes 10 Torsion [N]-CA--C-[OXT] |==|  0.44342
USER: genes 11 Torsion [CB]-CA--N-[C] |==|  0.53333
USER: genes 12 Torsion [N]-C--CA-[N] |==|  0.30298
USER: genes 13 Torsion [C]-CA--CB-[CG] |==|  0.29094
USER: genes 14 Torsion [CA]-CB--CG-[CD] |==|  0.99236
USER: genes 15 Torsion [CB]-CG--CD-[NE] |==|  0.75591
USER: genes 16 Torsion [CG]-CD--NE-[HE] |==|  0.95144
USER: genes 17 Torsion [C]-CA--N-[H3] |==|  0.85374
ROOT
ATOM      1  CA  ARG X   2     -34.459  -1.195  -6.232  1.00 56.86 LIG 0.18  C 
ENDROOT
BRANCH 1 2
ATOM      2  CB  ARG X   2     -35.050  -0.118  -5.317  1.00 56.93 LIG 0.04  C 
BRANCH 2 3
ATOM      3  CG  ARG X   2     -35.740   1.019  -6.056  1.00 58.33 LIG 0.02  C 
BRANCH 3 4
ATOM      4  CD  ARG X   2     -37.244   0.895  -6.019  1.00 61.73 LIG 0.14  C 
BRANCH 4 5
ATOM      5  NE  ARG X   2     -37.829   0.566  -7.318  1.00 63.99 LIG-0.23  N 
ATOM      6 HE   ARG X   2     -37.423  -0.018  -7.801  1.00 63.99 LIG 0.18  HD
ATOM      7  CZ  ARG X   2     -38.947   1.107  -7.808  1.00 64.82 LIG 0.67  C 
ATOM      8  NH1 ARG X   2     -39.638   2.008  -7.114  1.00 63.71 LIG-0.23  N 
ATOM      9  NH2 ARG X   2     -39.380   0.736  -9.005  1.00 65.19 LIG-0.23  N 
ATOM     10 2HH1 ARG X   2     -40.357   2.347  -7.446  1.00 63.71 LIG 0.17  HD
ATOM     11 1HH1 ARG X   2     -39.367   2.252  -6.335  1.00 63.71 LIG 0.17  HD
ATOM     12 2HH2 ARG X   2     -40.100   1.080  -9.328  1.00 65.19 LIG 0.17  HD
ATOM     13 1HH2 ARG X   2     -38.942   0.151  -9.459  1.00 65.19 LIG 0.17  HD
ENDBRANCH 4 5
ENDBRANCH 3 4
ENDBRANCH 2 3
ENDBRANCH 1 2
BRANCH 1 14
ATOM     14  C   ARG X   2     -34.181  -0.624  -7.613  1.00 57.66 LIG 0.24  C 
ATOM     15  N   ALA X   3     -35.213  -0.566  -8.456  1.00 58.84 LIG-0.35  N 
ATOM     16 H    ALA X   3     -35.999  -0.861  -8.269  1.00 58.84 LIG 0.16  HD
ATOM     17 O    ARG X   2     -33.041  -0.247  -7.901  1.00 57.54 LIG-0.27  OA
BRANCH 15 18
ATOM     18  CA  ALA X   3     -35.096   0.016  -9.800  1.00 60.16 LIG 0.17  C 
ATOM     19  CB  ALA X   3     -34.361   1.365  -9.758  1.00 60.10 LIG 0.04  C 
BRANCH 18 20
ATOM     20  C   ALA X   3     -34.405  -0.957 -10.757  1.00 60.84 LIG 0.24  C 
ATOM     21  N   ALA X   4     -35.142  -1.346 -11.801  1.00 61.66 LIG-0.34  N 
ATOM     22 H    ALA X   4     -35.933  -1.041 -11.943  1.00 61.66 LIG 0.16  HD
ATOM     23 O    ALA X   3     -33.252  -1.349 -10.537  1.00 61.07 LIG-0.27  OA
BRANCH 21 24
ATOM     24  CA  ALA X   4     -34.712  -2.322 -12.823  1.00 62.39 LIG 0.18  C 
ATOM     25  CB  ALA X   4     -35.919  -3.020 -13.479  1.00 62.29 LIG 0.04  C 
BRANCH 24 26
ATOM     26  C   ALA X   4     -33.753  -1.749 -13.876  1.00 62.72 LIG 0.20  C 
ATOM     27 OXT  ALA X   4     -33.027  -2.484 -14.552  1.00 62.96 LIG-0.65  OA
ATOM     28 O    ALA X   4     -33.663  -0.534 -14.077  1.00 63.08 LIG-0.65  OA
ENDBRANCH 24 26
ENDBRANCH 21 24
ENDBRANCH 18 20
ENDBRANCH 15 18
ENDBRANCH 1 14
BRANCH 1 29
ATOM     29  N   ARG X   2     -33.214  -1.711  -5.677  1.00 55.62 LIG-0.35  N 
ATOM     30 H    ARG X   2     -33.066  -1.476  -4.863  1.00 55.62 LIG 0.16  HD
ATOM     31  C   ARG X   1     -32.389  -2.480  -6.386  1.00 54.36 LIG 0.25  C 
ATOM     32 O    ARG X   1     -32.639  -2.854  -7.533  1.00 54.20 LIG-0.27  OA
BRANCH 31 33
ATOM     33  CA  ARG X   1     -31.081  -2.874  -5.706  1.00 53.49 LIG 0.27  C 
BRANCH 33 34
ATOM     34  CB  ARG X   1     -29.907  -2.537  -6.632  1.00 53.17 LIG 0.04  C 
BRANCH 34 35
ATOM     35  CG  ARG X   1     -29.097  -1.309  -6.253  1.00 51.16 LIG 0.02  C 
BRANCH 35 36
ATOM     36  CD  ARG X   1     -29.671  -0.613  -5.041  1.00 48.38 LIG 0.14  C 
BRANCH 36 37
ATOM     37  NE  ARG X   1     -30.694   0.367  -5.398  1.00 47.01 LIG-0.23  N 
ATOM     38 HE   ARG X   1     -30.720   0.633  -6.216  1.00 47.01 LIG 0.18  HD
ATOM     39  CZ  ARG X   1     -31.591   0.882  -4.555  1.00 46.53 LIG 0.67  C 
ATOM     40  NH2 ARG X   1     -32.484   1.760  -5.003  1.00 45.07 LIG-0.23  N 
ATOM     41  NH1 ARG X   1     -31.611   0.526  -3.273  1.00 44.67 LIG-0.23  N 
ATOM     42 2HH2 ARG X   1     -33.065   2.095  -4.465  1.00 45.07 LIG 0.17  HD
ATOM     43 1HH2 ARG X   1     -32.481   1.992  -5.831  1.00 45.07 LIG 0.17  HD
ATOM     44 2HH1 ARG X   1     -32.194   0.866  -2.741  1.00 44.67 LIG 0.17  HD
ATOM     45 1HH1 ARG X   1     -31.039  -0.044  -2.977  1.00 44.67 LIG 0.17  HD
ENDBRANCH 36 37
ENDBRANCH 35 36
ENDBRANCH 34 35
ENDBRANCH 33 34
BRANCH 33 46
ATOM     46  N   ARG X   1     -31.068  -4.322  -5.341  1.00 53.50 LIG-0.07  N 
ATOM     47 H1   ARG X   1     -31.054  -4.815  -6.082  1.00 53.50 LIG 0.28  HD
ATOM     48 H3   ARG X   1     -31.797  -4.516  -4.870  1.00 53.50 LIG 0.28  HD
ATOM     49 H2   ARG X   1     -30.345  -4.499  -4.854  1.00 53.50 LIG 0.28  HD
ENDBRANCH 33 46
ENDBRANCH 31 33
ENDBRANCH 1 29
TORSDOF 16
ENDMDL
