MODEL 1
USER: ADFR SOLUTION from run 144
USER: SCORE 14.357401 LL:  -0.801 LR: -14.610 RR:   0.000 FEB: -11.031
USER: RMSD 2.144428
USER: SEED 143
USER: STATUS no improvement in best in 10 clusters for 5 generations
USER: GENES 14
USER: genes 0 Translation |==|  0.55143 0.45716 0.45131
USER: genes 1 Rotation |==|  0.48448 0.53392 0.48678 0.99843
USER: genes 2 Torsion [CB]-CA--N-[H2] |==|  0.71269
USER: genes 3 Torsion [N]-CA--CB-[CG] |==|  0.74265
USER: genes 4 Torsion [CA]-CB--CG-[CD] |==|  0.32862
USER: genes 5 Torsion [CB]-CG--CD-[NE] |==|  0.87489
USER: genes 6 Torsion [CG]-CD--NE-[HE] |==|  0.04257
USER: genes 7 Torsion [N]-CA--C-[N] |==|  0.40855
USER: genes 8 Torsion [C]-N--CA-[CB] |==|  0.17032
USER: genes 9 Torsion [N]-CA--CB-[CG] |==|  0.44661
USER: genes 10 Torsion [CA]-CB--CG-[CD1] |==|  0.34678
USER: genes 11 Torsion [N]-CA--C-[N] |==|  0.42560
USER: genes 12 Torsion [C]-N--CA-[C] |==|  0.65584
USER: genes 13 Torsion [N]-CA--C-[O] |==|  0.25526
ROOT
ATOM      1  CA  ARG E   1      42.331 -17.228   6.664  1.00 58.91 LIG 0.27  C 
ENDROOT
BRANCH 1 2
ATOM      2  N   ARG E   1      43.098 -18.049   5.696  1.00 58.46 LIG-0.07  N 
ATOM      3 H2   ARG E   1      43.592 -17.517   5.181  1.00 58.46 LIG 0.28  HD
ATOM      4 H1   ARG E   1      42.533 -18.514   5.188  1.00 58.46 LIG 0.28  HD
ATOM      5 H3   ARG E   1      43.629 -18.610   6.138  1.00 58.46 LIG 0.28  HD
ENDBRANCH 1 2
BRANCH 1 6
ATOM      6  CB  ARG E   1      42.962 -17.295   8.056  1.00 58.69 LIG 0.04  C 
BRANCH 6 7
ATOM      7  CG  ARG E   1      42.366 -18.385   8.925  1.00 58.59 LIG 0.02  C 
BRANCH 7 8
ATOM      8  CD  ARG E   1      43.422 -19.390   9.300  1.00 58.62 LIG 0.14  C 
BRANCH 8 9
ATOM      9  NE  ARG E   1      44.273 -19.798   8.183  1.00 56.95 LIG-0.23  N 
ATOM     10  CZ  ARG E   1      45.071 -20.862   8.175  1.00 57.03 LIG 0.67  C 
ATOM     11  NH2 ARG E   1      45.767 -21.139   7.083  1.00 56.92 LIG-0.23  N 
ATOM     12  NH1 ARG E   1      45.190 -21.644   9.245  1.00 56.49 LIG-0.23  N 
ATOM     13 2HH2 ARG E   1      46.286 -21.825   7.067  1.00 56.92 LIG 0.17  HD
ATOM     14 1HH2 ARG E   1      45.700 -20.634   6.390  1.00 56.92 LIG 0.17  HD
ATOM     15 1HH1 ARG E   1      44.745 -21.466   9.959  1.00 56.49 LIG 0.17  HD
ATOM     16 2HH1 ARG E   1      45.710 -22.328   9.221  1.00 56.49 LIG 0.17  HD
ATOM     17 HE   ARG E   1      44.255 -19.311   7.473  1.00 56.95 LIG 0.18  HD
ENDBRANCH 8 9
ENDBRANCH 7 8
ENDBRANCH 6 7
ENDBRANCH 1 6
BRANCH 1 18
ATOM     18  C   ARG E   1      42.202 -15.790   6.198  1.00 59.32 LIG 0.25  C 
ATOM     19  N   LEU E   2      41.075 -15.172   6.538  1.00 59.84 LIG-0.35  N 
ATOM     20 H    LEU E   2      40.478 -15.514   7.054  1.00 59.84 LIG 0.16  HD
ATOM     21 O    ARG E   1      43.104 -15.254   5.556  1.00 59.24 LIG-0.27  OA
BRANCH 19 22
ATOM     22  CA  LEU E   2      40.756 -13.839   6.054  1.00 60.66 LIG 0.18  C 
BRANCH 22 23
ATOM     23  CB  LEU E   2      40.659 -13.859   4.524  1.00 60.80 LIG 0.04  C 
BRANCH 23 24
ATOM     24  CG  LEU E   2      39.931 -12.761   3.738  1.00 61.28 LIG-0.02  C 
ATOM     25  CD1 LEU E   2      40.848 -12.139   2.690  1.00 62.19 LIG 0.01  C 
ATOM     26  CD2 LEU E   2      38.620 -13.256   3.131  1.00 61.48 LIG 0.01  C 
ENDBRANCH 23 24
ENDBRANCH 22 23
BRANCH 22 27
ATOM     27  C   LEU E   2      39.471 -13.304   6.685  1.00 61.14 LIG 0.24  C 
ATOM     28 O    LEU E   2      38.593 -14.078   7.079  1.00 61.18 LIG-0.27  OA
ATOM     29  N   GLY E   3      39.372 -11.977   6.771  1.00 61.67 LIG-0.35  N 
ATOM     30 H    GLY E   3      39.972 -11.436   6.474  1.00 61.67 LIG 0.16  HD
BRANCH 29 31
ATOM     31  CA  GLY E   3      38.221 -11.308   7.384  1.00 62.18 LIG 0.21  C 
BRANCH 31 32
ATOM     32  C   GLY E   3      37.519 -10.307   6.478  1.00 62.54 LIG 0.21  C 
ATOM     33 O    GLY E   3      36.567 -10.639   5.765  1.00 62.83 LIG-0.29  OA
ENDBRANCH 31 32
ENDBRANCH 29 31
ENDBRANCH 22 27
ENDBRANCH 19 22
ENDBRANCH 1 18
TORSDOF 12
ENDMDL
MODEL 2
USER: ADFR SOLUTION from run 151
USER: SCORE 13.581730 LL:  -0.756 LR: -14.055 RR:   0.000 FEB: -10.476
USER: RMSD 2.067913
USER: SEED 150
USER: STATUS no improvement in best in 11 clusters for 5 generations
USER: GENES 14
USER: genes 0 Translation |==|  0.57854 0.46616 0.46451
USER: genes 1 Rotation |==|  0.43576 0.61251 0.46315 0.98152
USER: genes 2 Torsion [CB]-CA--N-[H2] |==|  0.72824
USER: genes 3 Torsion [N]-CA--CB-[CG] |==|  0.11840
USER: genes 4 Torsion [CA]-CB--CG-[CD] |==|  0.69773
USER: genes 5 Torsion [CB]-CG--CD-[NE] |==|  0.25353
USER: genes 6 Torsion [CG]-CD--NE-[HE] |==|  0.01277
USER: genes 7 Torsion [N]-CA--C-[N] |==|  0.33180
USER: genes 8 Torsion [C]-N--CA-[CB] |==|  0.28560
USER: genes 9 Torsion [N]-CA--CB-[CG] |==|  0.52495
USER: genes 10 Torsion [CA]-CB--CG-[CD1] |==|  0.74887
USER: genes 11 Torsion [N]-CA--C-[N] |==|  0.36118
USER: genes 12 Torsion [C]-N--CA-[C] |==|  0.40011
USER: genes 13 Torsion [N]-CA--C-[O] |==|  0.15356
ROOT
ATOM      1  CA  ARG E   1      42.717 -17.025   6.872  1.00 58.91 LIG 0.27  C 
ENDROOT
BRANCH 1 2
ATOM      2  N   ARG E   1      43.080 -18.092   5.907  1.00 58.46 LIG-0.07  N 
ATOM      3 H2   ARG E   1      43.486 -17.729   5.202  1.00 58.46 LIG 0.28  HD
ATOM      4 H1   ARG E   1      42.343 -18.514   5.640  1.00 58.46 LIG 0.28  HD
ATOM      5 H3   ARG E   1      43.629 -18.673   6.298  1.00 58.46 LIG 0.28  HD
ENDBRANCH 1 2
BRANCH 1 6
ATOM      6  CB  ARG E   1      43.759 -16.923   7.988  1.00 58.69 LIG 0.04  C 
BRANCH 6 7
ATOM      7  CG  ARG E   1      45.184 -17.018   7.479  1.00 58.59 LIG 0.02  C 
BRANCH 7 8
ATOM      8  CD  ARG E   1      45.796 -18.332   7.883  1.00 58.62 LIG 0.14  C 
BRANCH 8 9
ATOM      9  NE  ARG E   1      45.620 -19.395   6.894  1.00 56.95 LIG-0.23  N 
ATOM     10  CZ  ARG E   1      45.992 -20.662   7.055  1.00 57.03 LIG 0.67  C 
ATOM     11  NH2 ARG E   1      45.745 -21.535   6.092  1.00 56.92 LIG-0.23  N 
ATOM     12  NH1 ARG E   1      46.615 -21.063   8.160  1.00 56.49 LIG-0.23  N 
ATOM     13 2HH2 ARG E   1      45.981 -22.357   6.186  1.00 56.92 LIG 0.17  HD
ATOM     14 1HH2 ARG E   1      45.348 -21.281   5.372  1.00 56.92 LIG 0.17  HD
ATOM     15 1HH1 ARG E   1      46.784 -20.500   8.787  1.00 56.49 LIG 0.17  HD
ATOM     16 2HH1 ARG E   1      46.848 -21.887   8.248  1.00 56.49 LIG 0.17  HD
ATOM     17 HE   ARG E   1      45.246 -19.184   6.149  1.00 56.95 LIG 0.18  HD
ENDBRANCH 8 9
ENDBRANCH 7 8
ENDBRANCH 6 7
ENDBRANCH 1 6
BRANCH 1 18
ATOM     18  C   ARG E   1      42.531 -15.688   6.182  1.00 59.32 LIG 0.25  C 
ATOM     19  N   LEU E   2      41.323 -15.143   6.295  1.00 59.84 LIG-0.35  N 
ATOM     20 H    LEU E   2      40.695 -15.468   6.785  1.00 59.84 LIG 0.16  HD
ATOM     21 O    ARG E   1      43.459 -15.159   5.574  1.00 59.24 LIG-0.27  OA
BRANCH 19 22
ATOM     22  CA  LEU E   2      40.958 -13.930   5.582  1.00 60.66 LIG 0.18  C 
BRANCH 22 23
ATOM     23  CB  LEU E   2      40.086 -14.290   4.373  1.00 60.80 LIG 0.04  C 
BRANCH 23 24
ATOM     24  CG  LEU E   2      39.706 -13.255   3.306  1.00 61.28 LIG-0.02  C 
ATOM     25  CD1 LEU E   2      38.397 -12.557   3.662  1.00 62.19 LIG 0.01  C 
ATOM     26  CD2 LEU E   2      40.832 -12.259   3.038  1.00 61.48 LIG 0.01  C 
ENDBRANCH 23 24
ENDBRANCH 22 23
BRANCH 22 27
ATOM     27  C   LEU E   2      40.254 -12.930   6.497  1.00 61.14 LIG 0.24  C 
ATOM     28 O    LEU E   2      39.303 -13.281   7.201  1.00 61.18 LIG-0.27  OA
ATOM     29  N   GLY E   3      40.729 -11.684   6.475  1.00 61.67 LIG-0.35  N 
ATOM     30 H    GLY E   3      41.376 -11.432   5.966  1.00 61.67 LIG 0.16  HD
BRANCH 29 31
ATOM     31  CA  GLY E   3      40.189 -10.616   7.321  1.00 62.18 LIG 0.21  C 
BRANCH 31 32
ATOM     32  C   GLY E   3      41.229  -9.630   7.830  1.00 62.54 LIG 0.21  C 
ATOM     33 O    GLY E   3      41.976  -9.022   7.056  1.00 62.83 LIG-0.29  OA
ENDBRANCH 31 32
ENDBRANCH 29 31
ENDBRANCH 22 27
ENDBRANCH 19 22
ENDBRANCH 1 18
TORSDOF 12
ENDMDL
MODEL 3
USER: ADFR SOLUTION from run 134
USER: SCORE 14.217765 LL:  -1.166 LR: -14.057 RR:   0.000 FEB: -10.477
USER: RMSD 2.438222
USER: SEED 133
USER: STATUS searching
USER: GENES 14
USER: genes 0 Translation |==|  0.54497 0.45598 0.44202
USER: genes 1 Rotation |==|  0.49968 0.50814 0.48730 0.99977
USER: genes 2 Torsion [CB]-CA--N-[H2] |==|  0.69774
USER: genes 3 Torsion [N]-CA--CB-[CG] |==|  0.78634
USER: genes 4 Torsion [CA]-CB--CG-[CD] |==|  0.48342
USER: genes 5 Torsion [CB]-CG--CD-[NE] |==|  0.47555
USER: genes 6 Torsion [CG]-CD--NE-[HE] |==|  0.14449
USER: genes 7 Torsion [N]-CA--C-[N] |==|  0.41816
USER: genes 8 Torsion [C]-N--CA-[CB] |==|  0.17303
USER: genes 9 Torsion [N]-CA--CB-[CG] |==|  0.45011
USER: genes 10 Torsion [CA]-CB--CG-[CD1] |==|  0.37877
USER: genes 11 Torsion [N]-CA--C-[N] |==|  0.44444
USER: genes 12 Torsion [C]-N--CA-[C] |==|  0.64858
USER: genes 13 Torsion [N]-CA--C-[O] |==|  0.26401
ROOT
ATOM      1  CA  ARG E   1      42.239 -17.254   6.518  1.00 58.91 LIG 0.27  C 
ENDROOT
BRANCH 1 2
ATOM      2  N   ARG E   1      43.106 -18.019   5.589  1.00 58.46 LIG-0.07  N 
ATOM      3 H2   ARG E   1      43.594 -17.454   5.104  1.00 58.46 LIG 0.28  HD
ATOM      4 H1   ARG E   1      42.600 -18.514   5.048  1.00 58.46 LIG 0.28  HD
ATOM      5 H3   ARG E   1      43.646 -18.550   6.057  1.00 58.46 LIG 0.28  HD
ENDBRANCH 1 2
BRANCH 1 6
ATOM      6  CB  ARG E   1      42.721 -17.403   7.962  1.00 58.69 LIG 0.04  C 
BRANCH 6 7
ATOM      7  CG  ARG E   1      42.347 -18.737   8.578  1.00 58.59 LIG 0.02  C 
BRANCH 7 8
ATOM      8  CD  ARG E   1      42.972 -18.878   9.939  1.00 58.62 LIG 0.14  C 
BRANCH 8 9
ATOM      9  NE  ARG E   1      42.501 -20.042  10.689  1.00 56.95 LIG-0.23  N 
ATOM     10  CZ  ARG E   1      42.023 -20.014  11.930  1.00 57.03 LIG 0.67  C 
ATOM     11  NH2 ARG E   1      41.598 -21.139  12.484  1.00 56.92 LIG-0.23  N 
ATOM     12  NH1 ARG E   1      41.973 -18.881  12.625  1.00 56.49 LIG-0.23  N 
ATOM     13 2HH2 ARG E   1      41.287 -21.132  13.285  1.00 56.92 LIG 0.17  HD
ATOM     14 1HH2 ARG E   1      41.633 -21.876  12.042  1.00 56.92 LIG 0.17  HD
ATOM     15 1HH1 ARG E   1      42.253 -18.148  12.273  1.00 56.49 LIG 0.17  HD
ATOM     16 2HH1 ARG E   1      41.660 -18.881  13.426  1.00 56.49 LIG 0.17  HD
ATOM     17 HE   ARG E   1      42.536 -20.807  10.295  1.00 56.95 LIG 0.18  HD
ENDBRANCH 8 9
ENDBRANCH 7 8
ENDBRANCH 6 7
ENDBRANCH 1 6
BRANCH 1 18
ATOM     18  C   ARG E   1      42.153 -15.792   6.125  1.00 59.32 LIG 0.25  C 
ATOM     19  N   LEU E   2      41.021 -15.173   6.445  1.00 59.84 LIG-0.35  N 
ATOM     20 H    LEU E   2      40.395 -15.532   6.913  1.00 59.84 LIG 0.16  HD
ATOM     21 O    ARG E   1      43.092 -15.238   5.556  1.00 59.24 LIG-0.27  OA
BRANCH 19 22
ATOM     22  CA  LEU E   2      40.744 -13.811   6.020  1.00 60.66 LIG 0.18  C 
BRANCH 22 23
ATOM     23  CB  LEU E   2      40.695 -13.753   4.488  1.00 60.80 LIG 0.04  C 
BRANCH 23 24
ATOM     24  CG  LEU E   2      40.040 -12.587   3.737  1.00 61.28 LIG-0.02  C 
ATOM     25  CD1 LEU E   2      40.903 -12.139   2.562  1.00 62.19 LIG 0.01  C 
ATOM     26  CD2 LEU E   2      38.610 -12.905   3.308  1.00 61.48 LIG 0.01  C 
ENDBRANCH 23 24
ENDBRANCH 22 23
BRANCH 22 27
ATOM     27  C   LEU E   2      39.451 -13.281   6.637  1.00 61.14 LIG 0.24  C 
ATOM     28 O    LEU E   2      38.598 -14.058   7.078  1.00 61.18 LIG-0.27  OA
ATOM     29  N   GLY E   3      39.316 -11.954   6.659  1.00 61.67 LIG-0.35  N 
ATOM     30 H    GLY E   3      39.898 -11.413   6.330  1.00 61.67 LIG 0.16  HD
BRANCH 29 31
ATOM     31  CA  GLY E   3      38.153 -11.287   7.250  1.00 62.18 LIG 0.21  C 
BRANCH 31 32
ATOM     32  C   GLY E   3      37.453 -10.304   6.324  1.00 62.54 LIG 0.21  C 
ATOM     33 O    GLY E   3      36.475 -10.639   5.648  1.00 62.83 LIG-0.29  OA
ENDBRANCH 31 32
ENDBRANCH 29 31
ENDBRANCH 22 27
ENDBRANCH 19 22
ENDBRANCH 1 18
TORSDOF 12
ENDMDL
MODEL 4
USER: ADFR SOLUTION from run 161
USER: SCORE 13.317885 LL:  -1.036 LR: -13.534 RR:   0.000 FEB:  -9.955
USER: RMSD 1.398204
USER: SEED 160
USER: STATUS no improvement in best in 6 clusters for 5 generations
USER: GENES 14
USER: genes 0 Translation |==|  0.56773 0.45744 0.45984
USER: genes 1 Rotation |==|  0.45904 0.57905 0.48692 0.99184
USER: genes 2 Torsion [CB]-CA--N-[H2] |==|  0.41608
USER: genes 3 Torsion [N]-CA--CB-[CG] |==|  0.88079
USER: genes 4 Torsion [CA]-CB--CG-[CD] |==|  0.84006
USER: genes 5 Torsion [CB]-CG--CD-[NE] |==|  0.77845
USER: genes 6 Torsion [CG]-CD--NE-[HE] |==|  0.28131
USER: genes 7 Torsion [N]-CA--C-[N] |==|  0.39435
USER: genes 8 Torsion [C]-N--CA-[CB] |==|  0.28782
USER: genes 9 Torsion [N]-CA--CB-[CG] |==|  0.55775
USER: genes 10 Torsion [CA]-CB--CG-[CD1] |==|  0.73701
USER: genes 11 Torsion [N]-CA--C-[N] |==|  0.33920
USER: genes 12 Torsion [C]-N--CA-[C] |==|  0.48543
USER: genes 13 Torsion [N]-CA--C-[O] |==|  0.14917
ROOT
ATOM      1  CA  ARG E   1      42.563 -17.222   6.799  1.00 58.91 LIG 0.27  C 
ENDROOT
BRANCH 1 2
ATOM      2  N   ARG E   1      43.148 -18.139   5.790  1.00 58.46 LIG-0.07  N 
ATOM      3 H2   ARG E   1      42.496 -18.506   5.308  1.00 58.46 LIG 0.28  HD
ATOM      4 H1   ARG E   1      43.608 -18.780   6.203  1.00 58.46 LIG 0.28  HD
ATOM      5 H3   ARG E   1      43.692 -17.683   5.254  1.00 58.46 LIG 0.28  HD
ENDBRANCH 1 2
BRANCH 1 6
ATOM      6  CB  ARG E   1      43.439 -17.158   8.051  1.00 58.69 LIG 0.04  C 
BRANCH 6 7
ATOM      7  CG  ARG E   1      43.947 -18.518   8.489  1.00 58.59 LIG 0.02  C 
BRANCH 7 8
ATOM      8  CD  ARG E   1      42.793 -19.450   8.743  1.00 58.62 LIG 0.14  C 
BRANCH 8 9
ATOM      9  NE  ARG E   1      42.148 -19.253  10.040  1.00 56.95 LIG-0.23  N 
ATOM     10  CZ  ARG E   1      42.613 -19.699  11.204  1.00 57.03 LIG 0.67  C 
ATOM     11  NH2 ARG E   1      41.947 -19.423  12.314  1.00 56.92 LIG-0.23  N 
ATOM     12  NH1 ARG E   1      43.728 -20.423  11.270  1.00 56.49 LIG-0.23  N 
ATOM     13 2HH2 ARG E   1      42.239 -19.706  13.072  1.00 56.92 LIG 0.17  HD
ATOM     14 1HH2 ARG E   1      41.223 -18.961  12.278  1.00 56.92 LIG 0.17  HD
ATOM     15 1HH1 ARG E   1      44.162 -20.610  10.552  1.00 56.49 LIG 0.17  HD
ATOM     16 2HH1 ARG E   1      44.014 -20.702  12.031  1.00 56.49 LIG 0.17  HD
ATOM     17 HE   ARG E   1      41.409 -18.813  10.052  1.00 56.95 LIG 0.18  HD
ENDBRANCH 8 9
ENDBRANCH 7 8
ENDBRANCH 6 7
ENDBRANCH 1 6
BRANCH 1 18
ATOM     18  C   ARG E   1      42.336 -15.835   6.227  1.00 59.32 LIG 0.25  C 
ATOM     19  N   LEU E   2      41.228 -15.220   6.627  1.00 59.84 LIG-0.35  N 
ATOM     20 H    LEU E   2      40.698 -15.531   7.228  1.00 59.84 LIG 0.16  HD
ATOM     21 O    ARG E   1      43.150 -15.334   5.453  1.00 59.24 LIG-0.27  OA
BRANCH 19 22
ATOM     22  CA  LEU E   2      40.813 -13.944   6.067  1.00 60.66 LIG 0.18  C 
BRANCH 22 23
ATOM     23  CB  LEU E   2      39.661 -14.169   5.079  1.00 60.80 LIG 0.04  C 
BRANCH 23 24
ATOM     24  CG  LEU E   2      39.309 -13.147   3.991  1.00 61.28 LIG-0.02  C 
ATOM     25  CD1 LEU E   2      38.204 -12.207   4.461  1.00 62.19 LIG 0.01  C 
ATOM     26  CD2 LEU E   2      40.535 -12.385   3.493  1.00 61.48 LIG 0.01  C 
ENDBRANCH 23 24
ENDBRANCH 22 23
BRANCH 22 27
ATOM     27  C   LEU E   2      40.422 -12.950   7.159  1.00 61.14 LIG 0.24  C 
ATOM     28 O    LEU E   2      39.525 -13.219   7.963  1.00 61.18 LIG-0.27  OA
ATOM     29  N   GLY E   3      41.102 -11.802   7.173  1.00 61.67 LIG-0.35  N 
ATOM     30 H    GLY E   3      41.710 -11.604   6.598  1.00 61.67 LIG 0.16  HD
BRANCH 29 31
ATOM     31  CA  GLY E   3      40.874 -10.761   8.179  1.00 62.18 LIG 0.21  C 
BRANCH 31 32
ATOM     32  C   GLY E   3      41.835  -9.586   8.097  1.00 62.54 LIG 0.21  C 
ATOM     33 O    GLY E   3      41.999  -8.958   7.046  1.00 62.83 LIG-0.29  OA
ENDBRANCH 31 32
ENDBRANCH 29 31
ENDBRANCH 22 27
ENDBRANCH 19 22
ENDBRANCH 1 18
TORSDOF 12
ENDMDL
MODEL 5
USER: ADFR SOLUTION from run 178
USER: SCORE 13.583162 LL:  -0.404 LR: -13.425 RR:   0.000 FEB:  -9.845
USER: RMSD 2.538825
USER: SEED 177
USER: STATUS no improvement in best in 5 clusters for 5 generations
USER: GENES 14
USER: genes 0 Translation |==|  0.52306 0.50687 0.44506
USER: genes 1 Rotation |==|  0.35379 0.81083 0.51483 0.86303
USER: genes 2 Torsion [CB]-CA--N-[H2] |==|  0.87205
USER: genes 3 Torsion [N]-CA--CB-[CG] |==|  0.71536
USER: genes 4 Torsion [CA]-CB--CG-[CD] |==|  0.21899
USER: genes 5 Torsion [CB]-CG--CD-[NE] |==|  0.82046
USER: genes 6 Torsion [CG]-CD--NE-[HE] |==|  0.34130
USER: genes 7 Torsion [N]-CA--C-[N] |==|  0.72304
USER: genes 8 Torsion [C]-N--CA-[CB] |==|  0.77754
USER: genes 9 Torsion [N]-CA--CB-[CG] |==|  0.57727
USER: genes 10 Torsion [CA]-CB--CG-[CD1] |==|  0.75897
USER: genes 11 Torsion [N]-CA--C-[N] |==|  0.21823
USER: genes 12 Torsion [C]-N--CA-[C] |==|  0.60054
USER: genes 13 Torsion [N]-CA--C-[O] |==|  0.97945
ROOT
ATOM      1  CA  ARG E   1      41.927 -16.109   6.566  1.00 58.91 LIG 0.27  C 
ENDROOT
BRANCH 1 2
ATOM      2  N   ARG E   1      41.632 -17.418   5.933  1.00 58.46 LIG-0.07  N 
ATOM      3 H2   ARG E   1      41.937 -17.420   5.097  1.00 58.46 LIG 0.28  HD
ATOM      4 H1   ARG E   1      40.752 -17.555   5.928  1.00 58.46 LIG 0.28  HD
ATOM      5 H3   ARG E   1      42.030 -18.067   6.395  1.00 58.46 LIG 0.28  HD
ENDBRANCH 1 2
BRANCH 1 6
ATOM      6  CB  ARG E   1      43.370 -15.683   6.290  1.00 58.69 LIG 0.04  C 
BRANCH 6 7
ATOM      7  CG  ARG E   1      44.290 -15.903   7.475  1.00 58.59 LIG 0.02  C 
BRANCH 7 8
ATOM      8  CD  ARG E   1      44.686 -17.353   7.566  1.00 58.62 LIG 0.14  C 
BRANCH 8 9
ATOM      9  NE  ARG E   1      43.568 -18.255   7.841  1.00 56.95 LIG-0.23  N 
ATOM     10  CZ  ARG E   1      42.755 -18.172   8.891  1.00 57.03 LIG 0.67  C 
ATOM     11  NH2 ARG E   1      41.758 -19.035   9.006  1.00 56.92 LIG-0.23  N 
ATOM     12  NH1 ARG E   1      42.933 -17.246   9.830  1.00 56.49 LIG-0.23  N 
ATOM     13 2HH2 ARG E   1      41.227 -18.990   9.681  1.00 56.92 LIG 0.17  HD
ATOM     14 1HH2 ARG E   1      41.641 -19.640   8.406  1.00 56.92 LIG 0.17  HD
ATOM     15 1HH1 ARG E   1      43.582 -16.687   9.765  1.00 56.49 LIG 0.17  HD
ATOM     16 2HH1 ARG E   1      42.398 -17.207  10.502  1.00 56.49 LIG 0.17  HD
ATOM     17 HE   ARG E   1      43.424 -18.889   7.279  1.00 56.95 LIG 0.18  HD
ENDBRANCH 8 9
ENDBRANCH 7 8
ENDBRANCH 6 7
ENDBRANCH 1 6
BRANCH 1 18
ATOM     18  C   ARG E   1      40.951 -15.039   6.114  1.00 59.32 LIG 0.25  C 
ATOM     19  N   LEU E   2      41.390 -14.224   5.160  1.00 59.84 LIG-0.35  N 
ATOM     20 H    LEU E   2      42.142 -14.322   4.754  1.00 59.84 LIG 0.16  HD
ATOM     21 O    ARG E   1      39.828 -14.963   6.609  1.00 59.24 LIG-0.27  OA
BRANCH 19 22
ATOM     22  CA  LEU E   2      40.618 -13.074   4.718  1.00 60.66 LIG 0.18  C 
BRANCH 22 23
ATOM     23  CB  LEU E   2      39.529 -13.535   3.741  1.00 60.80 LIG 0.04  C 
BRANCH 23 24
ATOM     24  CG  LEU E   2      38.973 -12.615   2.646  1.00 61.28 LIG-0.02  C 
ATOM     25  CD1 LEU E   2      37.824 -11.764   3.177  1.00 62.19 LIG 0.01  C 
ATOM     26  CD2 LEU E   2      40.063 -11.764   1.998  1.00 61.48 LIG 0.01  C 
ENDBRANCH 23 24
ENDBRANCH 22 23
BRANCH 22 27
ATOM     27  C   LEU E   2      40.019 -12.311   5.898  1.00 61.14 LIG 0.24  C 
ATOM     28 O    LEU E   2      38.830 -12.449   6.199  1.00 61.18 LIG-0.27  OA
ATOM     29  N   GLY E   3      40.854 -11.505   6.555  1.00 61.67 LIG-0.35  N 
ATOM     30 H    GLY E   3      41.677 -11.389   6.331  1.00 61.67 LIG 0.16  HD
BRANCH 29 31
ATOM     31  CA  GLY E   3      40.446 -10.733   7.733  1.00 62.18 LIG 0.21  C 
BRANCH 31 32
ATOM     32  C   GLY E   3      41.081  -9.355   7.833  1.00 62.54 LIG 0.21  C 
ATOM     33 O    GLY E   3      41.973  -8.997   7.056  1.00 62.83 LIG-0.29  OA
ENDBRANCH 31 32
ENDBRANCH 29 31
ENDBRANCH 22 27
ENDBRANCH 19 22
ENDBRANCH 1 18
TORSDOF 12
ENDMDL
MODEL 6
USER: ADFR SOLUTION from run 131
USER: SCORE 14.148641 LL:  -0.816 LR: -13.405 RR:   0.000 FEB:  -9.825
USER: RMSD 3.183232
USER: SEED 130
USER: STATUS no improvement in best in 8 clusters for 5 generations
USER: GENES 14
USER: genes 0 Translation |==|  0.55263 0.45550 0.45108
USER: genes 1 Rotation |==|  0.48728 0.54782 0.50807 0.99748
USER: genes 2 Torsion [CB]-CA--N-[H2] |==|  0.37751
USER: genes 3 Torsion [N]-CA--CB-[CG] |==|  0.71498
USER: genes 4 Torsion [CA]-CB--CG-[CD] |==|  0.32439
USER: genes 5 Torsion [CB]-CG--CD-[NE] |==|  0.89484
USER: genes 6 Torsion [CG]-CD--NE-[HE] |==|  0.03038
USER: genes 7 Torsion [N]-CA--C-[N] |==|  0.40694
USER: genes 8 Torsion [C]-N--CA-[CB] |==|  0.82529
USER: genes 9 Torsion [N]-CA--CB-[CG] |==|  0.63872
USER: genes 10 Torsion [CA]-CB--CG-[CD1] |==|  0.80003
USER: genes 11 Torsion [N]-CA--C-[N] |==|  0.43889
USER: genes 12 Torsion [C]-N--CA-[C] |==|  0.72752
USER: genes 13 Torsion [N]-CA--C-[O] |==|  0.13011
ROOT
ATOM      1  CA  ARG E   1      42.348 -17.265   6.661  1.00 58.91 LIG 0.27  C 
ENDROOT
BRANCH 1 2
ATOM      2  N   ARG E   1      43.121 -18.005   5.634  1.00 58.46 LIG-0.07  N 
ATOM      3 H2   ARG E   1      42.569 -18.513   5.155  1.00 58.46 LIG 0.28  HD
ATOM      4 H1   ARG E   1      43.729 -18.520   6.033  1.00 58.46 LIG 0.28  HD
ATOM      5 H3   ARG E   1      43.531 -17.426   5.096  1.00 58.46 LIG 0.28  HD
ENDBRANCH 1 2
BRANCH 1 6
ATOM      6  CB  ARG E   1      43.063 -17.302   8.012  1.00 58.69 LIG 0.04  C 
BRANCH 6 7
ATOM      7  CG  ARG E   1      42.449 -18.294   8.981  1.00 58.59 LIG 0.02  C 
BRANCH 7 8
ATOM      8  CD  ARG E   1      43.441 -19.374   9.321  1.00 58.62 LIG 0.14  C 
BRANCH 8 9
ATOM      9  NE  ARG E   1      44.272 -19.790   8.192  1.00 56.95 LIG-0.23  N 
ATOM     10  CZ  ARG E   1      45.069 -20.855   8.177  1.00 57.03 LIG 0.67  C 
ATOM     11  NH2 ARG E   1      45.746 -21.140   7.076  1.00 56.92 LIG-0.23  N 
ATOM     12  NH1 ARG E   1      45.204 -21.630   9.250  1.00 56.49 LIG-0.23  N 
ATOM     13 2HH2 ARG E   1      46.264 -21.826   7.056  1.00 56.92 LIG 0.17  HD
ATOM     14 1HH2 ARG E   1      45.668 -20.639   6.381  1.00 56.92 LIG 0.17  HD
ATOM     15 1HH1 ARG E   1      44.773 -21.447   9.970  1.00 56.49 LIG 0.17  HD
ATOM     16 2HH1 ARG E   1      45.724 -22.315   9.222  1.00 56.49 LIG 0.17  HD
ATOM     17 HE   ARG E   1      44.243 -19.307   7.480  1.00 56.95 LIG 0.18  HD
ENDBRANCH 8 9
ENDBRANCH 7 8
ENDBRANCH 6 7
ENDBRANCH 1 6
BRANCH 1 18
ATOM     18  C   ARG E   1      42.075 -15.836   6.232  1.00 59.32 LIG 0.25  C 
ATOM     19  N   LEU E   2      40.918 -15.322   6.639  1.00 59.84 LIG-0.35  N 
ATOM     20 H    LEU E   2      40.378 -15.724   7.175  1.00 59.84 LIG 0.16  HD
ATOM     21 O    ARG E   1      42.896 -15.214   5.560  1.00 59.24 LIG-0.27  OA
BRANCH 19 22
ATOM     22  CA  LEU E   2      40.463 -14.013   6.200  1.00 60.66 LIG 0.18  C 
BRANCH 22 23
ATOM     23  CB  LEU E   2      41.444 -12.940   6.689  1.00 60.80 LIG 0.04  C 
BRANCH 23 24
ATOM     24  CG  LEU E   2      40.973 -11.680   7.425  1.00 61.28 LIG-0.02  C 
ATOM     25  CD1 LEU E   2      40.270 -10.719   6.472  1.00 62.19 LIG 0.01  C 
ATOM     26  CD2 LEU E   2      40.113 -12.008   8.644  1.00 61.48 LIG 0.01  C 
ENDBRANCH 23 24
ENDBRANCH 22 23
BRANCH 22 27
ATOM     27  C   LEU E   2      40.289 -13.957   4.683  1.00 61.14 LIG 0.24  C 
ATOM     28 O    LEU E   2      40.885 -14.753   3.951  1.00 61.18 LIG-0.27  OA
ATOM     29  N   GLY E   3      39.472 -13.008   4.225  1.00 61.67 LIG-0.35  N 
ATOM     30 H    GLY E   3      39.076 -12.438   4.732  1.00 61.67 LIG 0.16  HD
BRANCH 29 31
ATOM     31  CA  GLY E   3      39.169 -12.846   2.800  1.00 62.18 LIG 0.21  C 
BRANCH 31 32
ATOM     32  C   GLY E   3      39.987 -11.771   2.101  1.00 62.54 LIG 0.21  C 
ATOM     33 O    GLY E   3      41.211 -11.693   2.250  1.00 62.83 LIG-0.29  OA
ENDBRANCH 31 32
ENDBRANCH 29 31
ENDBRANCH 22 27
ENDBRANCH 19 22
ENDBRANCH 1 18
TORSDOF 12
ENDMDL
MODEL 7
USER: ADFR SOLUTION from run 187
USER: SCORE 13.257630 LL:  -0.908 LR: -13.410 RR:   0.000 FEB:  -9.830
USER: RMSD 1.711713
USER: SEED 186
USER: STATUS no improvement in best in 7 clusters for 5 generations
USER: GENES 14
USER: genes 0 Translation |==|  0.61039 0.43893 0.52626
USER: genes 1 Rotation |==|  0.40391 0.85837 0.32675 0.78692
USER: genes 2 Torsion [CB]-CA--N-[H2] |==|  0.35937
USER: genes 3 Torsion [N]-CA--CB-[CG] |==|  0.76864
USER: genes 4 Torsion [CA]-CB--CG-[CD] |==|  0.23118
USER: genes 5 Torsion [CB]-CG--CD-[NE] |==|  0.36102
USER: genes 6 Torsion [CG]-CD--NE-[HE] |==|  0.79331
USER: genes 7 Torsion [N]-CA--C-[N] |==|  0.16429
USER: genes 8 Torsion [C]-N--CA-[CB] |==|  0.22888
USER: genes 9 Torsion [N]-CA--CB-[CG] |==|  0.46468
USER: genes 10 Torsion [CA]-CB--CG-[CD1] |==|  0.77031
USER: genes 11 Torsion [N]-CA--C-[N] |==|  0.35097
USER: genes 12 Torsion [C]-N--CA-[C] |==|  0.59410
USER: genes 13 Torsion [N]-CA--C-[O] |==|  0.76627
ROOT
ATOM      1  CA  ARG E   1      43.171 -17.638   7.845  1.00 58.91 LIG 0.27  C 
ENDROOT
BRANCH 1 2
ATOM      2  N   ARG E   1      41.973 -18.512   7.806  1.00 58.46 LIG-0.07  N 
ATOM      3 H2   ARG E   1      41.515 -18.421   8.564  1.00 58.46 LIG 0.28  HD
ATOM      4 H1   ARG E   1      42.227 -19.360   7.712  1.00 58.46 LIG 0.28  HD
ATOM      5 H3   ARG E   1      41.458 -18.279   7.119  1.00 58.46 LIG 0.28  HD
ENDBRANCH 1 2
BRANCH 1 6
ATOM      6  CB  ARG E   1      44.432 -18.426   7.483  1.00 58.69 LIG 0.04  C 
BRANCH 6 7
ATOM      7  CG  ARG E   1      45.017 -19.181   8.661  1.00 58.59 LIG 0.02  C 
BRANCH 7 8
ATOM      8  CD  ARG E   1      44.309 -20.496   8.842  1.00 58.62 LIG 0.14  C 
BRANCH 8 9
ATOM      9  NE  ARG E   1      45.211 -21.641   8.962  1.00 56.95 LIG-0.23  N 
ATOM     10  CZ  ARG E   1      45.481 -22.291  10.090  1.00 57.03 LIG 0.67  C 
ATOM     11  NH2 ARG E   1      46.293 -23.336  10.056  1.00 56.92 LIG-0.23  N 
ATOM     12  NH1 ARG E   1      44.957 -21.906  11.251  1.00 56.49 LIG-0.23  N 
ATOM     13 2HH2 ARG E   1      46.474 -23.764  10.780  1.00 56.92 LIG 0.17  HD
ATOM     14 1HH2 ARG E   1      46.640 -23.587   9.310  1.00 56.92 LIG 0.17  HD
ATOM     15 1HH1 ARG E   1      44.434 -21.224  11.281  1.00 56.49 LIG 0.17  HD
ATOM     16 2HH1 ARG E   1      45.142 -22.338  11.971  1.00 56.49 LIG 0.17  HD
ATOM     17 HE   ARG E   1      45.598 -21.917   8.244  1.00 56.95 LIG 0.18  HD
ENDBRANCH 8 9
ENDBRANCH 7 8
ENDBRANCH 6 7
ENDBRANCH 1 6
BRANCH 1 18
ATOM     18  C   ARG E   1      43.011 -16.431   6.941  1.00 59.32 LIG 0.25  C 
ATOM     19  N   LEU E   2      41.980 -15.637   7.215  1.00 59.84 LIG-0.35  N 
ATOM     20 H    LEU E   2      41.469 -15.735   7.900  1.00 59.84 LIG 0.16  HD
ATOM     21 O    ARG E   1      43.807 -16.219   6.028  1.00 59.24 LIG-0.27  OA
BRANCH 19 22
ATOM     22  CA  LEU E   2      41.625 -14.517   6.360  1.00 60.66 LIG 0.18  C 
BRANCH 22 23
ATOM     23  CB  LEU E   2      40.786 -15.020   5.179  1.00 60.80 LIG 0.04  C 
BRANCH 23 24
ATOM     24  CG  LEU E   2      40.018 -14.063   4.257  1.00 61.28 LIG-0.02  C 
ATOM     25  CD1 LEU E   2      38.676 -13.674   4.868  1.00 62.19 LIG 0.01  C 
ATOM     26  CD2 LEU E   2      40.848 -12.840   3.873  1.00 61.48 LIG 0.01  C 
ENDBRANCH 23 24
ENDBRANCH 22 23
BRANCH 22 27
ATOM     27  C   LEU E   2      40.892 -13.425   7.137  1.00 61.14 LIG 0.24  C 
ATOM     28 O    LEU E   2      39.885 -13.691   7.800  1.00 61.18 LIG-0.27  OA
ATOM     29  N   GLY E   3      41.406 -12.197   7.043  1.00 61.67 LIG-0.35  N 
ATOM     30 H    GLY E   3      42.093 -12.006   6.562  1.00 61.67 LIG 0.16  HD
BRANCH 29 31
ATOM     31  CA  GLY E   3      40.843 -11.048   7.759  1.00 62.18 LIG 0.21  C 
BRANCH 31 32
ATOM     32  C   GLY E   3      40.948  -9.729   7.010  1.00 62.54 LIG 0.21  C 
ATOM     33 O    GLY E   3      41.973  -9.040   7.056  1.00 62.83 LIG-0.29  OA
ENDBRANCH 31 32
ENDBRANCH 29 31
ENDBRANCH 22 27
ENDBRANCH 19 22
ENDBRANCH 1 18
TORSDOF 12
ENDMDL
MODEL 8
USER: ADFR SOLUTION from run 20
USER: SCORE 13.059072 LL:  -0.760 LR: -13.381 RR:   0.000 FEB:  -9.801
USER: RMSD 2.562750
USER: SEED 19
USER: STATUS no improvement in best in 9 clusters for 5 generations
USER: GENES 14
USER: genes 0 Translation |==|  0.58766 0.47869 0.46653
USER: genes 1 Rotation |==|  0.41223 0.71217 0.48582 0.94393
USER: genes 2 Torsion [CB]-CA--N-[H2] |==|  0.75634
USER: genes 3 Torsion [N]-CA--CB-[CG] |==|  0.58702
USER: genes 4 Torsion [CA]-CB--CG-[CD] |==|  0.25287
USER: genes 5 Torsion [CB]-CG--CD-[NE] |==|  0.79728
USER: genes 6 Torsion [CG]-CD--NE-[HE] |==|  0.77919
USER: genes 7 Torsion [N]-CA--C-[N] |==|  0.28243
USER: genes 8 Torsion [C]-N--CA-[CB] |==|  0.20879
USER: genes 9 Torsion [N]-CA--CB-[CG] |==|  0.56142
USER: genes 10 Torsion [CA]-CB--CG-[CD1] |==|  0.81007
USER: genes 11 Torsion [N]-CA--C-[N] |==|  0.32797
USER: genes 12 Torsion [C]-N--CA-[C] |==|  0.15620
USER: genes 13 Torsion [N]-CA--C-[O] |==|  0.76270
ROOT
ATOM      1  CA  ARG E   1      42.847 -16.743   6.904  1.00 58.91 LIG 0.27  C 
ENDROOT
BRANCH 1 2
ATOM      2  N   ARG E   1      42.828 -17.861   5.929  1.00 58.46 LIG-0.07  N 
ATOM      3 H2   ARG E   1      43.021 -17.551   5.117  1.00 58.46 LIG 0.28  HD
ATOM      4 H1   ARG E   1      42.018 -18.233   5.920  1.00 58.46 LIG 0.28  HD
ATOM      5 H3   ARG E   1      43.431 -18.471   6.165  1.00 58.46 LIG 0.28  HD
ENDBRANCH 1 2
BRANCH 1 6
ATOM      6  CB  ARG E   1      44.256 -16.531   7.462  1.00 58.69 LIG 0.04  C 
BRANCH 6 7
ATOM      7  CG  ARG E   1      44.257 -16.016   8.888  1.00 58.59 LIG 0.02  C 
BRANCH 7 8
ATOM      8  CD  ARG E   1      44.294 -17.166   9.858  1.00 58.62 LIG 0.14  C 
BRANCH 8 9
ATOM      9  NE  ARG E   1      43.033 -17.900   9.953  1.00 56.95 LIG-0.23  N 
ATOM     10  CZ  ARG E   1      42.773 -19.059   9.353  1.00 57.03 LIG 0.67  C 
ATOM     11  NH2 ARG E   1      41.598 -19.637   9.547  1.00 56.92 LIG-0.23  N 
ATOM     12  NH1 ARG E   1      43.666 -19.640   8.556  1.00 56.49 LIG-0.23  N 
ATOM     13 2HH2 ARG E   1      41.420 -20.387   9.164  1.00 56.92 LIG 0.17  HD
ATOM     14 1HH2 ARG E   1      41.013 -19.264  10.056  1.00 56.92 LIG 0.17  HD
ATOM     15 1HH1 ARG E   1      44.428 -19.266   8.421  1.00 56.49 LIG 0.17  HD
ATOM     16 2HH1 ARG E   1      43.481 -20.389   8.177  1.00 56.49 LIG 0.17  HD
ATOM     17 HE   ARG E   1      42.409 -17.556  10.435  1.00 56.95 LIG 0.18  HD
ENDBRANCH 8 9
ENDBRANCH 7 8
ENDBRANCH 6 7
ENDBRANCH 1 6
BRANCH 1 18
ATOM     18  C   ARG E   1      42.308 -15.463   6.296  1.00 59.32 LIG 0.25  C 
ATOM     19  N   LEU E   2      41.059 -15.148   6.626  1.00 59.84 LIG-0.35  N 
ATOM     20 H    LEU E   2      40.593 -15.581   7.204  1.00 59.84 LIG 0.16  HD
ATOM     21 O    ARG E   1      43.009 -14.775   5.556  1.00 59.24 LIG-0.27  OA
BRANCH 19 22
ATOM     22  CA  LEU E   2      40.366 -14.022   6.021  1.00 60.66 LIG 0.18  C 
BRANCH 22 23
ATOM     23  CB  LEU E   2      39.943 -14.389   4.593  1.00 60.80 LIG 0.04  C 
BRANCH 23 24
ATOM     24  CG  LEU E   2      39.653 -13.322   3.529  1.00 61.28 LIG-0.02  C 
ATOM     25  CD1 LEU E   2      38.388 -12.541   3.868  1.00 62.19 LIG 0.01  C 
ATOM     26  CD2 LEU E   2      40.848 -12.401   3.292  1.00 61.48 LIG 0.01  C 
ENDBRANCH 23 24
ENDBRANCH 22 23
BRANCH 22 27
ATOM     27  C   LEU E   2      39.167 -13.583   6.860  1.00 61.14 LIG 0.24  C 
ATOM     28 O    LEU E   2      38.223 -14.352   7.061  1.00 61.18 LIG-0.27  OA
ATOM     29  N   GLY E   3      39.216 -12.339   7.340  1.00 61.67 LIG-0.35  N 
ATOM     30 H    GLY E   3      39.862 -11.794   7.180  1.00 61.67 LIG 0.16  HD
BRANCH 29 31
ATOM     31  CA  GLY E   3      38.164 -11.780   8.194  1.00 62.18 LIG 0.21  C 
BRANCH 31 32
ATOM     32  C   GLY E   3      37.879 -12.586   9.451  1.00 62.54 LIG 0.21  C 
ATOM     33 O    GLY E   3      37.097 -13.543   9.442  1.00 62.83 LIG-0.29  OA
ENDBRANCH 31 32
ENDBRANCH 29 31
ENDBRANCH 22 27
ENDBRANCH 19 22
ENDBRANCH 1 18
TORSDOF 12
ENDMDL
MODEL 9
USER: ADFR SOLUTION from run 192
USER: SCORE 13.966061 LL:  -0.717 LR: -13.349 RR:   0.000 FEB:  -9.769
USER: RMSD 2.726422
USER: SEED 191
USER: STATUS no improvement in best in 8 clusters for 5 generations
USER: GENES 14
USER: genes 0 Translation |==|  0.59864 0.47269 0.50739
USER: genes 1 Rotation |==|  0.37067 0.80530 0.41423 0.86429
USER: genes 2 Torsion [CB]-CA--N-[H2] |==|  0.07968
USER: genes 3 Torsion [N]-CA--CB-[CG] |==|  0.73295
USER: genes 4 Torsion [CA]-CB--CG-[CD] |==|  0.22034
USER: genes 5 Torsion [CB]-CG--CD-[NE] |==|  0.09975
USER: genes 6 Torsion [CG]-CD--NE-[HE] |==|  0.89918
USER: genes 7 Torsion [N]-CA--C-[N] |==|  0.21346
USER: genes 8 Torsion [C]-N--CA-[CB] |==|  0.14674
USER: genes 9 Torsion [N]-CA--CB-[CG] |==|  0.55292
USER: genes 10 Torsion [CA]-CB--CG-[CD1] |==|  0.68659
USER: genes 11 Torsion [N]-CA--C-[N] |==|  0.14444
USER: genes 12 Torsion [C]-N--CA-[C] |==|  0.58249
USER: genes 13 Torsion [N]-CA--C-[O] |==|  0.91461
ROOT
ATOM      1  CA  ARG E   1      43.004 -16.878   7.547  1.00 58.91 LIG 0.27  C 
ENDROOT
BRANCH 1 2
ATOM      2  N   ARG E   1      42.353 -18.138   7.111  1.00 58.46 LIG-0.07  N 
ATOM      3 H2   ARG E   1      42.900 -18.824   7.265  1.00 58.46 LIG 0.28  HD
ATOM      4 H1   ARG E   1      42.172 -18.093   6.240  1.00 58.46 LIG 0.28  HD
ATOM      5 H3   ARG E   1      41.597 -18.254   7.565  1.00 58.46 LIG 0.28  HD
ENDBRANCH 1 2
BRANCH 1 6
ATOM      6  CB  ARG E   1      44.526 -16.987   7.444  1.00 58.69 LIG 0.04  C 
BRANCH 6 7
ATOM      7  CG  ARG E   1      45.184 -17.368   8.755  1.00 58.59 LIG 0.02  C 
BRANCH 7 8
ATOM      8  CD  ARG E   1      45.058 -18.849   8.992  1.00 58.62 LIG 0.14  C 
BRANCH 8 9
ATOM      9  NE  ARG E   1      45.153 -19.653   7.774  1.00 56.95 LIG-0.23  N 
ATOM     10  CZ  ARG E   1      45.734 -20.846   7.685  1.00 57.03 LIG 0.67  C 
ATOM     11  NH2 ARG E   1      45.723 -21.485   6.525  1.00 56.92 LIG-0.23  N 
ATOM     12  NH1 ARG E   1      46.333 -21.402   8.734  1.00 56.49 LIG-0.23  N 
ATOM     13 2HH2 ARG E   1      46.096 -22.257   6.457  1.00 56.92 LIG 0.17  HD
ATOM     14 1HH2 ARG E   1      45.343 -21.128   5.841  1.00 56.92 LIG 0.17  HD
ATOM     15 1HH1 ARG E   1      46.350 -20.989   9.488  1.00 56.49 LIG 0.17  HD
ATOM     16 2HH1 ARG E   1      46.704 -22.174   8.659  1.00 56.49 LIG 0.17  HD
ATOM     17 HE   ARG E   1      44.805 -19.328   7.057  1.00 56.95 LIG 0.18  HD
ENDBRANCH 8 9
ENDBRANCH 7 8
ENDBRANCH 6 7
ENDBRANCH 1 6
BRANCH 1 18
ATOM     18  C   ARG E   1      42.492 -15.685   6.763  1.00 59.32 LIG 0.25  C 
ATOM     19  N   LEU E   2      41.292 -15.235   7.115  1.00 59.84 LIG-0.35  N 
ATOM     20 H    LEU E   2      40.848 -15.531   7.788  1.00 59.84 LIG 0.16  HD
ATOM     21 O    ARG E   1      43.173 -15.181   5.872  1.00 59.24 LIG-0.27  OA
BRANCH 19 22
ATOM     22  CA  LEU E   2      40.619 -14.183   6.371  1.00 60.66 LIG 0.18  C 
BRANCH 22 23
ATOM     23  CB  LEU E   2      40.565 -14.561   4.885  1.00 60.80 LIG 0.04  C 
BRANCH 23 24
ATOM     24  CG  LEU E   2      40.321 -13.518   3.787  1.00 61.28 LIG-0.02  C 
ATOM     25  CD1 LEU E   2      38.973 -13.741   3.109  1.00 62.19 LIG 0.01  C 
ATOM     26  CD2 LEU E   2      40.472 -12.088   4.302  1.00 61.48 LIG 0.01  C 
ENDBRANCH 23 24
ENDBRANCH 22 23
BRANCH 22 27
ATOM     27  C   LEU E   2      39.222 -13.907   6.924  1.00 61.14 LIG 0.24  C 
ATOM     28 O    LEU E   2      38.239 -13.900   6.178  1.00 61.18 LIG-0.27  OA
ATOM     29  N   GLY E   3      39.150 -13.677   8.236  1.00 61.67 LIG-0.35  N 
ATOM     30 H    GLY E   3      39.837 -13.657   8.753  1.00 61.67 LIG 0.16  HD
BRANCH 29 31
ATOM     31  CA  GLY E   3      37.880 -13.434   8.928  1.00 62.18 LIG 0.21  C 
BRANCH 31 32
ATOM     32  C   GLY E   3      37.992 -12.539  10.152  1.00 62.54 LIG 0.21  C 
ATOM     33 O    GLY E   3      39.016 -12.514  10.842  1.00 62.83 LIG-0.29  OA
ENDBRANCH 31 32
ENDBRANCH 29 31
ENDBRANCH 22 27
ENDBRANCH 19 22
ENDBRANCH 1 18
TORSDOF 12
ENDMDL
MODEL 10
USER: ADFR SOLUTION from run 133
USER: SCORE 12.903212 LL:  -1.039 LR: -13.116 RR:   0.000 FEB:  -9.537
USER: RMSD 3.122072
USER: SEED 132
USER: STATUS no improvement in best in 10 clusters for 5 generations
USER: GENES 14
USER: genes 0 Translation |==|  0.57233 0.40357 0.60917
USER: genes 1 Rotation |==|  0.51316 0.77578 0.35320 0.89015
USER: genes 2 Torsion [CB]-CA--N-[H2] |==|  0.43203
USER: genes 3 Torsion [N]-CA--CB-[CG] |==|  0.90520
USER: genes 4 Torsion [CA]-CB--CG-[CD] |==|  0.60107
USER: genes 5 Torsion [CB]-CG--CD-[NE] |==|  0.69486
USER: genes 6 Torsion [CG]-CD--NE-[HE] |==|  0.99776
USER: genes 7 Torsion [N]-CA--C-[N] |==|  0.02888
USER: genes 8 Torsion [C]-N--CA-[CB] |==|  0.43264
USER: genes 9 Torsion [N]-CA--CB-[CG] |==|  0.31529
USER: genes 10 Torsion [CA]-CB--CG-[CD1] |==|  0.45190
USER: genes 11 Torsion [N]-CA--C-[N] |==|  0.89169
USER: genes 12 Torsion [C]-N--CA-[C] |==|  0.39610
USER: genes 13 Torsion [N]-CA--C-[O] |==|  0.99674
ROOT
ATOM      1  CA  ARG E   1      42.629 -18.434   9.150  1.00 58.91 LIG 0.27  C 
ENDROOT
BRANCH 1 2
ATOM      2  N   ARG E   1      41.723 -19.100   8.183  1.00 58.46 LIG-0.07  N 
ATOM      3 H2   ARG E   1      40.886 -18.829   8.324  1.00 58.46 LIG 0.28  HD
ATOM      4 H1   ARG E   1      41.771 -19.983   8.290  1.00 58.46 LIG 0.28  HD
ATOM      5 H3   ARG E   1      41.967 -18.888   7.354  1.00 58.46 LIG 0.28  HD
ENDBRANCH 1 2
BRANCH 1 6
ATOM      6  CB  ARG E   1      43.897 -19.261   9.368  1.00 58.69 LIG 0.04  C 
BRANCH 6 7
ATOM      7  CG  ARG E   1      43.650 -20.755   9.298  1.00 58.59 LIG 0.02  C 
BRANCH 7 8
ATOM      8  CD  ARG E   1      44.516 -21.476  10.295  1.00 58.62 LIG 0.14  C 
BRANCH 8 9
ATOM      9  NE  ARG E   1      45.587 -22.265   9.687  1.00 56.95 LIG-0.23  N 
ATOM     10  CZ  ARG E   1      46.490 -22.977  10.355  1.00 57.03 LIG 0.67  C 
ATOM     11  NH2 ARG E   1      47.390 -23.675   9.681  1.00 56.92 LIG-0.23  N 
ATOM     12  NH1 ARG E   1      46.510 -22.992  11.686  1.00 56.49 LIG-0.23  N 
ATOM     13 2HH2 ARG E   1      47.978 -24.139  10.103  1.00 56.92 LIG 0.17  HD
ATOM     14 1HH2 ARG E   1      47.387 -23.665   8.821  1.00 56.92 LIG 0.17  HD
ATOM     15 1HH1 ARG E   1      45.933 -22.535  12.130  1.00 56.49 LIG 0.17  HD
ATOM     16 2HH1 ARG E   1      47.101 -23.458  12.101  1.00 56.49 LIG 0.17  HD
ATOM     17 HE   ARG E   1      45.637 -22.269   8.828  1.00 56.95 LIG 0.18  HD
ENDBRANCH 8 9
ENDBRANCH 7 8
ENDBRANCH 6 7
ENDBRANCH 1 6
BRANCH 1 18
ATOM     18  C   ARG E   1      42.972 -17.023   8.713  1.00 59.32 LIG 0.25  C 
ATOM     19  N   LEU E   2      42.264 -16.545   7.694  1.00 59.84 LIG-0.35  N 
ATOM     20 H    LEU E   2      41.598 -16.957   7.340  1.00 59.84 LIG 0.16  HD
ATOM     21 O    ARG E   1      43.848 -16.381   9.291  1.00 59.24 LIG-0.27  OA
BRANCH 19 22
ATOM     22  CA  LEU E   2      42.567 -15.261   7.084  1.00 60.66 LIG 0.18  C 
BRANCH 22 23
ATOM     23  CB  LEU E   2      42.044 -15.244   5.642  1.00 60.80 LIG 0.04  C 
BRANCH 23 24
ATOM     24  CG  LEU E   2      40.899 -14.322   5.201  1.00 61.28 LIG-0.02  C 
ATOM     25  CD1 LEU E   2      40.860 -14.186   3.683  1.00 62.19 LIG 0.01  C 
ATOM     26  CD2 LEU E   2      39.552 -14.760   5.771  1.00 61.48 LIG 0.01  C 
ENDBRANCH 23 24
ENDBRANCH 22 23
BRANCH 22 27
ATOM     27  C   LEU E   2      41.993 -14.102   7.897  1.00 61.14 LIG 0.24  C 
ATOM     28 O    LEU E   2      42.632 -13.056   8.040  1.00 61.18 LIG-0.27  OA
ATOM     29  N   GLY E   3      40.785 -14.304   8.427  1.00 61.67 LIG-0.35  N 
ATOM     30 H    GLY E   3      40.350 -15.041   8.348  1.00 61.67 LIG 0.16  HD
BRANCH 29 31
ATOM     31  CA  GLY E   3      40.081 -13.277   9.201  1.00 62.18 LIG 0.21  C 
BRANCH 31 32
ATOM     32  C   GLY E   3      38.577 -13.241   8.975  1.00 62.54 LIG 0.21  C 
ATOM     33 O    GLY E   3      38.025 -14.010   8.181  1.00 62.83 LIG-0.29  OA
ENDBRANCH 31 32
ENDBRANCH 29 31
ENDBRANCH 22 27
ENDBRANCH 19 22
ENDBRANCH 1 18
TORSDOF 12
ENDMDL
MODEL 11
USER: ADFR SOLUTION from run 63
USER: SCORE 13.794290 LL:  -0.965 LR: -12.886 RR:   0.000 FEB:  -9.306
USER: RMSD 4.608643
USER: SEED 62
USER: STATUS no improvement in best in 10 clusters for 5 generations
USER: GENES 14
USER: genes 0 Translation |==|  0.57228 0.37569 0.63228
USER: genes 1 Rotation |==|  0.56002 0.79333 0.32732 0.86129
USER: genes 2 Torsion [CB]-CA--N-[H2] |==|  0.46082
USER: genes 3 Torsion [N]-CA--CB-[CG] |==|  0.86649
USER: genes 4 Torsion [CA]-CB--CG-[CD] |==|  0.59606
USER: genes 5 Torsion [CB]-CG--CD-[NE] |==|  0.79997
USER: genes 6 Torsion [CG]-CD--NE-[HE] |==|  0.93481
USER: genes 7 Torsion [N]-CA--C-[N] |==|  0.01196
USER: genes 8 Torsion [C]-N--CA-[CB] |==|  0.15555
USER: genes 9 Torsion [N]-CA--CB-[CG] |==|  0.60931
USER: genes 10 Torsion [CA]-CB--CG-[CD1] |==|  0.72315
USER: genes 11 Torsion [N]-CA--C-[N] |==|  0.12310
USER: genes 12 Torsion [C]-N--CA-[C] |==|  0.61094
USER: genes 13 Torsion [N]-CA--C-[O] |==|  0.84701
ROOT
ATOM      1  CA  ARG E   1      42.628 -19.061   9.514  1.00 58.91 LIG 0.27  C 
ENDROOT
BRANCH 1 2
ATOM      2  N   ARG E   1      41.548 -19.401   8.556  1.00 58.46 LIG-0.07  N 
ATOM      3 H2   ARG E   1      40.848 -18.870   8.696  1.00 58.46 LIG 0.28  HD
ATOM      4 H1   ARG E   1      41.305 -20.250   8.672  1.00 58.46 LIG 0.28  HD
ATOM      5 H3   ARG E   1      41.843 -19.289   7.724  1.00 58.46 LIG 0.28  HD
ENDBRANCH 1 2
BRANCH 1 6
ATOM      6  CB  ARG E   1      43.695 -20.157   9.545  1.00 58.69 LIG 0.04  C 
BRANCH 6 7
ATOM      7  CG  ARG E   1      43.111 -21.550   9.676  1.00 58.59 LIG 0.02  C 
BRANCH 7 8
ATOM      8  CD  ARG E   1      44.018 -22.421  10.502  1.00 58.62 LIG 0.14  C 
BRANCH 8 9
ATOM      9  NE  ARG E   1      45.253 -22.805   9.818  1.00 56.95 LIG-0.23  N 
ATOM     10  CZ  ARG E   1      46.382 -23.170  10.419  1.00 57.03 LIG 0.67  C 
ATOM     11  NH2 ARG E   1      47.421 -23.526   9.681  1.00 56.92 LIG-0.23  N 
ATOM     12  NH1 ARG E   1      46.487 -23.174  11.746  1.00 56.49 LIG-0.23  N 
ATOM     13 2HH2 ARG E   1      48.156 -23.764  10.060  1.00 56.92 LIG 0.17  HD
ATOM     14 1HH2 ARG E   1      47.362 -23.520   8.823  1.00 56.92 LIG 0.17  HD
ATOM     15 1HH1 ARG E   1      45.818 -22.938  12.231  1.00 56.49 LIG 0.17  HD
ATOM     16 2HH1 ARG E   1      47.225 -23.414  12.118  1.00 56.49 LIG 0.17  HD
ATOM     17 HE   ARG E   1      45.248 -22.794   8.958  1.00 56.95 LIG 0.18  HD
ENDBRANCH 8 9
ENDBRANCH 7 8
ENDBRANCH 6 7
ENDBRANCH 1 6
BRANCH 1 18
ATOM     18  C   ARG E   1      43.248 -17.712   9.202  1.00 59.32 LIG 0.25  C 
ATOM     19  N   LEU E   2      42.681 -17.033   8.209  1.00 59.84 LIG-0.35  N 
ATOM     20 H    LEU E   2      41.964 -17.283   7.807  1.00 59.84 LIG 0.16  HD
ATOM     21 O    ARG E   1      44.206 -17.295   9.850  1.00 59.24 LIG-0.27  OA
BRANCH 19 22
ATOM     22  CA  LEU E   2      43.244 -15.788   7.713  1.00 60.66 LIG 0.18  C 
BRANCH 22 23
ATOM     23  CB  LEU E   2      44.698 -16.018   7.284  1.00 60.80 LIG 0.04  C 
BRANCH 23 24
ATOM     24  CG  LEU E   2      45.801 -14.985   7.553  1.00 61.28 LIG-0.02  C 
ATOM     25  CD1 LEU E   2      46.086 -14.152   6.308  1.00 62.19 LIG 0.01  C 
ATOM     26  CD2 LEU E   2      45.492 -14.113   8.767  1.00 61.48 LIG 0.01  C 
ENDBRANCH 23 24
ENDBRANCH 22 23
BRANCH 22 27
ATOM     27  C   LEU E   2      42.412 -15.211   6.569  1.00 61.14 LIG 0.24  C 
ATOM     28 O    LEU E   2      42.958 -14.763   5.556  1.00 61.18 LIG-0.27  OA
ATOM     29  N   GLY E   3      41.090 -15.225   6.744  1.00 61.67 LIG-0.35  N 
ATOM     30 H    GLY E   3      40.709 -15.514   7.459  1.00 61.67 LIG 0.16  HD
BRANCH 29 31
ATOM     31  CA  GLY E   3      40.152 -14.744   5.725  1.00 62.18 LIG 0.21  C 
BRANCH 31 32
ATOM     32  C   GLY E   3      38.973 -13.958   6.277  1.00 62.54 LIG 0.21  C 
ATOM     33 O    GLY E   3      38.230 -14.431   7.143  1.00 62.83 LIG-0.29  OA
ENDBRANCH 31 32
ENDBRANCH 29 31
ENDBRANCH 22 27
ENDBRANCH 19 22
ENDBRANCH 1 18
TORSDOF 12
ENDMDL
MODEL 12
USER: ADFR SOLUTION from run 88
USER: SCORE 13.990250 LL:  -1.116 LR: -12.876 RR:   0.000 FEB:  -9.296
USER: RMSD 3.411108
USER: SEED 87
USER: STATUS searching
USER: GENES 14
USER: genes 0 Translation |==|  0.55257 0.45109 0.44146
USER: genes 1 Rotation |==|  0.50711 0.50886 0.50819 0.99980
USER: genes 2 Torsion [CB]-CA--N-[H2] |==|  0.03779
USER: genes 3 Torsion [N]-CA--CB-[CG] |==|  0.75463
USER: genes 4 Torsion [CA]-CB--CG-[CD] |==|  0.47909
USER: genes 5 Torsion [CB]-CG--CD-[NE] |==|  0.48559
USER: genes 6 Torsion [CG]-CD--NE-[HE] |==|  0.15564
USER: genes 7 Torsion [N]-CA--C-[N] |==|  0.42722
USER: genes 8 Torsion [C]-N--CA-[CB] |==|  0.82778
USER: genes 9 Torsion [N]-CA--CB-[CG] |==|  0.62717
USER: genes 10 Torsion [CA]-CB--CG-[CD1] |==|  0.46806
USER: genes 11 Torsion [N]-CA--C-[N] |==|  0.39850
USER: genes 12 Torsion [C]-N--CA-[C] |==|  0.76265
USER: genes 13 Torsion [N]-CA--C-[O] |==|  0.12892
ROOT
ATOM      1  CA  ARG E   1      42.347 -17.365   6.509  1.00 58.91 LIG 0.27  C 
ENDROOT
BRANCH 1 2
ATOM      2  N   ARG E   1      43.272 -18.026   5.556  1.00 58.46 LIG-0.07  N 
ATOM      3 H2   ARG E   1      43.833 -18.552   6.004  1.00 58.46 LIG 0.28  HD
ATOM      4 H1   ARG E   1      43.735 -17.407   5.113  1.00 58.46 LIG 0.28  HD
ATOM      5 H3   ARG E   1      42.804 -18.515   4.979  1.00 58.46 LIG 0.28  HD
ENDBRANCH 1 2
BRANCH 1 6
ATOM      6  CB  ARG E   1      42.845 -17.517   7.947  1.00 58.69 LIG 0.04  C 
BRANCH 6 7
ATOM      7  CG  ARG E   1      42.349 -18.785   8.615  1.00 58.59 LIG 0.02  C 
BRANCH 7 8
ATOM      8  CD  ARG E   1      43.016 -18.967   9.952  1.00 58.62 LIG 0.14  C 
BRANCH 8 9
ATOM      9  NE  ARG E   1      42.505 -20.104  10.717  1.00 56.95 LIG-0.23  N 
ATOM     10  CZ  ARG E   1      42.008 -20.038  11.949  1.00 57.03 LIG 0.67  C 
ATOM     11  NH2 ARG E   1      41.547 -21.140  12.520  1.00 56.92 LIG-0.23  N 
ATOM     12  NH1 ARG E   1      41.973 -18.889  12.619  1.00 56.49 LIG-0.23  N 
ATOM     13 2HH2 ARG E   1      41.223 -21.109  13.316  1.00 56.92 LIG 0.17  HD
ATOM     14 1HH2 ARG E   1      41.572 -21.888  12.094  1.00 56.92 LIG 0.17  HD
ATOM     15 1HH1 ARG E   1      42.276 -18.171  12.257  1.00 56.49 LIG 0.17  HD
ATOM     16 2HH1 ARG E   1      41.647 -18.865  13.414  1.00 56.49 LIG 0.17  HD
ATOM     17 HE   ARG E   1      42.529 -20.877  10.341  1.00 56.95 LIG 0.18  HD
ENDBRANCH 8 9
ENDBRANCH 7 8
ENDBRANCH 6 7
ENDBRANCH 1 6
BRANCH 1 18
ATOM     18  C   ARG E   1      42.139 -15.903   6.162  1.00 59.32 LIG 0.25  C 
ATOM     19  N   LEU E   2      40.987 -15.372   6.562  1.00 59.84 LIG-0.35  N 
ATOM     20 H    LEU E   2      40.416 -15.785   7.054  1.00 59.84 LIG 0.16  HD
ATOM     21 O    ARG E   1      43.004 -15.271   5.557  1.00 59.24 LIG-0.27  OA
BRANCH 19 22
ATOM     22  CA  LEU E   2      40.594 -14.023   6.191  1.00 60.66 LIG 0.18  C 
BRANCH 22 23
ATOM     23  CB  LEU E   2      41.607 -13.021   6.759  1.00 60.80 LIG 0.04  C 
BRANCH 23 24
ATOM     24  CG  LEU E   2      41.170 -11.737   7.476  1.00 61.28 LIG-0.02  C 
ATOM     25  CD1 LEU E   2      42.349 -11.074   8.180  1.00 62.19 LIG 0.01  C 
ATOM     26  CD2 LEU E   2      40.442 -10.772   6.544  1.00 61.48 LIG 0.01  C 
ENDBRANCH 23 24
ENDBRANCH 22 23
BRANCH 22 27
ATOM     27  C   LEU E   2      40.453 -13.874   4.678  1.00 61.14 LIG 0.24  C 
ATOM     28 O    LEU E   2      41.223 -14.462   3.912  1.00 61.18 LIG-0.27  OA
ATOM     29  N   GLY E   3      39.466 -13.080   4.259  1.00 61.67 LIG-0.35  N 
ATOM     30 H    GLY E   3      38.945 -12.650   4.792  1.00 61.67 LIG 0.16  HD
BRANCH 29 31
ATOM     31  CA  GLY E   3      39.175 -12.862   2.839  1.00 62.18 LIG 0.21  C 
BRANCH 31 32
ATOM     32  C   GLY E   3      40.001 -11.764   2.189  1.00 62.54 LIG 0.21  C 
ATOM     33 O    GLY E   3      41.223 -11.690   2.356  1.00 62.83 LIG-0.29  OA
ENDBRANCH 31 32
ENDBRANCH 29 31
ENDBRANCH 22 27
ENDBRANCH 19 22
ENDBRANCH 1 18
TORSDOF 12
ENDMDL
MODEL 13
USER: ADFR SOLUTION from run 181
USER: SCORE 13.321912 LL:  -1.151 LR: -12.747 RR:   0.000 FEB:  -9.168
USER: RMSD 2.304053
USER: SEED 180
USER: STATUS no improvement in best in 8 clusters for 5 generations
USER: GENES 14
USER: genes 0 Translation |==|  0.58614 0.44639 0.46444
USER: genes 1 Rotation |==|  0.53691 0.61568 0.45268 0.98272
USER: genes 2 Torsion [CB]-CA--N-[H2] |==|  0.37460
USER: genes 3 Torsion [N]-CA--CB-[CG] |==|  0.65929
USER: genes 4 Torsion [CA]-CB--CG-[CD] |==|  0.20663
USER: genes 5 Torsion [CB]-CG--CD-[NE] |==|  0.30094
USER: genes 6 Torsion [CG]-CD--NE-[HE] |==|  0.26451
USER: genes 7 Torsion [N]-CA--C-[N] |==|  0.40957
USER: genes 8 Torsion [C]-N--CA-[CB] |==|  0.15252
USER: genes 9 Torsion [N]-CA--CB-[CG] |==|  0.10488
USER: genes 10 Torsion [CA]-CB--CG-[CD1] |==|  0.24524
USER: genes 11 Torsion [N]-CA--C-[N] |==|  0.64270
USER: genes 12 Torsion [C]-N--CA-[C] |==|  0.77391
USER: genes 13 Torsion [N]-CA--C-[O] |==|  0.96147
ROOT
ATOM      1  CA  ARG E   1      42.825 -17.470   6.871  1.00 58.91 LIG 0.27  C 
ENDROOT
BRANCH 1 2
ATOM      2  N   ARG E   1      43.098 -18.139   5.575  1.00 58.46 LIG-0.07  N 
ATOM      3 H2   ARG E   1      42.333 -18.422   5.220  1.00 58.46 LIG 0.28  HD
ATOM      4 H1   ARG E   1      43.639 -18.834   5.708  1.00 58.46 LIG 0.28  HD
ATOM      5 H3   ARG E   1      43.487 -17.562   5.020  1.00 58.46 LIG 0.28  HD
ENDBRANCH 1 2
BRANCH 1 6
ATOM      6  CB  ARG E   1      43.816 -17.931   7.942  1.00 58.69 LIG 0.04  C 
BRANCH 6 7
ATOM      7  CG  ARG E   1      43.138 -18.533   9.157  1.00 58.59 LIG 0.02  C 
BRANCH 7 8
ATOM      8  CD  ARG E   1      42.619 -19.909   8.837  1.00 58.62 LIG 0.14  C 
BRANCH 8 9
ATOM      9  NE  ARG E   1      43.374 -20.988   9.473  1.00 56.95 LIG-0.23  N 
ATOM     10  CZ  ARG E   1      44.486 -21.535   8.989  1.00 57.03 LIG 0.67  C 
ATOM     11  NH2 ARG E   1      45.092 -22.486   9.681  1.00 56.92 LIG-0.23  N 
ATOM     12  NH1 ARG E   1      44.992 -21.151   7.820  1.00 56.49 LIG-0.23  N 
ATOM     13 2HH2 ARG E   1      45.812 -22.847   9.377  1.00 56.92 LIG 0.17  HD
ATOM     14 1HH2 ARG E   1      44.767 -22.744  10.435  1.00 56.92 LIG 0.17  HD
ATOM     15 1HH1 ARG E   1      44.599 -20.538   7.362  1.00 56.49 LIG 0.17  HD
ATOM     16 2HH1 ARG E   1      45.712 -21.515   7.522  1.00 56.49 LIG 0.17  HD
ATOM     17 HE   ARG E   1      43.076 -21.294  10.220  1.00 56.95 LIG 0.18  HD
ENDBRANCH 8 9
ENDBRANCH 7 8
ENDBRANCH 6 7
ENDBRANCH 1 6
BRANCH 1 18
ATOM     18  C   ARG E   1      42.842 -15.960   6.734  1.00 59.32 LIG 0.25  C 
ATOM     19  N   LEU E   2      42.013 -15.298   7.536  1.00 59.84 LIG-0.35  N 
ATOM     20 H    LEU E   2      41.545 -15.671   8.154  1.00 59.84 LIG 0.16  HD
ATOM     21 O    ARG E   1      43.593 -15.410   5.931  1.00 59.24 LIG-0.27  OA
BRANCH 19 22
ATOM     22  CA  LEU E   2      41.826 -13.861   7.429  1.00 60.66 LIG 0.18  C 
BRANCH 22 23
ATOM     23  CB  LEU E   2      41.422 -13.503   5.993  1.00 60.80 LIG 0.04  C 
BRANCH 23 24
ATOM     24  CG  LEU E   2      40.485 -14.391   5.165  1.00 61.28 LIG-0.02  C 
ATOM     25  CD1 LEU E   2      39.025 -14.014   5.397  1.00 62.19 LIG 0.01  C 
ATOM     26  CD2 LEU E   2      40.847 -14.389   3.681  1.00 61.48 LIG 0.01  C 
ENDBRANCH 23 24
ENDBRANCH 22 23
BRANCH 22 27
ATOM     27  C   LEU E   2      40.799 -13.350   8.438  1.00 61.14 LIG 0.24  C 
ATOM     28 O    LEU E   2      40.894 -13.639   9.635  1.00 61.18 LIG-0.27  OA
ATOM     29  N   GLY E   3      39.819 -12.593   7.942  1.00 61.67 LIG-0.35  N 
ATOM     30 H    GLY E   3      39.738 -12.411   7.105  1.00 61.67 LIG 0.16  HD
BRANCH 29 31
ATOM     31  CA  GLY E   3      38.778 -11.995   8.783  1.00 62.18 LIG 0.21  C 
BRANCH 31 32
ATOM     32  C   GLY E   3      37.642 -12.939   9.144  1.00 62.54 LIG 0.21  C 
ATOM     33 O    GLY E   3      37.484 -14.014   8.556  1.00 62.83 LIG-0.29  OA
ENDBRANCH 31 32
ENDBRANCH 29 31
ENDBRANCH 22 27
ENDBRANCH 19 22
ENDBRANCH 1 18
TORSDOF 12
ENDMDL
