MODEL 1
USER: ADFR SOLUTION from run 19
USER: SCORE 28.018501 LL:  -5.182 LR: -25.267 RR:   0.000 FEB: -17.810
USER: RMSD 3.120054
USER: SEED 18
USER: STATUS no improvement in best in 5 clusters for 5 generations
USER: GENES 27
USER: genes 0 Translation |==|  0.45352 0.48586 0.55856
USER: genes 1 Rotation |==|  0.51070 0.55162 0.52754 0.99645
USER: genes 2 Torsion [N]-C--CA-[N] |==|  0.30721
USER: genes 3 Torsion [C]-CA--N-[C] |==|  0.70012
USER: genes 4 Torsion [N]-C--CA-[N] |==|  0.36671
USER: genes 5 Torsion [C]-CA--CB-[CG2] |==|  0.14783
USER: genes 6 Torsion [CA]-CB--CG1-[CD1] |==|  0.85899
USER: genes 7 Torsion [C]-CA--N-[C] |==|  0.67180
USER: genes 8 Torsion [N]-C--CA-[N] |==|  0.40942
USER: genes 9 Torsion [C]-CA--N-[C] |==|  0.67778
USER: genes 10 Torsion [N]-C--CA-[CB] |==|  0.39622
USER: genes 11 Torsion [C]-CA--CB-[CG] |==|  0.42421
USER: genes 12 Torsion [CA]-CB--CG-[CD] |==|  0.19115
USER: genes 13 Torsion [CB]-CG--CD-[NE2] |==|  0.15436
USER: genes 14 Torsion [C]-CA--CB-[CG2] |==|  0.26920
USER: genes 15 Torsion [CA]-CB--CG1-[CD1] |==|  0.82673
USER: genes 16 Torsion [C]-N--CA-[CB] |==|  0.38486
USER: genes 17 Torsion [N]-CA--CB-[CG] |==|  0.63622
USER: genes 18 Torsion [CA]-CB--CG-[OD1] |==|  0.48756
USER: genes 19 Torsion [N]-CA--C-[N] |==|  0.44482
USER: genes 20 Torsion [C]-N--CA-[C] |==|  0.60482
USER: genes 21 Torsion [N]-CA--CB-[CG] |==|  0.98859
USER: genes 22 Torsion [CA]-CB--CG-[CD] |==|  0.38378
USER: genes 23 Torsion [CB]-CG--CD-[NE] |==|  0.83143
USER: genes 24 Torsion [CG]-CD--NE-[HE] |==|  0.82972
USER: genes 25 Torsion [N]-CA--C-[N] |==|  0.48887
USER: genes 26 Torsion [N]-CA--C-[O] |==|  0.98716
ROOT
ATOM      1  C   ILE B 120      -2.430  32.147  56.216  1.00 16.04 LIG 0.24  C 
ATOM      2 O    ILE B 120      -3.562  32.147  55.733  1.00 15.27 LIG-0.27  OA
ATOM      3  N   ASN B 121      -2.170  31.827  57.484  1.00 16.46 LIG-0.35  N 
ATOM      4 H    ASN B 121      -1.374  31.729  57.794  1.00 16.46 LIG 0.16  HD
ENDROOT
BRANCH 1 5
ATOM      5  CA  ILE B 120      -1.223  32.402  55.326  1.00 16.12 LIG 0.18  C 
BRANCH 5 6
ATOM      6  N   ILE B 120      -1.190  31.258  54.370  1.00 14.41 LIG-0.35  N 
ATOM      7 H    ILE B 120      -1.815  31.291  53.780  1.00 14.41 LIG 0.16  HD
ATOM      8  C   ILE B 119      -0.290  30.278  54.412  1.00 14.21 LIG 0.24  C 
ATOM      9 O    ILE B 119       0.597  30.165  55.266  1.00 13.95 LIG-0.27  OA
BRANCH 8 10
ATOM     10  CA  ILE B 119      -0.449  29.193  53.357  1.00 14.01 LIG 0.18  C 
BRANCH 10 11
ATOM     11  CB  ILE B 119      -0.974  27.969  54.139  1.00 14.26 LIG 0.01  C 
ATOM     12  CG2 ILE B 119      -2.212  28.334  54.945  1.00 14.00 LIG 0.01  C 
BRANCH 11 13
ATOM     13  CG1 ILE B 119      -1.372  26.839  53.208  1.00 15.18 LIG 0.00  C 
ATOM     14  CD1 ILE B 119      -2.299  27.290  52.097  1.00 12.51 LIG 0.01  C 
ENDBRANCH 11 13
ENDBRANCH 10 11
BRANCH 10 15
ATOM     15  N   ILE B 119       0.875  28.969  52.749  1.00 12.55 LIG-0.35  N 
ATOM     16 H    ILE B 119       1.468  28.693  53.307  1.00 12.55 LIG 0.16  HD
ATOM     17  C   GLN B 118       1.131  29.176  51.456  1.00 12.00 LIG 0.24  C 
ATOM     18 O    GLN B 118       0.263  29.459  50.615  1.00 12.29 LIG-0.27  OA
BRANCH 17 19
ATOM     19  CA  GLN B 118       2.604  29.139  51.039  1.00 10.88 LIG 0.18  C 
BRANCH 19 20
ATOM     20  N   GLN B 118       2.727  28.614  49.679  1.00  9.13 LIG-0.35  N 
ATOM     21  C   PRO B 117       3.367  27.464  49.439  1.00  5.97 LIG 0.25  C 
ATOM     22 O    PRO B 117       3.962  26.841  50.319  1.00  4.88 LIG-0.27  OA
ATOM     23 H    GLN B 118       2.360  29.100  49.071  1.00  9.13 LIG 0.16  HD
BRANCH 21 24
ATOM     24  CA  PRO B 117       3.435  27.024  47.954  1.00  4.52 LIG 0.35  C 
ATOM     25  CB  PRO B 117       4.775  26.375  47.626  1.00  4.68 LIG 0.05  C 
ATOM     26  CG  PRO B 117       5.216  26.979  46.337  1.00  4.01 LIG 0.04  C 
ATOM     27  CD  PRO B 117       4.685  28.383  46.390  1.00  3.18 LIG 0.32  C 
ATOM     28  N   PRO B 117       3.389  28.194  47.064  1.00  3.80 LIG 0.32  N 
ENDBRANCH 21 24
ENDBRANCH 19 20
BRANCH 19 29
ATOM     29  CB  GLN B 118       3.137  30.538  51.070  1.00 12.35 LIG 0.04  C 
BRANCH 29 30
ATOM     30  CG  GLN B 118       4.599  30.576  51.324  1.00 13.74 LIG 0.10  C 
BRANCH 30 31
ATOM     31  CD  GLN B 118       5.339  30.038  50.176  1.00 14.95 LIG 0.21  C 
ATOM     32  NE2 GLN B 118       5.095  30.614  49.009  1.00 14.23 LIG-0.37  N 
ATOM     33 22HE GLN B 118       5.515  30.354  48.306  1.00 14.23 LIG 0.16  HD
ATOM     34 21HE GLN B 118       4.516  31.248  48.955  1.00 14.23 LIG 0.16  HD
ATOM     35 OE1  GLN B 118       6.151  29.132  50.318  1.00 17.00 LIG-0.27  OA
ENDBRANCH 30 31
ENDBRANCH 29 30
ENDBRANCH 19 29
ENDBRANCH 17 19
ENDBRANCH 10 15
ENDBRANCH 8 10
ENDBRANCH 5 6
BRANCH 5 36
ATOM     36  CB  ILE B 120      -1.413  33.742  54.658  1.00 15.78 LIG 0.01  C 
ATOM     37  CG2 ILE B 120      -0.661  34.812  55.436  1.00 15.40 LIG 0.01  C 
BRANCH 36 38
ATOM     38  CG1 ILE B 120      -0.904  33.747  53.221  1.00 16.31 LIG 0.00  C 
ATOM     39  CD1 ILE B 120       0.621  33.479  53.129  1.00 16.15 LIG 0.01  C 
ENDBRANCH 36 38
ENDBRANCH 5 36
ENDBRANCH 1 5
BRANCH 3 40
ATOM     40  CA  ASN B 121      -3.217  31.612  58.465  1.00 16.96 LIG 0.18  C 
BRANCH 40 41
ATOM     41  CB  ASN B 121      -2.892  30.413  59.348  1.00 15.28 LIG 0.14  C 
BRANCH 41 42
ATOM     42  CG  ASN B 121      -4.061  29.456  59.462  1.00 13.24 LIG 0.22  C 
ATOM     43 OD1  ASN B 121      -3.928  28.395  60.074  1.00 13.18 LIG-0.27  OA
ATOM     44  ND2 ASN B 121      -5.222  29.804  58.862  1.00 12.91 LIG-0.37  N 
ATOM     45 22HD ASN B 121      -5.282  30.552  58.442  1.00 12.91 LIG 0.16  HD
ATOM     46 21HD ASN B 121      -5.900  29.276  58.900  1.00 12.91 LIG 0.16  HD
ENDBRANCH 41 42
ENDBRANCH 40 41
BRANCH 40 47
ATOM     47  C   ASN B 121      -3.309  32.891  59.320  1.00 17.96 LIG 0.24  C 
ATOM     48  N   ARG B 122      -4.439  33.087  59.998  1.00 20.13 LIG-0.35  N 
ATOM     49 H    ARG B 122      -5.128  32.582  59.900  1.00 20.13 LIG 0.16  HD
ATOM     50 O    ASN B 121      -2.407  33.712  59.267  1.00 18.88 LIG-0.27  OA
BRANCH 48 51
ATOM     51  CA  ARG B 122      -4.655  34.170  60.983  1.00 22.24 LIG 0.18  C 
BRANCH 51 52
ATOM     52  CB  ARG B 122      -5.467  35.287  60.367  1.00 21.82 LIG 0.04  C 
BRANCH 52 53
ATOM     53  CG  ARG B 122      -5.772  35.092  58.919  1.00 24.56 LIG 0.02  C 
BRANCH 53 54
ATOM     54  CD  ARG B 122      -7.204  35.485  58.616  1.00 26.52 LIG 0.14  C 
BRANCH 54 55
ATOM     55  NE  ARG B 122      -8.226  34.717  59.334  1.00 28.40 LIG-0.23  N 
ATOM     56  CZ  ARG B 122      -9.133  35.192  60.198  1.00 28.18 LIG 0.67  C 
ATOM     57  NH2 ARG B 122      -9.983  34.340  60.767  1.00 29.45 LIG-0.23  N 
ATOM     58  NH1 ARG B 122      -9.199  36.480  60.540  1.00 26.03 LIG-0.23  N 
ATOM     59 1HH2 ARG B 122      -9.944  33.502  60.578  1.00 29.45 LIG 0.17  HD
ATOM     60 2HH2 ARG B 122     -10.573  34.628  61.324  1.00 29.45 LIG 0.17  HD
ATOM     61 1HH1 ARG B 122      -8.644  37.043  60.201  1.00 26.03 LIG 0.17  HD
ATOM     62 2HH1 ARG B 122      -9.796  36.746  61.098  1.00 26.03 LIG 0.17  HD
ATOM     63 HE   ARG B 122      -8.245  33.870  59.185  1.00 28.40 LIG 0.18  HD
ENDBRANCH 54 55
ENDBRANCH 53 54
ENDBRANCH 52 53
ENDBRANCH 51 52
BRANCH 51 64
ATOM     64  C   ARG B 122      -5.487  33.491  62.044  1.00 23.14 LIG 0.24  C 
ATOM     65 O    ARG B 122      -5.814  32.318  61.892  1.00 23.63 LIG-0.27  OA
ATOM     66  N   PRO B 123      -5.793  34.194  63.146  1.00 23.72 LIG-0.34  N 
ATOM     67  CA  PRO B 123      -6.533  33.571  64.236  1.00 24.06 LIG 0.17  C 
ATOM     68  CD  PRO B 123      -5.753  35.663  63.295  1.00 24.11 LIG 0.13  C 
ATOM     69  CB  PRO B 123      -6.226  34.492  65.412  1.00 24.84 LIG 0.04  C 
ATOM     70  CG  PRO B 123      -6.019  35.847  64.797  1.00 25.19 LIG 0.02  C 
BRANCH 67 71
ATOM     71  C   PRO B 123      -8.059  33.517  63.971  1.00 23.73 LIG 0.22  C 
ATOM     72 O    PRO B 123      -8.531  34.054  62.956  1.00 24.65 LIG-0.29  OA
ENDBRANCH 67 71
ENDBRANCH 51 64
ENDBRANCH 48 51
ENDBRANCH 40 47
ENDBRANCH 3 40
TORSDOF 25
ENDMDL
MODEL 2
USER: ADFR SOLUTION from run 4
USER: SCORE 28.203983 LL:  -4.781 LR: -25.251 RR:   0.000 FEB: -17.794
USER: RMSD 6.558034
USER: SEED 779930
USER: STATUS no improvement in best in 2 clusters for 5 generations
USER: GENES 27
USER: genes 0 Translation |==|  0.54493 0.42033 0.48278
USER: genes 1 Rotation |==|  0.74613 0.32639 0.10098 0.50779
USER: genes 2 Torsion [N]-C--CA-[N] |==|  0.43308
USER: genes 3 Torsion [C]-CA--N-[C] |==|  0.62442
USER: genes 4 Torsion [N]-C--CA-[N] |==|  0.46838
USER: genes 5 Torsion [C]-CA--CB-[CG2] |==|  0.53080
USER: genes 6 Torsion [CA]-CB--CG1-[CD1] |==|  0.33825
USER: genes 7 Torsion [C]-CA--N-[C] |==|  0.58601
USER: genes 8 Torsion [N]-C--CA-[N] |==|  0.39669
USER: genes 9 Torsion [C]-CA--N-[C] |==|  0.58942
USER: genes 10 Torsion [N]-C--CA-[CB] |==|  0.54134
USER: genes 11 Torsion [C]-CA--CB-[CG] |==|  0.28085
USER: genes 12 Torsion [CA]-CB--CG-[CD] |==|  0.26451
USER: genes 13 Torsion [CB]-CG--CD-[NE2] |==|  0.82300
USER: genes 14 Torsion [C]-CA--CB-[CG2] |==|  0.45686
USER: genes 15 Torsion [CA]-CB--CG1-[CD1] |==|  0.71180
USER: genes 16 Torsion [C]-N--CA-[CB] |==|  0.28882
USER: genes 17 Torsion [N]-CA--CB-[CG] |==|  0.99902
USER: genes 18 Torsion [CA]-CB--CG-[OD1] |==|  0.77460
USER: genes 19 Torsion [N]-CA--C-[N] |==|  0.39990
USER: genes 20 Torsion [C]-N--CA-[C] |==|  0.67152
USER: genes 21 Torsion [N]-CA--CB-[CG] |==|  0.81251
USER: genes 22 Torsion [CA]-CB--CG-[CD] |==|  0.41739
USER: genes 23 Torsion [CB]-CG--CD-[NE] |==|  0.38964
USER: genes 24 Torsion [CG]-CD--NE-[HE] |==|  0.08230
USER: genes 25 Torsion [N]-CA--C-[N] |==|  0.39568
USER: genes 26 Torsion [N]-CA--C-[O] |==|  0.95446
ROOT
ATOM      1  C   ILE B 120      -0.168  30.672  54.341  1.00 16.04 LIG 0.24  C 
ATOM      2 O    ILE B 120       0.882  30.589  54.977  1.00 15.27 LIG-0.27  OA
ATOM      3  N   ASN B 121      -1.097  31.599  54.571  1.00 16.46 LIG-0.35  N 
ATOM      4 H    ASN B 121      -1.782  31.721  54.065  1.00 16.46 LIG 0.16  HD
ENDROOT
BRANCH 1 5
ATOM      5  CA  ILE B 120      -0.405  29.767  53.141  1.00 16.12 LIG 0.18  C 
BRANCH 5 6
ATOM      6  N   ILE B 120       0.946  29.276  52.745  1.00 14.41 LIG-0.35  N 
ATOM      7 H    ILE B 120       1.425  29.024  53.413  1.00 14.41 LIG 0.16  HD
ATOM      8  C   ILE B 119       1.382  29.228  51.488  1.00 14.21 LIG 0.24  C 
ATOM      9 O    ILE B 119       0.748  29.620  50.501  1.00 13.95 LIG-0.27  OA
BRANCH 8 10
ATOM     10  CA  ILE B 119       2.803  28.716  51.302  1.00 14.01 LIG 0.18  C 
BRANCH 10 11
ATOM     11  CB  ILE B 119       3.695  29.846  51.860  1.00 14.26 LIG 0.01  C 
ATOM     12  CG2 ILE B 119       5.155  29.610  51.502  1.00 14.00 LIG 0.01  C 
BRANCH 11 13
ATOM     13  CG1 ILE B 119       3.313  31.197  51.282  1.00 15.18 LIG 0.00  C 
ATOM     14  CD1 ILE B 119       2.929  32.205  52.347  1.00 12.51 LIG 0.01  C 
ENDBRANCH 11 13
ENDBRANCH 10 11
BRANCH 10 15
ATOM     15  N   ILE B 119       3.003  28.475  49.862  1.00 12.55 LIG-0.35  N 
ATOM     16 H    ILE B 119       2.548  29.002  49.358  1.00 12.55 LIG 0.16  HD
ATOM     17  C   GLN B 118       3.812  27.528  49.384  1.00 12.00 LIG 0.24  C 
ATOM     18 O    GLN B 118       4.565  26.839  50.091  1.00 12.29 LIG-0.27  OA
BRANCH 17 19
ATOM     19  CA  GLN B 118       3.716  27.244  47.883  1.00 10.88 LIG 0.18  C 
BRANCH 19 20
ATOM     20  N   GLN B 118       5.044  26.956  47.340  1.00  9.13 LIG-0.35  N 
ATOM     21  C   PRO B 117       5.363  27.292  46.085  1.00  5.97 LIG 0.25  C 
ATOM     22 O    PRO B 117       4.544  27.766  45.297  1.00  4.88 LIG-0.27  OA
ATOM     23 H    GLN B 118       5.579  26.565  47.888  1.00  9.13 LIG 0.16  HD
BRANCH 21 24
ATOM     24  CA  PRO B 117       6.799  26.922  45.631  1.00  4.52 LIG 0.35  C 
ATOM     25  CB  PRO B 117       7.183  27.654  44.350  1.00  4.68 LIG 0.05  C 
ATOM     26  CG  PRO B 117       7.810  26.630  43.468  1.00  4.01 LIG 0.04  C 
ATOM     27  CD  PRO B 117       7.080  25.361  43.804  1.00  3.18 LIG 0.32  C 
ATOM     28  N   PRO B 117       6.874  25.502  45.256  1.00  3.80 LIG 0.32  N 
ENDBRANCH 21 24
ENDBRANCH 19 20
BRANCH 19 29
ATOM     29  CB  GLN B 118       2.840  26.045  47.686  1.00 12.35 LIG 0.04  C 
BRANCH 29 30
ATOM     30  CG  GLN B 118       1.465  26.416  47.267  1.00 13.74 LIG 0.10  C 
BRANCH 30 31
ATOM     31  CD  GLN B 118       1.335  26.361  45.806  1.00 14.95 LIG 0.21  C 
ATOM     32  NE2 GLN B 118       2.085  27.215  45.127  1.00 14.23 LIG-0.37  N 
ATOM     33 22HE GLN B 118       2.066  27.214  44.267  1.00 14.23 LIG 0.16  HD
ATOM     34 21HE GLN B 118       2.591  27.770  45.545  1.00 14.23 LIG 0.16  HD
ATOM     35 OE1  GLN B 118       0.596  25.546  45.269  1.00 17.00 LIG-0.27  OA
ENDBRANCH 30 31
ENDBRANCH 29 30
ENDBRANCH 19 29
ENDBRANCH 17 19
ENDBRANCH 10 15
ENDBRANCH 8 10
ENDBRANCH 5 6
BRANCH 5 36
ATOM     36  CB  ILE B 120      -1.344  28.666  53.569  1.00 15.78 LIG 0.01  C 
ATOM     37  CG2 ILE B 120      -1.911  27.971  52.338  1.00 15.40 LIG 0.01  C 
BRANCH 36 38
ATOM     38  CG1 ILE B 120      -0.651  27.619  54.433  1.00 16.31 LIG 0.00  C 
ATOM     39  CD1 ILE B 120      -0.342  26.314  53.655  1.00 16.15 LIG 0.01  C 
ENDBRANCH 36 38
ENDBRANCH 5 36
ENDBRANCH 1 5
BRANCH 3 40
ATOM     40  CA  ASN B 121      -1.039  32.496  55.711  1.00 16.96 LIG 0.18  C 
BRANCH 40 41
ATOM     41  CB  ASN B 121      -0.590  33.888  55.278  1.00 15.28 LIG 0.14  C 
BRANCH 41 42
ATOM     42  CG  ASN B 121      -0.319  33.962  53.790  1.00 13.24 LIG 0.22  C 
ATOM     43 OD1  ASN B 121       0.757  33.561  53.341  1.00 13.18 LIG-0.27  OA
ATOM     44  ND2 ASN B 121      -1.280  34.489  52.999  1.00 12.91 LIG-0.37  N 
ATOM     45 22HD ASN B 121      -2.020  34.759  53.343  1.00 12.91 LIG 0.16  HD
ATOM     46 21HD ASN B 121      -1.151  34.553  52.151  1.00 12.91 LIG 0.16  HD
ENDBRANCH 41 42
ENDBRANCH 40 41
BRANCH 40 47
ATOM     47  C   ASN B 121      -2.455  32.559  56.315  1.00 17.96 LIG 0.24  C 
ATOM     48  N   ARG B 122      -2.545  32.653  57.641  1.00 20.13 LIG-0.35  N 
ATOM     49 H    ARG B 122      -1.858  32.589  58.154  1.00 20.13 LIG 0.16  HD
ATOM     50 O    ASN B 121      -3.423  32.419  55.585  1.00 18.88 LIG-0.27  OA
BRANCH 48 51
ATOM     51  CA  ARG B 122      -3.803  32.875  58.387  1.00 22.24 LIG 0.18  C 
BRANCH 51 52
ATOM     52  CB  ARG B 122      -3.986  31.804  59.438  1.00 21.82 LIG 0.04  C 
BRANCH 52 53
ATOM     53  CG  ARG B 122      -4.230  30.440  58.883  1.00 24.56 LIG 0.02  C 
BRANCH 53 54
ATOM     54  CD  ARG B 122      -3.699  29.376  59.823  1.00 26.52 LIG 0.14  C 
BRANCH 54 55
ATOM     55  NE  ARG B 122      -4.545  28.186  59.959  1.00 28.40 LIG-0.23  N 
ATOM     56  CZ  ARG B 122      -4.655  27.393  61.033  1.00 28.18 LIG 0.67  C 
ATOM     57  NH2 ARG B 122      -5.472  26.344  60.973  1.00 29.45 LIG-0.23  N 
ATOM     58  NH1 ARG B 122      -3.953  27.590  62.150  1.00 26.03 LIG-0.23  N 
ATOM     59 1HH2 ARG B 122      -5.917  26.185  60.254  1.00 29.45 LIG 0.17  HD
ATOM     60 2HH2 ARG B 122      -5.555  25.824  61.654  1.00 29.45 LIG 0.17  HD
ATOM     61 1HH1 ARG B 122      -3.402  28.249  62.202  1.00 26.03 LIG 0.17  HD
ATOM     62 2HH1 ARG B 122      -4.051  27.059  62.819  1.00 26.03 LIG 0.17  HD
ATOM     63 HE   ARG B 122      -5.023  27.975  59.276  1.00 28.40 LIG 0.18  HD
ENDBRANCH 54 55
ENDBRANCH 53 54
ENDBRANCH 52 53
ENDBRANCH 51 52
BRANCH 51 64
ATOM     64  C   ARG B 122      -3.551  34.195  59.075  1.00 23.14 LIG 0.24  C 
ATOM     65 O    ARG B 122      -2.420  34.461  59.470  1.00 23.63 LIG-0.27  OA
ATOM     66  N   PRO B 123      -4.578  35.053  59.181  1.00 23.72 LIG-0.34  N 
ATOM     67  CA  PRO B 123      -4.380  36.370  59.772  1.00 24.06 LIG 0.17  C 
ATOM     68  CD  PRO B 123      -6.014  34.730  59.059  1.00 24.11 LIG 0.13  C 
ATOM     69  CB  PRO B 123      -5.583  37.150  59.252  1.00 24.84 LIG 0.04  C 
ATOM     70  CG  PRO B 123      -6.667  36.121  59.085  1.00 25.19 LIG 0.02  C 
BRANCH 67 71
ATOM     71  C   PRO B 123      -4.380  36.339  61.321  1.00 23.73 LIG 0.22  C 
ATOM     72 O    PRO B 123      -4.833  35.351  61.921  1.00 24.65 LIG-0.29  OA
ENDBRANCH 67 71
ENDBRANCH 51 64
ENDBRANCH 48 51
ENDBRANCH 40 47
ENDBRANCH 3 40
TORSDOF 25
ENDMDL
MODEL 3
USER: ADFR SOLUTION from run 36
USER: SCORE 27.090711 LL:  -4.839 LR: -24.425 RR:   0.000 FEB: -16.968
USER: RMSD 3.672180
USER: SEED 35
USER: STATUS no improvement in best in 4 clusters for 5 generations
USER: GENES 27
USER: genes 0 Translation |==|  0.44799 0.48066 0.55421
USER: genes 1 Rotation |==|  0.47757 0.48444 0.51020 0.99915
USER: genes 2 Torsion [N]-C--CA-[N] |==|  0.36208
USER: genes 3 Torsion [C]-CA--N-[C] |==|  0.65738
USER: genes 4 Torsion [N]-C--CA-[N] |==|  0.38515
USER: genes 5 Torsion [C]-CA--CB-[CG2] |==|  0.04624
USER: genes 6 Torsion [CA]-CB--CG1-[CD1] |==|  0.16384
USER: genes 7 Torsion [C]-CA--N-[C] |==|  0.64457
USER: genes 8 Torsion [N]-C--CA-[N] |==|  0.42156
USER: genes 9 Torsion [C]-CA--N-[C] |==|  0.65626
USER: genes 10 Torsion [N]-C--CA-[CB] |==|  0.96341
USER: genes 11 Torsion [C]-CA--CB-[CG] |==|  0.50640
USER: genes 12 Torsion [CA]-CB--CG-[CD] |==|  0.40196
USER: genes 13 Torsion [CB]-CG--CD-[NE2] |==|  0.77646
USER: genes 14 Torsion [C]-CA--CB-[CG2] |==|  0.73616
USER: genes 15 Torsion [CA]-CB--CG1-[CD1] |==|  0.23779
USER: genes 16 Torsion [C]-N--CA-[CB] |==|  0.41739
USER: genes 17 Torsion [N]-CA--CB-[CG] |==|  0.80923
USER: genes 18 Torsion [CA]-CB--CG-[OD1] |==|  0.01792
USER: genes 19 Torsion [N]-CA--C-[N] |==|  0.63154
USER: genes 20 Torsion [C]-N--CA-[C] |==|  0.80968
USER: genes 21 Torsion [N]-CA--CB-[CG] |==|  0.88760
USER: genes 22 Torsion [CA]-CB--CG-[CD] |==|  0.71071
USER: genes 23 Torsion [CB]-CG--CD-[NE] |==|  0.10553
USER: genes 24 Torsion [CG]-CD--NE-[HE] |==|  0.65963
USER: genes 25 Torsion [N]-CA--C-[N] |==|  0.44016
USER: genes 26 Torsion [N]-CA--C-[O] |==|  0.96923
ROOT
ATOM      1  C   ILE B 120      -2.567  32.030  56.109  1.00 16.04 LIG 0.24  C 
ATOM      2 O    ILE B 120      -3.526  32.016  55.337  1.00 15.27 LIG-0.27  OA
ATOM      3  N   ASN B 121      -2.680  31.867  57.427  1.00 16.46 LIG-0.35  N 
ATOM      4 H    ASN B 121      -2.006  31.776  57.953  1.00 16.46 LIG 0.16  HD
ENDROOT
BRANCH 1 5
ATOM      5  CA  ILE B 120      -1.150  32.113  55.561  1.00 16.12 LIG 0.18  C 
BRANCH 5 6
ATOM      6  N   ILE B 120      -1.110  31.148  54.425  1.00 14.41 LIG-0.35  N 
ATOM      7 H    ILE B 120      -1.705  31.306  53.824  1.00 14.41 LIG 0.16  HD
ATOM      8  C   ILE B 119      -0.247  30.139  54.334  1.00 14.21 LIG 0.24  C 
ATOM      9 O    ILE B 119       0.595  29.846  55.191  1.00 13.95 LIG-0.27  OA
BRANCH 8 10
ATOM     10  CA  ILE B 119      -0.391  29.256  53.103  1.00 14.01 LIG 0.18  C 
BRANCH 10 11
ATOM     11  CB  ILE B 119      -1.149  28.010  53.610  1.00 14.26 LIG 0.01  C 
ATOM     12  CG2 ILE B 119      -1.807  28.286  54.954  1.00 14.00 LIG 0.01  C 
BRANCH 11 13
ATOM     13  CG1 ILE B 119      -2.254  27.599  52.654  1.00 15.18 LIG 0.00  C 
ATOM     14  CD1 ILE B 119      -1.741  27.283  51.263  1.00 12.51 LIG 0.01  C 
ENDBRANCH 11 13
ENDBRANCH 10 11
BRANCH 10 15
ATOM     15  N   ILE B 119       0.966  28.953  52.613  1.00 12.55 LIG-0.35  N 
ATOM     16 H    ILE B 119       1.489  28.640  53.220  1.00 12.55 LIG 0.16  HD
ATOM     17  C   GLN B 118       1.348  29.145  51.350  1.00 12.00 LIG 0.24  C 
ATOM     18 O    GLN B 118       0.576  29.481  50.436  1.00 12.29 LIG-0.27  OA
BRANCH 17 19
ATOM     19  CA  GLN B 118       2.846  29.019  51.064  1.00 10.88 LIG 0.18  C 
BRANCH 19 20
ATOM     20  N   GLN B 118       3.059  28.588  49.682  1.00  9.13 LIG-0.35  N 
ATOM     21  C   PRO B 117       3.767  27.487  49.406  1.00  5.97 LIG 0.25  C 
ATOM     22 O    PRO B 117       4.350  26.838  50.275  1.00  4.88 LIG-0.27  OA
ATOM     23 H    GLN B 118       2.698  29.094  49.088  1.00  9.13 LIG 0.16  HD
BRANCH 21 24
ATOM     24  CA  PRO B 117       3.927  27.146  47.901  1.00  4.52 LIG 0.35  C 
ATOM     25  CB  PRO B 117       2.971  27.965  47.041  1.00  4.68 LIG 0.05  C 
ATOM     26  CG  PRO B 117       2.366  27.003  46.077  1.00  4.01 LIG 0.04  C 
ATOM     27  CD  PRO B 117       2.287  25.715  46.846  1.00  3.18 LIG 0.32  C 
ATOM     28  N   PRO B 117       3.528  25.756  47.638  1.00  3.80 LIG 0.32  N 
ENDBRANCH 21 24
ENDBRANCH 19 20
BRANCH 19 29
ATOM     29  CB  GLN B 118       3.477  30.364  51.257  1.00 12.35 LIG 0.04  C 
BRANCH 29 30
ATOM     30  CG  GLN B 118       4.929  30.353  50.948  1.00 13.74 LIG 0.10  C 
BRANCH 30 31
ATOM     31  CD  GLN B 118       5.339  31.622  50.335  1.00 14.95 LIG 0.21  C 
ATOM     32  NE2 GLN B 118       5.085  31.749  49.042  1.00 14.23 LIG-0.37  N 
ATOM     33 22HE GLN B 118       5.284  32.479  48.635  1.00 14.23 LIG 0.16  HD
ATOM     34 21HE GLN B 118       4.720  31.101  48.610  1.00 14.23 LIG 0.16  HD
ATOM     35 OE1  GLN B 118       5.855  32.508  51.005  1.00 17.00 LIG-0.27  OA
ENDBRANCH 30 31
ENDBRANCH 29 30
ENDBRANCH 19 29
ENDBRANCH 17 19
ENDBRANCH 10 15
ENDBRANCH 8 10
ENDBRANCH 5 6
BRANCH 5 36
ATOM     36  CB  ILE B 120      -0.895  33.542  55.148  1.00 15.78 LIG 0.01  C 
ATOM     37  CG2 ILE B 120      -1.183  33.703  53.662  1.00 15.40 LIG 0.01  C 
BRANCH 36 38
ATOM     38  CG1 ILE B 120      -1.768  34.528  55.914  1.00 16.31 LIG 0.00  C 
ATOM     39  CD1 ILE B 120      -1.148  34.941  57.274  1.00 16.15 LIG 0.01  C 
ENDBRANCH 36 38
ENDBRANCH 5 36
ENDBRANCH 1 5
BRANCH 3 40
ATOM     40  CA  ASN B 121      -3.965  31.830  58.101  1.00 16.96 LIG 0.18  C 
BRANCH 40 41
ATOM     41  CB  ASN B 121      -3.893  30.956  59.348  1.00 15.28 LIG 0.14  C 
BRANCH 41 42
ATOM     42  CG  ASN B 121      -3.717  29.491  59.007  1.00 13.24 LIG 0.22  C 
ATOM     43 OD1  ASN B 121      -3.530  29.151  57.837  1.00 13.18 LIG-0.27  OA
ATOM     44  ND2 ASN B 121      -3.789  28.594  60.017  1.00 12.91 LIG-0.37  N 
ATOM     45 22HD ASN B 121      -3.921  28.864  60.823  1.00 12.91 LIG 0.16  HD
ATOM     46 21HD ASN B 121      -3.703  27.755  59.853  1.00 12.91 LIG 0.16  HD
ENDBRANCH 41 42
ENDBRANCH 40 41
BRANCH 40 47
ATOM     47  C   ASN B 121      -4.319  33.279  58.487  1.00 17.96 LIG 0.24  C 
ATOM     48  N   ARG B 122      -4.741  33.488  59.734  1.00 20.13 LIG-0.35  N 
ATOM     49 H    ARG B 122      -4.902  32.843  60.279  1.00 20.13 LIG 0.16  HD
ATOM     50 O    ASN B 121      -4.301  34.148  57.630  1.00 18.88 LIG-0.27  OA
BRANCH 48 51
ATOM     51  CA  ARG B 122      -4.982  34.820  60.330  1.00 22.24 LIG 0.18  C 
BRANCH 51 52
ATOM     52  CB  ARG B 122      -5.555  34.677  61.722  1.00 21.82 LIG 0.04  C 
BRANCH 52 53
ATOM     53  CG  ARG B 122      -6.569  33.590  61.855  1.00 24.56 LIG 0.02  C 
BRANCH 53 54
ATOM     54  CD  ARG B 122      -7.969  34.169  61.920  1.00 26.52 LIG 0.14  C 
BRANCH 54 55
ATOM     55  NE  ARG B 122      -8.205  35.325  61.049  1.00 28.40 LIG-0.23  N 
ATOM     56  CZ  ARG B 122      -8.051  35.378  59.720  1.00 28.18 LIG 0.67  C 
ATOM     57  NH2 ARG B 122      -8.305  36.524  59.091  1.00 29.45 LIG-0.23  N 
ATOM     58  NH1 ARG B 122      -7.620  34.340  59.001  1.00 26.03 LIG-0.23  N 
ATOM     59 1HH2 ARG B 122      -8.562  37.212  59.537  1.00 29.45 LIG 0.17  HD
ATOM     60 2HH2 ARG B 122      -8.211  36.575  58.237  1.00 29.45 LIG 0.17  HD
ATOM     61 1HH1 ARG B 122      -7.428  33.597  59.391  1.00 26.03 LIG 0.17  HD
ATOM     62 2HH1 ARG B 122      -7.534  34.413  58.149  1.00 26.03 LIG 0.17  HD
ATOM     63 HE   ARG B 122      -8.471  36.047  61.434  1.00 28.40 LIG 0.18  HD
ENDBRANCH 54 55
ENDBRANCH 53 54
ENDBRANCH 52 53
ENDBRANCH 51 52
BRANCH 51 64
ATOM     64  C   ARG B 122      -3.589  35.393  60.434  1.00 23.14 LIG 0.24  C 
ATOM     65 O    ARG B 122      -2.623  34.637  60.392  1.00 23.63 LIG-0.27  OA
ATOM     66  N   PRO B 123      -3.465  36.727  60.517  1.00 23.72 LIG-0.34  N 
ATOM     67  CA  PRO B 123      -2.144  37.344  60.548  1.00 24.06 LIG 0.17  C 
ATOM     68  CD  PRO B 123      -4.515  37.689  60.906  1.00 24.11 LIG 0.13  C 
ATOM     69  CB  PRO B 123      -2.442  38.783  60.142  1.00 24.84 LIG 0.04  C 
ATOM     70  CG  PRO B 123      -3.838  39.042  60.635  1.00 25.19 LIG 0.02  C 
BRANCH 67 71
ATOM     71  C   PRO B 123      -1.494  37.298  61.954  1.00 23.73 LIG 0.22  C 
ATOM     72 O    PRO B 123      -2.171  36.965  62.940  1.00 24.65 LIG-0.29  OA
ENDBRANCH 67 71
ENDBRANCH 51 64
ENDBRANCH 48 51
ENDBRANCH 40 47
ENDBRANCH 3 40
TORSDOF 25
ENDMDL
MODEL 4
USER: ADFR SOLUTION from run 98
USER: SCORE 26.734960 LL:  -4.454 LR: -24.071 RR:   0.000 FEB: -16.613
USER: RMSD 12.604219
USER: SEED 97
USER: STATUS 1 or 2 clusters left
USER: GENES 27
USER: genes 0 Translation |==|  0.56550 0.34846 0.39015
USER: genes 1 Rotation |==|  0.79441 0.25185 0.81721 0.53351
USER: genes 2 Torsion [N]-C--CA-[N] |==|  0.38860
USER: genes 3 Torsion [C]-CA--N-[C] |==|  0.73063
USER: genes 4 Torsion [N]-C--CA-[N] |==|  0.29901
USER: genes 5 Torsion [C]-CA--CB-[CG2] |==|  0.18370
USER: genes 6 Torsion [CA]-CB--CG1-[CD1] |==|  0.86422
USER: genes 7 Torsion [C]-CA--N-[C] |==|  0.69226
USER: genes 8 Torsion [N]-C--CA-[N] |==|  0.35599
USER: genes 9 Torsion [C]-CA--N-[C] |==|  0.70048
USER: genes 10 Torsion [N]-C--CA-[CB] |==|  0.46213
USER: genes 11 Torsion [C]-CA--CB-[CG] |==|  0.48540
USER: genes 12 Torsion [CA]-CB--CG-[CD] |==|  0.78180
USER: genes 13 Torsion [CB]-CG--CD-[NE2] |==|  0.62260
USER: genes 14 Torsion [C]-CA--CB-[CG2] |==|  0.67807
USER: genes 15 Torsion [CA]-CB--CG1-[CD1] |==|  0.50671
USER: genes 16 Torsion [C]-N--CA-[CB] |==|  0.88267
USER: genes 17 Torsion [N]-CA--CB-[CG] |==|  0.60833
USER: genes 18 Torsion [CA]-CB--CG-[OD1] |==|  0.09384
USER: genes 19 Torsion [N]-CA--C-[N] |==|  0.35652
USER: genes 20 Torsion [C]-N--CA-[C] |==|  0.22813
USER: genes 21 Torsion [N]-CA--CB-[CG] |==|  0.68472
USER: genes 22 Torsion [CA]-CB--CG-[CD] |==|  0.08715
USER: genes 23 Torsion [CB]-CG--CD-[NE] |==|  0.39234
USER: genes 24 Torsion [CG]-CD--NE-[HE] |==|  0.20154
USER: genes 25 Torsion [N]-CA--C-[N] |==|  0.39647
USER: genes 26 Torsion [N]-CA--C-[O] |==|  0.91864
ROOT
ATOM      1  C   ILE B 120       0.341  29.055  52.048  1.00 16.04 LIG 0.24  C 
ATOM      2 O    ILE B 120       0.096  30.011  51.312  1.00 15.27 LIG-0.27  OA
ATOM      3  N   ASN B 121       1.425  28.290  51.926  1.00 16.46 LIG-0.35  N 
ATOM      4 H    ASN B 121       1.648  27.688  52.498  1.00 16.46 LIG 0.16  HD
ENDROOT
BRANCH 1 5
ATOM      5  CA  ILE B 120      -0.551  28.770  53.247  1.00 16.12 LIG 0.18  C 
BRANCH 5 6
ATOM      6  N   ILE B 120      -0.977  30.108  53.749  1.00 14.41 LIG-0.35  N 
ATOM      7 H    ILE B 120      -1.649  30.432  53.322  1.00 14.41 LIG 0.16  HD
ATOM      8  C   ILE B 119      -0.386  30.750  54.754  1.00 14.21 LIG 0.24  C 
ATOM      9 O    ILE B 119       0.609  30.346  55.367  1.00 13.95 LIG-0.27  OA
BRANCH 8 10
ATOM     10  CA  ILE B 119      -0.962  32.117  55.093  1.00 14.01 LIG 0.18  C 
BRANCH 10 11
ATOM     11  CB  ILE B 119       0.271  33.041  55.189  1.00 14.26 LIG 0.01  C 
ATOM     12  CG2 ILE B 119       0.942  33.190  53.831  1.00 14.00 LIG 0.01  C 
BRANCH 11 13
ATOM     13  CG1 ILE B 119      -0.110  34.437  55.647  1.00 15.18 LIG 0.00  C 
ATOM     14  CD1 ILE B 119      -1.279  35.012  54.872  1.00 12.51 LIG 0.01  C 
ENDBRANCH 11 13
ENDBRANCH 10 11
BRANCH 10 15
ATOM     15  N   ILE B 119      -1.692  31.987  56.367  1.00 12.55 LIG-0.35  N 
ATOM     16 H    ILE B 119      -1.180  31.853  57.045  1.00 12.55 LIG 0.16  HD
ATOM     17  C   GLN B 118      -3.019  32.069  56.462  1.00 12.00 LIG 0.24  C 
ATOM     18 O    GLN B 118      -3.763  32.381  55.517  1.00 12.29 LIG-0.27  OA
BRANCH 17 19
ATOM     19  CA  GLN B 118      -3.634  31.665  57.805  1.00 10.88 LIG 0.18  C 
BRANCH 19 20
ATOM     20  N   GLN B 118      -4.522  32.722  58.289  1.00  9.13 LIG-0.35  N 
ATOM     21  C   PRO B 117      -4.175  33.494  59.325  1.00  5.97 LIG 0.25  C 
ATOM     22 O    PRO B 117      -3.150  33.301  59.981  1.00  4.88 LIG-0.27  OA
ATOM     23 H    GLN B 118      -5.262  32.796  57.856  1.00  9.13 LIG 0.16  HD
BRANCH 21 24
ATOM     24  CA  PRO B 117      -5.210  34.569  59.744  1.00  4.52 LIG 0.35  C 
ATOM     25  CB  PRO B 117      -4.880  35.157  61.111  1.00  4.68 LIG 0.05  C 
ATOM     26  CG  PRO B 117      -6.165  35.188  61.864  1.00  4.01 LIG 0.04  C 
ATOM     27  CD  PRO B 117      -6.912  33.985  61.362  1.00  3.18 LIG 0.32  C 
ATOM     28  N   PRO B 117      -6.537  33.965  59.937  1.00  3.80 LIG 0.32  N 
ENDBRANCH 21 24
ENDBRANCH 19 20
BRANCH 19 29
ATOM     29  CB  GLN B 118      -4.432  30.415  57.601  1.00 12.35 LIG 0.04  C 
BRANCH 29 30
ATOM     30  CG  GLN B 118      -4.966  29.875  58.876  1.00 13.74 LIG 0.10  C 
BRANCH 30 31
ATOM     31  CD  GLN B 118      -3.921  29.154  59.612  1.00 14.95 LIG 0.21  C 
ATOM     32  NE2 GLN B 118      -4.280  27.994  60.139  1.00 14.23 LIG-0.37  N 
ATOM     33 22HE GLN B 118      -3.704  27.518  60.564  1.00 14.23 LIG 0.16  HD
ATOM     34 21HE GLN B 118      -5.090  27.717  60.056  1.00 14.23 LIG 0.16  HD
ATOM     35 OE1  GLN B 118      -2.785  29.603  59.696  1.00 17.00 LIG-0.27  OA
ENDBRANCH 30 31
ENDBRANCH 29 30
ENDBRANCH 19 29
ENDBRANCH 17 19
ENDBRANCH 10 15
ENDBRANCH 8 10
ENDBRANCH 5 6
BRANCH 5 36
ATOM     36  CB  ILE B 120      -1.698  27.909  52.779  1.00 15.78 LIG 0.01  C 
ATOM     37  CG2 ILE B 120      -3.007  28.669  52.942  1.00 15.40 LIG 0.01  C 
BRANCH 36 38
ATOM     38  CG1 ILE B 120      -1.556  27.507  51.316  1.00 16.31 LIG 0.00  C 
ATOM     39  CD1 ILE B 120      -2.760  26.672  50.808  1.00 16.15 LIG 0.01  C 
ENDBRANCH 36 38
ENDBRANCH 5 36
ENDBRANCH 1 5
BRANCH 3 40
ATOM     40  CA  ASN B 121       2.338  28.404  50.803  1.00 16.96 LIG 0.18  C 
BRANCH 40 41
ATOM     41  CB  ASN B 121       1.569  28.569  49.497  1.00 15.28 LIG 0.14  C 
BRANCH 41 42
ATOM     42  CG  ASN B 121       2.208  27.801  48.359  1.00 13.24 LIG 0.22  C 
ATOM     43 OD1  ASN B 121       2.772  26.728  48.584  1.00 13.18 LIG-0.27  OA
ATOM     44  ND2 ASN B 121       2.148  28.340  47.121  1.00 12.91 LIG-0.37  N 
ATOM     45 22HD ASN B 121       1.746  29.091  46.998  1.00 12.91 LIG 0.16  HD
ATOM     46 21HD ASN B 121       2.511  27.932  46.457  1.00 12.91 LIG 0.16  HD
ENDBRANCH 41 42
ENDBRANCH 40 41
BRANCH 40 47
ATOM     47  C   ASN B 121       3.222  29.641  51.059  1.00 17.96 LIG 0.24  C 
ATOM     48  N   ARG B 122       4.541  29.472  50.973  1.00 20.13 LIG-0.35  N 
ATOM     49 H    ARG B 122       4.899  28.697  50.874  1.00 20.13 LIG 0.16  HD
ATOM     50 O    ASN B 121       2.701  30.683  51.424  1.00 18.88 LIG-0.27  OA
BRANCH 48 51
ATOM     51  CA  ARG B 122       5.537  30.564  51.036  1.00 22.24 LIG 0.18  C 
BRANCH 51 52
ATOM     52  CB  ARG B 122       4.981  31.820  50.404  1.00 21.82 LIG 0.04  C 
BRANCH 52 53
ATOM     53  CG  ARG B 122       5.680  32.232  49.151  1.00 24.56 LIG 0.02  C 
BRANCH 53 54
ATOM     54  CD  ARG B 122       6.201  31.020  48.405  1.00 26.52 LIG 0.14  C 
BRANCH 54 55
ATOM     55  NE  ARG B 122       6.081  31.089  46.945  1.00 28.40 LIG-0.23  N 
ATOM     56  CZ  ARG B 122       5.226  30.406  46.173  1.00 28.18 LIG 0.67  C 
ATOM     57  NH2 ARG B 122       5.265  30.590  44.855  1.00 29.45 LIG-0.23  N 
ATOM     58  NH1 ARG B 122       4.358  29.521  46.665  1.00 26.03 LIG-0.23  N 
ATOM     59 1HH2 ARG B 122       5.833  31.139  44.514  1.00 29.45 LIG 0.17  HD
ATOM     60 2HH2 ARG B 122       4.723  30.160  44.344  1.00 29.45 LIG 0.17  HD
ATOM     61 1HH1 ARG B 122       4.331  29.370  47.512  1.00 26.03 LIG 0.17  HD
ATOM     62 2HH1 ARG B 122       3.824  29.102  46.137  1.00 26.03 LIG 0.17  HD
ATOM     63 HE   ARG B 122       6.617  31.626  46.541  1.00 28.40 LIG 0.18  HD
ENDBRANCH 54 55
ENDBRANCH 53 54
ENDBRANCH 52 53
ENDBRANCH 51 52
BRANCH 51 64
ATOM     64  C   ARG B 122       5.685  30.791  52.522  1.00 23.14 LIG 0.24  C 
ATOM     65 O    ARG B 122       4.707  30.658  53.251  1.00 23.63 LIG-0.27  OA
ATOM     66  N   PRO B 123       6.909  31.083  52.992  1.00 23.72 LIG-0.34  N 
ATOM     67  CA  PRO B 123       7.128  31.244  54.424  1.00 24.06 LIG 0.17  C 
ATOM     68  CD  PRO B 123       8.057  31.588  52.212  1.00 24.11 LIG 0.13  C 
ATOM     69  CB  PRO B 123       8.637  31.057  54.549  1.00 24.84 LIG 0.04  C 
ATOM     70  CG  PRO B 123       9.196  31.547  53.243  1.00 25.19 LIG 0.02  C 
BRANCH 67 71
ATOM     71  C   PRO B 123       6.708  32.642  54.941  1.00 23.73 LIG 0.22  C 
ATOM     72 O    PRO B 123       6.764  33.626  54.186  1.00 24.65 LIG-0.29  OA
ENDBRANCH 67 71
ENDBRANCH 51 64
ENDBRANCH 48 51
ENDBRANCH 40 47
ENDBRANCH 3 40
TORSDOF 25
ENDMDL
MODEL 5
USER: ADFR SOLUTION from run 19
USER: SCORE 27.757234 LL:  -5.835 LR: -23.998 RR:   0.000 FEB: -16.541
USER: RMSD 4.358387
USER: SEED 18
USER: STATUS no improvement in best in 5 clusters for 5 generations
USER: GENES 27
USER: genes 0 Translation |==|  0.45543 0.47882 0.55101
USER: genes 1 Rotation |==|  0.53077 0.53612 0.50975 0.99765
USER: genes 2 Torsion [N]-C--CA-[N] |==|  0.29489
USER: genes 3 Torsion [C]-CA--N-[C] |==|  0.70287
USER: genes 4 Torsion [N]-C--CA-[N] |==|  0.34719
USER: genes 5 Torsion [C]-CA--CB-[CG2] |==|  0.13048
USER: genes 6 Torsion [CA]-CB--CG1-[CD1] |==|  0.89410
USER: genes 7 Torsion [C]-CA--N-[C] |==|  0.67790
USER: genes 8 Torsion [N]-C--CA-[N] |==|  0.39952
USER: genes 9 Torsion [C]-CA--N-[C] |==|  0.68978
USER: genes 10 Torsion [N]-C--CA-[CB] |==|  0.39793
USER: genes 11 Torsion [C]-CA--CB-[CG] |==|  0.42448
USER: genes 12 Torsion [CA]-CB--CG-[CD] |==|  0.18838
USER: genes 13 Torsion [CB]-CG--CD-[NE2] |==|  0.14378
USER: genes 14 Torsion [C]-CA--CB-[CG2] |==|  0.17382
USER: genes 15 Torsion [CA]-CB--CG1-[CD1] |==|  0.23710
USER: genes 16 Torsion [C]-N--CA-[CB] |==|  0.45833
USER: genes 17 Torsion [N]-CA--CB-[CG] |==|  0.63875
USER: genes 18 Torsion [CA]-CB--CG-[OD1] |==|  0.42028
USER: genes 19 Torsion [N]-CA--C-[N] |==|  0.87639
USER: genes 20 Torsion [C]-N--CA-[C] |==|  0.53495
USER: genes 21 Torsion [N]-CA--CB-[CG] |==|  0.65495
USER: genes 22 Torsion [CA]-CB--CG-[CD] |==|  0.33640
USER: genes 23 Torsion [CB]-CG--CD-[NE] |==|  0.93104
USER: genes 24 Torsion [CG]-CD--NE-[HE] |==|  0.83530
USER: genes 25 Torsion [N]-CA--C-[N] |==|  0.45676
USER: genes 26 Torsion [N]-CA--C-[O] |==|  0.02671
ROOT
ATOM      1  C   ILE B 120      -2.383  31.988  56.030  1.00 16.04 LIG 0.24  C 
ATOM      2 O    ILE B 120      -3.481  32.117  55.489  1.00 15.27 LIG-0.27  OA
ATOM      3  N   ASN B 121      -2.224  31.556  57.280  1.00 16.46 LIG-0.35  N 
ATOM      4 H    ASN B 121      -1.458  31.370  57.624  1.00 16.46 LIG 0.16  HD
ENDROOT
BRANCH 1 5
ATOM      5  CA  ILE B 120      -1.109  32.208  55.227  1.00 16.12 LIG 0.18  C 
BRANCH 5 6
ATOM      6  N   ILE B 120      -1.053  31.074  54.260  1.00 14.41 LIG-0.35  N 
ATOM      7 H    ILE B 120      -1.625  31.144  53.622  1.00 14.41 LIG 0.16  HD
ATOM      8  C   ILE B 119      -0.208  30.050  54.359  1.00 14.21 LIG 0.24  C 
ATOM      9 O    ILE B 119       0.600  29.884  55.281  1.00 13.95 LIG-0.27  OA
BRANCH 8 10
ATOM     10  CA  ILE B 119      -0.332  28.986  53.279  1.00 14.01 LIG 0.18  C 
BRANCH 10 11
ATOM     11  CB  ILE B 119      -0.807  27.725  54.034  1.00 14.26 LIG 0.01  C 
ATOM     12  CG2 ILE B 119      -1.958  28.058  54.972  1.00 14.00 LIG 0.01  C 
BRANCH 11 13
ATOM     13  CG1 ILE B 119      -1.311  26.658  53.078  1.00 15.18 LIG 0.00  C 
ATOM     14  CD1 ILE B 119      -2.082  27.234  51.908  1.00 12.51 LIG 0.01  C 
ENDBRANCH 11 13
ENDBRANCH 10 11
BRANCH 10 15
ATOM     15  N   ILE B 119       0.996  28.827  52.659  1.00 12.55 LIG-0.35  N 
ATOM     16 H    ILE B 119       1.596  28.531  53.200  1.00 12.55 LIG 0.16  HD
ATOM     17  C   GLN B 118       1.247  29.115  51.382  1.00 12.00 LIG 0.24  C 
ATOM     18 O    GLN B 118       0.372  29.428  50.558  1.00 12.29 LIG-0.27  OA
BRANCH 17 19
ATOM     19  CA  GLN B 118       2.719  29.135  50.963  1.00 10.88 LIG 0.18  C 
BRANCH 19 20
ATOM     20  N   GLN B 118       2.862  28.613  49.603  1.00  9.13 LIG-0.35  N 
ATOM     21  C   PRO B 117       3.471  27.445  49.374  1.00  5.97 LIG 0.25  C 
ATOM     22 O    PRO B 117       4.023  26.799  50.265  1.00  4.88 LIG-0.27  OA
ATOM     23 H    GLN B 118       2.526  29.114  48.990  1.00  9.13 LIG 0.16  HD
BRANCH 21 24
ATOM     24  CA  PRO B 117       3.565  27.012  47.888  1.00  4.52 LIG 0.35  C 
ATOM     25  CB  PRO B 117       4.886  26.309  47.595  1.00  4.68 LIG 0.05  C 
ATOM     26  CG  PRO B 117       5.389  26.901  46.324  1.00  4.01 LIG 0.04  C 
ATOM     27  CD  PRO B 117       4.916  28.326  46.371  1.00  3.18 LIG 0.32  C 
ATOM     28  N   PRO B 117       3.594  28.188  47.005  1.00  3.80 LIG 0.32  N 
ENDBRANCH 21 24
ENDBRANCH 19 20
BRANCH 19 29
ATOM     29  CB  GLN B 118       3.199  30.553  50.993  1.00 12.35 LIG 0.04  C 
BRANCH 29 30
ATOM     30  CG  GLN B 118       4.658  30.648  51.243  1.00 13.74 LIG 0.10  C 
BRANCH 30 31
ATOM     31  CD  GLN B 118       5.416  30.116  50.104  1.00 14.95 LIG 0.21  C 
ATOM     32  NE2 GLN B 118       5.095  30.606  48.917  1.00 14.23 LIG-0.37  N 
ATOM     33 22HE GLN B 118       5.520  30.347  48.216  1.00 14.23 LIG 0.16  HD
ATOM     34 21HE GLN B 118       4.462  31.184  48.848  1.00 14.23 LIG 0.16  HD
ATOM     35 OE1  GLN B 118       6.307  29.293  50.269  1.00 17.00 LIG-0.27  OA
ENDBRANCH 30 31
ENDBRANCH 29 30
ENDBRANCH 19 29
ENDBRANCH 17 19
ENDBRANCH 10 15
ENDBRANCH 8 10
ENDBRANCH 5 6
BRANCH 5 36
ATOM     36  CB  ILE B 120      -1.203  33.561  54.566  1.00 15.78 LIG 0.01  C 
ATOM     37  CG2 ILE B 120      -1.282  34.645  55.631  1.00 15.40 LIG 0.01  C 
BRANCH 36 38
ATOM     38  CG1 ILE B 120      -0.002  33.852  53.674  1.00 16.31 LIG 0.00  C 
ATOM     39  CD1 ILE B 120      -0.167  33.273  52.245  1.00 16.15 LIG 0.01  C 
ENDBRANCH 36 38
ENDBRANCH 5 36
ENDBRANCH 1 5
BRANCH 3 40
ATOM     40  CA  ASN B 121      -3.341  31.357  58.185  1.00 16.96 LIG 0.18  C 
BRANCH 40 41
ATOM     41  CB  ASN B 121      -2.917  30.525  59.390  1.00 15.28 LIG 0.14  C 
BRANCH 41 42
ATOM     42  CG  ASN B 121      -3.864  29.371  59.645  1.00 13.24 LIG 0.22  C 
ATOM     43 OD1  ASN B 121      -3.447  28.340  60.178  1.00 13.18 LIG-0.27  OA
ATOM     44  ND2 ASN B 121      -5.152  29.512  59.257  1.00 12.91 LIG-0.37  N 
ATOM     45 22HD ASN B 121      -5.412  30.245  58.888  1.00 12.91 LIG 0.16  HD
ATOM     46 21HD ASN B 121      -5.710  28.870  59.379  1.00 12.91 LIG 0.16  HD
ENDBRANCH 41 42
ENDBRANCH 40 41
BRANCH 40 47
ATOM     47  C   ASN B 121      -3.811  32.752  58.642  1.00 17.96 LIG 0.24  C 
ATOM     48  N   ARG B 122      -2.867  33.626  58.990  1.00 20.13 LIG-0.35  N 
ATOM     49 H    ARG B 122      -2.037  33.406  59.051  1.00 20.13 LIG 0.16  HD
ATOM     50 O    ASN B 121      -5.005  32.970  58.766  1.00 18.88 LIG-0.27  OA
BRANCH 48 51
ATOM     51  CA  ARG B 122      -3.111  35.049  59.308  1.00 22.24 LIG 0.18  C 
BRANCH 51 52
ATOM     52  CB  ARG B 122      -3.701  35.185  60.694  1.00 21.82 LIG 0.04  C 
BRANCH 52 53
ATOM     53  CG  ARG B 122      -5.000  35.919  60.735  1.00 24.56 LIG 0.02  C 
BRANCH 53 54
ATOM     54  CD  ARG B 122      -6.091  35.047  61.324  1.00 26.52 LIG 0.14  C 
BRANCH 54 55
ATOM     55  NE  ARG B 122      -5.868  33.603  61.199  1.00 28.40 LIG-0.23  N 
ATOM     56  CZ  ARG B 122      -5.780  32.711  62.194  1.00 28.18 LIG 0.67  C 
ATOM     57  NH2 ARG B 122      -5.565  31.433  61.892  1.00 29.45 LIG-0.23  N 
ATOM     58  NH1 ARG B 122      -5.864  33.055  63.481  1.00 26.03 LIG-0.23  N 
ATOM     59 1HH2 ARG B 122      -5.485  31.192  61.070  1.00 29.45 LIG 0.17  HD
ATOM     60 2HH2 ARG B 122      -5.506  30.846  62.519  1.00 29.45 LIG 0.17  HD
ATOM     61 1HH1 ARG B 122      -5.980  33.879  63.699  1.00 26.03 LIG 0.17  HD
ATOM     62 2HH1 ARG B 122      -5.803  32.453  64.091  1.00 26.03 LIG 0.17  HD
ATOM     63 HE   ARG B 122      -5.786  33.295  60.400  1.00 28.40 LIG 0.18  HD
ENDBRANCH 54 55
ENDBRANCH 53 54
ENDBRANCH 52 53
ENDBRANCH 51 52
BRANCH 51 64
ATOM     64  C   ARG B 122      -1.718  35.631  59.313  1.00 23.14 LIG 0.24  C 
ATOM     65 O    ARG B 122      -0.751  34.876  59.322  1.00 23.63 LIG-0.27  OA
ATOM     66  N   PRO B 123      -1.597  36.967  59.256  1.00 23.72 LIG-0.34  N 
ATOM     67  CA  PRO B 123      -0.278  37.585  59.187  1.00 24.06 LIG 0.17  C 
ATOM     68  CD  PRO B 123      -2.640  37.963  59.574  1.00 24.11 LIG 0.13  C 
ATOM     69  CB  PRO B 123      -0.593  38.975  58.643  1.00 24.84 LIG 0.04  C 
ATOM     70  CG  PRO B 123      -1.976  39.282  59.146  1.00 25.19 LIG 0.02  C 
BRANCH 67 71
ATOM     71  C   PRO B 123       0.411  37.684  60.571  1.00 23.73 LIG 0.22  C 
ATOM     72 O    PRO B 123      -0.081  37.104  61.552  1.00 24.65 LIG-0.29  OA
ENDBRANCH 67 71
ENDBRANCH 51 64
ENDBRANCH 48 51
ENDBRANCH 40 47
ENDBRANCH 3 40
TORSDOF 25
ENDMDL
MODEL 6
USER: ADFR SOLUTION from run 18
USER: SCORE 26.098134 LL:  -4.993 LR: -23.898 RR:   0.000 FEB: -16.440
USER: RMSD 6.661924
USER: SEED 17
USER: STATUS 1 or 2 clusters left
USER: GENES 27
USER: genes 0 Translation |==|  0.55660 0.43259 0.47159
USER: genes 1 Rotation |==|  0.23129 0.75247 0.83309 0.55573
USER: genes 2 Torsion [N]-C--CA-[N] |==|  0.35557
USER: genes 3 Torsion [C]-CA--N-[C] |==|  0.65439
USER: genes 4 Torsion [N]-C--CA-[N] |==|  0.45199
USER: genes 5 Torsion [C]-CA--CB-[CG2] |==|  0.60460
USER: genes 6 Torsion [CA]-CB--CG1-[CD1] |==|  0.49757
USER: genes 7 Torsion [C]-CA--N-[C] |==|  0.58939
USER: genes 8 Torsion [N]-C--CA-[N] |==|  0.27875
USER: genes 9 Torsion [C]-CA--N-[C] |==|  0.73533
USER: genes 10 Torsion [N]-C--CA-[CB] |==|  0.37337
USER: genes 11 Torsion [C]-CA--CB-[CG] |==|  0.54368
USER: genes 12 Torsion [CA]-CB--CG-[CD] |==|  0.26088
USER: genes 13 Torsion [CB]-CG--CD-[NE2] |==|  0.59699
USER: genes 14 Torsion [C]-CA--CB-[CG2] |==|  0.83023
USER: genes 15 Torsion [CA]-CB--CG1-[CD1] |==|  0.43634
USER: genes 16 Torsion [C]-N--CA-[CB] |==|  0.37281
USER: genes 17 Torsion [N]-CA--CB-[CG] |==|  0.99198
USER: genes 18 Torsion [CA]-CB--CG-[OD1] |==|  0.73650
USER: genes 19 Torsion [N]-CA--C-[N] |==|  0.36964
USER: genes 20 Torsion [C]-N--CA-[C] |==|  0.57778
USER: genes 21 Torsion [N]-CA--CB-[CG] |==|  0.93741
USER: genes 22 Torsion [CA]-CB--CG-[CD] |==|  0.57448
USER: genes 23 Torsion [CB]-CG--CD-[NE] |==|  0.74513
USER: genes 24 Torsion [CG]-CD--NE-[HE] |==|  0.70380
USER: genes 25 Torsion [N]-CA--C-[N] |==|  0.12828
USER: genes 26 Torsion [N]-CA--C-[O] |==|  0.98759
ROOT
ATOM      1  C   ILE B 120       0.121  30.948  54.064  1.00 16.04 LIG 0.24  C 
ATOM      2 O    ILE B 120       0.882  30.740  55.008  1.00 15.27 LIG-0.27  OA
ATOM      3  N   ASN B 121      -0.458  32.126  53.830  1.00 16.46 LIG-0.35  N 
ATOM      4 H    ASN B 121      -0.908  32.300  53.118  1.00 16.46 LIG 0.16  HD
ENDROOT
BRANCH 1 5
ATOM      5  CA  ILE B 120      -0.105  29.868  53.016  1.00 16.12 LIG 0.18  C 
BRANCH 5 6
ATOM      6  N   ILE B 120       1.256  29.371  52.663  1.00 14.41 LIG-0.35  N 
ATOM      7 H    ILE B 120       1.704  29.097  53.344  1.00 14.41 LIG 0.16  HD
ATOM      8  C   ILE B 119       1.743  29.347  51.425  1.00 14.21 LIG 0.24  C 
ATOM      9 O    ILE B 119       1.155  29.770  50.423  1.00 13.95 LIG-0.27  OA
BRANCH 8 10
ATOM     10  CA  ILE B 119       3.165  28.822  51.286  1.00 14.01 LIG 0.18  C 
BRANCH 10 11
ATOM     11  CB  ILE B 119       4.054  29.990  51.766  1.00 14.26 LIG 0.01  C 
ATOM     12  CG2 ILE B 119       5.319  30.086  50.926  1.00 14.00 LIG 0.01  C 
BRANCH 11 13
ATOM     13  CG1 ILE B 119       3.341  31.324  51.643  1.00 15.18 LIG 0.00  C 
ATOM     14  CD1 ILE B 119       4.182  32.488  52.127  1.00 12.51 LIG 0.01  C 
ENDBRANCH 11 13
ENDBRANCH 10 11
BRANCH 10 15
ATOM     15  N   ILE B 119       3.373  28.477  49.868  1.00 12.55 LIG-0.35  N 
ATOM     16 H    ILE B 119       2.935  28.978  49.323  1.00 12.55 LIG 0.16  HD
ATOM     17  C   GLN B 118       4.166  27.483  49.465  1.00 12.00 LIG 0.24  C 
ATOM     18 O    GLN B 118       4.898  26.829  50.226  1.00 12.29 LIG-0.27  OA
BRANCH 17 19
ATOM     19  CA  GLN B 118       4.078  27.097  47.987  1.00 10.88 LIG 0.18  C 
BRANCH 19 20
ATOM     20  N   GLN B 118       5.193  27.689  47.246  1.00  9.13 LIG-0.35  N 
ATOM     21  C   PRO B 117       5.052  28.854  46.603  1.00  5.97 LIG 0.25  C 
ATOM     22 O    PRO B 117       3.970  29.437  46.517  1.00  4.88 LIG-0.27  OA
ATOM     23 H    GLN B 118       5.920  27.231  47.265  1.00  9.13 LIG 0.16  HD
BRANCH 21 24
ATOM     24  CA  PRO B 117       6.306  29.366  45.848  1.00  4.52 LIG 0.35  C 
ATOM     25  CB  PRO B 117       5.953  29.855  44.449  1.00  4.68 LIG 0.05  C 
ATOM     26  CG  PRO B 117       6.983  29.276  43.542  1.00  4.01 LIG 0.04  C 
ATOM     27  CD  PRO B 117       7.316  27.950  44.166  1.00  3.18 LIG 0.32  C 
ATOM     28  N   PRO B 117       7.250  28.264  45.603  1.00  3.80 LIG 0.32  N 
ENDBRANCH 21 24
ENDBRANCH 19 20
BRANCH 19 29
ATOM     29  CB  GLN B 118       4.163  25.606  47.883  1.00 12.35 LIG 0.04  C 
BRANCH 29 30
ATOM     30  CG  GLN B 118       4.461  25.154  46.501  1.00 13.74 LIG 0.10  C 
BRANCH 30 31
ATOM     31  CD  GLN B 118       5.905  24.965  46.317  1.00 14.95 LIG 0.21  C 
ATOM     32  NE2 GLN B 118       6.379  25.270  45.119  1.00 14.23 LIG-0.37  N 
ATOM     33 22HE GLN B 118       7.221  25.199  44.959  1.00 14.23 LIG 0.16  HD
ATOM     34 21HE GLN B 118       5.845  25.540  44.501  1.00 14.23 LIG 0.16  HD
ATOM     35 OE1  GLN B 118       6.613  24.577  47.237  1.00 17.00 LIG-0.27  OA
ENDBRANCH 30 31
ENDBRANCH 29 30
ENDBRANCH 19 29
ENDBRANCH 17 19
ENDBRANCH 10 15
ENDBRANCH 8 10
ENDBRANCH 5 6
BRANCH 5 36
ATOM     36  CB  ILE B 120      -0.995  28.811  53.622  1.00 15.78 LIG 0.01  C 
ATOM     37  CG2 ILE B 120      -0.307  28.198  54.834  1.00 15.40 LIG 0.01  C 
BRANCH 36 38
ATOM     38  CG1 ILE B 120      -2.338  29.376  54.069  1.00 16.31 LIG 0.00  C 
ATOM     39  CD1 ILE B 120      -3.442  28.290  54.155  1.00 16.15 LIG 0.01  C 
ENDBRANCH 36 38
ENDBRANCH 5 36
ENDBRANCH 1 5
BRANCH 3 40
ATOM     40  CA  ASN B 121      -0.382  33.232  54.766  1.00 16.96 LIG 0.18  C 
BRANCH 40 41
ATOM     41  CB  ASN B 121      -0.046  34.530  54.040  1.00 15.28 LIG 0.14  C 
BRANCH 41 42
ATOM     42  CG  ASN B 121       0.186  34.310  52.559  1.00 13.24 LIG 0.22  C 
ATOM     43 OD1  ASN B 121       1.332  34.146  52.135  1.00 13.18 LIG-0.27  OA
ATOM     44  ND2 ASN B 121      -0.892  34.318  51.743  1.00 12.91 LIG-0.37  N 
ATOM     45 22HD ASN B 121      -1.679  34.435  52.071  1.00 12.91 LIG 0.16  HD
ATOM     46 21HD ASN B 121      -0.791  34.207  50.896  1.00 12.91 LIG 0.16  HD
ENDBRANCH 41 42
ENDBRANCH 40 41
BRANCH 40 47
ATOM     47  C   ASN B 121      -1.759  33.347  55.449  1.00 17.96 LIG 0.24  C 
ATOM     48  N   ARG B 122      -1.768  33.476  56.775  1.00 20.13 LIG-0.35  N 
ATOM     49 H    ARG B 122      -1.054  33.407  57.249  1.00 20.13 LIG 0.16  HD
ATOM     50 O    ASN B 121      -2.771  33.214  54.780  1.00 18.88 LIG-0.27  OA
BRANCH 48 51
ATOM     51  CA  ARG B 122      -2.974  33.749  57.587  1.00 22.24 LIG 0.18  C 
BRANCH 51 52
ATOM     52  CB  ARG B 122      -3.598  32.454  58.054  1.00 21.82 LIG 0.04  C 
BRANCH 52 53
ATOM     53  CG  ARG B 122      -3.242  31.269  57.218  1.00 24.56 LIG 0.02  C 
BRANCH 53 54
ATOM     54  CD  ARG B 122      -4.329  30.215  57.291  1.00 26.52 LIG 0.14  C 
BRANCH 54 55
ATOM     55  NE  ARG B 122      -4.148  29.205  58.339  1.00 28.40 LIG-0.23  N 
ATOM     56  CZ  ARG B 122      -4.313  29.374  59.658  1.00 28.18 LIG 0.67  C 
ATOM     57  NH2 ARG B 122      -4.095  28.340  60.468  1.00 29.45 LIG-0.23  N 
ATOM     58  NH1 ARG B 122      -4.655  30.544  60.199  1.00 26.03 LIG-0.23  N 
ATOM     59 1HH2 ARG B 122      -3.851  27.582  60.142  1.00 29.45 LIG 0.17  HD
ATOM     60 2HH2 ARG B 122      -4.196  28.430  61.317  1.00 29.45 LIG 0.17  HD
ATOM     61 1HH1 ARG B 122      -4.779  31.231  59.695  1.00 26.03 LIG 0.17  HD
ATOM     62 2HH1 ARG B 122      -4.752  30.612  61.050  1.00 26.03 LIG 0.17  HD
ATOM     63 HE   ARG B 122      -3.911  28.421  58.079  1.00 28.40 LIG 0.18  HD
ENDBRANCH 54 55
ENDBRANCH 53 54
ENDBRANCH 52 53
ENDBRANCH 51 52
BRANCH 51 64
ATOM     64  C   ARG B 122      -2.410  34.477  58.783  1.00 23.14 LIG 0.24  C 
ATOM     65 O    ARG B 122      -2.738  34.123  59.911  1.00 23.63 LIG-0.27  OA
ATOM     66  N   PRO B 123      -1.524  35.460  58.558  1.00 23.72 LIG-0.34  N 
ATOM     67  CA  PRO B 123      -0.892  36.152  59.675  1.00 24.06 LIG 0.17  C 
ATOM     68  CD  PRO B 123      -1.312  36.184  57.289  1.00 24.11 LIG 0.13  C 
ATOM     69  CB  PRO B 123       0.338  36.776  59.023  1.00 24.84 LIG 0.04  C 
ATOM     70  CG  PRO B 123      -0.069  37.033  57.599  1.00 25.19 LIG 0.02  C 
BRANCH 67 71
ATOM     71  C   PRO B 123      -1.797  37.248  60.290  1.00 23.73 LIG 0.22  C 
ATOM     72 O    PRO B 123      -2.894  37.510  59.772  1.00 24.65 LIG-0.29  OA
ENDBRANCH 67 71
ENDBRANCH 51 64
ENDBRANCH 48 51
ENDBRANCH 40 47
ENDBRANCH 3 40
TORSDOF 25
ENDMDL
MODEL 7
USER: ADFR SOLUTION from run 143
USER: SCORE 27.240107 LL:  -5.395 LR: -23.870 RR:   0.000 FEB: -16.413
USER: RMSD 6.909960
USER: SEED 142
USER: STATUS no improvement in best in 1 clusters for 5 generations
USER: GENES 27
USER: genes 0 Translation |==|  0.48882 0.35337 0.47220
USER: genes 1 Rotation |==|  0.23435 0.63915 0.85512 0.68427
USER: genes 2 Torsion [N]-C--CA-[N] |==|  0.32345
USER: genes 3 Torsion [C]-CA--N-[C] |==|  0.68111
USER: genes 4 Torsion [N]-C--CA-[N] |==|  0.30954
USER: genes 5 Torsion [C]-CA--CB-[CG2] |==|  0.10251
USER: genes 6 Torsion [CA]-CB--CG1-[CD1] |==|  0.21864
USER: genes 7 Torsion [C]-CA--N-[C] |==|  0.63596
USER: genes 8 Torsion [N]-C--CA-[N] |==|  0.17183
USER: genes 9 Torsion [C]-CA--N-[C] |==|  0.16342
USER: genes 10 Torsion [N]-C--CA-[CB] |==|  0.77950
USER: genes 11 Torsion [C]-CA--CB-[CG] |==|  0.45477
USER: genes 12 Torsion [CA]-CB--CG-[CD] |==|  0.95288
USER: genes 13 Torsion [CB]-CG--CD-[NE2] |==|  0.23392
USER: genes 14 Torsion [C]-CA--CB-[CG2] |==|  0.17743
USER: genes 15 Torsion [CA]-CB--CG1-[CD1] |==|  0.50499
USER: genes 16 Torsion [C]-N--CA-[CB] |==|  0.16145
USER: genes 17 Torsion [N]-CA--CB-[CG] |==|  0.08893
USER: genes 18 Torsion [CA]-CB--CG-[OD1] |==|  0.22924
USER: genes 19 Torsion [N]-CA--C-[N] |==|  0.66923
USER: genes 20 Torsion [C]-N--CA-[C] |==|  0.64444
USER: genes 21 Torsion [N]-CA--CB-[CG] |==|  0.82398
USER: genes 22 Torsion [CA]-CB--CG-[CD] |==|  0.26869
USER: genes 23 Torsion [CB]-CG--CD-[NE] |==|  0.61530
USER: genes 24 Torsion [CG]-CD--NE-[HE] |==|  0.87730
USER: genes 25 Torsion [N]-CA--C-[N] |==|  0.17043
USER: genes 26 Torsion [N]-CA--C-[O] |==|  0.09086
ROOT
ATOM      1  C   ILE B 120      -1.557  29.166  54.079  1.00 16.04 LIG 0.24  C 
ATOM      2 O    ILE B 120      -1.080  28.328  54.844  1.00 15.27 LIG-0.27  OA
ATOM      3  N   ASN B 121      -2.039  30.341  54.482  1.00 16.46 LIG-0.35  N 
ATOM      4 H    ASN B 121      -2.279  30.966  53.942  1.00 16.46 LIG 0.16  HD
ENDROOT
BRANCH 1 5
ATOM      5  CA  ILE B 120      -1.503  28.942  52.575  1.00 16.12 LIG 0.18  C 
BRANCH 5 6
ATOM      6  N   ILE B 120      -0.055  28.799  52.250  1.00 14.41 LIG-0.35  N 
ATOM      7 H    ILE B 120       0.304  28.100  52.599  1.00 14.41 LIG 0.16  HD
ATOM      8  C   ILE B 119       0.628  29.658  51.495  1.00 14.21 LIG 0.24  C 
ATOM      9 O    ILE B 119       0.167  30.697  51.010  1.00 13.95 LIG-0.27  OA
BRANCH 8 10
ATOM     10  CA  ILE B 119       2.104  29.340  51.306  1.00 14.01 LIG 0.18  C 
BRANCH 10 11
ATOM     11  CB  ILE B 119       2.832  30.646  51.692  1.00 14.26 LIG 0.01  C 
ATOM     12  CG2 ILE B 119       2.132  31.330  52.857  1.00 14.00 LIG 0.01  C 
BRANCH 11 13
ATOM     13  CG1 ILE B 119       4.261  30.381  52.130  1.00 15.18 LIG 0.00  C 
ATOM     14  CD1 ILE B 119       5.202  30.157  50.963  1.00 12.51 LIG 0.01  C 
ENDBRANCH 11 13
ENDBRANCH 10 11
BRANCH 10 15
ATOM     15  N   ILE B 119       2.298  28.961  49.894  1.00 12.55 LIG-0.35  N 
ATOM     16 H    ILE B 119       1.943  29.513  49.338  1.00 12.55 LIG 0.16  HD
ATOM     17  C   GLN B 118       2.961  27.868  49.514  1.00 12.00 LIG 0.24  C 
ATOM     18 O    GLN B 118       3.581  27.127  50.295  1.00 12.29 LIG-0.27  OA
BRANCH 17 19
ATOM     19  CA  GLN B 118       2.857  27.488  48.035  1.00 10.88 LIG 0.18  C 
BRANCH 19 20
ATOM     20  N   GLN B 118       3.418  28.553  47.202  1.00  9.13 LIG-0.35  N 
ATOM     21  C   PRO B 117       4.690  28.942  47.346  1.00  5.97 LIG 0.25  C 
ATOM     22 O    PRO B 117       5.422  28.503  48.234  1.00  4.88 LIG-0.27  OA
ATOM     23 H    GLN B 118       2.869  28.891  46.633  1.00  9.13 LIG 0.16  HD
BRANCH 21 24
ATOM     24  CA  PRO B 117       5.157  30.086  46.409  1.00  4.52 LIG 0.35  C 
ATOM     25  CB  PRO B 117       5.481  29.566  45.014  1.00  4.68 LIG 0.05  C 
ATOM     26  CG  PRO B 117       6.777  30.196  44.635  1.00  4.01 LIG 0.04  C 
ATOM     27  CD  PRO B 117       7.518  30.319  45.936  1.00  3.18 LIG 0.32  C 
ATOM     28  N   PRO B 117       6.433  30.651  46.875  1.00  3.80 LIG 0.32  N 
ENDBRANCH 21 24
ENDBRANCH 19 20
BRANCH 19 29
ATOM     29  CB  GLN B 118       3.644  26.233  47.815  1.00 12.35 LIG 0.04  C 
BRANCH 29 30
ATOM     30  CG  GLN B 118       3.302  25.574  46.530  1.00 13.74 LIG 0.10  C 
BRANCH 30 31
ATOM     31  CD  GLN B 118       2.027  26.082  46.009  1.00 14.95 LIG 0.21  C 
ATOM     32  NE2 GLN B 118       2.095  27.204  45.309  1.00 14.23 LIG-0.37  N 
ATOM     33 22HE GLN B 118       1.383  27.537  44.961  1.00 14.23 LIG 0.16  HD
ATOM     34 21HE GLN B 118       2.852  27.598  45.201  1.00 14.23 LIG 0.16  HD
ATOM     35 OE1  GLN B 118       0.981  25.474  46.196  1.00 17.00 LIG-0.27  OA
ENDBRANCH 30 31
ENDBRANCH 29 30
ENDBRANCH 19 29
ENDBRANCH 17 19
ENDBRANCH 10 15
ENDBRANCH 8 10
ENDBRANCH 5 6
BRANCH 5 36
ATOM     36  CB  ILE B 120      -2.316  27.710  52.259  1.00 15.78 LIG 0.01  C 
ATOM     37  CG2 ILE B 120      -3.774  27.955  52.619  1.00 15.40 LIG 0.01  C 
BRANCH 36 38
ATOM     38  CG1 ILE B 120      -2.244  27.334  50.784  1.00 16.31 LIG 0.00  C 
ATOM     39  CD1 ILE B 120      -3.111  26.096  50.441  1.00 16.15 LIG 0.01  C 
ENDBRANCH 36 38
ENDBRANCH 5 36
ENDBRANCH 1 5
BRANCH 3 40
ATOM     40  CA  ASN B 121      -2.207  30.676  55.884  1.00 16.96 LIG 0.18  C 
BRANCH 40 41
ATOM     41  CB  ASN B 121      -0.877  30.576  56.624  1.00 15.28 LIG 0.14  C 
BRANCH 41 42
ATOM     42  CG  ASN B 121       0.297  30.930  55.735  1.00 13.24 LIG 0.22  C 
ATOM     43 OD1  ASN B 121       0.600  32.112  55.560  1.00 13.18 LIG-0.27  OA
ATOM     44  ND2 ASN B 121       0.970  29.917  55.145  1.00 12.91 LIG-0.37  N 
ATOM     45 22HD ASN B 121       0.733  29.103  55.288  1.00 12.91 LIG 0.16  HD
ATOM     46 21HD ASN B 121       1.634  30.087  54.627  1.00 12.91 LIG 0.16  HD
ENDBRANCH 41 42
ENDBRANCH 40 41
BRANCH 40 47
ATOM     47  C   ASN B 121      -2.742  32.120  55.947  1.00 17.96 LIG 0.24  C 
ATOM     48  N   ARG B 122      -1.988  33.019  56.577  1.00 20.13 LIG-0.35  N 
ATOM     49 H    ARG B 122      -1.280  32.801  57.014  1.00 20.13 LIG 0.16  HD
ATOM     50 O    ASN B 121      -3.859  32.362  55.518  1.00 18.88 LIG-0.27  OA
BRANCH 48 51
ATOM     51  CA  ARG B 122      -2.260  34.473  56.610  1.00 22.24 LIG 0.18  C 
BRANCH 51 52
ATOM     52  CB  ARG B 122      -2.543  34.923  58.025  1.00 21.82 LIG 0.04  C 
BRANCH 52 53
ATOM     53  CG  ARG B 122      -3.767  34.314  58.625  1.00 24.56 LIG 0.02  C 
BRANCH 53 54
ATOM     54  CD  ARG B 122      -3.406  33.112  59.476  1.00 26.52 LIG 0.14  C 
BRANCH 54 55
ATOM     55  NE  ARG B 122      -4.303  31.960  59.338  1.00 28.40 LIG-0.23  N 
ATOM     56  CZ  ARG B 122      -3.950  30.674  59.219  1.00 28.18 LIG 0.67  C 
ATOM     57  NH2 ARG B 122      -4.906  29.756  59.094  1.00 29.45 LIG-0.23  N 
ATOM     58  NH1 ARG B 122      -2.677  30.274  59.184  1.00 26.03 LIG-0.23  N 
ATOM     59 1HH2 ARG B 122      -5.733  29.994  59.091  1.00 29.45 LIG 0.17  HD
ATOM     60 2HH2 ARG B 122      -4.698  28.925  59.016  1.00 29.45 LIG 0.17  HD
ATOM     61 1HH1 ARG B 122      -2.043  30.853  59.240  1.00 26.03 LIG 0.17  HD
ATOM     62 2HH1 ARG B 122      -2.491  29.439  59.107  1.00 26.03 LIG 0.17  HD
ATOM     63 HE   ARG B 122      -5.146  32.129  59.334  1.00 28.40 LIG 0.18  HD
ENDBRANCH 54 55
ENDBRANCH 53 54
ENDBRANCH 52 53
ENDBRANCH 51 52
BRANCH 51 64
ATOM     64  C   ARG B 122      -0.944  35.065  56.165  1.00 23.14 LIG 0.24  C 
ATOM     65 O    ARG B 122      -0.308  35.769  56.943  1.00 23.63 LIG-0.27  OA
ATOM     66  N   PRO B 123      -0.498  34.751  54.938  1.00 23.72 LIG-0.34  N 
ATOM     67  CA  PRO B 123       0.798  35.235  54.479  1.00 24.06 LIG 0.17  C 
ATOM     68  CD  PRO B 123      -1.298  34.214  53.819  1.00 24.11 LIG 0.13  C 
ATOM     69  CB  PRO B 123       1.118  34.283  53.331  1.00 24.84 LIG 0.04  C 
ATOM     70  CG  PRO B 123      -0.220  33.888  52.773  1.00 25.19 LIG 0.02  C 
BRANCH 67 71
ATOM     71  C   PRO B 123       0.746  36.699  53.973  1.00 23.73 LIG 0.22  C 
ATOM     72 O    PRO B 123      -0.040  37.507  54.492  1.00 24.65 LIG-0.29  OA
ENDBRANCH 67 71
ENDBRANCH 51 64
ENDBRANCH 48 51
ENDBRANCH 40 47
ENDBRANCH 3 40
TORSDOF 25
ENDMDL
MODEL 8
USER: ADFR SOLUTION from run 188
USER: SCORE 26.993237 LL:  -5.089 LR: -23.621 RR:   0.000 FEB: -16.163
USER: RMSD 2.065961
USER: SEED 187
USER: STATUS searching
USER: GENES 27
USER: genes 0 Translation |==|  0.44740 0.48271 0.54251
USER: genes 1 Rotation |==|  0.43700 0.47538 0.51628 0.99514
USER: genes 2 Torsion [N]-C--CA-[N] |==|  0.37111
USER: genes 3 Torsion [C]-CA--N-[C] |==|  0.65589
USER: genes 4 Torsion [N]-C--CA-[N] |==|  0.35427
USER: genes 5 Torsion [C]-CA--CB-[CG2] |==|  0.09854
USER: genes 6 Torsion [CA]-CB--CG1-[CD1] |==|  0.92894
USER: genes 7 Torsion [C]-CA--N-[C] |==|  0.66370
USER: genes 8 Torsion [N]-C--CA-[N] |==|  0.40557
USER: genes 9 Torsion [C]-CA--N-[C] |==|  0.69158
USER: genes 10 Torsion [N]-C--CA-[CB] |==|  0.96559
USER: genes 11 Torsion [C]-CA--CB-[CG] |==|  0.18279
USER: genes 12 Torsion [CA]-CB--CG-[CD] |==|  0.29912
USER: genes 13 Torsion [CB]-CG--CD-[NE2] |==|  0.78761
USER: genes 14 Torsion [C]-CA--CB-[CG2] |==|  0.42734
USER: genes 15 Torsion [CA]-CB--CG1-[CD1] |==|  0.74502
USER: genes 16 Torsion [C]-N--CA-[CB] |==|  0.23753
USER: genes 17 Torsion [N]-CA--CB-[CG] |==|  0.22732
USER: genes 18 Torsion [CA]-CB--CG-[OD1] |==|  0.82089
USER: genes 19 Torsion [N]-CA--C-[N] |==|  0.43032
USER: genes 20 Torsion [C]-N--CA-[C] |==|  0.55732
USER: genes 21 Torsion [N]-CA--CB-[CG] |==|  0.95125
USER: genes 22 Torsion [CA]-CB--CG-[CD] |==|  0.71494
USER: genes 23 Torsion [CB]-CG--CD-[NE] |==|  0.37035
USER: genes 24 Torsion [CG]-CD--NE-[HE] |==|  0.79208
USER: genes 25 Torsion [N]-CA--C-[N] |==|  0.39446
USER: genes 26 Torsion [N]-CA--C-[O] |==|  0.96991
ROOT
ATOM      1  C   ILE B 120      -2.582  32.076  55.819  1.00 16.04 LIG 0.24  C 
ATOM      2 O    ILE B 120      -3.508  31.915  55.025  1.00 15.27 LIG-0.27  OA
ATOM      3  N   ASN B 121      -2.745  32.126  57.141  1.00 16.46 LIG-0.35  N 
ATOM      4 H    ASN B 121      -2.091  32.138  57.699  1.00 16.46 LIG 0.16  HD
ENDROOT
BRANCH 1 5
ATOM      5  CA  ILE B 120      -1.145  32.104  55.318  1.00 16.12 LIG 0.18  C 
BRANCH 5 6
ATOM      6  N   ILE B 120      -1.064  31.020  54.296  1.00 14.41 LIG-0.35  N 
ATOM      7 H    ILE B 120      -1.641  31.106  53.665  1.00 14.41 LIG 0.16  HD
ATOM      8  C   ILE B 119      -0.191  30.016  54.343  1.00 14.21 LIG 0.24  C 
ATOM      9 O    ILE B 119       0.626  29.828  55.252  1.00 13.95 LIG-0.27  OA
BRANCH 8 10
ATOM     10  CA  ILE B 119      -0.292  29.002  53.213  1.00 14.01 LIG 0.18  C 
BRANCH 10 11
ATOM     11  CB  ILE B 119      -0.792  27.712  53.897  1.00 14.26 LIG 0.01  C 
ATOM     12  CG2 ILE B 119      -1.766  28.038  55.020  1.00 14.00 LIG 0.01  C 
BRANCH 11 13
ATOM     13  CG1 ILE B 119      -1.529  26.811  52.922  1.00 15.18 LIG 0.00  C 
ATOM     14  CD1 ILE B 119      -2.137  27.574  51.762  1.00 12.51 LIG 0.01  C 
ENDBRANCH 11 13
ENDBRANCH 10 11
BRANCH 10 15
ATOM     15  N   ILE B 119       1.051  28.864  52.621  1.00 12.55 LIG-0.35  N 
ATOM     16 H    ILE B 119       1.650  28.606  53.182  1.00 12.55 LIG 0.16  HD
ATOM     17  C   GLN B 118       1.315  29.114  51.338  1.00 12.00 LIG 0.24  C 
ATOM     18 O    GLN B 118       0.445  29.370  50.489  1.00 12.29 LIG-0.27  OA
BRANCH 17 19
ATOM     19  CA  GLN B 118       2.793  29.165  50.943  1.00 10.88 LIG 0.18  C 
BRANCH 19 20
ATOM     20  N   GLN B 118       2.968  28.648  49.586  1.00  9.13 LIG-0.35  N 
ATOM     21  C   PRO B 117       3.595  27.487  49.366  1.00  5.97 LIG 0.25  C 
ATOM     22 O    PRO B 117       4.136  26.845  50.267  1.00  4.88 LIG-0.27  OA
ATOM     23 H    GLN B 118       2.640  29.147  48.966  1.00  9.13 LIG 0.16  HD
BRANCH 21 24
ATOM     24  CA  PRO B 117       3.723  27.058  47.881  1.00  4.52 LIG 0.35  C 
ATOM     25  CB  PRO B 117       2.838  27.908  46.978  1.00  4.68 LIG 0.05  C 
ATOM     26  CG  PRO B 117       2.152  26.953  46.063  1.00  4.01 LIG 0.04  C 
ATOM     27  CD  PRO B 117       1.967  25.717  46.896  1.00  3.18 LIG 0.32  C 
ATOM     28  N   PRO B 117       3.209  25.694  47.688  1.00  3.80 LIG 0.32  N 
ENDBRANCH 21 24
ENDBRANCH 19 20
BRANCH 19 29
ATOM     29  CB  GLN B 118       3.242  30.594  50.982  1.00 12.35 LIG 0.04  C 
BRANCH 29 30
ATOM     30  CG  GLN B 118       3.219  31.153  52.356  1.00 13.74 LIG 0.10  C 
BRANCH 30 31
ATOM     31  CD  GLN B 118       4.584  31.321  52.870  1.00 14.95 LIG 0.21  C 
ATOM     32  NE2 GLN B 118       5.191  30.215  53.270  1.00 14.23 LIG-0.37  N 
ATOM     33 22HE GLN B 118       5.999  30.250  53.561  1.00 14.23 LIG 0.16  HD
ATOM     34 21HE GLN B 118       4.778  29.462  53.237  1.00 14.23 LIG 0.16  HD
ATOM     35 OE1  GLN B 118       5.118  32.423  52.891  1.00 17.00 LIG-0.27  OA
ENDBRANCH 30 31
ENDBRANCH 29 30
ENDBRANCH 19 29
ENDBRANCH 17 19
ENDBRANCH 10 15
ENDBRANCH 8 10
ENDBRANCH 5 6
BRANCH 5 36
ATOM     36  CB  ILE B 120      -0.874  33.480  54.760  1.00 15.78 LIG 0.01  C 
ATOM     37  CG2 ILE B 120       0.615  33.783  54.850  1.00 15.40 LIG 0.01  C 
BRANCH 36 38
ATOM     38  CG1 ILE B 120      -1.302  33.605  53.303  1.00 16.31 LIG 0.00  C 
ATOM     39  CD1 ILE B 120      -0.155  33.272  52.314  1.00 16.15 LIG 0.01  C 
ENDBRANCH 36 38
ENDBRANCH 5 36
ENDBRANCH 1 5
BRANCH 3 40
ATOM     40  CA  ASN B 121      -4.055  32.167  57.764  1.00 16.96 LIG 0.18  C 
BRANCH 40 41
ATOM     41  CB  ASN B 121      -4.609  30.758  57.947  1.00 15.28 LIG 0.14  C 
BRANCH 41 42
ATOM     42  CG  ASN B 121      -4.056  30.086  59.186  1.00 13.24 LIG 0.22  C 
ATOM     43 OD1  ASN B 121      -2.852  29.834  59.263  1.00 13.18 LIG-0.27  OA
ATOM     44  ND2 ASN B 121      -4.925  29.767  60.172  1.00 12.91 LIG-0.37  N 
ATOM     45 22HD ASN B 121      -5.760  29.956  60.088  1.00 12.91 LIG 0.16  HD
ATOM     46 21HD ASN B 121      -4.642  29.375  60.883  1.00 12.91 LIG 0.16  HD
ENDBRANCH 41 42
ENDBRANCH 40 41
BRANCH 40 47
ATOM     47  C   ASN B 121      -3.887  32.853  59.134  1.00 17.96 LIG 0.24  C 
ATOM     48  N   ARG B 122      -4.959  33.453  59.647  1.00 20.13 LIG-0.35  N 
ATOM     49 H    ARG B 122      -5.692  33.543  59.205  1.00 20.13 LIG 0.16  HD
ATOM     50 O    ASN B 121      -2.778  32.911  59.641  1.00 18.88 LIG-0.27  OA
BRANCH 48 51
ATOM     51  CA  ARG B 122      -5.033  34.030  61.007  1.00 22.24 LIG 0.18  C 
BRANCH 51 52
ATOM     52  CB  ARG B 122      -4.484  35.438  61.012  1.00 21.82 LIG 0.04  C 
BRANCH 52 53
ATOM     53  CG  ARG B 122      -3.643  35.769  59.824  1.00 24.56 LIG 0.02  C 
BRANCH 53 54
ATOM     54  CD  ARG B 122      -2.170  35.732  60.183  1.00 26.52 LIG 0.14  C 
BRANCH 54 55
ATOM     55  NE  ARG B 122      -1.318  35.005  59.237  1.00 28.40 LIG-0.23  N 
ATOM     56  CZ  ARG B 122      -0.473  35.534  58.341  1.00 28.18 LIG 0.67  C 
ATOM     57  NH2 ARG B 122       0.219  34.715  57.552  1.00 29.45 LIG-0.23  N 
ATOM     58  NH1 ARG B 122      -0.321  36.850  58.182  1.00 26.03 LIG-0.23  N 
ATOM     59 1HH2 ARG B 122       0.119  33.863  57.622  1.00 29.45 LIG 0.17  HD
ATOM     60 2HH2 ARG B 122       0.766  35.038  56.972  1.00 29.45 LIG 0.17  HD
ATOM     61 1HH1 ARG B 122      -0.776  37.397  58.666  1.00 26.03 LIG 0.17  HD
ATOM     62 2HH1 ARG B 122       0.231  37.151  57.597  1.00 26.03 LIG 0.17  HD
ATOM     63 HE   ARG B 122      -1.365  34.147  59.259  1.00 28.40 LIG 0.18  HD
ENDBRANCH 54 55
ENDBRANCH 53 54
ENDBRANCH 52 53
ENDBRANCH 51 52
BRANCH 51 64
ATOM     64  C   ARG B 122      -6.520  34.086  61.262  1.00 23.14 LIG 0.24  C 
ATOM     65 O    ARG B 122      -7.280  34.340  60.333  1.00 23.63 LIG-0.27  OA
ATOM     66  N   PRO B 123      -6.955  33.804  62.501  1.00 23.72 LIG-0.34  N 
ATOM     67  CA  PRO B 123      -8.383  33.773  62.791  1.00 24.06 LIG 0.17  C 
ATOM     68  CD  PRO B 123      -6.155  33.818  63.742  1.00 24.11 LIG 0.13  C 
ATOM     69  CB  PRO B 123      -8.441  32.957  64.078  1.00 24.84 LIG 0.04  C 
ATOM     70  CG  PRO B 123      -7.137  33.237  64.772  1.00 25.19 LIG 0.02  C 
BRANCH 67 71
ATOM     71  C   PRO B 123      -8.980  35.185  63.015  1.00 23.73 LIG 0.22  C 
ATOM     72 O    PRO B 123      -8.227  36.164  63.138  1.00 24.65 LIG-0.29  OA
ENDBRANCH 67 71
ENDBRANCH 51 64
ENDBRANCH 48 51
ENDBRANCH 40 47
ENDBRANCH 3 40
TORSDOF 25
ENDMDL
MODEL 9
USER: ADFR SOLUTION from run 91
USER: SCORE 27.401396 LL:  -5.420 LR: -23.431 RR:   0.000 FEB: -15.973
USER: RMSD 13.065080
USER: SEED 90
USER: STATUS no improvement in best in 5 clusters for 5 generations
USER: GENES 27
USER: genes 0 Translation |==|  0.56151 0.34297 0.38509
USER: genes 1 Rotation |==|  0.81405 0.28027 0.81905 0.53604
USER: genes 2 Torsion [N]-C--CA-[N] |==|  0.37390
USER: genes 3 Torsion [C]-CA--N-[C] |==|  0.71501
USER: genes 4 Torsion [N]-C--CA-[N] |==|  0.30681
USER: genes 5 Torsion [C]-CA--CB-[CG2] |==|  0.17049
USER: genes 6 Torsion [CA]-CB--CG1-[CD1] |==|  0.90502
USER: genes 7 Torsion [C]-CA--N-[C] |==|  0.70227
USER: genes 8 Torsion [N]-C--CA-[N] |==|  0.34637
USER: genes 9 Torsion [C]-CA--N-[C] |==|  0.73840
USER: genes 10 Torsion [N]-C--CA-[CB] |==|  0.41287
USER: genes 11 Torsion [C]-CA--CB-[CG] |==|  0.50304
USER: genes 12 Torsion [CA]-CB--CG-[CD] |==|  0.76492
USER: genes 13 Torsion [CB]-CG--CD-[NE2] |==|  0.61982
USER: genes 14 Torsion [C]-CA--CB-[CG2] |==|  0.66548
USER: genes 15 Torsion [CA]-CB--CG1-[CD1] |==|  0.49601
USER: genes 16 Torsion [C]-N--CA-[CB] |==|  0.87943
USER: genes 17 Torsion [N]-CA--CB-[CG] |==|  0.57838
USER: genes 18 Torsion [CA]-CB--CG-[OD1] |==|  0.19570
USER: genes 19 Torsion [N]-CA--C-[N] |==|  0.34496
USER: genes 20 Torsion [C]-N--CA-[C] |==|  0.55825
USER: genes 21 Torsion [N]-CA--CB-[CG] |==|  0.64666
USER: genes 22 Torsion [CA]-CB--CG-[CD] |==|  0.76384
USER: genes 23 Torsion [CB]-CG--CD-[NE] |==|  0.14854
USER: genes 24 Torsion [CG]-CD--NE-[HE] |==|  0.65787
USER: genes 25 Torsion [N]-CA--C-[N] |==|  0.19378
USER: genes 26 Torsion [N]-CA--C-[O] |==|  0.06080
ROOT
ATOM      1  C   ILE B 120       0.242  28.932  51.923  1.00 16.04 LIG 0.24  C 
ATOM      2 O    ILE B 120      -0.138  29.798  51.136  1.00 15.27 LIG-0.27  OA
ATOM      3  N   ASN B 121       1.391  28.269  51.790  1.00 16.46 LIG-0.35  N 
ATOM      4 H    ASN B 121       1.704  27.738  52.390  1.00 16.46 LIG 0.16  HD
ENDROOT
BRANCH 1 5
ATOM      5  CA  ILE B 120      -0.550  28.656  53.193  1.00 16.12 LIG 0.18  C 
BRANCH 5 6
ATOM      6  N   ILE B 120      -0.971  29.997  53.692  1.00 14.41 LIG-0.35  N 
ATOM      7 H    ILE B 120      -1.636  30.327  53.258  1.00 14.41 LIG 0.16  HD
ATOM      8  C   ILE B 119      -0.389  30.632  54.707  1.00 14.21 LIG 0.24  C 
ATOM      9 O    ILE B 119       0.595  30.218  55.331  1.00 13.95 LIG-0.27  OA
BRANCH 8 10
ATOM     10  CA  ILE B 119      -0.958  32.002  55.042  1.00 14.01 LIG 0.18  C 
BRANCH 10 11
ATOM     11  CB  ILE B 119       0.275  32.931  55.084  1.00 14.26 LIG 0.01  C 
ATOM     12  CG2 ILE B 119       0.971  32.968  53.732  1.00 14.00 LIG 0.01  C 
BRANCH 11 13
ATOM     13  CG1 ILE B 119      -0.114  34.360  55.419  1.00 15.18 LIG 0.00  C 
ATOM     14  CD1 ILE B 119      -1.463  34.752  54.852  1.00 12.51 LIG 0.01  C 
ENDBRANCH 11 13
ENDBRANCH 10 11
BRANCH 10 15
ATOM     15  N   ILE B 119      -1.647  31.891  56.340  1.00 12.55 LIG-0.35  N 
ATOM     16 H    ILE B 119      -1.112  31.818  57.009  1.00 12.55 LIG 0.16  HD
ATOM     17  C   GLN B 118      -2.975  31.901  56.467  1.00 12.00 LIG 0.24  C 
ATOM     18 O    GLN B 118      -3.759  32.125  55.530  1.00 12.29 LIG-0.27  OA
BRANCH 17 19
ATOM     19  CA  GLN B 118      -3.531  31.526  57.843  1.00 10.88 LIG 0.18  C 
BRANCH 19 20
ATOM     20  N   GLN B 118      -4.403  32.591  58.339  1.00  9.13 LIG-0.35  N 
ATOM     21  C   PRO B 117      -3.931  33.551  59.142  1.00  5.97 LIG 0.25  C 
ATOM     22 O    PRO B 117      -2.780  33.542  59.581  1.00  4.88 LIG-0.27  OA
ATOM     23 H    GLN B 118      -5.219  32.540  58.073  1.00  9.13 LIG 0.16  HD
BRANCH 21 24
ATOM     24  CA  PRO B 117      -4.962  34.613  59.605  1.00  4.52 LIG 0.35  C 
ATOM     25  CB  PRO B 117      -4.628  35.145  60.994  1.00  4.68 LIG 0.05  C 
ATOM     26  CG  PRO B 117      -5.912  35.151  61.748  1.00  4.01 LIG 0.04  C 
ATOM     27  CD  PRO B 117      -6.665  33.972  61.200  1.00  3.18 LIG 0.32  C 
ATOM     28  N   PRO B 117      -6.291  34.007  59.775  1.00  3.80 LIG 0.32  N 
ENDBRANCH 21 24
ENDBRANCH 19 20
BRANCH 19 29
ATOM     29  CB  GLN B 118      -4.331  30.268  57.701  1.00 12.35 LIG 0.04  C 
BRANCH 29 30
ATOM     30  CG  GLN B 118      -4.935  29.839  58.987  1.00 13.74 LIG 0.10  C 
BRANCH 30 31
ATOM     31  CD  GLN B 118      -3.978  29.049  59.772  1.00 14.95 LIG 0.21  C 
ATOM     32  NE2 GLN B 118      -4.465  27.965  60.355  1.00 14.23 LIG-0.37  N 
ATOM     33 22HE GLN B 118      -3.946  27.453  60.811  1.00 14.23 LIG 0.16  HD
ATOM     34 21HE GLN B 118      -5.300  27.773  60.278  1.00 14.23 LIG 0.16  HD
ATOM     35 OE1  GLN B 118      -2.800  29.376  59.844  1.00 17.00 LIG-0.27  OA
ENDBRANCH 30 31
ENDBRANCH 29 30
ENDBRANCH 19 29
ENDBRANCH 17 19
ENDBRANCH 10 15
ENDBRANCH 8 10
ENDBRANCH 5 6
BRANCH 5 36
ATOM     36  CB  ILE B 120      -1.706  27.756  52.833  1.00 15.78 LIG 0.01  C 
ATOM     37  CG2 ILE B 120      -3.017  28.446  53.181  1.00 15.40 LIG 0.01  C 
BRANCH 36 38
ATOM     38  CG1 ILE B 120      -1.726  27.409  51.350  1.00 16.31 LIG 0.00  C 
ATOM     39  CD1 ILE B 120      -2.890  26.455  50.977  1.00 16.15 LIG 0.01  C 
ENDBRANCH 36 38
ENDBRANCH 5 36
ENDBRANCH 1 5
BRANCH 3 40
ATOM     40  CA  ASN B 121       2.225  28.382  50.608  1.00 16.96 LIG 0.18  C 
BRANCH 40 41
ATOM     41  CB  ASN B 121       1.376  28.339  49.343  1.00 15.28 LIG 0.14  C 
BRANCH 41 42
ATOM     42  CG  ASN B 121       2.142  27.779  48.162  1.00 13.24 LIG 0.22  C 
ATOM     43 OD1  ASN B 121       2.432  26.581  48.131  1.00 13.18 LIG-0.27  OA
ATOM     44  ND2 ASN B 121       2.499  28.634  47.178  1.00 12.91 LIG-0.37  N 
ATOM     45 22HD ASN B 121       2.281  29.465  47.230  1.00 12.91 LIG 0.16  HD
ATOM     46 21HD ASN B 121       2.943  28.348  46.500  1.00 12.91 LIG 0.16  HD
ENDBRANCH 41 42
ENDBRANCH 40 41
BRANCH 40 47
ATOM     47  C   ASN B 121       2.968  29.729  50.703  1.00 17.96 LIG 0.24  C 
ATOM     48  N   ARG B 122       4.298  29.694  50.636  1.00 20.13 LIG-0.35  N 
ATOM     49 H    ARG B 122       4.739  28.955  50.635  1.00 20.13 LIG 0.16  HD
ATOM     50 O    ASN B 121       2.334  30.747  50.933  1.00 18.88 LIG-0.27  OA
BRANCH 48 51
ATOM     51  CA  ARG B 122       5.171  30.886  50.558  1.00 22.24 LIG 0.18  C 
BRANCH 51 52
ATOM     52  CB  ARG B 122       5.455  31.421  51.943  1.00 21.82 LIG 0.04  C 
BRANCH 52 53
ATOM     53  CG  ARG B 122       5.155  32.874  52.109  1.00 24.56 LIG 0.02  C 
BRANCH 53 54
ATOM     54  CD  ARG B 122       6.329  33.719  51.656  1.00 26.52 LIG 0.14  C 
BRANCH 54 55
ATOM     55  NE  ARG B 122       6.811  33.440  50.300  1.00 28.40 LIG-0.23  N 
ATOM     56  CZ  ARG B 122       6.099  33.486  49.166  1.00 28.18 LIG 0.67  C 
ATOM     57  NH2 ARG B 122       6.704  33.190  48.018  1.00 29.45 LIG-0.23  N 
ATOM     58  NH1 ARG B 122       4.799  33.782  49.142  1.00 26.03 LIG-0.23  N 
ATOM     59 1HH2 ARG B 122       7.537  32.974  48.013  1.00 29.45 LIG 0.17  HD
ATOM     60 2HH2 ARG B 122       6.262  33.215  47.280  1.00 29.45 LIG 0.17  HD
ATOM     61 1HH1 ARG B 122       4.383  33.953  49.875  1.00 26.03 LIG 0.17  HD
ATOM     62 2HH1 ARG B 122       4.376  33.801  48.394  1.00 26.03 LIG 0.17  HD
ATOM     63 HE   ARG B 122       7.640  33.223  50.224  1.00 28.40 LIG 0.18  HD
ENDBRANCH 54 55
ENDBRANCH 53 54
ENDBRANCH 52 53
ENDBRANCH 51 52
BRANCH 51 64
ATOM     64  C   ARG B 122       6.448  30.323  49.981  1.00 23.14 LIG 0.24  C 
ATOM     65 O    ARG B 122       7.433  30.208  50.703  1.00 23.63 LIG-0.27  OA
ATOM     66  N   PRO B 123       6.434  29.923  48.700  1.00 23.72 LIG-0.34  N 
ATOM     67  CA  PRO B 123       7.615  29.307  48.107  1.00 24.06 LIG 0.17  C 
ATOM     68  CD  PRO B 123       5.453  30.307  47.665  1.00 24.11 LIG 0.13  C 
ATOM     69  CB  PRO B 123       7.037  28.581  46.897  1.00 24.84 LIG 0.04  C 
ATOM     70  CG  PRO B 123       5.846  29.401  46.487  1.00 25.19 LIG 0.02  C 
BRANCH 67 71
ATOM     71  C   PRO B 123       8.674  30.347  47.663  1.00 23.73 LIG 0.22  C 
ATOM     72 O    PRO B 123       8.678  31.482  48.167  1.00 24.65 LIG-0.29  OA
ENDBRANCH 67 71
ENDBRANCH 51 64
ENDBRANCH 48 51
ENDBRANCH 40 47
ENDBRANCH 3 40
TORSDOF 25
ENDMDL
MODEL 10
USER: ADFR SOLUTION from run 58
USER: SCORE 25.992677 LL:  -5.891 LR: -23.316 RR:   0.000 FEB: -15.858
USER: RMSD 12.103956
USER: SEED 57
USER: STATUS 1 or 2 clusters left
USER: GENES 27
USER: genes 0 Translation |==|  0.52529 0.31699 0.46308
USER: genes 1 Rotation |==|  0.21048 0.11077 0.38159 0.52565
USER: genes 2 Torsion [N]-C--CA-[N] |==|  0.93059
USER: genes 3 Torsion [C]-CA--N-[C] |==|  0.78884
USER: genes 4 Torsion [N]-C--CA-[N] |==|  0.22359
USER: genes 5 Torsion [C]-CA--CB-[CG2] |==|  0.25625
USER: genes 6 Torsion [CA]-CB--CG1-[CD1] |==|  0.45879
USER: genes 7 Torsion [C]-CA--N-[C] |==|  0.78333
USER: genes 8 Torsion [N]-C--CA-[N] |==|  0.61280
USER: genes 9 Torsion [C]-CA--N-[C] |==|  0.13808
USER: genes 10 Torsion [N]-C--CA-[CB] |==|  0.65812
USER: genes 11 Torsion [C]-CA--CB-[CG] |==|  0.51239
USER: genes 12 Torsion [CA]-CB--CG-[CD] |==|  0.59607
USER: genes 13 Torsion [CB]-CG--CD-[NE2] |==|  0.29387
USER: genes 14 Torsion [C]-CA--CB-[CG2] |==|  0.64542
USER: genes 15 Torsion [CA]-CB--CG1-[CD1] |==|  0.75526
USER: genes 16 Torsion [C]-N--CA-[CB] |==|  0.33786
USER: genes 17 Torsion [N]-CA--CB-[CG] |==|  0.77976
USER: genes 18 Torsion [CA]-CB--CG-[OD1] |==|  0.01244
USER: genes 19 Torsion [N]-CA--C-[N] |==|  0.33035
USER: genes 20 Torsion [C]-N--CA-[C] |==|  0.61420
USER: genes 21 Torsion [N]-CA--CB-[CG] |==|  0.61374
USER: genes 22 Torsion [CA]-CB--CG-[CD] |==|  0.83458
USER: genes 23 Torsion [CB]-CG--CD-[NE] |==|  0.23595
USER: genes 24 Torsion [CG]-CD--NE-[HE] |==|  0.06499
USER: genes 25 Torsion [N]-CA--C-[N] |==|  0.22583
USER: genes 26 Torsion [N]-CA--C-[O] |==|  0.44652
ROOT
ATOM      1  C   ILE B 120      -0.654  28.347  53.853  1.00 16.04 LIG 0.24  C 
ATOM      2 O    ILE B 120      -0.380  27.185  54.151  1.00 15.27 LIG-0.27  OA
ATOM      3  N   ASN B 121      -0.644  28.810  52.603  1.00 16.46 LIG-0.35  N 
ATOM      4 H    ASN B 121      -0.931  29.590  52.384  1.00 16.46 LIG 0.16  HD
ENDROOT
BRANCH 1 5
ATOM      5  CA  ILE B 120      -1.152  29.310  54.922  1.00 16.12 LIG 0.18  C 
BRANCH 5 6
ATOM      6  N   ILE B 120      -0.913  30.673  54.366  1.00 14.41 LIG-0.35  N 
ATOM      7 H    ILE B 120      -1.629  31.053  54.081  1.00 14.41 LIG 0.16  HD
ATOM      8  C   ILE B 119       0.282  31.256  54.311  1.00 14.21 LIG 0.24  C 
ATOM      9 O    ILE B 119       1.345  30.733  54.668  1.00 13.95 LIG-0.27  OA
BRANCH 8 10
ATOM     10  CA  ILE B 119       0.311  32.642  53.684  1.00 14.01 LIG 0.18  C 
BRANCH 10 11
ATOM     11  CB  ILE B 119       1.782  32.840  53.256  1.00 14.26 LIG 0.01  C 
ATOM     12  CG2 ILE B 119       1.991  32.392  51.817  1.00 14.00 LIG 0.01  C 
BRANCH 11 13
ATOM     13  CG1 ILE B 119       2.193  34.300  53.327  1.00 15.18 LIG 0.00  C 
ATOM     14  CD1 ILE B 119       3.695  34.492  53.265  1.00 12.51 LIG 0.01  C 
ENDBRANCH 11 13
ENDBRANCH 10 11
BRANCH 10 15
ATOM     15  N   ILE B 119      -0.130  33.603  54.711  1.00 12.55 LIG-0.35  N 
ATOM     16 H    ILE B 119       0.516  34.039  55.075  1.00 12.55 LIG 0.16  HD
ATOM     17  C   GLN B 118      -1.408  33.780  55.046  1.00 12.00 LIG 0.24  C 
ATOM     18 O    GLN B 118      -2.361  33.250  54.452  1.00 12.29 LIG-0.27  OA
BRANCH 17 19
ATOM     19  CA  GLN B 118      -1.675  34.625  56.295  1.00 10.88 LIG 0.18  C 
BRANCH 19 20
ATOM     20  N   GLN B 118      -2.759  34.033  57.080  1.00  9.13 LIG-0.35  N 
ATOM     21  C   PRO B 117      -2.750  32.733  57.397  1.00  5.97 LIG 0.25  C 
ATOM     22 O    PRO B 117      -1.895  31.953  56.973  1.00  4.88 LIG-0.27  OA
ATOM     23 H    GLN B 118      -3.378  34.583  57.309  1.00  9.13 LIG 0.16  HD
BRANCH 21 24
ATOM     24  CA  PRO B 117      -3.962  32.230  58.222  1.00  4.52 LIG 0.35  C 
ATOM     25  CB  PRO B 117      -3.516  31.585  59.529  1.00  4.68 LIG 0.05  C 
ATOM     26  CG  PRO B 117      -4.298  30.322  59.647  1.00  4.01 LIG 0.04  C 
ATOM     27  CD  PRO B 117      -4.473  29.865  58.227  1.00  3.18 LIG 0.32  C 
ATOM     28  N   PRO B 117      -4.656  31.143  57.516  1.00  3.80 LIG 0.32  N 
ENDBRANCH 21 24
ENDBRANCH 19 20
BRANCH 19 29
ATOM     29  CB  GLN B 118      -0.428  34.645  57.125  1.00 12.35 LIG 0.04  C 
BRANCH 29 30
ATOM     30  CG  GLN B 118      -0.623  35.355  58.414  1.00 13.74 LIG 0.10  C 
BRANCH 30 31
ATOM     31  CD  GLN B 118       0.600  36.068  58.804  1.00 14.95 LIG 0.21  C 
ATOM     32  NE2 GLN B 118       0.573  37.383  58.659  1.00 14.23 LIG-0.37  N 
ATOM     33 22HE GLN B 118       1.253  37.855  58.891  1.00 14.23 LIG 0.16  HD
ATOM     34 21HE GLN B 118      -0.126  37.766  58.334  1.00 14.23 LIG 0.16  HD
ATOM     35 OE1  GLN B 118       1.563  35.465  59.260  1.00 17.00 LIG-0.27  OA
ENDBRANCH 30 31
ENDBRANCH 29 30
ENDBRANCH 19 29
ENDBRANCH 17 19
ENDBRANCH 10 15
ENDBRANCH 8 10
ENDBRANCH 5 6
BRANCH 5 36
ATOM     36  CB  ILE B 120      -2.608  29.009  55.176  1.00 15.78 LIG 0.01  C 
ATOM     37  CG2 ILE B 120      -3.423  30.289  55.055  1.00 15.40 LIG 0.01  C 
BRANCH 36 38
ATOM     38  CG1 ILE B 120      -3.167  27.991  54.190  1.00 16.31 LIG 0.00  C 
ATOM     39  CD1 ILE B 120      -3.717  28.651  52.899  1.00 16.15 LIG 0.01  C 
ENDBRANCH 36 38
ENDBRANCH 5 36
ENDBRANCH 1 5
BRANCH 3 40
ATOM     40  CA  ASN B 121      -0.142  28.030  51.487  1.00 16.96 LIG 0.18  C 
BRANCH 40 41
ATOM     41  CB  ASN B 121      -1.224  27.846  50.429  1.00 15.28 LIG 0.14  C 
BRANCH 41 42
ATOM     42  CG  ASN B 121      -2.207  26.756  50.804  1.00 13.24 LIG 0.22  C 
ATOM     43 OD1  ASN B 121      -2.117  26.199  51.900  1.00 13.18 LIG-0.27  OA
ATOM     44  ND2 ASN B 121      -3.153  26.419  49.898  1.00 12.91 LIG-0.37  N 
ATOM     45 22HD ASN B 121      -3.189  26.827  49.142  1.00 12.91 LIG 0.16  HD
ATOM     46 21HD ASN B 121      -3.718  25.797  50.078  1.00 12.91 LIG 0.16  HD
ENDBRANCH 41 42
ENDBRANCH 40 41
BRANCH 40 47
ATOM     47  C   ASN B 121       1.054  28.800  50.895  1.00 17.96 LIG 0.24  C 
ATOM     48  N   ARG B 122       2.237  28.187  50.909  1.00 20.13 LIG-0.35  N 
ATOM     49 H    ARG B 122       2.361  27.437  51.310  1.00 20.13 LIG 0.16  HD
ATOM     50 O    ASN B 121       0.902  29.957  50.536  1.00 18.88 LIG-0.27  OA
BRANCH 48 51
ATOM     51  CA  ARG B 122       3.460  28.700  50.255  1.00 22.24 LIG 0.18  C 
BRANCH 51 52
ATOM     52  CB  ARG B 122       4.417  29.252  51.288  1.00 21.82 LIG 0.04  C 
BRANCH 52 53
ATOM     53  CG  ARG B 122       5.090  30.520  50.880  1.00 24.56 LIG 0.02  C 
BRANCH 53 54
ATOM     54  CD  ARG B 122       5.889  30.317  49.608  1.00 26.52 LIG 0.14  C 
BRANCH 54 55
ATOM     55  NE  ARG B 122       5.125  30.453  48.364  1.00 28.40 LIG-0.23  N 
ATOM     56  CZ  ARG B 122       5.426  29.924  47.171  1.00 28.18 LIG 0.67  C 
ATOM     57  NH2 ARG B 122       4.615  30.161  46.142  1.00 29.45 LIG-0.23  N 
ATOM     58  NH1 ARG B 122       6.525  29.198  46.960  1.00 26.03 LIG-0.23  N 
ATOM     59 1HH2 ARG B 122       3.913  30.646  46.250  1.00 29.45 LIG 0.17  HD
ATOM     60 2HH2 ARG B 122       4.794  29.829  45.368  1.00 29.45 LIG 0.17  HD
ATOM     61 1HH1 ARG B 122       7.075  29.052  47.606  1.00 26.03 LIG 0.17  HD
ATOM     62 2HH1 ARG B 122       6.684  28.875  46.179  1.00 26.03 LIG 0.17  HD
ATOM     63 HE   ARG B 122       4.405  30.922  48.405  1.00 28.40 LIG 0.18  HD
ENDBRANCH 54 55
ENDBRANCH 53 54
ENDBRANCH 52 53
ENDBRANCH 51 52
BRANCH 51 64
ATOM     64  C   ARG B 122       4.061  27.453  49.652  1.00 23.14 LIG 0.24  C 
ATOM     65 O    ARG B 122       4.937  26.851  50.265  1.00 23.63 LIG-0.27  OA
ATOM     66  N   PRO B 123       3.568  27.024  48.479  1.00 23.72 LIG-0.34  N 
ATOM     67  CA  PRO B 123       4.059  25.788  47.882  1.00 24.06 LIG 0.17  C 
ATOM     68  CD  PRO B 123       2.782  27.814  47.510  1.00 24.11 LIG 0.13  C 
ATOM     69  CB  PRO B 123       2.945  25.429  46.904  1.00 24.84 LIG 0.04  C 
ATOM     70  CG  PRO B 123       2.358  26.748  46.486  1.00 25.19 LIG 0.02  C 
BRANCH 67 71
ATOM     71  C   PRO B 123       5.401  25.976  47.132  1.00 23.73 LIG 0.22  C 
ATOM     72 O    PRO B 123       6.117  24.993  46.886  1.00 24.65 LIG-0.29  OA
ENDBRANCH 67 71
ENDBRANCH 51 64
ENDBRANCH 48 51
ENDBRANCH 40 47
ENDBRANCH 3 40
TORSDOF 25
ENDMDL
