MODEL 1
USER: ADFR SOLUTION from run 181
USER: SCORE 18.853557 LL:  -2.114 LR: -17.459 RR:   0.000 FEB: -12.090
USER: RMSD 7.772940
USER: SEED 180
USER: STATUS searching
USER: GENES 20
USER: genes 0 Translation |==|  0.51821 0.41215 0.42331
USER: genes 1 Rotation |==|  0.96354 0.35242 0.38457 0.50539
USER: genes 2 Torsion [CB]-CA--N-[C] |==|  0.88768
USER: genes 3 Torsion [N]-C--CA-[N] |==|  0.53108
USER: genes 4 Torsion [C]-CA--N-[H2] |==|  0.40849
USER: genes 5 Torsion [C]-CA--CB-[CG] |==|  0.32167
USER: genes 6 Torsion [CA]-CB--CG-[CD] |==|  0.35146
USER: genes 7 Torsion [CB]-CG--CD-[NE] |==|  0.87205
USER: genes 8 Torsion [CG]-CD--NE-[HE] |==|  0.05296
USER: genes 9 Torsion [N]-CA--CB-[CG1] |==|  0.70915
USER: genes 10 Torsion [CA]-CB--CG1-[CD1] |==|  0.45419
USER: genes 11 Torsion [N]-CA--C-[N] |==|  0.88994
USER: genes 12 Torsion [C]-N--CA-[CB] |==|  0.86060
USER: genes 13 Torsion [N]-CA--CB-[CG] |==|  0.57167
USER: genes 14 Torsion [CA]-CB--CG-[CD1] |==|  0.97908
USER: genes 15 Torsion [N]-CA--C-[N] |==|  0.85556
USER: genes 16 Torsion [C]-N--CA-[C] |==|  0.15451
USER: genes 17 Torsion [N]-CA--CB-[OG] |==|  0.58134
USER: genes 18 Torsion [CA]-CB--OG-[HG] |==|  0.56464
USER: genes 19 Torsion [N]-CA--C-[O] |==|  0.10175
ROOT
ATOM      1  CA  ILE B   2      16.661   0.951   6.629  1.00 20.94 LIG 0.18  C 
ENDROOT
BRANCH 1 2
ATOM      2  N   ILE B   2      15.313   1.291   7.085  1.00 18.61 LIG-0.35  N 
ATOM      3  C   ARG B   1      14.839   0.834   8.243  1.00 17.10 LIG 0.25  C 
ATOM      4 O    ARG B   1      15.469   0.055   8.959  1.00 15.59 LIG-0.27  OA
ATOM      5 H    ILE B   2      14.871   1.797   6.549  1.00 18.61 LIG 0.16  HD
BRANCH 3 6
ATOM      6  CA  ARG B   1      13.460   1.345   8.658  1.00 16.65 LIG 0.27  C 
BRANCH 6 7
ATOM      7  N   ARG B   1      13.195   0.966  10.073  1.00 15.45 LIG-0.07  N 
ATOM      8 H2   ARG B   1      12.700   1.596  10.461  1.00 15.45 LIG 0.28  HD
ATOM      9 H1   ARG B   1      13.967   0.886  10.508  1.00 15.45 LIG 0.28  HD
ATOM     10 H3   ARG B   1      12.760   0.190  10.097  1.00 15.45 LIG 0.28  HD
ENDBRANCH 6 7
BRANCH 6 11
ATOM     11  CB  ARG B   1      13.394   2.874   8.477  1.00 15.91 LIG 0.04  C 
BRANCH 11 12
ATOM     12  CG  ARG B   1      12.383   3.370   7.428  1.00 15.51 LIG 0.02  C 
BRANCH 12 13
ATOM     13  CD  ARG B   1      11.430   4.412   8.012  1.00 16.55 LIG 0.14  C 
BRANCH 13 14
ATOM     14  NE  ARG B   1      10.914   3.982   9.313  1.00 17.87 LIG-0.23  N 
ATOM     15  CZ  ARG B   1       9.822   4.465   9.902  1.00 16.76 LIG 0.67  C 
ATOM     16  NH1 ARG B   1       9.092   5.429   9.337  1.00 17.21 LIG-0.23  N 
ATOM     17  NH2 ARG B   1       9.447   3.966  11.079  1.00 19.77 LIG-0.23  N 
ATOM     18 1HH1 ARG B   1       9.322   5.753   8.575  1.00 17.21 LIG 0.17  HD
ATOM     19 2HH1 ARG B   1       8.390   5.726   9.737  1.00 17.21 LIG 0.17  HD
ATOM     20 1HH2 ARG B   1       9.908   3.341  11.448  1.00 19.77 LIG 0.17  HD
ATOM     21 2HH2 ARG B   1       8.744   4.269  11.471  1.00 19.77 LIG 0.17  HD
ATOM     22 HE   ARG B   1      11.351   3.369   9.729  1.00 17.87 LIG 0.18  HD
ENDBRANCH 13 14
ENDBRANCH 12 13
ENDBRANCH 11 12
ENDBRANCH 6 11
ENDBRANCH 3 6
ENDBRANCH 1 2
BRANCH 1 23
ATOM     23  CB  ILE B   2      17.674   0.981   7.800  1.00 21.16 LIG 0.01  C 
ATOM     24  CG2 ILE B   2      18.547  -0.278   7.802  1.00 22.94 LIG 0.01  C 
BRANCH 23 25
ATOM     25  CG1 ILE B   2      18.540   2.250   7.708  1.00 22.14 LIG 0.00  C 
ATOM     26  CD1 ILE B   2      19.309   2.622   8.995  1.00 22.60 LIG 0.01  C 
ENDBRANCH 23 25
ENDBRANCH 1 23
BRANCH 1 27
ATOM     27  C   ILE B   2      16.636  -0.404   5.911  1.00 21.53 LIG 0.24  C 
ATOM     28 O    ILE B   2      17.340  -0.586   4.915  1.00 21.64 LIG-0.27  OA
ATOM     29  N   PHE B   3      15.858  -1.359   6.434  1.00 22.69 LIG-0.35  N 
ATOM     30 H    PHE B   3      15.363  -1.248   7.129  1.00 22.69 LIG 0.16  HD
BRANCH 29 31
ATOM     31  CA  PHE B   3      15.787  -2.701   5.848  1.00 23.79 LIG 0.18  C 
BRANCH 31 32
ATOM     32  CB  PHE B   3      15.529  -2.634   4.342  1.00 24.86 LIG 0.07  C 
BRANCH 32 33
ATOM     33  CG  PHE B   3      14.852  -3.862   3.790  1.00 25.20 LIG-0.06  A 
ATOM     34  CD1 PHE B   3      14.661  -4.982   4.593  1.00 28.30 LIG 0.01  A 
ATOM     35  CE1 PHE B   3      14.027  -6.119   4.091  1.00 27.60 LIG 0.00  A 
ATOM     36  CZ  PHE B   3      13.572  -6.146   2.774  1.00 28.67 LIG 0.00  A 
ATOM     37  CE2 PHE B   3      13.746  -5.027   1.954  1.00 27.98 LIG 0.00  A 
ATOM     38  CD2 PHE B   3      14.388  -3.890   2.469  1.00 26.62 LIG 0.01  A 
ENDBRANCH 32 33
ENDBRANCH 31 32
BRANCH 31 39
ATOM     39  C   PHE B   3      17.049  -3.517   6.125  1.00 24.64 LIG 0.24  C 
ATOM     40 O    PHE B   3      16.975  -4.643   6.609  1.00 24.93 LIG-0.27  OA
ATOM     41  N   SER B   4      18.198  -2.932   5.807  1.00 25.11 LIG-0.34  N 
ATOM     42 H    SER B   4      18.263  -2.135   5.490  1.00 25.11 LIG 0.16  HD
BRANCH 41 43
ATOM     43  CA  SER B   4      19.469  -3.621   5.977  1.00 25.84 LIG 0.19  C 
BRANCH 43 44
ATOM     44  CB  SER B   4      19.751  -3.855   7.463  1.00 26.02 LIG 0.20  C 
BRANCH 44 45
ATOM     45 OG   SER B   4      21.147  -3.879   7.714  1.00 27.92 LIG-0.40  OA
ATOM     46 HG   SER B   4      21.298  -4.307   8.421  1.00 27.92 LIG 0.21  HD
ENDBRANCH 44 45
ENDBRANCH 43 44
BRANCH 43 47
ATOM     47  C   SER B   4      19.451  -4.944   5.226  1.00 25.91 LIG 0.22  C 
ATOM     48 O    SER B   4      18.879  -5.044   4.148  1.00 25.66 LIG-0.29  OA
ENDBRANCH 43 47
ENDBRANCH 41 43
ENDBRANCH 31 39
ENDBRANCH 29 31
ENDBRANCH 1 27
TORSDOF 18
ENDMDL
MODEL 2
USER: ADFR SOLUTION from run 86
USER: SCORE 17.896383 LL:  -2.515 LR: -17.424 RR:   0.000 FEB: -12.055
USER: RMSD 7.171435
USER: SEED 85
USER: STATUS no improvement in best in 5 clusters for 5 generations
USER: GENES 20
USER: genes 0 Translation |==|  0.50027 0.31287 0.45515
USER: genes 1 Rotation |==|  0.10296 0.70425 0.57947 0.71053
USER: genes 2 Torsion [CB]-CA--N-[C] |==|  0.17857
USER: genes 3 Torsion [N]-C--CA-[N] |==|  0.35014
USER: genes 4 Torsion [C]-CA--N-[H2] |==|  0.11264
USER: genes 5 Torsion [C]-CA--CB-[CG] |==|  0.39315
USER: genes 6 Torsion [CA]-CB--CG-[CD] |==|  0.31682
USER: genes 7 Torsion [CB]-CG--CD-[NE] |==|  0.78517
USER: genes 8 Torsion [CG]-CD--NE-[HE] |==|  0.13147
USER: genes 9 Torsion [N]-CA--CB-[CG1] |==|  0.64793
USER: genes 10 Torsion [CA]-CB--CG1-[CD1] |==|  0.63645
USER: genes 11 Torsion [N]-CA--C-[N] |==|  0.44919
USER: genes 12 Torsion [C]-N--CA-[CB] |==|  0.50121
USER: genes 13 Torsion [N]-CA--CB-[CG] |==|  0.08876
USER: genes 14 Torsion [CA]-CB--CG-[CD1] |==|  0.21803
USER: genes 15 Torsion [N]-CA--C-[N] |==|  0.22631
USER: genes 16 Torsion [C]-N--CA-[C] |==|  0.13574
USER: genes 17 Torsion [N]-CA--CB-[OG] |==|  0.81751
USER: genes 18 Torsion [CA]-CB--OG-[HG] |==|  0.02090
USER: genes 19 Torsion [N]-CA--C-[O] |==|  0.50301
ROOT
ATOM      1  CA  ILE B   2      16.204  -0.762   7.131  1.00 20.94 LIG 0.18  C 
ENDROOT
BRANCH 1 2
ATOM      2  N   ILE B   2      14.984  -0.055   7.525  1.00 18.61 LIG-0.35  N 
ATOM      3  C   ARG B   1      14.907   0.597   8.683  1.00 17.10 LIG 0.25  C 
ATOM      4 O    ARG B   1      15.818   0.591   9.512  1.00 15.59 LIG-0.27  OA
ATOM      5 H    ILE B   2      14.344  -0.102   6.953  1.00 18.61 LIG 0.16  HD
BRANCH 3 6
ATOM      6  CA  ARG B   1      13.621   1.383   8.932  1.00 16.65 LIG 0.27  C 
BRANCH 6 7
ATOM      7  N   ARG B   1      13.027   0.966  10.232  1.00 15.45 LIG-0.07  N 
ATOM      8 H2   ARG B   1      13.675   0.860  10.833  1.00 15.45 LIG 0.28  HD
ATOM      9 H1   ARG B   1      12.591   0.198  10.126  1.00 15.45 LIG 0.28  HD
ATOM     10 H3   ARG B   1      12.461   1.592  10.515  1.00 15.45 LIG 0.28  HD
ENDBRANCH 6 7
BRANCH 6 11
ATOM     11  CB  ARG B   1      13.923   2.894   8.926  1.00 15.91 LIG 0.04  C 
BRANCH 11 12
ATOM     12  CG  ARG B   1      12.853   3.779   8.262  1.00 15.51 LIG 0.02  C 
BRANCH 12 13
ATOM     13  CD  ARG B   1      12.174   4.699   9.276  1.00 16.55 LIG 0.14  C 
BRANCH 13 14
ATOM     14  NE  ARG B   1      11.192   3.966  10.076  1.00 17.87 LIG-0.23  N 
ATOM     15  CZ  ARG B   1       9.950   4.374  10.328  1.00 16.76 LIG 0.67  C 
ATOM     16  NH1 ARG B   1       9.489   5.538   9.864  1.00 17.21 LIG-0.23  N 
ATOM     17  NH2 ARG B   1       9.147   3.596  11.053  1.00 19.77 LIG-0.23  N 
ATOM     18 1HH1 ARG B   1       9.997   6.044   9.390  1.00 17.21 LIG 0.17  HD
ATOM     19 2HH1 ARG B   1       8.683   5.780  10.039  1.00 17.21 LIG 0.17  HD
ATOM     20 1HH2 ARG B   1       9.433   2.842  11.352  1.00 19.77 LIG 0.17  HD
ATOM     21 2HH2 ARG B   1       8.342   3.847  11.223  1.00 19.77 LIG 0.17  HD
ATOM     22 HE   ARG B   1      11.437   3.213  10.411  1.00 17.87 LIG 0.18  HD
ENDBRANCH 13 14
ENDBRANCH 12 13
ENDBRANCH 11 12
ENDBRANCH 6 11
ENDBRANCH 3 6
ENDBRANCH 1 2
BRANCH 1 23
ATOM     23  CB  ILE B   2      16.508  -1.936   8.093  1.00 21.16 LIG 0.01  C 
ATOM     24  CG2 ILE B   2      16.296  -3.284   7.397  1.00 22.94 LIG 0.01  C 
BRANCH 23 25
ATOM     25  CG1 ILE B   2      17.948  -1.814   8.626  1.00 22.14 LIG 0.00  C 
ATOM     26  CD1 ILE B   2      18.800  -3.098   8.532  1.00 22.60 LIG 0.01  C 
ENDBRANCH 23 25
ENDBRANCH 1 23
BRANCH 1 27
ATOM     27  C   ILE B   2      16.087  -1.217   5.670  1.00 21.53 LIG 0.24  C 
ATOM     28 O    ILE B   2      14.984  -1.245   5.122  1.00 21.64 LIG-0.27  OA
ATOM     29  N   PHE B   3      17.222  -1.535   5.037  1.00 22.69 LIG-0.35  N 
ATOM     30 H    PHE B   3      17.999  -1.518   5.405  1.00 22.69 LIG 0.16  HD
BRANCH 29 31
ATOM     31  CA  PHE B   3      17.228  -1.947   3.630  1.00 23.79 LIG 0.18  C 
BRANCH 31 32
ATOM     32  CB  PHE B   3      18.646  -2.264   3.151  1.00 24.86 LIG 0.07  C 
BRANCH 32 33
ATOM     33  CG  PHE B   3      19.536  -2.826   4.229  1.00 25.20 LIG-0.06  A 
ATOM     34  CD1 PHE B   3      19.432  -4.162   4.604  1.00 28.30 LIG 0.01  A 
ATOM     35  CE1 PHE B   3      20.259  -4.691   5.595  1.00 27.60 LIG 0.00  A 
ATOM     36  CZ  PHE B   3      21.206  -3.885   6.223  1.00 28.67 LIG 0.00  A 
ATOM     37  CE2 PHE B   3      21.334  -2.542   5.854  1.00 27.98 LIG 0.00  A 
ATOM     38  CD2 PHE B   3      20.493  -2.020   4.858  1.00 26.62 LIG 0.01  A 
ENDBRANCH 32 33
ENDBRANCH 31 32
BRANCH 31 39
ATOM     39  C   PHE B   3      16.313  -3.146   3.379  1.00 24.64 LIG 0.24  C 
ATOM     40 O    PHE B   3      16.772  -4.284   3.320  1.00 24.93 LIG-0.27  OA
ATOM     41  N   SER B   4      15.022  -2.870   3.236  1.00 25.11 LIG-0.34  N 
ATOM     42 H    SER B   4      14.694  -2.075   3.251  1.00 25.11 LIG 0.16  HD
BRANCH 41 43
ATOM     43  CA  SER B   4      14.041  -3.926   3.039  1.00 25.84 LIG 0.19  C 
BRANCH 43 44
ATOM     44  CB  SER B   4      14.156  -4.500   1.625  1.00 26.02 LIG 0.20  C 
BRANCH 44 45
ATOM     45 OG   SER B   4      13.802  -3.526   0.656  1.00 27.92 LIG-0.40  OA
ATOM     46 HG   SER B   4      13.694  -2.782   1.031  1.00 27.92 LIG 0.21  HD
ENDBRANCH 44 45
ENDBRANCH 43 44
BRANCH 43 47
ATOM     47  C   SER B   4      14.240  -5.024   4.074  1.00 25.91 LIG 0.22  C 
ATOM     48 O    SER B   4      13.529  -6.020   4.075  1.00 25.66 LIG-0.29  OA
ENDBRANCH 43 47
ENDBRANCH 41 43
ENDBRANCH 31 39
ENDBRANCH 29 31
ENDBRANCH 1 27
TORSDOF 18
ENDMDL
MODEL 3
USER: ADFR SOLUTION from run 102
USER: SCORE 18.158015 LL:  -1.926 LR: -17.114 RR:   0.000 FEB: -11.744
USER: RMSD 7.824841
USER: SEED 101
USER: STATUS no improvement in best in 7 clusters for 5 generations
USER: GENES 20
USER: genes 0 Translation |==|  0.52141 0.33178 0.47160
USER: genes 1 Rotation |==|  0.08357 0.65731 0.55898 0.71990
USER: genes 2 Torsion [CB]-CA--N-[C] |==|  0.15867
USER: genes 3 Torsion [N]-C--CA-[N] |==|  0.41249
USER: genes 4 Torsion [C]-CA--N-[H2] |==|  0.07028
USER: genes 5 Torsion [C]-CA--CB-[CG] |==|  0.39215
USER: genes 6 Torsion [CA]-CB--CG-[CD] |==|  0.33623
USER: genes 7 Torsion [CB]-CG--CD-[NE] |==|  0.82164
USER: genes 8 Torsion [CG]-CD--NE-[HE] |==|  0.07354
USER: genes 9 Torsion [N]-CA--CB-[CG1] |==|  0.56761
USER: genes 10 Torsion [CA]-CB--CG1-[CD1] |==|  0.69937
USER: genes 11 Torsion [N]-CA--C-[N] |==|  0.00319
USER: genes 12 Torsion [C]-N--CA-[CB] |==|  0.87014
USER: genes 13 Torsion [N]-CA--CB-[CG] |==|  0.69852
USER: genes 14 Torsion [CA]-CB--CG-[CD1] |==|  0.82760
USER: genes 15 Torsion [N]-CA--C-[N] |==|  0.36545
USER: genes 16 Torsion [C]-N--CA-[C] |==|  0.54309
USER: genes 17 Torsion [N]-CA--CB-[OG] |==|  0.78891
USER: genes 18 Torsion [CA]-CB--OG-[HG] |==|  0.64818
USER: genes 19 Torsion [N]-CA--C-[O] |==|  0.93217
ROOT
ATOM      1  CA  ILE B   2      16.743  -0.436   7.390  1.00 20.94 LIG 0.18  C 
ENDROOT
BRANCH 1 2
ATOM      2  N   ILE B   2      15.388   0.091   7.557  1.00 18.61 LIG-0.35  N 
ATOM      3  C   ARG B   1      14.980   0.593   8.721  1.00 17.10 LIG 0.25  C 
ATOM      4 O    ARG B   1      15.683   0.585   9.732  1.00 15.59 LIG-0.27  OA
ATOM      5 H    ILE B   2      14.897   0.045   6.853  1.00 18.61 LIG 0.16  HD
BRANCH 3 6
ATOM      6  CA  ARG B   1      13.582   1.208   8.740  1.00 16.65 LIG 0.27  C 
BRANCH 6 7
ATOM      7  N   ARG B   1      12.975   1.023  10.087  1.00 15.45 LIG-0.07  N 
ATOM      8 H2   ARG B   1      13.621   0.942  10.694  1.00 15.45 LIG 0.28  HD
ATOM      9 H1   ARG B   1      12.473   0.289  10.087  1.00 15.45 LIG 0.28  HD
ATOM     10 H3   ARG B   1      12.469   1.728  10.285  1.00 15.45 LIG 0.28  HD
ENDBRANCH 6 7
BRANCH 6 11
ATOM     11  CB  ARG B   1      13.665   2.703   8.376  1.00 15.91 LIG 0.04  C 
BRANCH 11 12
ATOM     12  CG  ARG B   1      12.526   3.229   7.484  1.00 15.51 LIG 0.02  C 
BRANCH 12 13
ATOM     13  CD  ARG B   1      11.761   4.367   8.158  1.00 16.55 LIG 0.14  C 
BRANCH 13 14
ATOM     14  NE  ARG B   1      11.081   3.900   9.368  1.00 17.87 LIG-0.23  N 
ATOM     15  CZ  ARG B   1       9.984   4.444   9.889  1.00 16.76 LIG 0.67  C 
ATOM     16  NH1 ARG B   1       9.402   5.511   9.337  1.00 17.21 LIG-0.23  N 
ATOM     17  NH2 ARG B   1       9.450   3.903  10.984  1.00 19.77 LIG-0.23  N 
ATOM     18 1HH1 ARG B   1       9.736   5.863   8.627  1.00 17.21 LIG 0.17  HD
ATOM     19 2HH1 ARG B   1       8.694   5.846   9.691  1.00 17.21 LIG 0.17  HD
ATOM     20 1HH2 ARG B   1       9.814   3.212  11.344  1.00 19.77 LIG 0.17  HD
ATOM     21 2HH2 ARG B   1       8.741   4.245  11.331  1.00 19.77 LIG 0.17  HD
ATOM     22 HE   ARG B   1      11.418   3.220   9.774  1.00 17.87 LIG 0.18  HD
ENDBRANCH 13 14
ENDBRANCH 12 13
ENDBRANCH 11 12
ENDBRANCH 6 11
ENDBRANCH 3 6
ENDBRANCH 1 2
BRANCH 1 23
ATOM     23  CB  ILE B   2      17.038  -1.561   8.411  1.00 21.16 LIG 0.01  C 
ATOM     24  CG2 ILE B   2      16.459  -2.898   7.938  1.00 22.94 LIG 0.01  C 
BRANCH 23 25
ATOM     25  CG1 ILE B   2      18.556  -1.671   8.642  1.00 22.14 LIG 0.00  C 
ATOM     26  CD1 ILE B   2      19.230  -2.921   8.033  1.00 22.60 LIG 0.01  C 
ENDBRANCH 23 25
ENDBRANCH 1 23
BRANCH 1 27
ATOM     27  C   ILE B   2      16.942  -0.894   5.939  1.00 21.53 LIG 0.24  C 
ATOM     28 O    ILE B   2      18.004  -1.421   5.602  1.00 21.64 LIG-0.27  OA
ATOM     29  N   PHE B   3      15.914  -0.727   5.099  1.00 22.69 LIG-0.35  N 
ATOM     30 H    PHE B   3      15.166  -0.363   5.321  1.00 22.69 LIG 0.16  HD
BRANCH 29 31
ATOM     31  CA  PHE B   3      15.985  -1.162   3.701  1.00 23.79 LIG 0.18  C 
BRANCH 31 32
ATOM     32  CB  PHE B   3      17.294  -0.718   3.048  1.00 24.86 LIG 0.07  C 
BRANCH 32 33
ATOM     33  CG  PHE B   3      17.121   0.387   2.037  1.00 25.20 LIG-0.06  A 
ATOM     34  CD1 PHE B   3      16.350   0.184   0.897  1.00 28.30 LIG 0.01  A 
ATOM     35  CE1 PHE B   3      16.179   1.205  -0.038  1.00 27.60 LIG 0.00  A 
ATOM     36  CZ  PHE B   3      16.778   2.447   0.160  1.00 28.67 LIG 0.00  A 
ATOM     37  CE2 PHE B   3      17.548   2.674   1.305  1.00 27.98 LIG 0.00  A 
ATOM     38  CD2 PHE B   3      17.717   1.638   2.237  1.00 26.62 LIG 0.01  A 
ENDBRANCH 32 33
ENDBRANCH 31 32
BRANCH 31 39
ATOM     39  C   PHE B   3      15.820  -2.675   3.561  1.00 24.64 LIG 0.24  C 
ATOM     40 O    PHE B   3      16.465  -3.445   4.268  1.00 24.93 LIG-0.27  OA
ATOM     41  N   SER B   4      14.949  -3.081   2.644  1.00 25.11 LIG-0.34  N 
ATOM     42 H    SER B   4      14.511  -2.551   2.127  1.00 25.11 LIG 0.16  HD
BRANCH 41 43
ATOM     43  CA  SER B   4      14.666  -4.495   2.444  1.00 25.84 LIG 0.19  C 
BRANCH 43 44
ATOM     44  CB  SER B   4      13.816  -5.034   3.597  1.00 26.02 LIG 0.20  C 
BRANCH 44 45
ATOM     45 OG   SER B   4      14.607  -5.227   4.758  1.00 27.92 LIG-0.40  OA
ATOM     46 HG   SER B   4      14.509  -6.013   5.037  1.00 27.92 LIG 0.21  HD
ENDBRANCH 44 45
ENDBRANCH 43 44
BRANCH 43 47
ATOM     47  C   SER B   4      13.951  -4.701   1.116  1.00 25.91 LIG 0.22  C 
ATOM     48 O    SER B   4      13.308  -3.794   0.604  1.00 25.66 LIG-0.29  OA
ENDBRANCH 43 47
ENDBRANCH 41 43
ENDBRANCH 31 39
ENDBRANCH 29 31
ENDBRANCH 1 27
TORSDOF 18
ENDMDL
MODEL 4
USER: ADFR SOLUTION from run 152
USER: SCORE 19.190687 LL:  -2.572 LR: -16.982 RR:   0.000 FEB: -11.612
USER: RMSD 8.195535
USER: SEED 151
USER: STATUS no improvement in best in 1 clusters for 5 generations
USER: GENES 20
USER: genes 0 Translation |==|  0.51088 0.30900 0.47761
USER: genes 1 Rotation |==|  0.08733 0.68818 0.55668 0.70268
USER: genes 2 Torsion [CB]-CA--N-[C] |==|  0.18109
USER: genes 3 Torsion [N]-C--CA-[N] |==|  0.35096
USER: genes 4 Torsion [C]-CA--N-[H2] |==|  0.43442
USER: genes 5 Torsion [C]-CA--CB-[CG] |==|  0.42851
USER: genes 6 Torsion [CA]-CB--CG-[CD] |==|  0.32071
USER: genes 7 Torsion [CB]-CG--CD-[NE] |==|  0.77247
USER: genes 8 Torsion [CG]-CD--NE-[HE] |==|  0.14121
USER: genes 9 Torsion [N]-CA--CB-[CG1] |==|  0.60671
USER: genes 10 Torsion [CA]-CB--CG1-[CD1] |==|  0.69109
USER: genes 11 Torsion [N]-CA--C-[N] |==|  0.02253
USER: genes 12 Torsion [C]-N--CA-[CB] |==|  0.84211
USER: genes 13 Torsion [N]-CA--CB-[CG] |==|  0.35712
USER: genes 14 Torsion [CA]-CB--CG-[CD1] |==|  0.74671
USER: genes 15 Torsion [N]-CA--C-[N] |==|  0.39676
USER: genes 16 Torsion [C]-N--CA-[C] |==|  0.51866
USER: genes 17 Torsion [N]-CA--CB-[OG] |==|  0.70655
USER: genes 18 Torsion [CA]-CB--OG-[HG] |==|  0.13561
USER: genes 19 Torsion [N]-CA--C-[O] |==|  0.01084
ROOT
ATOM      1  CA  ILE B   2      16.474  -0.829   7.484  1.00 20.94 LIG 0.18  C 
ENDROOT
BRANCH 1 2
ATOM      2  N   ILE B   2      15.195  -0.152   7.703  1.00 18.61 LIG-0.35  N 
ATOM      3  C   ARG B   1      14.985   0.597   8.784  1.00 17.10 LIG 0.25  C 
ATOM      4 O    ARG B   1      15.816   0.711   9.686  1.00 15.59 LIG-0.27  OA
ATOM      5 H    ILE B   2      14.612  -0.282   7.085  1.00 18.61 LIG 0.16  HD
BRANCH 3 6
ATOM      6  CA  ARG B   1      13.650   1.336   8.846  1.00 16.65 LIG 0.27  C 
BRANCH 6 7
ATOM      7  N   ARG B   1      12.962   1.013  10.126  1.00 15.45 LIG-0.07  N 
ATOM      8 H2   ARG B   1      12.389   1.664  10.327  1.00 15.45 LIG 0.28  HD
ATOM      9 H1   ARG B   1      13.565   0.937  10.776  1.00 15.45 LIG 0.28  HD
ATOM     10 H3   ARG B   1      12.520   0.245  10.041  1.00 15.45 LIG 0.28  HD
ENDBRANCH 6 7
BRANCH 6 11
ATOM     11  CB  ARG B   1      13.887   2.853   8.717  1.00 15.91 LIG 0.04  C 
BRANCH 11 12
ATOM     12  CG  ARG B   1      12.704   3.660   8.154  1.00 15.51 LIG 0.02  C 
BRANCH 12 13
ATOM     13  CD  ARG B   1      12.147   4.641   9.185  1.00 16.55 LIG 0.14  C 
BRANCH 13 14
ATOM     14  NE  ARG B   1      11.230   3.970  10.108  1.00 17.87 LIG-0.23  N 
ATOM     15  CZ  ARG B   1      10.002   4.388  10.407  1.00 16.76 LIG 0.67  C 
ATOM     16  NH1 ARG B   1       9.496   5.506   9.880  1.00 17.21 LIG-0.23  N 
ATOM     17  NH2 ARG B   1       9.258   3.667  11.246  1.00 19.77 LIG-0.23  N 
ATOM     18 1HH1 ARG B   1       9.966   5.974   9.334  1.00 17.21 LIG 0.17  HD
ATOM     19 2HH1 ARG B   1       8.700   5.756  10.088  1.00 17.21 LIG 0.17  HD
ATOM     20 1HH2 ARG B   1       9.573   2.942  11.586  1.00 19.77 LIG 0.17  HD
ATOM     21 2HH2 ARG B   1       8.463   3.926  11.448  1.00 19.77 LIG 0.17  HD
ATOM     22 HE   ARG B   1      11.506   3.249  10.486  1.00 17.87 LIG 0.18  HD
ENDBRANCH 13 14
ENDBRANCH 12 13
ENDBRANCH 11 12
ENDBRANCH 6 11
ENDBRANCH 3 6
ENDBRANCH 1 2
BRANCH 1 23
ATOM     23  CB  ILE B   2      16.729  -1.911   8.562  1.00 21.16 LIG 0.01  C 
ATOM     24  CG2 ILE B   2      16.287  -3.291   8.068  1.00 22.94 LIG 0.01  C 
BRANCH 23 25
ATOM     25  CG1 ILE B   2      18.218  -1.918   8.952  1.00 22.14 LIG 0.00  C 
ATOM     26  CD1 ILE B   2      19.012  -3.169   8.514  1.00 22.60 LIG 0.01  C 
ENDBRANCH 23 25
ENDBRANCH 1 23
BRANCH 1 27
ATOM     27  C   ILE B   2      16.519  -1.398   6.061  1.00 21.53 LIG 0.24  C 
ATOM     28 O    ILE B   2      17.430  -2.160   5.732  1.00 21.64 LIG-0.27  OA
ATOM     29  N   PHE B   3      15.522  -1.058   5.235  1.00 22.69 LIG-0.35  N 
ATOM     30 H    PHE B   3      14.879  -0.530   5.451  1.00 22.69 LIG 0.16  HD
BRANCH 29 31
ATOM     31  CA  PHE B   3      15.449  -1.574   3.865  1.00 23.79 LIG 0.18  C 
BRANCH 31 32
ATOM     32  CB  PHE B   3      16.716  -1.238   3.078  1.00 24.86 LIG 0.07  C 
BRANCH 32 33
ATOM     33  CG  PHE B   3      17.341  -2.431   2.401  1.00 25.20 LIG-0.06  A 
ATOM     34  CD1 PHE B   3      18.314  -3.181   3.053  1.00 28.30 LIG 0.01  A 
ATOM     35  CE1 PHE B   3      18.890  -4.291   2.435  1.00 27.60 LIG 0.00  A 
ATOM     36  CZ  PHE B   3      18.495  -4.666   1.153  1.00 28.67 LIG 0.00  A 
ATOM     37  CE2 PHE B   3      17.511  -3.930   0.484  1.00 27.98 LIG 0.00  A 
ATOM     38  CD2 PHE B   3      16.941  -2.813   1.114  1.00 26.62 LIG 0.01  A 
ENDBRANCH 32 33
ENDBRANCH 31 32
BRANCH 31 39
ATOM     39  C   PHE B   3      15.199  -3.082   3.831  1.00 24.64 LIG 0.24  C 
ATOM     40 O    PHE B   3      15.713  -3.822   4.666  1.00 24.93 LIG-0.27  OA
ATOM     41  N   SER B   4      14.404  -3.516   2.860  1.00 25.11 LIG-0.34  N 
ATOM     42 H    SER B   4      14.059  -3.010   2.256  1.00 25.11 LIG 0.16  HD
BRANCH 41 43
ATOM     43  CA  SER B   4      14.050  -4.923   2.745  1.00 25.84 LIG 0.19  C 
BRANCH 43 44
ATOM     44  CB  SER B   4      13.226  -5.363   3.958  1.00 26.02 LIG 0.20  C 
BRANCH 44 45
ATOM     45 OG   SER B   4      14.007  -6.159   4.835  1.00 27.92 LIG-0.40  OA
ATOM     46 HG   SER B   4      14.740  -5.777   4.983  1.00 27.92 LIG 0.21  HD
ENDBRANCH 44 45
ENDBRANCH 43 44
BRANCH 43 47
ATOM     47  C   SER B   4      13.272  -5.163   1.460  1.00 25.91 LIG 0.22  C 
ATOM     48 O    SER B   4      13.089  -4.254   0.661  1.00 25.66 LIG-0.29  OA
ENDBRANCH 43 47
ENDBRANCH 41 43
ENDBRANCH 31 39
ENDBRANCH 29 31
ENDBRANCH 1 27
TORSDOF 18
ENDMDL
MODEL 5
USER: ADFR SOLUTION from run 44
USER: SCORE 18.045567 LL:  -2.800 LR: -16.879 RR:   0.000 FEB: -11.510
USER: RMSD 7.377439
USER: SEED 43
USER: STATUS no improvement in best in 1 clusters for 5 generations
USER: GENES 20
USER: genes 0 Translation |==|  0.51645 0.40657 0.46145
USER: genes 1 Rotation |==|  0.05020 0.60993 0.61776 0.64739
USER: genes 2 Torsion [CB]-CA--N-[C] |==|  0.17292
USER: genes 3 Torsion [N]-C--CA-[N] |==|  0.32419
USER: genes 4 Torsion [C]-CA--N-[H2] |==|  0.37339
USER: genes 5 Torsion [C]-CA--CB-[CG] |==|  0.29970
USER: genes 6 Torsion [CA]-CB--CG-[CD] |==|  0.16429
USER: genes 7 Torsion [CB]-CG--CD-[NE] |==|  0.33990
USER: genes 8 Torsion [CG]-CD--NE-[HE] |==|  0.27333
USER: genes 9 Torsion [N]-CA--CB-[CG1] |==|  0.44802
USER: genes 10 Torsion [CA]-CB--CG1-[CD1] |==|  0.58407
USER: genes 11 Torsion [N]-CA--C-[N] |==|  0.92222
USER: genes 12 Torsion [C]-N--CA-[CB] |==|  0.15319
USER: genes 13 Torsion [N]-CA--CB-[CG] |==|  0.14066
USER: genes 14 Torsion [CA]-CB--CG-[CD1] |==|  0.01202
USER: genes 15 Torsion [N]-CA--C-[N] |==|  0.58488
USER: genes 16 Torsion [C]-N--CA-[C] |==|  0.67412
USER: genes 17 Torsion [N]-CA--CB-[OG] |==|  0.93880
USER: genes 18 Torsion [CA]-CB--OG-[HG] |==|  0.88425
USER: genes 19 Torsion [N]-CA--C-[O] |==|  0.29049
ROOT
ATOM      1  CA  ILE B   2      16.617   0.854   7.230  1.00 20.94 LIG 0.18  C 
ENDROOT
BRANCH 1 2
ATOM      2  N   ILE B   2      15.204   0.958   7.598  1.00 18.61 LIG-0.35  N 
ATOM      3  C   ARG B   1      14.817   1.650   8.668  1.00 17.10 LIG 0.25  C 
ATOM      4 O    ARG B   1      15.616   2.181   9.441  1.00 15.59 LIG-0.27  OA
ATOM      5 H    ILE B   2      14.666   0.542   7.072  1.00 18.61 LIG 0.16  HD
BRANCH 3 6
ATOM      6  CA  ARG B   1      13.310   1.773   8.887  1.00 16.65 LIG 0.27  C 
BRANCH 6 7
ATOM      7  N   ARG B   1      12.937   1.103  10.162  1.00 15.45 LIG-0.07  N 
ATOM      8 H2   ARG B   1      12.385   1.628  10.622  1.00 15.45 LIG 0.28  HD
ATOM      9 H1   ARG B   1      13.669   0.950  10.642  1.00 15.45 LIG 0.28  HD
ATOM     10 H3   ARG B   1      12.531   0.331   9.985  1.00 15.45 LIG 0.28  HD
ENDBRANCH 6 7
BRANCH 6 11
ATOM     11  CB  ARG B   1      12.906   3.260   8.908  1.00 15.91 LIG 0.04  C 
BRANCH 11 12
ATOM     12  CG  ARG B   1      12.133   3.751   7.671  1.00 15.51 LIG 0.02  C 
BRANCH 12 13
ATOM     13  CD  ARG B   1      10.835   2.970   7.470  1.00 16.55 LIG 0.14  C 
BRANCH 13 14
ATOM     14  NE  ARG B   1       9.678   3.867   7.462  1.00 17.87 LIG-0.23  N 
ATOM     15  CZ  ARG B   1       9.072   4.345   8.547  1.00 16.76 LIG 0.67  C 
ATOM     16  NH1 ARG B   1       9.479   4.020   9.776  1.00 17.21 LIG-0.23  N 
ATOM     17  NH2 ARG B   1       8.040   5.176   8.399  1.00 19.77 LIG-0.23  N 
ATOM     18 1HH1 ARG B   1      10.147   3.489   9.881  1.00 17.21 LIG 0.17  HD
ATOM     19 2HH1 ARG B   1       9.072   4.341  10.462  1.00 17.21 LIG 0.17  HD
ATOM     20 1HH2 ARG B   1       7.775   5.397   7.611  1.00 19.77 LIG 0.17  HD
ATOM     21 2HH2 ARG B   1       7.640   5.493   9.091  1.00 19.77 LIG 0.17  HD
ATOM     22 HE   ARG B   1       9.364   4.103   6.697  1.00 17.87 LIG 0.18  HD
ENDBRANCH 13 14
ENDBRANCH 12 13
ENDBRANCH 11 12
ENDBRANCH 6 11
ENDBRANCH 3 6
ENDBRANCH 1 2
BRANCH 1 23
ATOM     23  CB  ILE B   2      17.434   0.144   8.336  1.00 21.16 LIG 0.01  C 
ATOM     24  CG2 ILE B   2      16.634  -1.005   8.957  1.00 22.94 LIG 0.01  C 
BRANCH 23 25
ATOM     25  CG1 ILE B   2      18.766  -0.365   7.755  1.00 22.14 LIG 0.00  C 
ATOM     26  CD1 ILE B   2      19.334  -1.639   8.418  1.00 22.60 LIG 0.01  C 
ENDBRANCH 23 25
ENDBRANCH 1 23
BRANCH 1 27
ATOM     27  C   ILE B   2      16.744   0.159   5.869  1.00 21.53 LIG 0.24  C 
ATOM     28 O    ILE B   2      17.723   0.382   5.154  1.00 21.64 LIG-0.27  OA
ATOM     29  N   PHE B   3      15.779  -0.705   5.531  1.00 22.69 LIG-0.35  N 
ATOM     30 H    PHE B   3      15.092  -0.873   6.020  1.00 22.69 LIG 0.16  HD
BRANCH 29 31
ATOM     31  CA  PHE B   3      15.822  -1.450   4.269  1.00 23.79 LIG 0.18  C 
BRANCH 31 32
ATOM     32  CB  PHE B   3      17.129  -2.232   4.131  1.00 24.86 LIG 0.07  C 
BRANCH 32 33
ATOM     33  CG  PHE B   3      17.458  -3.077   5.335  1.00 25.20 LIG-0.06  A 
ATOM     34  CD1 PHE B   3      16.564  -3.167   6.397  1.00 28.30 LIG 0.01  A 
ATOM     35  CE1 PHE B   3      16.859  -3.955   7.511  1.00 27.60 LIG 0.00  A 
ATOM     36  CZ  PHE B   3      18.056  -4.666   7.572  1.00 28.67 LIG 0.00  A 
ATOM     37  CE2 PHE B   3      18.962  -4.597   6.509  1.00 27.98 LIG 0.00  A 
ATOM     38  CD2 PHE B   3      18.657  -3.798   5.396  1.00 26.62 LIG 0.01  A 
ENDBRANCH 32 33
ENDBRANCH 31 32
BRANCH 31 39
ATOM     39  C   PHE B   3      14.631  -2.396   4.120  1.00 24.64 LIG 0.24  C 
ATOM     40 O    PHE B   3      13.544  -2.123   4.625  1.00 24.93 LIG-0.27  OA
ATOM     41  N   SER B   4      14.854  -3.502   3.420  1.00 25.11 LIG-0.34  N 
ATOM     42 H    SER B   4      15.616  -3.715   3.084  1.00 25.11 LIG 0.16  HD
BRANCH 41 43
ATOM     43  CA  SER B   4      13.790  -4.463   3.165  1.00 25.84 LIG 0.19  C 
BRANCH 43 44
ATOM     44  CB  SER B   4      13.578  -4.633   1.659  1.00 26.02 LIG 0.20  C 
BRANCH 44 45
ATOM     45 OG   SER B   4      14.070  -3.507   0.951  1.00 27.92 LIG-0.40  OA
ATOM     46 HG   SER B   4      13.861  -2.804   1.361  1.00 27.92 LIG 0.21  HD
ENDBRANCH 44 45
ENDBRANCH 43 44
BRANCH 43 47
ATOM     47  C   SER B   4      14.129  -5.800   3.808  1.00 25.91 LIG 0.22  C 
ATOM     48 O    SER B   4      13.572  -6.159   4.837  1.00 25.66 LIG-0.29  OA
ENDBRANCH 43 47
ENDBRANCH 41 43
ENDBRANCH 31 39
ENDBRANCH 29 31
ENDBRANCH 1 27
TORSDOF 18
ENDMDL
MODEL 6
USER: ADFR SOLUTION from run 10
USER: SCORE 18.476731 LL:  -2.477 LR: -16.687 RR:   0.000 FEB: -11.317
USER: RMSD 6.863331
USER: SEED 219002
USER: STATUS no improvement in best in 4 clusters for 5 generations
USER: GENES 20
USER: genes 0 Translation |==|  0.51269 0.31631 0.47088
USER: genes 1 Rotation |==|  0.09074 0.67527 0.56250 0.71881
USER: genes 2 Torsion [CB]-CA--N-[C] |==|  0.17451
USER: genes 3 Torsion [N]-C--CA-[N] |==|  0.38537
USER: genes 4 Torsion [C]-CA--N-[H2] |==|  0.41732
USER: genes 5 Torsion [C]-CA--CB-[CG] |==|  0.38859
USER: genes 6 Torsion [CA]-CB--CG-[CD] |==|  0.33610
USER: genes 7 Torsion [CB]-CG--CD-[NE] |==|  0.81839
USER: genes 8 Torsion [CG]-CD--NE-[HE] |==|  0.09186
USER: genes 9 Torsion [N]-CA--CB-[CG1] |==|  0.57983
USER: genes 10 Torsion [CA]-CB--CG1-[CD1] |==|  0.67727
USER: genes 11 Torsion [N]-CA--C-[N] |==|  0.06667
USER: genes 12 Torsion [C]-N--CA-[CB] |==|  0.81095
USER: genes 13 Torsion [N]-CA--CB-[CG] |==|  0.95729
USER: genes 14 Torsion [CA]-CB--CG-[CD1] |==|  0.31077
USER: genes 15 Torsion [N]-CA--C-[N] |==|  0.21416
USER: genes 16 Torsion [C]-N--CA-[C] |==|  0.14486
USER: genes 17 Torsion [N]-CA--CB-[OG] |==|  0.93882
USER: genes 18 Torsion [CA]-CB--OG-[HG] |==|  0.91478
USER: genes 19 Torsion [N]-CA--C-[O] |==|  0.05489
ROOT
ATOM      1  CA  ILE B   2      16.521  -0.703   7.378  1.00 20.94 LIG 0.18  C 
ENDROOT
BRANCH 1 2
ATOM      2  N   ILE B   2      15.210  -0.094   7.613  1.00 18.61 LIG-0.35  N 
ATOM      3  C   ARG B   1      14.930   0.524   8.758  1.00 17.10 LIG 0.25  C 
ATOM      4 O    ARG B   1      15.719   0.564   9.703  1.00 15.59 LIG-0.27  OA
ATOM      5 H    ILE B   2      14.658  -0.173   6.959  1.00 18.61 LIG 0.16  HD
BRANCH 3 6
ATOM      6  CA  ARG B   1      13.568   1.211   8.841  1.00 16.65 LIG 0.27  C 
BRANCH 6 7
ATOM      7  N   ARG B   1      12.969   0.966  10.182  1.00 15.45 LIG-0.07  N 
ATOM      8 H2   ARG B   1      12.447   1.652  10.403  1.00 15.45 LIG 0.28  HD
ATOM      9 H1   ARG B   1      13.617   0.879  10.785  1.00 15.45 LIG 0.28  HD
ATOM     10 H3   ARG B   1      12.484   0.220  10.159  1.00 15.45 LIG 0.28  HD
ENDBRANCH 6 7
BRANCH 6 11
ATOM     11  CB  ARG B   1      13.728   2.720   8.578  1.00 15.91 LIG 0.04  C 
BRANCH 11 12
ATOM     12  CG  ARG B   1      12.625   3.360   7.716  1.00 15.51 LIG 0.02  C 
BRANCH 12 13
ATOM     13  CD  ARG B   1      11.910   4.487   8.460  1.00 16.55 LIG 0.14  C 
BRANCH 13 14
ATOM     14  NE  ARG B   1      11.174   3.970   9.616  1.00 17.87 LIG-0.23  N 
ATOM     15  CZ  ARG B   1      10.028   4.466  10.078  1.00 16.76 LIG 0.67  C 
ATOM     16  NH1 ARG B   1       9.445   5.525   9.513  1.00 17.21 LIG-0.23  N 
ATOM     17  NH2 ARG B   1       9.447   3.883  11.127  1.00 19.77 LIG-0.23  N 
ATOM     18 1HH1 ARG B   1       9.809   5.904   8.832  1.00 17.21 LIG 0.17  HD
ATOM     19 2HH1 ARG B   1       8.705   5.827   9.829  1.00 17.21 LIG 0.17  HD
ATOM     20 1HH2 ARG B   1       9.812   3.196  11.495  1.00 19.77 LIG 0.17  HD
ATOM     21 2HH2 ARG B   1       8.707   4.192  11.436  1.00 19.77 LIG 0.17  HD
ATOM     22 HE   ARG B   1      11.508   3.294  10.028  1.00 17.87 LIG 0.18  HD
ENDBRANCH 13 14
ENDBRANCH 12 13
ENDBRANCH 11 12
ENDBRANCH 6 11
ENDBRANCH 3 6
ENDBRANCH 1 2
BRANCH 1 23
ATOM     23  CB  ILE B   2      16.794  -1.850   8.381  1.00 21.16 LIG 0.01  C 
ATOM     24  CG2 ILE B   2      16.203  -3.171   7.877  1.00 22.94 LIG 0.01  C 
BRANCH 23 25
ATOM     25  CG1 ILE B   2      18.309  -1.983   8.621  1.00 22.14 LIG 0.00  C 
ATOM     26  CD1 ILE B   2      18.938  -3.317   8.164  1.00 22.60 LIG 0.01  C 
ENDBRANCH 23 25
ENDBRANCH 1 23
BRANCH 1 27
ATOM     27  C   ILE B   2      16.621  -1.163   5.919  1.00 21.53 LIG 0.24  C 
ATOM     28 O    ILE B   2      17.382  -2.084   5.616  1.00 21.64 LIG-0.27  OA
ATOM     29  N   PHE B   3      15.831  -0.550   5.029  1.00 22.69 LIG-0.35  N 
ATOM     30 H    PHE B   3      15.294   0.092   5.225  1.00 22.69 LIG 0.16  HD
BRANCH 29 31
ATOM     31  CA  PHE B   3      15.822  -0.936   3.615  1.00 23.79 LIG 0.18  C 
BRANCH 31 32
ATOM     32  CB  PHE B   3      17.144  -0.577   2.934  1.00 24.86 LIG 0.07  C 
BRANCH 32 33
ATOM     33  CG  PHE B   3      17.987   0.390   3.723  1.00 25.20 LIG-0.06  A 
ATOM     34  CD1 PHE B   3      19.190  -0.022   4.287  1.00 28.30 LIG 0.01  A 
ATOM     35  CE1 PHE B   3      19.980   0.872   5.012  1.00 27.60 LIG 0.00  A 
ATOM     36  CZ  PHE B   3      19.573   2.194   5.178  1.00 28.67 LIG 0.00  A 
ATOM     37  CE2 PHE B   3      18.372   2.630   4.610  1.00 27.98 LIG 0.00  A 
ATOM     38  CD2 PHE B   3      17.584   1.721   3.886  1.00 26.62 LIG 0.01  A 
ENDBRANCH 32 33
ENDBRANCH 31 32
BRANCH 31 39
ATOM     39  C   PHE B   3      15.526  -2.424   3.427  1.00 24.64 LIG 0.24  C 
ATOM     40 O    PHE B   3      16.430  -3.216   3.169  1.00 24.93 LIG-0.27  OA
ATOM     41  N   SER B   4      14.256  -2.784   3.564  1.00 25.11 LIG-0.34  N 
ATOM     42 H    SER B   4      13.613  -2.235   3.720  1.00 25.11 LIG 0.16  HD
BRANCH 41 43
ATOM     43  CA  SER B   4      13.849  -4.178   3.455  1.00 25.84 LIG 0.19  C 
BRANCH 43 44
ATOM     44  CB  SER B   4      13.982  -4.658   2.008  1.00 26.02 LIG 0.20  C 
BRANCH 44 45
ATOM     45 OG   SER B   4      13.964  -3.561   1.109  1.00 27.92 LIG-0.40  OA
ATOM     46 HG   SER B   4      13.492  -2.944   1.429  1.00 27.92 LIG 0.21  HD
ENDBRANCH 44 45
ENDBRANCH 43 44
BRANCH 43 47
ATOM     47  C   SER B   4      14.694  -5.041   4.381  1.00 25.91 LIG 0.22  C 
ATOM     48 O    SER B   4      15.299  -4.544   5.321  1.00 25.66 LIG-0.29  OA
ENDBRANCH 43 47
ENDBRANCH 41 43
ENDBRANCH 31 39
ENDBRANCH 29 31
ENDBRANCH 1 27
TORSDOF 18
ENDMDL
MODEL 7
USER: ADFR SOLUTION from run 96
USER: SCORE 18.614453 LL:  -2.297 LR: -16.638 RR:   0.000 FEB: -11.268
USER: RMSD 6.114573
USER: SEED 95
USER: STATUS no improvement in best in 6 clusters for 5 generations
USER: GENES 20
USER: genes 0 Translation |==|  0.52943 0.39471 0.46624
USER: genes 1 Rotation |==|  0.92302 0.39008 0.46800 0.74072
USER: genes 2 Torsion [CB]-CA--N-[C] |==|  0.83246
USER: genes 3 Torsion [N]-C--CA-[N] |==|  0.43453
USER: genes 4 Torsion [C]-CA--N-[H2] |==|  0.70744
USER: genes 5 Torsion [C]-CA--CB-[CG] |==|  0.33456
USER: genes 6 Torsion [CA]-CB--CG-[CD] |==|  0.33946
USER: genes 7 Torsion [CB]-CG--CD-[NE] |==|  0.91635
USER: genes 8 Torsion [CG]-CD--NE-[HE] |==|  0.97825
USER: genes 9 Torsion [N]-CA--CB-[CG1] |==|  0.74620
USER: genes 10 Torsion [CA]-CB--CG1-[CD1] |==|  0.15512
USER: genes 11 Torsion [N]-CA--C-[N] |==|  0.43739
USER: genes 12 Torsion [C]-N--CA-[CB] |==|  0.18411
USER: genes 13 Torsion [N]-CA--CB-[CG] |==|  0.09613
USER: genes 14 Torsion [CA]-CB--CG-[CD1] |==|  0.20644
USER: genes 15 Torsion [N]-CA--C-[N] |==|  0.04444
USER: genes 16 Torsion [C]-N--CA-[C] |==|  0.17079
USER: genes 17 Torsion [N]-CA--CB-[OG] |==|  0.74941
USER: genes 18 Torsion [CA]-CB--OG-[HG] |==|  0.37140
USER: genes 19 Torsion [N]-CA--C-[O] |==|  0.82890
ROOT
ATOM      1  CA  ILE B   2      16.947   0.650   7.305  1.00 20.94 LIG 0.18  C 
ENDROOT
BRANCH 1 2
ATOM      2  N   ILE B   2      15.507   0.834   7.491  1.00 18.61 LIG-0.35  N 
ATOM      3  C   ARG B   1      14.987   1.045   8.698  1.00 17.10 LIG 0.25  C 
ATOM      4 O    ARG B   1      15.665   1.031   9.726  1.00 15.59 LIG-0.27  OA
ATOM      5 H    ILE B   2      15.046   0.794   6.766  1.00 18.61 LIG 0.16  HD
BRANCH 3 6
ATOM      6  CA  ARG B   1      13.487   1.328   8.748  1.00 16.65 LIG 0.27  C 
BRANCH 6 7
ATOM      7  N   ARG B   1      12.960   0.981  10.096  1.00 15.45 LIG-0.07  N 
ATOM      8 H2   ARG B   1      12.501   0.220  10.048  1.00 15.45 LIG 0.28  HD
ATOM      9 H1   ARG B   1      12.426   1.632  10.383  1.00 15.45 LIG 0.28  HD
ATOM     10 H3   ARG B   1      13.638   0.882  10.664  1.00 15.45 LIG 0.28  HD
ENDBRANCH 6 7
BRANCH 6 11
ATOM     11  CB  ARG B   1      13.225   2.812   8.422  1.00 15.91 LIG 0.04  C 
BRANCH 11 12
ATOM     12  CG  ARG B   1      12.330   3.070   7.196  1.00 15.51 LIG 0.02  C 
BRANCH 12 13
ATOM     13  CD  ARG B   1      11.097   3.895   7.562  1.00 16.55 LIG 0.14  C 
BRANCH 13 14
ATOM     14  NE  ARG B   1      10.686   3.642   8.944  1.00 17.87 LIG-0.23  N 
ATOM     15  CZ  ARG B   1       9.743   4.316   9.598  1.00 16.76 LIG 0.67  C 
ATOM     16  NH1 ARG B   1       9.082   5.326   9.028  1.00 17.21 LIG-0.23  N 
ATOM     17  NH2 ARG B   1       9.447   3.966  10.850  1.00 19.77 LIG-0.23  N 
ATOM     18 1HH1 ARG B   1       9.261   5.555   8.219  1.00 17.21 LIG 0.17  HD
ATOM     19 2HH1 ARG B   1       8.476   5.747   9.471  1.00 17.21 LIG 0.17  HD
ATOM     20 1HH2 ARG B   1       9.864   3.313  11.224  1.00 19.77 LIG 0.17  HD
ATOM     21 2HH2 ARG B   1       8.840   4.393  11.285  1.00 19.77 LIG 0.17  HD
ATOM     22 HE   ARG B   1      11.086   3.009   9.367  1.00 17.87 LIG 0.18  HD
ENDBRANCH 13 14
ENDBRANCH 12 13
ENDBRANCH 11 12
ENDBRANCH 6 11
ENDBRANCH 3 6
ENDBRANCH 1 2
BRANCH 1 23
ATOM     23  CB  ILE B   2      17.738   1.893   7.781  1.00 21.16 LIG 0.01  C 
ATOM     24  CG2 ILE B   2      19.085   1.487   8.387  1.00 22.94 LIG 0.01  C 
BRANCH 23 25
ATOM     25  CG1 ILE B   2      17.937   2.866   6.605  1.00 22.14 LIG 0.00  C 
ATOM     26  CD1 ILE B   2      16.642   3.323   5.897  1.00 22.60 LIG 0.01  C 
ENDBRANCH 23 25
ENDBRANCH 1 23
BRANCH 1 27
ATOM     27  C   ILE B   2      17.397  -0.636   8.010  1.00 21.53 LIG 0.24  C 
ATOM     28 O    ILE B   2      16.705  -1.119   8.908  1.00 21.64 LIG-0.27  OA
ATOM     29  N   PHE B   3      18.531  -1.204   7.581  1.00 22.69 LIG-0.35  N 
ATOM     30 H    PHE B   3      19.023  -0.880   6.955  1.00 22.69 LIG 0.16  HD
BRANCH 29 31
ATOM     31  CA  PHE B   3      19.033  -2.453   8.161  1.00 23.79 LIG 0.18  C 
BRANCH 31 32
ATOM     32  CB  PHE B   3      18.097  -3.623   7.852  1.00 24.86 LIG 0.07  C 
BRANCH 32 33
ATOM     33  CG  PHE B   3      17.439  -3.529   6.500  1.00 25.20 LIG-0.06  A 
ATOM     34  CD1 PHE B   3      18.167  -3.787   5.343  1.00 28.30 LIG 0.01  A 
ATOM     35  CE1 PHE B   3      17.562  -3.710   4.088  1.00 27.60 LIG 0.00  A 
ATOM     36  CZ  PHE B   3      16.213  -3.376   3.977  1.00 28.67 LIG 0.00  A 
ATOM     37  CE2 PHE B   3      15.462  -3.123   5.129  1.00 27.98 LIG 0.00  A 
ATOM     38  CD2 PHE B   3      16.083  -3.200   6.386  1.00 26.62 LIG 0.01  A 
ENDBRANCH 32 33
ENDBRANCH 31 32
BRANCH 31 39
ATOM     39  C   PHE B   3      20.448  -2.780   7.686  1.00 24.64 LIG 0.24  C 
ATOM     40 O    PHE B   3      20.912  -3.909   7.825  1.00 24.93 LIG-0.27  OA
ATOM     41  N   SER B   4      21.117  -1.779   7.126  1.00 25.11 LIG-0.34  N 
ATOM     42 H    SER B   4      20.811  -0.979   7.046  1.00 25.11 LIG 0.16  HD
BRANCH 41 43
ATOM     43  CA  SER B   4      22.457  -1.971   6.590  1.00 25.84 LIG 0.19  C 
BRANCH 43 44
ATOM     44  CB  SER B   4      23.411  -2.422   7.698  1.00 26.02 LIG 0.20  C 
BRANCH 44 45
ATOM     45 OG   SER B   4      24.018  -1.305   8.327  1.00 27.92 LIG-0.40  OA
ATOM     46 HG   SER B   4      23.985  -1.400   9.161  1.00 27.92 LIG 0.21  HD
ENDBRANCH 44 45
ENDBRANCH 43 44
BRANCH 43 47
ATOM     47  C   SER B   4      22.427  -2.995   5.465  1.00 25.91 LIG 0.22  C 
ATOM     48 O    SER B   4      22.069  -4.146   5.676  1.00 25.66 LIG-0.29  OA
ENDBRANCH 43 47
ENDBRANCH 41 43
ENDBRANCH 31 39
ENDBRANCH 29 31
ENDBRANCH 1 27
TORSDOF 18
ENDMDL
MODEL 8
USER: ADFR SOLUTION from run 9
USER: SCORE 18.045307 LL:  -2.164 LR: -16.620 RR:   0.000 FEB: -11.250
USER: RMSD 7.395308
USER: SEED 249228
USER: STATUS searching
USER: GENES 20
USER: genes 0 Translation |==|  0.50065 0.44710 0.43256
USER: genes 1 Rotation |==|  0.97292 0.37482 0.40077 0.52879
USER: genes 2 Torsion [CB]-CA--N-[C] |==|  0.21822
USER: genes 3 Torsion [N]-C--CA-[N] |==|  0.11774
USER: genes 4 Torsion [C]-CA--N-[H2] |==|  0.39445
USER: genes 5 Torsion [C]-CA--CB-[CG] |==|  0.82720
USER: genes 6 Torsion [CA]-CB--CG-[CD] |==|  0.64878
USER: genes 7 Torsion [CB]-CG--CD-[NE] |==|  0.16281
USER: genes 8 Torsion [CG]-CD--NE-[HE] |==|  0.07104
USER: genes 9 Torsion [N]-CA--CB-[CG1] |==|  0.08463
USER: genes 10 Torsion [CA]-CB--CG1-[CD1] |==|  0.14457
USER: genes 11 Torsion [N]-CA--C-[N] |==|  0.95108
USER: genes 12 Torsion [C]-N--CA-[CB] |==|  0.85000
USER: genes 13 Torsion [N]-CA--CB-[CG] |==|  0.59497
USER: genes 14 Torsion [CA]-CB--CG-[CD1] |==|  0.99140
USER: genes 15 Torsion [N]-CA--C-[N] |==|  0.93333
USER: genes 16 Torsion [C]-N--CA-[C] |==|  0.52000
USER: genes 17 Torsion [N]-CA--CB-[OG] |==|  0.44163
USER: genes 18 Torsion [CA]-CB--OG-[HG] |==|  0.23353
USER: genes 19 Torsion [N]-CA--C-[O] |==|  0.02631
ROOT
ATOM      1  CA  ILE B   2      16.214   1.553   6.775  1.00 20.94 LIG 0.18  C 
ENDROOT
BRANCH 1 2
ATOM      2  N   ILE B   2      14.816   1.768   7.152  1.00 18.61 LIG-0.35  N 
ATOM      3  C   ARG B   1      14.307   2.995   7.252  1.00 17.10 LIG 0.25  C 
ATOM      4 O    ARG B   1      14.987   4.011   7.102  1.00 15.59 LIG-0.27  OA
ATOM      5 H    ILE B   2      14.370   1.048   7.298  1.00 18.61 LIG 0.16  HD
BRANCH 3 6
ATOM      6  CA  ARG B   1      12.811   3.086   7.548  1.00 16.65 LIG 0.27  C 
BRANCH 6 7
ATOM      7  N   ARG B   1      12.448   2.082   8.585  1.00 15.45 LIG-0.07  N 
ATOM      8 H2   ARG B   1      11.840   2.429   9.134  1.00 15.45 LIG 0.28  HD
ATOM      9 H1   ARG B   1      13.174   1.858   9.048  1.00 15.45 LIG 0.28  HD
ATOM     10 H3   ARG B   1      12.112   1.356   8.193  1.00 15.45 LIG 0.28  HD
ENDBRANCH 6 7
BRANCH 6 11
ATOM     11  CB  ARG B   1      12.458   4.511   8.015  1.00 15.91 LIG 0.04  C 
BRANCH 11 12
ATOM     12  CG  ARG B   1      13.139   4.966   9.319  1.00 15.51 LIG 0.02  C 
BRANCH 12 13
ATOM     13  CD  ARG B   1      12.120   5.463  10.344  1.00 16.55 LIG 0.14  C 
BRANCH 13 14
ATOM     14  NE  ARG B   1      11.146   4.418  10.665  1.00 17.87 LIG-0.23  N 
ATOM     15  CZ  ARG B   1       9.909   4.635  11.109  1.00 16.76 LIG 0.67  C 
ATOM     16  NH1 ARG B   1       9.447   5.869  11.318  1.00 17.21 LIG-0.23  N 
ATOM     17  NH2 ARG B   1       9.112   3.591  11.340  1.00 19.77 LIG-0.23  N 
ATOM     18 1HH1 ARG B   1       9.951   6.548  11.166  1.00 17.21 LIG 0.17  HD
ATOM     19 2HH1 ARG B   1       8.645   5.984  11.605  1.00 17.21 LIG 0.17  HD
ATOM     20 1HH2 ARG B   1       9.399   2.792  11.203  1.00 19.77 LIG 0.17  HD
ATOM     21 2HH2 ARG B   1       8.311   3.716  11.627  1.00 19.77 LIG 0.17  HD
ATOM     22 HE   ARG B   1      11.391   3.601  10.560  1.00 17.87 LIG 0.18  HD
ENDBRANCH 13 14
ENDBRANCH 12 13
ENDBRANCH 11 12
ENDBRANCH 6 11
ENDBRANCH 3 6
ENDBRANCH 1 2
BRANCH 1 23
ATOM     23  CB  ILE B   2      17.162   1.799   7.973  1.00 21.16 LIG 0.01  C 
ATOM     24  CG2 ILE B   2      17.659   3.248   7.992  1.00 22.94 LIG 0.01  C 
BRANCH 23 25
ATOM     25  CG1 ILE B   2      16.443   1.448   9.289  1.00 22.14 LIG 0.00  C 
ATOM     26  CD1 ILE B   2      15.795   0.047   9.336  1.00 22.60 LIG 0.01  C 
ENDBRANCH 23 25
ENDBRANCH 1 23
BRANCH 1 27
ATOM     27  C   ILE B   2      16.376   0.150   6.177  1.00 21.53 LIG 0.24  C 
ATOM     28 O    ILE B   2      17.388  -0.130   5.533  1.00 21.64 LIG-0.27  OA
ATOM     29  N   PHE B   3      15.401  -0.734   6.419  1.00 22.69 LIG-0.35  N 
ATOM     30 H    PHE B   3      14.690  -0.554   6.868  1.00 22.69 LIG 0.16  HD
BRANCH 29 31
ATOM     31  CA  PHE B   3      15.472  -2.112   5.925  1.00 23.79 LIG 0.18  C 
BRANCH 31 32
ATOM     32  CB  PHE B   3      15.709  -2.147   4.414  1.00 24.86 LIG 0.07  C 
BRANCH 32 33
ATOM     33  CG  PHE B   3      15.027  -3.300   3.723  1.00 25.20 LIG-0.06  A 
ATOM     34  CD1 PHE B   3      14.321  -4.245   4.460  1.00 28.30 LIG 0.01  A 
ATOM     35  CE1 PHE B   3      13.680  -5.310   3.824  1.00 27.60 LIG 0.00  A 
ATOM     36  CZ  PHE B   3      13.736  -5.438   2.438  1.00 28.67 LIG 0.00  A 
ATOM     37  CE2 PHE B   3      14.432  -4.491   1.679  1.00 27.98 LIG 0.00  A 
ATOM     38  CD2 PHE B   3      15.076  -3.427   2.329  1.00 26.62 LIG 0.01  A 
ENDBRANCH 32 33
ENDBRANCH 31 32
BRANCH 31 39
ATOM     39  C   PHE B   3      16.552  -2.924   6.640  1.00 24.64 LIG 0.24  C 
ATOM     40 O    PHE B   3      16.484  -4.150   6.692  1.00 24.93 LIG-0.27  OA
ATOM     41  N   SER B   4      17.541  -2.223   7.181  1.00 25.11 LIG-0.34  N 
ATOM     42 H    SER B   4      17.586  -1.365   7.171  1.00 25.11 LIG 0.16  HD
BRANCH 41 43
ATOM     43  CA  SER B   4      18.655  -2.880   7.849  1.00 25.84 LIG 0.19  C 
BRANCH 43 44
ATOM     44  CB  SER B   4      19.465  -3.704   6.845  1.00 26.02 LIG 0.20  C 
BRANCH 44 45
ATOM     45 OG   SER B   4      20.775  -3.947   7.333  1.00 27.92 LIG-0.40  OA
ATOM     46 HG   SER B   4      20.766  -4.616   7.840  1.00 27.92 LIG 0.21  HD
ENDBRANCH 44 45
ENDBRANCH 43 44
BRANCH 43 47
ATOM     47  C   SER B   4      19.543  -1.845   8.525  1.00 25.91 LIG 0.22  C 
ATOM     48 O    SER B   4      19.189  -0.676   8.608  1.00 25.66 LIG-0.29  OA
ENDBRANCH 43 47
ENDBRANCH 41 43
ENDBRANCH 31 39
ENDBRANCH 29 31
ENDBRANCH 1 27
TORSDOF 18
ENDMDL
MODEL 9
USER: ADFR SOLUTION from run 198
USER: SCORE 18.730626 LL:  -2.424 LR: -16.491 RR:   0.000 FEB: -11.122
USER: RMSD 7.004471
USER: SEED 197
USER: STATUS searching
USER: GENES 20
USER: genes 0 Translation |==|  0.51345 0.37937 0.44219
USER: genes 1 Rotation |==|  0.95318 0.32929 0.39858 0.57210
USER: genes 2 Torsion [CB]-CA--N-[C] |==|  0.86667
USER: genes 3 Torsion [N]-C--CA-[N] |==|  0.49728
USER: genes 4 Torsion [C]-CA--N-[H2] |==|  0.75666
USER: genes 5 Torsion [C]-CA--CB-[CG] |==|  0.30940
USER: genes 6 Torsion [CA]-CB--CG-[CD] |==|  0.31991
USER: genes 7 Torsion [CB]-CG--CD-[NE] |==|  0.89844
USER: genes 8 Torsion [CG]-CD--NE-[HE] |==|  0.01585
USER: genes 9 Torsion [N]-CA--CB-[CG1] |==|  0.83214
USER: genes 10 Torsion [CA]-CB--CG1-[CD1] |==|  0.28498
USER: genes 11 Torsion [N]-CA--C-[N] |==|  0.36589
USER: genes 12 Torsion [C]-N--CA-[CB] |==|  0.85779
USER: genes 13 Torsion [N]-CA--CB-[CG] |==|  0.84980
USER: genes 14 Torsion [CA]-CB--CG-[CD1] |==|  0.32501
USER: genes 15 Torsion [N]-CA--C-[N] |==|  0.38660
USER: genes 16 Torsion [C]-N--CA-[C] |==|  0.73930
USER: genes 17 Torsion [N]-CA--CB-[OG] |==|  0.79441
USER: genes 18 Torsion [CA]-CB--OG-[HG] |==|  0.97199
USER: genes 19 Torsion [N]-CA--C-[O] |==|  0.17141
ROOT
ATOM      1  CA  ILE B   2      16.540   0.385   6.927  1.00 20.94 LIG 0.18  C 
ENDROOT
BRANCH 1 2
ATOM      2  N   ILE B   2      15.222   0.894   7.308  1.00 18.61 LIG-0.35  N 
ATOM      3  C   ARG B   1      14.719   0.672   8.520  1.00 17.10 LIG 0.25  C 
ATOM      4 O    ARG B   1      15.292  -0.022   9.361  1.00 15.59 LIG-0.27  OA
ATOM      5 H    ILE B   2      14.818   1.336   6.691  1.00 18.61 LIG 0.16  HD
BRANCH 3 6
ATOM      6  CA  ARG B   1      13.383   1.344   8.833  1.00 16.65 LIG 0.27  C 
BRANCH 6 7
ATOM      7  N   ARG B   1      12.952   0.978  10.210  1.00 15.45 LIG-0.07  N 
ATOM      8 H2   ARG B   1      12.488   0.219  10.183  1.00 15.45 LIG 0.28  HD
ATOM      9 H1   ARG B   1      12.442   1.626  10.543  1.00 15.45 LIG 0.28  HD
ATOM     10 H3   ARG B   1      13.668   0.869  10.727  1.00 15.45 LIG 0.28  HD
ENDBRANCH 6 7
BRANCH 6 11
ATOM     11  CB  ARG B   1      13.522   2.872   8.689  1.00 15.91 LIG 0.04  C 
BRANCH 11 12
ATOM     12  CG  ARG B   1      12.759   3.497   7.508  1.00 15.51 LIG 0.02  C 
BRANCH 12 13
ATOM     13  CD  ARG B   1      11.652   4.436   7.984  1.00 16.55 LIG 0.14  C 
BRANCH 13 14
ATOM     14  NE  ARG B   1      11.017   3.927   9.201  1.00 17.87 LIG-0.23  N 
ATOM     15  CZ  ARG B   1       9.953   4.465   9.793  1.00 16.76 LIG 0.67  C 
ATOM     16  NH1 ARG B   1       9.368   5.565   9.314  1.00 17.21 LIG-0.23  N 
ATOM     17  NH2 ARG B   1       9.457   3.884  10.885  1.00 19.77 LIG-0.23  N 
ATOM     18 1HH1 ARG B   1       9.677   5.943   8.607  1.00 17.21 LIG 0.17  HD
ATOM     19 2HH1 ARG B   1       8.682   5.895   9.713  1.00 17.21 LIG 0.17  HD
ATOM     20 1HH2 ARG B   1       9.824   3.172  11.198  1.00 19.77 LIG 0.17  HD
ATOM     21 2HH2 ARG B   1       8.770   4.222  11.278  1.00 19.77 LIG 0.17  HD
ATOM     22 HE   ARG B   1      11.358   3.224   9.561  1.00 17.87 LIG 0.18  HD
ENDBRANCH 13 14
ENDBRANCH 12 13
ENDBRANCH 11 12
ENDBRANCH 6 11
ENDBRANCH 3 6
ENDBRANCH 1 2
BRANCH 1 23
ATOM     23  CB  ILE B   2      17.599   0.703   8.010  1.00 21.16 LIG 0.01  C 
ATOM     24  CG2 ILE B   2      18.957   0.096   7.644  1.00 22.94 LIG 0.01  C 
BRANCH 23 25
ATOM     25  CG1 ILE B   2      17.712   2.227   8.198  1.00 22.14 LIG 0.00  C 
ATOM     26  CD1 ILE B   2      17.008   2.795   9.450  1.00 22.60 LIG 0.01  C 
ENDBRANCH 23 25
ENDBRANCH 1 23
BRANCH 1 27
ATOM     27  C   ILE B   2      16.445  -1.115   6.623  1.00 21.53 LIG 0.24  C 
ATOM     28 O    ILE B   2      15.841  -1.862   7.395  1.00 21.64 LIG-0.27  OA
ATOM     29  N   PHE B   3      17.007  -1.545   5.487  1.00 22.69 LIG-0.35  N 
ATOM     30 H    PHE B   3      17.430  -1.037   4.937  1.00 22.69 LIG 0.16  HD
BRANCH 29 31
ATOM     31  CA  PHE B   3      16.944  -2.953   5.083  1.00 23.79 LIG 0.18  C 
BRANCH 31 32
ATOM     32  CB  PHE B   3      17.403  -3.875   6.213  1.00 24.86 LIG 0.07  C 
BRANCH 32 33
ATOM     33  CG  PHE B   3      18.767  -3.534   6.754  1.00 25.20 LIG-0.06  A 
ATOM     34  CD1 PHE B   3      18.920  -3.133   8.078  1.00 28.30 LIG 0.01  A 
ATOM     35  CE1 PHE B   3      20.181  -2.823   8.587  1.00 27.60 LIG 0.00  A 
ATOM     36  CZ  PHE B   3      21.310  -2.917   7.775  1.00 28.67 LIG 0.00  A 
ATOM     37  CE2 PHE B   3      21.178  -3.328   6.445  1.00 27.98 LIG 0.00  A 
ATOM     38  CD2 PHE B   3      19.904  -3.633   5.942  1.00 26.62 LIG 0.01  A 
ENDBRANCH 32 33
ENDBRANCH 31 32
BRANCH 31 39
ATOM     39  C   PHE B   3      15.544  -3.356   4.619  1.00 24.64 LIG 0.24  C 
ATOM     40 O    PHE B   3      14.546  -2.954   5.212  1.00 24.93 LIG-0.27  OA
ATOM     41  N   SER B   4      15.492  -4.147   3.553  1.00 25.11 LIG-0.34  N 
ATOM     42 H    SER B   4      16.184  -4.454   3.146  1.00 25.11 LIG 0.16  HD
BRANCH 41 43
ATOM     43  CA  SER B   4      14.219  -4.564   2.983  1.00 25.84 LIG 0.19  C 
BRANCH 43 44
ATOM     44  CB  SER B   4      14.323  -4.649   1.459  1.00 26.02 LIG 0.20  C 
BRANCH 44 45
ATOM     45 OG   SER B   4      14.348  -3.352   0.883  1.00 27.92 LIG-0.40  OA
ATOM     46 HG   SER B   4      14.163  -2.781   1.470  1.00 27.92 LIG 0.21  HD
ENDBRANCH 44 45
ENDBRANCH 43 44
BRANCH 43 47
ATOM     47  C   SER B   4      13.803  -5.909   3.562  1.00 25.91 LIG 0.22  C 
ATOM     48 O    SER B   4      13.598  -6.037   4.762  1.00 25.66 LIG-0.29  OA
ENDBRANCH 43 47
ENDBRANCH 41 43
ENDBRANCH 31 39
ENDBRANCH 29 31
ENDBRANCH 1 27
TORSDOF 18
ENDMDL
MODEL 10
USER: ADFR SOLUTION from run 96
USER: SCORE 18.115897 LL:  -2.422 LR: -16.381 RR:   0.000 FEB: -11.012
USER: RMSD 7.090496
USER: SEED 95
USER: STATUS no improvement in best in 6 clusters for 5 generations
USER: GENES 20
USER: genes 0 Translation |==|  0.52922 0.39540 0.46953
USER: genes 1 Rotation |==|  0.94109 0.37144 0.45242 0.69143
USER: genes 2 Torsion [CB]-CA--N-[C] |==|  0.85545
USER: genes 3 Torsion [N]-C--CA-[N] |==|  0.43036
USER: genes 4 Torsion [C]-CA--N-[H2] |==|  0.71005
USER: genes 5 Torsion [C]-CA--CB-[CG] |==|  0.32971
USER: genes 6 Torsion [CA]-CB--CG-[CD] |==|  0.33422
USER: genes 7 Torsion [CB]-CG--CD-[NE] |==|  0.91326
USER: genes 8 Torsion [CG]-CD--NE-[HE] |==|  0.98745
USER: genes 9 Torsion [N]-CA--CB-[CG1] |==|  0.75312
USER: genes 10 Torsion [CA]-CB--CG1-[CD1] |==|  0.15096
USER: genes 11 Torsion [N]-CA--C-[N] |==|  0.37108
USER: genes 12 Torsion [C]-N--CA-[CB] |==|  0.18859
USER: genes 13 Torsion [N]-CA--CB-[CG] |==|  0.11831
USER: genes 14 Torsion [CA]-CB--CG-[CD1] |==|  0.30525
USER: genes 15 Torsion [N]-CA--C-[N] |==|  0.82828
USER: genes 16 Torsion [C]-N--CA-[C] |==|  0.48164
USER: genes 17 Torsion [N]-CA--CB-[OG] |==|  0.72753
USER: genes 18 Torsion [CA]-CB--OG-[HG] |==|  0.46217
USER: genes 19 Torsion [N]-CA--C-[O] |==|  0.90926
ROOT
ATOM      1  CA  ILE B   2      16.942   0.662   7.357  1.00 20.94 LIG 0.18  C 
ENDROOT
BRANCH 1 2
ATOM      2  N   ILE B   2      15.517   0.936   7.546  1.00 18.61 LIG-0.35  N 
ATOM      3  C   ARG B   1      14.999   1.100   8.762  1.00 17.10 LIG 0.25  C 
ATOM      4 O    ARG B   1      15.663   0.966   9.791  1.00 15.59 LIG-0.27  OA
ATOM      5 H    ILE B   2      15.062   0.979   6.818  1.00 18.61 LIG 0.16  HD
BRANCH 3 6
ATOM      6  CA  ARG B   1      13.523   1.486   8.823  1.00 16.65 LIG 0.27  C 
BRANCH 6 7
ATOM      7  N   ARG B   1      12.948   1.053  10.126  1.00 15.45 LIG-0.07  N 
ATOM      8 H2   ARG B   1      12.448   0.328  10.002  1.00 15.45 LIG 0.28  HD
ATOM      9 H1   ARG B   1      12.447   1.706  10.461  1.00 15.45 LIG 0.28  HD
ATOM     10 H3   ARG B   1      13.608   0.864  10.694  1.00 15.45 LIG 0.28  HD
ENDBRANCH 6 7
BRANCH 6 11
ATOM     11  CB  ARG B   1      13.374   3.009   8.636  1.00 15.91 LIG 0.04  C 
BRANCH 11 12
ATOM     12  CG  ARG B   1      12.557   3.447   7.408  1.00 15.51 LIG 0.02  C 
BRANCH 12 13
ATOM     13  CD  ARG B   1      11.338   4.277   7.807  1.00 16.55 LIG 0.14  C 
BRANCH 13 14
ATOM     14  NE  ARG B   1      10.828   3.866   9.117  1.00 17.87 LIG-0.23  N 
ATOM     15  CZ  ARG B   1       9.832   4.458   9.771  1.00 16.76 LIG 0.67  C 
ATOM     16  NH1 ARG B   1       9.203   5.525   9.271  1.00 17.21 LIG-0.23  N 
ATOM     17  NH2 ARG B   1       9.447   3.966  10.949  1.00 19.77 LIG-0.23  N 
ATOM     18 1HH1 ARG B   1       9.440   5.846   8.510  1.00 17.21 LIG 0.17  HD
ATOM     19 2HH1 ARG B   1       8.561   5.890   9.712  1.00 17.21 LIG 0.17  HD
ATOM     20 1HH2 ARG B   1       9.842   3.276  11.276  1.00 19.77 LIG 0.17  HD
ATOM     21 2HH2 ARG B   1       8.804   4.339  11.382  1.00 19.77 LIG 0.17  HD
ATOM     22 HE   ARG B   1      11.203   3.190   9.493  1.00 17.87 LIG 0.18  HD
ENDBRANCH 13 14
ENDBRANCH 12 13
ENDBRANCH 11 12
ENDBRANCH 6 11
ENDBRANCH 3 6
ENDBRANCH 1 2
BRANCH 1 23
ATOM     23  CB  ILE B   2      17.817   1.700   8.101  1.00 21.16 LIG 0.01  C 
ATOM     24  CG2 ILE B   2      19.126   1.069   8.583  1.00 22.94 LIG 0.01  C 
BRANCH 23 25
ATOM     25  CG1 ILE B   2      18.094   2.904   7.181  1.00 22.14 LIG 0.00  C 
ATOM     26  CD1 ILE B   2      16.842   3.581   6.582  1.00 22.60 LIG 0.01  C 
ENDBRANCH 23 25
ENDBRANCH 1 23
BRANCH 1 27
ATOM     27  C   ILE B   2      17.251  -0.778   7.785  1.00 21.53 LIG 0.24  C 
ATOM     28 O    ILE B   2      16.782  -1.221   8.835  1.00 21.64 LIG-0.27  OA
ATOM     29  N   PHE B   3      18.005  -1.513   6.959  1.00 22.69 LIG-0.35  N 
ATOM     30 H    PHE B   3      18.337  -1.219   6.222  1.00 22.69 LIG 0.16  HD
BRANCH 29 31
ATOM     31  CA  PHE B   3      18.331  -2.911   7.254  1.00 23.79 LIG 0.18  C 
BRANCH 31 32
ATOM     32  CB  PHE B   3      17.087  -3.799   7.176  1.00 24.86 LIG 0.07  C 
BRANCH 32 33
ATOM     33  CG  PHE B   3      16.198  -3.491   5.999  1.00 25.20 LIG-0.06  A 
ATOM     34  CD1 PHE B   3      16.095  -4.387   4.940  1.00 28.30 LIG 0.01  A 
ATOM     35  CE1 PHE B   3      15.267  -4.111   3.852  1.00 27.60 LIG 0.00  A 
ATOM     36  CZ  PHE B   3      14.526  -2.932   3.813  1.00 28.67 LIG 0.00  A 
ATOM     37  CE2 PHE B   3      14.607  -2.023   4.873  1.00 27.98 LIG 0.00  A 
ATOM     38  CD2 PHE B   3      15.447  -2.309   5.961  1.00 26.62 LIG 0.01  A 
ENDBRANCH 32 33
ENDBRANCH 31 32
BRANCH 31 39
ATOM     39  C   PHE B   3      19.417  -3.457   6.327  1.00 24.64 LIG 0.24  C 
ATOM     40 O    PHE B   3      20.491  -3.846   6.780  1.00 24.93 LIG-0.27  OA
ATOM     41  N   SER B   4      19.118  -3.480   5.034  1.00 25.11 LIG-0.34  N 
ATOM     42 H    SER B   4      18.380  -3.188   4.704  1.00 25.11 LIG 0.16  HD
BRANCH 41 43
ATOM     43  CA  SER B   4      20.048  -4.019   4.052  1.00 25.84 LIG 0.19  C 
BRANCH 43 44
ATOM     44  CB  SER B   4      20.515  -5.415   4.474  1.00 26.02 LIG 0.20  C 
BRANCH 44 45
ATOM     45 OG   SER B   4      21.777  -5.351   5.117  1.00 27.92 LIG-0.40  OA
ATOM     46 HG   SER B   4      21.933  -6.081   5.503  1.00 27.92 LIG 0.21  HD
ENDBRANCH 44 45
ENDBRANCH 43 44
BRANCH 43 47
ATOM     47  C   SER B   4      19.389  -4.071   2.682  1.00 25.91 LIG 0.22  C 
ATOM     48 O    SER B   4      18.188  -4.279   2.573  1.00 25.66 LIG-0.29  OA
ENDBRANCH 43 47
ENDBRANCH 41 43
ENDBRANCH 31 39
ENDBRANCH 29 31
ENDBRANCH 1 27
TORSDOF 18
ENDMDL
MODEL 11
USER: ADFR SOLUTION from run 102
USER: SCORE 17.242920 LL:  -1.781 LR: -16.348 RR:   0.000 FEB: -10.979
USER: RMSD 7.952245
USER: SEED 101
USER: STATUS no improvement in best in 7 clusters for 5 generations
USER: GENES 20
USER: genes 0 Translation |==|  0.52090 0.34038 0.46306
USER: genes 1 Rotation |==|  0.06799 0.66477 0.57403 0.67531
USER: genes 2 Torsion [CB]-CA--N-[C] |==|  0.12920
USER: genes 3 Torsion [N]-C--CA-[N] |==|  0.40022
USER: genes 4 Torsion [C]-CA--N-[H2] |==|  0.07824
USER: genes 5 Torsion [C]-CA--CB-[CG] |==|  0.38877
USER: genes 6 Torsion [CA]-CB--CG-[CD] |==|  0.34359
USER: genes 7 Torsion [CB]-CG--CD-[NE] |==|  0.81915
USER: genes 8 Torsion [CG]-CD--NE-[HE] |==|  0.07687
USER: genes 9 Torsion [N]-CA--CB-[CG1] |==|  0.50738
USER: genes 10 Torsion [CA]-CB--CG1-[CD1] |==|  0.63846
USER: genes 11 Torsion [N]-CA--C-[N] |==|  0.68322
USER: genes 12 Torsion [C]-N--CA-[CB] |==|  0.85876
USER: genes 13 Torsion [N]-CA--CB-[CG] |==|  0.67942
USER: genes 14 Torsion [CA]-CB--CG-[CD1] |==|  0.14566
USER: genes 15 Torsion [N]-CA--C-[N] |==|  0.34126
USER: genes 16 Torsion [C]-N--CA-[C] |==|  0.78931
USER: genes 17 Torsion [N]-CA--CB-[OG] |==|  0.97625
USER: genes 18 Torsion [CA]-CB--OG-[HG] |==|  0.64806
USER: genes 19 Torsion [N]-CA--C-[O] |==|  0.93228
ROOT
ATOM      1  CA  ILE B   2      16.730  -0.287   7.255  1.00 20.94 LIG 0.18  C 
ENDROOT
BRANCH 1 2
ATOM      2  N   ILE B   2      15.376   0.214   7.492  1.00 18.61 LIG-0.35  N 
ATOM      3  C   ARG B   1      15.015   0.698   8.679  1.00 17.10 LIG 0.25  C 
ATOM      4 O    ARG B   1      15.766   0.691   9.656  1.00 15.59 LIG-0.27  OA
ATOM      5 H    ILE B   2      14.853   0.167   6.811  1.00 18.61 LIG 0.16  HD
BRANCH 3 6
ATOM      6  CA  ARG B   1      13.610   1.288   8.771  1.00 16.65 LIG 0.27  C 
BRANCH 6 7
ATOM      7  N   ARG B   1      13.029   0.985  10.108  1.00 15.45 LIG-0.07  N 
ATOM      8 H2   ARG B   1      13.684   0.906  10.705  1.00 15.45 LIG 0.28  HD
ATOM      9 H1   ARG B   1      12.571   0.224  10.067  1.00 15.45 LIG 0.28  HD
ATOM     10 H3   ARG B   1      12.485   1.646  10.353  1.00 15.45 LIG 0.28  HD
ENDBRANCH 6 7
BRANCH 6 11
ATOM     11  CB  ARG B   1      13.666   2.809   8.529  1.00 15.91 LIG 0.04  C 
BRANCH 11 12
ATOM     12  CG  ARG B   1      12.521   3.385   7.677  1.00 15.51 LIG 0.02  C 
BRANCH 12 13
ATOM     13  CD  ARG B   1      11.774   4.496   8.412  1.00 16.55 LIG 0.14  C 
BRANCH 13 14
ATOM     14  NE  ARG B   1      11.088   3.975   9.596  1.00 17.87 LIG-0.23  N 
ATOM     15  CZ  ARG B   1       9.987   4.494  10.134  1.00 16.76 LIG 0.67  C 
ATOM     16  NH1 ARG B   1       9.406   5.583   9.626  1.00 17.21 LIG-0.23  N 
ATOM     17  NH2 ARG B   1       9.447   3.904  11.201  1.00 19.77 LIG-0.23  N 
ATOM     18 1HH1 ARG B   1       9.743   5.967   8.935  1.00 17.21 LIG 0.17  HD
ATOM     19 2HH1 ARG B   1       8.695   5.900   9.991  1.00 17.21 LIG 0.17  HD
ATOM     20 1HH2 ARG B   1       9.810   3.198  11.532  1.00 19.77 LIG 0.17  HD
ATOM     21 2HH2 ARG B   1       8.736   4.229  11.559  1.00 19.77 LIG 0.17  HD
ATOM     22 HE   ARG B   1      11.423   3.278   9.974  1.00 17.87 LIG 0.18  HD
ENDBRANCH 13 14
ENDBRANCH 12 13
ENDBRANCH 11 12
ENDBRANCH 6 11
ENDBRANCH 3 6
ENDBRANCH 1 2
BRANCH 1 23
ATOM     23  CB  ILE B   2      17.191  -1.222   8.400  1.00 21.16 LIG 0.01  C 
ATOM     24  CG2 ILE B   2      16.256  -2.427   8.534  1.00 22.94 LIG 0.01  C 
BRANCH 23 25
ATOM     25  CG1 ILE B   2      18.641  -1.676   8.151  1.00 22.14 LIG 0.00  C 
ATOM     26  CD1 ILE B   2      18.886  -3.197   8.260  1.00 22.60 LIG 0.01  C 
ENDBRANCH 23 25
ENDBRANCH 1 23
BRANCH 1 27
ATOM     27  C   ILE B   2      16.794  -0.968   5.882  1.00 21.53 LIG 0.24  C 
ATOM     28 O    ILE B   2      16.674  -0.295   4.857  1.00 21.64 LIG-0.27  OA
ATOM     29  N   PHE B   3      17.018  -2.287   5.864  1.00 22.69 LIG-0.35  N 
ATOM     30 H    PHE B   3      17.106  -2.770   6.570  1.00 22.69 LIG 0.16  HD
BRANCH 29 31
ATOM     31  CA  PHE B   3      17.133  -3.030   4.606  1.00 23.79 LIG 0.18  C 
BRANCH 31 32
ATOM     32  CB  PHE B   3      15.954  -2.735   3.678  1.00 24.86 LIG 0.07  C 
BRANCH 32 33
ATOM     33  CG  PHE B   3      15.082  -3.935   3.408  1.00 25.20 LIG-0.06  A 
ATOM     34  CD1 PHE B   3      14.568  -4.683   4.462  1.00 28.30 LIG 0.01  A 
ATOM     35  CE1 PHE B   3      13.754  -5.790   4.219  1.00 27.60 LIG 0.00  A 
ATOM     36  CZ  PHE B   3      13.441  -6.159   2.912  1.00 28.67 LIG 0.00  A 
ATOM     37  CE2 PHE B   3      13.940  -5.413   1.839  1.00 27.98 LIG 0.00  A 
ATOM     38  CD2 PHE B   3      14.761  -4.304   2.096  1.00 26.62 LIG 0.01  A 
ENDBRANCH 32 33
ENDBRANCH 31 32
BRANCH 31 39
ATOM     39  C   PHE B   3      18.449  -2.739   3.884  1.00 24.64 LIG 0.24  C 
ATOM     40 O    PHE B   3      18.757  -1.589   3.580  1.00 24.93 LIG-0.27  OA
ATOM     41  N   SER B   4      19.212  -3.794   3.623  1.00 25.11 LIG-0.34  N 
ATOM     42 H    SER B   4      18.995  -4.605   3.810  1.00 25.11 LIG 0.16  HD
BRANCH 41 43
ATOM     43  CA  SER B   4      20.511  -3.646   2.982  1.00 25.84 LIG 0.19  C 
BRANCH 43 44
ATOM     44  CB  SER B   4      21.354  -4.906   3.196  1.00 26.02 LIG 0.20  C 
BRANCH 44 45
ATOM     45 OG   SER B   4      20.724  -5.784   4.115  1.00 27.92 LIG-0.40  OA
ATOM     46 HG   SER B   4      21.262  -5.978   4.731  1.00 27.92 LIG 0.21  HD
ENDBRANCH 44 45
ENDBRANCH 43 44
BRANCH 43 47
ATOM     47  C   SER B   4      20.332  -3.374   1.496  1.00 25.91 LIG 0.22  C 
ATOM     48 O    SER B   4      19.317  -3.728   0.913  1.00 25.66 LIG-0.29  OA
ENDBRANCH 43 47
ENDBRANCH 41 43
ENDBRANCH 31 39
ENDBRANCH 29 31
ENDBRANCH 1 27
TORSDOF 18
ENDMDL
MODEL 12
USER: ADFR SOLUTION from run 84
USER: SCORE 17.271902 LL:  -2.250 LR: -16.319 RR:   0.000 FEB: -10.949
USER: RMSD 7.633285
USER: SEED 83
USER: STATUS 1 or 2 clusters left
USER: GENES 20
USER: genes 0 Translation |==|  0.50679 0.43739 0.41180
USER: genes 1 Rotation |==|  0.95947 0.36587 0.36011 0.53650
USER: genes 2 Torsion [CB]-CA--N-[C] |==|  0.89144
USER: genes 3 Torsion [N]-C--CA-[N] |==|  0.45834
USER: genes 4 Torsion [C]-CA--N-[H2] |==|  0.73143
USER: genes 5 Torsion [C]-CA--CB-[CG] |==|  0.35613
USER: genes 6 Torsion [CA]-CB--CG-[CD] |==|  0.86615
USER: genes 7 Torsion [CB]-CG--CD-[NE] |==|  0.44802
USER: genes 8 Torsion [CG]-CD--NE-[HE] |==|  0.84929
USER: genes 9 Torsion [N]-CA--CB-[CG1] |==|  0.81461
USER: genes 10 Torsion [CA]-CB--CG1-[CD1] |==|  0.92861
USER: genes 11 Torsion [N]-CA--C-[N] |==|  0.93889
USER: genes 12 Torsion [C]-N--CA-[CB] |==|  0.88070
USER: genes 13 Torsion [N]-CA--CB-[CG] |==|  0.57448
USER: genes 14 Torsion [CA]-CB--CG-[CD1] |==|  0.96987
USER: genes 15 Torsion [N]-CA--C-[N] |==|  0.86931
USER: genes 16 Torsion [C]-N--CA-[C] |==|  0.73069
USER: genes 17 Torsion [N]-CA--CB-[OG] |==|  0.48090
USER: genes 18 Torsion [CA]-CB--OG-[HG] |==|  0.02273
USER: genes 19 Torsion [N]-CA--C-[O] |==|  0.28592
ROOT
ATOM      1  CA  ILE B   2      16.370   1.386   6.448  1.00 20.94 LIG 0.18  C 
ENDROOT
BRANCH 1 2
ATOM      2  N   ILE B   2      15.069   1.669   7.056  1.00 18.61 LIG-0.35  N 
ATOM      3  C   ARG B   1      14.794   1.298   8.305  1.00 17.10 LIG 0.25  C 
ATOM      4 O    ARG B   1      15.580   0.644   8.992  1.00 15.59 LIG-0.27  OA
ATOM      5 H    ILE B   2      14.518   2.085   6.544  1.00 18.61 LIG 0.16  HD
BRANCH 3 6
ATOM      6  CA  ARG B   1      13.443   1.743   8.861  1.00 16.65 LIG 0.27  C 
BRANCH 6 7
ATOM      7  N   ARG B   1      13.132   0.966  10.092  1.00 15.45 LIG-0.07  N 
ATOM      8 H2   ARG B   1      12.604   0.281   9.884  1.00 15.45 LIG 0.28  HD
ATOM      9 H1   ARG B   1      12.719   1.492  10.678  1.00 15.45 LIG 0.28  HD
ATOM     10 H3   ARG B   1      13.887   0.660  10.450  1.00 15.45 LIG 0.28  HD
ENDBRANCH 6 7
BRANCH 6 11
ATOM     11  CB  ARG B   1      13.476   3.255   9.160  1.00 15.91 LIG 0.04  C 
BRANCH 11 12
ATOM     12  CG  ARG B   1      12.325   4.073   8.547  1.00 15.51 LIG 0.02  C 
BRANCH 12 13
ATOM     13  CD  ARG B   1      12.124   3.744   7.068  1.00 16.55 LIG 0.14  C 
BRANCH 13 14
ATOM     14  NE  ARG B   1      10.798   4.166   6.611  1.00 17.87 LIG-0.23  N 
ATOM     15  CZ  ARG B   1      10.564   4.960   5.569  1.00 16.76 LIG 0.67  C 
ATOM     16  NH1 ARG B   1      11.560   5.467   4.838  1.00 17.21 LIG-0.23  N 
ATOM     17  NH2 ARG B   1       9.304   5.247   5.243  1.00 19.77 LIG-0.23  N 
ATOM     18 1HH1 ARG B   1      12.376   5.283   5.037  1.00 17.21 LIG 0.17  HD
ATOM     19 2HH1 ARG B   1      11.384   5.978   4.169  1.00 17.21 LIG 0.17  HD
ATOM     20 1HH2 ARG B   1       8.655   4.920   5.704  1.00 19.77 LIG 0.17  HD
ATOM     21 2HH2 ARG B   1       9.138   5.759   4.572  1.00 19.77 LIG 0.17  HD
ATOM     22 HE   ARG B   1      10.118   3.878   7.051  1.00 17.87 LIG 0.18  HD
ENDBRANCH 13 14
ENDBRANCH 12 13
ENDBRANCH 11 12
ENDBRANCH 6 11
ENDBRANCH 3 6
ENDBRANCH 1 2
BRANCH 1 23
ATOM     23  CB  ILE B   2      17.520   1.577   7.467  1.00 21.16 LIG 0.01  C 
ATOM     24  CG2 ILE B   2      18.844   1.053   6.904  1.00 22.94 LIG 0.01  C 
BRANCH 23 25
ATOM     25  CG1 ILE B   2      17.635   3.063   7.851  1.00 22.14 LIG 0.00  C 
ATOM     26  CD1 ILE B   2      17.116   4.063   6.794  1.00 22.60 LIG 0.01  C 
ENDBRANCH 23 25
ENDBRANCH 1 23
BRANCH 1 27
ATOM     27  C   ILE B   2      16.358  -0.020   5.835  1.00 21.53 LIG 0.24  C 
ATOM     28 O    ILE B   2      17.182  -0.320   4.969  1.00 21.64 LIG-0.27  OA
ATOM     29  N   PHE B   3      15.451  -0.884   6.307  1.00 22.69 LIG-0.35  N 
ATOM     30 H    PHE B   3      14.872  -0.690   6.912  1.00 22.69 LIG 0.16  HD
BRANCH 29 31
ATOM     31  CA  PHE B   3      15.376  -2.263   5.816  1.00 23.79 LIG 0.18  C 
BRANCH 31 32
ATOM     32  CB  PHE B   3      15.519  -2.319   4.295  1.00 24.86 LIG 0.07  C 
BRANCH 32 33
ATOM     33  CG  PHE B   3      14.845  -3.513   3.668  1.00 25.20 LIG-0.06  A 
ATOM     34  CD1 PHE B   3      14.370  -4.551   4.462  1.00 28.30 LIG 0.01  A 
ATOM     35  CE1 PHE B   3      13.738  -5.655   3.888  1.00 27.60 LIG 0.00  A 
ATOM     36  CZ  PHE B   3      13.571  -5.729   2.507  1.00 28.67 LIG 0.00  A 
ATOM     37  CE2 PHE B   3      14.033  -4.691   1.692  1.00 27.98 LIG 0.00  A 
ATOM     38  CD2 PHE B   3      14.671  -3.587   2.280  1.00 26.62 LIG 0.01  A 
ENDBRANCH 32 33
ENDBRANCH 31 32
BRANCH 31 39
ATOM     39  C   PHE B   3      16.422  -3.165   6.471  1.00 24.64 LIG 0.24  C 
ATOM     40 O    PHE B   3      16.112  -4.268   6.915  1.00 24.93 LIG-0.27  OA
ATOM     41  N   SER B   4      17.657  -2.679   6.518  1.00 25.11 LIG-0.34  N 
ATOM     42 H    SER B   4      17.880  -1.899   6.233  1.00 25.11 LIG 0.16  HD
BRANCH 41 43
ATOM     43  CA  SER B   4      18.755  -3.458   7.073  1.00 25.84 LIG 0.19  C 
BRANCH 43 44
ATOM     44  CB  SER B   4      20.026  -3.248   6.246  1.00 26.02 LIG 0.20  C 
BRANCH 44 45
ATOM     45 OG   SER B   4      21.139  -3.874   6.865  1.00 27.92 LIG-0.40  OA
ATOM     46 HG   SER B   4      20.875  -4.338   7.513  1.00 27.92 LIG 0.21  HD
ENDBRANCH 44 45
ENDBRANCH 43 44
BRANCH 43 47
ATOM     47  C   SER B   4      18.995  -3.062   8.523  1.00 25.91 LIG 0.22  C 
ATOM     48 O    SER B   4      18.604  -3.773   9.439  1.00 25.66 LIG-0.29  OA
ENDBRANCH 43 47
ENDBRANCH 41 43
ENDBRANCH 31 39
ENDBRANCH 29 31
ENDBRANCH 1 27
TORSDOF 18
ENDMDL
MODEL 13
USER: ADFR SOLUTION from run 19
USER: SCORE 17.695428 LL:  -2.284 LR: -16.275 RR:   0.000 FEB: -10.905
USER: RMSD 7.531340
USER: SEED 18
USER: STATUS 1 or 2 clusters left
USER: GENES 20
USER: genes 0 Translation |==|  0.49535 0.45111 0.43194
USER: genes 1 Rotation |==|  0.97244 0.38517 0.38565 0.52308
USER: genes 2 Torsion [CB]-CA--N-[C] |==|  0.21580
USER: genes 3 Torsion [N]-C--CA-[N] |==|  0.14523
USER: genes 4 Torsion [C]-CA--N-[H2] |==|  0.05320
USER: genes 5 Torsion [C]-CA--CB-[CG] |==|  0.26799
USER: genes 6 Torsion [CA]-CB--CG-[CD] |==|  0.14180
USER: genes 7 Torsion [CB]-CG--CD-[NE] |==|  0.50228
USER: genes 8 Torsion [CG]-CD--NE-[HE] |==|  0.15139
USER: genes 9 Torsion [N]-CA--CB-[CG1] |==|  0.07761
USER: genes 10 Torsion [CA]-CB--CG1-[CD1] |==|  0.15126
USER: genes 11 Torsion [N]-CA--C-[N] |==|  0.93333
USER: genes 12 Torsion [C]-N--CA-[CB] |==|  0.85968
USER: genes 13 Torsion [N]-CA--CB-[CG] |==|  0.58396
USER: genes 14 Torsion [CA]-CB--CG-[CD1] |==|  0.02186
USER: genes 15 Torsion [N]-CA--C-[N] |==|  0.89055
USER: genes 16 Torsion [C]-N--CA-[C] |==|  0.14895
USER: genes 17 Torsion [N]-CA--CB-[OG] |==|  0.89576
USER: genes 18 Torsion [CA]-CB--OG-[HG] |==|  0.59286
USER: genes 19 Torsion [N]-CA--C-[O] |==|  0.49761
ROOT
ATOM      1  CA  ILE B   2      16.078   1.623   6.765  1.00 20.94 LIG 0.18  C 
ENDROOT
BRANCH 1 2
ATOM      2  N   ILE B   2      14.698   1.776   7.226  1.00 18.61 LIG-0.35  N 
ATOM      3  C   ARG B   1      14.165   2.980   7.425  1.00 17.10 LIG 0.25  C 
ATOM      4 O    ARG B   1      14.811   4.022   7.301  1.00 15.59 LIG-0.27  OA
ATOM      5 H    ILE B   2      14.278   1.036   7.351  1.00 18.61 LIG 0.16  HD
BRANCH 3 6
ATOM      6  CA  ARG B   1      12.685   3.012   7.803  1.00 16.65 LIG 0.27  C 
BRANCH 6 7
ATOM      7  N   ARG B   1      12.448   2.108   8.962  1.00 15.45 LIG-0.07  N 
ATOM      8 H2   ARG B   1      13.219   1.949   9.376  1.00 15.45 LIG 0.28  HD
ATOM      9 H1   ARG B   1      12.102   1.341   8.674  1.00 15.45 LIG 0.28  HD
ATOM     10 H3   ARG B   1      11.881   2.494   9.529  1.00 15.45 LIG 0.28  HD
ENDBRANCH 6 7
BRANCH 6 11
ATOM     11  CB  ARG B   1      12.263   4.456   8.136  1.00 15.91 LIG 0.04  C 
BRANCH 11 12
ATOM     12  CG  ARG B   1      11.602   5.233   6.984  1.00 15.51 LIG 0.02  C 
BRANCH 12 13
ATOM     13  CD  ARG B   1      10.458   4.442   6.352  1.00 16.55 LIG 0.14  C 
BRANCH 13 14
ATOM     14  NE  ARG B   1       9.852   5.185   5.246  1.00 17.87 LIG-0.23  N 
ATOM     15  CZ  ARG B   1       8.557   5.474   5.136  1.00 16.76 LIG 0.67  C 
ATOM     16  NH1 ARG B   1       7.672   5.081   6.053  1.00 17.21 LIG-0.23  N 
ATOM     17  NH2 ARG B   1       8.139   6.183   4.086  1.00 19.77 LIG-0.23  N 
ATOM     18 1HH1 ARG B   1       7.933   4.629   6.736  1.00 17.21 LIG 0.17  HD
ATOM     19 2HH1 ARG B   1       6.840   5.280   5.961  1.00 17.21 LIG 0.17  HD
ATOM     20 1HH2 ARG B   1       8.703   6.446   3.493  1.00 19.77 LIG 0.17  HD
ATOM     21 2HH2 ARG B   1       7.306   6.377   4.002  1.00 19.77 LIG 0.17  HD
ATOM     22 HE   ARG B   1      10.373   5.456   4.618  1.00 17.87 LIG 0.18  HD
ENDBRANCH 13 14
ENDBRANCH 12 13
ENDBRANCH 11 12
ENDBRANCH 6 11
ENDBRANCH 3 6
ENDBRANCH 1 2
BRANCH 1 23
ATOM     23  CB  ILE B   2      17.084   1.845   7.921  1.00 21.16 LIG 0.01  C 
ATOM     24  CG2 ILE B   2      17.586   3.292   7.940  1.00 22.94 LIG 0.01  C 
BRANCH 23 25
ATOM     25  CG1 ILE B   2      16.427   1.474   9.263  1.00 22.14 LIG 0.00  C 
ATOM     26  CD1 ILE B   2      15.828   0.052   9.336  1.00 22.60 LIG 0.01  C 
ENDBRANCH 23 25
ENDBRANCH 1 23
BRANCH 1 27
ATOM     27  C   ILE B   2      16.249   0.253   6.096  1.00 21.53 LIG 0.24  C 
ATOM     28 O    ILE B   2      17.167   0.071   5.294  1.00 21.64 LIG-0.27  OA
ATOM     29  N   PHE B   3      15.391  -0.711   6.450  1.00 22.69 LIG-0.35  N 
ATOM     30 H    PHE B   3      14.747  -0.600   7.009  1.00 22.69 LIG 0.16  HD
BRANCH 29 31
ATOM     31  CA  PHE B   3      15.486  -2.066   5.898  1.00 23.79 LIG 0.18  C 
BRANCH 31 32
ATOM     32  CB  PHE B   3      15.573  -2.037   4.371  1.00 24.86 LIG 0.07  C 
BRANCH 32 33
ATOM     33  CG  PHE B   3      14.971  -3.250   3.709  1.00 25.20 LIG-0.06  A 
ATOM     34  CD1 PHE B   3      14.263  -4.183   4.459  1.00 28.30 LIG 0.01  A 
ATOM     35  CE1 PHE B   3      13.696  -5.304   3.850  1.00 27.60 LIG 0.00  A 
ATOM     36  CZ  PHE B   3      13.830  -5.501   2.477  1.00 28.67 LIG 0.00  A 
ATOM     37  CE2 PHE B   3      14.530  -4.569   1.705  1.00 27.98 LIG 0.00  A 
ATOM     38  CD2 PHE B   3      15.099  -3.447   2.329  1.00 26.62 LIG 0.01  A 
ENDBRANCH 32 33
ENDBRANCH 31 32
BRANCH 31 39
ATOM     39  C   PHE B   3      16.673  -2.839   6.473  1.00 24.64 LIG 0.24  C 
ATOM     40 O    PHE B   3      16.572  -4.033   6.745  1.00 24.93 LIG-0.27  OA
ATOM     41  N   SER B   4      17.790  -2.142   6.647  1.00 25.11 LIG-0.34  N 
ATOM     42 H    SER B   4      17.864  -1.301   6.483  1.00 25.11 LIG 0.16  HD
BRANCH 41 43
ATOM     43  CA  SER B   4      19.005  -2.772   7.143  1.00 25.84 LIG 0.19  C 
BRANCH 43 44
ATOM     44  CB  SER B   4      18.828  -3.187   8.605  1.00 26.02 LIG 0.20  C 
BRANCH 44 45
ATOM     45 OG   SER B   4      18.065  -2.224   9.314  1.00 27.92 LIG-0.40  OA
ATOM     46 HG   SER B   4      18.333  -2.183  10.109  1.00 27.92 LIG 0.21  HD
ENDBRANCH 44 45
ENDBRANCH 43 44
BRANCH 43 47
ATOM     47  C   SER B   4      19.353  -3.980   6.286  1.00 25.91 LIG 0.22  C 
ATOM     48 O    SER B   4      20.352  -4.647   6.522  1.00 25.66 LIG-0.29  OA
ENDBRANCH 43 47
ENDBRANCH 41 43
ENDBRANCH 31 39
ENDBRANCH 29 31
ENDBRANCH 1 27
TORSDOF 18
ENDMDL
MODEL 14
USER: ADFR SOLUTION from run 181
USER: SCORE 18.500882 LL:  -2.601 LR: -16.256 RR:   0.000 FEB: -10.886
USER: RMSD 5.864711
USER: SEED 180
USER: STATUS searching
USER: GENES 20
USER: genes 0 Translation |==|  0.51641 0.43206 0.46548
USER: genes 1 Rotation |==|  0.97220 0.39695 0.43250 0.60885
USER: genes 2 Torsion [CB]-CA--N-[C] |==|  0.86627
USER: genes 3 Torsion [N]-C--CA-[N] |==|  0.53050
USER: genes 4 Torsion [C]-CA--N-[H2] |==|  0.98080
USER: genes 5 Torsion [C]-CA--CB-[CG] |==|  0.80916
USER: genes 6 Torsion [CA]-CB--CG-[CD] |==|  0.67241
USER: genes 7 Torsion [CB]-CG--CD-[NE] |==|  0.12568
USER: genes 8 Torsion [CG]-CD--NE-[HE] |==|  0.04803
USER: genes 9 Torsion [N]-CA--CB-[CG1] |==|  0.86968
USER: genes 10 Torsion [CA]-CB--CG1-[CD1] |==|  0.36091
USER: genes 11 Torsion [N]-CA--C-[N] |==|  0.86877
USER: genes 12 Torsion [C]-N--CA-[CB] |==|  0.85549
USER: genes 13 Torsion [N]-CA--CB-[CG] |==|  0.34735
USER: genes 14 Torsion [CA]-CB--CG-[CD1] |==|  0.74659
USER: genes 15 Torsion [N]-CA--C-[N] |==|  0.92778
USER: genes 16 Torsion [C]-N--CA-[C] |==|  0.55325
USER: genes 17 Torsion [N]-CA--CB-[OG] |==|  0.80492
USER: genes 18 Torsion [CA]-CB--OG-[HG] |==|  0.83680
USER: genes 19 Torsion [N]-CA--C-[O] |==|  0.16000
ROOT
ATOM      1  CA  ILE B   2      16.615   1.294   7.293  1.00 20.94 LIG 0.18  C 
ENDROOT
BRANCH 1 2
ATOM      2  N   ILE B   2      15.182   1.393   7.571  1.00 18.61 LIG-0.35  N 
ATOM      3  C   ARG B   1      14.693   1.147   8.785  1.00 17.10 LIG 0.25  C 
ATOM      4 O    ARG B   1      15.398   0.761   9.719  1.00 15.59 LIG-0.27  OA
ATOM      5 H    ILE B   2      14.702   1.619   6.894  1.00 18.61 LIG 0.16  HD
BRANCH 3 6
ATOM      6  CA  ARG B   1      13.197   1.388   8.974  1.00 16.65 LIG 0.27  C 
BRANCH 6 7
ATOM      7  N   ARG B   1      12.863   1.327  10.424  1.00 15.45 LIG-0.07  N 
ATOM      8 H2   ARG B   1      13.579   1.065  10.882  1.00 15.45 LIG 0.28  HD
ATOM      9 H1   ARG B   1      12.200   0.748  10.551  1.00 15.45 LIG 0.28  HD
ATOM     10 H3   ARG B   1      12.611   2.134  10.705  1.00 15.45 LIG 0.28  HD
ENDBRANCH 6 7
BRANCH 6 11
ATOM     11  CB  ARG B   1      12.809   2.754   8.377  1.00 15.91 LIG 0.04  C 
BRANCH 11 12
ATOM     12  CG  ARG B   1      13.358   3.981   9.126  1.00 15.51 LIG 0.02  C 
BRANCH 12 13
ATOM     13  CD  ARG B   1      12.233   4.855   9.681  1.00 16.55 LIG 0.14  C 
BRANCH 13 14
ATOM     14  NE  ARG B   1      11.207   4.039  10.332  1.00 17.87 LIG-0.23  N 
ATOM     15  CZ  ARG B   1       9.972   4.446  10.619  1.00 16.76 LIG 0.67  C 
ATOM     16  NH1 ARG B   1       9.561   5.684  10.337  1.00 17.21 LIG-0.23  N 
ATOM     17  NH2 ARG B   1       9.125   3.591  11.192  1.00 19.77 LIG-0.23  N 
ATOM     18 1HH1 ARG B   1      10.098   6.241   9.962  1.00 17.21 LIG 0.17  HD
ATOM     19 2HH1 ARG B   1       8.759   5.925  10.531  1.00 17.21 LIG 0.17  HD
ATOM     20 1HH2 ARG B   1       9.379   2.789  11.372  1.00 19.77 LIG 0.17  HD
ATOM     21 2HH2 ARG B   1       8.324   3.841  11.383  1.00 19.77 LIG 0.17  HD
ATOM     22 HE   ARG B   1      11.418   3.233  10.547  1.00 17.87 LIG 0.18  HD
ENDBRANCH 13 14
ENDBRANCH 12 13
ENDBRANCH 11 12
ENDBRANCH 6 11
ENDBRANCH 3 6
ENDBRANCH 1 2
BRANCH 1 23
ATOM     23  CB  ILE B   2      17.447   2.044   8.362  1.00 21.16 LIG 0.01  C 
ATOM     24  CG2 ILE B   2      18.915   2.152   7.938  1.00 22.94 LIG 0.01  C 
BRANCH 23 25
ATOM     25  CG1 ILE B   2      16.843   3.438   8.609  1.00 22.14 LIG 0.00  C 
ATOM     26  CD1 ILE B   2      16.598   3.801  10.091  1.00 22.60 LIG 0.01  C 
ENDBRANCH 23 25
ENDBRANCH 1 23
BRANCH 1 27
ATOM     27  C   ILE B   2      17.015  -0.181   7.169  1.00 21.53 LIG 0.24  C 
ATOM     28 O    ILE B   2      17.741  -0.545   6.242  1.00 21.64 LIG-0.27  OA
ATOM     29  N   PHE B   3      16.573  -1.016   8.117  1.00 22.69 LIG-0.35  N 
ATOM     30 H    PHE B   3      16.068  -0.777   8.770  1.00 22.69 LIG 0.16  HD
BRANCH 29 31
ATOM     31  CA  PHE B   3      16.925  -2.439   8.113  1.00 23.79 LIG 0.18  C 
BRANCH 31 32
ATOM     32  CB  PHE B   3      16.619  -3.083   6.760  1.00 24.86 LIG 0.07  C 
BRANCH 32 33
ATOM     33  CG  PHE B   3      17.805  -3.774   6.137  1.00 25.20 LIG-0.06  A 
ATOM     34  CD1 PHE B   3      18.649  -3.085   5.273  1.00 28.30 LIG 0.01  A 
ATOM     35  CE1 PHE B   3      19.753  -3.718   4.701  1.00 27.60 LIG 0.00  A 
ATOM     36  CZ  PHE B   3      20.027  -5.052   4.991  1.00 28.67 LIG 0.00  A 
ATOM     37  CE2 PHE B   3      19.196  -5.760   5.866  1.00 27.98 LIG 0.00  A 
ATOM     38  CD2 PHE B   3      18.086  -5.114   6.433  1.00 26.62 LIG 0.01  A 
ENDBRANCH 32 33
ENDBRANCH 31 32
BRANCH 31 39
ATOM     39  C   PHE B   3      18.391  -2.670   8.479  1.00 24.64 LIG 0.24  C 
ATOM     40 O    PHE B   3      18.754  -3.732   8.979  1.00 24.93 LIG-0.27  OA
ATOM     41  N   SER B   4      19.218  -1.664   8.220  1.00 25.11 LIG-0.34  N 
ATOM     42 H    SER B   4      18.971  -0.908   7.893  1.00 25.11 LIG 0.16  HD
BRANCH 41 43
ATOM     43  CA  SER B   4      20.647  -1.775   8.478  1.00 25.84 LIG 0.19  C 
BRANCH 43 44
ATOM     44  CB  SER B   4      21.321  -2.608   7.386  1.00 26.02 LIG 0.20  C 
BRANCH 44 45
ATOM     45 OG   SER B   4      20.946  -3.973   7.489  1.00 27.92 LIG-0.40  OA
ATOM     46 HG   SER B   4      21.163  -4.267   8.246  1.00 27.92 LIG 0.21  HD
ENDBRANCH 44 45
ENDBRANCH 43 44
BRANCH 43 47
ATOM     47  C   SER B   4      21.273  -0.389   8.550  1.00 25.91 LIG 0.22  C 
ATOM     48 O    SER B   4      20.870   0.438   9.357  1.00 25.66 LIG-0.29  OA
ENDBRANCH 43 47
ENDBRANCH 41 43
ENDBRANCH 31 39
ENDBRANCH 29 31
ENDBRANCH 1 27
TORSDOF 18
ENDMDL
MODEL 15
USER: ADFR SOLUTION from run 136
USER: SCORE 16.509433 LL:  -2.413 LR: -16.204 RR:   0.000 FEB: -10.834
USER: RMSD 7.175529
USER: SEED 135
USER: STATUS no improvement in best in 6 clusters for 5 generations
USER: GENES 20
USER: genes 0 Translation |==|  0.50017 0.47927 0.45332
USER: genes 1 Rotation |==|  0.02668 0.59946 0.56749 0.60733
USER: genes 2 Torsion [CB]-CA--N-[C] |==|  0.23133
USER: genes 3 Torsion [N]-C--CA-[N] |==|  0.14507
USER: genes 4 Torsion [C]-CA--N-[H2] |==|  0.23906
USER: genes 5 Torsion [C]-CA--CB-[CG] |==|  0.54776
USER: genes 6 Torsion [CA]-CB--CG-[CD] |==|  0.90425
USER: genes 7 Torsion [CB]-CG--CD-[NE] |==|  0.72379
USER: genes 8 Torsion [CG]-CD--NE-[HE] |==|  0.74908
USER: genes 9 Torsion [N]-CA--CB-[CG1] |==|  0.05893
USER: genes 10 Torsion [CA]-CB--CG1-[CD1] |==|  0.23857
USER: genes 11 Torsion [N]-CA--C-[N] |==|  0.88331
USER: genes 12 Torsion [C]-N--CA-[CB] |==|  0.15010
USER: genes 13 Torsion [N]-CA--CB-[CG] |==|  0.23064
USER: genes 14 Torsion [CA]-CB--CG-[CD1] |==|  0.28567
USER: genes 15 Torsion [N]-CA--C-[N] |==|  0.36709
USER: genes 16 Torsion [C]-N--CA-[C] |==|  0.82549
USER: genes 17 Torsion [N]-CA--CB-[OG] |==|  0.08701
USER: genes 18 Torsion [CA]-CB--OG-[HG] |==|  0.67678
USER: genes 19 Torsion [N]-CA--C-[O] |==|  0.51474
ROOT
ATOM      1  CA  ILE B   2      16.201   2.108   7.102  1.00 20.94 LIG 0.18  C 
ENDROOT
BRANCH 1 2
ATOM      2  N   ILE B   2      14.743   2.206   7.188  1.00 18.61 LIG-0.35  N 
ATOM      3  C   ARG B   1      14.150   3.302   7.658  1.00 17.10 LIG 0.25  C 
ATOM      4 O    ARG B   1      14.782   4.260   8.106  1.00 15.59 LIG-0.27  OA
ATOM      5 H    ILE B   2      14.322   1.509   6.914  1.00 18.61 LIG 0.16  HD
BRANCH 3 6
ATOM      6  CA  ARG B   1      12.624   3.324   7.598  1.00 16.65 LIG 0.27  C 
BRANCH 6 7
ATOM      7  N   ARG B   1      12.084   2.091   8.233  1.00 15.45 LIG-0.07  N 
ATOM      8 H2   ARG B   1      12.006   2.218   9.110  1.00 15.45 LIG 0.28  HD
ATOM      9 H1   ARG B   1      12.637   1.411   8.079  1.00 15.45 LIG 0.28  HD
ATOM     10 H3   ARG B   1      11.284   1.906   7.889  1.00 15.45 LIG 0.28  HD
ENDBRANCH 6 7
BRANCH 6 11
ATOM     11  CB  ARG B   1      12.093   4.585   8.307  1.00 15.91 LIG 0.04  C 
BRANCH 11 12
ATOM     12  CG  ARG B   1      10.603   4.548   8.691  1.00 15.51 LIG 0.02  C 
BRANCH 12 13
ATOM     13  CD  ARG B   1       9.774   3.781   7.662  1.00 16.55 LIG 0.14  C 
BRANCH 13 14
ATOM     14  NE  ARG B   1       9.099   4.698   6.742  1.00 17.87 LIG-0.23  N 
ATOM     15  CZ  ARG B   1       9.609   5.148   5.597  1.00 16.76 LIG 0.67  C 
ATOM     16  NH1 ARG B   1      10.830   4.796   5.190  1.00 17.21 LIG-0.23  N 
ATOM     17  NH2 ARG B   1       8.876   5.961   4.837  1.00 19.77 LIG-0.23  N 
ATOM     18 1HH1 ARG B   1      11.308   4.267   5.670  1.00 17.21 LIG 0.17  HD
ATOM     19 2HH1 ARG B   1      11.139   5.099   4.446  1.00 17.21 LIG 0.17  HD
ATOM     20 1HH2 ARG B   1       8.085   6.189   5.088  1.00 19.77 LIG 0.17  HD
ATOM     21 2HH2 ARG B   1       9.193   6.260   4.095  1.00 19.77 LIG 0.17  HD
ATOM     22 HE   ARG B   1       8.311   4.968   6.958  1.00 17.87 LIG 0.18  HD
ENDBRANCH 13 14
ENDBRANCH 12 13
ENDBRANCH 11 12
ENDBRANCH 6 11
ENDBRANCH 3 6
ENDBRANCH 1 2
BRANCH 1 23
ATOM     23  CB  ILE B   2      16.816   1.681   8.457  1.00 21.16 LIG 0.01  C 
ATOM     24  CG2 ILE B   2      17.412   2.885   9.192  1.00 22.94 LIG 0.01  C 
BRANCH 23 25
ATOM     25  CG1 ILE B   2      15.747   0.986   9.319  1.00 22.14 LIG 0.00  C 
ATOM     26  CD1 ILE B   2      15.576  -0.529   9.068  1.00 22.60 LIG 0.01  C 
ENDBRANCH 23 25
ENDBRANCH 1 23
BRANCH 1 27
ATOM     27  C   ILE B   2      16.587   1.162   5.959  1.00 21.53 LIG 0.24  C 
ATOM     28 O    ILE B   2      17.541   1.437   5.228  1.00 21.64 LIG-0.27  OA
ATOM     29  N   PHE B   3      15.873   0.037   5.829  1.00 22.69 LIG-0.35  N 
ATOM     30 H    PHE B   3      15.207  -0.170   6.332  1.00 22.69 LIG 0.16  HD
BRANCH 29 31
ATOM     31  CA  PHE B   3      16.180  -0.954   4.793  1.00 23.79 LIG 0.18  C 
BRANCH 31 32
ATOM     32  CB  PHE B   3      17.645  -1.389   4.858  1.00 24.86 LIG 0.07  C 
BRANCH 32 33
ATOM     33  CG  PHE B   3      17.910  -2.466   5.878  1.00 25.20 LIG-0.06  A 
ATOM     34  CD1 PHE B   3      18.086  -3.787   5.477  1.00 28.30 LIG 0.01  A 
ATOM     35  CE1 PHE B   3      18.340  -4.788   6.416  1.00 27.60 LIG 0.00  A 
ATOM     36  CZ  PHE B   3      18.425  -4.475   7.771  1.00 28.67 LIG 0.00  A 
ATOM     37  CE2 PHE B   3      18.262  -3.152   8.193  1.00 27.98 LIG 0.00  A 
ATOM     38  CD2 PHE B   3      18.003  -2.154   7.240  1.00 26.62 LIG 0.01  A 
ENDBRANCH 32 33
ENDBRANCH 31 32
BRANCH 31 39
ATOM     39  C   PHE B   3      15.269  -2.178   4.880  1.00 24.64 LIG 0.24  C 
ATOM     40 O    PHE B   3      15.072  -2.738   5.955  1.00 24.93 LIG-0.27  OA
ATOM     41  N   SER B   4      14.721  -2.574   3.737  1.00 25.11 LIG-0.34  N 
ATOM     42 H    SER B   4      14.872  -2.205   2.976  1.00 25.11 LIG 0.16  HD
BRANCH 41 43
ATOM     43  CA  SER B   4      13.798  -3.699   3.692  1.00 25.84 LIG 0.19  C 
BRANCH 43 44
ATOM     44  CB  SER B   4      13.228  -3.861   2.281  1.00 26.02 LIG 0.20  C 
BRANCH 44 45
ATOM     45 OG   SER B   4      14.172  -3.448   1.306  1.00 27.92 LIG-0.40  OA
ATOM     46 HG   SER B   4      13.870  -2.785   0.887  1.00 27.92 LIG 0.21  HD
ENDBRANCH 44 45
ENDBRANCH 43 44
BRANCH 43 47
ATOM     47  C   SER B   4      14.506  -4.974   4.128  1.00 25.91 LIG 0.22  C 
ATOM     48 O    SER B   4      13.937  -6.056   4.071  1.00 25.66 LIG-0.29  OA
ENDBRANCH 43 47
ENDBRANCH 41 43
ENDBRANCH 31 39
ENDBRANCH 29 31
ENDBRANCH 1 27
TORSDOF 18
ENDMDL
MODEL 16
USER: ADFR SOLUTION from run 176
USER: SCORE 18.099713 LL:  -2.703 LR: -16.175 RR:   0.000 FEB: -10.805
USER: RMSD 6.565101
USER: SEED 175
USER: STATUS 1 or 2 clusters left
USER: GENES 20
USER: genes 0 Translation |==|  0.51941 0.44654 0.44863
USER: genes 1 Rotation |==|  0.97756 0.41113 0.42820 0.59427
USER: genes 2 Torsion [CB]-CA--N-[C] |==|  0.88333
USER: genes 3 Torsion [N]-C--CA-[N] |==|  0.47550
USER: genes 4 Torsion [C]-CA--N-[H2] |==|  0.69292
USER: genes 5 Torsion [C]-CA--CB-[CG] |==|  0.30541
USER: genes 6 Torsion [CA]-CB--CG-[CD] |==|  0.21623
USER: genes 7 Torsion [CB]-CG--CD-[NE] |==|  0.31005
USER: genes 8 Torsion [CG]-CD--NE-[HE] |==|  0.21672
USER: genes 9 Torsion [N]-CA--CB-[CG1] |==|  0.86396
USER: genes 10 Torsion [CA]-CB--CG1-[CD1] |==|  0.39434
USER: genes 11 Torsion [N]-CA--C-[N] |==|  0.90025
USER: genes 12 Torsion [C]-N--CA-[CB] |==|  0.87761
USER: genes 13 Torsion [N]-CA--CB-[CG] |==|  0.77254
USER: genes 14 Torsion [CA]-CB--CG-[CD1] |==|  0.18616
USER: genes 15 Torsion [N]-CA--C-[N] |==|  0.86451
USER: genes 16 Torsion [C]-N--CA-[C] |==|  0.60538
USER: genes 17 Torsion [N]-CA--CB-[OG] |==|  0.81366
USER: genes 18 Torsion [CA]-CB--OG-[HG] |==|  0.97030
USER: genes 19 Torsion [N]-CA--C-[O] |==|  0.06352
ROOT
ATOM      1  CA  ILE B   2      16.692   1.544   7.028  1.00 20.94 LIG 0.18  C 
ENDROOT
BRANCH 1 2
ATOM      2  N   ILE B   2      15.259   1.556   7.329  1.00 18.61 LIG-0.35  N 
ATOM      3  C   ARG B   1      14.809   1.320   8.559  1.00 17.10 LIG 0.25  C 
ATOM      4 O    ARG B   1      15.553   1.014   9.493  1.00 15.59 LIG-0.27  OA
ATOM      5 H    ILE B   2      14.754   1.725   6.654  1.00 18.61 LIG 0.16  HD
BRANCH 3 6
ATOM      6  CA  ARG B   1      13.303   1.466   8.769  1.00 16.65 LIG 0.27  C 
BRANCH 6 7
ATOM      7  N   ARG B   1      12.939   0.966  10.123  1.00 15.45 LIG-0.07  N 
ATOM      8 H2   ARG B   1      12.473   0.212  10.045  1.00 15.45 LIG 0.28  HD
ATOM      9 H1   ARG B   1      12.447   1.577  10.542  1.00 15.45 LIG 0.28  HD
ATOM     10 H3   ARG B   1      13.680   0.810  10.592  1.00 15.45 LIG 0.28  HD
ENDBRANCH 6 7
BRANCH 6 11
ATOM     11  CB  ARG B   1      12.894   2.942   8.600  1.00 15.91 LIG 0.04  C 
BRANCH 11 12
ATOM     12  CG  ARG B   1      12.070   3.257   7.339  1.00 15.51 LIG 0.02  C 
BRANCH 12 13
ATOM     13  CD  ARG B   1      10.608   2.841   7.501  1.00 16.55 LIG 0.14  C 
BRANCH 13 14
ATOM     14  NE  ARG B   1       9.731   4.012   7.559  1.00 17.87 LIG-0.23  N 
ATOM     15  CZ  ARG B   1       9.202   4.518   8.671  1.00 16.76 LIG 0.67  C 
ATOM     16  NH1 ARG B   1       9.425   3.966   9.866  1.00 17.21 LIG-0.23  N 
ATOM     17  NH2 ARG B   1       8.438   5.607   8.587  1.00 19.77 LIG-0.23  N 
ATOM     18 1HH1 ARG B   1       9.921   3.267   9.931  1.00 17.21 LIG 0.17  HD
ATOM     19 2HH1 ARG B   1       9.072   4.311  10.570  1.00 17.21 LIG 0.17  HD
ATOM     20 1HH2 ARG B   1       8.293   5.973   7.822  1.00 19.77 LIG 0.17  HD
ATOM     21 2HH2 ARG B   1       8.089   5.944   9.297  1.00 19.77 LIG 0.17  HD
ATOM     22 HE   ARG B   1       9.543   4.404   6.817  1.00 17.87 LIG 0.18  HD
ENDBRANCH 13 14
ENDBRANCH 12 13
ENDBRANCH 11 12
ENDBRANCH 6 11
ENDBRANCH 3 6
ENDBRANCH 1 2
BRANCH 1 23
ATOM     23  CB  ILE B   2      17.505   2.255   8.137  1.00 21.16 LIG 0.01  C 
ATOM     24  CG2 ILE B   2      18.971   2.415   7.725  1.00 22.94 LIG 0.01  C 
BRANCH 23 25
ATOM     25  CG1 ILE B   2      16.871   3.621   8.454  1.00 22.14 LIG 0.00  C 
ATOM     26  CD1 ILE B   2      16.879   4.026   9.945  1.00 22.60 LIG 0.01  C 
ENDBRANCH 23 25
ENDBRANCH 1 23
BRANCH 1 27
ATOM     27  C   ILE B   2      17.157   0.101   6.794  1.00 21.53 LIG 0.24  C 
ATOM     28 O    ILE B   2      18.044  -0.133   5.971  1.00 21.64 LIG-0.27  OA
ATOM     29  N   PHE B   3      16.587  -0.853   7.539  1.00 22.69 LIG-0.35  N 
ATOM     30 H    PHE B   3      15.969  -0.705   8.119  1.00 22.69 LIG 0.16  HD
BRANCH 29 31
ATOM     31  CA  PHE B   3      16.982  -2.260   7.422  1.00 23.79 LIG 0.18  C 
BRANCH 31 32
ATOM     32  CB  PHE B   3      17.126  -2.674   5.956  1.00 24.86 LIG 0.07  C 
BRANCH 32 33
ATOM     33  CG  PHE B   3      15.817  -3.026   5.297  1.00 25.20 LIG-0.06  A 
ATOM     34  CD1 PHE B   3      14.852  -2.047   5.079  1.00 28.30 LIG 0.01  A 
ATOM     35  CE1 PHE B   3      13.642  -2.365   4.462  1.00 27.60 LIG 0.00  A 
ATOM     36  CZ  PHE B   3      13.384  -3.672   4.051  1.00 28.67 LIG 0.00  A 
ATOM     37  CE2 PHE B   3      14.345  -4.668   4.252  1.00 27.98 LIG 0.00  A 
ATOM     38  CD2 PHE B   3      15.558  -4.337   4.878  1.00 26.62 LIG 0.01  A 
ENDBRANCH 32 33
ENDBRANCH 31 32
BRANCH 31 39
ATOM     39  C   PHE B   3      18.278  -2.558   8.176  1.00 24.64 LIG 0.24  C 
ATOM     40 O    PHE B   3      18.355  -3.521   8.935  1.00 24.93 LIG-0.27  OA
ATOM     41  N   SER B   4      19.285  -1.723   7.950  1.00 25.11 LIG-0.34  N 
ATOM     42 H    SER B   4      19.235  -1.032   7.440  1.00 25.11 LIG 0.16  HD
BRANCH 41 43
ATOM     43  CA  SER B   4      20.587  -1.923   8.571  1.00 25.84 LIG 0.19  C 
BRANCH 43 44
ATOM     44  CB  SER B   4      21.521  -2.670   7.615  1.00 26.02 LIG 0.20  C 
BRANCH 44 45
ATOM     45 OG   SER B   4      21.070  -3.999   7.405  1.00 27.92 LIG-0.40  OA
ATOM     46 HG   SER B   4      20.459  -4.178   7.954  1.00 27.92 LIG 0.21  HD
ENDBRANCH 44 45
ENDBRANCH 43 44
BRANCH 43 47
ATOM     47  C   SER B   4      21.191  -0.582   8.963  1.00 25.91 LIG 0.22  C 
ATOM     48 O    SER B   4      20.478   0.396   9.142  1.00 25.66 LIG-0.29  OA
ENDBRANCH 43 47
ENDBRANCH 41 43
ENDBRANCH 31 39
ENDBRANCH 29 31
ENDBRANCH 1 27
TORSDOF 18
ENDMDL
MODEL 17
USER: ADFR SOLUTION from run 50
USER: SCORE 17.888007 LL:  -2.618 LR: -16.165 RR:   0.000 FEB: -10.795
USER: RMSD 7.211198
USER: SEED 49
USER: STATUS no improvement in best in 9 clusters for 5 generations
USER: GENES 20
USER: genes 0 Translation |==|  0.51781 0.33000 0.48134
USER: genes 1 Rotation |==|  0.08253 0.65549 0.56087 0.71872
USER: genes 2 Torsion [CB]-CA--N-[C] |==|  0.18625
USER: genes 3 Torsion [N]-C--CA-[N] |==|  0.37251
USER: genes 4 Torsion [C]-CA--N-[H2] |==|  0.08395
USER: genes 5 Torsion [C]-CA--CB-[CG] |==|  0.37089
USER: genes 6 Torsion [CA]-CB--CG-[CD] |==|  0.34152
USER: genes 7 Torsion [CB]-CG--CD-[NE] |==|  0.85348
USER: genes 8 Torsion [CG]-CD--NE-[HE] |==|  0.05576
USER: genes 9 Torsion [N]-CA--CB-[CG1] |==|  0.57646
USER: genes 10 Torsion [CA]-CB--CG1-[CD1] |==|  0.65756
USER: genes 11 Torsion [N]-CA--C-[N] |==|  0.86660
USER: genes 12 Torsion [C]-N--CA-[CB] |==|  0.86424
USER: genes 13 Torsion [N]-CA--CB-[CG] |==|  0.39522
USER: genes 14 Torsion [CA]-CB--CG-[CD1] |==|  0.23184
USER: genes 15 Torsion [N]-CA--C-[N] |==|  0.91019
USER: genes 16 Torsion [C]-N--CA-[C] |==|  0.73385
USER: genes 17 Torsion [N]-CA--CB-[OG] |==|  0.31907
USER: genes 18 Torsion [CA]-CB--OG-[HG] |==|  0.69772
USER: genes 19 Torsion [N]-CA--C-[O] |==|  0.97211
ROOT
ATOM      1  CA  ILE B   2      16.651  -0.467   7.543  1.00 20.94 LIG 0.18  C 
ENDROOT
BRANCH 1 2
ATOM      2  N   ILE B   2      15.291   0.045   7.715  1.00 18.61 LIG-0.35  N 
ATOM      3  C   ARG B   1      14.939   0.720   8.807  1.00 17.10 LIG 0.25  C 
ATOM      4 O    ARG B   1      15.704   0.896   9.757  1.00 15.59 LIG-0.27  OA
ATOM      5 H    ILE B   2      14.759  -0.128   7.062  1.00 18.61 LIG 0.16  HD
BRANCH 3 6
ATOM      6  CA  ARG B   1      13.523   1.294   8.822  1.00 16.65 LIG 0.27  C 
BRANCH 6 7
ATOM      7  N   ARG B   1      12.881   1.000  10.132  1.00 15.45 LIG-0.07  N 
ATOM      8 H2   ARG B   1      13.503   0.966  10.766  1.00 15.45 LIG 0.28  HD
ATOM      9 H1   ARG B   1      12.459   0.218  10.087  1.00 15.45 LIG 0.28  HD
ATOM     10 H3   ARG B   1      12.295   1.642  10.326  1.00 15.45 LIG 0.28  HD
ENDBRANCH 6 7
BRANCH 6 11
ATOM     11  CB  ARG B   1      13.573   2.812   8.562  1.00 15.91 LIG 0.04  C 
BRANCH 11 12
ATOM     12  CG  ARG B   1      12.562   3.338   7.527  1.00 15.51 LIG 0.02  C 
BRANCH 12 13
ATOM     13  CD  ARG B   1      11.662   4.423   8.118  1.00 16.55 LIG 0.14  C 
BRANCH 13 14
ATOM     14  NE  ARG B   1      11.030   3.964   9.357  1.00 17.87 LIG-0.23  N 
ATOM     15  CZ  ARG B   1       9.935   4.493   9.899  1.00 16.76 LIG 0.67  C 
ATOM     16  NH1 ARG B   1       9.312   5.534   9.343  1.00 17.21 LIG-0.23  N 
ATOM     17  NH2 ARG B   1       9.447   3.962  11.020  1.00 19.77 LIG-0.23  N 
ATOM     18 1HH1 ARG B   1       9.616   5.879   8.617  1.00 17.21 LIG 0.17  HD
ATOM     19 2HH1 ARG B   1       8.606   5.858   9.712  1.00 17.21 LIG 0.17  HD
ATOM     20 1HH2 ARG B   1       9.839   3.287  11.383  1.00 19.77 LIG 0.17  HD
ATOM     21 2HH2 ARG B   1       8.741   4.293  11.382  1.00 19.77 LIG 0.17  HD
ATOM     22 HE   ARG B   1      11.395   3.301   9.766  1.00 17.87 LIG 0.18  HD
ENDBRANCH 13 14
ENDBRANCH 12 13
ENDBRANCH 11 12
ENDBRANCH 6 11
ENDBRANCH 3 6
ENDBRANCH 1 2
BRANCH 1 23
ATOM     23  CB  ILE B   2      16.963  -1.586   8.566  1.00 21.16 LIG 0.01  C 
ATOM     24  CG2 ILE B   2      16.467  -2.944   8.062  1.00 22.94 LIG 0.01  C 
BRANCH 23 25
ATOM     25  CG1 ILE B   2      18.476  -1.625   8.851  1.00 22.14 LIG 0.00  C 
ATOM     26  CD1 ILE B   2      19.165  -2.982   8.587  1.00 22.60 LIG 0.01  C 
ENDBRANCH 23 25
ENDBRANCH 1 23
BRANCH 1 27
ATOM     27  C   ILE B   2      16.850  -0.926   6.093  1.00 21.53 LIG 0.24  C 
ATOM     28 O    ILE B   2      17.865  -0.598   5.478  1.00 21.64 LIG-0.27  OA
ATOM     29  N   PHE B   3      15.902  -1.710   5.566  1.00 22.69 LIG-0.35  N 
ATOM     30 H    PHE B   3      15.189  -1.950   5.983  1.00 22.69 LIG 0.16  HD
BRANCH 29 31
ATOM     31  CA  PHE B   3      16.009  -2.235   4.201  1.00 23.79 LIG 0.18  C 
BRANCH 31 32
ATOM     32  CB  PHE B   3      16.362  -1.126   3.208  1.00 24.86 LIG 0.07  C 
BRANCH 32 33
ATOM     33  CG  PHE B   3      17.311  -1.567   2.123  1.00 25.20 LIG-0.06  A 
ATOM     34  CD1 PHE B   3      16.833  -2.215   0.989  1.00 28.30 LIG 0.01  A 
ATOM     35  CE1 PHE B   3      17.706  -2.617  -0.023  1.00 27.60 LIG 0.00  A 
ATOM     36  CZ  PHE B   3      19.072  -2.372   0.090  1.00 28.67 LIG 0.00  A 
ATOM     37  CE2 PHE B   3      19.572  -1.713   1.218  1.00 27.98 LIG 0.00  A 
ATOM     38  CD2 PHE B   3      18.685  -1.316   2.231  1.00 26.62 LIG 0.01  A 
ENDBRANCH 32 33
ENDBRANCH 31 32
BRANCH 31 39
ATOM     39  C   PHE B   3      17.029  -3.369   4.100  1.00 24.64 LIG 0.24  C 
ATOM     40 O    PHE B   3      16.872  -4.284   3.295  1.00 24.93 LIG-0.27  OA
ATOM     41  N   SER B   4      18.069  -3.288   4.921  1.00 25.11 LIG-0.34  N 
ATOM     42 H    SER B   4      18.176  -2.665   5.504  1.00 25.11 LIG 0.16  HD
BRANCH 41 43
ATOM     43  CA  SER B   4      19.135  -4.280   4.891  1.00 25.84 LIG 0.19  C 
BRANCH 43 44
ATOM     44  CB  SER B   4      20.491  -3.608   5.119  1.00 26.02 LIG 0.20  C 
BRANCH 44 45
ATOM     45 OG   SER B   4      21.072  -4.045   6.337  1.00 27.92 LIG-0.40  OA
ATOM     46 HG   SER B   4      21.050  -3.420   6.898  1.00 27.92 LIG 0.21  HD
ENDBRANCH 44 45
ENDBRANCH 43 44
BRANCH 43 47
ATOM     47  C   SER B   4      18.886  -5.345   5.949  1.00 25.91 LIG 0.22  C 
ATOM     48 O    SER B   4      18.011  -5.198   6.791  1.00 25.66 LIG-0.29  OA
ENDBRANCH 43 47
ENDBRANCH 41 43
ENDBRANCH 31 39
ENDBRANCH 29 31
ENDBRANCH 1 27
TORSDOF 18
ENDMDL
MODEL 18
USER: ADFR SOLUTION from run 89
USER: SCORE 17.136910 LL:  -2.424 LR: -15.993 RR:   0.000 FEB: -10.623
USER: RMSD 7.772650
USER: SEED 88
USER: STATUS no improvement in best in 7 clusters for 5 generations
USER: GENES 20
USER: genes 0 Translation |==|  0.51266 0.37841 0.46388
USER: genes 1 Rotation |==|  0.04107 0.63774 0.62206 0.57427
USER: genes 2 Torsion [CB]-CA--N-[C] |==|  0.17612
USER: genes 3 Torsion [N]-C--CA-[N] |==|  0.25136
USER: genes 4 Torsion [C]-CA--N-[H2] |==|  0.75044
USER: genes 5 Torsion [C]-CA--CB-[CG] |==|  0.38993
USER: genes 6 Torsion [CA]-CB--CG-[CD] |==|  0.85353
USER: genes 7 Torsion [CB]-CG--CD-[NE] |==|  0.49694
USER: genes 8 Torsion [CG]-CD--NE-[HE] |==|  0.83458
USER: genes 9 Torsion [N]-CA--CB-[CG1] |==|  0.49823
USER: genes 10 Torsion [CA]-CB--CG1-[CD1] |==|  0.65596
USER: genes 11 Torsion [N]-CA--C-[N] |==|  0.83583
USER: genes 12 Torsion [C]-N--CA-[CB] |==|  0.81943
USER: genes 13 Torsion [N]-CA--CB-[CG] |==|  0.57259
USER: genes 14 Torsion [CA]-CB--CG-[CD1] |==|  0.60016
USER: genes 15 Torsion [N]-CA--C-[N] |==|  0.01782
USER: genes 16 Torsion [C]-N--CA-[C] |==|  0.13537
USER: genes 17 Torsion [N]-CA--CB-[OG] |==|  0.71978
USER: genes 18 Torsion [CA]-CB--OG-[HG] |==|  0.29997
USER: genes 19 Torsion [N]-CA--C-[O] |==|  0.10094
ROOT
ATOM      1  CA  ILE B   2      16.520   0.369   7.268  1.00 20.94 LIG 0.18  C 
ENDROOT
BRANCH 1 2
ATOM      2  N   ILE B   2      15.154   0.622   7.729  1.00 18.61 LIG-0.35  N 
ATOM      3  C   ARG B   1      14.881   1.623   8.564  1.00 17.10 LIG 0.25  C 
ATOM      4 O    ARG B   1      15.755   2.344   9.047  1.00 15.59 LIG-0.27  OA
ATOM      5 H    ILE B   2      14.565   0.079   7.417  1.00 18.61 LIG 0.16  HD
BRANCH 3 6
ATOM      6  CA  ARG B   1      13.405   1.851   8.887  1.00 16.65 LIG 0.27  C 
BRANCH 6 7
ATOM      7  N   ARG B   1      13.030   1.054  10.087  1.00 15.45 LIG-0.07  N 
ATOM      8 H2   ARG B   1      12.750   0.249   9.833  1.00 15.45 LIG 0.28  HD
ATOM      9 H1   ARG B   1      12.379   1.470  10.528  1.00 15.45 LIG 0.28  HD
ATOM     10 H3   ARG B   1      13.738   0.967  10.620  1.00 15.45 LIG 0.28  HD
ENDBRANCH 6 7
BRANCH 6 11
ATOM     11  CB  ARG B   1      13.149   3.352   9.122  1.00 15.91 LIG 0.04  C 
BRANCH 11 12
ATOM     12  CG  ARG B   1      11.831   3.896   8.542  1.00 15.51 LIG 0.02  C 
BRANCH 12 13
ATOM     13  CD  ARG B   1      11.684   3.553   7.060  1.00 16.55 LIG 0.14  C 
BRANCH 13 14
ATOM     14  NE  ARG B   1      10.415   4.054   6.528  1.00 17.87 LIG-0.23  N 
ATOM     15  CZ  ARG B   1      10.294   4.922   5.526  1.00 16.76 LIG 0.67  C 
ATOM     16  NH1 ARG B   1      11.361   5.436   4.912  1.00 17.21 LIG-0.23  N 
ATOM     17  NH2 ARG B   1       9.074   5.277   5.121  1.00 19.77 LIG-0.23  N 
ATOM     18 1HH1 ARG B   1      12.152   5.208   5.162  1.00 17.21 LIG 0.17  HD
ATOM     19 2HH1 ARG B   1      11.258   5.995   4.267  1.00 17.21 LIG 0.17  HD
ATOM     20 1HH2 ARG B   1       8.379   4.946   5.506  1.00 19.77 LIG 0.17  HD
ATOM     21 2HH2 ARG B   1       8.981   5.836   4.475  1.00 19.77 LIG 0.17  HD
ATOM     22 HE   ARG B   1       9.691   3.765   6.892  1.00 17.87 LIG 0.18  HD
ENDBRANCH 13 14
ENDBRANCH 12 13
ENDBRANCH 11 12
ENDBRANCH 6 11
ENDBRANCH 3 6
ENDBRANCH 1 2
BRANCH 1 23
ATOM     23  CB  ILE B   2      17.448  -0.015   8.447  1.00 21.16 LIG 0.01  C 
ATOM     24  CG2 ILE B   2      16.900  -1.229   9.203  1.00 22.94 LIG 0.01  C 
BRANCH 23 25
ATOM     25  CG1 ILE B   2      18.869  -0.290   7.923  1.00 22.14 LIG 0.00  C 
ATOM     26  CD1 ILE B   2      19.447  -1.679   8.272  1.00 22.60 LIG 0.01  C 
ENDBRANCH 23 25
ENDBRANCH 1 23
BRANCH 1 27
ATOM     27  C   ILE B   2      16.502  -0.698   6.166  1.00 21.53 LIG 0.24  C 
ATOM     28 O    ILE B   2      16.978  -0.444   5.058  1.00 21.64 LIG-0.27  OA
ATOM     29  N   PHE B   3      15.988  -1.893   6.480  1.00 22.69 LIG-0.35  N 
ATOM     30 H    PHE B   3      15.655  -2.085   7.249  1.00 22.69 LIG 0.16  HD
BRANCH 29 31
ATOM     31  CA  PHE B   3      15.955  -2.994   5.512  1.00 23.79 LIG 0.18  C 
BRANCH 31 32
ATOM     32  CB  PHE B   3      15.042  -2.664   4.330  1.00 24.86 LIG 0.07  C 
BRANCH 32 33
ATOM     33  CG  PHE B   3      14.467  -3.882   3.653  1.00 25.20 LIG-0.06  A 
ATOM     34  CD1 PHE B   3      14.285  -3.901   2.274  1.00 28.30 LIG 0.01  A 
ATOM     35  CE1 PHE B   3      13.761  -5.028   1.640  1.00 27.60 LIG 0.00  A 
ATOM     36  CZ  PHE B   3      13.415  -6.155   2.384  1.00 28.67 LIG 0.00  A 
ATOM     37  CE2 PHE B   3      13.600  -6.159   3.770  1.00 27.98 LIG 0.00  A 
ATOM     38  CD2 PHE B   3      14.125  -5.018   4.397  1.00 26.62 LIG 0.01  A 
ENDBRANCH 32 33
ENDBRANCH 31 32
BRANCH 31 39
ATOM     39  C   PHE B   3      17.350  -3.358   5.007  1.00 24.64 LIG 0.24  C 
ATOM     40 O    PHE B   3      17.496  -4.177   4.103  1.00 24.93 LIG-0.27  OA
ATOM     41  N   SER B   4      18.362  -2.738   5.602  1.00 25.11 LIG-0.34  N 
ATOM     42 H    SER B   4      18.273  -2.182   6.252  1.00 25.11 LIG 0.16  HD
BRANCH 41 43
ATOM     43  CA  SER B   4      19.738  -2.961   5.182  1.00 25.84 LIG 0.19  C 
BRANCH 43 44
ATOM     44  CB  SER B   4      20.215  -4.342   5.641  1.00 26.02 LIG 0.20  C 
BRANCH 44 45
ATOM     45 OG   SER B   4      21.020  -4.236   6.804  1.00 27.92 LIG-0.40  OA
ATOM     46 HG   SER B   4      20.595  -4.527   7.467  1.00 27.92 LIG 0.21  HD
ENDBRANCH 44 45
ENDBRANCH 43 44
BRANCH 43 47
ATOM     47  C   SER B   4      19.849  -2.837   3.669  1.00 25.91 LIG 0.22  C 
ATOM     48 O    SER B   4      19.182  -2.013   3.059  1.00 25.66 LIG-0.29  OA
ENDBRANCH 43 47
ENDBRANCH 41 43
ENDBRANCH 31 39
ENDBRANCH 29 31
ENDBRANCH 1 27
TORSDOF 18
ENDMDL
MODEL 19
USER: ADFR SOLUTION from run 50
USER: SCORE 17.325158 LL:  -2.236 LR: -15.838 RR:   0.000 FEB: -10.468
USER: RMSD 7.077975
USER: SEED 49
USER: STATUS no improvement in best in 9 clusters for 5 generations
USER: GENES 20
USER: genes 0 Translation |==|  0.51488 0.33810 0.45782
USER: genes 1 Rotation |==|  0.08209 0.67078 0.58167 0.69878
USER: genes 2 Torsion [CB]-CA--N-[C] |==|  0.14530
USER: genes 3 Torsion [N]-C--CA-[N] |==|  0.40141
USER: genes 4 Torsion [C]-CA--N-[H2] |==|  0.08879
USER: genes 5 Torsion [C]-CA--CB-[CG] |==|  0.35979
USER: genes 6 Torsion [CA]-CB--CG-[CD] |==|  0.33965
USER: genes 7 Torsion [CB]-CG--CD-[NE] |==|  0.84373
USER: genes 8 Torsion [CG]-CD--NE-[HE] |==|  0.06426
USER: genes 9 Torsion [N]-CA--CB-[CG1] |==|  0.53893
USER: genes 10 Torsion [CA]-CB--CG1-[CD1] |==|  0.60215
USER: genes 11 Torsion [N]-CA--C-[N] |==|  0.63534
USER: genes 12 Torsion [C]-N--CA-[CB] |==|  0.86660
USER: genes 13 Torsion [N]-CA--CB-[CG] |==|  0.71301
USER: genes 14 Torsion [CA]-CB--CG-[CD1] |==|  0.12984
USER: genes 15 Torsion [N]-CA--C-[N] |==|  0.88427
USER: genes 16 Torsion [C]-N--CA-[C] |==|  0.69106
USER: genes 17 Torsion [N]-CA--CB-[OG] |==|  0.98467
USER: genes 18 Torsion [CA]-CB--OG-[HG] |==|  0.09026
USER: genes 19 Torsion [N]-CA--C-[O] |==|  0.00708
ROOT
ATOM      1  CA  ILE B   2      16.576  -0.327   7.173  1.00 20.94 LIG 0.18  C 
ENDROOT
BRANCH 1 2
ATOM      2  N   ILE B   2      15.247   0.203   7.482  1.00 18.61 LIG-0.35  N 
ATOM      3  C   ARG B   1      14.956   0.676   8.691  1.00 17.10 LIG 0.25  C 
ATOM      4 O    ARG B   1      15.752   0.637   9.631  1.00 15.59 LIG-0.27  OA
ATOM      5 H    ILE B   2      14.692   0.178   6.826  1.00 18.61 LIG 0.16  HD
BRANCH 3 6
ATOM      6  CA  ARG B   1      13.571   1.298   8.859  1.00 16.65 LIG 0.27  C 
BRANCH 6 7
ATOM      7  N   ARG B   1      13.052   0.997  10.222  1.00 15.45 LIG-0.07  N 
ATOM      8 H2   ARG B   1      13.731   0.952  10.794  1.00 15.45 LIG 0.28  HD
ATOM      9 H1   ARG B   1      12.621   0.219  10.210  1.00 15.45 LIG 0.28  HD
ATOM     10 H3   ARG B   1      12.493   1.642  10.476  1.00 15.45 LIG 0.28  HD
ENDBRANCH 6 7
BRANCH 6 11
ATOM     11  CB  ARG B   1      13.650   2.819   8.625  1.00 15.91 LIG 0.04  C 
BRANCH 11 12
ATOM     12  CG  ARG B   1      12.621   3.389   7.633  1.00 15.51 LIG 0.02  C 
BRANCH 12 13
ATOM     13  CD  ARG B   1      11.757   4.473   8.276  1.00 16.55 LIG 0.14  C 
BRANCH 13 14
ATOM     14  NE  ARG B   1      11.085   3.967   9.475  1.00 17.87 LIG-0.23  N 
ATOM     15  CZ  ARG B   1       9.971   4.472   9.999  1.00 16.76 LIG 0.67  C 
ATOM     16  NH1 ARG B   1       9.363   5.532   9.462  1.00 17.21 LIG-0.23  N 
ATOM     17  NH2 ARG B   1       9.447   3.898  11.083  1.00 19.77 LIG-0.23  N 
ATOM     18 1HH1 ARG B   1       9.690   5.905   8.760  1.00 17.21 LIG 0.17  HD
ATOM     19 2HH1 ARG B   1       8.644   5.841   9.819  1.00 17.21 LIG 0.17  HD
ATOM     20 1HH2 ARG B   1       9.828   3.212  11.433  1.00 19.77 LIG 0.17  HD
ATOM     21 2HH2 ARG B   1       8.728   4.215  11.432  1.00 19.77 LIG 0.17  HD
ATOM     22 HE   ARG B   1      11.438   3.290   9.871  1.00 17.87 LIG 0.18  HD
ENDBRANCH 13 14
ENDBRANCH 12 13
ENDBRANCH 11 12
ENDBRANCH 6 11
ENDBRANCH 3 6
ENDBRANCH 1 2
BRANCH 1 23
ATOM     23  CB  ILE B   2      17.008  -1.397   8.205  1.00 21.16 LIG 0.01  C 
ATOM     24  CG2 ILE B   2      16.197  -2.685   8.031  1.00 22.94 LIG 0.01  C 
BRANCH 23 25
ATOM     25  CG1 ILE B   2      18.516  -1.675   8.068  1.00 22.14 LIG 0.00  C 
ATOM     26  CD1 ILE B   2      18.940  -3.145   8.280  1.00 22.60 LIG 0.01  C 
ENDBRANCH 23 25
ENDBRANCH 1 23
BRANCH 1 27
ATOM     27  C   ILE B   2      16.598  -0.858   5.734  1.00 21.53 LIG 0.24  C 
ATOM     28 O    ILE B   2      16.187  -0.151   4.812  1.00 21.64 LIG-0.27  OA
ATOM     29  N   PHE B   3      17.107  -2.081   5.542  1.00 22.69 LIG-0.35  N 
ATOM     30 H    PHE B   3      17.399  -2.584   6.174  1.00 22.69 LIG 0.16  HD
BRANCH 29 31
ATOM     31  CA  PHE B   3      17.207  -2.670   4.203  1.00 23.79 LIG 0.18  C 
BRANCH 31 32
ATOM     32  CB  PHE B   3      15.893  -2.525   3.434  1.00 24.86 LIG 0.07  C 
BRANCH 32 33
ATOM     33  CG  PHE B   3      15.088  -3.798   3.369  1.00 25.20 LIG-0.06  A 
ATOM     34  CD1 PHE B   3      14.882  -4.560   4.514  1.00 28.30 LIG 0.01  A 
ATOM     35  CE1 PHE B   3      14.130  -5.735   4.462  1.00 27.60 LIG 0.00  A 
ATOM     36  CZ  PHE B   3      13.572  -6.159   3.258  1.00 28.67 LIG 0.00  A 
ATOM     37  CE2 PHE B   3      13.759  -5.401   2.098  1.00 27.98 LIG 0.00  A 
ATOM     38  CD2 PHE B   3      14.520  -4.223   2.161  1.00 26.62 LIG 0.01  A 
ENDBRANCH 32 33
ENDBRANCH 31 32
BRANCH 31 39
ATOM     39  C   PHE B   3      18.353  -2.064   3.393  1.00 24.64 LIG 0.24  C 
ATOM     40 O    PHE B   3      19.075  -2.776   2.699  1.00 24.93 LIG-0.27  OA
ATOM     41  N   SER B   4      18.501  -0.749   3.492  1.00 25.11 LIG-0.34  N 
ATOM     42 H    SER B   4      18.018  -0.245   3.993  1.00 25.11 LIG 0.16  HD
BRANCH 41 43
ATOM     43  CA  SER B   4      19.526  -0.044   2.734  1.00 25.84 LIG 0.19  C 
BRANCH 43 44
ATOM     44  CB  SER B   4      18.901   1.104   1.938  1.00 26.02 LIG 0.20  C 
BRANCH 44 45
ATOM     45 OG   SER B   4      17.487   1.089   2.056  1.00 27.92 LIG-0.40  OA
ATOM     46 HG   SER B   4      17.272   0.798   2.814  1.00 27.92 LIG 0.21  HD
ENDBRANCH 44 45
ENDBRANCH 43 44
BRANCH 43 47
ATOM     47  C   SER B   4      20.599   0.484   3.674  1.00 25.91 LIG 0.22  C 
ATOM     48 O    SER B   4      20.549   0.253   4.875  1.00 25.66 LIG-0.29  OA
ENDBRANCH 43 47
ENDBRANCH 41 43
ENDBRANCH 31 39
ENDBRANCH 29 31
ENDBRANCH 1 27
TORSDOF 18
ENDMDL
MODEL 20
USER: ADFR SOLUTION from run 28
USER: SCORE 17.112366 LL:  -2.439 LR: -15.730 RR:   0.000 FEB: -10.361
USER: RMSD 4.838968
USER: SEED 27
USER: STATUS no improvement in best in 3 clusters for 5 generations
USER: GENES 20
USER: genes 0 Translation |==|  0.49988 0.30383 0.44368
USER: genes 1 Rotation |==|  0.58666 0.48719 0.37484 0.97609
USER: genes 2 Torsion [CB]-CA--N-[C] |==|  0.50771
USER: genes 3 Torsion [N]-C--CA-[N] |==|  0.39303
USER: genes 4 Torsion [C]-CA--N-[H2] |==|  0.19914
USER: genes 5 Torsion [C]-CA--CB-[CG] |==|  0.43606
USER: genes 6 Torsion [CA]-CB--CG-[CD] |==|  0.97305
USER: genes 7 Torsion [CB]-CG--CD-[NE] |==|  0.24796
USER: genes 8 Torsion [CG]-CD--NE-[HE] |==|  0.83655
USER: genes 9 Torsion [N]-CA--CB-[CG1] |==|  0.73995
USER: genes 10 Torsion [CA]-CB--CG1-[CD1] |==|  0.82556
USER: genes 11 Torsion [N]-CA--C-[N] |==|  0.43333
USER: genes 12 Torsion [C]-N--CA-[CB] |==|  0.50042
USER: genes 13 Torsion [N]-CA--CB-[CG] |==|  0.08821
USER: genes 14 Torsion [CA]-CB--CG-[CD1] |==|  0.77165
USER: genes 15 Torsion [N]-CA--C-[N] |==|  0.48152
USER: genes 16 Torsion [C]-N--CA-[C] |==|  0.71228
USER: genes 17 Torsion [N]-CA--CB-[OG] |==|  0.05702
USER: genes 18 Torsion [CA]-CB--OG-[HG] |==|  0.12078
USER: genes 19 Torsion [N]-CA--C-[O] |==|  0.98080
ROOT
ATOM      1  CA  ILE B   2      16.194  -0.918   6.950  1.00 20.94 LIG 0.18  C 
ENDROOT
BRANCH 1 2
ATOM      2  N   ILE B   2      15.230   0.094   7.385  1.00 18.61 LIG-0.35  N 
ATOM      3  C   ARG B   1      14.942   0.266   8.673  1.00 17.10 LIG 0.25  C 
ATOM      4 O    ARG B   1      15.410  -0.448   9.561  1.00 15.59 LIG-0.27  OA
ATOM      5 H    ILE B   2      14.879   0.550   6.747  1.00 18.61 LIG 0.16  HD
BRANCH 3 6
ATOM      6  CA  ARG B   1      14.002   1.423   9.008  1.00 16.65 LIG 0.27  C 
BRANCH 6 7
ATOM      7  N   ARG B   1      13.079   1.013  10.102  1.00 15.45 LIG-0.07  N 
ATOM      8 H2   ARG B   1      13.530   0.961  10.867  1.00 15.45 LIG 0.28  HD
ATOM      9 H1   ARG B   1      12.727   0.219   9.911  1.00 15.45 LIG 0.28  HD
ATOM     10 H3   ARG B   1      12.428   1.614  10.183  1.00 15.45 LIG 0.28  HD
ENDBRANCH 6 7
BRANCH 6 11
ATOM     11  CB  ARG B   1      14.824   2.660   9.418  1.00 15.91 LIG 0.04  C 
BRANCH 11 12
ATOM     12  CG  ARG B   1      14.108   4.013   9.250  1.00 15.51 LIG 0.02  C 
BRANCH 12 13
ATOM     13  CD  ARG B   1      12.795   3.865   8.482  1.00 16.55 LIG 0.14  C 
BRANCH 13 14
ATOM     14  NE  ARG B   1      11.682   3.591   9.392  1.00 17.87 LIG-0.23  N 
ATOM     15  CZ  ARG B   1      10.592   4.345   9.517  1.00 16.76 LIG 0.67  C 
ATOM     16  NH1 ARG B   1      10.429   5.463   8.807  1.00 17.21 LIG-0.23  N 
ATOM     17  NH2 ARG B   1       9.637   3.967  10.367  1.00 19.77 LIG-0.23  N 
ATOM     18 1HH1 ARG B   1      11.036   5.712   8.252  1.00 17.21 LIG 0.17  HD
ATOM     19 2HH1 ARG B   1       9.716   5.934   8.905  1.00 17.21 LIG 0.17  HD
ATOM     20 1HH2 ARG B   1       9.730   3.244  10.825  1.00 19.77 LIG 0.17  HD
ATOM     21 2HH2 ARG B   1       8.928   4.444  10.459  1.00 19.77 LIG 0.17  HD
ATOM     22 HE   ARG B   1      11.736   2.888   9.884  1.00 17.87 LIG 0.18  HD
ENDBRANCH 13 14
ENDBRANCH 12 13
ENDBRANCH 11 12
ENDBRANCH 6 11
ENDBRANCH 3 6
ENDBRANCH 1 2
BRANCH 1 23
ATOM     23  CB  ILE B   2      16.402  -0.872   5.417  1.00 21.16 LIG 0.01  C 
ATOM     24  CG2 ILE B   2      17.862  -1.161   5.053  1.00 22.94 LIG 0.01  C 
BRANCH 23 25
ATOM     25  CG1 ILE B   2      15.457  -1.876   4.731  1.00 22.14 LIG 0.00  C 
ATOM     26  CD1 ILE B   2      15.687  -3.359   5.098  1.00 22.60 LIG 0.01  C 
ENDBRANCH 23 25
ENDBRANCH 1 23
BRANCH 1 27
ATOM     27  C   ILE B   2      17.506  -0.746   7.725  1.00 21.53 LIG 0.24  C 
ATOM     28 O    ILE B   2      17.778   0.341   8.240  1.00 21.64 LIG-0.27  OA
ATOM     29  N   PHE B   3      18.295  -1.821   7.837  1.00 22.69 LIG-0.35  N 
ATOM     30 H    PHE B   3      18.119  -2.585   7.485  1.00 22.69 LIG 0.16  HD
BRANCH 29 31
ATOM     31  CA  PHE B   3      19.555  -1.776   8.586  1.00 23.79 LIG 0.18  C 
BRANCH 31 32
ATOM     32  CB  PHE B   3      20.266  -3.130   8.557  1.00 24.86 LIG 0.07  C 
BRANCH 32 33
ATOM     33  CG  PHE B   3      20.029  -3.909   7.289  1.00 25.20 LIG-0.06  A 
ATOM     34  CD1 PHE B   3      18.872  -4.665   7.132  1.00 28.30 LIG 0.01  A 
ATOM     35  CE1 PHE B   3      18.643  -5.382   5.958  1.00 27.60 LIG 0.00  A 
ATOM     36  CZ  PHE B   3      19.574  -5.348   4.921  1.00 28.67 LIG 0.00  A 
ATOM     37  CE2 PHE B   3      20.739  -4.586   5.055  1.00 27.98 LIG 0.00  A 
ATOM     38  CD2 PHE B   3      20.960  -3.872   6.243  1.00 26.62 LIG 0.01  A 
ENDBRANCH 32 33
ENDBRANCH 31 32
BRANCH 31 39
ATOM     39  C   PHE B   3      20.492  -0.684   8.070  1.00 24.64 LIG 0.24  C 
ATOM     40 O    PHE B   3      20.214  -0.044   7.059  1.00 24.93 LIG-0.27  OA
ATOM     41  N   SER B   4      21.596  -0.485   8.781  1.00 25.11 LIG-0.34  N 
ATOM     42 H    SER B   4      21.812  -0.944   9.475  1.00 25.11 LIG 0.16  HD
BRANCH 41 43
ATOM     43  CA  SER B   4      22.548   0.556   8.422  1.00 25.84 LIG 0.19  C 
BRANCH 43 44
ATOM     44  CB  SER B   4      22.968   1.342   9.667  1.00 26.02 LIG 0.20  C 
BRANCH 44 45
ATOM     45 OG   SER B   4      22.718   0.592  10.845  1.00 27.92 LIG-0.40  OA
ATOM     46 HG   SER B   4      22.960  -0.204  10.727  1.00 27.92 LIG 0.21  HD
ENDBRANCH 44 45
ENDBRANCH 43 44
BRANCH 43 47
ATOM     47  C   SER B   4      23.765  -0.059   7.747  1.00 25.91 LIG 0.22  C 
ATOM     48 O    SER B   4      23.900  -1.273   7.686  1.00 25.66 LIG-0.29  OA
ENDBRANCH 43 47
ENDBRANCH 41 43
ENDBRANCH 31 39
ENDBRANCH 29 31
ENDBRANCH 1 27
TORSDOF 18
ENDMDL
MODEL 21
USER: ADFR SOLUTION from run 94
USER: SCORE 16.249356 LL:  -2.647 LR: -15.714 RR:   0.000 FEB: -10.345
USER: RMSD 6.128773
USER: SEED 93
USER: STATUS no improvement in best in 3 clusters for 5 generations
USER: GENES 20
USER: genes 0 Translation |==|  0.46386 0.51737 0.55620
USER: genes 1 Rotation |==|  0.96470 0.37978 0.54144 0.63372
USER: genes 2 Torsion [CB]-CA--N-[C] |==|  0.25950
USER: genes 3 Torsion [N]-C--CA-[N] |==|  0.92405
USER: genes 4 Torsion [C]-CA--N-[H2] |==|  0.74422
USER: genes 5 Torsion [C]-CA--CB-[CG] |==|  0.02684
USER: genes 6 Torsion [CA]-CB--CG-[CD] |==|  0.72011
USER: genes 7 Torsion [CB]-CG--CD-[NE] |==|  0.95876
USER: genes 8 Torsion [CG]-CD--NE-[HE] |==|  0.25263
USER: genes 9 Torsion [N]-CA--CB-[CG1] |==|  0.77387
USER: genes 10 Torsion [CA]-CB--CG1-[CD1] |==|  0.39385
USER: genes 11 Torsion [N]-CA--C-[N] |==|  0.34465
USER: genes 12 Torsion [C]-N--CA-[CB] |==|  0.22085
USER: genes 13 Torsion [N]-CA--CB-[CG] |==|  0.39162
USER: genes 14 Torsion [CA]-CB--CG-[CD1] |==|  0.21579
USER: genes 15 Torsion [N]-CA--C-[N] |==|  0.38895
USER: genes 16 Torsion [C]-N--CA-[C] |==|  0.16841
USER: genes 17 Torsion [N]-CA--CB-[OG] |==|  0.72138
USER: genes 18 Torsion [CA]-CB--OG-[HG] |==|  0.04140
USER: genes 19 Torsion [N]-CA--C-[O] |==|  0.10613
ROOT
ATOM      1  CA  ILE B   2      15.275   2.766   8.722  1.00 20.94 LIG 0.18  C 
ENDROOT
BRANCH 1 2
ATOM      2  N   ILE B   2      13.849   2.805   8.396  1.00 18.61 LIG-0.35  N 
ATOM      3  C   ARG B   1      13.384   3.584   7.421  1.00 17.10 LIG 0.25  C 
ATOM      4 O    ARG B   1      14.103   4.359   6.789  1.00 15.59 LIG-0.27  OA
ATOM      5 H    ILE B   2      13.357   2.292   8.879  1.00 18.61 LIG 0.16  HD
BRANCH 3 6
ATOM      6  CA  ARG B   1      11.895   3.458   7.105  1.00 16.65 LIG 0.27  C 
BRANCH 6 7
ATOM      7  N   ARG B   1      11.425   2.091   7.462  1.00 15.45 LIG-0.07  N 
ATOM      8 H2   ARG B   1      11.490   1.560   6.751  1.00 15.45 LIG 0.28  HD
ATOM      9 H1   ARG B   1      10.577   2.129   7.728  1.00 15.45 LIG 0.28  HD
ATOM     10 H3   ARG B   1      11.928   1.766   8.121  1.00 15.45 LIG 0.28  HD
ENDBRANCH 6 7
BRANCH 6 11
ATOM     11  CB  ARG B   1      11.105   4.530   7.881  1.00 15.91 LIG 0.04  C 
BRANCH 11 12
ATOM     12  CG  ARG B   1      11.959   5.600   8.583  1.00 15.51 LIG 0.02  C 
BRANCH 12 13
ATOM     13  CD  ARG B   1      12.102   5.317  10.078  1.00 16.55 LIG 0.14  C 
BRANCH 13 14
ATOM     14  NE  ARG B   1      11.124   4.322  10.520  1.00 17.87 LIG-0.23  N 
ATOM     15  CZ  ARG B   1       9.896   4.596  10.955  1.00 16.76 LIG 0.67  C 
ATOM     16  NH1 ARG B   1       9.447   5.851  11.039  1.00 17.21 LIG-0.23  N 
ATOM     17  NH2 ARG B   1       9.093   3.591  11.305  1.00 19.77 LIG-0.23  N 
ATOM     18 1HH1 ARG B   1       9.955   6.505  10.810  1.00 17.21 LIG 0.17  HD
ATOM     19 2HH1 ARG B   1       8.650   6.004  11.322  1.00 17.21 LIG 0.17  HD
ATOM     20 1HH2 ARG B   1       9.371   2.779  11.248  1.00 19.77 LIG 0.17  HD
ATOM     21 2HH2 ARG B   1       8.297   3.754  11.587  1.00 19.77 LIG 0.17  HD
ATOM     22 HE   ARG B   1      11.361   3.496  10.499  1.00 17.87 LIG 0.18  HD
ENDBRANCH 13 14
ENDBRANCH 12 13
ENDBRANCH 11 12
ENDBRANCH 6 11
ENDBRANCH 3 6
ENDBRANCH 1 2
BRANCH 1 23
ATOM     23  CB  ILE B   2      15.620   3.764   9.855  1.00 21.16 LIG 0.01  C 
ATOM     24  CG2 ILE B   2      16.887   3.333  10.598  1.00 22.94 LIG 0.01  C 
BRANCH 23 25
ATOM     25  CG1 ILE B   2      15.779   5.179   9.272  1.00 22.14 LIG 0.00  C 
ATOM     26  CD1 ILE B   2      15.225   6.324  10.149  1.00 22.60 LIG 0.01  C 
ENDBRANCH 23 25
ENDBRANCH 1 23
BRANCH 1 27
ATOM     27  C   ILE B   2      15.686   1.328   9.063  1.00 21.53 LIG 0.24  C 
ATOM     28 O    ILE B   2      15.077   0.705   9.935  1.00 21.64 LIG-0.27  OA
ATOM     29  N   PHE B   3      16.689   0.795   8.355  1.00 22.69 LIG-0.35  N 
ATOM     30 H    PHE B   3      17.122   1.216   7.743  1.00 22.69 LIG 0.16  HD
BRANCH 29 31
ATOM     31  CA  PHE B   3      17.138  -0.583   8.575  1.00 23.79 LIG 0.18  C 
BRANCH 31 32
ATOM     32  CB  PHE B   3      16.211  -1.585   7.885  1.00 24.86 LIG 0.07  C 
BRANCH 32 33
ATOM     33  CG  PHE B   3      16.938  -2.745   7.255  1.00 25.20 LIG-0.06  A 
ATOM     34  CD1 PHE B   3      17.406  -3.794   8.041  1.00 28.30 LIG 0.01  A 
ATOM     35  CE1 PHE B   3      18.072  -4.875   7.462  1.00 27.60 LIG 0.00  A 
ATOM     36  CZ  PHE B   3      18.274  -4.920   6.084  1.00 28.67 LIG 0.00  A 
ATOM     37  CE2 PHE B   3      17.802  -3.881   5.276  1.00 27.98 LIG 0.00  A 
ATOM     38  CD2 PHE B   3      17.137  -2.797   5.870  1.00 26.62 LIG 0.01  A 
ENDBRANCH 32 33
ENDBRANCH 31 32
BRANCH 31 39
ATOM     39  C   PHE B   3      18.578  -0.800   8.110  1.00 24.64 LIG 0.24  C 
ATOM     40 O    PHE B   3      18.987  -0.284   7.073  1.00 24.93 LIG-0.27  OA
ATOM     41  N   SER B   4      19.331  -1.564   8.893  1.00 25.11 LIG-0.34  N 
ATOM     42 H    SER B   4      19.047  -1.950   9.607  1.00 25.11 LIG 0.16  HD
BRANCH 41 43
ATOM     43  CA  SER B   4      20.733  -1.810   8.587  1.00 25.84 LIG 0.19  C 
BRANCH 43 44
ATOM     44  CB  SER B   4      20.864  -2.522   7.238  1.00 26.02 LIG 0.20  C 
BRANCH 44 45
ATOM     45 OG   SER B   4      21.072  -3.913   7.420  1.00 27.92 LIG-0.40  OA
ATOM     46 HG   SER B   4      20.884  -4.124   8.211  1.00 27.92 LIG 0.21  HD
ENDBRANCH 44 45
ENDBRANCH 43 44
BRANCH 43 47
ATOM     47  C   SER B   4      21.502  -0.498   8.572  1.00 25.91 LIG 0.22  C 
ATOM     48 O    SER B   4      21.251   0.384   9.382  1.00 25.66 LIG-0.29  OA
ENDBRANCH 43 47
ENDBRANCH 41 43
ENDBRANCH 31 39
ENDBRANCH 29 31
ENDBRANCH 1 27
TORSDOF 18
ENDMDL
MODEL 22
USER: ADFR SOLUTION from run 63
USER: SCORE 16.811756 LL:  -2.816 LR: -15.553 RR:   0.000 FEB: -10.183
USER: RMSD 4.728061
USER: SEED 62
USER: STATUS no improvement in best in 10 clusters for 5 generations
USER: GENES 20
USER: genes 0 Translation |==|  0.49459 0.30221 0.50068
USER: genes 1 Rotation |==|  0.43926 0.47050 0.36988 0.97803
USER: genes 2 Torsion [CB]-CA--N-[C] |==|  0.46538
USER: genes 3 Torsion [N]-C--CA-[N] |==|  0.21744
USER: genes 4 Torsion [C]-CA--N-[H2] |==|  0.33614
USER: genes 5 Torsion [C]-CA--CB-[CG] |==|  0.44702
USER: genes 6 Torsion [CA]-CB--CG-[CD] |==|  0.18265
USER: genes 7 Torsion [CB]-CG--CD-[NE] |==|  0.14301
USER: genes 8 Torsion [CG]-CD--NE-[HE] |==|  0.89652
USER: genes 9 Torsion [N]-CA--CB-[CG1] |==|  0.46387
USER: genes 10 Torsion [CA]-CB--CG1-[CD1] |==|  0.18425
USER: genes 11 Torsion [N]-CA--C-[N] |==|  0.88288
USER: genes 12 Torsion [C]-N--CA-[CB] |==|  0.77088
USER: genes 13 Torsion [N]-CA--CB-[CG] |==|  0.83467
USER: genes 14 Torsion [CA]-CB--CG-[CD1] |==|  0.42503
USER: genes 15 Torsion [N]-CA--C-[N] |==|  0.18533
USER: genes 16 Torsion [C]-N--CA-[C] |==|  0.17894
USER: genes 17 Torsion [N]-CA--CB-[OG] |==|  0.44163
USER: genes 18 Torsion [CA]-CB--OG-[HG] |==|  0.69736
USER: genes 19 Torsion [N]-CA--C-[O] |==|  0.32149
ROOT
ATOM      1  CA  ILE B   2      16.059  -0.946   7.848  1.00 20.94 LIG 0.18  C 
ENDROOT
BRANCH 1 2
ATOM      2  N   ILE B   2      15.158   0.200   7.715  1.00 18.61 LIG-0.35  N 
ATOM      3  C   ARG B   1      14.764   0.897   8.779  1.00 17.10 LIG 0.25  C 
ATOM      4 O    ARG B   1      15.074   0.586   9.930  1.00 15.59 LIG-0.27  OA
ATOM      5 H    ILE B   2      14.916   0.372   6.908  1.00 18.61 LIG 0.16  HD
BRANCH 3 6
ATOM      6  CA  ARG B   1      13.911   2.133   8.500  1.00 16.65 LIG 0.27  C 
BRANCH 6 7
ATOM      7  N   ARG B   1      12.511   1.716   8.212  1.00 15.45 LIG-0.07  N 
ATOM      8 H2   ARG B   1      11.962   2.095   8.800  1.00 15.45 LIG 0.28  HD
ATOM      9 H1   ARG B   1      12.447   0.831   8.273  1.00 15.45 LIG 0.28  HD
ATOM     10 H3   ARG B   1      12.288   1.973   7.389  1.00 15.45 LIG 0.28  HD
ENDBRANCH 6 7
BRANCH 6 11
ATOM     11  CB  ARG B   1      13.962   3.085   9.710  1.00 15.91 LIG 0.04  C 
BRANCH 11 12
ATOM     12  CG  ARG B   1      13.549   4.540   9.423  1.00 15.51 LIG 0.02  C 
BRANCH 12 13
ATOM     13  CD  ARG B   1      12.073   4.643   9.042  1.00 16.55 LIG 0.14  C 
BRANCH 13 14
ATOM     14  NE  ARG B   1      11.227   3.966  10.027  1.00 17.87 LIG-0.23  N 
ATOM     15  CZ  ARG B   1      10.031   4.390  10.430  1.00 16.76 LIG 0.67  C 
ATOM     16  NH1 ARG B   1       9.494   5.518   9.961  1.00 17.21 LIG-0.23  N 
ATOM     17  NH2 ARG B   1       9.352   3.663  11.317  1.00 19.77 LIG-0.23  N 
ATOM     18 1HH1 ARG B   1       9.922   5.990   9.384  1.00 17.21 LIG 0.17  HD
ATOM     19 2HH1 ARG B   1       8.720   5.772  10.236  1.00 17.21 LIG 0.17  HD
ATOM     20 1HH2 ARG B   1       9.687   2.931  11.621  1.00 19.77 LIG 0.17  HD
ATOM     21 2HH2 ARG B   1       8.578   3.925  11.586  1.00 19.77 LIG 0.17  HD
ATOM     22 HE   ARG B   1      11.527   3.238  10.373  1.00 17.87 LIG 0.18  HD
ENDBRANCH 13 14
ENDBRANCH 12 13
ENDBRANCH 11 12
ENDBRANCH 6 11
ENDBRANCH 3 6
ENDBRANCH 1 2
BRANCH 1 23
ATOM     23  CB  ILE B   2      16.119  -1.768   6.537  1.00 21.16 LIG 0.01  C 
ATOM     24  CG2 ILE B   2      16.235  -0.847   5.318  1.00 22.94 LIG 0.01  C 
BRANCH 23 25
ATOM     25  CG1 ILE B   2      17.299  -2.755   6.594  1.00 22.14 LIG 0.00  C 
ATOM     26  CD1 ILE B   2      17.175  -3.876   7.648  1.00 22.60 LIG 0.01  C 
ENDBRANCH 23 25
ENDBRANCH 1 23
BRANCH 1 27
ATOM     27  C   ILE B   2      17.443  -0.463   8.301  1.00 21.53 LIG 0.24  C 
ATOM     28 O    ILE B   2      18.076  -1.110   9.137  1.00 21.64 LIG-0.27  OA
ATOM     29  N   PHE B   3      17.921   0.647   7.726  1.00 22.69 LIG-0.35  N 
ATOM     30 H    PHE B   3      17.492   1.107   7.140  1.00 22.69 LIG 0.16  HD
BRANCH 29 31
ATOM     31  CA  PHE B   3      19.247   1.175   8.059  1.00 23.79 LIG 0.18  C 
BRANCH 31 32
ATOM     32  CB  PHE B   3      19.204   2.015   9.337  1.00 24.86 LIG 0.07  C 
BRANCH 32 33
ATOM     33  CG  PHE B   3      18.274   3.198   9.251  1.00 25.20 LIG-0.06  A 
ATOM     34  CD1 PHE B   3      17.687   3.718  10.400  1.00 28.30 LIG 0.01  A 
ATOM     35  CE1 PHE B   3      16.832   4.818  10.327  1.00 27.60 LIG 0.00  A 
ATOM     36  CZ  PHE B   3      16.558   5.416   9.099  1.00 28.67 LIG 0.00  A 
ATOM     37  CE2 PHE B   3      17.147   4.914   7.934  1.00 27.98 LIG 0.00  A 
ATOM     38  CD2 PHE B   3      18.002   3.804   8.018  1.00 26.62 LIG 0.01  A 
ENDBRANCH 32 33
ENDBRANCH 31 32
BRANCH 31 39
ATOM     39  C   PHE B   3      20.289   0.066   8.201  1.00 24.64 LIG 0.24  C 
ATOM     40 O    PHE B   3      20.799  -0.181   9.291  1.00 24.93 LIG-0.27  OA
ATOM     41  N   SER B   4      20.589  -0.593   7.088  1.00 25.11 LIG-0.34  N 
ATOM     42 H    SER B   4      20.257  -0.412   6.316  1.00 25.11 LIG 0.16  HD
BRANCH 41 43
ATOM     43  CA  SER B   4      21.532  -1.702   7.097  1.00 25.84 LIG 0.19  C 
BRANCH 43 44
ATOM     44  CB  SER B   4      22.885  -1.244   7.645  1.00 26.02 LIG 0.20  C 
BRANCH 44 45
ATOM     45 OG   SER B   4      23.642  -2.351   8.110  1.00 27.92 LIG-0.40  OA
ATOM     46 HG   SER B   4      23.680  -2.332   8.949  1.00 27.92 LIG 0.21  HD
ENDBRANCH 44 45
ENDBRANCH 43 44
BRANCH 43 47
ATOM     47  C   SER B   4      20.981  -2.849   7.932  1.00 25.91 LIG 0.22  C 
ATOM     48 O    SER B   4      20.712  -3.925   7.417  1.00 25.66 LIG-0.29  OA
ENDBRANCH 43 47
ENDBRANCH 41 43
ENDBRANCH 31 39
ENDBRANCH 29 31
ENDBRANCH 1 27
TORSDOF 18
ENDMDL
MODEL 23
USER: ADFR SOLUTION from run 25
USER: SCORE 16.932126 LL:  -1.998 LR: -15.542 RR:   0.000 FEB: -10.173
USER: RMSD 6.098441
USER: SEED 24
USER: STATUS no improvement in best in 7 clusters for 5 generations
USER: GENES 20
USER: genes 0 Translation |==|  0.46446 0.49713 0.52069
USER: genes 1 Rotation |==|  0.01317 0.59833 0.44238 0.50361
USER: genes 2 Torsion [CB]-CA--N-[C] |==|  0.14366
USER: genes 3 Torsion [N]-C--CA-[N] |==|  0.11973
USER: genes 4 Torsion [C]-CA--N-[H2] |==|  0.15221
USER: genes 5 Torsion [C]-CA--CB-[CG] |==|  0.60625
USER: genes 6 Torsion [CA]-CB--CG-[CD] |==|  0.58189
USER: genes 7 Torsion [CB]-CG--CD-[NE] |==|  0.29290
USER: genes 8 Torsion [CG]-CD--NE-[HE] |==|  0.30211
USER: genes 9 Torsion [N]-CA--CB-[CG1] |==|  0.51153
USER: genes 10 Torsion [CA]-CB--CG1-[CD1] |==|  0.10734
USER: genes 11 Torsion [N]-CA--C-[N] |==|  0.65771
USER: genes 12 Torsion [C]-N--CA-[CB] |==|  0.84945
USER: genes 13 Torsion [N]-CA--CB-[CG] |==|  0.43946
USER: genes 14 Torsion [CA]-CB--CG-[CD1] |==|  0.69037
USER: genes 15 Torsion [N]-CA--C-[N] |==|  0.37236
USER: genes 16 Torsion [C]-N--CA-[C] |==|  0.61106
USER: genes 17 Torsion [N]-CA--CB-[OG] |==|  0.46092
USER: genes 18 Torsion [CA]-CB--OG-[HG] |==|  0.65853
USER: genes 19 Torsion [N]-CA--C-[O] |==|  0.22230
ROOT
ATOM      1  CA  ILE B   2      15.291   2.416   8.163  1.00 20.94 LIG 0.18  C 
ENDROOT
BRANCH 1 2
ATOM      2  N   ILE B   2      13.932   2.447   7.621  1.00 18.61 LIG-0.35  N 
ATOM      3  C   ARG B   1      13.132   3.494   7.816  1.00 17.10 LIG 0.25  C 
ATOM      4 O    ARG B   1      13.457   4.457   8.512  1.00 15.59 LIG-0.27  OA
ATOM      5 H    ILE B   2      13.708   1.745   7.177  1.00 18.61 LIG 0.16  HD
BRANCH 3 6
ATOM      6  CA  ARG B   1      11.778   3.453   7.112  1.00 16.65 LIG 0.27  C 
BRANCH 6 7
ATOM      7  N   ARG B   1      11.190   2.092   7.243  1.00 15.45 LIG-0.07  N 
ATOM      8 H2   ARG B   1      11.151   1.867   8.103  1.00 15.45 LIG 0.28  HD
ATOM      9 H1   ARG B   1      11.697   1.506   6.805  1.00 15.45 LIG 0.28  HD
ATOM     10 H3   ARG B   1      10.369   2.088   6.899  1.00 15.45 LIG 0.28  HD
ENDBRANCH 6 7
BRANCH 6 11
ATOM     11  CB  ARG B   1      10.842   4.517   7.718  1.00 15.91 LIG 0.04  C 
BRANCH 11 12
ATOM     12  CG  ARG B   1       9.369   4.094   7.863  1.00 15.51 LIG 0.02  C 
BRANCH 12 13
ATOM     13  CD  ARG B   1       8.426   5.292   7.759  1.00 16.55 LIG 0.14  C 
BRANCH 13 14
ATOM     14  NE  ARG B   1       7.738   5.310   6.467  1.00 17.87 LIG-0.23  N 
ATOM     15  CZ  ARG B   1       8.310   5.594   5.299  1.00 16.76 LIG 0.67  C 
ATOM     16  NH1 ARG B   1       9.603   5.913   5.212  1.00 17.21 LIG-0.23  N 
ATOM     17  NH2 ARG B   1       7.572   5.549   4.189  1.00 19.77 LIG-0.23  N 
ATOM     18 1HH1 ARG B   1      10.088   5.939   5.921  1.00 17.21 LIG 0.17  HD
ATOM     19 2HH1 ARG B   1       9.950   6.093   4.446  1.00 17.21 LIG 0.17  HD
ATOM     20 1HH2 ARG B   1       6.739   5.339   4.234  1.00 19.77 LIG 0.17  HD
ATOM     21 2HH2 ARG B   1       7.928   5.731   3.428  1.00 19.77 LIG 0.17  HD
ATOM     22 HE   ARG B   1       6.899   5.123   6.462  1.00 17.87 LIG 0.18  HD
ENDBRANCH 13 14
ENDBRANCH 12 13
ENDBRANCH 11 12
ENDBRANCH 6 11
ENDBRANCH 3 6
ENDBRANCH 1 2
BRANCH 1 23
ATOM     23  CB  ILE B   2      15.298   2.740   9.677  1.00 21.16 LIG 0.01  C 
ATOM     24  CG2 ILE B   2      14.484   1.707  10.462  1.00 22.94 LIG 0.01  C 
BRANCH 23 25
ATOM     25  CG1 ILE B   2      16.749   2.800  10.190  1.00 22.14 LIG 0.00  C 
ATOM     26  CD1 ILE B   2      17.765   3.452   9.227  1.00 22.60 LIG 0.01  C 
ENDBRANCH 23 25
ENDBRANCH 1 23
BRANCH 1 27
ATOM     27  C   ILE B   2      15.940   1.063   7.849  1.00 21.53 LIG 0.24  C 
ATOM     28 O    ILE B   2      16.055   0.692   6.680  1.00 21.64 LIG-0.27  OA
ATOM     29  N   PHE B   3      16.393   0.348   8.886  1.00 22.69 LIG-0.35  N 
ATOM     30 H    PHE B   3      16.322   0.594   9.707  1.00 22.69 LIG 0.16  HD
BRANCH 29 31
ATOM     31  CA  PHE B   3      17.062  -0.943   8.696  1.00 23.79 LIG 0.18  C 
BRANCH 31 32
ATOM     32  CB  PHE B   3      16.197  -1.899   7.873  1.00 24.86 LIG 0.07  C 
BRANCH 32 33
ATOM     33  CG  PHE B   3      16.981  -3.001   7.208  1.00 25.20 LIG-0.06  A 
ATOM     34  CD1 PHE B   3      17.120  -3.030   5.824  1.00 28.30 LIG 0.01  A 
ATOM     35  CE1 PHE B   3      17.851  -4.043   5.202  1.00 27.60 LIG 0.00  A 
ATOM     36  CZ  PHE B   3      18.457  -5.040   5.963  1.00 28.67 LIG 0.00  A 
ATOM     37  CE2 PHE B   3      18.338  -5.023   7.357  1.00 27.98 LIG 0.00  A 
ATOM     38  CD2 PHE B   3      17.597  -4.001   7.970  1.00 26.62 LIG 0.01  A 
ENDBRANCH 32 33
ENDBRANCH 31 32
BRANCH 31 39
ATOM     39  C   PHE B   3      18.435  -0.789   8.042  1.00 24.64 LIG 0.24  C 
ATOM     40 O    PHE B   3      18.586  -0.060   7.065  1.00 24.93 LIG-0.27  OA
ATOM     41  N   SER B   4      19.422  -1.481   8.598  1.00 25.11 LIG-0.34  N 
ATOM     42 H    SER B   4      19.322  -2.013   9.267  1.00 25.11 LIG 0.16  HD
BRANCH 41 43
ATOM     43  CA  SER B   4      20.786  -1.385   8.100  1.00 25.84 LIG 0.19  C 
BRANCH 43 44
ATOM     44  CB  SER B   4      21.594  -0.402   8.950  1.00 26.02 LIG 0.20  C 
BRANCH 44 45
ATOM     45 OG   SER B   4      22.983  -0.534   8.691  1.00 27.92 LIG-0.40  OA
ATOM     46 HG   SER B   4      23.387  -0.704   9.408  1.00 27.92 LIG 0.21  HD
ENDBRANCH 44 45
ENDBRANCH 43 44
BRANCH 43 47
ATOM     47  C   SER B   4      21.443  -2.757   8.108  1.00 25.91 LIG 0.22  C 
ATOM     48 O    SER B   4      21.220  -3.563   7.215  1.00 25.66 LIG-0.29  OA
ENDBRANCH 43 47
ENDBRANCH 41 43
ENDBRANCH 31 39
ENDBRANCH 29 31
ENDBRANCH 1 27
TORSDOF 18
ENDMDL
