MODEL 1
USER: ADFR SOLUTION from run 134
USER: SCORE 20.017400 LL:  -2.246 LR: -18.144 RR:   0.000 FEB: -11.284
USER: RMSD 6.888442
USER: SEED 133
USER: STATUS searching
USER: GENES 25
USER: genes 0 Translation |==|  0.56771 0.64814 0.50169
USER: genes 1 Rotation |==|  0.65135 0.71877 0.27835 0.86070
USER: genes 2 Torsion [C]-CA--CB-[CG] |==|  0.79682
USER: genes 3 Torsion [CA]-CB--CG-[CD] |==|  0.57826
USER: genes 4 Torsion [CB]-CG--CD-[NE] |==|  0.04111
USER: genes 5 Torsion [CG]-CD--NE-[HE] |==|  0.05290
USER: genes 6 Torsion [N]-CA--C-[N] |==|  0.06691
USER: genes 7 Torsion [C]-N--CA-[C] |==|  0.16617
USER: genes 8 Torsion [N]-CA--C-[N] |==|  0.10911
USER: genes 9 Torsion [C]-N--CA-[CB] |==|  0.87186
USER: genes 10 Torsion [N]-CA--CB-[CG] |==|  0.63686
USER: genes 11 Torsion [CA]-CB--CG-[CD] |==|  0.31165
USER: genes 12 Torsion [CB]-CG--CD-[CE] |==|  0.00238
USER: genes 13 Torsion [CG]-CD--CE-[NZ] |==|  0.63586
USER: genes 14 Torsion [CD]-CE--NZ-[HZ2] |==|  0.02472
USER: genes 15 Torsion [N]-CA--C-[N] |==|  0.35000
USER: genes 16 Torsion [C]-N--CA-[C] |==|  0.46978
USER: genes 17 Torsion [N]-CA--C-[O] |==|  0.12186
USER: genes 18 Torsion [N]-CA--CB-[OG] |==|  0.89815
USER: genes 19 Torsion [CA]-CB--OG-[HG] |==|  0.37289
USER: genes 20 Torsion [CB]-CA--N-[C] |==|  0.17751
USER: genes 21 Torsion [N]-C--CA-[N] |==|  0.11151
USER: genes 22 Torsion [C]-CA--CB-[CG] |==|  0.22829
USER: genes 23 Torsion [CA]-CB--CG-[CD1] |==|  0.83614
USER: genes 24 Torsion [C]-CA--N-[H2] |==|  0.87658
ROOT
ATOM      1  CA  ARG D   2     -10.091   0.195  11.971  1.00 39.33 LIG 0.18  C 
ENDROOT
BRANCH 1 2
ATOM      2  CB  ARG D   2     -10.360   1.502  12.695  1.00 35.05 LIG 0.04  C 
BRANCH 2 3
ATOM      3  CG  ARG D   2     -11.122   2.480  11.842  1.00 57.88 LIG 0.02  C 
BRANCH 3 4
ATOM      4  CD  ARG D   2     -10.810   3.914  12.225  1.00 90.52 LIG 0.14  C 
BRANCH 4 5
ATOM      5  NE  ARG D   2      -9.616   4.012  13.064  1.00 84.14 LIG-0.23  N 
ATOM      6 HE   ARG D   2      -9.071   3.347  13.062  1.00 84.14 LIG 0.18  HD
ATOM      7  CZ  ARG D   2      -9.314   5.058  13.831  1.00 83.97 LIG 0.67  C 
ATOM      8  NH2 ARG D   2      -8.200   5.046  14.554  1.00 60.39 LIG-0.23  N 
ATOM      9  NH1 ARG D   2     -10.123   6.110  13.888  1.00 80.72 LIG-0.23  N 
ATOM     10 1HH2 ARG D   2      -7.676   4.364  14.526  1.00 60.39 LIG 0.17  HD
ATOM     11 2HH2 ARG D   2      -8.002   5.719  15.051  1.00 60.39 LIG 0.17  HD
ATOM     12 2HH1 ARG D   2      -9.921   6.782  14.386  1.00 80.72 LIG 0.17  HD
ATOM     13 1HH1 ARG D   2     -10.849   6.120  13.427  1.00 80.72 LIG 0.17  HD
ENDBRANCH 4 5
ENDBRANCH 3 4
ENDBRANCH 2 3
ENDBRANCH 1 2
BRANCH 1 14
ATOM     14  C   ARG D   2     -11.374  -0.602  11.869  1.00 29.38 LIG 0.24  C 
ATOM     15 O    ARG D   2     -12.202  -0.582  12.777  1.00 21.44 LIG-0.27  OA
ATOM     16  N   SER D   3     -11.548  -1.308  10.762  1.00 29.93 LIG-0.34  N 
ATOM     17 H    SER D   3     -11.019  -1.300  10.083  1.00 29.93 LIG 0.16  HD
BRANCH 16 18
ATOM     18  CA  SER D   3     -12.707  -2.180  10.637  1.00 48.61 LIG 0.20  C 
BRANCH 18 19
ATOM     19  C   SER D   3     -13.971  -1.352  10.758  1.00 58.83 LIG 0.24  C 
ATOM     20  N   LYS D   4     -13.952  -0.163  10.168  1.00 77.18 LIG-0.35  N 
ATOM     21 H    LYS D   4     -13.262   0.173   9.778  1.00 77.18 LIG 0.16  HD
ATOM     22 O    SER D   3     -14.939  -1.772  11.393  1.00 53.61 LIG-0.27  OA
BRANCH 20 23
ATOM     23  CA  LYS D   4     -15.137   0.682  10.141  1.00 70.35 LIG 0.18  C 
BRANCH 23 24
ATOM     24  CB  LYS D   4     -16.373  -0.129   9.745  1.00 80.12 LIG 0.04  C 
BRANCH 24 25
ATOM     25  CG  LYS D   4     -17.196   0.520   8.640  1.00 84.36 LIG 0.00  C 
BRANCH 25 26
ATOM     26  CD  LYS D   4     -17.153  -0.265   7.344  1.00102.13 LIG 0.03  C 
BRANCH 26 27
ATOM     27  CE  LYS D   4     -16.305  -1.521   7.503  1.00 86.00 LIG 0.23  C 
BRANCH 27 28
ATOM     28  NZ  LYS D   4     -15.314  -1.671   6.403  1.00 85.97 LIG-0.08  N 
ATOM     29 HZ3  LYS D   4     -14.505  -1.809   6.749  1.00 85.97 LIG 0.27  HD
ATOM     30 HZ2  LYS D   4     -15.303  -0.930   5.910  1.00 85.97 LIG 0.27  HD
ATOM     31 HZ1  LYS D   4     -15.541  -2.363   5.891  1.00 85.97 LIG 0.27  HD
ENDBRANCH 27 28
ENDBRANCH 26 27
ENDBRANCH 25 26
ENDBRANCH 24 25
ENDBRANCH 23 24
BRANCH 23 32
ATOM     32  C   LYS D   4     -15.307   1.287  11.525  1.00 69.25 LIG 0.24  C 
ATOM     33 O    LYS D   4     -15.367   0.572  12.526  1.00 74.50 LIG-0.27  OA
ATOM     34  N   GLY D   5     -15.403   2.613  11.567  1.00 72.69 LIG-0.35  N 
ATOM     35 H    GLY D   5     -15.329   3.119  10.875  1.00 72.69 LIG 0.16  HD
BRANCH 34 36
ATOM     36  CA  GLY D   5     -15.644   3.330  12.805  1.00 67.28 LIG 0.21  C 
BRANCH 36 37
ATOM     37  C   GLY D   5     -15.449   4.823  12.637  1.00 69.64 LIG 0.21  C 
ATOM     38 O    GLY D   5     -15.899   5.412  11.652  1.00 73.82 LIG-0.29  OA
ENDBRANCH 36 37
ENDBRANCH 34 36
ENDBRANCH 23 32
ENDBRANCH 20 23
ENDBRANCH 18 19
BRANCH 18 39
ATOM     39  CB  SER D   3     -12.678  -3.259  11.706  1.00 47.59 LIG 0.20  C 
BRANCH 39 40
ATOM     40 OG   SER D   3     -11.348  -3.679  11.937  1.00 55.88 LIG-0.40  OA
ATOM     41 HG   SER D   3     -11.207  -3.722  12.764  1.00 55.88 LIG 0.21  HD
ENDBRANCH 39 40
ENDBRANCH 18 39
ENDBRANCH 16 18
ENDBRANCH 1 14
BRANCH 1 42
ATOM     42  N   ARG D   2      -9.583   0.473  10.648  1.00 24.62 LIG-0.35  N 
ATOM     43 H    ARG D   2     -10.089   0.210  10.005  1.00 24.62 LIG 0.16  HD
ATOM     44  C   PHE D   1      -8.427   1.086  10.483  1.00 23.06 LIG 0.25  C 
ATOM     45 O    PHE D   1      -7.721   1.446  11.421  1.00 27.40 LIG-0.27  OA
BRANCH 44 46
ATOM     46  CA  PHE D   1      -8.045   1.422   9.048  1.00 18.76 LIG 0.28  C 
BRANCH 46 47
ATOM     47  CB  PHE D   1      -6.917   2.445   8.934  1.00 12.58 LIG 0.08  C 
BRANCH 47 48
ATOM     48  CG  PHE D   1      -5.545   1.826   9.088  1.00 17.06 LIG-0.06  A 
ATOM     49  CD1 PHE D   1      -5.202   1.140  10.249  1.00 22.27 LIG 0.01  A 
ATOM     50  CE1 PHE D   1      -3.941   0.546  10.389  1.00 15.67 LIG 0.00  A 
ATOM     51  CZ  PHE D   1      -3.009   0.647   9.358  1.00 13.83 LIG 0.00  A 
ATOM     52  CE2 PHE D   1      -3.345   1.318   8.197  1.00 20.38 LIG 0.00  A 
ATOM     53  CD2 PHE D   1      -4.609   1.901   8.059  1.00 21.07 LIG 0.01  A 
ENDBRANCH 47 48
ENDBRANCH 46 47
BRANCH 46 54
ATOM     54  N   PHE D   1      -9.243   1.891   8.311  1.00 21.45 LIG-0.07  N 
ATOM     55 H2   PHE D   1      -9.932   1.360   8.497  1.00 21.45 LIG 0.28  HD
ATOM     56 H3   PHE D   1      -9.436   2.724   8.558  1.00 21.45 LIG 0.28  HD
ATOM     57 H1   PHE D   1      -9.080   1.872   7.437  1.00 21.45 LIG 0.28  HD
ENDBRANCH 46 54
ENDBRANCH 44 46
ENDBRANCH 1 42
TORSDOF 23
ENDMDL
MODEL 2
USER: ADFR SOLUTION from run 136
USER: SCORE 19.115814 LL:  -2.966 LR: -17.239 RR:   0.000 FEB: -10.378
USER: RMSD 5.653512
USER: SEED 135
USER: STATUS no improvement in best in 10 clusters for 5 generations
USER: GENES 25
USER: genes 0 Translation |==|  0.55031 0.70020 0.50729
USER: genes 1 Rotation |==|  0.59014 0.67207 0.27137 0.89999
USER: genes 2 Torsion [C]-CA--CB-[CG] |==|  0.11742
USER: genes 3 Torsion [CA]-CB--CG-[CD] |==|  0.35907
USER: genes 4 Torsion [CB]-CG--CD-[NE] |==|  0.13008
USER: genes 5 Torsion [CG]-CD--NE-[HE] |==|  0.15419
USER: genes 6 Torsion [N]-CA--C-[N] |==|  0.82291
USER: genes 7 Torsion [C]-N--CA-[C] |==|  0.85539
USER: genes 8 Torsion [N]-CA--C-[N] |==|  0.38121
USER: genes 9 Torsion [C]-N--CA-[CB] |==|  0.86882
USER: genes 10 Torsion [N]-CA--CB-[CG] |==|  0.80694
USER: genes 11 Torsion [CA]-CB--CG-[CD] |==|  0.21475
USER: genes 12 Torsion [CB]-CG--CD-[CE] |==|  0.33141
USER: genes 13 Torsion [CG]-CD--CE-[NZ] |==|  0.66068
USER: genes 14 Torsion [CD]-CE--NZ-[HZ2] |==|  0.60484
USER: genes 15 Torsion [N]-CA--C-[N] |==|  0.40380
USER: genes 16 Torsion [C]-N--CA-[C] |==|  0.65347
USER: genes 17 Torsion [N]-CA--C-[O] |==|  0.01441
USER: genes 18 Torsion [N]-CA--CB-[OG] |==|  0.18183
USER: genes 19 Torsion [CA]-CB--OG-[HG] |==|  0.04592
USER: genes 20 Torsion [CB]-CA--N-[C] |==|  0.22222
USER: genes 21 Torsion [N]-C--CA-[N] |==|  0.09042
USER: genes 22 Torsion [C]-CA--CB-[CG] |==|  0.24530
USER: genes 23 Torsion [CA]-CB--CG-[CD1] |==|  0.85308
USER: genes 24 Torsion [C]-CA--N-[H2] |==|  0.43615
ROOT
ATOM      1  CA  ARG D   2     -10.470   1.249  12.085  1.00 39.33 LIG 0.18  C 
ENDROOT
BRANCH 1 2
ATOM      2  CB  ARG D   2     -10.921   2.677  12.333  1.00 35.05 LIG 0.04  C 
BRANCH 2 3
ATOM      3  CG  ARG D   2     -11.919   2.774  13.454  1.00 57.88 LIG 0.02  C 
BRANCH 3 4
ATOM      4  CD  ARG D   2     -11.517   3.827  14.469  1.00 90.52 LIG 0.14  C 
BRANCH 4 5
ATOM      5  NE  ARG D   2     -11.117   5.081  13.831  1.00 84.14 LIG-0.23  N 
ATOM      6 HE   ARG D   2     -11.677   5.453  13.294  1.00 84.14 LIG 0.18  HD
ATOM      7  CZ  ARG D   2      -9.947   5.688  14.023  1.00 83.97 LIG 0.67  C 
ATOM      8  NH2 ARG D   2      -9.685   6.829  13.395  1.00 60.39 LIG-0.23  N 
ATOM      9  NH1 ARG D   2      -9.035   5.157  14.831  1.00 80.72 LIG-0.23  N 
ATOM     10 1HH2 ARG D   2     -10.270   7.173  12.866  1.00 60.39 LIG 0.17  HD
ATOM     11 2HH2 ARG D   2      -8.930   7.223  13.517  1.00 60.39 LIG 0.17  HD
ATOM     12 2HH1 ARG D   2      -8.282   5.555  14.950  1.00 80.72 LIG 0.17  HD
ATOM     13 1HH1 ARG D   2      -9.198   4.416  15.234  1.00 80.72 LIG 0.17  HD
ENDBRANCH 4 5
ENDBRANCH 3 4
ENDBRANCH 2 3
ENDBRANCH 1 2
BRANCH 1 14
ATOM     14  C   ARG D   2     -11.664   0.321  12.153  1.00 29.38 LIG 0.24  C 
ATOM     15 O    ARG D   2     -11.679  -0.628  12.934  1.00 21.44 LIG-0.27  OA
ATOM     16  N   SER D   3     -12.671   0.589  11.336  1.00 29.93 LIG-0.34  N 
ATOM     17 H    SER D   3     -12.719   1.275  10.820  1.00 29.93 LIG 0.16  HD
BRANCH 16 18
ATOM     18  CA  SER D   3     -13.808  -0.319  11.271  1.00 48.61 LIG 0.20  C 
BRANCH 18 19
ATOM     19  C   SER D   3     -13.308  -1.730  11.029  1.00 58.83 LIG 0.24  C 
ATOM     20  N   LYS D   4     -13.890  -2.688  11.742  1.00 77.18 LIG-0.35  N 
ATOM     21 H    LYS D   4     -14.480  -2.546  12.352  1.00 77.18 LIG 0.16  HD
ATOM     22 O    SER D   3     -12.398  -1.946  10.229  1.00 53.61 LIG-0.27  OA
BRANCH 20 23
ATOM     23  CA  LYS D   4     -13.556  -4.089  11.532  1.00 70.35 LIG 0.18  C 
BRANCH 23 24
ATOM     24  CB  LYS D   4     -13.562  -4.430  10.039  1.00 80.12 LIG 0.04  C 
BRANCH 24 25
ATOM     25  CG  LYS D   4     -14.953  -4.416   9.421  1.00 84.36 LIG 0.00  C 
BRANCH 25 26
ATOM     26  CD  LYS D   4     -15.458  -3.012   9.153  1.00102.13 LIG 0.03  C 
BRANCH 26 27
ATOM     27  CE  LYS D   4     -15.726  -2.810   7.667  1.00 86.00 LIG 0.23  C 
BRANCH 27 28
ATOM     28  NZ  LYS D   4     -14.939  -1.680   7.103  1.00 85.97 LIG-0.08  N 
ATOM     29 HZ3  LYS D   4     -14.704  -1.126   7.759  1.00 85.97 LIG 0.27  HD
ATOM     30 HZ2  LYS D   4     -15.433  -1.242   6.507  1.00 85.97 LIG 0.27  HD
ATOM     31 HZ1  LYS D   4     -14.208  -1.997   6.705  1.00 85.97 LIG 0.27  HD
ENDBRANCH 27 28
ENDBRANCH 26 27
ENDBRANCH 25 26
ENDBRANCH 24 25
ENDBRANCH 23 24
BRANCH 23 32
ATOM     32  C   LYS D   4     -12.184  -4.334  12.137  1.00 69.25 LIG 0.24  C 
ATOM     33 O    LYS D   4     -11.308  -3.471  12.094  1.00 74.50 LIG-0.27  OA
ATOM     34  N   GLY D   5     -12.003  -5.532  12.687  1.00 72.69 LIG-0.35  N 
ATOM     35 H    GLY D   5     -12.621  -6.127  12.749  1.00 72.69 LIG 0.16  HD
BRANCH 34 36
ATOM     36  CA  GLY D   5     -10.724  -5.943  13.236  1.00 67.28 LIG 0.21  C 
BRANCH 36 37
ATOM     37  C   GLY D   5     -10.237  -7.239  12.620  1.00 69.64 LIG 0.21  C 
ATOM     38 O    GLY D   5     -10.853  -7.768  11.693  1.00 73.82 LIG-0.29  OA
ENDBRANCH 36 37
ENDBRANCH 34 36
ENDBRANCH 23 32
ENDBRANCH 20 23
ENDBRANCH 18 19
BRANCH 18 39
ATOM     39  CB  SER D   3     -14.760   0.100  10.164  1.00 47.59 LIG 0.20  C 
BRANCH 39 40
ATOM     40 OG   SER D   3     -14.133  -0.039   8.904  1.00 55.88 LIG-0.40  OA
ATOM     41 HG   SER D   3     -13.455  -0.528   8.981  1.00 55.88 LIG 0.21  HD
ENDBRANCH 39 40
ENDBRANCH 18 39
ENDBRANCH 16 18
ENDBRANCH 1 14
BRANCH 1 42
ATOM     42  N   ARG D   2      -9.856   1.158  10.780  1.00 24.62 LIG-0.35  N 
ATOM     43 H    ARG D   2     -10.365   0.842  10.163  1.00 24.62 LIG 0.16  HD
ATOM     44  C   PHE D   1      -8.608   1.543  10.593  1.00 23.06 LIG 0.25  C 
ATOM     45 O    PHE D   1      -7.902   1.985  11.494  1.00 27.40 LIG-0.27  OA
BRANCH 44 46
ATOM     46  CA  PHE D   1      -8.103   1.503   9.157  1.00 18.76 LIG 0.28  C 
BRANCH 46 47
ATOM     47  CB  PHE D   1      -6.928   2.441   8.891  1.00 12.58 LIG 0.08  C 
BRANCH 47 48
ATOM     48  CG  PHE D   1      -5.587   1.797   9.169  1.00 17.06 LIG-0.06  A 
ATOM     49  CD1 PHE D   1      -5.333   1.190  10.396  1.00 22.27 LIG 0.01  A 
ATOM     50  CE1 PHE D   1      -4.102   0.573  10.652  1.00 15.67 LIG 0.00  A 
ATOM     51  CZ  PHE D   1      -3.111   0.570   9.673  1.00 13.83 LIG 0.00  A 
ATOM     52  CE2 PHE D   1      -3.358   1.161   8.448  1.00 20.38 LIG 0.00  A 
ATOM     53  CD2 PHE D   1      -4.593   1.768   8.194  1.00 21.07 LIG 0.01  A 
ENDBRANCH 47 48
ENDBRANCH 46 47
BRANCH 46 54
ATOM     54  N   PHE D   1      -9.220   1.799   8.229  1.00 21.45 LIG-0.07  N 
ATOM     55 H2   PHE D   1      -8.893   2.102   7.458  1.00 21.45 LIG 0.28  HD
ATOM     56 H3   PHE D   1      -9.689   1.057   8.081  1.00 21.45 LIG 0.28  HD
ATOM     57 H1   PHE D   1      -9.749   2.418   8.589  1.00 21.45 LIG 0.28  HD
ENDBRANCH 46 54
ENDBRANCH 44 46
ENDBRANCH 1 42
TORSDOF 23
ENDMDL
MODEL 3
USER: ADFR SOLUTION from run 112
USER: SCORE 19.294880 LL:  -2.754 LR: -17.234 RR:   0.000 FEB: -10.373
USER: RMSD 6.693752
USER: SEED 111
USER: STATUS searching
USER: GENES 25
USER: genes 0 Translation |==|  0.54734 0.68880 0.43186
USER: genes 1 Rotation |==|  0.26488 0.07254 0.53469 0.60387
USER: genes 2 Torsion [C]-CA--CB-[CG] |==|  0.55539
USER: genes 3 Torsion [CA]-CB--CG-[CD] |==|  0.64395
USER: genes 4 Torsion [CB]-CG--CD-[NE] |==|  0.34778
USER: genes 5 Torsion [CG]-CD--NE-[HE] |==|  0.32421
USER: genes 6 Torsion [N]-CA--C-[N] |==|  0.25030
USER: genes 7 Torsion [C]-N--CA-[C] |==|  0.84700
USER: genes 8 Torsion [N]-CA--C-[N] |==|  0.38057
USER: genes 9 Torsion [C]-N--CA-[CB] |==|  0.87203
USER: genes 10 Torsion [N]-CA--CB-[CG] |==|  0.80925
USER: genes 11 Torsion [CA]-CB--CG-[CD] |==|  0.29142
USER: genes 12 Torsion [CB]-CG--CD-[CE] |==|  0.16314
USER: genes 13 Torsion [CG]-CD--CE-[NZ] |==|  0.64054
USER: genes 14 Torsion [CD]-CE--NZ-[HZ2] |==|  0.26052
USER: genes 15 Torsion [N]-CA--C-[N] |==|  0.38267
USER: genes 16 Torsion [C]-N--CA-[C] |==|  0.78740
USER: genes 17 Torsion [N]-CA--C-[O] |==|  0.11956
USER: genes 18 Torsion [N]-CA--CB-[OG] |==|  0.79302
USER: genes 19 Torsion [CA]-CB--OG-[HG] |==|  0.06772
USER: genes 20 Torsion [CB]-CA--N-[C] |==|  0.79997
USER: genes 21 Torsion [N]-C--CA-[N] |==|  0.02394
USER: genes 22 Torsion [C]-CA--CB-[CG] |==|  0.85722
USER: genes 23 Torsion [CA]-CB--CG-[CD1] |==|  0.73708
USER: genes 24 Torsion [C]-CA--N-[H2] |==|  0.56621
ROOT
ATOM      1  CA  ARG D   2     -10.534   1.018  10.557  1.00 39.33 LIG 0.18  C 
ENDROOT
BRANCH 1 2
ATOM      2  CB  ARG D   2      -9.338   0.141  10.880  1.00 35.05 LIG 0.04  C 
BRANCH 2 3
ATOM      3  CG  ARG D   2      -8.065   0.934  10.999  1.00 57.88 LIG 0.02  C 
BRANCH 3 4
ATOM      4  CD  ARG D   2      -6.964   0.355  10.132  1.00 90.52 LIG 0.14  C 
BRANCH 4 5
ATOM      5  NE  ARG D   2      -6.401   1.351   9.221  1.00 84.14 LIG-0.23  N 
ATOM      6 HE   ARG D   2      -5.571   1.558   9.318  1.00 84.14 LIG 0.18  HD
ATOM      7  CZ  ARG D   2      -7.081   1.960   8.251  1.00 83.97 LIG 0.67  C 
ATOM      8  NH2 ARG D   2      -6.471   2.849   7.475  1.00 60.39 LIG-0.23  N 
ATOM      9  NH1 ARG D   2      -8.369   1.693   8.059  1.00 80.72 LIG-0.23  N 
ATOM     10 1HH2 ARG D   2      -5.639   3.030   7.600  1.00 60.39 LIG 0.17  HD
ATOM     11 2HH2 ARG D   2      -6.908   3.244   6.848  1.00 60.39 LIG 0.17  HD
ATOM     12 2HH1 ARG D   2      -8.801   2.090   7.430  1.00 80.72 LIG 0.17  HD
ATOM     13 1HH1 ARG D   2      -8.769   1.123   8.562  1.00 80.72 LIG 0.17  HD
ENDBRANCH 4 5
ENDBRANCH 3 4
ENDBRANCH 2 3
ENDBRANCH 1 2
BRANCH 1 14
ATOM     14  C   ARG D   2     -11.810   0.291  10.926  1.00 29.38 LIG 0.24  C 
ATOM     15 O    ARG D   2     -11.829  -0.515  11.853  1.00 21.44 LIG-0.27  OA
ATOM     16  N   SER D   3     -12.884   0.572  10.203  1.00 29.93 LIG-0.34  N 
ATOM     17 H    SER D   3     -12.920   1.172   9.587  1.00 29.93 LIG 0.16  HD
BRANCH 16 18
ATOM     18  CA  SER D   3     -14.119  -0.163  10.430  1.00 48.61 LIG 0.20  C 
BRANCH 18 19
ATOM     19  C   SER D   3     -13.848  -1.649  10.301  1.00 58.83 LIG 0.24  C 
ATOM     20  N   LYS D   4     -14.412  -2.430  11.215  1.00 77.18 LIG-0.35  N 
ATOM     21 H    LYS D   4     -14.866  -2.140  11.886  1.00 77.18 LIG 0.16  HD
ATOM     22 O    SER D   3     -13.124  -2.080   9.403  1.00 53.61 LIG-0.27  OA
BRANCH 20 23
ATOM     23  CA  LYS D   4     -14.297  -3.879  11.140  1.00 70.35 LIG 0.18  C 
BRANCH 23 24
ATOM     24  CB  LYS D   4     -14.576  -4.374   9.719  1.00 80.12 LIG 0.04  C 
BRANCH 24 25
ATOM     25  CG  LYS D   4     -16.028  -4.206   9.293  1.00 84.36 LIG 0.00  C 
BRANCH 25 26
ATOM     26  CD  LYS D   4     -16.222  -3.055   8.325  1.00102.13 LIG 0.03  C 
BRANCH 26 27
ATOM     27  CE  LYS D   4     -15.379  -3.256   7.072  1.00 86.00 LIG 0.23  C 
BRANCH 27 28
ATOM     28  NZ  LYS D   4     -14.564  -2.055   6.745  1.00 85.97 LIG-0.08  N 
ATOM     29 HZ3  LYS D   4     -14.490  -1.979   5.861  1.00 85.97 LIG 0.27  HD
ATOM     30 HZ2  LYS D   4     -13.755  -2.138   7.105  1.00 85.97 LIG 0.27  HD
ATOM     31 HZ1  LYS D   4     -14.961  -1.329   7.073  1.00 85.97 LIG 0.27  HD
ENDBRANCH 27 28
ENDBRANCH 26 27
ENDBRANCH 25 26
ENDBRANCH 24 25
ENDBRANCH 23 24
BRANCH 23 32
ATOM     32  C   LYS D   4     -12.891  -4.255  11.578  1.00 69.25 LIG 0.24  C 
ATOM     33 O    LYS D   4     -11.913  -3.615  11.190  1.00 74.50 LIG-0.27  OA
ATOM     34  N   GLY D   5     -12.800  -5.315  12.377  1.00 72.69 LIG-0.35  N 
ATOM     35 H    GLY D   5     -13.481  -5.745  12.678  1.00 72.69 LIG 0.16  HD
BRANCH 34 36
ATOM     36  CA  GLY D   5     -11.522  -5.842  12.817  1.00 67.28 LIG 0.21  C 
BRANCH 36 37
ATOM     37  C   GLY D   5     -10.834  -6.635  11.723  1.00 69.64 LIG 0.21  C 
ATOM     38 O    GLY D   5     -10.814  -6.222  10.562  1.00 73.82 LIG-0.29  OA
ENDBRANCH 36 37
ENDBRANCH 34 36
ENDBRANCH 23 32
ENDBRANCH 20 23
ENDBRANCH 18 19
BRANCH 18 39
ATOM     39  CB  SER D   3     -15.185   0.267   9.438  1.00 47.59 LIG 0.20  C 
BRANCH 39 40
ATOM     40 OG   SER D   3     -15.689   1.542   9.787  1.00 55.88 LIG-0.40  OA
ATOM     41 HG   SER D   3     -15.114   1.956  10.238  1.00 55.88 LIG 0.21  HD
ENDBRANCH 39 40
ENDBRANCH 18 39
ENDBRANCH 16 18
ENDBRANCH 1 14
BRANCH 1 42
ATOM     42  N   ARG D   2     -10.442   2.251  11.304  1.00 24.62 LIG-0.35  N 
ATOM     43 H    ARG D   2     -10.249   2.944  10.832  1.00 24.62 LIG 0.16  HD
ATOM     44  C   PHE D   1     -10.647   2.270  12.606  1.00 23.06 LIG 0.25  C 
ATOM     45 O    PHE D   1     -10.916   1.263  13.255  1.00 27.40 LIG-0.27  OA
BRANCH 44 46
ATOM     46  CA  PHE D   1     -10.629   3.641  13.269  1.00 18.76 LIG 0.28  C 
BRANCH 46 47
ATOM     47  CB  PHE D   1     -11.802   3.881  14.217  1.00 12.58 LIG 0.08  C 
BRANCH 47 48
ATOM     48  CG  PHE D   1     -13.142   3.584  13.581  1.00 17.06 LIG-0.06  A 
ATOM     49  CD1 PHE D   1     -13.887   4.601  12.990  1.00 22.27 LIG 0.01  A 
ATOM     50  CE1 PHE D   1     -15.119   4.329  12.381  1.00 15.67 LIG 0.00  A 
ATOM     51  CZ  PHE D   1     -15.615   3.027  12.370  1.00 13.83 LIG 0.00  A 
ATOM     52  CE2 PHE D   1     -14.876   2.009  12.946  1.00 20.38 LIG 0.00  A 
ATOM     53  CD2 PHE D   1     -13.643   2.285  13.545  1.00 21.07 LIG 0.01  A 
ENDBRANCH 47 48
ENDBRANCH 46 47
BRANCH 46 54
ATOM     54  N   PHE D   1     -10.584   4.695  12.227  1.00 21.45 LIG-0.07  N 
ATOM     55 H2   PHE D   1     -10.235   5.438  12.572  1.00 21.45 LIG 0.28  HD
ATOM     56 H3   PHE D   1     -10.080   4.419  11.547  1.00 21.45 LIG 0.28  HD
ATOM     57 H1   PHE D   1     -11.408   4.862  11.937  1.00 21.45 LIG 0.28  HD
ENDBRANCH 46 54
ENDBRANCH 44 46
ENDBRANCH 1 42
TORSDOF 23
ENDMDL
MODEL 4
USER: ADFR SOLUTION from run 92
USER: SCORE 17.807640 LL:  -2.275 LR: -17.219 RR:   0.000 FEB: -10.358
USER: RMSD 6.429085
USER: SEED 91
USER: STATUS no improvement in best in 14 clusters for 5 generations
USER: GENES 25
USER: genes 0 Translation |==|  0.47665 0.60530 0.48555
USER: genes 1 Rotation |==|  0.71591 0.60231 0.34643 0.91150
USER: genes 2 Torsion [C]-CA--CB-[CG] |==|  0.33035
USER: genes 3 Torsion [CA]-CB--CG-[CD] |==|  0.33889
USER: genes 4 Torsion [CB]-CG--CD-[NE] |==|  0.95285
USER: genes 5 Torsion [CG]-CD--NE-[HE] |==|  0.86313
USER: genes 6 Torsion [N]-CA--C-[N] |==|  0.50622
USER: genes 7 Torsion [C]-N--CA-[C] |==|  0.77704
USER: genes 8 Torsion [N]-CA--C-[N] |==|  0.17097
USER: genes 9 Torsion [C]-N--CA-[CB] |==|  0.79884
USER: genes 10 Torsion [N]-CA--CB-[CG] |==|  0.79409
USER: genes 11 Torsion [CA]-CB--CG-[CD] |==|  0.65133
USER: genes 12 Torsion [CB]-CG--CD-[CE] |==|  0.31695
USER: genes 13 Torsion [CG]-CD--CE-[NZ] |==|  0.30281
USER: genes 14 Torsion [CD]-CE--NZ-[HZ2] |==|  0.58476
USER: genes 15 Torsion [N]-CA--C-[N] |==|  0.18333
USER: genes 16 Torsion [C]-N--CA-[C] |==|  0.47724
USER: genes 17 Torsion [N]-CA--C-[O] |==|  0.88253
USER: genes 18 Torsion [N]-CA--CB-[OG] |==|  0.76243
USER: genes 19 Torsion [CA]-CB--OG-[HG] |==|  0.37430
USER: genes 20 Torsion [CB]-CA--N-[C] |==|  0.17626
USER: genes 21 Torsion [N]-C--CA-[N] |==|  0.17709
USER: genes 22 Torsion [C]-CA--CB-[CG] |==|  0.44998
USER: genes 23 Torsion [CA]-CB--CG-[CD1] |==|  0.16538
USER: genes 24 Torsion [C]-CA--N-[H2] |==|  0.05827
ROOT
ATOM      1  CA  ARG D   2     -12.072  -0.673  11.644  1.00 39.33 LIG 0.18  C 
ENDROOT
BRANCH 1 2
ATOM      2  CB  ARG D   2     -12.771   0.595  12.102  1.00 35.05 LIG 0.04  C 
BRANCH 2 3
ATOM      3  CG  ARG D   2     -12.885   0.676  13.599  1.00 57.88 LIG 0.02  C 
BRANCH 3 4
ATOM      4  CD  ARG D   2     -12.222   1.928  14.142  1.00 90.52 LIG 0.14  C 
BRANCH 4 5
ATOM      5  NE  ARG D   2     -11.311   2.532  13.170  1.00 84.14 LIG-0.23  N 
ATOM      6 HE   ARG D   2     -10.738   2.019  12.786  1.00 84.14 LIG 0.18  HD
ATOM      7  CZ  ARG D   2     -11.308   3.822  12.837  1.00 83.97 LIG 0.67  C 
ATOM      8  NH2 ARG D   2     -10.438   4.269  11.938  1.00 60.39 LIG-0.23  N 
ATOM      9  NH1 ARG D   2     -12.161   4.669  13.404  1.00 80.72 LIG-0.23  N 
ATOM     10 1HH2 ARG D   2      -9.880   3.725  11.573  1.00 60.39 LIG 0.17  HD
ATOM     11 2HH2 ARG D   2     -10.433   5.101  11.721  1.00 60.39 LIG 0.17  HD
ATOM     12 2HH1 ARG D   2     -12.153   5.500  13.184  1.00 80.72 LIG 0.17  HD
ATOM     13 1HH1 ARG D   2     -12.721   4.386  13.991  1.00 80.72 LIG 0.17  HD
ENDBRANCH 4 5
ENDBRANCH 3 4
ENDBRANCH 2 3
ENDBRANCH 1 2
BRANCH 1 14
ATOM     14  C   ARG D   2     -13.012  -1.488  10.783  1.00 29.38 LIG 0.24  C 
ATOM     15 O    ARG D   2     -12.705  -1.796   9.633  1.00 21.44 LIG-0.27  OA
ATOM     16  N   SER D   3     -14.164  -1.843  11.333  1.00 29.93 LIG-0.34  N 
ATOM     17 H    SER D   3     -14.386  -1.696  12.150  1.00 29.93 LIG 0.16  HD
BRANCH 16 18
ATOM     18  CA  SER D   3     -15.161  -2.538  10.532  1.00 48.61 LIG 0.20  C 
BRANCH 18 19
ATOM     19  C   SER D   3     -15.918  -1.530   9.689  1.00 58.83 LIG 0.24  C 
ATOM     20  N   LYS D   4     -15.196  -0.839   8.814  1.00 77.18 LIG-0.35  N 
ATOM     21 H    LYS D   4     -14.341  -0.895   8.740  1.00 77.18 LIG 0.16  HD
ATOM     22 O    SER D   3     -17.127  -1.364   9.843  1.00 53.61 LIG-0.27  OA
BRANCH 20 23
ATOM     23  CA  LYS D   4     -15.827   0.092   7.889  1.00 70.35 LIG 0.18  C 
BRANCH 23 24
ATOM     24  CB  LYS D   4     -16.594  -0.661   6.799  1.00 80.12 LIG 0.04  C 
BRANCH 24 25
ATOM     25  CG  LYS D   4     -15.689  -1.306   5.758  1.00 84.36 LIG 0.00  C 
BRANCH 25 26
ATOM     26  CD  LYS D   4     -16.039  -0.888   4.343  1.00102.13 LIG 0.03  C 
BRANCH 26 27
ATOM     27  CE  LYS D   4     -14.911  -0.069   3.728  1.00 86.00 LIG 0.23  C 
BRANCH 27 28
ATOM     28  NZ  LYS D   4     -14.189  -0.820   2.665  1.00 85.97 LIG-0.08  N 
ATOM     29 HZ3  LYS D   4     -14.223  -1.692   2.842  1.00 85.97 LIG 0.27  HD
ATOM     30 HZ2  LYS D   4     -13.340  -0.555   2.639  1.00 85.97 LIG 0.27  HD
ATOM     31 HZ1  LYS D   4     -14.573  -0.661   1.878  1.00 85.97 LIG 0.27  HD
ENDBRANCH 27 28
ENDBRANCH 26 27
ENDBRANCH 25 26
ENDBRANCH 24 25
ENDBRANCH 23 24
BRANCH 23 32
ATOM     32  C   LYS D   4     -16.762   0.981   8.693  1.00 69.25 LIG 0.24  C 
ATOM     33 O    LYS D   4     -17.979   0.945   8.515  1.00 74.50 LIG-0.27  OA
ATOM     34  N   GLY D   5     -16.175   1.795   9.566  1.00 72.69 LIG-0.35  N 
ATOM     35 H    GLY D   5     -15.328   1.801   9.718  1.00 72.69 LIG 0.16  HD
BRANCH 34 36
ATOM     36  CA  GLY D   5     -16.927   2.756  10.350  1.00 67.28 LIG 0.21  C 
BRANCH 36 37
ATOM     37  C   GLY D   5     -16.064   3.419  11.406  1.00 69.64 LIG 0.21  C 
ATOM     38 O    GLY D   5     -15.263   2.760  12.071  1.00 73.82 LIG-0.29  OA
ENDBRANCH 36 37
ENDBRANCH 34 36
ENDBRANCH 23 32
ENDBRANCH 20 23
ENDBRANCH 18 19
BRANCH 18 39
ATOM     39  CB  SER D   3     -16.121  -3.305  11.426  1.00 47.59 LIG 0.20  C 
BRANCH 39 40
ATOM     40 OG   SER D   3     -15.588  -4.578  11.733  1.00 55.88 LIG-0.40  OA
ATOM     41 HG   SER D   3     -15.683  -4.731  12.554  1.00 55.88 LIG 0.21  HD
ENDBRANCH 39 40
ENDBRANCH 18 39
ENDBRANCH 16 18
ENDBRANCH 1 14
BRANCH 1 42
ATOM     42  N   ARG D   2     -10.893  -0.325  10.886  1.00 24.62 LIG-0.35  N 
ATOM     43 H    ARG D   2     -10.908  -0.573  10.062  1.00 24.62 LIG 0.16  HD
ATOM     44  C   PHE D   1      -9.894   0.325  11.450  1.00 23.06 LIG 0.25  C 
ATOM     45 O    PHE D   1      -9.897   0.663  12.630  1.00 27.40 LIG-0.27  OA
BRANCH 44 46
ATOM     46  CA  PHE D   1      -8.753   0.732  10.528  1.00 18.76 LIG 0.28  C 
BRANCH 46 47
ATOM     47  CB  PHE D   1      -7.544   1.310  11.261  1.00 12.58 LIG 0.08  C 
BRANCH 47 48
ATOM     48  CG  PHE D   1      -6.288   1.303  10.418  1.00 17.06 LIG-0.06  A 
ATOM     49  CD1 PHE D   1      -6.241   1.990   9.209  1.00 22.27 LIG 0.01  A 
ATOM     50  CE1 PHE D   1      -5.074   2.006   8.434  1.00 15.67 LIG 0.00  A 
ATOM     51  CZ  PHE D   1      -3.943   1.320   8.871  1.00 13.83 LIG 0.00  A 
ATOM     52  CE2 PHE D   1      -3.977   0.643  10.077  1.00 20.38 LIG 0.00  A 
ATOM     53  CD2 PHE D   1      -5.142   0.639  10.850  1.00 21.07 LIG 0.01  A 
ENDBRANCH 47 48
ENDBRANCH 46 47
BRANCH 46 54
ATOM     54  N   PHE D   1      -9.251   1.695   9.516  1.00 21.45 LIG-0.07  N 
ATOM     55 H2   PHE D   1     -10.000   2.074   9.811  1.00 21.45 LIG 0.28  HD
ATOM     56 H3   PHE D   1      -8.636   2.323   9.375  1.00 21.45 LIG 0.28  HD
ATOM     57 H1   PHE D   1      -9.416   1.266   8.754  1.00 21.45 LIG 0.28  HD
ENDBRANCH 46 54
ENDBRANCH 44 46
ENDBRANCH 1 42
TORSDOF 23
ENDMDL
MODEL 5
USER: ADFR SOLUTION from run 177
USER: SCORE 17.764836 LL:  -2.428 LR: -17.204 RR:   0.000 FEB: -10.344
USER: RMSD 5.807489
USER: SEED 176
USER: STATUS no improvement in best in 16 clusters for 5 generations
USER: GENES 25
USER: genes 0 Translation |==|  0.46837 0.64079 0.49688
USER: genes 1 Rotation |==|  0.81401 0.63279 0.27297 0.78675
USER: genes 2 Torsion [C]-CA--CB-[CG] |==|  0.80043
USER: genes 3 Torsion [CA]-CB--CG-[CD] |==|  0.50702
USER: genes 4 Torsion [CB]-CG--CD-[NE] |==|  0.43930
USER: genes 5 Torsion [CG]-CD--NE-[HE] |==|  0.10497
USER: genes 6 Torsion [N]-CA--C-[N] |==|  0.49736
USER: genes 7 Torsion [C]-N--CA-[C] |==|  0.18346
USER: genes 8 Torsion [N]-CA--C-[N] |==|  0.02337
USER: genes 9 Torsion [C]-N--CA-[CB] |==|  0.22111
USER: genes 10 Torsion [N]-CA--CB-[CG] |==|  0.74660
USER: genes 11 Torsion [CA]-CB--CG-[CD] |==|  0.69906
USER: genes 12 Torsion [CB]-CG--CD-[CE] |==|  0.82752
USER: genes 13 Torsion [CG]-CD--CE-[NZ] |==|  0.90390
USER: genes 14 Torsion [CD]-CE--NZ-[HZ2] |==|  0.59413
USER: genes 15 Torsion [N]-CA--C-[N] |==|  0.97531
USER: genes 16 Torsion [C]-N--CA-[C] |==|  0.47300
USER: genes 17 Torsion [N]-CA--C-[O] |==|  0.89822
USER: genes 18 Torsion [N]-CA--CB-[OG] |==|  0.87977
USER: genes 19 Torsion [CA]-CB--OG-[HG] |==|  0.26019
USER: genes 20 Torsion [CB]-CA--N-[C] |==|  0.15494
USER: genes 21 Torsion [N]-C--CA-[N] |==|  0.08754
USER: genes 22 Torsion [C]-CA--CB-[CG] |==|  0.45514
USER: genes 23 Torsion [CA]-CB--CG-[CD1] |==|  0.64357
USER: genes 24 Torsion [C]-CA--N-[H2] |==|  0.72500
ROOT
ATOM      1  CA  ARG D   2     -12.252   0.046  11.874  1.00 39.33 LIG 0.18  C 
ENDROOT
BRANCH 1 2
ATOM      2  CB  ARG D   2     -12.264   1.030  13.030  1.00 35.05 LIG 0.04  C 
BRANCH 2 3
ATOM      3  CG  ARG D   2     -12.077   2.451  12.572  1.00 57.88 LIG 0.02  C 
BRANCH 3 4
ATOM      4  CD  ARG D   2     -12.029   3.412  13.744  1.00 90.52 LIG 0.14  C 
BRANCH 4 5
ATOM      5  NE  ARG D   2     -11.359   4.666  13.400  1.00 84.14 LIG-0.23  N 
ATOM      6 HE   ARG D   2     -11.493   4.988  12.614  1.00 84.14 LIG 0.18  HD
ATOM      7  CZ  ARG D   2     -10.556   5.345  14.218  1.00 83.97 LIG 0.67  C 
ATOM      8  NH2 ARG D   2     -10.000   6.478  13.806  1.00 60.39 LIG-0.23  N 
ATOM      9  NH1 ARG D   2     -10.299   4.892  15.441  1.00 80.72 LIG-0.23  N 
ATOM     10 1HH2 ARG D   2     -10.158   6.771  13.012  1.00 60.39 LIG 0.17  HD
ATOM     11 2HH2 ARG D   2      -9.481   6.918  14.331  1.00 60.39 LIG 0.17  HD
ATOM     12 2HH1 ARG D   2      -9.780   5.336  15.963  1.00 80.72 LIG 0.17  HD
ATOM     13 1HH1 ARG D   2     -10.653   4.156  15.710  1.00 80.72 LIG 0.17  HD
ENDBRANCH 4 5
ENDBRANCH 3 4
ENDBRANCH 2 3
ENDBRANCH 1 2
BRANCH 1 14
ATOM     14  C   ARG D   2     -13.529   0.188  11.074  1.00 29.38 LIG 0.24  C 
ATOM     15 O    ARG D   2     -13.497   0.506   9.887  1.00 21.44 LIG-0.27  OA
ATOM     16  N   SER D   3     -14.662  -0.048  11.718  1.00 29.93 LIG-0.34  N 
ATOM     17 H    SER D   3     -14.719  -0.329  12.529  1.00 29.93 LIG 0.16  HD
BRANCH 16 18
ATOM     18  CA  SER D   3     -15.934   0.169  11.044  1.00 48.61 LIG 0.20  C 
BRANCH 18 19
ATOM     19  C   SER D   3     -16.074  -0.824   9.906  1.00 58.83 LIG 0.24  C 
ATOM     20  N   LYS D   4     -15.151  -1.777   9.844  1.00 77.18 LIG-0.35  N 
ATOM     21 H    LYS D   4     -14.471  -1.827  10.368  1.00 77.18 LIG 0.16  HD
ATOM     22 O    SER D   3     -16.986  -0.716   9.087  1.00 53.61 LIG-0.27  OA
BRANCH 20 23
ATOM     23  CA  LYS D   4     -15.233  -2.837   8.850  1.00 70.35 LIG 0.18  C 
BRANCH 23 24
ATOM     24  CB  LYS D   4     -14.732  -2.347   7.490  1.00 80.12 LIG 0.04  C 
BRANCH 24 25
ATOM     25  CG  LYS D   4     -15.834  -1.771   6.610  1.00 84.36 LIG 0.00  C 
BRANCH 25 26
ATOM     26  CD  LYS D   4     -16.178  -2.675   5.443  1.00102.13 LIG 0.03  C 
BRANCH 26 27
ATOM     27  CE  LYS D   4     -14.975  -2.853   4.526  1.00 86.00 LIG 0.23  C 
BRANCH 27 28
ATOM     28  NZ  LYS D   4     -14.142  -1.622   4.448  1.00 85.97 LIG-0.08  N 
ATOM     29 HZ3  LYS D   4     -14.648  -0.910   4.620  1.00 85.97 LIG 0.27  HD
ATOM     30 HZ2  LYS D   4     -13.795  -1.549   3.632  1.00 85.97 LIG 0.27  HD
ATOM     31 HZ1  LYS D   4     -13.484  -1.670   5.046  1.00 85.97 LIG 0.27  HD
ENDBRANCH 27 28
ENDBRANCH 26 27
ENDBRANCH 25 26
ENDBRANCH 24 25
ENDBRANCH 23 24
BRANCH 23 32
ATOM     32  C   LYS D   4     -14.393  -4.003   9.347  1.00 69.25 LIG 0.24  C 
ATOM     33 O    LYS D   4     -14.432  -5.098   8.784  1.00 74.50 LIG-0.27  OA
ATOM     34  N   GLY D   5     -13.648  -3.760  10.422  1.00 72.69 LIG-0.35  N 
ATOM     35 H    GLY D   5     -13.592  -2.990  10.799  1.00 72.69 LIG 0.16  HD
BRANCH 34 36
ATOM     36  CA  GLY D   5     -12.852  -4.793  11.058  1.00 67.28 LIG 0.21  C 
BRANCH 36 37
ATOM     37  C   GLY D   5     -11.920  -4.219  12.106  1.00 69.64 LIG 0.21  C 
ATOM     38 O    GLY D   5     -11.376  -3.127  11.937  1.00 73.82 LIG-0.29  OA
ENDBRANCH 36 37
ENDBRANCH 34 36
ENDBRANCH 23 32
ENDBRANCH 20 23
ENDBRANCH 18 19
BRANCH 18 39
ATOM     39  CB  SER D   3     -16.020   1.591  10.516  1.00 47.59 LIG 0.20  C 
BRANCH 39 40
ATOM     40 OG   SER D   3     -15.537   2.500  11.487  1.00 55.88 LIG-0.40  OA
ATOM     41 HG   SER D   3     -14.723   2.652  11.348  1.00 55.88 LIG 0.21  HD
ENDBRANCH 39 40
ENDBRANCH 18 39
ENDBRANCH 16 18
ENDBRANCH 1 14
BRANCH 1 42
ATOM     42  N   ARG D   2     -11.113   0.313  11.026  1.00 24.62 LIG-0.35  N 
ATOM     43 H    ARG D   2     -11.305   0.458  10.200  1.00 24.62 LIG 0.16  HD
ATOM     44  C   PHE D   1      -9.891   0.326  11.521  1.00 23.06 LIG 0.25  C 
ATOM     45 O    PHE D   1      -9.646   0.110  12.704  1.00 27.40 LIG-0.27  OA
BRANCH 44 46
ATOM     46  CA  PHE D   1      -8.782   0.725  10.557  1.00 18.76 LIG 0.28  C 
BRANCH 46 47
ATOM     47  CB  PHE D   1      -7.541   1.290  11.246  1.00 12.58 LIG 0.08  C 
BRANCH 47 48
ATOM     48  CG  PHE D   1      -6.328   1.315  10.342  1.00 17.06 LIG-0.06  A 
ATOM     49  CD1 PHE D   1      -5.123   0.756  10.757  1.00 22.27 LIG 0.01  A 
ATOM     50  CE1 PHE D   1      -4.001   0.757   9.917  1.00 15.67 LIG 0.00  A 
ATOM     51  CZ  PHE D   1      -4.085   1.331   8.650  1.00 13.83 LIG 0.00  A 
ATOM     52  CE2 PHE D   1      -5.282   1.880   8.226  1.00 20.38 LIG 0.00  A 
ATOM     53  CD2 PHE D   1      -6.400   1.867   9.066  1.00 21.07 LIG 0.01  A 
ENDBRANCH 47 48
ENDBRANCH 46 47
BRANCH 46 54
ATOM     54  N   PHE D   1      -9.309   1.695   9.567  1.00 21.45 LIG-0.07  N 
ATOM     55 H2   PHE D   1      -9.506   1.269   8.811  1.00 21.45 LIG 0.28  HD
ATOM     56 H3   PHE D   1     -10.043   2.081   9.891  1.00 21.45 LIG 0.28  HD
ATOM     57 H1   PHE D   1      -8.694   2.317   9.405  1.00 21.45 LIG 0.28  HD
ENDBRANCH 46 54
ENDBRANCH 44 46
ENDBRANCH 1 42
TORSDOF 23
ENDMDL
MODEL 6
USER: ADFR SOLUTION from run 38
USER: SCORE 18.478164 LL:  -1.889 LR: -17.070 RR:   0.000 FEB: -10.209
USER: RMSD 7.472916
USER: SEED 37
USER: STATUS searching
USER: GENES 25
USER: genes 0 Translation |==|  0.49103 0.59132 0.48422
USER: genes 1 Rotation |==|  0.84038 0.61208 0.38543 0.82932
USER: genes 2 Torsion [C]-CA--CB-[CG] |==|  0.99636
USER: genes 3 Torsion [CA]-CB--CG-[CD] |==|  0.57813
USER: genes 4 Torsion [CB]-CG--CD-[NE] |==|  0.18998
USER: genes 5 Torsion [CG]-CD--NE-[HE] |==|  0.21011
USER: genes 6 Torsion [N]-CA--C-[N] |==|  0.37213
USER: genes 7 Torsion [C]-N--CA-[C] |==|  0.82594
USER: genes 8 Torsion [N]-CA--C-[N] |==|  0.35556
USER: genes 9 Torsion [C]-N--CA-[CB] |==|  0.20372
USER: genes 10 Torsion [N]-CA--CB-[CG] |==|  0.65062
USER: genes 11 Torsion [CA]-CB--CG-[CD] |==|  0.62515
USER: genes 12 Torsion [CB]-CG--CD-[CE] |==|  0.75879
USER: genes 13 Torsion [CG]-CD--CE-[NZ] |==|  0.17746
USER: genes 14 Torsion [CD]-CE--NZ-[HZ2] |==|  0.41417
USER: genes 15 Torsion [N]-CA--C-[N] |==|  0.00298
USER: genes 16 Torsion [C]-N--CA-[C] |==|  0.43002
USER: genes 17 Torsion [N]-CA--C-[O] |==|  0.15898
USER: genes 18 Torsion [N]-CA--CB-[OG] |==|  0.97307
USER: genes 19 Torsion [CA]-CB--OG-[HG] |==|  0.36899
USER: genes 20 Torsion [CB]-CA--N-[C] |==|  0.85518
USER: genes 21 Torsion [N]-C--CA-[N] |==|  0.67417
USER: genes 22 Torsion [C]-CA--CB-[CG] |==|  0.47253
USER: genes 23 Torsion [CA]-CB--CG-[CD1] |==|  0.87617
USER: genes 24 Torsion [C]-CA--N-[H2] |==|  0.84673
ROOT
ATOM      1  CA  ARG D   2     -11.759  -0.956  11.617  1.00 39.33 LIG 0.18  C 
ENDROOT
BRANCH 1 2
ATOM      2  CB  ARG D   2     -12.489  -0.109  12.645  1.00 35.05 LIG 0.04  C 
BRANCH 2 3
ATOM      3  CG  ARG D   2     -13.800   0.415  12.126  1.00 57.88 LIG 0.02  C 
BRANCH 3 4
ATOM      4  CD  ARG D   2     -14.179   1.724  12.791  1.00 90.52 LIG 0.14  C 
BRANCH 4 5
ATOM      5  NE  ARG D   2     -13.288   2.817  12.402  1.00 84.14 LIG-0.23  N 
ATOM      6 HE   ARG D   2     -13.389   3.156  11.619  1.00 84.14 LIG 0.18  HD
ATOM      7  CZ  ARG D   2     -12.329   3.323  13.176  1.00 83.97 LIG 0.67  C 
ATOM      8  NH2 ARG D   2     -11.576   4.320  12.726  1.00 60.39 LIG-0.23  N 
ATOM      9  NH1 ARG D   2     -12.113   2.833  14.392  1.00 80.72 LIG-0.23  N 
ATOM     10 1HH2 ARG D   2     -11.707   4.636  11.937  1.00 60.39 LIG 0.17  HD
ATOM     11 2HH2 ARG D   2     -10.956   4.649  13.224  1.00 60.39 LIG 0.17  HD
ATOM     12 2HH1 ARG D   2     -11.493   3.165  14.887  1.00 80.72 LIG 0.17  HD
ATOM     13 1HH1 ARG D   2     -12.594   2.184  14.686  1.00 80.72 LIG 0.17  HD
ENDBRANCH 4 5
ENDBRANCH 3 4
ENDBRANCH 2 3
ENDBRANCH 1 2
BRANCH 1 14
ATOM     14  C   ARG D   2     -12.592  -1.054  10.357  1.00 29.38 LIG 0.24  C 
ATOM     15 O    ARG D   2     -12.689  -0.099   9.590  1.00 21.44 LIG-0.27  OA
ATOM     16  N   SER D   3     -13.199  -2.211  10.136  1.00 29.93 LIG-0.34  N 
ATOM     17 H    SER D   3     -13.107  -2.916  10.619  1.00 29.93 LIG 0.16  HD
BRANCH 16 18
ATOM     18  CA  SER D   3     -14.100  -2.347   9.001  1.00 48.61 LIG 0.20  C 
BRANCH 18 19
ATOM     19  C   SER D   3     -15.269  -1.397   9.173  1.00 58.83 LIG 0.24  C 
ATOM     20  N   LYS D   4     -15.528  -0.595   8.147  1.00 77.18 LIG-0.35  N 
ATOM     21 H    LYS D   4     -15.050  -0.551   7.433  1.00 77.18 LIG 0.16  HD
ATOM     22 O    SER D   3     -15.910  -1.374  10.223  1.00 53.61 LIG-0.27  OA
BRANCH 20 23
ATOM     23  CA  LYS D   4     -16.680   0.296   8.162  1.00 70.35 LIG 0.18  C 
BRANCH 23 24
ATOM     24  CB  LYS D   4     -16.445   1.472   9.113  1.00 80.12 LIG 0.04  C 
BRANCH 24 25
ATOM     25  CG  LYS D   4     -17.542   1.635  10.156  1.00 84.36 LIG 0.00  C 
BRANCH 25 26
ATOM     26  CD  LYS D   4     -17.984   3.077  10.316  1.00102.13 LIG 0.03  C 
BRANCH 26 27
ATOM     27  CE  LYS D   4     -17.102   3.801  11.326  1.00 86.00 LIG 0.23  C 
BRANCH 27 28
ATOM     28  NZ  LYS D   4     -15.689   3.897  10.871  1.00 85.97 LIG-0.08  N 
ATOM     29 HZ3  LYS D   4     -15.234   3.191  11.167  1.00 85.97 LIG 0.27  HD
ATOM     30 HZ2  LYS D   4     -15.323   4.641  11.191  1.00 85.97 LIG 0.27  HD
ATOM     31 HZ1  LYS D   4     -15.664   3.914   9.981  1.00 85.97 LIG 0.27  HD
ENDBRANCH 27 28
ENDBRANCH 26 27
ENDBRANCH 25 26
ENDBRANCH 24 25
ENDBRANCH 23 24
BRANCH 23 32
ATOM     32  C   LYS D   4     -16.904   0.787   6.741  1.00 69.25 LIG 0.24  C 
ATOM     33 O    LYS D   4     -17.822   1.563   6.475  1.00 74.50 LIG-0.27  OA
ATOM     34  N   GLY D   5     -16.064   0.310   5.827  1.00 72.69 LIG-0.35  N 
ATOM     35 H    GLY D   5     -15.401  -0.206   6.011  1.00 72.69 LIG 0.16  HD
BRANCH 34 36
ATOM     36  CA  GLY D   5     -16.198   0.625   4.417  1.00 67.28 LIG 0.21  C 
BRANCH 36 37
ATOM     37  C   GLY D   5     -14.874   0.513   3.687  1.00 69.64 LIG 0.21  C 
ATOM     38 O    GLY D   5     -14.235  -0.541   3.697  1.00 73.82 LIG-0.29  OA
ENDBRANCH 36 37
ENDBRANCH 34 36
ENDBRANCH 23 32
ENDBRANCH 20 23
ENDBRANCH 18 19
BRANCH 18 39
ATOM     39  CB  SER D   3     -14.596  -3.778   8.884  1.00 47.59 LIG 0.20  C 
BRANCH 39 40
ATOM     40 OG   SER D   3     -13.876  -4.616   9.766  1.00 55.88 LIG-0.40  OA
ATOM     41 HG   SER D   3     -14.413  -5.104  10.190  1.00 55.88 LIG 0.21  HD
ENDBRANCH 39 40
ENDBRANCH 18 39
ENDBRANCH 16 18
ENDBRANCH 1 14
BRANCH 1 42
ATOM     42  N   ARG D   2     -10.484  -0.349  11.313  1.00 24.62 LIG-0.35  N 
ATOM     43 H    ARG D   2      -9.808  -0.877  11.382  1.00 24.62 LIG 0.16  HD
ATOM     44  C   PHE D   1     -10.406   0.919  10.960  1.00 23.06 LIG 0.25  C 
ATOM     45 O    PHE D   1     -11.387   1.651  10.875  1.00 27.40 LIG-0.27  OA
BRANCH 44 46
ATOM     46  CA  PHE D   1      -9.025   1.419  10.559  1.00 18.76 LIG 0.28  C 
BRANCH 46 47
ATOM     47  CB  PHE D   1      -7.971   0.318  10.474  1.00 12.58 LIG 0.08  C 
BRANCH 47 48
ATOM     48  CG  PHE D   1      -6.676   0.789   9.850  1.00 17.06 LIG-0.06  A 
ATOM     49  CD1 PHE D   1      -6.689   1.574   8.700  1.00 22.27 LIG 0.01  A 
ATOM     50  CE1 PHE D   1      -5.494   2.032   8.128  1.00 15.67 LIG 0.00  A 
ATOM     51  CZ  PHE D   1      -4.274   1.695   8.709  1.00 13.83 LIG 0.00  A 
ATOM     52  CE2 PHE D   1      -4.253   0.925   9.858  1.00 20.38 LIG 0.00  A 
ATOM     53  CD2 PHE D   1      -5.449   0.478  10.429  1.00 21.07 LIG 0.01  A 
ENDBRANCH 47 48
ENDBRANCH 46 47
BRANCH 46 54
ATOM     54  N   PHE D   1      -8.588   2.480  11.498  1.00 21.45 LIG-0.07  N 
ATOM     55 H2   PHE D   1      -9.202   3.124  11.525  1.00 21.45 LIG 0.28  HD
ATOM     56 H3   PHE D   1      -8.488   2.133  12.312  1.00 21.45 LIG 0.28  HD
ATOM     57 H1   PHE D   1      -7.814   2.820  11.223  1.00 21.45 LIG 0.28  HD
ENDBRANCH 46 54
ENDBRANCH 44 46
ENDBRANCH 1 42
TORSDOF 23
ENDMDL
MODEL 7
USER: ADFR SOLUTION from run 131
USER: SCORE 17.759106 LL:  -2.341 LR: -16.871 RR:   0.000 FEB: -10.010
USER: RMSD 7.060549
USER: SEED 130
USER: STATUS searching
USER: GENES 25
USER: genes 0 Translation |==|  0.53442 0.74940 0.50667
USER: genes 1 Rotation |==|  0.32096 0.06382 0.49817 0.66640
USER: genes 2 Torsion [C]-CA--CB-[CG] |==|  0.31976
USER: genes 3 Torsion [CA]-CB--CG-[CD] |==|  0.46570
USER: genes 4 Torsion [CB]-CG--CD-[NE] |==|  0.61120
USER: genes 5 Torsion [CG]-CD--NE-[HE] |==|  0.34162
USER: genes 6 Torsion [N]-CA--C-[N] |==|  0.24986
USER: genes 7 Torsion [C]-N--CA-[C] |==|  0.83889
USER: genes 8 Torsion [N]-CA--C-[N] |==|  0.42096
USER: genes 9 Torsion [C]-N--CA-[CB] |==|  0.88239
USER: genes 10 Torsion [N]-CA--CB-[CG] |==|  0.81039
USER: genes 11 Torsion [CA]-CB--CG-[CD] |==|  0.39478
USER: genes 12 Torsion [CB]-CG--CD-[CE] |==|  0.22299
USER: genes 13 Torsion [CG]-CD--CE-[NZ] |==|  0.53477
USER: genes 14 Torsion [CD]-CE--NZ-[HZ2] |==|  0.94763
USER: genes 15 Torsion [N]-CA--C-[N] |==|  0.35303
USER: genes 16 Torsion [C]-N--CA-[C] |==|  0.72460
USER: genes 17 Torsion [N]-CA--C-[O] |==|  0.10586
USER: genes 18 Torsion [N]-CA--CB-[OG] |==|  0.90575
USER: genes 19 Torsion [CA]-CB--OG-[HG] |==|  0.20051
USER: genes 20 Torsion [CB]-CA--N-[C] |==|  0.21123
USER: genes 21 Torsion [N]-C--CA-[N] |==|  0.63190
USER: genes 22 Torsion [C]-CA--CB-[CG] |==|  0.35828
USER: genes 23 Torsion [CA]-CB--CG-[CD1] |==|  0.05247
USER: genes 24 Torsion [C]-CA--N-[H2] |==|  0.88983
ROOT
ATOM      1  CA  ARG D   2     -10.815   2.245  12.072  1.00 39.33 LIG 0.18  C 
ENDROOT
BRANCH 1 2
ATOM      2  CB  ARG D   2      -9.473   1.544  11.962  1.00 35.05 LIG 0.04  C 
BRANCH 2 3
ATOM      3  CG  ARG D   2      -8.891   1.638  10.578  1.00 57.88 LIG 0.02  C 
BRANCH 3 4
ATOM      4  CD  ARG D   2      -7.438   1.206  10.554  1.00 90.52 LIG 0.14  C 
BRANCH 4 5
ATOM      5  NE  ARG D   2      -6.626   2.057   9.684  1.00 84.14 LIG-0.23  N 
ATOM      6 HE   ARG D   2      -5.945   2.451  10.033  1.00 84.14 LIG 0.18  HD
ATOM      7  CZ  ARG D   2      -6.866   2.265   8.391  1.00 83.97 LIG 0.67  C 
ATOM      8  NH2 ARG D   2      -6.061   3.055   7.689  1.00 60.39 LIG-0.23  N 
ATOM      9  NH1 ARG D   2      -7.909   1.695   7.797  1.00 80.72 LIG-0.23  N 
ATOM     10 1HH2 ARG D   2      -5.388   3.432   8.071  1.00 60.39 LIG 0.17  HD
ATOM     11 2HH2 ARG D   2      -6.214   3.191   6.854  1.00 60.39 LIG 0.17  HD
ATOM     12 2HH1 ARG D   2      -8.057   1.833   6.961  1.00 80.72 LIG 0.17  HD
ATOM     13 1HH1 ARG D   2      -8.436   1.187   8.248  1.00 80.72 LIG 0.17  HD
ENDBRANCH 4 5
ENDBRANCH 3 4
ENDBRANCH 2 3
ENDBRANCH 1 2
BRANCH 1 14
ATOM     14  C   ARG D   2     -11.897   1.228  12.366  1.00 29.38 LIG 0.24  C 
ATOM     15 O    ARG D   2     -11.644   0.207  13.002  1.00 21.44 LIG-0.27  OA
ATOM     16  N   SER D   3     -13.109   1.500  11.906  1.00 29.93 LIG-0.34  N 
ATOM     17 H    SER D   3     -13.333   2.229  11.509  1.00 29.93 LIG 0.16  HD
BRANCH 16 18
ATOM     18  CA  SER D   3     -14.175   0.520  12.059  1.00 48.61 LIG 0.20  C 
BRANCH 18 19
ATOM     19  C   SER D   3     -13.763  -0.777  11.391  1.00 58.83 LIG 0.24  C 
ATOM     20  N   LYS D   4     -14.283  -1.889  11.898  1.00 77.18 LIG-0.35  N 
ATOM     21 H    LYS D   4     -14.785  -1.913  12.596  1.00 77.18 LIG 0.16  HD
ATOM     22 O    SER D   3     -12.971  -0.774  10.448  1.00 53.61 LIG-0.27  OA
BRANCH 20 23
ATOM     23  CA  LYS D   4     -14.031  -3.184  11.284  1.00 70.35 LIG 0.18  C 
BRANCH 23 24
ATOM     24  CB  LYS D   4     -14.123  -3.090   9.759  1.00 80.12 LIG 0.04  C 
BRANCH 24 25
ATOM     25  CG  LYS D   4     -15.533  -2.821   9.252  1.00 84.36 LIG 0.00  C 
BRANCH 25 26
ATOM     26  CD  LYS D   4     -15.556  -1.883   8.062  1.00102.13 LIG 0.03  C 
BRANCH 26 27
ATOM     27  CE  LYS D   4     -15.221  -2.632   6.778  1.00 86.00 LIG 0.23  C 
BRANCH 27 28
ATOM     28  NZ  LYS D   4     -14.942  -1.708   5.646  1.00 85.97 LIG-0.08  N 
ATOM     29 HZ3  LYS D   4     -14.062  -1.643   5.526  1.00 85.97 LIG 0.27  HD
ATOM     30 HZ2  LYS D   4     -15.276  -0.905   5.829  1.00 85.97 LIG 0.27  HD
ATOM     31 HZ1  LYS D   4     -15.320  -2.025   4.905  1.00 85.97 LIG 0.27  HD
ENDBRANCH 27 28
ENDBRANCH 26 27
ENDBRANCH 25 26
ENDBRANCH 24 25
ENDBRANCH 23 24
BRANCH 23 32
ATOM     32  C   LYS D   4     -12.647  -3.640  11.715  1.00 69.25 LIG 0.24  C 
ATOM     33 O    LYS D   4     -11.662  -2.921  11.549  1.00 74.50 LIG-0.27  OA
ATOM     34  N   GLY D   5     -12.582  -4.854  12.255  1.00 72.69 LIG-0.35  N 
ATOM     35 H    GLY D   5     -13.271  -5.348  12.404  1.00 72.69 LIG 0.16  HD
BRANCH 34 36
ATOM     36  CA  GLY D   5     -11.322  -5.458  12.645  1.00 67.28 LIG 0.21  C 
BRANCH 36 37
ATOM     37  C   GLY D   5     -10.817  -6.432  11.599  1.00 69.64 LIG 0.21  C 
ATOM     38 O    GLY D   5     -10.950  -6.193  10.398  1.00 73.82 LIG-0.29  OA
ENDBRANCH 36 37
ENDBRANCH 34 36
ENDBRANCH 23 32
ENDBRANCH 20 23
ENDBRANCH 18 19
BRANCH 18 39
ATOM     39  CB  SER D   3     -15.466   1.040  11.451  1.00 47.59 LIG 0.20  C 
BRANCH 39 40
ATOM     40 OG   SER D   3     -15.553   2.441  11.618  1.00 55.88 LIG-0.40  OA
ATOM     41 HG   SER D   3     -15.005   2.819  11.105  1.00 55.88 LIG 0.21  HD
ENDBRANCH 39 40
ENDBRANCH 18 39
ENDBRANCH 16 18
ENDBRANCH 1 14
BRANCH 1 42
ATOM     42  N   ARG D   2     -10.762   3.222  13.135  1.00 24.62 LIG-0.35  N 
ATOM     43 H    ARG D   2     -11.161   2.988  13.860  1.00 24.62 LIG 0.16  HD
ATOM     44  C   PHE D   1     -10.139   4.372  12.966  1.00 23.06 LIG 0.25  C 
ATOM     45 O    PHE D   1      -9.582   4.682  11.917  1.00 27.40 LIG-0.27  OA
BRANCH 44 46
ATOM     46  CA  PHE D   1     -10.055   5.276  14.188  1.00 18.76 LIG 0.28  C 
BRANCH 46 47
ATOM     47  CB  PHE D   1     -10.889   4.790  15.372  1.00 12.58 LIG 0.08  C 
BRANCH 47 48
ATOM     48  CG  PHE D   1     -10.099   4.725  16.660  1.00 17.06 LIG-0.06  A 
ATOM     49  CD1 PHE D   1      -8.908   5.432  16.797  1.00 22.27 LIG 0.01  A 
ATOM     50  CE1 PHE D   1      -8.182   5.393  17.995  1.00 15.67 LIG 0.00  A 
ATOM     51  CZ  PHE D   1      -8.650   4.633  19.065  1.00 13.83 LIG 0.00  A 
ATOM     52  CE2 PHE D   1      -9.838   3.936  18.941  1.00 20.38 LIG 0.00  A 
ATOM     53  CD2 PHE D   1     -10.563   3.986  17.745  1.00 21.07 LIG 0.01  A 
ENDBRANCH 47 48
ENDBRANCH 46 47
BRANCH 46 54
ATOM     54  N   PHE D   1     -10.446   6.656  13.813  1.00 21.45 LIG-0.07  N 
ATOM     55 H2   PHE D   1     -10.112   6.851  13.011  1.00 21.45 LIG 0.28  HD
ATOM     56 H3   PHE D   1     -11.334   6.716  13.788  1.00 21.45 LIG 0.28  HD
ATOM     57 H1   PHE D   1     -10.127   7.228  14.415  1.00 21.45 LIG 0.28  HD
ENDBRANCH 46 54
ENDBRANCH 44 46
ENDBRANCH 1 42
TORSDOF 23
ENDMDL
MODEL 8
USER: ADFR SOLUTION from run 17
USER: SCORE 15.441183 LL:  -2.170 LR: -16.816 RR:   0.000 FEB:  -9.955
USER: RMSD 4.612541
USER: SEED 16
USER: STATUS no improvement in best in 10 clusters for 5 generations
USER: GENES 25
USER: genes 0 Translation |==|  0.48375 0.59032 0.49198
USER: genes 1 Rotation |==|  0.65461 0.61061 0.38917 0.94897
USER: genes 2 Torsion [C]-CA--CB-[CG] |==|  0.38340
USER: genes 3 Torsion [CA]-CB--CG-[CD] |==|  0.32035
USER: genes 4 Torsion [CB]-CG--CD-[NE] |==|  0.76685
USER: genes 5 Torsion [CG]-CD--NE-[HE] |==|  0.98709
USER: genes 6 Torsion [N]-CA--C-[N] |==|  0.66474
USER: genes 7 Torsion [C]-N--CA-[C] |==|  0.13125
USER: genes 8 Torsion [N]-CA--C-[N] |==|  0.65440
USER: genes 9 Torsion [C]-N--CA-[CB] |==|  0.43394
USER: genes 10 Torsion [N]-CA--CB-[CG] |==|  0.15327
USER: genes 11 Torsion [CA]-CB--CG-[CD] |==|  0.44364
USER: genes 12 Torsion [CB]-CG--CD-[CE] |==|  0.61551
USER: genes 13 Torsion [CG]-CD--CE-[NZ] |==|  0.49040
USER: genes 14 Torsion [CD]-CE--NZ-[HZ2] |==|  0.09122
USER: genes 15 Torsion [N]-CA--C-[N] |==|  0.31879
USER: genes 16 Torsion [C]-N--CA-[C] |==|  0.79406
USER: genes 17 Torsion [N]-CA--C-[O] |==|  0.83437
USER: genes 18 Torsion [N]-CA--CB-[OG] |==|  0.92888
USER: genes 19 Torsion [CA]-CB--OG-[HG] |==|  0.66701
USER: genes 20 Torsion [CB]-CA--N-[C] |==|  0.23889
USER: genes 21 Torsion [N]-C--CA-[N] |==|  0.18140
USER: genes 22 Torsion [C]-CA--CB-[CG] |==|  0.46052
USER: genes 23 Torsion [CA]-CB--CG-[CD1] |==|  0.61843
USER: genes 24 Torsion [C]-CA--N-[H2] |==|  0.40924
ROOT
ATOM      1  CA  ARG D   2     -11.917  -0.976  11.775  1.00 39.33 LIG 0.18  C 
ENDROOT
BRANCH 1 2
ATOM      2  CB  ARG D   2     -12.922   0.147  11.962  1.00 35.05 LIG 0.04  C 
BRANCH 2 3
ATOM      3  CG  ARG D   2     -12.773   0.830  13.294  1.00 57.88 LIG 0.02  C 
BRANCH 3 4
ATOM      4  CD  ARG D   2     -12.349   2.277  13.133  1.00 90.52 LIG 0.14  C 
BRANCH 4 5
ATOM      5  NE  ARG D   2     -10.900   2.412  12.979  1.00 84.14 LIG-0.23  N 
ATOM      6 HE   ARG D   2     -10.423   1.700  13.053  1.00 84.14 LIG 0.18  HD
ATOM      7  CZ  ARG D   2     -10.268   3.558  12.733  1.00 83.97 LIG 0.67  C 
ATOM      8  NH2 ARG D   2      -8.946   3.569  12.607  1.00 60.39 LIG-0.23  N 
ATOM      9  NH1 ARG D   2     -10.949   4.694  12.621  1.00 80.72 LIG-0.23  N 
ATOM     10 1HH2 ARG D   2      -8.501   2.837  12.685  1.00 60.39 LIG 0.17  HD
ATOM     11 2HH2 ARG D   2      -8.536   4.308  12.449  1.00 60.39 LIG 0.17  HD
ATOM     12 2HH1 ARG D   2     -10.534   5.430  12.462  1.00 80.72 LIG 0.17  HD
ATOM     13 1HH1 ARG D   2     -11.804   4.693  12.708  1.00 80.72 LIG 0.17  HD
ENDBRANCH 4 5
ENDBRANCH 3 4
ENDBRANCH 2 3
ENDBRANCH 1 2
BRANCH 1 14
ATOM     14  C   ARG D   2     -12.600  -2.167  11.137  1.00 29.38 LIG 0.24  C 
ATOM     15 O    ARG D   2     -11.972  -3.192  10.884  1.00 21.44 LIG-0.27  OA
ATOM     16  N   SER D   3     -13.892  -2.039  10.873  1.00 29.93 LIG-0.34  N 
ATOM     17 H    SER D   3     -14.375  -1.361  11.089  1.00 29.93 LIG 0.16  HD
BRANCH 16 18
ATOM     18  CA  SER D   3     -14.592  -3.102  10.166  1.00 48.61 LIG 0.20  C 
BRANCH 18 19
ATOM     19  C   SER D   3     -14.241  -4.437  10.794  1.00 58.83 LIG 0.24  C 
ATOM     20  N   LYS D   4     -13.743  -5.356   9.975  1.00 77.18 LIG-0.35  N 
ATOM     21 H    LYS D   4     -13.661  -5.254   9.124  1.00 77.18 LIG 0.16  HD
ATOM     22 O    SER D   3     -14.437  -4.639  11.991  1.00 53.61 LIG-0.27  OA
BRANCH 20 23
ATOM     23  CA  LYS D   4     -13.285  -6.643  10.479  1.00 70.35 LIG 0.18  C 
BRANCH 23 24
ATOM     24  CB  LYS D   4     -13.318  -7.702   9.374  1.00 80.12 LIG 0.04  C 
BRANCH 24 25
ATOM     25  CG  LYS D   4     -12.528  -7.306   8.133  1.00 84.36 LIG 0.00  C 
BRANCH 25 26
ATOM     26  CD  LYS D   4     -12.154  -8.499   7.276  1.00102.13 LIG 0.03  C 
BRANCH 26 27
ATOM     27  CE  LYS D   4     -10.725  -8.369   6.765  1.00 86.00 LIG 0.23  C 
BRANCH 27 28
ATOM     28  NZ  LYS D   4     -10.296  -9.563   5.988  1.00 85.97 LIG-0.08  N 
ATOM     29 HZ3  LYS D   4      -9.671  -9.325   5.399  1.00 85.97 LIG 0.27  HD
ATOM     30 HZ2  LYS D   4     -10.995  -9.903   5.556  1.00 85.97 LIG 0.27  HD
ATOM     31 HZ1  LYS D   4      -9.964 -10.175   6.542  1.00 85.97 LIG 0.27  HD
ENDBRANCH 27 28
ENDBRANCH 26 27
ENDBRANCH 25 26
ENDBRANCH 24 25
ENDBRANCH 23 24
BRANCH 23 32
ATOM     32  C   LYS D   4     -11.873  -6.458  11.009  1.00 69.25 LIG 0.24  C 
ATOM     33 O    LYS D   4     -10.942  -6.183  10.251  1.00 74.50 LIG-0.27  OA
ATOM     34  N   GLY D   5     -11.722  -6.630  12.319  1.00 72.69 LIG-0.35  N 
ATOM     35 H    GLY D   5     -12.373  -6.790  12.858  1.00 72.69 LIG 0.16  HD
BRANCH 34 36
ATOM     36  CA  GLY D   5     -10.422  -6.563  12.961  1.00 67.28 LIG 0.21  C 
BRANCH 36 37
ATOM     37  C   GLY D   5      -9.588  -7.796  12.675  1.00 69.64 LIG 0.21  C 
ATOM     38 O    GLY D   5      -9.985  -8.916  13.002  1.00 73.82 LIG-0.29  OA
ENDBRANCH 36 37
ENDBRANCH 34 36
ENDBRANCH 23 32
ENDBRANCH 20 23
ENDBRANCH 18 19
BRANCH 18 39
ATOM     39  CB  SER D   3     -14.219  -3.097   8.694  1.00 47.59 LIG 0.20  C 
BRANCH 39 40
ATOM     40 OG   SER D   3     -13.809  -1.802   8.300  1.00 55.88 LIG-0.40  OA
ATOM     41 HG   SER D   3     -14.315  -1.520   7.692  1.00 55.88 LIG 0.21  HD
ENDBRANCH 39 40
ENDBRANCH 18 39
ENDBRANCH 16 18
ENDBRANCH 1 14
BRANCH 1 42
ATOM     42  N   ARG D   2     -10.840  -0.521  10.928  1.00 24.62 LIG-0.35  N 
ATOM     43 H    ARG D   2     -10.937  -0.700  10.092  1.00 24.62 LIG 0.16  HD
ATOM     44  C   PHE D   1      -9.804   0.118  11.437  1.00 23.06 LIG 0.25  C 
ATOM     45 O    PHE D   1      -9.687   0.355  12.635  1.00 27.40 LIG-0.27  OA
BRANCH 44 46
ATOM     46  CA  PHE D   1      -8.783   0.644  10.437  1.00 18.76 LIG 0.28  C 
BRANCH 46 47
ATOM     47  CB  PHE D   1      -7.503   1.170  11.083  1.00 12.58 LIG 0.08  C 
BRANCH 47 48
ATOM     48  CG  PHE D   1      -6.381   1.366  10.088  1.00 17.06 LIG-0.06  A 
ATOM     49  CD1 PHE D   1      -5.081   0.977  10.399  1.00 22.27 LIG 0.01  A 
ATOM     50  CE1 PHE D   1      -4.041   1.136   9.474  1.00 15.67 LIG 0.00  A 
ATOM     51  CZ  PHE D   1      -4.303   1.697   8.226  1.00 13.83 LIG 0.00  A 
ATOM     52  CE2 PHE D   1      -5.593   2.077   7.904  1.00 20.38 LIG 0.00  A 
ATOM     53  CD2 PHE D   1      -6.629   1.907   8.829  1.00 21.07 LIG 0.01  A 
ENDBRANCH 47 48
ENDBRANCH 46 47
BRANCH 46 54
ATOM     54  N   PHE D   1      -9.406   1.695   9.597  1.00 21.45 LIG-0.07  N 
ATOM     55 H2   PHE D   1      -8.793   2.302   9.378  1.00 21.45 LIG 0.28  HD
ATOM     56 H3   PHE D   1      -9.737   1.326   8.858  1.00 21.45 LIG 0.28  HD
ATOM     57 H1   PHE D   1     -10.063   2.088  10.052  1.00 21.45 LIG 0.28  HD
ENDBRANCH 46 54
ENDBRANCH 44 46
ENDBRANCH 1 42
TORSDOF 23
ENDMDL
MODEL 9
USER: ADFR SOLUTION from run 136
USER: SCORE 18.196698 LL:  -3.067 LR: -16.694 RR:   0.000 FEB:  -9.833
USER: RMSD 6.607155
USER: SEED 135
USER: STATUS no improvement in best in 10 clusters for 5 generations
USER: GENES 25
USER: genes 0 Translation |==|  0.55181 0.68449 0.50201
USER: genes 1 Rotation |==|  0.61573 0.68429 0.27610 0.89052
USER: genes 2 Torsion [C]-CA--CB-[CG] |==|  0.13998
USER: genes 3 Torsion [CA]-CB--CG-[CD] |==|  0.57815
USER: genes 4 Torsion [CB]-CG--CD-[NE] |==|  0.17269
USER: genes 5 Torsion [CG]-CD--NE-[HE] |==|  0.97293
USER: genes 6 Torsion [N]-CA--C-[N] |==|  0.80281
USER: genes 7 Torsion [C]-N--CA-[C] |==|  0.65000
USER: genes 8 Torsion [N]-CA--C-[N] |==|  0.37515
USER: genes 9 Torsion [C]-N--CA-[CB] |==|  0.51003
USER: genes 10 Torsion [N]-CA--CB-[CG] |==|  0.38708
USER: genes 11 Torsion [CA]-CB--CG-[CD] |==|  0.18011
USER: genes 12 Torsion [CB]-CG--CD-[CE] |==|  0.07669
USER: genes 13 Torsion [CG]-CD--CE-[NZ] |==|  0.65510
USER: genes 14 Torsion [CD]-CE--NZ-[HZ2] |==|  0.94545
USER: genes 15 Torsion [N]-CA--C-[N] |==|  0.36721
USER: genes 16 Torsion [C]-N--CA-[C] |==|  0.50214
USER: genes 17 Torsion [N]-CA--C-[O] |==|  0.06219
USER: genes 18 Torsion [N]-CA--CB-[OG] |==|  0.14670
USER: genes 19 Torsion [CA]-CB--OG-[HG] |==|  0.06844
USER: genes 20 Torsion [CB]-CA--N-[C] |==|  0.20981
USER: genes 21 Torsion [N]-C--CA-[N] |==|  0.09859
USER: genes 22 Torsion [C]-CA--CB-[CG] |==|  0.23691
USER: genes 23 Torsion [CA]-CB--CG-[CD1] |==|  0.86084
USER: genes 24 Torsion [C]-CA--N-[H2] |==|  0.17064
ROOT
ATOM      1  CA  ARG D   2     -10.437   0.931  11.978  1.00 39.33 LIG 0.18  C 
ENDROOT
BRANCH 1 2
ATOM      2  CB  ARG D   2     -10.847   2.333  12.394  1.00 35.05 LIG 0.04  C 
BRANCH 2 3
ATOM      3  CG  ARG D   2     -11.686   2.335  13.642  1.00 57.88 LIG 0.02  C 
BRANCH 3 4
ATOM      4  CD  ARG D   2     -12.625   3.525  13.680  1.00 90.52 LIG 0.14  C 
BRANCH 4 5
ATOM      5  NE  ARG D   2     -13.580   3.507  12.572  1.00 84.14 LIG-0.23  N 
ATOM      6 HE   ARG D   2     -13.456   2.930  11.946  1.00 84.14 LIG 0.18  HD
ATOM      7  CZ  ARG D   2     -14.630   4.320  12.464  1.00 83.97 LIG 0.67  C 
ATOM      8  NH2 ARG D   2     -15.439   4.217  11.416  1.00 60.39 LIG-0.23  N 
ATOM      9  NH1 ARG D   2     -14.869   5.242  13.391  1.00 80.72 LIG-0.23  N 
ATOM     10 1HH2 ARG D   2     -15.284   3.626  10.809  1.00 60.39 LIG 0.17  HD
ATOM     11 2HH2 ARG D   2     -16.117   4.740  11.343  1.00 60.39 LIG 0.17  HD
ATOM     12 2HH1 ARG D   2     -15.548   5.763  13.315  1.00 80.72 LIG 0.17  HD
ATOM     13 1HH1 ARG D   2     -14.344   5.316  14.068  1.00 80.72 LIG 0.17  HD
ENDBRANCH 4 5
ENDBRANCH 3 4
ENDBRANCH 2 3
ENDBRANCH 1 2
BRANCH 1 14
ATOM     14  C   ARG D   2     -11.657   0.036  11.941  1.00 29.38 LIG 0.24  C 
ATOM     15 O    ARG D   2     -11.651  -1.060  12.498  1.00 21.44 LIG-0.27  OA
ATOM     16  N   SER D   3     -12.712   0.496  11.285  1.00 29.93 LIG-0.34  N 
ATOM     17 H    SER D   3     -12.771   1.279  10.934  1.00 29.93 LIG 0.16  HD
BRANCH 16 18
ATOM     18  CA  SER D   3     -13.884  -0.351  11.118  1.00 48.61 LIG 0.20  C 
BRANCH 18 19
ATOM     19  C   SER D   3     -14.234  -0.437   9.645  1.00 58.83 LIG 0.24  C 
ATOM     20  N   LYS D   4     -14.522  -1.647   9.180  1.00 77.18 LIG-0.35  N 
ATOM     21 H    LYS D   4     -14.470  -2.369   9.645  1.00 77.18 LIG 0.16  HD
ATOM     22 O    SER D   3     -14.222   0.570   8.937  1.00 53.61 LIG-0.27  OA
BRANCH 20 23
ATOM     23  CA  LYS D   4     -14.959  -1.840   7.805  1.00 70.35 LIG 0.18  C 
BRANCH 23 24
ATOM     24  CB  LYS D   4     -15.311  -3.307   7.548  1.00 80.12 LIG 0.04  C 
BRANCH 24 25
ATOM     25  CG  LYS D   4     -16.558  -3.489   6.694  1.00 84.36 LIG 0.00  C 
BRANCH 25 26
ATOM     26  CD  LYS D   4     -16.383  -2.956   5.285  1.00102.13 LIG 0.03  C 
BRANCH 26 27
ATOM     27  CE  LYS D   4     -14.919  -3.008   4.868  1.00 86.00 LIG 0.23  C 
BRANCH 27 28
ATOM     28  NZ  LYS D   4     -14.409  -1.677   4.443  1.00 85.97 LIG-0.08  N 
ATOM     29 HZ3  LYS D   4     -13.944  -1.311   5.108  1.00 85.97 LIG 0.27  HD
ATOM     30 HZ2  LYS D   4     -15.094  -1.149   4.234  1.00 85.97 LIG 0.27  HD
ATOM     31 HZ1  LYS D   4     -13.883  -1.774   3.731  1.00 85.97 LIG 0.27  HD
ENDBRANCH 27 28
ENDBRANCH 26 27
ENDBRANCH 25 26
ENDBRANCH 24 25
ENDBRANCH 23 24
BRANCH 23 32
ATOM     32  C   LYS D   4     -16.167  -0.945   7.574  1.00 69.25 LIG 0.24  C 
ATOM     33 O    LYS D   4     -17.107  -0.931   8.368  1.00 74.50 LIG-0.27  OA
ATOM     34  N   GLY D   5     -16.137  -0.213   6.464  1.00 72.69 LIG-0.35  N 
ATOM     35 H    GLY D   5     -15.469  -0.194   5.922  1.00 72.69 LIG 0.16  HD
BRANCH 34 36
ATOM     36  CA  GLY D   5     -17.248   0.631   6.067  1.00 67.28 LIG 0.21  C 
BRANCH 36 37
ATOM     37  C   GLY D   5     -16.973   1.344   4.758  1.00 69.64 LIG 0.21  C 
ATOM     38 O    GLY D   5     -16.142   0.905   3.961  1.00 73.82 LIG-0.29  OA
ENDBRANCH 36 37
ENDBRANCH 34 36
ENDBRANCH 23 32
ENDBRANCH 20 23
ENDBRANCH 18 19
BRANCH 18 39
ATOM     39  CB  SER D   3     -15.057   0.202  11.908  1.00 47.59 LIG 0.20  C 
BRANCH 39 40
ATOM     40 OG   SER D   3     -15.270   1.560  11.576  1.00 55.88 LIG-0.40  OA
ATOM     41 HG   SER D   3     -14.965   1.712  10.808  1.00 55.88 LIG 0.21  HD
ENDBRANCH 39 40
ENDBRANCH 18 39
ENDBRANCH 16 18
ENDBRANCH 1 14
BRANCH 1 42
ATOM     42  N   ARG D   2      -9.826   0.977  10.670  1.00 24.62 LIG-0.35  N 
ATOM     43 H    ARG D   2     -10.324   0.692  10.029  1.00 24.62 LIG 0.16  HD
ATOM     44  C   PHE D   1      -8.597   1.428  10.513  1.00 23.06 LIG 0.25  C 
ATOM     45 O    PHE D   1      -7.905   1.822  11.448  1.00 27.40 LIG-0.27  OA
BRANCH 44 46
ATOM     46  CA  PHE D   1      -8.097   1.530   9.079  1.00 18.76 LIG 0.28  C 
BRANCH 46 47
ATOM     47  CB  PHE D   1      -6.917   2.483   8.904  1.00 12.58 LIG 0.08  C 
BRANCH 47 48
ATOM     48  CG  PHE D   1      -5.584   1.824   9.181  1.00 17.06 LIG-0.06  A 
ATOM     49  CD1 PHE D   1      -5.382   1.095  10.349  1.00 22.27 LIG 0.01  A 
ATOM     50  CE1 PHE D   1      -4.157   0.464  10.602  1.00 15.67 LIG 0.00  A 
ATOM     51  CZ  PHE D   1      -3.119   0.570   9.678  1.00 13.83 LIG 0.00  A 
ATOM     52  CE2 PHE D   1      -3.314   1.284   8.509  1.00 20.38 LIG 0.00  A 
ATOM     53  CD2 PHE D   1      -4.543   1.904   8.259  1.00 21.07 LIG 0.01  A 
ENDBRANCH 47 48
ENDBRANCH 46 47
BRANCH 46 54
ATOM     54  N   PHE D   1      -9.216   1.926   8.190  1.00 21.45 LIG-0.07  N 
ATOM     55 H2   PHE D   1      -9.522   2.725   8.437  1.00 21.45 LIG 0.28  HD
ATOM     56 H3   PHE D   1      -8.928   1.966   7.349  1.00 21.45 LIG 0.28  HD
ATOM     57 H1   PHE D   1      -9.870   1.326   8.251  1.00 21.45 LIG 0.28  HD
ENDBRANCH 46 54
ENDBRANCH 44 46
ENDBRANCH 1 42
TORSDOF 23
ENDMDL
MODEL 10
USER: ADFR SOLUTION from run 87
USER: SCORE 17.381727 LL:  -3.013 LR: -16.620 RR:   0.000 FEB:  -9.759
USER: RMSD 8.820705
USER: SEED 86
USER: STATUS no improvement in best in 20 clusters for 5 generations
USER: GENES 25
USER: genes 0 Translation |==|  0.53353 0.74941 0.47096
USER: genes 1 Rotation |==|  0.34755 0.04079 0.45514 0.61779
USER: genes 2 Torsion [C]-CA--CB-[CG] |==|  0.24271
USER: genes 3 Torsion [CA]-CB--CG-[CD] |==|  0.45790
USER: genes 4 Torsion [CB]-CG--CD-[NE] |==|  0.66841
USER: genes 5 Torsion [CG]-CD--NE-[HE] |==|  0.35577
USER: genes 6 Torsion [N]-CA--C-[N] |==|  0.44592
USER: genes 7 Torsion [C]-N--CA-[C] |==|  0.19141
USER: genes 8 Torsion [N]-CA--C-[N] |==|  0.26936
USER: genes 9 Torsion [C]-N--CA-[CB] |==|  0.18593
USER: genes 10 Torsion [N]-CA--CB-[CG] |==|  0.67870
USER: genes 11 Torsion [CA]-CB--CG-[CD] |==|  0.41544
USER: genes 12 Torsion [CB]-CG--CD-[CE] |==|  0.75833
USER: genes 13 Torsion [CG]-CD--CE-[NZ] |==|  0.24219
USER: genes 14 Torsion [CD]-CE--NZ-[HZ2] |==|  0.09036
USER: genes 15 Torsion [N]-CA--C-[N] |==|  0.05692
USER: genes 16 Torsion [C]-N--CA-[C] |==|  0.26901
USER: genes 17 Torsion [N]-CA--C-[O] |==|  0.24123
USER: genes 18 Torsion [N]-CA--CB-[OG] |==|  0.87183
USER: genes 19 Torsion [CA]-CB--OG-[HG] |==|  0.00526
USER: genes 20 Torsion [CB]-CA--N-[C] |==|  0.17830
USER: genes 21 Torsion [N]-C--CA-[N] |==|  0.59364
USER: genes 22 Torsion [C]-CA--CB-[CG] |==|  0.23480
USER: genes 23 Torsion [CA]-CB--CG-[CD1] |==|  0.68479
USER: genes 24 Torsion [C]-CA--N-[H2] |==|  0.29539
ROOT
ATOM      1  CA  ARG D   2     -10.835   2.245  11.349  1.00 39.33 LIG 0.18  C 
ENDROOT
BRANCH 1 2
ATOM      2  CB  ARG D   2      -9.456   1.634  11.523  1.00 35.05 LIG 0.04  C 
BRANCH 2 3
ATOM      3  CG  ARG D   2      -8.797   1.327  10.206  1.00 57.88 LIG 0.02  C 
BRANCH 3 4
ATOM      4  CD  ARG D   2      -7.311   1.071  10.373  1.00 90.52 LIG 0.14  C 
BRANCH 4 5
ATOM      5  NE  ARG D   2      -6.501   2.028   9.619  1.00 84.14 LIG-0.23  N 
ATOM      6 HE   ARG D   2      -5.879   2.445  10.041  1.00 84.14 LIG 0.18  HD
ATOM      7  CZ  ARG D   2      -6.658   2.297   8.324  1.00 83.97 LIG 0.67  C 
ATOM      8  NH2 ARG D   2      -5.864   3.183   7.733  1.00 60.39 LIG-0.23  N 
ATOM      9  NH1 ARG D   2      -7.611   1.695   7.619  1.00 80.72 LIG-0.23  N 
ATOM     10 1HH2 ARG D   2      -5.250   3.580   8.187  1.00 60.39 LIG 0.17  HD
ATOM     11 2HH2 ARG D   2      -5.963   3.359   6.897  1.00 60.39 LIG 0.17  HD
ATOM     12 2HH1 ARG D   2      -7.706   1.874   6.783  1.00 80.72 LIG 0.17  HD
ATOM     13 1HH1 ARG D   2      -8.131   1.126   7.998  1.00 80.72 LIG 0.17  HD
ENDBRANCH 4 5
ENDBRANCH 3 4
ENDBRANCH 2 3
ENDBRANCH 1 2
BRANCH 1 14
ATOM     14  C   ARG D   2     -11.868   1.145  11.239  1.00 29.38 LIG 0.24  C 
ATOM     15 O    ARG D   2     -12.564   0.836  12.204  1.00 21.44 LIG-0.27  OA
ATOM     16  N   SER D   3     -11.975   0.546  10.062  1.00 29.93 LIG-0.34  N 
ATOM     17 H    SER D   3     -11.547   0.775   9.352  1.00 29.93 LIG 0.16  HD
BRANCH 16 18
ATOM     18  CA  SER D   3     -12.872  -0.590   9.910  1.00 48.61 LIG 0.20  C 
BRANCH 18 19
ATOM     19  C   SER D   3     -14.307  -0.113  10.022  1.00 58.83 LIG 0.24  C 
ATOM     20  N   LYS D   4     -14.940   0.117   8.877  1.00 77.18 LIG-0.35  N 
ATOM     21 H    LYS D   4     -14.572   0.062   8.101  1.00 77.18 LIG 0.16  HD
ATOM     22 O    SER D   3     -14.826   0.065  11.124  1.00 53.61 LIG-0.27  OA
BRANCH 20 23
ATOM     23  CA  LYS D   4     -16.346   0.492   8.858  1.00 70.35 LIG 0.18  C 
BRANCH 23 24
ATOM     24  CB  LYS D   4     -16.549   1.876   9.480  1.00 80.12 LIG 0.04  C 
BRANCH 24 25
ATOM     25  CG  LYS D   4     -17.381   1.851  10.755  1.00 84.36 LIG 0.00  C 
BRANCH 25 26
ATOM     26  CD  LYS D   4     -16.997   2.953  11.722  1.00102.13 LIG 0.03  C 
BRANCH 26 27
ATOM     27  CE  LYS D   4     -15.854   2.504  12.624  1.00 86.00 LIG 0.23  C 
BRANCH 27 28
ATOM     28  NZ  LYS D   4     -14.522   2.762  12.013  1.00 85.97 LIG-0.08  N 
ATOM     29 HZ3  LYS D   4     -13.917   2.875  12.657  1.00 85.97 LIG 0.27  HD
ATOM     30 HZ2  LYS D   4     -14.563   3.497  11.513  1.00 85.97 LIG 0.27  HD
ATOM     31 HZ1  LYS D   4     -14.290   2.070  11.505  1.00 85.97 LIG 0.27  HD
ENDBRANCH 27 28
ENDBRANCH 26 27
ENDBRANCH 25 26
ENDBRANCH 24 25
ENDBRANCH 23 24
BRANCH 23 32
ATOM     32  C   LYS D   4     -16.810   0.476   7.410  1.00 69.25 LIG 0.24  C 
ATOM     33 O    LYS D   4     -17.824   1.081   7.063  1.00 74.50 LIG-0.27  OA
ATOM     34  N   GLY D   5     -16.064  -0.240   6.574  1.00 72.69 LIG-0.35  N 
ATOM     35 H    GLY D   5     -15.337  -0.638   6.804  1.00 72.69 LIG 0.16  HD
BRANCH 34 36
ATOM     36  CA  GLY D   5     -16.420  -0.414   5.178  1.00 67.28 LIG 0.21  C 
BRANCH 36 37
ATOM     37  C   GLY D   5     -15.691   0.570   4.285  1.00 69.64 LIG 0.21  C 
ATOM     38 O    GLY D   5     -14.570   0.311   3.843  1.00 73.82 LIG-0.29  OA
ENDBRANCH 36 37
ENDBRANCH 34 36
ENDBRANCH 23 32
ENDBRANCH 20 23
ENDBRANCH 18 19
BRANCH 18 39
ATOM     39  CB  SER D   3     -12.582  -1.642  10.966  1.00 47.59 LIG 0.20  C 
BRANCH 39 40
ATOM     40 OG   SER D   3     -11.189  -1.869  11.057  1.00 55.88 LIG-0.40  OA
ATOM     41 HG   SER D   3     -10.786  -1.357  10.526  1.00 55.88 LIG 0.21  HD
ENDBRANCH 39 40
ENDBRANCH 18 39
ENDBRANCH 16 18
ENDBRANCH 1 14
BRANCH 1 42
ATOM     42  N   ARG D   2     -11.135   3.085  12.485  1.00 24.62 LIG-0.35  N 
ATOM     43 H    ARG D   2     -11.799   2.820  12.964  1.00 24.62 LIG 0.16  HD
ATOM     44  C   PHE D   1     -10.423   4.167  12.733  1.00 23.06 LIG 0.25  C 
ATOM     45 O    PHE D   1      -9.484   4.526  12.029  1.00 27.40 LIG-0.27  OA
BRANCH 44 46
ATOM     46  CA  PHE D   1     -10.762   4.913  14.016  1.00 18.76 LIG 0.28  C 
BRANCH 46 47
ATOM     47  CB  PHE D   1     -12.172   4.637  14.535  1.00 12.58 LIG 0.08  C 
BRANCH 47 48
ATOM     48  CG  PHE D   1     -12.252   3.385  15.380  1.00 17.06 LIG-0.06  A 
ATOM     49  CD1 PHE D   1     -12.972   2.278  14.939  1.00 22.27 LIG 0.01  A 
ATOM     50  CE1 PHE D   1     -13.033   1.107  15.707  1.00 15.67 LIG 0.00  A 
ATOM     51  CZ  PHE D   1     -12.372   1.046  16.932  1.00 13.83 LIG 0.00  A 
ATOM     52  CE2 PHE D   1     -11.646   2.138  17.372  1.00 20.38 LIG 0.00  A 
ATOM     53  CD2 PHE D   1     -11.581   3.301  16.597  1.00 21.07 LIG 0.01  A 
ENDBRANCH 47 48
ENDBRANCH 46 47
BRANCH 46 54
ATOM     54  N   PHE D   1     -10.563   6.368  13.812  1.00 21.45 LIG-0.07  N 
ATOM     55 H2   PHE D   1     -11.355   6.770  13.751  1.00 21.45 LIG 0.28  HD
ATOM     56 H3   PHE D   1     -10.112   6.706  14.501  1.00 21.45 LIG 0.28  HD
ATOM     57 H1   PHE D   1     -10.104   6.502  13.062  1.00 21.45 LIG 0.28  HD
ENDBRANCH 46 54
ENDBRANCH 44 46
ENDBRANCH 1 42
TORSDOF 23
ENDMDL
MODEL 11
USER: ADFR SOLUTION from run 170
USER: SCORE 19.018986 LL:  -3.481 LR: -16.600 RR:   0.000 FEB:  -9.739
USER: RMSD 7.231714
USER: SEED 169
USER: STATUS 1 or 2 clusters left
USER: GENES 25
USER: genes 0 Translation |==|  0.49475 0.63662 0.49764
USER: genes 1 Rotation |==|  0.75168 0.63419 0.29324 0.85482
USER: genes 2 Torsion [C]-CA--CB-[CG] |==|  0.74338
USER: genes 3 Torsion [CA]-CB--CG-[CD] |==|  0.70614
USER: genes 4 Torsion [CB]-CG--CD-[NE] |==|  0.63908
USER: genes 5 Torsion [CG]-CD--NE-[HE] |==|  0.95900
USER: genes 6 Torsion [N]-CA--C-[N] |==|  0.88532
USER: genes 7 Torsion [C]-N--CA-[C] |==|  0.18861
USER: genes 8 Torsion [N]-CA--C-[N] |==|  0.09799
USER: genes 9 Torsion [C]-N--CA-[CB] |==|  0.17319
USER: genes 10 Torsion [N]-CA--CB-[CG] |==|  0.10863
USER: genes 11 Torsion [CA]-CB--CG-[CD] |==|  0.51882
USER: genes 12 Torsion [CB]-CG--CD-[CE] |==|  0.26223
USER: genes 13 Torsion [CG]-CD--CE-[NZ] |==|  0.96255
USER: genes 14 Torsion [CD]-CE--NZ-[HZ2] |==|  0.53529
USER: genes 15 Torsion [N]-CA--C-[N] |==|  0.08944
USER: genes 16 Torsion [C]-N--CA-[C] |==|  0.23244
USER: genes 17 Torsion [N]-CA--C-[O] |==|  0.01554
USER: genes 18 Torsion [N]-CA--CB-[OG] |==|  0.55953
USER: genes 19 Torsion [CA]-CB--OG-[HG] |==|  0.14342
USER: genes 20 Torsion [CB]-CA--N-[C] |==|  0.20467
USER: genes 21 Torsion [N]-C--CA-[N] |==|  0.09745
USER: genes 22 Torsion [C]-CA--CB-[CG] |==|  0.46221
USER: genes 23 Torsion [CA]-CB--CG-[CD1] |==|  0.15049
USER: genes 24 Torsion [C]-CA--N-[H2] |==|  0.72327
ROOT
ATOM      1  CA  ARG D   2     -11.678  -0.039  11.889  1.00 39.33 LIG 0.18  C 
ENDROOT
BRANCH 1 2
ATOM      2  CB  ARG D   2     -11.968   1.201  12.716  1.00 35.05 LIG 0.04  C 
BRANCH 2 3
ATOM      3  CG  ARG D   2     -11.621   2.469  11.985  1.00 57.88 LIG 0.02  C 
BRANCH 3 4
ATOM      4  CD  ARG D   2     -10.352   3.097  12.530  1.00 90.52 LIG 0.14  C 
BRANCH 4 5
ATOM      5  NE  ARG D   2     -10.527   4.517  12.831  1.00 84.14 LIG-0.23  N 
ATOM      6 HE   ARG D   2     -11.220   4.912  12.508  1.00 84.14 LIG 0.18  HD
ATOM      7  CZ  ARG D   2      -9.689   5.244  13.569  1.00 83.97 LIG 0.67  C 
ATOM      8  NH2 ARG D   2      -9.944   6.529  13.784  1.00 60.39 LIG-0.23  N 
ATOM      9  NH1 ARG D   2      -8.594   4.695  14.084  1.00 80.72 LIG-0.23  N 
ATOM     10 1HH2 ARG D   2     -10.648   6.890  13.447  1.00 60.39 LIG 0.17  HD
ATOM     11 2HH2 ARG D   2      -9.405   7.000  14.260  1.00 60.39 LIG 0.17  HD
ATOM     12 2HH1 ARG D   2      -8.058   5.170  14.560  1.00 80.72 LIG 0.17  HD
ATOM     13 1HH1 ARG D   2      -8.421   3.865  13.943  1.00 80.72 LIG 0.17  HD
ENDBRANCH 4 5
ENDBRANCH 3 4
ENDBRANCH 2 3
ENDBRANCH 1 2
BRANCH 1 14
ATOM     14  C   ARG D   2     -12.919  -0.436  11.118  1.00 29.38 LIG 0.24  C 
ATOM     15 O    ARG D   2     -13.634  -1.356  11.508  1.00 21.44 LIG-0.27  OA
ATOM     16  N   SER D   3     -13.181   0.255  10.019  1.00 29.93 LIG-0.34  N 
ATOM     17 H    SER D   3     -12.736   0.939   9.749  1.00 29.93 LIG 0.16  HD
BRANCH 16 18
ATOM     18  CA  SER D   3     -14.297  -0.137   9.170  1.00 48.61 LIG 0.20  C 
BRANCH 18 19
ATOM     19  C   SER D   3     -15.599   0.117   9.905  1.00 58.83 LIG 0.24  C 
ATOM     20  N   LYS D   4     -15.627   1.186  10.693  1.00 77.18 LIG-0.35  N 
ATOM     21 H    LYS D   4     -14.950   1.695  10.843  1.00 77.18 LIG 0.16  HD
ATOM     22 O    SER D   3     -16.552  -0.651   9.780  1.00 53.61 LIG-0.27  OA
BRANCH 20 23
ATOM     23  CA  LYS D   4     -16.849   1.581  11.379  1.00 70.35 LIG 0.18  C 
BRANCH 23 24
ATOM     24  CB  LYS D   4     -17.301   0.492  12.354  1.00 80.12 LIG 0.04  C 
BRANCH 24 25
ATOM     25  CG  LYS D   4     -16.149  -0.174  13.095  1.00 84.36 LIG 0.00  C 
BRANCH 25 26
ATOM     26  CD  LYS D   4     -16.599  -1.356  13.930  1.00102.13 LIG 0.03  C 
BRANCH 26 27
ATOM     27  CE  LYS D   4     -16.443  -2.656  13.152  1.00 86.00 LIG 0.23  C 
BRANCH 27 28
ATOM     28  NZ  LYS D   4     -16.207  -2.418  11.703  1.00 85.97 LIG-0.08  N 
ATOM     29 HZ3  LYS D   4     -16.795  -1.820  11.400  1.00 85.97 LIG 0.27  HD
ATOM     30 HZ2  LYS D   4     -16.305  -3.181  11.256  1.00 85.97 LIG 0.27  HD
ATOM     31 HZ1  LYS D   4     -15.381  -2.109  11.583  1.00 85.97 LIG 0.27  HD
ENDBRANCH 27 28
ENDBRANCH 26 27
ENDBRANCH 25 26
ENDBRANCH 24 25
ENDBRANCH 23 24
BRANCH 23 32
ATOM     32  C   LYS D   4     -16.567   2.882  12.113  1.00 69.25 LIG 0.24  C 
ATOM     33 O    LYS D   4     -17.142   3.152  13.168  1.00 74.50 LIG-0.27  OA
ATOM     34  N   GLY D   5     -15.689   3.694  11.532  1.00 72.69 LIG-0.35  N 
ATOM     35 H    GLY D   5     -15.261   3.497  10.812  1.00 72.69 LIG 0.16  HD
BRANCH 34 36
ATOM     36  CA  GLY D   5     -15.374   5.004  12.071  1.00 67.28 LIG 0.21  C 
BRANCH 36 37
ATOM     37  C   GLY D   5     -14.325   4.925  13.162  1.00 69.64 LIG 0.21  C 
ATOM     38 O    GLY D   5     -13.768   3.858  13.427  1.00 73.82 LIG-0.29  OA
ENDBRANCH 36 37
ENDBRANCH 34 36
ENDBRANCH 23 32
ENDBRANCH 20 23
ENDBRANCH 18 19
BRANCH 18 39
ATOM     39  CB  SER D   3     -14.185  -1.603   8.787  1.00 47.59 LIG 0.20  C 
BRANCH 39 40
ATOM     40 OG   SER D   3     -14.939  -1.860   7.619  1.00 55.88 LIG-0.40  OA
ATOM     41 HG   SER D   3     -14.726  -1.309   7.021  1.00 55.88 LIG 0.21  HD
ENDBRANCH 39 40
ENDBRANCH 18 39
ENDBRANCH 16 18
ENDBRANCH 1 14
BRANCH 1 42
ATOM     42  N   ARG D   2     -10.600   0.239  10.969  1.00 24.62 LIG-0.35  N 
ATOM     43 H    ARG D   2     -10.841   0.330  10.148  1.00 24.62 LIG 0.16  HD
ATOM     44  C   PHE D   1      -9.356   0.337  11.396  1.00 23.06 LIG 0.25  C 
ATOM     45 O    PHE D   1      -9.040   0.197  12.573  1.00 27.40 LIG-0.27  OA
BRANCH 44 46
ATOM     46  CA  PHE D   1      -8.320   0.738  10.354  1.00 18.76 LIG 0.28  C 
BRANCH 46 47
ATOM     47  CB  PHE D   1      -7.040   1.319  10.951  1.00 12.58 LIG 0.08  C 
BRANCH 47 48
ATOM     48  CG  PHE D   1      -5.910   1.405   9.949  1.00 17.06 LIG-0.06  A 
ATOM     49  CD1 PHE D   1      -6.087   2.065   8.736  1.00 22.27 LIG 0.01  A 
ATOM     50  CE1 PHE D   1      -5.038   2.166   7.812  1.00 15.67 LIG 0.00  A 
ATOM     51  CZ  PHE D   1      -3.802   1.594   8.102  1.00 13.83 LIG 0.00  A 
ATOM     52  CE2 PHE D   1      -3.614   0.945   9.309  1.00 20.38 LIG 0.00  A 
ATOM     53  CD2 PHE D   1      -4.662   0.855  10.231  1.00 21.07 LIG 0.01  A 
ENDBRANCH 47 48
ENDBRANCH 46 47
BRANCH 46 54
ATOM     54  N   PHE D   1      -8.923   1.695   9.396  1.00 21.45 LIG-0.07  N 
ATOM     55 H2   PHE D   1      -9.160   1.263   8.655  1.00 21.45 LIG 0.28  HD
ATOM     56 H3   PHE D   1      -9.642   2.070   9.763  1.00 21.45 LIG 0.28  HD
ATOM     57 H1   PHE D   1      -8.329   2.327   9.194  1.00 21.45 LIG 0.28  HD
ENDBRANCH 46 54
ENDBRANCH 44 46
ENDBRANCH 1 42
TORSDOF 23
ENDMDL
MODEL 12
USER: ADFR SOLUTION from run 96
USER: SCORE 17.306419 LL:  -2.034 LR: -16.545 RR:   0.000 FEB:  -9.684
USER: RMSD 6.305900
USER: SEED 95
USER: STATUS no improvement in best in 1 clusters for 5 generations
USER: GENES 25
USER: genes 0 Translation |==|  0.49559 0.59639 0.51320
USER: genes 1 Rotation |==|  0.63211 0.61997 0.37646 0.95044
USER: genes 2 Torsion [C]-CA--CB-[CG] |==|  0.29583
USER: genes 3 Torsion [CA]-CB--CG-[CD] |==|  0.31249
USER: genes 4 Torsion [CB]-CG--CD-[NE] |==|  0.96991
USER: genes 5 Torsion [CG]-CD--NE-[HE] |==|  0.90714
USER: genes 6 Torsion [N]-CA--C-[N] |==|  0.60556
USER: genes 7 Torsion [C]-N--CA-[C] |==|  0.74657
USER: genes 8 Torsion [N]-CA--C-[N] |==|  0.02647
USER: genes 9 Torsion [C]-N--CA-[CB] |==|  0.88861
USER: genes 10 Torsion [N]-CA--CB-[CG] |==|  0.42529
USER: genes 11 Torsion [CA]-CB--CG-[CD] |==|  0.39530
USER: genes 12 Torsion [CB]-CG--CD-[CE] |==|  0.65279
USER: genes 13 Torsion [CG]-CD--CE-[NZ] |==|  0.20476
USER: genes 14 Torsion [CD]-CE--NZ-[HZ2] |==|  0.60990
USER: genes 15 Torsion [N]-CA--C-[N] |==|  0.36977
USER: genes 16 Torsion [C]-N--CA-[C] |==|  0.65867
USER: genes 17 Torsion [N]-CA--C-[O] |==|  0.90361
USER: genes 18 Torsion [N]-CA--CB-[OG] |==|  0.90655
USER: genes 19 Torsion [CA]-CB--OG-[HG] |==|  0.72737
USER: genes 20 Torsion [CB]-CA--N-[C] |==|  0.19938
USER: genes 21 Torsion [N]-C--CA-[N] |==|  0.38639
USER: genes 22 Torsion [C]-CA--CB-[CG] |==|  0.55371
USER: genes 23 Torsion [CA]-CB--CG-[CD1] |==|  0.41466
USER: genes 24 Torsion [C]-CA--N-[H2] |==|  0.90772
ROOT
ATOM      1  CA  ARG D   2     -11.660  -0.853  12.204  1.00 39.33 LIG 0.18  C 
ENDROOT
BRANCH 1 2
ATOM      2  CB  ARG D   2     -12.638   0.297  12.362  1.00 35.05 LIG 0.04  C 
BRANCH 2 3
ATOM      3  CG  ARG D   2     -12.936   0.600  13.805  1.00 57.88 LIG 0.02  C 
BRANCH 3 4
ATOM      4  CD  ARG D   2     -12.385   1.951  14.216  1.00 90.52 LIG 0.14  C 
BRANCH 4 5
ATOM      5  NE  ARG D   2     -11.490   2.511  13.204  1.00 84.14 LIG-0.23  N 
ATOM      6 HE   ARG D   2     -11.011   1.963  12.746  1.00 84.14 LIG 0.18  HD
ATOM      7  CZ  ARG D   2     -11.365   3.811  12.940  1.00 83.97 LIG 0.67  C 
ATOM      8  NH2 ARG D   2     -10.524   4.214  11.994  1.00 60.39 LIG-0.23  N 
ATOM      9  NH1 ARG D   2     -12.068   4.709  13.622  1.00 80.72 LIG-0.23  N 
ATOM     10 1HH2 ARG D   2     -10.062   3.636  11.555  1.00 60.39 LIG 0.17  HD
ATOM     11 2HH2 ARG D   2     -10.441   5.052  11.822  1.00 60.39 LIG 0.17  HD
ATOM     12 2HH1 ARG D   2     -11.982   5.547  13.445  1.00 80.72 LIG 0.17  HD
ATOM     13 1HH1 ARG D   2     -12.608   4.454  14.239  1.00 80.72 LIG 0.17  HD
ENDBRANCH 4 5
ENDBRANCH 3 4
ENDBRANCH 2 3
ENDBRANCH 1 2
BRANCH 1 14
ATOM     14  C   ARG D   2     -12.397  -2.083  11.719  1.00 29.38 LIG 0.24  C 
ATOM     15 O    ARG D   2     -11.797  -2.992  11.150  1.00 21.44 LIG-0.27  OA
ATOM     16  N   SER D   3     -13.702  -2.119  11.940  1.00 29.93 LIG-0.34  N 
ATOM     17 H    SER D   3     -14.143  -1.529  12.384  1.00 29.93 LIG 0.16  HD
BRANCH 16 18
ATOM     18  CA  SER D   3     -14.494  -3.220  11.410  1.00 48.61 LIG 0.20  C 
BRANCH 18 19
ATOM     19  C   SER D   3     -15.015  -2.845  10.036  1.00 58.83 LIG 0.24  C 
ATOM     20  N   LYS D   4     -14.520  -1.734   9.504  1.00 77.18 LIG-0.35  N 
ATOM     21 H    LYS D   4     -13.975  -1.205   9.908  1.00 77.18 LIG 0.16  HD
ATOM     22 O    SER D   3     -15.867  -3.536   9.477  1.00 53.61 LIG-0.27  OA
BRANCH 20 23
ATOM     23  CA  LYS D   4     -14.878  -1.322   8.155  1.00 70.35 LIG 0.18  C 
BRANCH 23 24
ATOM     24  CB  LYS D   4     -14.938  -2.529   7.216  1.00 80.12 LIG 0.04  C 
BRANCH 24 25
ATOM     25  CG  LYS D   4     -15.883  -2.334   6.038  1.00 84.36 LIG 0.00  C 
BRANCH 25 26
ATOM     26  CD  LYS D   4     -15.352  -2.947   4.757  1.00102.13 LIG 0.03  C 
BRANCH 26 27
ATOM     27  CE  LYS D   4     -15.299  -1.908   3.644  1.00 86.00 LIG 0.23  C 
BRANCH 27 28
ATOM     28  NZ  LYS D   4     -14.187  -0.937   3.835  1.00 85.97 LIG-0.08  N 
ATOM     29 HZ3  LYS D   4     -13.933  -0.940   4.688  1.00 85.97 LIG 0.27  HD
ATOM     30 HZ2  LYS D   4     -14.462  -0.122   3.610  1.00 85.97 LIG 0.27  HD
ATOM     31 HZ1  LYS D   4     -13.499  -1.170   3.320  1.00 85.97 LIG 0.27  HD
ENDBRANCH 27 28
ENDBRANCH 26 27
ENDBRANCH 25 26
ENDBRANCH 24 25
ENDBRANCH 23 24
BRANCH 23 32
ATOM     32  C   LYS D   4     -16.227  -0.624   8.226  1.00 69.25 LIG 0.24  C 
ATOM     33 O    LYS D   4     -17.167  -1.125   8.842  1.00 74.50 LIG-0.27  OA
ATOM     34  N   GLY D   5     -16.314   0.529   7.570  1.00 72.69 LIG-0.35  N 
ATOM     35 H    GLY D   5     -15.652   0.900   7.165  1.00 72.69 LIG 0.16  HD
BRANCH 34 36
ATOM     36  CA  GLY D   5     -17.557   1.274   7.481  1.00 67.28 LIG 0.21  C 
BRANCH 36 37
ATOM     37  C   GLY D   5     -17.966   1.515   6.041  1.00 69.64 LIG 0.21  C 
ATOM     38 O    GLY D   5     -17.118   1.707   5.168  1.00 73.82 LIG-0.29  OA
ENDBRANCH 36 37
ENDBRANCH 34 36
ENDBRANCH 23 32
ENDBRANCH 20 23
ENDBRANCH 18 19
BRANCH 18 39
ATOM     39  CB  SER D   3     -15.648  -3.543  12.342  1.00 47.59 LIG 0.20  C 
BRANCH 39 40
ATOM     40 OG   SER D   3     -15.265  -3.321  13.685  1.00 55.88 LIG-0.40  OA
ATOM     41 HG   SER D   3     -15.042  -4.050  14.037  1.00 55.88 LIG 0.21  HD
ENDBRANCH 39 40
ENDBRANCH 18 39
ENDBRANCH 16 18
ENDBRANCH 1 14
BRANCH 1 42
ATOM     42  N   ARG D   2     -10.638  -0.488  11.251  1.00 24.62 LIG-0.35  N 
ATOM     43 H    ARG D   2     -10.691  -0.892  10.493  1.00 24.62 LIG 0.16  HD
ATOM     44  C   PHE D   1      -9.713   0.400  11.558  1.00 23.06 LIG 0.25  C 
ATOM     45 O    PHE D   1      -9.657   0.957  12.651  1.00 27.40 LIG-0.27  OA
BRANCH 44 46
ATOM     46  CA  PHE D   1      -8.754   0.784  10.440  1.00 18.76 LIG 0.28  C 
BRANCH 46 47
ATOM     47  CB  PHE D   1      -7.432   0.021  10.472  1.00 12.58 LIG 0.08  C 
BRANCH 47 48
ATOM     48  CG  PHE D   1      -6.338   0.707   9.685  1.00 17.06 LIG-0.06  A 
ATOM     49  CD1 PHE D   1      -5.005   0.583  10.066  1.00 22.27 LIG 0.01  A 
ATOM     50  CE1 PHE D   1      -3.985   1.198   9.329  1.00 15.67 LIG 0.00  A 
ATOM     51  CZ  PHE D   1      -4.302   1.954   8.203  1.00 13.83 LIG 0.00  A 
ATOM     52  CE2 PHE D   1      -5.623   2.075   7.811  1.00 20.38 LIG 0.00  A 
ATOM     53  CD2 PHE D   1      -6.637   1.450   8.545  1.00 21.07 LIG 0.01  A 
ENDBRANCH 47 48
ENDBRANCH 46 47
BRANCH 46 54
ATOM     54  N   PHE D   1      -8.507   2.246  10.478  1.00 21.45 LIG-0.07  N 
ATOM     55 H2   PHE D   1      -9.241   2.664  10.757  1.00 21.45 LIG 0.28  HD
ATOM     56 H3   PHE D   1      -7.836   2.419  11.037  1.00 21.45 LIG 0.28  HD
ATOM     57 H1   PHE D   1      -8.294   2.532   9.662  1.00 21.45 LIG 0.28  HD
ENDBRANCH 46 54
ENDBRANCH 44 46
ENDBRANCH 1 42
TORSDOF 23
ENDMDL
MODEL 13
USER: ADFR SOLUTION from run 134
USER: SCORE 18.666057 LL:  -3.397 LR: -16.535 RR:   0.000 FEB:  -9.674
USER: RMSD 5.976396
USER: SEED 133
USER: STATUS searching
USER: GENES 25
USER: genes 0 Translation |==|  0.55346 0.64502 0.50773
USER: genes 1 Rotation |==|  0.68405 0.71588 0.26399 0.83737
USER: genes 2 Torsion [C]-CA--CB-[CG] |==|  0.83473
USER: genes 3 Torsion [CA]-CB--CG-[CD] |==|  0.65814
USER: genes 4 Torsion [CB]-CG--CD-[NE] |==|  0.93175
USER: genes 5 Torsion [CG]-CD--NE-[HE] |==|  0.14870
USER: genes 6 Torsion [N]-CA--C-[N] |==|  0.06222
USER: genes 7 Torsion [C]-N--CA-[C] |==|  0.76395
USER: genes 8 Torsion [N]-CA--C-[N] |==|  0.98164
USER: genes 9 Torsion [C]-N--CA-[CB] |==|  0.85803
USER: genes 10 Torsion [N]-CA--CB-[CG] |==|  0.77464
USER: genes 11 Torsion [CA]-CB--CG-[CD] |==|  0.23907
USER: genes 12 Torsion [CB]-CG--CD-[CE] |==|  0.17123
USER: genes 13 Torsion [CG]-CD--CE-[NZ] |==|  0.60452
USER: genes 14 Torsion [CD]-CE--NZ-[HZ2] |==|  0.01854
USER: genes 15 Torsion [N]-CA--C-[N] |==|  0.74568
USER: genes 16 Torsion [C]-N--CA-[C] |==|  0.68389
USER: genes 17 Torsion [N]-CA--C-[O] |==|  0.12221
USER: genes 18 Torsion [N]-CA--CB-[OG] |==|  0.72633
USER: genes 19 Torsion [CA]-CB--OG-[HG] |==|  0.42293
USER: genes 20 Torsion [CB]-CA--N-[C] |==|  0.17730
USER: genes 21 Torsion [N]-C--CA-[N] |==|  0.07183
USER: genes 22 Torsion [C]-CA--CB-[CG] |==|  0.26922
USER: genes 23 Torsion [CA]-CB--CG-[CD1] |==|  0.81925
USER: genes 24 Torsion [C]-CA--N-[H2] |==|  0.96045
ROOT
ATOM      1  CA  ARG D   2     -10.401   0.132  12.094  1.00 39.33 LIG 0.18  C 
ENDROOT
BRANCH 1 2
ATOM      2  CB  ARG D   2     -10.492   1.392  12.935  1.00 35.05 LIG 0.04  C 
BRANCH 2 3
ATOM      3  CG  ARG D   2     -11.377   2.435  12.307  1.00 57.88 LIG 0.02  C 
BRANCH 3 4
ATOM      4  CD  ARG D   2     -10.636   3.741  12.096  1.00 90.52 LIG 0.14  C 
BRANCH 4 5
ATOM      5  NE  ARG D   2      -9.509   3.889  13.016  1.00 84.14 LIG-0.23  N 
ATOM      6 HE   ARG D   2      -8.930   3.253  13.045  1.00 84.14 LIG 0.18  HD
ATOM      7  CZ  ARG D   2      -9.314   4.939  13.812  1.00 83.97 LIG 0.67  C 
ATOM      8  NH2 ARG D   2      -8.252   4.975  14.609  1.00 60.39 LIG-0.23  N 
ATOM      9  NH1 ARG D   2     -10.179   5.948  13.823  1.00 80.72 LIG-0.23  N 
ATOM     10 1HH2 ARG D   2      -7.693   4.321  14.610  1.00 60.39 LIG 0.17  HD
ATOM     11 2HH2 ARG D   2      -8.124   5.651  15.124  1.00 60.39 LIG 0.17  HD
ATOM     12 2HH1 ARG D   2     -10.046   6.622  14.340  1.00 80.72 LIG 0.17  HD
ATOM     13 1HH1 ARG D   2     -10.871   5.926  13.314  1.00 80.72 LIG 0.17  HD
ENDBRANCH 4 5
ENDBRANCH 3 4
ENDBRANCH 2 3
ENDBRANCH 1 2
BRANCH 1 14
ATOM     14  C   ARG D   2     -11.783  -0.460  11.916  1.00 29.38 LIG 0.24  C 
ATOM     15 O    ARG D   2     -12.602  -0.432  12.832  1.00 21.44 LIG-0.27  OA
ATOM     16  N   SER D   3     -12.051  -0.999  10.736  1.00 29.93 LIG-0.34  N 
ATOM     17 H    SER D   3     -11.524  -0.985  10.056  1.00 29.93 LIG 0.16  HD
BRANCH 16 18
ATOM     18  CA  SER D   3     -13.321  -1.680  10.526  1.00 48.61 LIG 0.20  C 
BRANCH 18 19
ATOM     19  C   SER D   3     -13.203  -3.116  10.999  1.00 58.83 LIG 0.24  C 
ATOM     20  N   LYS D   4     -11.991  -3.514  11.367  1.00 77.18 LIG-0.35  N 
ATOM     21 H    LYS D   4     -11.282  -3.031  11.303  1.00 77.18 LIG 0.16  HD
ATOM     22 O    SER D   3     -14.186  -3.856  11.010  1.00 53.61 LIG-0.27  OA
BRANCH 20 23
ATOM     23  CA  LYS D   4     -11.773  -4.842  11.923  1.00 70.35 LIG 0.18  C 
BRANCH 23 24
ATOM     24  CB  LYS D   4     -12.748  -5.117  13.071  1.00 80.12 LIG 0.04  C 
BRANCH 24 25
ATOM     25  CG  LYS D   4     -12.311  -4.505  14.396  1.00 84.36 LIG 0.00  C 
BRANCH 25 26
ATOM     26  CD  LYS D   4     -12.762  -3.066  14.549  1.00102.13 LIG 0.03  C 
BRANCH 26 27
ATOM     27  CE  LYS D   4     -14.283  -2.972  14.526  1.00 86.00 LIG 0.23  C 
BRANCH 27 28
ATOM     28  NZ  LYS D   4     -14.759  -1.760  13.806  1.00 85.97 LIG-0.08  N 
ATOM     29 HZ3  LYS D   4     -15.342  -1.999  13.176  1.00 85.97 LIG 0.27  HD
ATOM     30 HZ2  LYS D   4     -14.067  -1.348  13.428  1.00 85.97 LIG 0.27  HD
ATOM     31 HZ1  LYS D   4     -15.154  -1.209  14.382  1.00 85.97 LIG 0.27  HD
ENDBRANCH 27 28
ENDBRANCH 26 27
ENDBRANCH 25 26
ENDBRANCH 24 25
ENDBRANCH 23 24
BRANCH 23 32
ATOM     32  C   LYS D   4     -11.960  -5.850  10.801  1.00 69.25 LIG 0.24  C 
ATOM     33 O    LYS D   4     -11.021  -6.167  10.070  1.00 74.50 LIG-0.27  OA
ATOM     34  N   GLY D   5     -13.190  -6.337  10.663  1.00 72.69 LIG-0.35  N 
ATOM     35 H    GLY D   5     -13.841  -6.145  11.191  1.00 72.69 LIG 0.16  HD
BRANCH 34 36
ATOM     36  CA  GLY D   5     -13.542  -7.250   9.592  1.00 67.28 LIG 0.21  C 
BRANCH 36 37
ATOM     37  C   GLY D   5     -14.524  -6.625   8.620  1.00 69.64 LIG 0.21  C 
ATOM     38 O    GLY D   5     -14.371  -5.468   8.225  1.00 73.82 LIG-0.29  OA
ENDBRANCH 36 37
ENDBRANCH 34 36
ENDBRANCH 23 32
ENDBRANCH 20 23
ENDBRANCH 18 19
BRANCH 18 39
ATOM     39  CB  SER D   3     -13.709  -1.639   9.058  1.00 47.59 LIG 0.20  C 
BRANCH 39 40
ATOM     40 OG   SER D   3     -14.637  -0.596   8.830  1.00 55.88 LIG-0.40  OA
ATOM     41 HG   SER D   3     -14.566  -0.326   8.037  1.00 55.88 LIG 0.21  HD
ENDBRANCH 39 40
ENDBRANCH 18 39
ENDBRANCH 16 18
ENDBRANCH 1 14
BRANCH 1 42
ATOM     42  N   ARG D   2      -9.839   0.454  10.803  1.00 24.62 LIG-0.35  N 
ATOM     43 H    ARG D   2     -10.368   0.325  10.137  1.00 24.62 LIG 0.16  HD
ATOM     44  C   PHE D   1      -8.606   0.909  10.697  1.00 23.06 LIG 0.25  C 
ATOM     45 O    PHE D   1      -7.870   1.078  11.665  1.00 27.40 LIG-0.27  OA
BRANCH 44 46
ATOM     46  CA  PHE D   1      -8.159   1.316   9.300  1.00 18.76 LIG 0.28  C 
BRANCH 46 47
ATOM     47  CB  PHE D   1      -7.122   2.437   9.287  1.00 12.58 LIG 0.08  C 
BRANCH 47 48
ATOM     48  CG  PHE D   1      -5.704   1.925   9.166  1.00 17.06 LIG-0.06  A 
ATOM     49  CD1 PHE D   1      -5.139   1.156  10.180  1.00 22.27 LIG 0.01  A 
ATOM     50  CE1 PHE D   1      -3.833   0.661  10.064  1.00 15.67 LIG 0.00  A 
ATOM     51  CZ  PHE D   1      -3.082   0.945   8.926  1.00 13.83 LIG 0.00  A 
ATOM     52  CE2 PHE D   1      -3.639   1.700   7.910  1.00 20.38 LIG 0.00  A 
ATOM     53  CD2 PHE D   1      -4.946   2.184   8.026  1.00 21.07 LIG 0.01  A 
ENDBRANCH 47 48
ENDBRANCH 46 47
BRANCH 46 54
ATOM     54  N   PHE D   1      -9.341   1.697   8.491  1.00 21.45 LIG-0.07  N 
ATOM     55 H2   PHE D   1     -10.082   1.421   8.900  1.00 21.45 LIG 0.28  HD
ATOM     56 H3   PHE D   1      -9.365   2.582   8.398  1.00 21.45 LIG 0.28  HD
ATOM     57 H1   PHE D   1      -9.287   1.317   7.688  1.00 21.45 LIG 0.28  HD
ENDBRANCH 46 54
ENDBRANCH 44 46
ENDBRANCH 1 42
TORSDOF 23
ENDMDL
MODEL 14
USER: ADFR SOLUTION from run 134
USER: SCORE 18.968097 LL:  -3.453 LR: -16.513 RR:   0.000 FEB:  -9.652
USER: RMSD 5.229856
USER: SEED 133
USER: STATUS searching
USER: GENES 25
USER: genes 0 Translation |==|  0.56187 0.64956 0.50292
USER: genes 1 Rotation |==|  0.65989 0.71570 0.27005 0.85360
USER: genes 2 Torsion [C]-CA--CB-[CG] |==|  0.81148
USER: genes 3 Torsion [CA]-CB--CG-[CD] |==|  0.57928
USER: genes 4 Torsion [CB]-CG--CD-[NE] |==|  0.02962
USER: genes 5 Torsion [CG]-CD--NE-[HE] |==|  0.05262
USER: genes 6 Torsion [N]-CA--C-[N] |==|  0.05596
USER: genes 7 Torsion [C]-N--CA-[C] |==|  0.75595
USER: genes 8 Torsion [N]-CA--C-[N] |==|  0.54982
USER: genes 9 Torsion [C]-N--CA-[CB] |==|  0.87741
USER: genes 10 Torsion [N]-CA--CB-[CG] |==|  0.41126
USER: genes 11 Torsion [CA]-CB--CG-[CD] |==|  0.63521
USER: genes 12 Torsion [CB]-CG--CD-[CE] |==|  0.31741
USER: genes 13 Torsion [CG]-CD--CE-[NZ] |==|  0.83997
USER: genes 14 Torsion [CD]-CE--NZ-[HZ2] |==|  0.02895
USER: genes 15 Torsion [N]-CA--C-[N] |==|  0.38265
USER: genes 16 Torsion [C]-N--CA-[C] |==|  0.77025
USER: genes 17 Torsion [N]-CA--C-[O] |==|  0.19915
USER: genes 18 Torsion [N]-CA--CB-[OG] |==|  0.74049
USER: genes 19 Torsion [CA]-CB--OG-[HG] |==|  0.42387
USER: genes 20 Torsion [CB]-CA--N-[C] |==|  0.17231
USER: genes 21 Torsion [N]-C--CA-[N] |==|  0.10520
USER: genes 22 Torsion [C]-CA--CB-[CG] |==|  0.23507
USER: genes 23 Torsion [CA]-CB--CG-[CD1] |==|  0.83191
USER: genes 24 Torsion [C]-CA--N-[H2] |==|  0.87928
ROOT
ATOM      1  CA  ARG D   2     -10.218   0.224  11.996  1.00 39.33 LIG 0.18  C 
ENDROOT
BRANCH 1 2
ATOM      2  CB  ARG D   2     -10.416   1.534  12.737  1.00 35.05 LIG 0.04  C 
BRANCH 2 3
ATOM      3  CG  ARG D   2     -11.232   2.520  11.945  1.00 57.88 LIG 0.02  C 
BRANCH 3 4
ATOM      4  CD  ARG D   2     -10.869   3.950  12.293  1.00 90.52 LIG 0.14  C 
BRANCH 4 5
ATOM      5  NE  ARG D   2      -9.661   4.027  13.114  1.00 84.14 LIG-0.23  N 
ATOM      6 HE   ARG D   2      -9.137   3.345  13.120  1.00 84.14 LIG 0.18  HD
ATOM      7  CZ  ARG D   2      -9.314   5.079  13.854  1.00 83.97 LIG 0.67  C 
ATOM      8  NH2 ARG D   2      -8.191   5.046  14.562  1.00 60.39 LIG-0.23  N 
ATOM      9  NH1 ARG D   2     -10.088   6.158  13.899  1.00 80.72 LIG-0.23  N 
ATOM     10 1HH2 ARG D   2      -7.690   4.346  14.542  1.00 60.39 LIG 0.17  HD
ATOM     11 2HH2 ARG D   2      -7.964   5.723  15.041  1.00 60.39 LIG 0.17  HD
ATOM     12 2HH1 ARG D   2      -9.857   6.834  14.379  1.00 80.72 LIG 0.17  HD
ATOM     13 1HH1 ARG D   2     -10.819   6.182  13.447  1.00 80.72 LIG 0.17  HD
ENDBRANCH 4 5
ENDBRANCH 3 4
ENDBRANCH 2 3
ENDBRANCH 1 2
BRANCH 1 14
ATOM     14  C   ARG D   2     -11.543  -0.500  11.882  1.00 29.38 LIG 0.24  C 
ATOM     15 O    ARG D   2     -12.340  -0.506  12.818  1.00 21.44 LIG-0.27  OA
ATOM     16  N   SER D   3     -11.787  -1.114  10.733  1.00 29.93 LIG-0.34  N 
ATOM     17 H    SER D   3     -11.280  -1.081  10.040  1.00 29.93 LIG 0.16  HD
BRANCH 16 18
ATOM     18  CA  SER D   3     -12.993  -1.916  10.587  1.00 48.61 LIG 0.20  C 
BRANCH 18 19
ATOM     19  C   SER D   3     -12.711  -3.332  11.052  1.00 58.83 LIG 0.24  C 
ATOM     20  N   LYS D   4     -13.568  -4.263  10.648  1.00 77.18 LIG-0.35  N 
ATOM     21 H    LYS D   4     -14.281  -4.100  10.195  1.00 77.18 LIG 0.16  HD
ATOM     22 O    SER D   3     -11.749  -3.575  11.780  1.00 53.61 LIG-0.27  OA
BRANCH 20 23
ATOM     23  CA  LYS D   4     -13.351  -5.669  10.957  1.00 70.35 LIG 0.18  C 
BRANCH 23 24
ATOM     24  CB  LYS D   4     -11.889  -6.057  10.720  1.00 80.12 LIG 0.04  C 
BRANCH 24 25
ATOM     25  CG  LYS D   4     -11.391  -7.143  11.664  1.00 84.36 LIG 0.00  C 
BRANCH 25 26
ATOM     26  CD  LYS D   4     -10.064  -6.793  12.306  1.00102.13 LIG 0.03  C 
BRANCH 26 27
ATOM     27  CE  LYS D   4     -10.224  -6.608  13.810  1.00 86.00 LIG 0.23  C 
BRANCH 27 28
ATOM     28  NZ  LYS D   4     -11.224  -5.558  14.142  1.00 85.97 LIG-0.08  N 
ATOM     29 HZ3  LYS D   4     -11.799  -5.875  14.744  1.00 85.97 LIG 0.27  HD
ATOM     30 HZ2  LYS D   4     -11.665  -5.324  13.406  1.00 85.97 LIG 0.27  HD
ATOM     31 HZ1  LYS D   4     -10.807  -4.846  14.476  1.00 85.97 LIG 0.27  HD
ENDBRANCH 27 28
ENDBRANCH 26 27
ENDBRANCH 25 26
ENDBRANCH 24 25
ENDBRANCH 23 24
BRANCH 23 32
ATOM     32  C   LYS D   4     -13.741  -5.890  12.409  1.00 69.25 LIG 0.24  C 
ATOM     33 O    LYS D   4     -13.411  -5.089  13.284  1.00 74.50 LIG-0.27  OA
ATOM     34  N   GLY D   5     -14.432  -6.999  12.658  1.00 72.69 LIG-0.35  N 
ATOM     35 H    GLY D   5     -14.693  -7.546  12.047  1.00 72.69 LIG 0.16  HD
BRANCH 34 36
ATOM     36  CA  GLY D   5     -14.810  -7.387  14.004  1.00 67.28 LIG 0.21  C 
BRANCH 36 37
ATOM     37  C   GLY D   5     -13.683  -8.105  14.720  1.00 69.64 LIG 0.21  C 
ATOM     38 O    GLY D   5     -12.683  -7.493  15.097  1.00 73.82 LIG-0.29  OA
ENDBRANCH 36 37
ENDBRANCH 34 36
ENDBRANCH 23 32
ENDBRANCH 20 23
ENDBRANCH 18 19
BRANCH 18 39
ATOM     39  CB  SER D   3     -13.458  -1.919   9.141  1.00 47.59 LIG 0.20  C 
BRANCH 39 40
ATOM     40 OG   SER D   3     -14.410  -0.894   8.934  1.00 55.88 LIG-0.40  OA
ATOM     41 HG   SER D   3     -14.387  -0.647   8.132  1.00 55.88 LIG 0.21  HD
ENDBRANCH 39 40
ENDBRANCH 18 39
ENDBRANCH 16 18
ENDBRANCH 1 14
BRANCH 1 42
ATOM     42  N   ARG D   2      -9.693   0.491  10.677  1.00 24.62 LIG-0.35  N 
ATOM     43 H    ARG D   2     -10.201   0.241  10.030  1.00 24.62 LIG 0.16  HD
ATOM     44  C   PHE D   1      -8.521   1.075  10.523  1.00 23.06 LIG 0.25  C 
ATOM     45 O    PHE D   1      -7.813   1.415  11.466  1.00 27.40 LIG-0.27  OA
BRANCH 44 46
ATOM     46  CA  PHE D   1      -8.119   1.403   9.091  1.00 18.76 LIG 0.28  C 
BRANCH 46 47
ATOM     47  CB  PHE D   1      -7.001   2.438   8.987  1.00 12.58 LIG 0.08  C 
BRANCH 47 48
ATOM     48  CG  PHE D   1      -5.622   1.829   9.109  1.00 17.06 LIG-0.06  A 
ATOM     49  CD1 PHE D   1      -5.249   1.146  10.264  1.00 22.27 LIG 0.01  A 
ATOM     50  CE1 PHE D   1      -3.980   0.561  10.375  1.00 15.67 LIG 0.00  A 
ATOM     51  CZ  PHE D   1      -3.073   0.667   9.323  1.00 13.83 LIG 0.00  A 
ATOM     52  CE2 PHE D   1      -3.440   1.334   8.168  1.00 20.38 LIG 0.00  A 
ATOM     53  CD2 PHE D   1      -4.711   1.908   8.059  1.00 21.07 LIG 0.01  A 
ENDBRANCH 47 48
ENDBRANCH 46 47
BRANCH 46 54
ATOM     54  N   PHE D   1      -9.310   1.851   8.331  1.00 21.45 LIG-0.07  N 
ATOM     55 H2   PHE D   1     -10.000   1.321   8.521  1.00 21.45 LIG 0.28  HD
ATOM     56 H3   PHE D   1      -9.509   2.689   8.557  1.00 21.45 LIG 0.28  HD
ATOM     57 H1   PHE D   1      -9.138   1.813   7.459  1.00 21.45 LIG 0.28  HD
ENDBRANCH 46 54
ENDBRANCH 44 46
ENDBRANCH 1 42
TORSDOF 23
ENDMDL
MODEL 15
USER: ADFR SOLUTION from run 10
USER: SCORE 17.990525 LL:  -2.679 LR: -16.391 RR:   0.000 FEB:  -9.530
USER: RMSD 7.871954
USER: SEED 971794
USER: STATUS no improvement in best in 5 clusters for 5 generations
USER: GENES 25
USER: genes 0 Translation |==|  0.54195 0.73553 0.48086
USER: genes 1 Rotation |==|  0.37606 0.03796 0.48117 0.64425
USER: genes 2 Torsion [C]-CA--CB-[CG] |==|  0.24661
USER: genes 3 Torsion [CA]-CB--CG-[CD] |==|  0.47910
USER: genes 4 Torsion [CB]-CG--CD-[NE] |==|  0.66208
USER: genes 5 Torsion [CG]-CD--NE-[HE] |==|  0.34593
USER: genes 6 Torsion [N]-CA--C-[N] |==|  0.54835
USER: genes 7 Torsion [C]-N--CA-[C] |==|  0.17068
USER: genes 8 Torsion [N]-CA--C-[N] |==|  0.10495
USER: genes 9 Torsion [C]-N--CA-[CB] |==|  0.86111
USER: genes 10 Torsion [N]-CA--CB-[CG] |==|  0.80275
USER: genes 11 Torsion [CA]-CB--CG-[CD] |==|  0.71883
USER: genes 12 Torsion [CB]-CG--CD-[CE] |==|  0.45341
USER: genes 13 Torsion [CG]-CD--CE-[NZ] |==|  0.76420
USER: genes 14 Torsion [CD]-CE--NZ-[HZ2] |==|  0.24186
USER: genes 15 Torsion [N]-CA--C-[N] |==|  0.34505
USER: genes 16 Torsion [C]-N--CA-[C] |==|  0.64300
USER: genes 17 Torsion [N]-CA--C-[O] |==|  0.00440
USER: genes 18 Torsion [N]-CA--CB-[OG] |==|  0.65956
USER: genes 19 Torsion [CA]-CB--OG-[HG] |==|  0.40591
USER: genes 20 Torsion [CB]-CA--N-[C] |==|  0.18719
USER: genes 21 Torsion [N]-C--CA-[N] |==|  0.58270
USER: genes 22 Torsion [C]-CA--CB-[CG] |==|  0.83139
USER: genes 23 Torsion [CA]-CB--CG-[CD1] |==|  0.27336
USER: genes 24 Torsion [C]-CA--N-[H2] |==|  0.28220
ROOT
ATOM      1  CA  ARG D   2     -10.652   1.964  11.549  1.00 39.33 LIG 0.18  C 
ENDROOT
BRANCH 1 2
ATOM      2  CB  ARG D   2      -9.189   1.560  11.577  1.00 35.05 LIG 0.04  C 
BRANCH 2 3
ATOM      3  CG  ARG D   2      -8.636   1.321  10.199  1.00 57.88 LIG 0.02  C 
BRANCH 3 4
ATOM      4  CD  ARG D   2      -7.136   1.098  10.230  1.00 90.52 LIG 0.14  C 
BRANCH 4 5
ATOM      5  NE  ARG D   2      -6.418   2.071   9.407  1.00 84.14 LIG-0.23  N 
ATOM      6 HE   ARG D   2      -5.801   2.536   9.785  1.00 84.14 LIG 0.18  HD
ATOM      7  CZ  ARG D   2      -6.653   2.288   8.114  1.00 83.97 LIG 0.67  C 
ATOM      8  NH2 ARG D   2      -5.939   3.195   7.457  1.00 60.39 LIG-0.23  N 
ATOM      9  NH1 ARG D   2      -7.603   1.611   7.477  1.00 80.72 LIG-0.23  N 
ATOM     10 1HH2 ARG D   2      -5.327   3.640   7.867  1.00 60.39 LIG 0.17  HD
ATOM     11 2HH2 ARG D   2      -6.089   3.338   6.623  1.00 60.39 LIG 0.17  HD
ATOM     12 2HH1 ARG D   2      -7.749   1.757   6.642  1.00 80.72 LIG 0.17  HD
ATOM     13 1HH1 ARG D   2      -8.072   1.028   7.900  1.00 80.72 LIG 0.17  HD
ENDBRANCH 4 5
ENDBRANCH 3 4
ENDBRANCH 2 3
ENDBRANCH 1 2
BRANCH 1 14
ATOM     14  C   ARG D   2     -11.522   0.727  11.595  1.00 29.38 LIG 0.24  C 
ATOM     15 O    ARG D   2     -12.527   0.689  12.301  1.00 21.44 LIG-0.27  OA
ATOM     16  N   SER D   3     -11.141  -0.294  10.841  1.00 29.93 LIG-0.34  N 
ATOM     17 H    SER D   3     -10.479  -0.282  10.293  1.00 29.93 LIG 0.16  HD
BRANCH 16 18
ATOM     18  CA  SER D   3     -11.868  -1.554  10.912  1.00 48.61 LIG 0.20  C 
BRANCH 18 19
ATOM     19  C   SER D   3     -13.306  -1.326  10.487  1.00 58.83 LIG 0.24  C 
ATOM     20  N   LYS D   4     -13.493  -0.470   9.489  1.00 77.18 LIG-0.35  N 
ATOM     21 H    LYS D   4     -12.865  -0.013   9.119  1.00 77.18 LIG 0.16  HD
ATOM     22 O    SER D   3     -14.230  -1.897  11.065  1.00 53.61 LIG-0.27  OA
BRANCH 20 23
ATOM     23  CA  LYS D   4     -14.820  -0.239   8.936  1.00 70.35 LIG 0.18  C 
BRANCH 23 24
ATOM     24  CB  LYS D   4     -15.507  -1.565   8.602  1.00 80.12 LIG 0.04  C 
BRANCH 24 25
ATOM     25  CG  LYS D   4     -14.899  -2.277   7.401  1.00 84.36 LIG 0.00  C 
BRANCH 25 26
ATOM     26  CD  LYS D   4     -15.717  -2.091   6.138  1.00102.13 LIG 0.03  C 
BRANCH 26 27
ATOM     27  CE  LYS D   4     -14.895  -2.447   4.906  1.00 86.00 LIG 0.23  C 
BRANCH 27 28
ATOM     28  NZ  LYS D   4     -14.065  -1.305   4.436  1.00 85.97 LIG-0.08  N 
ATOM     29 HZ3  LYS D   4     -13.920  -1.384   3.561  1.00 85.97 LIG 0.27  HD
ATOM     30 HZ2  LYS D   4     -13.287  -1.307   4.867  1.00 85.97 LIG 0.27  HD
ATOM     31 HZ1  LYS D   4     -14.492  -0.541   4.599  1.00 85.97 LIG 0.27  HD
ENDBRANCH 27 28
ENDBRANCH 26 27
ENDBRANCH 25 26
ENDBRANCH 24 25
ENDBRANCH 23 24
BRANCH 23 32
ATOM     32  C   LYS D   4     -15.622   0.542   9.965  1.00 69.25 LIG 0.24  C 
ATOM     33 O    LYS D   4     -15.780   0.109  11.107  1.00 74.50 LIG-0.27  OA
ATOM     34  N   GLY D   5     -16.142   1.689   9.540  1.00 72.69 LIG-0.35  N 
ATOM     35 H    GLY D   5     -16.008   2.012   8.754  1.00 72.69 LIG 0.16  HD
BRANCH 34 36
ATOM     36  CA  GLY D   5     -16.995   2.508  10.381  1.00 67.28 LIG 0.21  C 
BRANCH 36 37
ATOM     37  C   GLY D   5     -18.292   2.869   9.686  1.00 69.64 LIG 0.21  C 
ATOM     38 O    GLY D   5     -18.538   2.453   8.552  1.00 73.82 LIG-0.29  OA
ENDBRANCH 36 37
ENDBRANCH 34 36
ENDBRANCH 23 32
ENDBRANCH 20 23
ENDBRANCH 18 19
BRANCH 18 39
ATOM     39  CB  SER D   3     -11.818  -2.118  12.321  1.00 47.59 LIG 0.20  C 
BRANCH 39 40
ATOM     40 OG   SER D   3     -11.254  -3.415  12.306  1.00 55.88 LIG-0.40  OA
ATOM     41 HG   SER D   3     -10.814  -3.537  13.011  1.00 55.88 LIG 0.21  HD
ENDBRANCH 39 40
ENDBRANCH 18 39
ENDBRANCH 16 18
ENDBRANCH 1 14
BRANCH 1 42
ATOM     42  N   ARG D   2     -10.940   2.805  12.688  1.00 24.62 LIG-0.35  N 
ATOM     43 H    ARG D   2     -11.466   2.454  13.271  1.00 24.62 LIG 0.16  HD
ATOM     44  C   PHE D   1     -10.415   4.011  12.788  1.00 23.06 LIG 0.25  C 
ATOM     45 O    PHE D   1      -9.671   4.489  11.937  1.00 27.40 LIG-0.27  OA
BRANCH 44 46
ATOM     46  CA  PHE D   1     -10.702   4.762  14.081  1.00 18.76 LIG 0.28  C 
BRANCH 46 47
ATOM     47  CB  PHE D   1     -11.997   4.334  14.768  1.00 12.58 LIG 0.08  C 
BRANCH 47 48
ATOM     48  CG  PHE D   1     -13.221   4.560  13.908  1.00 17.06 LIG-0.06  A 
ATOM     49  CD1 PHE D   1     -13.778   3.514  13.177  1.00 22.27 LIG 0.01  A 
ATOM     50  CE1 PHE D   1     -14.924   3.712  12.396  1.00 15.67 LIG 0.00  A 
ATOM     51  CZ  PHE D   1     -15.515   4.973  12.339  1.00 13.83 LIG 0.00  A 
ATOM     52  CE2 PHE D   1     -14.975   6.015  13.070  1.00 20.38 LIG 0.00  A 
ATOM     53  CD2 PHE D   1     -13.836   5.809  13.856  1.00 21.07 LIG 0.01  A 
ENDBRANCH 47 48
ENDBRANCH 46 47
BRANCH 46 54
ATOM     54  N   PHE D   1     -10.718   6.221  13.815  1.00 21.45 LIG-0.07  N 
ATOM     55 H2   PHE D   1     -11.560   6.505  13.767  1.00 21.45 LIG 0.28  HD
ATOM     56 H3   PHE D   1     -10.298   6.647  14.474  1.00 21.45 LIG 0.28  HD
ATOM     57 H1   PHE D   1     -10.305   6.386  13.044  1.00 21.45 LIG 0.28  HD
ENDBRANCH 46 54
ENDBRANCH 44 46
ENDBRANCH 1 42
TORSDOF 23
ENDMDL
MODEL 16
USER: ADFR SOLUTION from run 128
USER: SCORE 16.539978 LL:  -2.064 LR: -16.388 RR:   0.000 FEB:  -9.527
USER: RMSD 8.179636
USER: SEED 127
USER: STATUS searching
USER: GENES 25
USER: genes 0 Translation |==|  0.53249 0.70208 0.43154
USER: genes 1 Rotation |==|  0.30470 0.04795 0.53935 0.57717
USER: genes 2 Torsion [C]-CA--CB-[CG] |==|  0.53628
USER: genes 3 Torsion [CA]-CB--CG-[CD] |==|  0.62253
USER: genes 4 Torsion [CB]-CG--CD-[NE] |==|  0.37274
USER: genes 5 Torsion [CG]-CD--NE-[HE] |==|  0.28773
USER: genes 6 Torsion [N]-CA--C-[N] |==|  0.46593
USER: genes 7 Torsion [C]-N--CA-[C] |==|  0.18237
USER: genes 8 Torsion [N]-CA--C-[N] |==|  0.21806
USER: genes 9 Torsion [C]-N--CA-[CB] |==|  0.24402
USER: genes 10 Torsion [N]-CA--CB-[CG] |==|  0.59810
USER: genes 11 Torsion [CA]-CB--CG-[CD] |==|  0.32128
USER: genes 12 Torsion [CB]-CG--CD-[CE] |==|  0.83707
USER: genes 13 Torsion [CG]-CD--CE-[NZ] |==|  0.24906
USER: genes 14 Torsion [CD]-CE--NZ-[HZ2] |==|  0.84298
USER: genes 15 Torsion [N]-CA--C-[N] |==|  0.84546
USER: genes 16 Torsion [C]-N--CA-[C] |==|  0.46823
USER: genes 17 Torsion [N]-CA--C-[O] |==|  0.12201
USER: genes 18 Torsion [N]-CA--CB-[OG] |==|  0.83786
USER: genes 19 Torsion [CA]-CB--OG-[HG] |==|  0.41900
USER: genes 20 Torsion [CB]-CA--N-[C] |==|  0.83333
USER: genes 21 Torsion [N]-C--CA-[N] |==|  0.16503
USER: genes 22 Torsion [C]-CA--CB-[CG] |==|  0.31524
USER: genes 23 Torsion [CA]-CB--CG-[CD1] |==|  0.52871
USER: genes 24 Torsion [C]-CA--N-[H2] |==|  0.30713
ROOT
ATOM      1  CA  ARG D   2     -10.857   1.287  10.551  1.00 39.33 LIG 0.18  C 
ENDROOT
BRANCH 1 2
ATOM      2  CB  ARG D   2      -9.550   0.665  11.009  1.00 35.05 LIG 0.04  C 
BRANCH 2 3
ATOM      3  CG  ARG D   2      -8.427   1.664  11.054  1.00 57.88 LIG 0.02  C 
BRANCH 3 4
ATOM      4  CD  ARG D   2      -7.153   1.098  10.457  1.00 90.52 LIG 0.14  C 
BRANCH 4 5
ATOM      5  NE  ARG D   2      -6.508   2.041   9.543  1.00 84.14 LIG-0.23  N 
ATOM      6 HE   ARG D   2      -5.813   2.460   9.827  1.00 84.14 LIG 0.18  HD
ATOM      7  CZ  ARG D   2      -6.921   2.296   8.303  1.00 83.97 LIG 0.67  C 
ATOM      8  NH2 ARG D   2      -6.259   3.171   7.554  1.00 60.39 LIG-0.23  N 
ATOM      9  NH1 ARG D   2      -7.997   1.691   7.811  1.00 80.72 LIG-0.23  N 
ATOM     10 1HH2 ARG D   2      -5.565   3.570   7.871  1.00 60.39 LIG 0.17  HD
ATOM     11 2HH2 ARG D   2      -6.523   3.338   6.753  1.00 60.39 LIG 0.17  HD
ATOM     12 2HH1 ARG D   2      -8.257   1.860   7.009  1.00 80.72 LIG 0.17  HD
ATOM     13 1HH1 ARG D   2      -8.432   1.129   8.294  1.00 80.72 LIG 0.17  HD
ENDBRANCH 4 5
ENDBRANCH 3 4
ENDBRANCH 2 3
ENDBRANCH 1 2
BRANCH 1 14
ATOM     14  C   ARG D   2     -11.999   0.333  10.830  1.00 29.38 LIG 0.24  C 
ATOM     15 O    ARG D   2     -12.806   0.563  11.728  1.00 21.44 LIG-0.27  OA
ATOM     16  N   SER D   3     -12.075  -0.743  10.062  1.00 29.93 LIG-0.34  N 
ATOM     17 H    SER D   3     -11.564  -0.906   9.389  1.00 29.93 LIG 0.16  HD
BRANCH 16 18
ATOM     18  CA  SER D   3     -13.082  -1.757  10.338  1.00 48.61 LIG 0.20  C 
BRANCH 18 19
ATOM     19  C   SER D   3     -14.461  -1.169  10.106  1.00 58.83 LIG 0.24  C 
ATOM     20  N   LYS D   4     -14.854  -1.079   8.841  1.00 77.18 LIG-0.35  N 
ATOM     21 H    LYS D   4     -14.361  -1.282   8.165  1.00 77.18 LIG 0.16  HD
ATOM     22 O    SER D   3     -15.147  -0.783  11.052  1.00 53.61 LIG-0.27  OA
BRANCH 20 23
ATOM     23  CA  LYS D   4     -16.191  -0.614   8.501  1.00 70.35 LIG 0.18  C 
BRANCH 23 24
ATOM     24  CB  LYS D   4     -16.220   0.911   8.372  1.00 80.12 LIG 0.04  C 
BRANCH 24 25
ATOM     25  CG  LYS D   4     -17.521   1.534   8.858  1.00 84.36 LIG 0.00  C 
BRANCH 25 26
ATOM     26  CD  LYS D   4     -17.323   2.430  10.065  1.00102.13 LIG 0.03  C 
BRANCH 26 27
ATOM     27  CE  LYS D   4     -16.707   1.650  11.219  1.00 86.00 LIG 0.23  C 
BRANCH 27 28
ATOM     28  NZ  LYS D   4     -15.220   1.685  11.189  1.00 85.97 LIG-0.08  N 
ATOM     29 HZ3  LYS D   4     -14.940   2.523  11.296  1.00 85.97 LIG 0.27  HD
ATOM     30 HZ2  LYS D   4     -14.931   1.373  10.408  1.00 85.97 LIG 0.27  HD
ATOM     31 HZ1  LYS D   4     -14.898   1.178  11.847  1.00 85.97 LIG 0.27  HD
ENDBRANCH 27 28
ENDBRANCH 26 27
ENDBRANCH 25 26
ENDBRANCH 24 25
ENDBRANCH 23 24
BRANCH 23 32
ATOM     32  C   LYS D   4     -16.592  -1.275   7.191  1.00 69.25 LIG 0.24  C 
ATOM     33 O    LYS D   4     -17.618  -1.949   7.110  1.00 74.50 LIG-0.27  OA
ATOM     34  N   GLY D   5     -15.757  -1.088   6.173  1.00 72.69 LIG-0.35  N 
ATOM     35 H    GLY D   5     -15.056  -0.592   6.215  1.00 72.69 LIG 0.16  HD
BRANCH 34 36
ATOM     36  CA  GLY D   5     -15.963  -1.717   4.882  1.00 67.28 LIG 0.21  C 
BRANCH 36 37
ATOM     37  C   GLY D   5     -15.049  -1.138   3.821  1.00 69.64 LIG 0.21  C 
ATOM     38 O    GLY D   5     -13.859  -0.927   4.060  1.00 73.82 LIG-0.29  OA
ENDBRANCH 36 37
ENDBRANCH 34 36
ENDBRANCH 23 32
ENDBRANCH 20 23
ENDBRANCH 18 19
BRANCH 18 39
ATOM     39  CB  SER D   3     -12.956  -2.257  11.767  1.00 47.59 LIG 0.20  C 
BRANCH 39 40
ATOM     40 OG   SER D   3     -11.664  -2.790  11.984  1.00 55.88 LIG-0.40  OA
ATOM     41 HG   SER D   3     -11.453  -2.695  12.791  1.00 55.88 LIG 0.21  HD
ENDBRANCH 39 40
ENDBRANCH 18 39
ENDBRANCH 16 18
ENDBRANCH 1 14
BRANCH 1 42
ATOM     42  N   ARG D   2     -11.073   2.527  11.259  1.00 24.62 LIG-0.35  N 
ATOM     43 H    ARG D   2     -11.133   3.223  10.757  1.00 24.62 LIG 0.16  HD
ATOM     44  C   PHE D   1     -11.166   2.547  12.574  1.00 23.06 LIG 0.25  C 
ATOM     45 O    PHE D   1     -11.070   1.539  13.267  1.00 27.40 LIG-0.27  OA
BRANCH 44 46
ATOM     46  CA  PHE D   1     -11.501   3.893  13.203  1.00 18.76 LIG 0.28  C 
BRANCH 46 47
ATOM     47  CB  PHE D   1     -11.512   3.875  14.729  1.00 12.58 LIG 0.08  C 
BRANCH 47 48
ATOM     48  CG  PHE D   1     -10.406   4.710  15.335  1.00 17.06 LIG-0.06  A 
ATOM     49  CD1 PHE D   1     -10.130   4.641  16.698  1.00 22.27 LIG 0.01  A 
ATOM     50  CE1 PHE D   1      -9.093   5.397  17.261  1.00 15.67 LIG 0.00  A 
ATOM     51  CZ  PHE D   1      -8.329   6.237  16.454  1.00 13.83 LIG 0.00  A 
ATOM     52  CE2 PHE D   1      -8.590   6.304  15.097  1.00 20.38 LIG 0.00  A 
ATOM     53  CD2 PHE D   1      -9.621   5.540  14.539  1.00 21.07 LIG 0.01  A 
ENDBRANCH 47 48
ENDBRANCH 46 47
BRANCH 46 54
ATOM     54  N   PHE D   1     -12.804   4.373  12.683  1.00 21.45 LIG-0.07  N 
ATOM     55 H2   PHE D   1     -13.411   4.345  13.333  1.00 21.45 LIG 0.28  HD
ATOM     56 H3   PHE D   1     -12.718   5.211  12.394  1.00 21.45 LIG 0.28  HD
ATOM     57 H1   PHE D   1     -13.066   3.853  12.011  1.00 21.45 LIG 0.28  HD
ENDBRANCH 46 54
ENDBRANCH 44 46
ENDBRANCH 1 42
TORSDOF 23
ENDMDL
MODEL 17
USER: ADFR SOLUTION from run 134
USER: SCORE 19.035666 LL:  -3.496 LR: -16.353 RR:   0.000 FEB:  -9.492
USER: RMSD 6.885007
USER: SEED 133
USER: STATUS searching
USER: GENES 25
USER: genes 0 Translation |==|  0.56732 0.64812 0.50437
USER: genes 1 Rotation |==|  0.64932 0.71880 0.27582 0.85996
USER: genes 2 Torsion [C]-CA--CB-[CG] |==|  0.79857
USER: genes 3 Torsion [CA]-CB--CG-[CD] |==|  0.57850
USER: genes 4 Torsion [CB]-CG--CD-[NE] |==|  0.03833
USER: genes 5 Torsion [CG]-CD--NE-[HE] |==|  0.05445
USER: genes 6 Torsion [N]-CA--C-[N] |==|  0.06598
USER: genes 7 Torsion [C]-N--CA-[C] |==|  0.15832
USER: genes 8 Torsion [N]-CA--C-[N] |==|  0.61231
USER: genes 9 Torsion [C]-N--CA-[CB] |==|  0.84987
USER: genes 10 Torsion [N]-CA--CB-[CG] |==|  0.40564
USER: genes 11 Torsion [CA]-CB--CG-[CD] |==|  0.63665
USER: genes 12 Torsion [CB]-CG--CD-[CE] |==|  0.31872
USER: genes 13 Torsion [CG]-CD--CE-[NZ] |==|  0.83723
USER: genes 14 Torsion [CD]-CE--NZ-[HZ2] |==|  0.03229
USER: genes 15 Torsion [N]-CA--C-[N] |==|  0.38405
USER: genes 16 Torsion [C]-N--CA-[C] |==|  0.78472
USER: genes 17 Torsion [N]-CA--C-[O] |==|  0.18442
USER: genes 18 Torsion [N]-CA--CB-[OG] |==|  0.90065
USER: genes 19 Torsion [CA]-CB--OG-[HG] |==|  0.37292
USER: genes 20 Torsion [CB]-CA--N-[C] |==|  0.17282
USER: genes 21 Torsion [N]-C--CA-[N] |==|  0.11431
USER: genes 22 Torsion [C]-CA--CB-[CG] |==|  0.22860
USER: genes 23 Torsion [CA]-CB--CG-[CD1] |==|  0.83653
USER: genes 24 Torsion [C]-CA--N-[H2] |==|  0.87938
ROOT
ATOM      1  CA  ARG D   2     -10.100   0.194  12.026  1.00 39.33 LIG 0.18  C 
ENDROOT
BRANCH 1 2
ATOM      2  CB  ARG D   2     -10.356   1.510  12.739  1.00 35.05 LIG 0.04  C 
BRANCH 2 3
ATOM      3  CG  ARG D   2     -11.133   2.478  11.889  1.00 57.88 LIG 0.02  C 
BRANCH 3 4
ATOM      4  CD  ARG D   2     -10.814   3.916  12.248  1.00 90.52 LIG 0.14  C 
BRANCH 4 5
ATOM      5  NE  ARG D   2      -9.618   4.021  13.084  1.00 84.14 LIG-0.23  N 
ATOM      6 HE   ARG D   2      -9.071   3.356  13.085  1.00 84.14 LIG 0.18  HD
ATOM      7  CZ  ARG D   2      -9.314   5.073  13.842  1.00 83.97 LIG 0.67  C 
ATOM      8  NH2 ARG D   2      -8.198   5.067  14.562  1.00 60.39 LIG-0.23  N 
ATOM      9  NH1 ARG D   2     -10.124   6.126  13.893  1.00 80.72 LIG-0.23  N 
ATOM     10 1HH2 ARG D   2      -7.674   4.385  14.537  1.00 60.39 LIG 0.17  HD
ATOM     11 2HH2 ARG D   2      -7.999   5.745  15.053  1.00 60.39 LIG 0.17  HD
ATOM     12 2HH1 ARG D   2      -9.921   6.801  14.385  1.00 80.72 LIG 0.17  HD
ATOM     13 1HH1 ARG D   2     -10.850   6.131  13.434  1.00 80.72 LIG 0.17  HD
ENDBRANCH 4 5
ENDBRANCH 3 4
ENDBRANCH 2 3
ENDBRANCH 1 2
BRANCH 1 14
ATOM     14  C   ARG D   2     -11.387  -0.597  11.941  1.00 29.38 LIG 0.24  C 
ATOM     15 O    ARG D   2     -12.205  -0.569  12.859  1.00 21.44 LIG-0.27  OA
ATOM     16  N   SER D   3     -11.577  -1.307  10.839  1.00 29.93 LIG-0.34  N 
ATOM     17 H    SER D   3     -11.055  -1.304  10.155  1.00 29.93 LIG 0.16  HD
BRANCH 16 18
ATOM     18  CA  SER D   3     -12.741  -2.174  10.731  1.00 48.61 LIG 0.20  C 
BRANCH 18 19
ATOM     19  C   SER D   3     -13.998  -1.351  10.932  1.00 58.83 LIG 0.24  C 
ATOM     20  N   LYS D   4     -14.958  -1.915  11.657  1.00 77.18 LIG-0.35  N 
ATOM     21 H    LYS D   4     -14.925  -2.718  11.963  1.00 77.18 LIG 0.16  HD
ATOM     22 O    SER D   3     -14.108  -0.236  10.424  1.00 53.61 LIG-0.27  OA
BRANCH 20 23
ATOM     23  CA  LYS D   4     -16.173  -1.187  11.992  1.00 70.35 LIG 0.18  C 
BRANCH 23 24
ATOM     24  CB  LYS D   4     -15.838   0.146  12.667  1.00 80.12 LIG 0.04  C 
BRANCH 24 25
ATOM     25  CG  LYS D   4     -16.820   1.259  12.328  1.00 84.36 LIG 0.00  C 
BRANCH 25 26
ATOM     26  CD  LYS D   4     -16.126   2.535  11.894  1.00102.13 LIG 0.03  C 
BRANCH 26 27
ATOM     27  CE  LYS D   4     -16.439   2.851  10.437  1.00 86.00 LIG 0.23  C 
BRANCH 27 28
ATOM     28  NZ  LYS D   4     -16.025   1.752   9.523  1.00 85.97 LIG-0.08  N 
ATOM     29 HZ3  LYS D   4     -16.694   1.559   8.968  1.00 85.97 LIG 0.27  HD
ATOM     30 HZ2  LYS D   4     -15.818   1.030  10.001  1.00 85.97 LIG 0.27  HD
ATOM     31 HZ1  LYS D   4     -15.314   2.009   9.053  1.00 85.97 LIG 0.27  HD
ENDBRANCH 27 28
ENDBRANCH 26 27
ENDBRANCH 25 26
ENDBRANCH 24 25
ENDBRANCH 23 24
BRANCH 23 32
ATOM     32  C   LYS D   4     -16.948  -0.960  10.704  1.00 69.25 LIG 0.24  C 
ATOM     33 O    LYS D   4     -16.374  -0.618   9.671  1.00 74.50 LIG-0.27  OA
ATOM     34  N   GLY D   5     -18.264  -1.138  10.785  1.00 72.69 LIG-0.35  N 
ATOM     35 H    GLY D   5     -18.666  -1.409  11.495  1.00 72.69 LIG 0.16  HD
BRANCH 34 36
ATOM     36  CA  GLY D   5     -19.146  -0.886   9.661  1.00 67.28 LIG 0.21  C 
BRANCH 36 37
ATOM     37  C   GLY D   5     -19.400   0.596   9.466  1.00 69.64 LIG 0.21  C 
ATOM     38 O    GLY D   5     -18.489   1.353   9.126  1.00 73.82 LIG-0.29  OA
ENDBRANCH 36 37
ENDBRANCH 34 36
ENDBRANCH 23 32
ENDBRANCH 20 23
ENDBRANCH 18 19
BRANCH 18 39
ATOM     39  CB  SER D   3     -12.670  -3.290  11.759  1.00 47.59 LIG 0.20  C 
BRANCH 39 40
ATOM     40 OG   SER D   3     -11.330  -3.704  11.937  1.00 55.88 LIG-0.40  OA
ATOM     41 HG   SER D   3     -11.165  -3.775  12.758  1.00 55.88 LIG 0.21  HD
ENDBRANCH 39 40
ENDBRANCH 18 39
ENDBRANCH 16 18
ENDBRANCH 1 14
BRANCH 1 42
ATOM     42  N   ARG D   2      -9.601   0.458  10.696  1.00 24.62 LIG-0.35  N 
ATOM     43 H    ARG D   2     -10.103   0.171  10.059  1.00 24.62 LIG 0.16  HD
ATOM     44  C   PHE D   1      -8.459   1.093  10.516  1.00 23.06 LIG 0.25  C 
ATOM     45 O    PHE D   1      -7.759   1.486  11.444  1.00 27.40 LIG-0.27  OA
BRANCH 44 46
ATOM     46  CA  PHE D   1      -8.088   1.409   9.073  1.00 18.76 LIG 0.28  C 
BRANCH 46 47
ATOM     47  CB  PHE D   1      -6.966   2.436   8.937  1.00 12.58 LIG 0.08  C 
BRANCH 47 48
ATOM     48  CG  PHE D   1      -5.590   1.826   9.088  1.00 17.06 LIG-0.06  A 
ATOM     49  CD1 PHE D   1      -5.236   1.155  10.256  1.00 22.27 LIG 0.01  A 
ATOM     50  CE1 PHE D   1      -3.970   0.570  10.394  1.00 15.67 LIG 0.00  A 
ATOM     51  CZ  PHE D   1      -3.046   0.664   9.356  1.00 13.83 LIG 0.00  A 
ATOM     52  CE2 PHE D   1      -3.393   1.320   8.189  1.00 20.38 LIG 0.00  A 
ATOM     53  CD2 PHE D   1      -4.661   1.894   8.053  1.00 21.07 LIG 0.01  A 
ENDBRANCH 47 48
ENDBRANCH 46 47
BRANCH 46 54
ATOM     54  N   PHE D   1      -9.293   1.860   8.337  1.00 21.45 LIG-0.07  N 
ATOM     55 H2   PHE D   1      -9.982   1.337   8.547  1.00 21.45 LIG 0.28  HD
ATOM     56 H3   PHE D   1      -9.480   2.701   8.562  1.00 21.45 LIG 0.28  HD
ATOM     57 H1   PHE D   1      -9.140   1.814   7.462  1.00 21.45 LIG 0.28  HD
ENDBRANCH 46 54
ENDBRANCH 44 46
ENDBRANCH 1 42
TORSDOF 23
ENDMDL
MODEL 18
USER: ADFR SOLUTION from run 41
USER: SCORE 17.381661 LL:  -2.224 LR: -16.337 RR:   0.000 FEB:  -9.476
USER: RMSD 7.911991
USER: SEED 40
USER: STATUS searching
USER: GENES 25
USER: genes 0 Translation |==|  0.55441 0.70140 0.43368
USER: genes 1 Rotation |==|  0.32119 0.04651 0.51940 0.60952
USER: genes 2 Torsion [C]-CA--CB-[CG] |==|  0.54516
USER: genes 3 Torsion [CA]-CB--CG-[CD] |==|  0.60425
USER: genes 4 Torsion [CB]-CG--CD-[NE] |==|  0.33757
USER: genes 5 Torsion [CG]-CD--NE-[HE] |==|  0.30060
USER: genes 6 Torsion [N]-CA--C-[N] |==|  0.19110
USER: genes 7 Torsion [C]-N--CA-[C] |==|  0.66403
USER: genes 8 Torsion [N]-CA--C-[N] |==|  0.34844
USER: genes 9 Torsion [C]-N--CA-[CB] |==|  0.54100
USER: genes 10 Torsion [N]-CA--CB-[CG] |==|  0.51516
USER: genes 11 Torsion [CA]-CB--CG-[CD] |==|  0.15834
USER: genes 12 Torsion [CB]-CG--CD-[CE] |==|  0.75390
USER: genes 13 Torsion [CG]-CD--CE-[NZ] |==|  0.34679
USER: genes 14 Torsion [CD]-CE--NZ-[HZ2] |==|  0.88942
USER: genes 15 Torsion [N]-CA--C-[N] |==|  0.28122
USER: genes 16 Torsion [C]-N--CA-[C] |==|  0.21721
USER: genes 17 Torsion [N]-CA--C-[O] |==|  0.01414
USER: genes 18 Torsion [N]-CA--CB-[OG] |==|  0.17796
USER: genes 19 Torsion [CA]-CB--OG-[HG] |==|  0.94346
USER: genes 20 Torsion [CB]-CA--N-[C] |==|  0.79444
USER: genes 21 Torsion [N]-C--CA-[N] |==|  0.00697
USER: genes 22 Torsion [C]-CA--CB-[CG] |==|  0.72931
USER: genes 23 Torsion [CA]-CB--CG-[CD1] |==|  0.73415
USER: genes 24 Torsion [C]-CA--N-[H2] |==|  0.55222
ROOT
ATOM      1  CA  ARG D   2     -10.381   1.273  10.594  1.00 39.33 LIG 0.18  C 
ENDROOT
BRANCH 1 2
ATOM      2  CB  ARG D   2      -9.017   0.656  10.848  1.00 35.05 LIG 0.04  C 
BRANCH 2 3
ATOM      3  CG  ARG D   2      -7.940   1.695  11.006  1.00 57.88 LIG 0.02  C 
BRANCH 3 4
ATOM      4  CD  ARG D   2      -6.637   1.247  10.373  1.00 90.52 LIG 0.14  C 
BRANCH 4 5
ATOM      5  NE  ARG D   2      -6.180   2.178   9.341  1.00 84.14 LIG-0.23  N 
ATOM      6 HE   ARG D   2      -5.495   2.666   9.518  1.00 84.14 LIG 0.18  HD
ATOM      7  CZ  ARG D   2      -6.749   2.322   8.145  1.00 83.97 LIG 0.67  C 
ATOM      8  NH2 ARG D   2      -6.251   3.195   7.278  1.00 60.39 LIG-0.23  N 
ATOM      9  NH1 ARG D   2      -7.819   1.605   7.816  1.00 80.72 LIG-0.23  N 
ATOM     10 1HH2 ARG D   2      -5.563   3.666   7.489  1.00 60.39 LIG 0.17  HD
ATOM     11 2HH2 ARG D   2      -6.617   3.290   6.506  1.00 60.39 LIG 0.17  HD
ATOM     12 2HH1 ARG D   2      -8.181   1.703   7.042  1.00 80.72 LIG 0.17  HD
ATOM     13 1HH1 ARG D   2      -8.149   1.043   8.376  1.00 80.72 LIG 0.17  HD
ENDBRANCH 4 5
ENDBRANCH 3 4
ENDBRANCH 2 3
ENDBRANCH 1 2
BRANCH 1 14
ATOM     14  C   ARG D   2     -11.459   0.241  10.841  1.00 29.38 LIG 0.24  C 
ATOM     15 O    ARG D   2     -11.187  -0.845  11.348  1.00 21.44 LIG-0.27  OA
ATOM     16  N   SER D   3     -12.691   0.572  10.484  1.00 29.93 LIG-0.34  N 
ATOM     17 H    SER D   3     -12.927   1.342  10.182  1.00 29.93 LIG 0.16  HD
BRANCH 16 18
ATOM     18  CA  SER D   3     -13.762  -0.408  10.594  1.00 48.61 LIG 0.20  C 
BRANCH 18 19
ATOM     19  C   SER D   3     -14.381  -0.629   9.227  1.00 58.83 LIG 0.24  C 
ATOM     20  N   LYS D   4     -14.424  -1.886   8.801  1.00 77.18 LIG-0.35  N 
ATOM     21 H    LYS D   4     -14.082  -2.553   9.224  1.00 77.18 LIG 0.16  HD
ATOM     22 O    SER D   3     -14.790   0.321   8.562  1.00 53.61 LIG-0.27  OA
BRANCH 20 23
ATOM     23  CA  LYS D   4     -15.074  -2.231   7.545  1.00 70.35 LIG 0.18  C 
BRANCH 23 24
ATOM     24  CB  LYS D   4     -15.312  -3.741   7.454  1.00 80.12 LIG 0.04  C 
BRANCH 24 25
ATOM     25  CG  LYS D   4     -15.870  -4.185   6.108  1.00 84.36 LIG 0.00  C 
BRANCH 25 26
ATOM     26  CD  LYS D   4     -14.984  -3.780   4.947  1.00102.13 LIG 0.03  C 
BRANCH 26 27
ATOM     27  CE  LYS D   4     -15.355  -2.390   4.445  1.00 86.00 LIG 0.23  C 
BRANCH 27 28
ATOM     28  NZ  LYS D   4     -14.189  -1.466   4.437  1.00 85.97 LIG-0.08  N 
ATOM     29 HZ3  LYS D   4     -13.694  -1.618   3.713  1.00 85.97 LIG 0.27  HD
ATOM     30 HZ2  LYS D   4     -13.697  -1.602   5.166  1.00 85.97 LIG 0.27  HD
ATOM     31 HZ1  LYS D   4     -14.478  -0.624   4.428  1.00 85.97 LIG 0.27  HD
ENDBRANCH 27 28
ENDBRANCH 26 27
ENDBRANCH 25 26
ENDBRANCH 24 25
ENDBRANCH 23 24
BRANCH 23 32
ATOM     32  C   LYS D   4     -16.390  -1.472   7.481  1.00 69.25 LIG 0.24  C 
ATOM     33 O    LYS D   4     -17.383  -1.871   8.089  1.00 74.50 LIG-0.27  OA
ATOM     34  N   GLY D   5     -16.389  -0.381   6.719  1.00 72.69 LIG-0.35  N 
ATOM     35 H    GLY D   5     -15.690  -0.080   6.318  1.00 72.69 LIG 0.16  HD
BRANCH 34 36
ATOM     36  CA  GLY D   5     -17.588   0.405   6.497  1.00 67.28 LIG 0.21  C 
BRANCH 36 37
ATOM     37  C   GLY D   5     -17.901   1.299   7.680  1.00 69.64 LIG 0.21  C 
ATOM     38 O    GLY D   5     -17.129   1.373   8.637  1.00 73.82 LIG-0.29  OA
ENDBRANCH 36 37
ENDBRANCH 34 36
ENDBRANCH 23 32
ENDBRANCH 20 23
ENDBRANCH 18 19
BRANCH 18 39
ATOM     39  CB  SER D   3     -14.817   0.065  11.580  1.00 47.59 LIG 0.20  C 
BRANCH 39 40
ATOM     40 OG   SER D   3     -15.436   1.243  11.101  1.00 55.88 LIG-0.40  OA
ATOM     41 HG   SER D   3     -14.940   1.609  10.531  1.00 55.88 LIG 0.21  HD
ENDBRANCH 39 40
ENDBRANCH 18 39
ENDBRANCH 16 18
ENDBRANCH 1 14
BRANCH 1 42
ATOM     42  N   ARG D   2     -10.571   2.399  11.479  1.00 24.62 LIG-0.35  N 
ATOM     43 H    ARG D   2     -10.512   3.169  11.100  1.00 24.62 LIG 0.16  HD
ATOM     44  C   PHE D   1     -10.816   2.216  12.762  1.00 23.06 LIG 0.25  C 
ATOM     45 O    PHE D   1     -10.889   1.105  13.277  1.00 27.40 LIG-0.27  OA
BRANCH 44 46
ATOM     46  CA  PHE D   1     -11.106   3.471  13.574  1.00 18.76 LIG 0.28  C 
BRANCH 46 47
ATOM     47  CB  PHE D   1     -12.412   3.405  14.364  1.00 12.58 LIG 0.08  C 
BRANCH 47 48
ATOM     48  CG  PHE D   1     -13.562   4.087  13.655  1.00 17.06 LIG-0.06  A 
ATOM     49  CD1 PHE D   1     -13.898   5.404  13.953  1.00 22.27 LIG 0.01  A 
ATOM     50  CE1 PHE D   1     -14.948   6.048  13.285  1.00 15.67 LIG 0.00  A 
ATOM     51  CZ  PHE D   1     -15.674   5.363  12.313  1.00 13.83 LIG 0.00  A 
ATOM     52  CE2 PHE D   1     -15.340   4.058  12.003  1.00 20.38 LIG 0.00  A 
ATOM     53  CD2 PHE D   1     -14.285   3.423  12.667  1.00 21.07 LIG 0.01  A 
ENDBRANCH 47 48
ENDBRANCH 46 47
BRANCH 46 54
ATOM     54  N   PHE D   1     -11.103   4.654  12.681  1.00 21.45 LIG-0.07  N 
ATOM     55 H2   PHE D   1     -10.999   5.392  13.166  1.00 21.45 LIG 0.28  HD
ATOM     56 H3   PHE D   1     -10.432   4.584  12.099  1.00 21.45 LIG 0.28  HD
ATOM     57 H1   PHE D   1     -11.875   4.695  12.240  1.00 21.45 LIG 0.28  HD
ENDBRANCH 46 54
ENDBRANCH 44 46
ENDBRANCH 1 42
TORSDOF 23
ENDMDL
MODEL 19
USER: ADFR SOLUTION from run 103
USER: SCORE 16.117605 LL:  -2.251 LR: -16.296 RR:   0.000 FEB:  -9.435
USER: RMSD 6.972057
USER: SEED 102
USER: STATUS no improvement in best in 5 clusters for 5 generations
USER: GENES 25
USER: genes 0 Translation |==|  0.45947 0.63098 0.51763
USER: genes 1 Rotation |==|  0.75275 0.65529 0.31949 0.85974
USER: genes 2 Torsion [C]-CA--CB-[CG] |==|  0.77480
USER: genes 3 Torsion [CA]-CB--CG-[CD] |==|  0.53713
USER: genes 4 Torsion [CB]-CG--CD-[NE] |==|  0.34536
USER: genes 5 Torsion [CG]-CD--NE-[HE] |==|  0.16223
USER: genes 6 Torsion [N]-CA--C-[N] |==|  0.84904
USER: genes 7 Torsion [C]-N--CA-[C] |==|  0.79812
USER: genes 8 Torsion [N]-CA--C-[N] |==|  0.46940
USER: genes 9 Torsion [C]-N--CA-[CB] |==|  0.35013
USER: genes 10 Torsion [N]-CA--CB-[CG] |==|  0.39778
USER: genes 11 Torsion [CA]-CB--CG-[CD] |==|  0.22222
USER: genes 12 Torsion [CB]-CG--CD-[CE] |==|  0.47919
USER: genes 13 Torsion [CG]-CD--CE-[NZ] |==|  0.83124
USER: genes 14 Torsion [CD]-CE--NZ-[HZ2] |==|  0.04764
USER: genes 15 Torsion [N]-CA--C-[N] |==|  0.31037
USER: genes 16 Torsion [C]-N--CA-[C] |==|  0.39494
USER: genes 17 Torsion [N]-CA--C-[O] |==|  0.07047
USER: genes 18 Torsion [N]-CA--CB-[OG] |==|  0.88337
USER: genes 19 Torsion [CA]-CB--OG-[HG] |==|  0.14227
USER: genes 20 Torsion [CB]-CA--N-[C] |==|  0.19453
USER: genes 21 Torsion [N]-C--CA-[N] |==|  0.36577
USER: genes 22 Torsion [C]-CA--CB-[CG] |==|  0.54824
USER: genes 23 Torsion [CA]-CB--CG-[CD1] |==|  0.32786
USER: genes 24 Torsion [C]-CA--N-[H2] |==|  0.75040
ROOT
ATOM      1  CA  ARG D   2     -12.446  -0.153  12.294  1.00 39.33 LIG 0.18  C 
ENDROOT
BRANCH 1 2
ATOM      2  CB  ARG D   2     -12.884   0.994  13.188  1.00 35.05 LIG 0.04  C 
BRANCH 2 3
ATOM      3  CG  ARG D   2     -12.957   2.300  12.447  1.00 57.88 LIG 0.02  C 
BRANCH 3 4
ATOM      4  CD  ARG D   2     -13.074   3.475  13.398  1.00 90.52 LIG 0.14  C 
BRANCH 4 5
ATOM      5  NE  ARG D   2     -12.017   4.464  13.183  1.00 84.14 LIG-0.23  N 
ATOM      6 HE   ARG D   2     -11.955   4.819  12.402  1.00 84.14 LIG 0.18  HD
ATOM      7  CZ  ARG D   2     -11.145   4.853  14.112  1.00 83.97 LIG 0.67  C 
ATOM      8  NH2 ARG D   2     -10.224   5.762  13.812  1.00 60.39 LIG-0.23  N 
ATOM      9  NH1 ARG D   2     -11.181   4.332  15.334  1.00 80.72 LIG-0.23  N 
ATOM     10 1HH2 ARG D   2     -10.193   6.098  13.020  1.00 60.39 LIG 0.17  HD
ATOM     11 2HH2 ARG D   2      -9.660   6.015  14.409  1.00 60.39 LIG 0.17  HD
ATOM     12 2HH1 ARG D   2     -10.615   4.588  15.928  1.00 80.72 LIG 0.17  HD
ATOM     13 1HH1 ARG D   2     -11.771   3.738  15.530  1.00 80.72 LIG 0.17  HD
ENDBRANCH 4 5
ENDBRANCH 3 4
ENDBRANCH 2 3
ENDBRANCH 1 2
BRANCH 1 14
ATOM     14  C   ARG D   2     -13.630  -0.657  11.498  1.00 29.38 LIG 0.24  C 
ATOM     15 O    ARG D   2     -14.076  -1.787  11.680  1.00 21.44 LIG-0.27  OA
ATOM     16  N   SER D   3     -14.147   0.179  10.610  1.00 29.93 LIG-0.34  N 
ATOM     17 H    SER D   3     -13.899   0.995  10.497  1.00 29.93 LIG 0.16  HD
BRANCH 16 18
ATOM     18  CA  SER D   3     -15.220  -0.272   9.734  1.00 48.61 LIG 0.20  C 
BRANCH 18 19
ATOM     19  C   SER D   3     -14.653  -1.219   8.695  1.00 58.83 LIG 0.24  C 
ATOM     20  N   LYS D   4     -15.539  -1.890   7.968  1.00 77.18 LIG-0.35  N 
ATOM     21 H    LYS D   4     -16.390  -1.854   8.089  1.00 77.18 LIG 0.16  HD
ATOM     22 O    SER D   3     -13.437  -1.358   8.568  1.00 53.61 LIG-0.27  OA
BRANCH 20 23
ATOM     23  CA  LYS D   4     -15.115  -2.759   6.881  1.00 70.35 LIG 0.18  C 
BRANCH 23 24
ATOM     24  CB  LYS D   4     -15.694  -4.166   7.053  1.00 80.12 LIG 0.04  C 
BRANCH 24 25
ATOM     25  CG  LYS D   4     -16.088  -4.824   5.738  1.00 84.36 LIG 0.00  C 
BRANCH 25 26
ATOM     26  CD  LYS D   4     -14.901  -5.412   5.001  1.00102.13 LIG 0.03  C 
BRANCH 26 27
ATOM     27  CE  LYS D   4     -15.361  -6.216   3.792  1.00 86.00 LIG 0.23  C 
BRANCH 27 28
ATOM     28  NZ  LYS D   4     -16.238  -7.355   4.175  1.00 85.97 LIG-0.08  N 
ATOM     29 HZ3  LYS D   4     -16.924  -7.404   3.610  1.00 85.97 LIG 0.27  HD
ATOM     30 HZ2  LYS D   4     -16.542  -7.230   5.002  1.00 85.97 LIG 0.27  HD
ATOM     31 HZ1  LYS D   4     -15.771  -8.112   4.143  1.00 85.97 LIG 0.27  HD
ENDBRANCH 27 28
ENDBRANCH 26 27
ENDBRANCH 25 26
ENDBRANCH 24 25
ENDBRANCH 23 24
BRANCH 23 32
ATOM     32  C   LYS D   4     -15.588  -2.136   5.577  1.00 69.25 LIG 0.24  C 
ATOM     33 O    LYS D   4     -16.785  -2.092   5.294  1.00 74.50 LIG-0.27  OA
ATOM     34  N   GLY D   5     -14.630  -1.673   4.779  1.00 72.69 LIG-0.35  N 
ATOM     35 H    GLY D   5     -13.796  -1.672   4.986  1.00 72.69 LIG 0.16  HD
BRANCH 34 36
ATOM     36  CA  GLY D   5     -14.919  -1.121   3.469  1.00 67.28 LIG 0.21  C 
BRANCH 36 37
ATOM     37  C   GLY D   5     -14.034   0.069   3.153  1.00 69.64 LIG 0.21  C 
ATOM     38 O    GLY D   5     -12.931   0.195   3.687  1.00 73.82 LIG-0.29  OA
ENDBRANCH 36 37
ENDBRANCH 34 36
ENDBRANCH 23 32
ENDBRANCH 20 23
ENDBRANCH 18 19
BRANCH 18 39
ATOM     39  CB  SER D   3     -15.889   0.913   9.059  1.00 47.59 LIG 0.20  C 
BRANCH 39 40
ATOM     40 OG   SER D   3     -16.064   1.966   9.986  1.00 55.88 LIG-0.40  OA
ATOM     41 HG   SER D   3     -15.335   2.125  10.372  1.00 55.88 LIG 0.21  HD
ENDBRANCH 39 40
ENDBRANCH 18 39
ENDBRANCH 16 18
ENDBRANCH 1 14
BRANCH 1 42
ATOM     42  N   ARG D   2     -11.413   0.307  11.395  1.00 24.62 LIG-0.35  N 
ATOM     43 H    ARG D   2     -11.653   0.366  10.571  1.00 24.62 LIG 0.16  HD
ATOM     44  C   PHE D   1     -10.209   0.603  11.843  1.00 23.06 LIG 0.25  C 
ATOM     45 O    PHE D   1      -9.892   0.503  13.025  1.00 27.40 LIG-0.27  OA
BRANCH 44 46
ATOM     46  CA  PHE D   1      -9.236   1.179  10.823  1.00 18.76 LIG 0.28  C 
BRANCH 46 47
ATOM     47  CB  PHE D   1      -8.180   0.183  10.349  1.00 12.58 LIG 0.08  C 
BRANCH 47 48
ATOM     48  CG  PHE D   1      -6.998   0.853   9.683  1.00 17.06 LIG-0.06  A 
ATOM     49  CD1 PHE D   1      -5.720   0.735  10.221  1.00 22.27 LIG 0.01  A 
ATOM     50  CE1 PHE D   1      -4.618   1.335   9.597  1.00 15.67 LIG 0.00  A 
ATOM     51  CZ  PHE D   1      -4.799   2.069   8.426  1.00 13.83 LIG 0.00  A 
ATOM     52  CE2 PHE D   1      -6.064   2.182   7.879  1.00 20.38 LIG 0.00  A 
ATOM     53  CD2 PHE D   1      -7.159   1.573   8.501  1.00 21.07 LIG 0.01  A 
ENDBRANCH 47 48
ENDBRANCH 46 47
BRANCH 46 54
ATOM     54  N   PHE D   1      -8.589   2.390  11.382  1.00 21.45 LIG-0.07  N 
ATOM     55 H2   PHE D   1      -9.075   3.107  11.178  1.00 21.45 LIG 0.28  HD
ATOM     56 H3   PHE D   1      -8.530   2.314  12.267  1.00 21.45 LIG 0.28  HD
ATOM     57 H1   PHE D   1      -7.773   2.477  11.037  1.00 21.45 LIG 0.28  HD
ENDBRANCH 46 54
ENDBRANCH 44 46
ENDBRANCH 1 42
TORSDOF 23
ENDMDL
MODEL 20
USER: ADFR SOLUTION from run 41
USER: SCORE 17.215066 LL:  -2.636 LR: -16.252 RR:   0.000 FEB:  -9.391
USER: RMSD 7.590693
USER: SEED 40
USER: STATUS searching
USER: GENES 25
USER: genes 0 Translation |==|  0.56783 0.68836 0.44446
USER: genes 1 Rotation |==|  0.30918 0.04089 0.54437 0.52896
USER: genes 2 Torsion [C]-CA--CB-[CG] |==|  0.47348
USER: genes 3 Torsion [CA]-CB--CG-[CD] |==|  0.72307
USER: genes 4 Torsion [CB]-CG--CD-[NE] |==|  0.40473
USER: genes 5 Torsion [CG]-CD--NE-[HE] |==|  0.25553
USER: genes 6 Torsion [N]-CA--C-[N] |==|  0.09197
USER: genes 7 Torsion [C]-N--CA-[C] |==|  0.70745
USER: genes 8 Torsion [N]-CA--C-[N] |==|  0.34690
USER: genes 9 Torsion [C]-N--CA-[CB] |==|  0.53340
USER: genes 10 Torsion [N]-CA--CB-[CG] |==|  0.48709
USER: genes 11 Torsion [CA]-CB--CG-[CD] |==|  0.20058
USER: genes 12 Torsion [CB]-CG--CD-[CE] |==|  0.72704
USER: genes 13 Torsion [CG]-CD--CE-[NZ] |==|  0.32543
USER: genes 14 Torsion [CD]-CE--NZ-[HZ2] |==|  0.92379
USER: genes 15 Torsion [N]-CA--C-[N] |==|  0.30556
USER: genes 16 Torsion [C]-N--CA-[C] |==|  0.16833
USER: genes 17 Torsion [N]-CA--C-[O] |==|  0.10055
USER: genes 18 Torsion [N]-CA--CB-[OG] |==|  0.08949
USER: genes 19 Torsion [CA]-CB--OG-[HG] |==|  0.11818
USER: genes 20 Torsion [CB]-CA--N-[C] |==|  0.81654
USER: genes 21 Torsion [N]-C--CA-[N] |==|  0.19090
USER: genes 22 Torsion [C]-CA--CB-[CG] |==|  0.28920
USER: genes 23 Torsion [CA]-CB--CG-[CD1] |==|  0.04053
USER: genes 24 Torsion [C]-CA--N-[H2] |==|  0.60173
ROOT
ATOM      1  CA  ARG D   2     -10.089   1.009  10.812  1.00 39.33 LIG 0.18  C 
ENDROOT
BRANCH 1 2
ATOM      2  CB  ARG D   2      -8.857   0.497  11.537  1.00 35.05 LIG 0.04  C 
BRANCH 2 3
ATOM      3  CG  ARG D   2      -7.630   1.308  11.219  1.00 57.88 LIG 0.02  C 
BRANCH 3 4
ATOM      4  CD  ARG D   2      -6.767   0.627  10.175  1.00 90.52 LIG 0.14  C 
BRANCH 4 5
ATOM      5  NE  ARG D   2      -6.106   1.591   9.294  1.00 84.14 LIG-0.23  N 
ATOM      6 HE   ARG D   2      -5.320   1.860   9.515  1.00 84.14 LIG 0.18  HD
ATOM      7  CZ  ARG D   2      -6.637   2.080   8.175  1.00 83.97 LIG 0.67  C 
ATOM      8  NH2 ARG D   2      -5.949   2.950   7.445  1.00 60.39 LIG-0.23  N 
ATOM      9  NH1 ARG D   2      -7.854   1.713   7.787  1.00 80.72 LIG-0.23  N 
ATOM     10 1HH2 ARG D   2      -5.163   3.196   7.695  1.00 60.39 LIG 0.17  HD
ATOM     11 2HH2 ARG D   2      -6.288   3.268   6.722  1.00 60.39 LIG 0.17  HD
ATOM     12 2HH1 ARG D   2      -8.189   2.034   7.063  1.00 80.72 LIG 0.17  HD
ATOM     13 1HH1 ARG D   2      -8.305   1.155   8.260  1.00 80.72 LIG 0.17  HD
ENDBRANCH 4 5
ENDBRANCH 3 4
ENDBRANCH 2 3
ENDBRANCH 1 2
BRANCH 1 14
ATOM     14  C   ARG D   2     -11.225   0.024  10.984  1.00 29.38 LIG 0.24  C 
ATOM     15 O    ARG D   2     -10.999  -1.169  11.178  1.00 21.44 LIG-0.27  OA
ATOM     16  N   SER D   3     -12.453   0.515  10.914  1.00 29.93 LIG-0.34  N 
ATOM     17 H    SER D   3     -12.646   1.349  10.837  1.00 29.93 LIG 0.16  HD
BRANCH 16 18
ATOM     18  CA  SER D   3     -13.594  -0.387  10.965  1.00 48.61 LIG 0.20  C 
BRANCH 18 19
ATOM     19  C   SER D   3     -14.190  -0.520   9.576  1.00 58.83 LIG 0.24  C 
ATOM     20  N   LYS D   4     -14.302  -1.755   9.103  1.00 77.18 LIG-0.35  N 
ATOM     21 H    LYS D   4     -14.015  -2.458   9.509  1.00 77.18 LIG 0.16  HD
ATOM     22 O    SER D   3     -14.521   0.478   8.937  1.00 53.61 LIG-0.27  OA
BRANCH 20 23
ATOM     23  CA  LYS D   4     -14.940  -2.014   7.821  1.00 70.35 LIG 0.18  C 
BRANCH 23 24
ATOM     24  CB  LYS D   4     -15.210  -3.509   7.639  1.00 80.12 LIG 0.04  C 
BRANCH 24 25
ATOM     25  CG  LYS D   4     -15.978  -3.836   6.366  1.00 84.36 LIG 0.00  C 
BRANCH 25 26
ATOM     26  CD  LYS D   4     -15.134  -3.672   5.118  1.00102.13 LIG 0.03  C 
BRANCH 26 27
ATOM     27  CE  LYS D   4     -15.401  -2.324   4.459  1.00 86.00 LIG 0.23  C 
BRANCH 27 28
ATOM     28  NZ  LYS D   4     -14.189  -1.461   4.437  1.00 85.97 LIG-0.08  N 
ATOM     29 HZ3  LYS D   4     -13.752  -1.583   3.671  1.00 85.97 LIG 0.27  HD
ATOM     30 HZ2  LYS D   4     -13.659  -1.676   5.118  1.00 85.97 LIG 0.27  HD
ATOM     31 HZ1  LYS D   4     -14.432  -0.607   4.508  1.00 85.97 LIG 0.27  HD
ENDBRANCH 27 28
ENDBRANCH 26 27
ENDBRANCH 25 26
ENDBRANCH 24 25
ENDBRANCH 23 24
BRANCH 23 32
ATOM     32  C   LYS D   4     -16.238  -1.222   7.781  1.00 69.25 LIG 0.24  C 
ATOM     33 O    LYS D   4     -17.199  -1.545   8.478  1.00 74.50 LIG-0.27  OA
ATOM     34  N   GLY D   5     -16.258  -0.191   6.941  1.00 72.69 LIG-0.35  N 
ATOM     35 H    GLY D   5     -15.579   0.060   6.476  1.00 72.69 LIG 0.16  HD
BRANCH 34 36
ATOM     36  CA  GLY D   5     -17.448   0.613   6.735  1.00 67.28 LIG 0.21  C 
BRANCH 36 37
ATOM     37  C   GLY D   5     -17.906   1.279   8.018  1.00 69.64 LIG 0.21  C 
ATOM     38 O    GLY D   5     -17.087   1.693   8.841  1.00 73.82 LIG-0.29  OA
ENDBRANCH 36 37
ENDBRANCH 34 36
ENDBRANCH 23 32
ENDBRANCH 20 23
ENDBRANCH 18 19
BRANCH 18 39
ATOM     39  CB  SER D   3     -14.638   0.131  11.939  1.00 47.59 LIG 0.20  C 
BRANCH 39 40
ATOM     40 OG   SER D   3     -14.630   1.545  11.954  1.00 55.88 LIG-0.40  OA
ATOM     41 HG   SER D   3     -14.564   1.834  11.168  1.00 55.88 LIG 0.21  HD
ENDBRANCH 39 40
ENDBRANCH 18 39
ENDBRANCH 16 18
ENDBRANCH 1 14
BRANCH 1 42
ATOM     42  N   ARG D   2     -10.469   2.292  11.357  1.00 24.62 LIG-0.35  N 
ATOM     43 H    ARG D   2     -10.391   2.953  10.813  1.00 24.62 LIG 0.16  HD
ATOM     44  C   PHE D   1     -10.899   2.397  12.600  1.00 23.06 LIG 0.25  C 
ATOM     45 O    PHE D   1     -10.995   1.437  13.358  1.00 27.40 LIG-0.27  OA
BRANCH 44 46
ATOM     46  CA  PHE D   1     -11.373   3.779  13.030  1.00 18.76 LIG 0.28  C 
BRANCH 46 47
ATOM     47  CB  PHE D   1     -11.564   3.922  14.539  1.00 12.58 LIG 0.08  C 
BRANCH 47 48
ATOM     48  CG  PHE D   1     -10.449   4.702  15.200  1.00 17.06 LIG-0.06  A 
ATOM     49  CD1 PHE D   1      -9.563   5.458  14.438  1.00 22.27 LIG 0.01  A 
ATOM     50  CE1 PHE D   1      -8.542   6.200  15.047  1.00 15.67 LIG 0.00  A 
ATOM     51  CZ  PHE D   1      -8.401   6.179  16.433  1.00 13.83 LIG 0.00  A 
ATOM     52  CE2 PHE D   1      -9.284   5.439  17.198  1.00 20.38 LIG 0.00  A 
ATOM     53  CD2 PHE D   1     -10.307   4.708  16.586  1.00 21.07 LIG 0.01  A 
ENDBRANCH 47 48
ENDBRANCH 46 47
BRANCH 46 54
ATOM     54  N   PHE D   1     -12.627   4.118  12.317  1.00 21.45 LIG-0.07  N 
ATOM     55 H2   PHE D   1     -12.631   4.987  12.121  1.00 21.45 LIG 0.28  HD
ATOM     56 H3   PHE D   1     -12.678   3.645  11.565  1.00 21.45 LIG 0.28  HD
ATOM     57 H1   PHE D   1     -13.325   3.928  12.835  1.00 21.45 LIG 0.28  HD
ENDBRANCH 46 54
ENDBRANCH 44 46
ENDBRANCH 1 42
TORSDOF 23
ENDMDL
MODEL 21
USER: ADFR SOLUTION from run 3
USER: SCORE 16.904742 LL:  -2.695 LR: -16.223 RR:   0.000 FEB:  -9.363
USER: RMSD 7.652546
USER: SEED 855102
USER: STATUS no improvement in best in 13 clusters for 5 generations
USER: GENES 25
USER: genes 0 Translation |==|  0.53025 0.74831 0.47715
USER: genes 1 Rotation |==|  0.36524 0.03377 0.48533 0.61939
USER: genes 2 Torsion [C]-CA--CB-[CG] |==|  0.24188
USER: genes 3 Torsion [CA]-CB--CG-[CD] |==|  0.47620
USER: genes 4 Torsion [CB]-CG--CD-[NE] |==|  0.66689
USER: genes 5 Torsion [CG]-CD--NE-[HE] |==|  0.36517
USER: genes 6 Torsion [N]-CA--C-[N] |==|  0.52688
USER: genes 7 Torsion [C]-N--CA-[C] |==|  0.16215
USER: genes 8 Torsion [N]-CA--C-[N] |==|  0.11342
USER: genes 9 Torsion [C]-N--CA-[CB] |==|  0.82621
USER: genes 10 Torsion [N]-CA--CB-[CG] |==|  0.68818
USER: genes 11 Torsion [CA]-CB--CG-[CD] |==|  0.35620
USER: genes 12 Torsion [CB]-CG--CD-[CE] |==|  0.55764
USER: genes 13 Torsion [CG]-CD--CE-[NZ] |==|  0.25891
USER: genes 14 Torsion [CD]-CE--NZ-[HZ2] |==|  0.07265
USER: genes 15 Torsion [N]-CA--C-[N] |==|  0.12268
USER: genes 16 Torsion [C]-N--CA-[C] |==|  0.55858
USER: genes 17 Torsion [N]-CA--C-[O] |==|  0.82207
USER: genes 18 Torsion [N]-CA--CB-[OG] |==|  0.67248
USER: genes 19 Torsion [CA]-CB--OG-[HG] |==|  0.78173
USER: genes 20 Torsion [CB]-CA--N-[C] |==|  0.15000
USER: genes 21 Torsion [N]-C--CA-[N] |==|  0.83263
USER: genes 22 Torsion [C]-CA--CB-[CG] |==|  0.31334
USER: genes 23 Torsion [CA]-CB--CG-[CD1] |==|  0.47185
USER: genes 24 Torsion [C]-CA--N-[H2] |==|  0.66890
ROOT
ATOM      1  CA  ARG D   2     -10.906   2.223  11.474  1.00 39.33 LIG 0.18  C 
ENDROOT
BRANCH 1 2
ATOM      2  CB  ARG D   2      -9.468   1.773  11.657  1.00 35.05 LIG 0.04  C 
BRANCH 2 3
ATOM      3  CG  ARG D   2      -8.815   1.403  10.353  1.00 57.88 LIG 0.02  C 
BRANCH 3 4
ATOM      4  CD  ARG D   2      -7.328   1.158  10.524  1.00 90.52 LIG 0.14  C 
BRANCH 4 5
ATOM      5  NE  ARG D   2      -6.524   2.069   9.709  1.00 84.14 LIG-0.23  N 
ATOM      6 HE   ARG D   2      -5.871   2.477  10.091  1.00 84.14 LIG 0.18  HD
ATOM      7  CZ  ARG D   2      -6.732   2.310   8.415  1.00 83.97 LIG 0.67  C 
ATOM      8  NH2 ARG D   2      -5.939   3.154   7.766  1.00 60.39 LIG-0.23  N 
ATOM      9  NH1 ARG D   2      -7.733   1.720   7.770  1.00 80.72 LIG-0.23  N 
ATOM     10 1HH2 ARG D   2      -5.293   3.544   8.181  1.00 60.39 LIG 0.17  HD
ATOM     11 2HH2 ARG D   2      -6.070   3.313   6.931  1.00 60.39 LIG 0.17  HD
ATOM     12 2HH1 ARG D   2      -7.860   1.880   6.935  1.00 80.72 LIG 0.17  HD
ATOM     13 1HH1 ARG D   2      -8.253   1.178   8.187  1.00 80.72 LIG 0.17  HD
ENDBRANCH 4 5
ENDBRANCH 3 4
ENDBRANCH 2 3
ENDBRANCH 1 2
BRANCH 1 14
ATOM     14  C   ARG D   2     -11.822   1.018  11.503  1.00 29.38 LIG 0.24  C 
ATOM     15 O    ARG D   2     -12.816   1.000  12.226  1.00 21.44 LIG-0.27  OA
ATOM     16  N   SER D   3     -11.494   0.004  10.716  1.00 29.93 LIG-0.34  N 
ATOM     17 H    SER D   3     -10.841   0.006  10.156  1.00 29.93 LIG 0.16  HD
BRANCH 16 18
ATOM     18  CA  SER D   3     -12.267  -1.228  10.768  1.00 48.61 LIG 0.20  C 
BRANCH 18 19
ATOM     19  C   SER D   3     -13.718  -0.922  10.449  1.00 58.83 LIG 0.24  C 
ATOM     20  N   LYS D   4     -13.932  -0.052   9.469  1.00 77.18 LIG-0.35  N 
ATOM     21 H    LYS D   4     -13.309   0.373   9.055  1.00 77.18 LIG 0.16  HD
ATOM     22 O    SER D   3     -14.627  -1.446  11.092  1.00 53.61 LIG-0.27  OA
BRANCH 20 23
ATOM     23  CA  LYS D   4     -15.281   0.252   9.015  1.00 70.35 LIG 0.18  C 
BRANCH 23 24
ATOM     24  CB  LYS D   4     -15.954  -0.996   8.438  1.00 80.12 LIG 0.04  C 
BRANCH 24 25
ATOM     25  CG  LYS D   4     -16.196  -0.915   6.937  1.00 84.36 LIG 0.00  C 
BRANCH 25 26
ATOM     26  CD  LYS D   4     -15.656  -2.121   6.194  1.00102.13 LIG 0.03  C 
BRANCH 26 27
ATOM     27  CE  LYS D   4     -15.448  -1.797   4.720  1.00 86.00 LIG 0.23  C 
BRANCH 27 28
ATOM     28  NZ  LYS D   4     -14.060  -1.342   4.437  1.00 85.97 LIG-0.08  N 
ATOM     29 HZ3  LYS D   4     -13.815  -1.620   3.627  1.00 85.97 LIG 0.27  HD
ATOM     30 HZ2  LYS D   4     -13.506  -1.680   5.045  1.00 85.97 LIG 0.27  HD
ATOM     31 HZ1  LYS D   4     -14.027  -0.453   4.467  1.00 85.97 LIG 0.27  HD
ENDBRANCH 27 28
ENDBRANCH 26 27
ENDBRANCH 25 26
ENDBRANCH 24 25
ENDBRANCH 23 24
BRANCH 23 32
ATOM     32  C   LYS D   4     -16.061   0.787  10.205  1.00 69.25 LIG 0.24  C 
ATOM     33 O    LYS D   4     -17.216   0.419  10.422  1.00 74.50 LIG-0.27  OA
ATOM     34  N   GLY D   5     -15.422   1.674  10.961  1.00 72.69 LIG-0.35  N 
ATOM     35 H    GLY D   5     -14.605   1.910  10.834  1.00 72.69 LIG 0.16  HD
BRANCH 34 36
ATOM     36  CA  GLY D   5     -16.061   2.331  12.087  1.00 67.28 LIG 0.21  C 
BRANCH 36 37
ATOM     37  C   GLY D   5     -15.357   3.620  12.460  1.00 69.64 LIG 0.21  C 
ATOM     38 O    GLY D   5     -14.196   3.608  12.874  1.00 73.82 LIG-0.29  OA
ENDBRANCH 36 37
ENDBRANCH 34 36
ENDBRANCH 23 32
ENDBRANCH 20 23
ENDBRANCH 18 19
BRANCH 18 39
ATOM     39  CB  SER D   3     -12.153  -1.871  12.139  1.00 47.59 LIG 0.20  C 
BRANCH 39 40
ATOM     40 OG   SER D   3     -11.548  -3.144  12.030  1.00 55.88 LIG-0.40  OA
ATOM     41 HG   SER D   3     -12.115  -3.702  11.760  1.00 55.88 LIG 0.21  HD
ENDBRANCH 39 40
ENDBRANCH 18 39
ENDBRANCH 16 18
ENDBRANCH 1 14
BRANCH 1 42
ATOM     42  N   ARG D   2     -11.264   3.134  12.537  1.00 24.62 LIG-0.35  N 
ATOM     43 H    ARG D   2     -11.971   2.916  12.976  1.00 24.62 LIG 0.16  HD
ATOM     44  C   PHE D   1     -10.535   4.205  12.783  1.00 23.06 LIG 0.25  C 
ATOM     45 O    PHE D   1      -9.533   4.495  12.137  1.00 27.40 LIG-0.27  OA
BRANCH 44 46
ATOM     46  CA  PHE D   1     -10.946   5.032  13.994  1.00 18.76 LIG 0.28  C 
BRANCH 46 47
ATOM     47  CB  PHE D   1     -10.813   4.289  15.322  1.00 12.58 LIG 0.08  C 
BRANCH 47 48
ATOM     48  CG  PHE D   1      -9.736   4.866  16.212  1.00 17.06 LIG-0.06  A 
ATOM     49  CD1 PHE D   1      -9.614   4.455  17.537  1.00 22.27 LIG 0.01  A 
ATOM     50  CE1 PHE D   1      -8.605   4.970  18.361  1.00 15.67 LIG 0.00  A 
ATOM     51  CZ  PHE D   1      -7.712   5.914  17.857  1.00 13.83 LIG 0.00  A 
ATOM     52  CE2 PHE D   1      -7.819   6.321  16.539  1.00 20.38 LIG 0.00  A 
ATOM     53  CD2 PHE D   1      -8.823   5.796  15.718  1.00 21.07 LIG 0.01  A 
ENDBRANCH 47 48
ENDBRANCH 46 47
BRANCH 46 54
ATOM     54  N   PHE D   1     -12.334   5.521  13.814  1.00 21.45 LIG-0.07  N 
ATOM     55 H2   PHE D   1     -12.338   6.411  13.815  1.00 21.45 LIG 0.28  HD
ATOM     56 H3   PHE D   1     -12.656   5.224  13.039  1.00 21.45 LIG 0.28  HD
ATOM     57 H1   PHE D   1     -12.843   5.221  14.480  1.00 21.45 LIG 0.28  HD
ENDBRANCH 46 54
ENDBRANCH 44 46
ENDBRANCH 1 42
TORSDOF 23
ENDMDL
MODEL 22
USER: ADFR SOLUTION from run 118
USER: SCORE 16.875472 LL:  -2.235 LR: -16.197 RR:   0.000 FEB:  -9.336
USER: RMSD 6.942973
USER: SEED 117
USER: STATUS no improvement in best in 20 clusters for 5 generations
USER: GENES 25
USER: genes 0 Translation |==|  0.54449 0.68003 0.44367
USER: genes 1 Rotation |==|  0.27830 0.05769 0.55027 0.55178
USER: genes 2 Torsion [C]-CA--CB-[CG] |==|  0.39348
USER: genes 3 Torsion [CA]-CB--CG-[CD] |==|  0.06399
USER: genes 4 Torsion [CB]-CG--CD-[NE] |==|  0.40286
USER: genes 5 Torsion [CG]-CD--NE-[HE] |==|  0.85083
USER: genes 6 Torsion [N]-CA--C-[N] |==|  0.16151
USER: genes 7 Torsion [C]-N--CA-[C] |==|  0.77634
USER: genes 8 Torsion [N]-CA--C-[N] |==|  0.51393
USER: genes 9 Torsion [C]-N--CA-[CB] |==|  0.89945
USER: genes 10 Torsion [N]-CA--CB-[CG] |==|  0.76257
USER: genes 11 Torsion [CA]-CB--CG-[CD] |==|  0.61873
USER: genes 12 Torsion [CB]-CG--CD-[CE] |==|  0.69490
USER: genes 13 Torsion [CG]-CD--CE-[NZ] |==|  0.24950
USER: genes 14 Torsion [CD]-CE--NZ-[HZ2] |==|  0.82052
USER: genes 15 Torsion [N]-CA--C-[N] |==|  0.89986
USER: genes 16 Torsion [C]-N--CA-[C] |==|  0.52105
USER: genes 17 Torsion [N]-CA--C-[O] |==|  0.05986
USER: genes 18 Torsion [N]-CA--CB-[OG] |==|  0.87244
USER: genes 19 Torsion [CA]-CB--OG-[HG] |==|  0.29693
USER: genes 20 Torsion [CB]-CA--N-[C] |==|  0.80290
USER: genes 21 Torsion [N]-C--CA-[N] |==|  0.19341
USER: genes 22 Torsion [C]-CA--CB-[CG] |==|  0.32413
USER: genes 23 Torsion [CA]-CB--CG-[CD1] |==|  0.54603
USER: genes 24 Torsion [C]-CA--N-[H2] |==|  0.98967
ROOT
ATOM      1  CA  ARG D   2     -10.596   0.841  10.796  1.00 39.33 LIG 0.18  C 
ENDROOT
BRANCH 1 2
ATOM      2  CB  ARG D   2      -9.394   0.151  11.416  1.00 35.05 LIG 0.04  C 
BRANCH 2 3
ATOM      3  CG  ARG D   2      -8.169   0.249  10.548  1.00 57.88 LIG 0.02  C 
BRANCH 3 4
ATOM      4  CD  ARG D   2      -8.252   1.428   9.599  1.00 90.52 LIG 0.14  C 
BRANCH 4 5
ATOM      5  NE  ARG D   2      -6.945   2.044   9.372  1.00 84.14 LIG-0.23  N 
ATOM      6 HE   ARG D   2      -6.493   2.288  10.062  1.00 84.14 LIG 0.18  HD
ATOM      7  CZ  ARG D   2      -6.405   2.255   8.173  1.00 83.97 LIG 0.67  C 
ATOM      8  NH2 ARG D   2      -5.207   2.820   8.079  1.00 60.39 LIG-0.23  N 
ATOM      9  NH1 ARG D   2      -7.059   1.913   7.068  1.00 80.72 LIG-0.23  N 
ATOM     10 1HH2 ARG D   2      -4.782   3.049   8.792  1.00 60.39 LIG 0.17  HD
ATOM     11 2HH2 ARG D   2      -4.856   2.958   7.306  1.00 60.39 LIG 0.17  HD
ATOM     12 2HH1 ARG D   2      -6.704   2.052   6.297  1.00 80.72 LIG 0.17  HD
ATOM     13 1HH1 ARG D   2      -7.837   1.553   7.123  1.00 80.72 LIG 0.17  HD
ENDBRANCH 4 5
ENDBRANCH 3 4
ENDBRANCH 2 3
ENDBRANCH 1 2
BRANCH 1 14
ATOM     14  C   ARG D   2     -11.844   0.029  11.070  1.00 29.38 LIG 0.24  C 
ATOM     15 O    ARG D   2     -11.782  -1.034  11.684  1.00 21.44 LIG-0.27  OA
ATOM     16  N   SER D   3     -12.986   0.525  10.618  1.00 29.93 LIG-0.34  N 
ATOM     17 H    SER D   3     -13.075   1.291  10.237  1.00 29.93 LIG 0.16  HD
BRANCH 16 18
ATOM     18  CA  SER D   3     -14.212  -0.248  10.752  1.00 48.61 LIG 0.20  C 
BRANCH 18 19
ATOM     19  C   SER D   3     -14.274  -1.284   9.646  1.00 58.83 LIG 0.24  C 
ATOM     20  N   LYS D   4     -15.389  -2.001   9.576  1.00 77.18 LIG-0.35  N 
ATOM     21 H    LYS D   4     -16.036  -1.946  10.140  1.00 77.18 LIG 0.16  HD
ATOM     22 O    SER D   3     -13.321  -1.447   8.884  1.00 53.61 LIG-0.27  OA
BRANCH 20 23
ATOM     23  CA  LYS D   4     -15.599  -2.962   8.503  1.00 70.35 LIG 0.18  C 
BRANCH 23 24
ATOM     24  CB  LYS D   4     -15.004  -2.448   7.189  1.00 80.12 LIG 0.04  C 
BRANCH 24 25
ATOM     25  CG  LYS D   4     -15.947  -1.541   6.411  1.00 84.36 LIG 0.00  C 
BRANCH 25 26
ATOM     26  CD  LYS D   4     -15.947  -1.840   4.924  1.00102.13 LIG 0.03  C 
BRANCH 26 27
ATOM     27  CE  LYS D   4     -15.278  -0.712   4.148  1.00 86.00 LIG 0.23  C 
BRANCH 27 28
ATOM     28  NZ  LYS D   4     -13.814  -0.930   3.993  1.00 85.97 LIG-0.08  N 
ATOM     29 HZ3  LYS D   4     -13.670  -1.723   3.614  1.00 85.97 LIG 0.27  HD
ATOM     30 HZ2  LYS D   4     -13.425  -0.909   4.793  1.00 85.97 LIG 0.27  HD
ATOM     31 HZ1  LYS D   4     -13.471  -0.288   3.481  1.00 85.97 LIG 0.27  HD
ENDBRANCH 27 28
ENDBRANCH 26 27
ENDBRANCH 25 26
ENDBRANCH 24 25
ENDBRANCH 23 24
BRANCH 23 32
ATOM     32  C   LYS D   4     -14.946  -4.270   8.917  1.00 69.25 LIG 0.24  C 
ATOM     33 O    LYS D   4     -15.460  -5.353   8.636  1.00 74.50 LIG-0.27  OA
ATOM     34  N   GLY D   5     -13.814  -4.156   9.607  1.00 72.69 LIG-0.35  N 
ATOM     35 H    GLY D   5     -13.433  -3.404   9.779  1.00 72.69 LIG 0.16  HD
BRANCH 34 36
ATOM     36  CA  GLY D   5     -13.115  -5.311  10.138  1.00 67.28 LIG 0.21  C 
BRANCH 36 37
ATOM     37  C   GLY D   5     -11.962  -4.907  11.036  1.00 69.64 LIG 0.21  C 
ATOM     38 O    GLY D   5     -11.932  -3.793  11.562  1.00 73.82 LIG-0.29  OA
ENDBRANCH 36 37
ENDBRANCH 34 36
ENDBRANCH 23 32
ENDBRANCH 20 23
ENDBRANCH 18 19
BRANCH 18 39
ATOM     39  CB  SER D   3     -15.426   0.663  10.689  1.00 47.59 LIG 0.20  C 
BRANCH 39 40
ATOM     40 OG   SER D   3     -15.226   1.796  11.510  1.00 55.88 LIG-0.40  OA
ATOM     41 HG   SER D   3     -15.087   2.470  11.029  1.00 55.88 LIG 0.21  HD
ENDBRANCH 39 40
ENDBRANCH 18 39
ENDBRANCH 16 18
ENDBRANCH 1 14
BRANCH 1 42
ATOM     42  N   ARG D   2     -10.738   2.161  11.364  1.00 24.62 LIG-0.35  N 
ATOM     43 H    ARG D   2     -10.547   2.806  10.828  1.00 24.62 LIG 0.16  HD
ATOM     44  C   PHE D   1     -11.134   2.321  12.612  1.00 23.06 LIG 0.25  C 
ATOM     45 O    PHE D   1     -11.394   1.381  13.357  1.00 27.40 LIG-0.27  OA
BRANCH 44 46
ATOM     46  CA  PHE D   1     -11.351   3.758  13.067  1.00 18.76 LIG 0.28  C 
BRANCH 46 47
ATOM     47  CB  PHE D   1     -11.482   3.911  14.581  1.00 12.58 LIG 0.08  C 
BRANCH 47 48
ATOM     48  CG  PHE D   1     -10.374   4.746  15.185  1.00 17.06 LIG-0.06  A 
ATOM     49  CD1 PHE D   1     -10.127   4.713  16.554  1.00 22.27 LIG 0.01  A 
ATOM     50  CE1 PHE D   1      -9.089   5.467  17.117  1.00 15.67 LIG 0.00  A 
ATOM     51  CZ  PHE D   1      -8.293   6.269  16.301  1.00 13.83 LIG 0.00  A 
ATOM     52  CE2 PHE D   1      -8.524   6.299  14.938  1.00 20.38 LIG 0.00  A 
ATOM     53  CD2 PHE D   1      -9.557   5.537  14.380  1.00 21.07 LIG 0.01  A 
ENDBRANCH 47 48
ENDBRANCH 46 47
BRANCH 46 54
ATOM     54  N   PHE D   1     -12.543   4.320  12.387  1.00 21.45 LIG-0.07  N 
ATOM     55 H2   PHE D   1     -12.862   3.724  11.808  1.00 21.45 LIG 0.28  HD
ATOM     56 H3   PHE D   1     -13.168   4.510  12.992  1.00 21.45 LIG 0.28  HD
ATOM     57 H1   PHE D   1     -12.314   5.063  11.953  1.00 21.45 LIG 0.28  HD
ENDBRANCH 46 54
ENDBRANCH 44 46
ENDBRANCH 1 42
TORSDOF 23
ENDMDL
MODEL 23
USER: ADFR SOLUTION from run 38
USER: SCORE 18.382234 LL:  -2.870 LR: -16.190 RR:   0.000 FEB:  -9.330
USER: RMSD 6.822085
USER: SEED 37
USER: STATUS searching
USER: GENES 25
USER: genes 0 Translation |==|  0.49758 0.59570 0.47348
USER: genes 1 Rotation |==|  0.88567 0.62237 0.37960 0.76794
USER: genes 2 Torsion [C]-CA--CB-[CG] |==|  0.03362
USER: genes 3 Torsion [CA]-CB--CG-[CD] |==|  0.61389
USER: genes 4 Torsion [CB]-CG--CD-[NE] |==|  0.18464
USER: genes 5 Torsion [CG]-CD--NE-[HE] |==|  0.15113
USER: genes 6 Torsion [N]-CA--C-[N] |==|  0.40433
USER: genes 7 Torsion [C]-N--CA-[C] |==|  0.77189
USER: genes 8 Torsion [N]-CA--C-[N] |==|  0.27969
USER: genes 9 Torsion [C]-N--CA-[CB] |==|  0.87090
USER: genes 10 Torsion [N]-CA--CB-[CG] |==|  0.77271
USER: genes 11 Torsion [CA]-CB--CG-[CD] |==|  0.12145
USER: genes 12 Torsion [CB]-CG--CD-[CE] |==|  0.25227
USER: genes 13 Torsion [CG]-CD--CE-[NZ] |==|  0.56032
USER: genes 14 Torsion [CD]-CE--NZ-[HZ2] |==|  0.59711
USER: genes 15 Torsion [N]-CA--C-[N] |==|  0.32821
USER: genes 16 Torsion [C]-N--CA-[C] |==|  0.45281
USER: genes 17 Torsion [N]-CA--C-[O] |==|  0.99858
USER: genes 18 Torsion [N]-CA--CB-[OG] |==|  0.66651
USER: genes 19 Torsion [CA]-CB--OG-[HG] |==|  0.02812
USER: genes 20 Torsion [CB]-CA--N-[C] |==|  0.85000
USER: genes 21 Torsion [N]-C--CA-[N] |==|  0.64843
USER: genes 22 Torsion [C]-CA--CB-[CG] |==|  0.44952
USER: genes 23 Torsion [CA]-CB--CG-[CD1] |==|  0.86998
USER: genes 24 Torsion [C]-CA--N-[H2] |==|  0.76583
ROOT
ATOM      1  CA  ARG D   2     -11.617  -0.867  11.400  1.00 39.33 LIG 0.18  C 
ENDROOT
BRANCH 1 2
ATOM      2  CB  ARG D   2     -12.220  -0.302  12.673  1.00 35.05 LIG 0.04  C 
BRANCH 2 3
ATOM      3  CG  ARG D   2     -13.639   0.159  12.477  1.00 57.88 LIG 0.02  C 
BRANCH 3 4
ATOM      4  CD  ARG D   2     -13.904   1.467  13.197  1.00 90.52 LIG 0.14  C 
BRANCH 4 5
ATOM      5  NE  ARG D   2     -13.144   2.576  12.621  1.00 84.14 LIG-0.23  N 
ATOM      6 HE   ARG D   2     -13.226   2.722  11.777  1.00 84.14 LIG 0.18  HD
ATOM      7  CZ  ARG D   2     -12.333   3.377  13.311  1.00 83.97 LIG 0.67  C 
ATOM      8  NH2 ARG D   2     -11.690   4.359  12.689  1.00 60.39 LIG-0.23  N 
ATOM      9  NH1 ARG D   2     -12.152   3.195  14.615  1.00 80.72 LIG-0.23  N 
ATOM     10 1HH2 ARG D   2     -11.799   4.477  11.844  1.00 60.39 LIG 0.17  HD
ATOM     11 2HH2 ARG D   2     -11.166   4.877  13.132  1.00 60.39 LIG 0.17  HD
ATOM     12 2HH1 ARG D   2     -11.628   3.716  15.053  1.00 80.72 LIG 0.17  HD
ATOM     13 1HH1 ARG D   2     -12.561   2.557  15.020  1.00 80.72 LIG 0.17  HD
ENDBRANCH 4 5
ENDBRANCH 3 4
ENDBRANCH 2 3
ENDBRANCH 1 2
BRANCH 1 14
ATOM     14  C   ARG D   2     -12.509  -0.534  10.224  1.00 29.38 LIG 0.24  C 
ATOM     15 O    ARG D   2     -12.400   0.539   9.635  1.00 21.44 LIG-0.27  OA
ATOM     16  N   SER D   3     -13.398  -1.452   9.874  1.00 29.93 LIG-0.34  N 
ATOM     17 H    SER D   3     -13.463  -2.234  10.225  1.00 29.93 LIG 0.16  HD
BRANCH 16 18
ATOM     18  CA  SER D   3     -14.360  -1.161   8.821  1.00 48.61 LIG 0.20  C 
BRANCH 18 19
ATOM     19  C   SER D   3     -15.518  -0.374   9.404  1.00 58.83 LIG 0.24  C 
ATOM     20  N   LYS D   4     -15.499   0.938   9.194  1.00 77.18 LIG-0.35  N 
ATOM     21 H    LYS D   4     -14.857   1.357   8.803  1.00 77.18 LIG 0.16  HD
ATOM     22 O    SER D   3     -16.399  -0.939  10.050  1.00 53.61 LIG-0.27  OA
BRANCH 20 23
ATOM     23  CA  LYS D   4     -16.601   1.783   9.628  1.00 70.35 LIG 0.18  C 
BRANCH 23 24
ATOM     24  CB  LYS D   4     -17.946   1.168   9.233  1.00 80.12 LIG 0.04  C 
BRANCH 24 25
ATOM     25  CG  LYS D   4     -18.339   1.448   7.789  1.00 84.36 LIG 0.00  C 
BRANCH 25 26
ATOM     26  CD  LYS D   4     -17.182   1.270   6.826  1.00102.13 LIG 0.03  C 
BRANCH 26 27
ATOM     27  CE  LYS D   4     -17.135  -0.159   6.298  1.00 86.00 LIG 0.23  C 
BRANCH 27 28
ATOM     28  NZ  LYS D   4     -15.785  -0.525   5.790  1.00 85.97 LIG-0.08  N 
ATOM     29 HZ3  LYS D   4     -15.350   0.212   5.544  1.00 85.97 LIG 0.27  HD
ATOM     30 HZ2  LYS D   4     -15.868  -1.067   5.090  1.00 85.97 LIG 0.27  HD
ATOM     31 HZ1  LYS D   4     -15.328  -0.938   6.433  1.00 85.97 LIG 0.27  HD
ENDBRANCH 27 28
ENDBRANCH 26 27
ENDBRANCH 25 26
ENDBRANCH 24 25
ENDBRANCH 23 24
BRANCH 23 32
ATOM     32  C   LYS D   4     -16.500   1.939  11.137  1.00 69.25 LIG 0.24  C 
ATOM     33 O    LYS D   4     -16.602   0.964  11.883  1.00 74.50 LIG-0.27  OA
ATOM     34  N   GLY D   5     -16.317   3.180  11.578  1.00 72.69 LIG-0.35  N 
ATOM     35 H    GLY D   5     -16.213   3.860  11.061  1.00 72.69 LIG 0.16  HD
BRANCH 34 36
ATOM     36  CA  GLY D   5     -16.278   3.498  12.993  1.00 67.28 LIG 0.21  C 
BRANCH 36 37
ATOM     37  C   GLY D   5     -15.661   4.859  13.247  1.00 69.64 LIG 0.21  C 
ATOM     38 O    GLY D   5     -15.254   5.552  12.312  1.00 73.82 LIG-0.29  OA
ENDBRANCH 36 37
ENDBRANCH 34 36
ENDBRANCH 23 32
ENDBRANCH 20 23
ENDBRANCH 18 19
BRANCH 18 39
ATOM     39  CB  SER D   3     -14.862  -2.447   8.188  1.00 47.59 LIG 0.20  C 
BRANCH 39 40
ATOM     40 OG   SER D   3     -14.555  -2.462   6.808  1.00 55.88 LIG-0.40  OA
ATOM     41 HG   SER D   3     -14.036  -1.826   6.629  1.00 55.88 LIG 0.21  HD
ENDBRANCH 39 40
ENDBRANCH 18 39
ENDBRANCH 16 18
ENDBRANCH 1 14
BRANCH 1 42
ATOM     42  N   ARG D   2     -10.306  -0.296  11.195  1.00 24.62 LIG-0.35  N 
ATOM     43 H    ARG D   2      -9.675  -0.871  11.089  1.00 24.62 LIG 0.16  HD
ATOM     44  C   PHE D   1     -10.134   1.011  11.177  1.00 23.06 LIG 0.25  C 
ATOM     45 O    PHE D   1     -11.053   1.809  11.336  1.00 27.40 LIG-0.27  OA
BRANCH 44 46
ATOM     46  CA  PHE D   1      -8.729   1.498  10.845  1.00 18.76 LIG 0.28  C 
BRANCH 46 47
ATOM     47  CB  PHE D   1      -7.719   0.372  10.643  1.00 12.58 LIG 0.08  C 
BRANCH 47 48
ATOM     48  CG  PHE D   1      -6.478   0.822   9.903  1.00 17.06 LIG-0.06  A 
ATOM     49  CD1 PHE D   1      -6.581   1.588   8.746  1.00 22.27 LIG 0.01  A 
ATOM     50  CE1 PHE D   1      -5.435   2.026   8.069  1.00 15.67 LIG 0.00  A 
ATOM     51  CZ  PHE D   1      -4.173   1.687   8.550  1.00 13.83 LIG 0.00  A 
ATOM     52  CE2 PHE D   1      -4.061   0.934   9.705  1.00 20.38 LIG 0.00  A 
ATOM     53  CD2 PHE D   1      -5.208   0.507  10.382  1.00 21.07 LIG 0.01  A 
ENDBRANCH 47 48
ENDBRANCH 46 47
BRANCH 46 54
ATOM     54  N   PHE D   1      -8.263   2.426  11.904  1.00 21.45 LIG-0.07  N 
ATOM     55 H2   PHE D   1      -8.564   3.246  11.734  1.00 21.45 LIG 0.28  HD
ATOM     56 H3   PHE D   1      -8.571   2.154  12.693  1.00 21.45 LIG 0.28  HD
ATOM     57 H1   PHE D   1      -7.373   2.435  11.919  1.00 21.45 LIG 0.28  HD
ENDBRANCH 46 54
ENDBRANCH 44 46
ENDBRANCH 1 42
TORSDOF 23
ENDMDL
