MODEL 1
USER: ADFR SOLUTION from run 20
USER: SCORE 25.961842 LL:  -4.684 LR: -22.851 RR:   0.000 FEB: -13.007
USER: RMSD 4.102157
USER: SEED 19
USER: STATUS no improvement in best in 6 clusters for 5 generations
USER: GENES 35
USER: genes 0 Translation |==|  0.45809 0.54782 0.59995
USER: genes 1 Rotation |==|  0.48628 0.55640 0.50268 0.99661
USER: genes 2 Torsion [C]-N--CA-[C] |==|  0.80357
USER: genes 3 Torsion [N]-CA--C-[N] |==|  0.35119
USER: genes 4 Torsion [C]-N--CA-[CB] |==|  0.51394
USER: genes 5 Torsion [N]-CA--C-[N] |==|  0.46557
USER: genes 6 Torsion [C]-N--CA-[C] |==|  0.12448
USER: genes 7 Torsion [N]-CA--C-[OXT] |==|  0.62779
USER: genes 8 Torsion [N]-CA--CB-[CG] |==|  0.14572
USER: genes 9 Torsion [CA]-CB--CG-[OD1] |==|  0.77051
USER: genes 10 Torsion [N]-CA--CB-[CG] |==|  0.63405
USER: genes 11 Torsion [CA]-CB--CG-[CD] |==|  0.75512
USER: genes 12 Torsion [CB]-CG--CD-[NE] |==|  0.56606
USER: genes 13 Torsion [CG]-CD--NE-[HE] |==|  0.95005
USER: genes 14 Torsion [N]-CA--CB-[CG] |==|  0.49419
USER: genes 15 Torsion [CA]-CB--CG-[CD2] |==|  0.55102
USER: genes 16 Torsion [CE2]-CZ--OH-[HH] |==|  0.08955
USER: genes 17 Torsion [N]-C--CA-[N] |==|  0.26667
USER: genes 18 Torsion [C]-CA--CB-[CG] |==|  0.19248
USER: genes 19 Torsion [CA]-CB--CG-[CD] |==|  0.48855
USER: genes 20 Torsion [CB]-CG--CD-[CE] |==|  0.52273
USER: genes 21 Torsion [CG]-CD--CE-[NZ] |==|  0.70730
USER: genes 22 Torsion [CD]-CE--NZ-[HZ2] |==|  0.27915
USER: genes 23 Torsion [C]-CA--N-[C] |==|  0.75127
USER: genes 24 Torsion [N]-C--CA-[N] |==|  0.57577
USER: genes 25 Torsion [C]-CA--CB-[CG] |==|  0.49176
USER: genes 26 Torsion [CA]-CB--CG-[CD] |==|  0.26183
USER: genes 27 Torsion [CB]-CG--CD-[CE] |==|  0.55239
USER: genes 28 Torsion [CG]-CD--CE-[NZ] |==|  0.50591
USER: genes 29 Torsion [CD]-CE--NZ-[HZ2] |==|  0.14720
USER: genes 30 Torsion [C]-CA--N-[C] |==|  0.70497
USER: genes 31 Torsion [N]-C--CA-[N] |==|  0.93655
USER: genes 32 Torsion [C]-CA--N-[C] |==|  0.71784
USER: genes 33 Torsion [N]-C--CA-[N] |==|  0.41954
USER: genes 34 Torsion [C]-CA--CB-[CG1] |==|  0.57791
ROOT
ATOM      1  C   LYS B 204      -0.822   4.414  -8.752  1.00 29.43 LIG 0.24  C 
ATOM      2 O    LYS B 204      -0.162   4.284  -9.801  1.00 26.08 LIG-0.27  OA
ATOM      3  N   TYR B 205      -1.399   3.433  -8.096  1.00 31.29 LIG-0.35  N 
ATOM      4 H    TYR B 205      -1.847   3.555  -7.372  1.00 31.29 LIG 0.16  HD
ENDROOT
BRANCH 3 5
ATOM      5  CA  TYR B 205      -1.348   2.059  -8.511  1.00 33.02 LIG 0.18  C 
BRANCH 5 6
ATOM      6  C   TYR B 205      -2.235   2.025  -9.761  1.00 33.21 LIG 0.24  C 
ATOM      7 O    TYR B 205      -3.346   2.519  -9.723  1.00 35.15 LIG-0.27  OA
ATOM      8  N   ARG B 206      -1.730   1.520 -10.884  1.00 31.57 LIG-0.35  N 
ATOM      9 H    ARG B 206      -0.913   1.270 -10.983  1.00 31.57 LIG 0.16  HD
BRANCH 8 10
ATOM     10  CA  ARG B 206      -2.580   1.355 -12.073  1.00 33.28 LIG 0.18  C 
BRANCH 10 11
ATOM     11  C   ARG B 206      -3.906   0.633 -11.735  1.00 36.59 LIG 0.24  C 
ATOM     12  N   ASN B 207      -4.858   0.654 -12.671  1.00 40.84 LIG-0.34  N 
ATOM     13 H    ASN B 207      -4.812   1.109 -13.399  1.00 40.84 LIG 0.16  HD
ATOM     14 O    ARG B 206      -4.082   0.085 -10.622  1.00 36.06 LIG-0.27  OA
BRANCH 12 15
ATOM     15  CA  ASN B 207      -6.098  -0.133 -12.510  1.00 46.04 LIG 0.19  C 
BRANCH 15 16
ATOM     16  C   ASN B 207      -6.711  -0.029 -11.125  1.00 46.07 LIG 0.20  C 
ATOM     17 OXT  ASN B 207      -7.100  -1.015 -10.521  1.00 45.13 LIG-0.65  OA
ATOM     18 O    ASN B 207      -6.864   1.051 -10.595  1.00 48.62 LIG-0.65  OA
ENDBRANCH 15 16
BRANCH 15 19
ATOM     19  CB  ASN B 207      -5.874  -1.613 -12.811  1.00 51.14 LIG 0.14  C 
BRANCH 19 20
ATOM     20  CG  ASN B 207      -4.728  -2.170 -12.029  1.00 56.09 LIG 0.22  C 
ATOM     21 OD1  ASN B 207      -3.566  -2.021 -12.426  1.00 63.46 LIG-0.27  OA
ATOM     22  ND2 ASN B 207      -5.029  -2.770 -10.874  1.00 58.21 LIG-0.37  N 
ATOM     23 22HD ASN B 207      -5.851  -2.854 -10.634  1.00 58.21 LIG 0.16  HD
ATOM     24 21HD ASN B 207      -4.401  -3.072 -10.371  1.00 58.21 LIG 0.16  HD
ENDBRANCH 19 20
ENDBRANCH 15 19
ENDBRANCH 12 15
ENDBRANCH 10 11
BRANCH 10 25
ATOM     25  CB  ARG B 206      -1.821   0.647 -13.198  1.00 29.97 LIG 0.04  C 
BRANCH 25 26
ATOM     26  CG  ARG B 206      -1.983   1.385 -14.525  1.00 35.04 LIG 0.02  C 
BRANCH 26 27
ATOM     27  CD  ARG B 206      -3.218   0.949 -15.333  1.00 34.71 LIG 0.14  C 
BRANCH 27 28
ATOM     28  NE  ARG B 206      -3.001   1.246 -16.747  1.00 36.74 LIG-0.23  N 
ATOM     29 HE   ARG B 206      -2.385   1.809 -16.955  1.00 36.74 LIG 0.18  HD
ATOM     30  CZ  ARG B 206      -3.702   0.696 -17.723  1.00 37.33 LIG 0.67  C 
ATOM     31  NH2 ARG B 206      -3.447   0.977 -18.971  1.00 40.70 LIG-0.23  N 
ATOM     32  NH1 ARG B 206      -4.670  -0.141 -17.441  1.00 35.99 LIG-0.23  N 
ATOM     33 1HH2 ARG B 206      -2.816   1.528 -19.167  1.00 40.70 LIG 0.17  HD
ATOM     34 2HH2 ARG B 206      -3.911   0.613 -19.597  1.00 40.70 LIG 0.17  HD
ATOM     35 1HH1 ARG B 206      -4.849  -0.332 -16.622  1.00 35.99 LIG 0.17  HD
ATOM     36 2HH1 ARG B 206      -5.126  -0.500 -18.075  1.00 35.99 LIG 0.17  HD
ENDBRANCH 27 28
ENDBRANCH 26 27
ENDBRANCH 25 26
ENDBRANCH 10 25
ENDBRANCH 8 10
ENDBRANCH 5 6
BRANCH 5 37
ATOM     37  CB  TYR B 205      -1.963   1.288  -7.354  1.00 37.09 LIG 0.07  C 
BRANCH 37 38
ATOM     38  CG  TYR B 205      -2.128  -0.183  -7.434  1.00 41.64 LIG-0.06  A 
ATOM     39  CD2 TYR B 205      -3.009  -0.834  -6.582  1.00 44.35 LIG 0.01  A 
ATOM     40  CE2 TYR B 205      -3.118  -2.203  -6.582  1.00 49.08 LIG 0.04  A 
ATOM     41  CZ  TYR B 205      -2.317  -2.954  -7.427  1.00 48.61 LIG 0.07  A 
ATOM     42  CE1 TYR B 205      -1.410  -2.337  -8.268  1.00 45.09 LIG 0.04  A 
ATOM     43  CD1 TYR B 205      -1.302  -0.953  -8.254  1.00 43.95 LIG 0.01  A 
BRANCH 41 44
ATOM     44 OH   TYR B 205      -2.429  -4.329  -7.400  1.00 50.49 LIG-0.36  OA
ATOM     45 HH   TYR B 205      -3.221  -4.543  -7.220  1.00 50.49 LIG 0.22  HD
ENDBRANCH 41 44
ENDBRANCH 37 38
ENDBRANCH 5 37
ENDBRANCH 3 5
BRANCH 1 46
ATOM     46  CA  LYS B 204      -0.973   5.743  -8.093  1.00 31.16 LIG 0.18  C 
BRANCH 46 47
ATOM     47  CB  LYS B 204      -1.129   6.767  -9.213  1.00 32.72 LIG 0.04  C 
BRANCH 47 48
ATOM     48  CG  LYS B 204      -2.444   6.663  -9.970  1.00 37.78 LIG 0.00  C 
BRANCH 48 49
ATOM     49  CD  LYS B 204      -2.515   7.808 -10.992  1.00 44.67 LIG 0.03  C 
BRANCH 49 50
ATOM     50  CE  LYS B 204      -3.897   7.875 -11.641  1.00 46.31 LIG 0.23  C 
BRANCH 50 51
ATOM     51  NZ  LYS B 204      -3.870   7.355 -13.032  1.00 49.87 LIG-0.08  N 
ATOM     52 HZ2  LYS B 204      -4.182   6.522 -13.044  1.00 49.87 LIG 0.27  HD
ATOM     53 HZ3  LYS B 204      -4.377   7.869 -13.551  1.00 49.87 LIG 0.27  HD
ATOM     54 HZ1  LYS B 204      -3.033   7.362 -13.335  1.00 49.87 LIG 0.27  HD
ENDBRANCH 50 51
ENDBRANCH 49 50
ENDBRANCH 48 49
ENDBRANCH 47 48
ENDBRANCH 46 47
BRANCH 46 55
ATOM     55  N   LYS B 204       0.248   5.979  -7.291  1.00 28.52 LIG-0.35  N 
ATOM     56 H    LYS B 204       0.870   6.386  -7.724  1.00 28.52 LIG 0.16  HD
ATOM     57  C   LYS B 203       0.373   5.601  -6.031  1.00 30.36 LIG 0.24  C 
ATOM     58 O    LYS B 203      -0.491   4.936  -5.416  1.00 32.75 LIG-0.27  OA
BRANCH 57 59
ATOM     59  CA  LYS B 203       1.647   6.082  -5.313  1.00 29.12 LIG 0.18  C 
BRANCH 59 60
ATOM     60  CB  LYS B 203       2.816   6.223  -6.305  1.00 27.59 LIG 0.04  C 
BRANCH 60 61
ATOM     61  CG  LYS B 203       4.091   6.757  -5.704  1.00 28.85 LIG 0.00  C 
BRANCH 61 62
ATOM     62  CD  LYS B 203       5.029   5.611  -5.275  1.00 30.56 LIG 0.03  C 
BRANCH 62 63
ATOM     63  CE  LYS B 203       6.075   6.131  -4.262  1.00 30.34 LIG 0.23  C 
BRANCH 63 64
ATOM     64  NZ  LYS B 203       7.091   5.107  -3.800  1.00 29.96 LIG-0.08  N 
ATOM     65 HZ2  LYS B 203       7.476   4.730  -4.509  1.00 29.96 LIG 0.27  HD
ATOM     66 HZ3  LYS B 203       7.712   5.507  -3.304  1.00 29.96 LIG 0.27  HD
ATOM     67 HZ1  LYS B 203       6.683   4.481  -3.317  1.00 29.96 LIG 0.27  HD
ENDBRANCH 63 64
ENDBRANCH 62 63
ENDBRANCH 61 62
ENDBRANCH 60 61
ENDBRANCH 59 60
BRANCH 59 68
ATOM     68  N   LYS B 203       1.933   5.106  -4.276  1.00 32.23 LIG-0.35  N 
ATOM     69  C   ALA B 202       1.700   5.416  -3.006  1.00 35.90 LIG 0.24  C 
ATOM     70 O    ALA B 202       1.269   6.517  -2.683  1.00 35.09 LIG-0.27  OA
ATOM     71 H    LYS B 203       2.249   4.355  -4.551  1.00 32.23 LIG 0.16  HD
BRANCH 69 72
ATOM     72  CA  ALA B 202       2.059   4.393  -1.912  1.00 40.49 LIG 0.17  C 
ATOM     73  CB  ALA B 202       3.347   4.821  -1.197  1.00 40.15 LIG 0.04  C 
BRANCH 72 74
ATOM     74  N   ALA B 202       2.136   3.001  -2.361  1.00 44.85 LIG-0.35  N 
ATOM     75  C   VAL B 201       1.113   2.181  -2.105  1.00 49.40 LIG 0.26  C 
ATOM     76 O    VAL B 201       0.132   2.511  -1.403  1.00 49.68 LIG-0.27  OA
ATOM     77 H    ALA B 202       2.857   2.782  -2.776  1.00 44.85 LIG 0.16  HD
BRANCH 75 78
ATOM     78  CA  VAL B 201       1.160   0.808  -2.731  1.00 53.79 LIG 0.40  C 
ATOM     79  N   VAL B 201       0.420  -0.133  -1.845  1.00 59.48 LIG 0.61  N 
BRANCH 78 80
ATOM     80  CB  VAL B 201       0.514   0.919  -4.161  1.00 53.10 LIG 0.03  C 
ATOM     81  CG1 VAL B 201      -0.121  -0.408  -4.611  1.00 58.27 LIG 0.01  C 
ATOM     82  CG2 VAL B 201      -0.527   2.074  -4.215  1.00 52.00 LIG 0.01  C 
ENDBRANCH 78 80
ENDBRANCH 75 78
ENDBRANCH 72 74
ENDBRANCH 69 72
ENDBRANCH 59 68
ENDBRANCH 57 59
ENDBRANCH 46 55
ENDBRANCH 1 46
TORSDOF 33
ENDMDL
MODEL 2
USER: ADFR SOLUTION from run 20
USER: SCORE 25.829564 LL:  -4.185 LR: -22.773 RR:   0.000 FEB: -12.929
USER: RMSD 4.033980
USER: SEED 19
USER: STATUS no improvement in best in 6 clusters for 5 generations
USER: GENES 35
USER: genes 0 Translation |==|  0.45788 0.54818 0.60028
USER: genes 1 Rotation |==|  0.49244 0.55521 0.50943 0.99680
USER: genes 2 Torsion [C]-N--CA-[C] |==|  0.80000
USER: genes 3 Torsion [N]-CA--C-[N] |==|  0.35815
USER: genes 4 Torsion [C]-N--CA-[CB] |==|  0.51413
USER: genes 5 Torsion [N]-CA--C-[N] |==|  0.46651
USER: genes 6 Torsion [C]-N--CA-[C] |==|  0.12375
USER: genes 7 Torsion [N]-CA--C-[OXT] |==|  0.62750
USER: genes 8 Torsion [N]-CA--CB-[CG] |==|  0.14707
USER: genes 9 Torsion [CA]-CB--CG-[OD1] |==|  0.77132
USER: genes 10 Torsion [N]-CA--CB-[CG] |==|  0.64108
USER: genes 11 Torsion [CA]-CB--CG-[CD] |==|  0.75953
USER: genes 12 Torsion [CB]-CG--CD-[NE] |==|  0.56578
USER: genes 13 Torsion [CG]-CD--NE-[HE] |==|  0.92647
USER: genes 14 Torsion [N]-CA--CB-[CG] |==|  0.49658
USER: genes 15 Torsion [CA]-CB--CG-[CD2] |==|  0.62346
USER: genes 16 Torsion [CE2]-CZ--OH-[HH] |==|  0.05657
USER: genes 17 Torsion [N]-C--CA-[N] |==|  0.28540
USER: genes 18 Torsion [C]-CA--CB-[CG] |==|  0.13459
USER: genes 19 Torsion [CA]-CB--CG-[CD] |==|  0.39890
USER: genes 20 Torsion [CB]-CG--CD-[CE] |==|  0.46882
USER: genes 21 Torsion [CG]-CD--CE-[NZ] |==|  0.67281
USER: genes 22 Torsion [CD]-CE--NZ-[HZ2] |==|  0.42830
USER: genes 23 Torsion [C]-CA--N-[C] |==|  0.79193
USER: genes 24 Torsion [N]-C--CA-[N] |==|  0.48229
USER: genes 25 Torsion [C]-CA--CB-[CG] |==|  0.49624
USER: genes 26 Torsion [CA]-CB--CG-[CD] |==|  0.24227
USER: genes 27 Torsion [CB]-CG--CD-[CE] |==|  0.49510
USER: genes 28 Torsion [CG]-CD--CE-[NZ] |==|  0.49602
USER: genes 29 Torsion [CD]-CE--NZ-[HZ2] |==|  0.22984
USER: genes 30 Torsion [C]-CA--N-[C] |==|  0.59507
USER: genes 31 Torsion [N]-C--CA-[N] |==|  0.46094
USER: genes 32 Torsion [C]-CA--N-[C] |==|  0.76916
USER: genes 33 Torsion [N]-C--CA-[N] |==|  0.43644
USER: genes 34 Torsion [C]-CA--CB-[CG1] |==|  0.58587
ROOT
ATOM      1  C   LYS B 204      -0.827   4.422  -8.744  1.00 29.43 LIG 0.24  C 
ATOM      2 O    LYS B 204      -0.160   4.337  -9.793  1.00 26.08 LIG-0.27  OA
ATOM      3  N   TYR B 205      -1.382   3.411  -8.117  1.00 31.29 LIG-0.35  N 
ATOM      4 H    TYR B 205      -1.835   3.502  -7.392  1.00 31.29 LIG 0.16  HD
ENDROOT
BRANCH 3 5
ATOM      5  CA  TYR B 205      -1.296   2.050  -8.570  1.00 33.02 LIG 0.18  C 
BRANCH 5 6
ATOM      6  C   TYR B 205      -2.205   2.021  -9.804  1.00 33.21 LIG 0.24  C 
ATOM      7 O    TYR B 205      -3.312   2.521  -9.748  1.00 35.15 LIG-0.27  OA
ATOM      8  N   ARG B 206      -1.720   1.515 -10.936  1.00 31.57 LIG-0.35  N 
ATOM      9 H    ARG B 206      -0.907   1.262 -11.049  1.00 31.57 LIG 0.16  HD
BRANCH 8 10
ATOM     10  CA  ARG B 206      -2.590   1.355 -12.111  1.00 33.28 LIG 0.18  C 
BRANCH 10 11
ATOM     11  C   ARG B 206      -3.915   0.640 -11.752  1.00 36.59 LIG 0.24  C 
ATOM     12  N   ASN B 207      -4.879   0.661 -12.675  1.00 40.84 LIG-0.34  N 
ATOM     13 H    ASN B 207      -4.841   1.112 -13.406  1.00 40.84 LIG 0.16  HD
ATOM     14 O    ARG B 206      -4.078   0.098 -10.634  1.00 36.06 LIG-0.27  OA
BRANCH 12 15
ATOM     15  CA  ASN B 207      -6.121  -0.120 -12.493  1.00 46.04 LIG 0.19  C 
BRANCH 15 16
ATOM     16  C   ASN B 207      -6.710  -0.013 -11.098  1.00 46.07 LIG 0.20  C 
ATOM     17 OXT  ASN B 207      -7.096  -0.996 -10.489  1.00 45.13 LIG-0.65  OA
ATOM     18 O    ASN B 207      -6.848   1.069 -10.566  1.00 48.62 LIG-0.65  OA
ENDBRANCH 15 16
BRANCH 15 19
ATOM     19  CB  ASN B 207      -5.907  -1.602 -12.796  1.00 51.14 LIG 0.14  C 
BRANCH 19 20
ATOM     20  CG  ASN B 207      -4.759  -2.166 -12.023  1.00 56.09 LIG 0.22  C 
ATOM     21 OD1  ASN B 207      -3.599  -2.020 -12.427  1.00 63.46 LIG-0.27  OA
ATOM     22  ND2 ASN B 207      -5.055  -2.770 -10.869  1.00 58.21 LIG-0.37  N 
ATOM     23 22HD ASN B 207      -5.876  -2.852 -10.625  1.00 58.21 LIG 0.16  HD
ATOM     24 21HD ASN B 207      -4.426  -3.077 -10.371  1.00 58.21 LIG 0.16  HD
ENDBRANCH 19 20
ENDBRANCH 15 19
ENDBRANCH 12 15
ENDBRANCH 10 11
BRANCH 10 25
ATOM     25  CB  ARG B 206      -1.854   0.643 -13.249  1.00 29.97 LIG 0.04  C 
BRANCH 25 26
ATOM     26  CG  ARG B 206      -1.982   1.416 -14.560  1.00 35.04 LIG 0.02  C 
BRANCH 26 27
ATOM     27  CD  ARG B 206      -3.248   1.073 -15.364  1.00 34.71 LIG 0.14  C 
BRANCH 27 28
ATOM     28  NE  ARG B 206      -3.027   1.386 -16.773  1.00 36.74 LIG-0.23  N 
ATOM     29 HE   ARG B 206      -2.455   1.997 -16.970  1.00 36.74 LIG 0.18  HD
ATOM     30  CZ  ARG B 206      -3.660   0.778 -17.762  1.00 37.33 LIG 0.67  C 
ATOM     31  NH2 ARG B 206      -3.403   1.079 -19.005  1.00 40.70 LIG-0.23  N 
ATOM     32  NH1 ARG B 206      -4.562  -0.135 -17.499  1.00 35.99 LIG-0.23  N 
ATOM     33 1HH2 ARG B 206      -2.815   1.679 -19.190  1.00 40.70 LIG 0.17  HD
ATOM     34 2HH2 ARG B 206      -3.822   0.677 -19.640  1.00 40.70 LIG 0.17  HD
ATOM     35 1HH1 ARG B 206      -4.742  -0.339 -16.683  1.00 35.99 LIG 0.17  HD
ATOM     36 2HH1 ARG B 206      -4.974  -0.530 -18.141  1.00 35.99 LIG 0.17  HD
ENDBRANCH 27 28
ENDBRANCH 26 27
ENDBRANCH 25 26
ENDBRANCH 10 25
ENDBRANCH 8 10
ENDBRANCH 5 6
BRANCH 5 37
ATOM     37  CB  TYR B 205      -1.867   1.230  -7.424  1.00 37.09 LIG 0.07  C 
BRANCH 37 38
ATOM     38  CG  TYR B 205      -1.971  -0.245  -7.533  1.00 41.64 LIG-0.06  A 
ATOM     39  CD2 TYR B 205      -3.127  -0.895  -7.125  1.00 44.35 LIG 0.01  A 
ATOM     40  CE2 TYR B 205      -3.215  -2.265  -7.141  1.00 49.08 LIG 0.04  A 
ATOM     41  CZ  TYR B 205      -2.124  -3.018  -7.543  1.00 48.61 LIG 0.07  A 
ATOM     42  CE1 TYR B 205      -0.949  -2.401  -7.929  1.00 45.09 LIG 0.04  A 
ATOM     43  CD1 TYR B 205      -0.867  -1.015  -7.902  1.00 43.95 LIG 0.01  A 
BRANCH 41 44
ATOM     44 OH   TYR B 205      -2.226  -4.394  -7.535  1.00 50.49 LIG-0.36  OA
ATOM     45 HH   TYR B 205      -3.036  -4.615  -7.544  1.00 50.49 LIG 0.22  HD
ENDBRANCH 41 44
ENDBRANCH 37 38
ENDBRANCH 5 37
ENDBRANCH 3 5
BRANCH 1 46
ATOM     46  CA  LYS B 204      -1.012   5.729  -8.049  1.00 31.16 LIG 0.18  C 
BRANCH 46 47
ATOM     47  CB  LYS B 204      -1.358   6.750  -9.129  1.00 32.72 LIG 0.04  C 
BRANCH 47 48
ATOM     48  CG  LYS B 204      -2.451   6.295 -10.084  1.00 37.78 LIG 0.00  C 
BRANCH 48 49
ATOM     49  CD  LYS B 204      -3.316   7.510 -10.454  1.00 44.67 LIG 0.03  C 
BRANCH 49 50
ATOM     50  CE  LYS B 204      -4.253   7.179 -11.616  1.00 46.31 LIG 0.23  C 
BRANCH 50 51
ATOM     51  NZ  LYS B 204      -3.968   8.027 -12.801  1.00 49.87 LIG-0.08  N 
ATOM     52 HZ2  LYS B 204      -4.228   7.603 -13.539  1.00 49.87 LIG 0.27  HD
ATOM     53 HZ3  LYS B 204      -4.412   8.795 -12.730  1.00 49.87 LIG 0.27  HD
ATOM     54 HZ1  LYS B 204      -3.095   8.192 -12.845  1.00 49.87 LIG 0.27  HD
ENDBRANCH 50 51
ENDBRANCH 49 50
ENDBRANCH 48 49
ENDBRANCH 47 48
ENDBRANCH 46 47
BRANCH 46 55
ATOM     55  N   LYS B 204       0.261   6.051  -7.368  1.00 28.52 LIG-0.35  N 
ATOM     56 H    LYS B 204       0.715   6.666  -7.762  1.00 28.52 LIG 0.16  HD
ATOM     57  C   LYS B 203       0.664   5.453  -6.260  1.00 30.36 LIG 0.24  C 
ATOM     58 O    LYS B 203       0.053   4.500  -5.724  1.00 32.75 LIG-0.27  OA
BRANCH 57 59
ATOM     59  CA  LYS B 203       1.929   6.037  -5.608  1.00 29.12 LIG 0.18  C 
BRANCH 59 60
ATOM     60  CB  LYS B 203       3.151   5.866  -6.529  1.00 27.59 LIG 0.04  C 
BRANCH 60 61
ATOM     61  CG  LYS B 203       4.435   6.439  -5.986  1.00 28.85 LIG 0.00  C 
BRANCH 61 62
ATOM     62  CD  LYS B 203       5.173   5.415  -5.100  1.00 30.56 LIG 0.03  C 
BRANCH 62 63
ATOM     63  CE  LYS B 203       6.506   6.013  -4.593  1.00 30.34 LIG 0.23  C 
BRANCH 63 64
ATOM     64  NZ  LYS B 203       7.311   5.112  -3.681  1.00 29.96 LIG-0.08  N 
ATOM     65 HZ2  LYS B 203       7.789   4.543  -4.171  1.00 29.96 LIG 0.27  HD
ATOM     66 HZ3  LYS B 203       7.859   5.606  -3.183  1.00 29.96 LIG 0.27  HD
ATOM     67 HZ1  LYS B 203       6.760   4.656  -3.151  1.00 29.96 LIG 0.27  HD
ENDBRANCH 63 64
ENDBRANCH 62 63
ENDBRANCH 61 62
ENDBRANCH 60 61
ENDBRANCH 59 60
BRANCH 59 68
ATOM     68  N   LYS B 203       2.104   5.343  -4.344  1.00 32.23 LIG-0.35  N 
ATOM     69  C   ALA B 202       2.607   5.999  -3.304  1.00 35.90 LIG 0.24  C 
ATOM     70 O    ALA B 202       2.949   7.173  -3.390  1.00 35.09 LIG-0.27  OA
ATOM     71 H    LYS B 203       1.864   4.518  -4.338  1.00 32.23 LIG 0.16  HD
BRANCH 69 72
ATOM     72  CA  ALA B 202       2.838   5.237  -1.986  1.00 40.49 LIG 0.17  C 
ATOM     73  CB  ALA B 202       1.492   4.826  -1.375  1.00 40.15 LIG 0.04  C 
BRANCH 72 74
ATOM     74  N   ALA B 202       3.679   5.928  -1.005  1.00 44.85 LIG-0.35  N 
ATOM     75  C   VAL B 201       5.008   5.840  -1.114  1.00 49.40 LIG 0.26  C 
ATOM     76 O    VAL B 201       5.576   5.105  -1.951  1.00 49.68 LIG-0.27  OA
ATOM     77 H    ALA B 202       3.258   6.365  -0.395  1.00 44.85 LIG 0.16  HD
BRANCH 75 78
ATOM     78  CA  VAL B 201       5.832   6.703  -0.189  1.00 53.79 LIG 0.40  C 
ATOM     79  N   VAL B 201       7.182   6.086  -0.059  1.00 59.48 LIG 0.61  N 
BRANCH 78 80
ATOM     80  CB  VAL B 201       5.888   8.145  -0.814  1.00 53.10 LIG 0.03  C 
ATOM     81  CG1 VAL B 201       7.202   8.869  -0.473  1.00 58.27 LIG 0.01  C 
ATOM     82  CG2 VAL B 201       5.670   8.096  -2.353  1.00 52.00 LIG 0.01  C 
ENDBRANCH 78 80
ENDBRANCH 75 78
ENDBRANCH 72 74
ENDBRANCH 69 72
ENDBRANCH 59 68
ENDBRANCH 57 59
ENDBRANCH 46 55
ENDBRANCH 1 46
TORSDOF 33
ENDMDL
MODEL 3
USER: ADFR SOLUTION from run 84
USER: SCORE 26.765561 LL:  -5.971 LR: -22.318 RR:   0.000 FEB: -12.474
USER: RMSD 1.547174
USER: SEED 83
USER: STATUS 1 or 2 clusters left
USER: GENES 35
USER: genes 0 Translation |==|  0.44995 0.53738 0.59313
USER: genes 1 Rotation |==|  0.47738 0.50384 0.50312 0.99946
USER: genes 2 Torsion [C]-N--CA-[C] |==|  0.77585
USER: genes 3 Torsion [N]-CA--C-[N] |==|  0.30439
USER: genes 4 Torsion [C]-N--CA-[CB] |==|  0.50657
USER: genes 5 Torsion [N]-CA--C-[N] |==|  0.37360
USER: genes 6 Torsion [C]-N--CA-[C] |==|  0.60814
USER: genes 7 Torsion [N]-CA--C-[OXT] |==|  0.58426
USER: genes 8 Torsion [N]-CA--CB-[CG] |==|  0.67022
USER: genes 9 Torsion [CA]-CB--CG-[OD1] |==|  0.58748
USER: genes 10 Torsion [N]-CA--CB-[CG] |==|  0.61714
USER: genes 11 Torsion [CA]-CB--CG-[CD] |==|  0.78203
USER: genes 12 Torsion [CB]-CG--CD-[NE] |==|  0.59151
USER: genes 13 Torsion [CG]-CD--NE-[HE] |==|  0.99559
USER: genes 14 Torsion [N]-CA--CB-[CG] |==|  0.49157
USER: genes 15 Torsion [CA]-CB--CG-[CD2] |==|  0.23304
USER: genes 16 Torsion [CE2]-CZ--OH-[HH] |==|  0.46107
USER: genes 17 Torsion [N]-C--CA-[N] |==|  0.35337
USER: genes 18 Torsion [C]-CA--CB-[CG] |==|  0.20129
USER: genes 19 Torsion [CA]-CB--CG-[CD] |==|  0.50715
USER: genes 20 Torsion [CB]-CG--CD-[CE] |==|  0.98526
USER: genes 21 Torsion [CG]-CD--CE-[NZ] |==|  0.40342
USER: genes 22 Torsion [CD]-CE--NZ-[HZ2] |==|  0.74603
USER: genes 23 Torsion [C]-CA--N-[C] |==|  0.69881
USER: genes 24 Torsion [N]-C--CA-[N] |==|  0.32713
USER: genes 25 Torsion [C]-CA--CB-[CG] |==|  0.43692
USER: genes 26 Torsion [CA]-CB--CG-[CD] |==|  0.54060
USER: genes 27 Torsion [CB]-CG--CD-[CE] |==|  0.66900
USER: genes 28 Torsion [CG]-CD--CE-[NZ] |==|  0.49313
USER: genes 29 Torsion [CD]-CE--NZ-[HZ2] |==|  0.76379
USER: genes 30 Torsion [C]-CA--N-[C] |==|  0.62222
USER: genes 31 Torsion [N]-C--CA-[N] |==|  0.89460
USER: genes 32 Torsion [C]-CA--N-[C] |==|  0.73577
USER: genes 33 Torsion [N]-C--CA-[N] |==|  0.39064
USER: genes 34 Torsion [C]-CA--CB-[CG1] |==|  0.73946
ROOT
ATOM      1  C   LYS B 204      -1.017   4.155  -8.926  1.00 29.43 LIG 0.24  C 
ATOM      2 O    LYS B 204      -0.151   4.001  -9.809  1.00 26.08 LIG-0.27  OA
ATOM      3  N   TYR B 205      -1.711   3.188  -8.371  1.00 31.29 LIG-0.35  N 
ATOM      4 H    TYR B 205      -2.301   3.327  -7.761  1.00 31.29 LIG 0.16  HD
ENDROOT
BRANCH 3 5
ATOM      5  CA  TYR B 205      -1.563   1.802  -8.718  1.00 33.02 LIG 0.18  C 
BRANCH 5 6
ATOM      6  C   TYR B 205      -2.391   1.659 -10.001  1.00 33.21 LIG 0.24  C 
ATOM      7 O    TYR B 205      -3.599   1.798  -9.956  1.00 35.15 LIG-0.27  OA
ATOM      8  N   ARG B 206      -1.750   1.466 -11.151  1.00 31.57 LIG-0.35  N 
ATOM      9 H    ARG B 206      -0.896   1.481 -11.242  1.00 31.57 LIG 0.16  HD
BRANCH 8 10
ATOM     10  CA  ARG B 206      -2.504   1.203 -12.387  1.00 33.28 LIG 0.18  C 
BRANCH 10 11
ATOM     11  C   ARG B 206      -3.512   0.043 -12.209  1.00 36.59 LIG 0.24  C 
ATOM     12  N   ASN B 207      -4.743   0.237 -12.689  1.00 40.84 LIG-0.34  N 
ATOM     13 H    ASN B 207      -5.028   0.983 -13.006  1.00 40.84 LIG 0.16  HD
ATOM     14 O    ARG B 206      -3.191  -1.012 -11.613  1.00 36.06 LIG-0.27  OA
BRANCH 12 15
ATOM     15  CA  ASN B 207      -5.732  -0.861 -12.708  1.00 46.04 LIG 0.19  C 
BRANCH 15 16
ATOM     16  C   ASN B 207      -6.595  -0.882 -13.957  1.00 46.07 LIG 0.20  C 
ATOM     17 OXT  ASN B 207      -7.740  -1.301 -13.937  1.00 45.13 LIG-0.65  OA
ATOM     18 O    ASN B 207      -6.149  -0.516 -15.024  1.00 48.62 LIG-0.65  OA
ENDBRANCH 15 16
BRANCH 15 19
ATOM     19  CB  ASN B 207      -6.664  -0.805 -11.499  1.00 51.14 LIG 0.14  C 
BRANCH 19 20
ATOM     20  CG  ASN B 207      -6.550  -2.033 -10.654  1.00 56.09 LIG 0.22  C 
ATOM     21 OD1  ASN B 207      -7.529  -2.457 -10.029  1.00 63.46 LIG-0.27  OA
ATOM     22  ND2 ASN B 207      -5.370  -2.659 -10.665  1.00 58.21 LIG-0.37  N 
ATOM     23 22HD ASN B 207      -4.713  -2.330 -11.113  1.00 58.21 LIG 0.16  HD
ATOM     24 21HD ASN B 207      -5.268  -3.390 -10.225  1.00 58.21 LIG 0.16  HD
ENDBRANCH 19 20
ENDBRANCH 15 19
ENDBRANCH 12 15
ENDBRANCH 10 11
BRANCH 10 25
ATOM     25  CB  ARG B 206      -1.559   0.955 -13.565  1.00 29.97 LIG 0.04  C 
BRANCH 25 26
ATOM     26  CG  ARG B 206      -2.049   1.664 -14.826  1.00 35.04 LIG 0.02  C 
BRANCH 26 27
ATOM     27  CD  ARG B 206      -3.197   0.933 -15.545  1.00 34.71 LIG 0.14  C 
BRANCH 27 28
ATOM     28  NE  ARG B 206      -3.083   1.151 -16.985  1.00 36.74 LIG-0.23  N 
ATOM     29 HE   ARG B 206      -2.444   1.650 -17.273  1.00 36.74 LIG 0.18  HD
ATOM     30  CZ  ARG B 206      -3.910   0.622 -17.870  1.00 37.33 LIG 0.67  C 
ATOM     31  NH2 ARG B 206      -3.745   0.828 -19.147  1.00 40.70 LIG-0.23  N 
ATOM     32  NH1 ARG B 206      -4.914  -0.117 -17.466  1.00 35.99 LIG-0.23  N 
ATOM     33 1HH2 ARG B 206      -3.091   1.314 -19.423  1.00 40.70 LIG 0.17  HD
ATOM     34 2HH2 ARG B 206      -4.290   0.478 -19.713  1.00 40.70 LIG 0.17  HD
ATOM     35 1HH1 ARG B 206      -5.034  -0.257 -16.626  1.00 35.99 LIG 0.17  HD
ATOM     36 2HH1 ARG B 206      -5.452  -0.462 -18.041  1.00 35.99 LIG 0.17  HD
ENDBRANCH 27 28
ENDBRANCH 26 27
ENDBRANCH 25 26
ENDBRANCH 10 25
ENDBRANCH 8 10
ENDBRANCH 5 6
BRANCH 5 37
ATOM     37  CB  TYR B 205      -2.184   1.048  -7.553  1.00 37.09 LIG 0.07  C 
BRANCH 37 38
ATOM     38  CG  TYR B 205      -2.281  -0.431  -7.580  1.00 41.64 LIG-0.06  A 
ATOM     39  CD2 TYR B 205      -1.200  -1.208  -7.188  1.00 44.35 LIG 0.01  A 
ATOM     40  CE2 TYR B 205      -1.238  -2.577  -7.281  1.00 49.08 LIG 0.04  A 
ATOM     41  CZ  TYR B 205      -2.361  -3.198  -7.802  1.00 48.61 LIG 0.07  A 
ATOM     42  CE1 TYR B 205      -3.444  -2.450  -8.227  1.00 45.09 LIG 0.04  A 
ATOM     43  CD1 TYR B 205      -3.392  -1.066  -8.136  1.00 43.95 LIG 0.01  A 
BRANCH 41 44
ATOM     44 OH   TYR B 205      -2.373  -4.574  -7.904  1.00 50.49 LIG-0.36  OA
ATOM     45 HH   TYR B 205      -3.157  -4.838  -8.047  1.00 50.49 LIG 0.22  HD
ENDBRANCH 41 44
ENDBRANCH 37 38
ENDBRANCH 5 37
ENDBRANCH 3 5
BRANCH 1 46
ATOM     46  CA  LYS B 204      -1.313   5.503  -8.359  1.00 31.16 LIG 0.18  C 
BRANCH 46 47
ATOM     47  CB  LYS B 204      -2.001   6.297  -9.466  1.00 32.72 LIG 0.04  C 
BRANCH 47 48
ATOM     48  CG  LYS B 204      -3.428   5.855  -9.751  1.00 37.78 LIG 0.00  C 
BRANCH 48 49
ATOM     49  CD  LYS B 204      -3.976   6.687 -10.921  1.00 44.67 LIG 0.03  C 
BRANCH 49 50
ATOM     50  CE  LYS B 204      -2.978   7.769 -11.335  1.00 46.31 LIG 0.23  C 
BRANCH 50 51
ATOM     51  NZ  LYS B 204      -3.010   8.004 -12.801  1.00 49.87 LIG-0.08  N 
ATOM     52 HZ2  LYS B 204      -2.411   7.480 -13.198  1.00 49.87 LIG 0.27  HD
ATOM     53 HZ3  LYS B 204      -3.821   7.815 -13.114  1.00 49.87 LIG 0.27  HD
ATOM     54 HZ1  LYS B 204      -2.817   8.856 -12.969  1.00 49.87 LIG 0.27  HD
ENDBRANCH 50 51
ENDBRANCH 49 50
ENDBRANCH 48 49
ENDBRANCH 47 48
ENDBRANCH 46 47
BRANCH 46 55
ATOM     55  N   LYS B 204      -0.023   6.107  -7.962  1.00 28.52 LIG-0.35  N 
ATOM     56 H    LYS B 204       0.465   6.345  -8.629  1.00 28.52 LIG 0.16  HD
ATOM     57  C   LYS B 203       0.347   6.268  -6.703  1.00 30.36 LIG 0.24  C 
ATOM     58 O    LYS B 203      -0.316   5.851  -5.726  1.00 32.75 LIG-0.27  OA
BRANCH 57 59
ATOM     59  CA  LYS B 203       1.644   7.066  -6.485  1.00 29.12 LIG 0.18  C 
BRANCH 59 60
ATOM     60  CB  LYS B 203       2.696   6.215  -5.750  1.00 27.59 LIG 0.04  C 
BRANCH 60 61
ATOM     61  CG  LYS B 203       4.121   6.662  -5.952  1.00 28.85 LIG 0.00  C 
BRANCH 61 62
ATOM     62  CD  LYS B 203       5.117   5.575  -5.500  1.00 30.56 LIG 0.03  C 
BRANCH 62 63
ATOM     63  CE  LYS B 203       6.011   6.114  -4.359  1.00 30.34 LIG 0.23  C 
BRANCH 63 64
ATOM     64  NZ  LYS B 203       6.996   5.117  -3.785  1.00 29.96 LIG-0.08  N 
ATOM     65 HZ2  LYS B 203       6.595   4.630  -3.158  1.00 29.96 LIG 0.27  HD
ATOM     66 HZ3  LYS B 203       7.289   4.582  -4.433  1.00 29.96 LIG 0.27  HD
ATOM     67 HZ1  LYS B 203       7.684   5.553  -3.426  1.00 29.96 LIG 0.27  HD
ENDBRANCH 63 64
ENDBRANCH 62 63
ENDBRANCH 61 62
ENDBRANCH 60 61
ENDBRANCH 59 60
BRANCH 59 68
ATOM     68  N   LYS B 203       1.282   8.251  -5.726  1.00 32.23 LIG-0.35  N 
ATOM     69  C   ALA B 202       1.782   9.429  -6.077  1.00 35.90 LIG 0.24  C 
ATOM     70 O    ALA B 202       2.563   9.541  -7.015  1.00 35.09 LIG-0.27  OA
ATOM     71 H    LYS B 203       0.743   8.118  -5.068  1.00 32.23 LIG 0.16  HD
BRANCH 69 72
ATOM     72  CA  ALA B 202       1.433  10.668  -5.232  1.00 40.49 LIG 0.17  C 
ATOM     73  CB  ALA B 202       2.450  10.831  -4.095  1.00 40.15 LIG 0.04  C 
BRANCH 72 74
ATOM     74  N   ALA B 202       0.058  10.711  -4.727  1.00 44.85 LIG-0.35  N 
ATOM     75  C   VAL B 201      -0.866  11.383  -5.419  1.00 49.40 LIG 0.26  C 
ATOM     76 O    VAL B 201      -0.596  12.074  -6.426  1.00 49.68 LIG-0.27  OA
ATOM     77 H    ALA B 202      -0.082  10.289  -3.991  1.00 44.85 LIG 0.16  HD
BRANCH 75 78
ATOM     78  CA  VAL B 201      -2.297  11.259  -4.956  1.00 53.79 LIG 0.40  C 
ATOM     79  N   VAL B 201      -2.944  12.595  -5.083  1.00 59.48 LIG 0.61  N 
BRANCH 78 80
ATOM     80  CB  VAL B 201      -2.991  10.168  -5.851  1.00 53.10 LIG 0.03  C 
ATOM     81  CG1 VAL B 201      -3.713  10.789  -7.059  1.00 58.27 LIG 0.01  C 
ATOM     82  CG2 VAL B 201      -1.967   9.093  -6.314  1.00 52.00 LIG 0.01  C 
ENDBRANCH 78 80
ENDBRANCH 75 78
ENDBRANCH 72 74
ENDBRANCH 69 72
ENDBRANCH 59 68
ENDBRANCH 57 59
ENDBRANCH 46 55
ENDBRANCH 1 46
TORSDOF 33
ENDMDL
MODEL 4
USER: ADFR SOLUTION from run 74
USER: SCORE 26.153141 LL:  -5.718 LR: -22.089 RR:   0.000 FEB: -12.245
USER: RMSD 2.721893
USER: SEED 73
USER: STATUS searching
USER: GENES 35
USER: genes 0 Translation |==|  0.45313 0.53288 0.58588
USER: genes 1 Rotation |==|  0.48575 0.45110 0.47722 0.99688
USER: genes 2 Torsion [C]-N--CA-[C] |==|  0.75495
USER: genes 3 Torsion [N]-CA--C-[N] |==|  0.29499
USER: genes 4 Torsion [C]-N--CA-[CB] |==|  0.49557
USER: genes 5 Torsion [N]-CA--C-[N] |==|  0.36702
USER: genes 6 Torsion [C]-N--CA-[C] |==|  0.56818
USER: genes 7 Torsion [N]-CA--C-[OXT] |==|  0.05035
USER: genes 8 Torsion [N]-CA--CB-[CG] |==|  0.70990
USER: genes 9 Torsion [CA]-CB--CG-[OD1] |==|  0.25927
USER: genes 10 Torsion [N]-CA--CB-[CG] |==|  0.44691
USER: genes 11 Torsion [CA]-CB--CG-[CD] |==|  0.21312
USER: genes 12 Torsion [CB]-CG--CD-[NE] |==|  0.62606
USER: genes 13 Torsion [CG]-CD--NE-[HE] |==|  0.19332
USER: genes 14 Torsion [N]-CA--CB-[CG] |==|  0.53168
USER: genes 15 Torsion [CA]-CB--CG-[CD2] |==|  0.13572
USER: genes 16 Torsion [CE2]-CZ--OH-[HH] |==|  0.43387
USER: genes 17 Torsion [N]-C--CA-[N] |==|  0.37929
USER: genes 18 Torsion [C]-CA--CB-[CG] |==|  0.30344
USER: genes 19 Torsion [CA]-CB--CG-[CD] |==|  0.54940
USER: genes 20 Torsion [CB]-CG--CD-[CE] |==|  0.82979
USER: genes 21 Torsion [CG]-CD--CE-[NZ] |==|  0.33490
USER: genes 22 Torsion [CD]-CE--NZ-[HZ2] |==|  0.46208
USER: genes 23 Torsion [C]-CA--N-[C] |==|  0.74025
USER: genes 24 Torsion [N]-C--CA-[N] |==|  0.30660
USER: genes 25 Torsion [C]-CA--CB-[CG] |==|  0.37866
USER: genes 26 Torsion [CA]-CB--CG-[CD] |==|  0.26969
USER: genes 27 Torsion [CB]-CG--CD-[CE] |==|  0.25522
USER: genes 28 Torsion [CG]-CD--CE-[NZ] |==|  0.28893
USER: genes 29 Torsion [CD]-CE--NZ-[HZ2] |==|  0.58062
USER: genes 30 Torsion [C]-CA--N-[C] |==|  0.65827
USER: genes 31 Torsion [N]-C--CA-[N] |==|  0.16579
USER: genes 32 Torsion [C]-CA--N-[C] |==|  0.14599
USER: genes 33 Torsion [N]-C--CA-[N] |==|  0.40977
USER: genes 34 Torsion [C]-CA--CB-[CG1] |==|  0.97101
ROOT
ATOM      1  C   LYS B 204      -0.941   4.044  -9.111  1.00 29.43 LIG 0.24  C 
ATOM      2 O    LYS B 204       0.077   3.827  -9.796  1.00 26.08 LIG-0.27  OA
ATOM      3  N   TYR B 205      -1.822   3.136  -8.758  1.00 31.29 LIG-0.35  N 
ATOM      4 H    TYR B 205      -2.515   3.317  -8.282  1.00 31.29 LIG 0.16  HD
ENDROOT
BRANCH 3 5
ATOM      5  CA  TYR B 205      -1.728   1.750  -9.126  1.00 33.02 LIG 0.18  C 
BRANCH 5 6
ATOM      6  C   TYR B 205      -2.445   1.686 -10.480  1.00 33.21 LIG 0.24  C 
ATOM      7 O    TYR B 205      -3.651   1.837 -10.529  1.00 35.15 LIG-0.27  OA
ATOM      8  N   ARG B 206      -1.710   1.543 -11.580  1.00 31.57 LIG-0.35  N 
ATOM      9 H    ARG B 206      -0.851   1.552 -11.598  1.00 31.57 LIG 0.16  HD
BRANCH 8 10
ATOM     10  CA  ARG B 206      -2.358   1.355 -12.887  1.00 33.28 LIG 0.18  C 
BRANCH 10 11
ATOM     11  C   ARG B 206      -3.315   0.139 -12.884  1.00 36.59 LIG 0.24  C 
ATOM     12  N   ASN B 207      -4.534   0.331 -13.395  1.00 40.84 LIG-0.34  N 
ATOM     13 H    ASN B 207      -4.842   1.096 -13.640  1.00 40.84 LIG 0.16  HD
ATOM     14 O    ARG B 206      -2.967  -0.961 -12.394  1.00 36.06 LIG-0.27  OA
BRANCH 12 15
ATOM     15  CA  ASN B 207      -5.467  -0.800 -13.579  1.00 46.04 LIG 0.19  C 
BRANCH 15 16
ATOM     16  C   ASN B 207      -6.510  -0.560 -14.656  1.00 46.07 LIG 0.20  C 
ATOM     17 OXT  ASN B 207      -6.368   0.306 -15.503  1.00 45.13 LIG-0.65  OA
ATOM     18 O    ASN B 207      -7.537  -1.204 -14.677  1.00 48.62 LIG-0.65  OA
ENDBRANCH 15 16
BRANCH 15 19
ATOM     19  CB  ASN B 207      -6.203  -1.144 -12.285  1.00 51.14 LIG 0.14  C 
BRANCH 19 20
ATOM     20  CG  ASN B 207      -5.659  -2.384 -11.652  1.00 56.09 LIG 0.22  C 
ATOM     21 OD1  ASN B 207      -4.777  -2.312 -10.788  1.00 63.46 LIG-0.27  OA
ATOM     22  ND2 ASN B 207      -6.215  -3.539 -12.026  1.00 58.21 LIG-0.37  N 
ATOM     23 22HD ASN B 207      -6.827  -3.546 -12.631  1.00 58.21 LIG 0.16  HD
ATOM     24 21HD ASN B 207      -5.963  -4.275 -11.661  1.00 58.21 LIG 0.16  HD
ENDBRANCH 19 20
ENDBRANCH 15 19
ENDBRANCH 12 15
ENDBRANCH 10 11
BRANCH 10 25
ATOM     25  CB  ARG B 206      -1.320   1.254 -14.007  1.00 29.97 LIG 0.04  C 
BRANCH 25 26
ATOM     26  CG  ARG B 206      -1.913   0.605 -15.256  1.00 35.04 LIG 0.02  C 
BRANCH 26 27
ATOM     27  CD  ARG B 206      -2.816   1.543 -16.075  1.00 34.71 LIG 0.14  C 
BRANCH 27 28
ATOM     28  NE  ARG B 206      -4.038   0.834 -16.449  1.00 36.74 LIG-0.23  N 
ATOM     29 HE   ARG B 206      -4.603   0.643 -15.830  1.00 36.74 LIG 0.18  HD
ATOM     30  CZ  ARG B 206      -4.319   0.472 -17.689  1.00 37.33 LIG 0.67  C 
ATOM     31  NH2 ARG B 206      -5.439  -0.135 -17.970  1.00 40.70 LIG-0.23  N 
ATOM     32  NH1 ARG B 206      -3.466   0.719 -18.652  1.00 35.99 LIG-0.23  N 
ATOM     33 1HH2 ARG B 206      -6.005  -0.305 -17.345  1.00 40.70 LIG 0.17  HD
ATOM     34 2HH2 ARG B 206      -5.611  -0.367 -18.780  1.00 40.70 LIG 0.17  HD
ATOM     35 1HH1 ARG B 206      -2.723   1.116 -18.477  1.00 35.99 LIG 0.17  HD
ATOM     36 2HH1 ARG B 206      -3.649   0.483 -19.458  1.00 35.99 LIG 0.17  HD
ENDBRANCH 27 28
ENDBRANCH 26 27
ENDBRANCH 25 26
ENDBRANCH 10 25
ENDBRANCH 8 10
ENDBRANCH 5 6
BRANCH 5 37
ATOM     37  CB  TYR B 205      -2.495   1.015  -8.039  1.00 37.09 LIG 0.07  C 
BRANCH 37 38
ATOM     38  CG  TYR B 205      -2.414  -0.462  -7.930  1.00 41.64 LIG-0.06  A 
ATOM     39  CD2 TYR B 205      -1.180  -1.096  -7.944  1.00 44.35 LIG 0.01  A 
ATOM     40  CE2 TYR B 205      -1.084  -2.465  -7.926  1.00 49.08 LIG 0.04  A 
ATOM     41  CZ  TYR B 205      -2.237  -3.233  -7.922  1.00 48.61 LIG 0.07  A 
ATOM     42  CE1 TYR B 205      -3.482  -2.632  -7.936  1.00 45.09 LIG 0.04  A 
ATOM     43  CD1 TYR B 205      -3.568  -1.247  -7.962  1.00 43.95 LIG 0.01  A 
BRANCH 41 44
ATOM     44 OH   TYR B 205      -2.120  -4.608  -7.922  1.00 50.49 LIG-0.36  OA
ATOM     45 HH   TYR B 205      -2.816  -4.949  -7.600  1.00 50.49 LIG 0.22  HD
ENDBRANCH 41 44
ENDBRANCH 37 38
ENDBRANCH 5 37
ENDBRANCH 3 5
BRANCH 1 46
ATOM     46  CA  LYS B 204      -1.229   5.401  -8.562  1.00 31.16 LIG 0.18  C 
BRANCH 46 47
ATOM     47  CB  LYS B 204      -1.813   6.218  -9.710  1.00 32.72 LIG 0.04  C 
BRANCH 47 48
ATOM     48  CG  LYS B 204      -3.297   6.520  -9.565  1.00 37.78 LIG 0.00  C 
BRANCH 48 49
ATOM     49  CD  LYS B 204      -3.851   6.932 -10.937  1.00 44.67 LIG 0.03  C 
BRANCH 49 50
ATOM     50  CE  LYS B 204      -3.157   8.194 -11.449  1.00 46.31 LIG 0.23  C 
BRANCH 50 51
ATOM     51  NZ  LYS B 204      -2.480   7.952 -12.748  1.00 49.87 LIG-0.08  N 
ATOM     52 HZ2  LYS B 204      -2.258   8.730 -13.117  1.00 49.87 LIG 0.27  HD
ATOM     53 HZ3  LYS B 204      -1.745   7.468 -12.613  1.00 49.87 LIG 0.27  HD
ATOM     54 HZ1  LYS B 204      -3.030   7.512 -13.292  1.00 49.87 LIG 0.27  HD
ENDBRANCH 50 51
ENDBRANCH 49 50
ENDBRANCH 48 49
ENDBRANCH 47 48
ENDBRANCH 46 47
BRANCH 46 55
ATOM     55  N   LYS B 204       0.050   5.961  -8.076  1.00 28.52 LIG-0.35  N 
ATOM     56 H    LYS B 204       0.502   6.366  -8.686  1.00 28.52 LIG 0.16  HD
ATOM     57  C   LYS B 203       0.463   5.852  -6.825  1.00 30.36 LIG 0.24  C 
ATOM     58 O    LYS B 203      -0.143   5.194  -5.949  1.00 32.75 LIG-0.27  OA
BRANCH 57 59
ATOM     59  CA  LYS B 203       1.735   6.642  -6.470  1.00 29.12 LIG 0.18  C 
BRANCH 59 60
ATOM     60  CB  LYS B 203       2.782   5.727  -5.807  1.00 27.59 LIG 0.04  C 
BRANCH 60 61
ATOM     61  CG  LYS B 203       4.192   5.921  -6.304  1.00 28.85 LIG 0.00  C 
BRANCH 61 62
ATOM     62  CD  LYS B 203       4.991   6.851  -5.368  1.00 30.56 LIG 0.03  C 
BRANCH 62 63
ATOM     63  CE  LYS B 203       5.736   6.017  -4.300  1.00 30.34 LIG 0.23  C 
BRANCH 63 64
ATOM     64  NZ  LYS B 203       7.224   5.855  -4.530  1.00 29.96 LIG-0.08  N 
ATOM     65 HZ2  LYS B 203       7.496   5.085  -4.177  1.00 29.96 LIG 0.27  HD
ATOM     66 HZ3  LYS B 203       7.391   5.856  -5.404  1.00 29.96 LIG 0.27  HD
ATOM     67 HZ1  LYS B 203       7.659   6.528  -4.143  1.00 29.96 LIG 0.27  HD
ENDBRANCH 63 64
ENDBRANCH 62 63
ENDBRANCH 61 62
ENDBRANCH 60 61
ENDBRANCH 59 60
BRANCH 59 68
ATOM     68  N   LYS B 203       1.323   7.719  -5.588  1.00 32.23 LIG-0.35  N 
ATOM     69  C   ALA B 202       1.593   8.976  -5.922  1.00 35.90 LIG 0.24  C 
ATOM     70 O    ALA B 202       2.202   9.250  -6.949  1.00 35.09 LIG-0.27  OA
ATOM     71 H    LYS B 203       0.912   7.475  -4.872  1.00 32.23 LIG 0.16  HD
BRANCH 69 72
ATOM     72  CA  ALA B 202       1.198  10.105  -4.952  1.00 40.49 LIG 0.17  C 
ATOM     73  CB  ALA B 202       1.453  11.470  -5.605  1.00 40.15 LIG 0.04  C 
BRANCH 72 74
ATOM     74  N   ALA B 202       1.809  10.027  -3.623  1.00 44.85 LIG-0.35  N 
ATOM     75  C   VAL B 201       3.136   9.907  -3.525  1.00 49.40 LIG 0.26  C 
ATOM     76 O    VAL B 201       3.881   9.747  -4.516  1.00 49.68 LIG-0.27  OA
ATOM     77 H    ALA B 202       1.263  10.064  -2.959  1.00 44.85 LIG 0.16  HD
BRANCH 75 78
ATOM     78  CA  VAL B 201       3.735  10.002  -2.142  1.00 53.79 LIG 0.40  C 
ATOM     79  N   VAL B 201       4.934   9.120  -2.094  1.00 59.48 LIG 0.61  N 
BRANCH 78 80
ATOM     80  CB  VAL B 201       4.089  11.512  -1.884  1.00 53.10 LIG 0.03  C 
ATOM     81  CG1 VAL B 201       3.970  12.359  -3.163  1.00 58.27 LIG 0.01  C 
ATOM     82  CG2 VAL B 201       3.208  12.105  -0.747  1.00 52.00 LIG 0.01  C 
ENDBRANCH 78 80
ENDBRANCH 75 78
ENDBRANCH 72 74
ENDBRANCH 69 72
ENDBRANCH 59 68
ENDBRANCH 57 59
ENDBRANCH 46 55
ENDBRANCH 1 46
TORSDOF 33
ENDMDL
MODEL 5
USER: ADFR SOLUTION from run 20
USER: SCORE 25.659128 LL:  -6.702 LR: -21.666 RR:   0.000 FEB: -11.822
USER: RMSD 4.192237
USER: SEED 19
USER: STATUS no improvement in best in 6 clusters for 5 generations
USER: GENES 35
USER: genes 0 Translation |==|  0.46239 0.53043 0.58830
USER: genes 1 Rotation |==|  0.48990 0.50244 0.50762 0.99983
USER: genes 2 Torsion [C]-N--CA-[C] |==|  0.71729
USER: genes 3 Torsion [N]-CA--C-[N] |==|  0.32948
USER: genes 4 Torsion [C]-N--CA-[CB] |==|  0.43311
USER: genes 5 Torsion [N]-CA--C-[N] |==|  0.25470
USER: genes 6 Torsion [C]-N--CA-[C] |==|  0.79715
USER: genes 7 Torsion [N]-CA--C-[OXT] |==|  0.39662
USER: genes 8 Torsion [N]-CA--CB-[CG] |==|  0.36687
USER: genes 9 Torsion [CA]-CB--CG-[OD1] |==|  0.75840
USER: genes 10 Torsion [N]-CA--CB-[CG] |==|  0.46714
USER: genes 11 Torsion [CA]-CB--CG-[CD] |==|  0.19877
USER: genes 12 Torsion [CB]-CG--CD-[NE] |==|  0.74374
USER: genes 13 Torsion [CG]-CD--NE-[HE] |==|  0.85910
USER: genes 14 Torsion [N]-CA--CB-[CG] |==|  0.45963
USER: genes 15 Torsion [CA]-CB--CG-[CD2] |==|  0.75388
USER: genes 16 Torsion [CE2]-CZ--OH-[HH] |==|  0.02674
USER: genes 17 Torsion [N]-C--CA-[N] |==|  0.29661
USER: genes 18 Torsion [C]-CA--CB-[CG] |==|  0.35446
USER: genes 19 Torsion [CA]-CB--CG-[CD] |==|  0.44627
USER: genes 20 Torsion [CB]-CG--CD-[CE] |==|  0.29313
USER: genes 21 Torsion [CG]-CD--CE-[NZ] |==|  0.71853
USER: genes 22 Torsion [CD]-CE--NZ-[HZ2] |==|  0.75048
USER: genes 23 Torsion [C]-CA--N-[C] |==|  0.77769
USER: genes 24 Torsion [N]-C--CA-[N] |==|  0.53212
USER: genes 25 Torsion [C]-CA--CB-[CG] |==|  0.49021
USER: genes 26 Torsion [CA]-CB--CG-[CD] |==|  0.28487
USER: genes 27 Torsion [CB]-CG--CD-[CE] |==|  0.53259
USER: genes 28 Torsion [CG]-CD--CE-[NZ] |==|  0.55847
USER: genes 29 Torsion [CD]-CE--NZ-[HZ2] |==|  0.22129
USER: genes 30 Torsion [C]-CA--N-[C] |==|  0.61630
USER: genes 31 Torsion [N]-C--CA-[N] |==|  0.00820
USER: genes 32 Torsion [C]-CA--N-[C] |==|  0.70261
USER: genes 33 Torsion [N]-C--CA-[N] |==|  0.42020
USER: genes 34 Torsion [C]-CA--CB-[CG1] |==|  0.58893
ROOT
ATOM      1  C   LYS B 204      -0.719   3.983  -9.049  1.00 29.43 LIG 0.24  C 
ATOM      2 O    LYS B 204       0.154   3.889  -9.934  1.00 26.08 LIG-0.27  OA
ATOM      3  N   TYR B 205      -1.397   2.977  -8.547  1.00 31.29 LIG-0.35  N 
ATOM      4 H    TYR B 205      -1.992   3.075  -7.934  1.00 31.29 LIG 0.16  HD
ENDROOT
BRANCH 3 5
ATOM      5  CA  TYR B 205      -1.223   1.613  -8.963  1.00 33.02 LIG 0.18  C 
BRANCH 5 6
ATOM      6  C   TYR B 205      -2.417   1.362  -9.891  1.00 33.21 LIG 0.24  C 
ATOM      7 O    TYR B 205      -3.548   1.524  -9.474  1.00 35.15 LIG-0.27  OA
ATOM      8  N   ARG B 206      -2.177   1.049 -11.162  1.00 31.57 LIG-0.35  N 
ATOM      9 H    ARG B 206      -1.397   1.041 -11.525  1.00 31.57 LIG 0.16  HD
BRANCH 8 10
ATOM     10  CA  ARG B 206      -3.283   0.682 -12.059  1.00 33.28 LIG 0.18  C 
BRANCH 10 11
ATOM     11  C   ARG B 206      -3.745  -0.778 -11.834  1.00 36.59 LIG 0.24  C 
ATOM     12  N   ASN B 207      -4.734  -0.968 -10.956  1.00 40.84 LIG-0.34  N 
ATOM     13 H    ASN B 207      -5.063  -0.351 -10.456  1.00 40.84 LIG 0.16  HD
ATOM     14 O    ARG B 206      -3.191  -1.734 -12.426  1.00 36.06 LIG-0.27  OA
BRANCH 12 15
ATOM     15  CA  ASN B 207      -5.350  -2.300 -10.783  1.00 46.04 LIG 0.19  C 
BRANCH 15 16
ATOM     16  C   ASN B 207      -6.247  -2.711 -11.937  1.00 46.07 LIG 0.20  C 
ATOM     17 OXT  ASN B 207      -6.296  -3.864 -12.330  1.00 45.13 LIG-0.65  OA
ATOM     18 O    ASN B 207      -6.915  -1.887 -12.526  1.00 48.62 LIG-0.65  OA
ENDBRANCH 15 16
BRANCH 15 19
ATOM     19  CB  ASN B 207      -6.174  -2.380  -9.500  1.00 51.14 LIG 0.14  C 
BRANCH 19 20
ATOM     20  CG  ASN B 207      -7.523  -2.974  -9.744  1.00 56.09 LIG 0.22  C 
ATOM     21 OD1  ASN B 207      -8.470  -2.258 -10.092  1.00 63.46 LIG-0.27  OA
ATOM     22  ND2 ASN B 207      -7.624  -4.300  -9.623  1.00 58.21 LIG-0.37  N 
ATOM     23 22HD ASN B 207      -6.941  -4.763  -9.378  1.00 58.21 LIG 0.16  HD
ATOM     24 21HD ASN B 207      -8.370  -4.692  -9.791  1.00 58.21 LIG 0.16  HD
ENDBRANCH 19 20
ENDBRANCH 15 19
ENDBRANCH 12 15
ENDBRANCH 10 11
BRANCH 10 25
ATOM     25  CB  ARG B 206      -2.915   0.938 -13.522  1.00 29.97 LIG 0.04  C 
BRANCH 25 26
ATOM     26  CG  ARG B 206      -3.927   0.297 -14.470  1.00 35.04 LIG 0.02  C 
BRANCH 26 27
ATOM     27  CD  ARG B 206      -5.293   1.005 -14.491  1.00 34.71 LIG 0.14  C 
BRANCH 27 28
ATOM     28  NE  ARG B 206      -6.180   0.377 -13.514  1.00 36.74 LIG-0.23  N 
ATOM     29 HE   ARG B 206      -6.265  -0.479 -13.533  1.00 36.74 LIG 0.18  HD
ATOM     30  CZ  ARG B 206      -6.857   1.055 -12.604  1.00 37.33 LIG 0.67  C 
ATOM     31  NH2 ARG B 206      -7.613   0.439 -11.738  1.00 40.70 LIG-0.23  N 
ATOM     32  NH1 ARG B 206      -6.776   2.362 -12.567  1.00 35.99 LIG-0.23  N 
ATOM     33 1HH2 ARG B 206      -7.676  -0.418 -11.754  1.00 40.70 LIG 0.17  HD
ATOM     34 2HH2 ARG B 206      -8.049   0.891 -11.150  1.00 40.70 LIG 0.17  HD
ATOM     35 1HH1 ARG B 206      -6.282   2.779 -13.135  1.00 35.99 LIG 0.17  HD
ATOM     36 2HH1 ARG B 206      -7.216   2.803 -11.975  1.00 35.99 LIG 0.17  HD
ENDBRANCH 27 28
ENDBRANCH 26 27
ENDBRANCH 25 26
ENDBRANCH 10 25
ENDBRANCH 8 10
ENDBRANCH 5 6
BRANCH 5 37
ATOM     37  CB  TYR B 205      -1.322   0.807  -7.678  1.00 37.09 LIG 0.07  C 
BRANCH 37 38
ATOM     38  CG  TYR B 205      -1.512  -0.662  -7.724  1.00 41.64 LIG-0.06  A 
ATOM     39  CD2 TYR B 205      -2.791  -1.200  -7.771  1.00 44.35 LIG 0.01  A 
ATOM     40  CE2 TYR B 205      -2.993  -2.557  -7.732  1.00 49.08 LIG 0.04  A 
ATOM     41  CZ  TYR B 205      -1.907  -3.409  -7.617  1.00 48.61 LIG 0.07  A 
ATOM     42  CE1 TYR B 205      -0.623  -2.904  -7.540  1.00 45.09 LIG 0.04  A 
ATOM     43  CD1 TYR B 205      -0.429  -1.530  -7.572  1.00 43.95 LIG 0.01  A 
BRANCH 41 44
ATOM     44 OH   TYR B 205      -2.132  -4.770  -7.561  1.00 50.49 LIG-0.36  OA
ATOM     45 HH   TYR B 205      -2.937  -4.928  -7.739  1.00 50.49 LIG 0.22  HD
ENDBRANCH 41 44
ENDBRANCH 37 38
ENDBRANCH 5 37
ENDBRANCH 3 5
BRANCH 1 46
ATOM     46  CA  LYS B 204      -1.041   5.295  -8.417  1.00 31.16 LIG 0.18  C 
BRANCH 46 47
ATOM     47  CB  LYS B 204      -1.248   6.287  -9.558  1.00 32.72 LIG 0.04  C 
BRANCH 47 48
ATOM     48  CG  LYS B 204      -2.561   7.053  -9.483  1.00 37.78 LIG 0.00  C 
BRANCH 48 49
ATOM     49  CD  LYS B 204      -2.444   8.313 -10.353  1.00 44.67 LIG 0.03  C 
BRANCH 49 50
ATOM     50  CE  LYS B 204      -3.234   8.154 -11.653  1.00 46.31 LIG 0.23  C 
BRANCH 50 51
ATOM     51  NZ  LYS B 204      -2.341   7.829 -12.794  1.00 49.87 LIG-0.08  N 
ATOM     52 HZ2  LYS B 204      -2.065   8.582 -13.178  1.00 49.87 LIG 0.27  HD
ATOM     53 HZ3  LYS B 204      -1.637   7.372 -12.499  1.00 49.87 LIG 0.27  HD
ATOM     54 HZ1  LYS B 204      -2.785   7.338 -13.388  1.00 49.87 LIG 0.27  HD
ENDBRANCH 50 51
ENDBRANCH 49 50
ENDBRANCH 48 49
ENDBRANCH 47 48
ENDBRANCH 46 47
BRANCH 46 55
ATOM     55  N   LYS B 204       0.107   5.666  -7.561  1.00 28.52 LIG-0.35  N 
ATOM     56 H    LYS B 204       0.637   6.237  -7.926  1.00 28.52 LIG 0.16  HD
ATOM     57  C   LYS B 203       0.302   5.170  -6.351  1.00 30.36 LIG 0.24  C 
ATOM     58 O    LYS B 203      -0.416   4.278  -5.844  1.00 32.75 LIG-0.27  OA
BRANCH 57 59
ATOM     59  CA  LYS B 203       1.453   5.799  -5.548  1.00 29.12 LIG 0.18  C 
BRANCH 59 60
ATOM     60  CB  LYS B 203       2.720   5.929  -6.414  1.00 27.59 LIG 0.04  C 
BRANCH 60 61
ATOM     61  CG  LYS B 203       3.879   6.613  -5.736  1.00 28.85 LIG 0.00  C 
BRANCH 61 62
ATOM     62  CD  LYS B 203       4.934   5.590  -5.266  1.00 30.56 LIG 0.03  C 
BRANCH 62 63
ATOM     63  CE  LYS B 203       5.954   6.273  -4.326  1.00 30.34 LIG 0.23  C 
BRANCH 63 64
ATOM     64  NZ  LYS B 203       7.284   5.561  -4.191  1.00 29.96 LIG-0.08  N 
ATOM     65 HZ2  LYS B 203       7.794   5.747  -4.896  1.00 29.96 LIG 0.27  HD
ATOM     66 HZ3  LYS B 203       7.693   5.833  -3.449  1.00 29.96 LIG 0.27  HD
ATOM     67 HZ1  LYS B 203       7.147   4.682  -4.148  1.00 29.96 LIG 0.27  HD
ENDBRANCH 63 64
ENDBRANCH 62 63
ENDBRANCH 61 62
ENDBRANCH 60 61
ENDBRANCH 59 60
BRANCH 59 68
ATOM     68  N   LYS B 203       1.672   4.944  -4.395  1.00 32.23 LIG-0.35  N 
ATOM     69  C   ALA B 202       1.895   5.495  -3.207  1.00 35.90 LIG 0.24  C 
ATOM     70 O    ALA B 202       1.943   6.711  -3.063  1.00 35.09 LIG-0.27  OA
ATOM     71 H    LYS B 203       1.644   4.099  -4.550  1.00 32.23 LIG 0.16  HD
BRANCH 69 72
ATOM     72  CA  ALA B 202       2.180   4.578  -2.003  1.00 40.49 LIG 0.17  C 
ATOM     73  CB  ALA B 202       3.444   5.049  -1.273  1.00 40.15 LIG 0.04  C 
BRANCH 72 74
ATOM     74  N   ALA B 202       2.243   3.147  -2.310  1.00 44.85 LIG-0.35  N 
ATOM     75  C   VAL B 201       1.237   2.357  -1.924  1.00 49.40 LIG 0.26  C 
ATOM     76 O    VAL B 201       0.288   2.757  -1.215  1.00 49.68 LIG-0.27  OA
ATOM     77 H    ALA B 202       2.945   2.887  -2.733  1.00 44.85 LIG 0.16  HD
BRANCH 75 78
ATOM     78  CA  VAL B 201       1.263   0.927  -2.408  1.00 53.79 LIG 0.40  C 
ATOM     79  N   VAL B 201       0.564   0.082  -1.399  1.00 59.48 LIG 0.61  N 
BRANCH 78 80
ATOM     80  CB  VAL B 201       0.557   0.891  -3.813  1.00 53.10 LIG 0.03  C 
ATOM     81  CG1 VAL B 201      -0.175  -0.440  -4.056  1.00 58.27 LIG 0.01  C 
ATOM     82  CG2 VAL B 201      -0.417   2.093  -3.979  1.00 52.00 LIG 0.01  C 
ENDBRANCH 78 80
ENDBRANCH 75 78
ENDBRANCH 72 74
ENDBRANCH 69 72
ENDBRANCH 59 68
ENDBRANCH 57 59
ENDBRANCH 46 55
ENDBRANCH 1 46
TORSDOF 33
ENDMDL
MODEL 6
USER: ADFR SOLUTION from run 20
USER: SCORE 25.260979 LL:  -6.220 LR: -21.481 RR:   0.000 FEB: -11.637
USER: RMSD 4.056521
USER: SEED 19
USER: STATUS no improvement in best in 6 clusters for 5 generations
USER: GENES 35
USER: genes 0 Translation |==|  0.46274 0.53038 0.58850
USER: genes 1 Rotation |==|  0.48984 0.50401 0.50718 0.99983
USER: genes 2 Torsion [C]-N--CA-[C] |==|  0.71810
USER: genes 3 Torsion [N]-CA--C-[N] |==|  0.32897
USER: genes 4 Torsion [C]-N--CA-[CB] |==|  0.43254
USER: genes 5 Torsion [N]-CA--C-[N] |==|  0.25520
USER: genes 6 Torsion [C]-N--CA-[C] |==|  0.79704
USER: genes 7 Torsion [N]-CA--C-[OXT] |==|  0.39664
USER: genes 8 Torsion [N]-CA--CB-[CG] |==|  0.36708
USER: genes 9 Torsion [CA]-CB--CG-[OD1] |==|  0.75852
USER: genes 10 Torsion [N]-CA--CB-[CG] |==|  0.46718
USER: genes 11 Torsion [CA]-CB--CG-[CD] |==|  0.19892
USER: genes 12 Torsion [CB]-CG--CD-[NE] |==|  0.74334
USER: genes 13 Torsion [CG]-CD--NE-[HE] |==|  0.85843
USER: genes 14 Torsion [N]-CA--CB-[CG] |==|  0.45885
USER: genes 15 Torsion [CA]-CB--CG-[CD2] |==|  0.75347
USER: genes 16 Torsion [CE2]-CZ--OH-[HH] |==|  0.02591
USER: genes 17 Torsion [N]-C--CA-[N] |==|  0.31388
USER: genes 18 Torsion [C]-CA--CB-[CG] |==|  0.35381
USER: genes 19 Torsion [CA]-CB--CG-[CD] |==|  0.44907
USER: genes 20 Torsion [CB]-CG--CD-[CE] |==|  0.27247
USER: genes 21 Torsion [CG]-CD--CE-[NZ] |==|  0.68417
USER: genes 22 Torsion [CD]-CE--NZ-[HZ2] |==|  0.42794
USER: genes 23 Torsion [C]-CA--N-[C] |==|  0.79750
USER: genes 24 Torsion [N]-C--CA-[N] |==|  0.48559
USER: genes 25 Torsion [C]-CA--CB-[CG] |==|  0.50395
USER: genes 26 Torsion [CA]-CB--CG-[CD] |==|  0.24297
USER: genes 27 Torsion [CB]-CG--CD-[CE] |==|  0.49470
USER: genes 28 Torsion [CG]-CD--CE-[NZ] |==|  0.49613
USER: genes 29 Torsion [CD]-CE--NZ-[HZ2] |==|  0.22986
USER: genes 30 Torsion [C]-CA--N-[C] |==|  0.59412
USER: genes 31 Torsion [N]-C--CA-[N] |==|  0.46005
USER: genes 32 Torsion [C]-CA--N-[C] |==|  0.76871
USER: genes 33 Torsion [N]-C--CA-[N] |==|  0.43636
USER: genes 34 Torsion [C]-CA--CB-[CG1] |==|  0.58588
ROOT
ATOM      1  C   LYS B 204      -0.710   3.982  -9.044  1.00 29.43 LIG 0.24  C 
ATOM      2 O    LYS B 204       0.156   3.886  -9.934  1.00 26.08 LIG-0.27  OA
ATOM      3  N   TYR B 205      -1.388   2.977  -8.537  1.00 31.29 LIG-0.35  N 
ATOM      4 H    TYR B 205      -1.979   3.076  -7.920  1.00 31.29 LIG 0.16  HD
ENDROOT
BRANCH 3 5
ATOM      5  CA  TYR B 205      -1.219   1.613  -8.953  1.00 33.02 LIG 0.18  C 
BRANCH 5 6
ATOM      6  C   TYR B 205      -2.415   1.366  -9.880  1.00 33.21 LIG 0.24  C 
ATOM      7 O    TYR B 205      -3.545   1.529  -9.460  1.00 35.15 LIG-0.27  OA
ATOM      8  N   ARG B 206      -2.178   1.056 -11.153  1.00 31.57 LIG-0.35  N 
ATOM      9 H    ARG B 206      -1.399   1.048 -11.517  1.00 31.57 LIG 0.16  HD
BRANCH 8 10
ATOM     10  CA  ARG B 206      -3.286   0.693 -12.048  1.00 33.28 LIG 0.18  C 
BRANCH 10 11
ATOM     11  C   ARG B 206      -3.746  -0.768 -11.829  1.00 36.59 LIG 0.24  C 
ATOM     12  N   ASN B 207      -4.735  -0.963 -10.953  1.00 40.84 LIG-0.34  N 
ATOM     13 H    ASN B 207      -5.064  -0.349 -10.450  1.00 40.84 LIG 0.16  HD
ATOM     14 O    ARG B 206      -3.191  -1.721 -12.426  1.00 36.06 LIG-0.27  OA
BRANCH 12 15
ATOM     15  CA  ASN B 207      -5.349  -2.297 -10.786  1.00 46.04 LIG 0.19  C 
BRANCH 15 16
ATOM     16  C   ASN B 207      -6.247  -2.703 -11.941  1.00 46.07 LIG 0.20  C 
ATOM     17 OXT  ASN B 207      -6.295  -3.855 -12.340  1.00 45.13 LIG-0.65  OA
ATOM     18 O    ASN B 207      -6.915  -1.877 -12.527  1.00 48.62 LIG-0.65  OA
ENDBRANCH 15 16
BRANCH 15 19
ATOM     19  CB  ASN B 207      -6.172  -2.384  -9.503  1.00 51.14 LIG 0.14  C 
BRANCH 19 20
ATOM     20  CG  ASN B 207      -7.521  -2.980  -9.749  1.00 56.09 LIG 0.22  C 
ATOM     21 OD1  ASN B 207      -8.469  -2.265 -10.095  1.00 63.46 LIG-0.27  OA
ATOM     22  ND2 ASN B 207      -7.618  -4.307  -9.633  1.00 58.21 LIG-0.37  N 
ATOM     23 22HD ASN B 207      -6.935  -4.769  -9.389  1.00 58.21 LIG 0.16  HD
ATOM     24 21HD ASN B 207      -8.364  -4.700  -9.802  1.00 58.21 LIG 0.16  HD
ENDBRANCH 19 20
ENDBRANCH 15 19
ENDBRANCH 12 15
ENDBRANCH 10 11
BRANCH 10 25
ATOM     25  CB  ARG B 206      -2.922   0.958 -13.511  1.00 29.97 LIG 0.04  C 
BRANCH 25 26
ATOM     26  CG  ARG B 206      -3.937   0.322 -14.459  1.00 35.04 LIG 0.02  C 
BRANCH 26 27
ATOM     27  CD  ARG B 206      -5.303   1.030 -14.474  1.00 34.71 LIG 0.14  C 
BRANCH 27 28
ATOM     28  NE  ARG B 206      -6.188   0.395 -13.500  1.00 36.74 LIG-0.23  N 
ATOM     29 HE   ARG B 206      -6.276  -0.461 -13.527  1.00 36.74 LIG 0.18  HD
ATOM     30  CZ  ARG B 206      -6.861   1.065 -12.581  1.00 37.33 LIG 0.67  C 
ATOM     31  NH2 ARG B 206      -7.616   0.444 -11.718  1.00 40.70 LIG-0.23  N 
ATOM     32  NH1 ARG B 206      -6.776   2.372 -12.532  1.00 35.99 LIG-0.23  N 
ATOM     33 1HH2 ARG B 206      -7.681  -0.414 -11.743  1.00 40.70 LIG 0.17  HD
ATOM     34 2HH2 ARG B 206      -8.049   0.891 -11.125  1.00 40.70 LIG 0.17  HD
ATOM     35 1HH1 ARG B 206      -6.283   2.793 -13.098  1.00 35.99 LIG 0.17  HD
ATOM     36 2HH1 ARG B 206      -7.212   2.809 -11.934  1.00 35.99 LIG 0.17  HD
ENDBRANCH 27 28
ENDBRANCH 26 27
ENDBRANCH 25 26
ENDBRANCH 10 25
ENDBRANCH 8 10
ENDBRANCH 5 6
BRANCH 5 37
ATOM     37  CB  TYR B 205      -1.319   0.807  -7.668  1.00 37.09 LIG 0.07  C 
BRANCH 37 38
ATOM     38  CG  TYR B 205      -1.520  -0.661  -7.715  1.00 41.64 LIG-0.06  A 
ATOM     39  CD2 TYR B 205      -2.803  -1.189  -7.754  1.00 44.35 LIG 0.01  A 
ATOM     40  CE2 TYR B 205      -3.015  -2.545  -7.715  1.00 49.08 LIG 0.04  A 
ATOM     41  CZ  TYR B 205      -1.935  -3.405  -7.607  1.00 48.61 LIG 0.07  A 
ATOM     42  CE1 TYR B 205      -0.646  -2.909  -7.539  1.00 45.09 LIG 0.04  A 
ATOM     43  CD1 TYR B 205      -0.443  -1.536  -7.570  1.00 43.95 LIG 0.01  A 
BRANCH 41 44
ATOM     44 OH   TYR B 205      -2.170  -4.764  -7.552  1.00 50.49 LIG-0.36  OA
ATOM     45 HH   TYR B 205      -2.978  -4.916  -7.720  1.00 50.49 LIG 0.22  HD
ENDBRANCH 41 44
ENDBRANCH 37 38
ENDBRANCH 5 37
ENDBRANCH 3 5
BRANCH 1 46
ATOM     46  CA  LYS B 204      -1.026   5.295  -8.410  1.00 31.16 LIG 0.18  C 
BRANCH 46 47
ATOM     47  CB  LYS B 204      -1.392   6.247  -9.545  1.00 32.72 LIG 0.04  C 
BRANCH 47 48
ATOM     48  CG  LYS B 204      -2.726   6.954  -9.355  1.00 37.78 LIG 0.00  C 
BRANCH 48 49
ATOM     49  CD  LYS B 204      -2.767   8.181 -10.277  1.00 44.67 LIG 0.03  C 
BRANCH 49 50
ATOM     50  CE  LYS B 204      -3.531   7.872 -11.565  1.00 46.31 LIG 0.23  C 
BRANCH 50 51
ATOM     51  NZ  LYS B 204      -2.634   7.905 -12.748  1.00 49.87 LIG-0.08  N 
ATOM     52 HZ2  LYS B 204      -2.967   7.384 -13.388  1.00 49.87 LIG 0.27  HD
ATOM     53 HZ3  LYS B 204      -2.571   8.740 -13.050  1.00 49.87 LIG 0.27  HD
ATOM     54 HZ1  LYS B 204      -1.826   7.611 -12.517  1.00 49.87 LIG 0.27  HD
ENDBRANCH 50 51
ENDBRANCH 49 50
ENDBRANCH 48 49
ENDBRANCH 47 48
ENDBRANCH 46 47
BRANCH 46 55
ATOM     55  N   LYS B 204       0.184   5.737  -7.684  1.00 28.52 LIG-0.35  N 
ATOM     56 H    LYS B 204       0.596   6.388  -8.066  1.00 28.52 LIG 0.16  HD
ATOM     57  C   LYS B 203       0.596   5.185  -6.555  1.00 30.36 LIG 0.24  C 
ATOM     58 O    LYS B 203       0.054   4.184  -6.034  1.00 32.75 LIG-0.27  OA
BRANCH 57 59
ATOM     59  CA  LYS B 203       1.776   5.887  -5.860  1.00 29.12 LIG 0.18  C 
BRANCH 59 60
ATOM     60  CB  LYS B 203       3.036   5.848  -6.745  1.00 27.59 LIG 0.04  C 
BRANCH 60 61
ATOM     61  CG  LYS B 203       4.256   6.485  -6.130  1.00 28.85 LIG 0.00  C 
BRANCH 61 62
ATOM     62  CD  LYS B 203       5.042   5.472  -5.272  1.00 30.56 LIG 0.03  C 
BRANCH 62 63
ATOM     63  CE  LYS B 203       6.312   6.138  -4.693  1.00 30.34 LIG 0.23  C 
BRANCH 63 64
ATOM     64  NZ  LYS B 203       7.156   5.251  -3.801  1.00 29.96 LIG-0.08  N 
ATOM     65 HZ2  LYS B 203       7.688   4.745  -4.303  1.00 29.96 LIG 0.27  HD
ATOM     66 HZ3  LYS B 203       7.651   5.757  -3.262  1.00 29.96 LIG 0.27  HD
ATOM     67 HZ1  LYS B 203       6.625   4.730  -3.313  1.00 29.96 LIG 0.27  HD
ENDBRANCH 63 64
ENDBRANCH 62 63
ENDBRANCH 61 62
ENDBRANCH 60 61
ENDBRANCH 59 60
BRANCH 59 68
ATOM     68  N   LYS B 203       1.982   5.202  -4.596  1.00 32.23 LIG-0.35  N 
ATOM     69  C   ALA B 202       2.391   5.893  -3.539  1.00 35.90 LIG 0.24  C 
ATOM     70 O    ALA B 202       2.622   7.095  -3.608  1.00 35.09 LIG-0.27  OA
ATOM     71 H    LYS B 203       1.821   4.357  -4.603  1.00 32.23 LIG 0.16  HD
BRANCH 69 72
ATOM     72  CA  ALA B 202       2.658   5.145  -2.219  1.00 40.49 LIG 0.17  C 
ATOM     73  CB  ALA B 202       1.340   4.609  -1.645  1.00 40.15 LIG 0.04  C 
BRANCH 72 74
ATOM     74  N   ALA B 202       3.408   5.902  -1.214  1.00 44.85 LIG-0.35  N 
ATOM     75  C   VAL B 201       4.742   5.933  -1.288  1.00 49.40 LIG 0.26  C 
ATOM     76 O    VAL B 201       5.395   5.256  -2.112  1.00 49.68 LIG-0.27  OA
ATOM     77 H    ALA B 202       2.935   6.296  -0.614  1.00 44.85 LIG 0.16  HD
BRANCH 75 78
ATOM     78  CA  VAL B 201       5.462   6.859  -0.338  1.00 53.79 LIG 0.40  C 
ATOM     79  N   VAL B 201       6.857   6.363  -0.174  1.00 59.48 LIG 0.61  N 
BRANCH 78 80
ATOM     80  CB  VAL B 201       5.407   8.304  -0.956  1.00 53.10 LIG 0.03  C 
ATOM     81  CG1 VAL B 201       6.642   9.140  -0.577  1.00 58.27 LIG 0.01  C 
ATOM     82  CG2 VAL B 201       5.234   8.245  -2.500  1.00 52.00 LIG 0.01  C 
ENDBRANCH 78 80
ENDBRANCH 75 78
ENDBRANCH 72 74
ENDBRANCH 69 72
ENDBRANCH 59 68
ENDBRANCH 57 59
ENDBRANCH 46 55
ENDBRANCH 1 46
TORSDOF 33
ENDMDL
MODEL 7
USER: ADFR SOLUTION from run 124
USER: SCORE 25.156744 LL:  -6.070 LR: -21.125 RR:   0.000 FEB: -11.281
USER: RMSD 7.089451
USER: SEED 123
USER: STATUS no improvement in best in 5 clusters for 5 generations
USER: GENES 35
USER: genes 0 Translation |==|  0.43472 0.52908 0.57446
USER: genes 1 Rotation |==|  0.48222 0.38791 0.48578 0.98674
USER: genes 2 Torsion [C]-N--CA-[C] |==|  0.70290
USER: genes 3 Torsion [N]-CA--C-[N] |==|  0.29435
USER: genes 4 Torsion [C]-N--CA-[CB] |==|  0.51111
USER: genes 5 Torsion [N]-CA--C-[N] |==|  0.36976
USER: genes 6 Torsion [C]-N--CA-[C] |==|  0.60881
USER: genes 7 Torsion [N]-CA--C-[OXT] |==|  0.01698
USER: genes 8 Torsion [N]-CA--CB-[CG] |==|  0.81275
USER: genes 9 Torsion [CA]-CB--CG-[OD1] |==|  0.28178
USER: genes 10 Torsion [N]-CA--CB-[CG] |==|  0.61112
USER: genes 11 Torsion [CA]-CB--CG-[CD] |==|  0.73055
USER: genes 12 Torsion [CB]-CG--CD-[NE] |==|  0.33064
USER: genes 13 Torsion [CG]-CD--NE-[HE] |==|  0.71124
USER: genes 14 Torsion [N]-CA--CB-[CG] |==|  0.51721
USER: genes 15 Torsion [CA]-CB--CG-[CD2] |==|  0.67063
USER: genes 16 Torsion [CE2]-CZ--OH-[HH] |==|  0.07006
USER: genes 17 Torsion [N]-C--CA-[N] |==|  0.77728
USER: genes 18 Torsion [C]-CA--CB-[CG] |==|  0.30145
USER: genes 19 Torsion [CA]-CB--CG-[CD] |==|  0.73048
USER: genes 20 Torsion [CB]-CG--CD-[CE] |==|  0.47626
USER: genes 21 Torsion [CG]-CD--CE-[NZ] |==|  0.64182
USER: genes 22 Torsion [CD]-CE--NZ-[HZ2] |==|  0.69913
USER: genes 23 Torsion [C]-CA--N-[C] |==|  0.65059
USER: genes 24 Torsion [N]-C--CA-[N] |==|  0.08603
USER: genes 25 Torsion [C]-CA--CB-[CG] |==|  0.57422
USER: genes 26 Torsion [CA]-CB--CG-[CD] |==|  0.46484
USER: genes 27 Torsion [CB]-CG--CD-[CE] |==|  0.54349
USER: genes 28 Torsion [CG]-CD--CE-[NZ] |==|  0.44283
USER: genes 29 Torsion [CD]-CE--NZ-[HZ2] |==|  0.20331
USER: genes 30 Torsion [C]-CA--N-[C] |==|  0.59514
USER: genes 31 Torsion [N]-C--CA-[N] |==|  0.37376
USER: genes 32 Torsion [C]-CA--N-[C] |==|  0.81133
USER: genes 33 Torsion [N]-C--CA-[N] |==|  0.38586
USER: genes 34 Torsion [C]-CA--CB-[CG1] |==|  0.01365
ROOT
ATOM      1  C   LYS B 204      -1.383   3.950  -9.402  1.00 29.43 LIG 0.24  C 
ATOM      2 O    LYS B 204      -0.218   3.758  -9.802  1.00 26.08 LIG-0.27  OA
ATOM      3  N   TYR B 205      -2.293   3.015  -9.251  1.00 31.29 LIG-0.35  N 
ATOM      4 H    TYR B 205      -3.089   3.180  -8.970  1.00 31.29 LIG 0.16  HD
ENDROOT
BRANCH 3 5
ATOM      5  CA  TYR B 205      -2.063   1.626  -9.535  1.00 33.02 LIG 0.18  C 
BRANCH 5 6
ATOM      6  C   TYR B 205      -2.845   1.387 -10.832  1.00 33.21 LIG 0.24  C 
ATOM      7 O    TYR B 205      -4.061   1.397 -10.811  1.00 35.15 LIG-0.27  OA
ATOM      8  N   ARG B 206      -2.164   1.254 -11.967  1.00 31.57 LIG-0.35  N 
ATOM      9 H    ARG B 206      -1.314   1.359 -12.043  1.00 31.57 LIG 0.16  HD
BRANCH 8 10
ATOM     10  CA  ARG B 206      -2.861   0.904 -13.215  1.00 33.28 LIG 0.18  C 
BRANCH 10 11
ATOM     11  C   ARG B 206      -3.775  -0.331 -13.035  1.00 36.59 LIG 0.24  C 
ATOM     12  N   ASN B 207      -5.014  -0.239 -13.524  1.00 40.84 LIG-0.34  N 
ATOM     13 H    ASN B 207      -5.355   0.480 -13.849  1.00 40.84 LIG 0.16  HD
ATOM     14 O    ARG B 206      -3.376  -1.353 -12.429  1.00 36.06 LIG-0.27  OA
BRANCH 12 15
ATOM     15  CA  ASN B 207      -5.913  -1.412 -13.541  1.00 46.04 LIG 0.19  C 
BRANCH 15 16
ATOM     16  C   ASN B 207      -6.758  -1.514 -14.798  1.00 46.07 LIG 0.20  C 
ATOM     17 OXT  ASN B 207      -6.601  -0.753 -15.739  1.00 45.13 LIG-0.65  OA
ATOM     18 O    ASN B 207      -7.644  -2.338 -14.884  1.00 48.62 LIG-0.65  OA
ENDBRANCH 15 16
BRANCH 15 19
ATOM     19  CB  ASN B 207      -6.858  -1.418 -12.342  1.00 51.14 LIG 0.14  C 
BRANCH 19 20
ATOM     20  CG  ASN B 207      -6.124  -1.635 -11.058  1.00 56.09 LIG 0.22  C 
ATOM     21 OD1  ASN B 207      -5.874  -0.681 -10.310  1.00 63.46 LIG-0.27  OA
ATOM     22  ND2 ASN B 207      -5.816  -2.897 -10.751  1.00 58.21 LIG-0.37  N 
ATOM     23 22HD ASN B 207      -6.006  -3.532 -11.300  1.00 58.21 LIG 0.16  HD
ATOM     24 21HD ASN B 207      -5.427  -3.076 -10.006  1.00 58.21 LIG 0.16  HD
ENDBRANCH 19 20
ENDBRANCH 15 19
ENDBRANCH 12 15
ENDBRANCH 10 11
BRANCH 10 25
ATOM     25  CB  ARG B 206      -1.868   0.710 -14.364  1.00 29.97 LIG 0.04  C 
BRANCH 25 26
ATOM     26  CG  ARG B 206      -2.405   1.302 -15.665  1.00 35.04 LIG 0.02  C 
BRANCH 26 27
ATOM     27  CD  ARG B 206      -3.079   0.271 -16.587  1.00 34.71 LIG 0.14  C 
BRANCH 27 28
ATOM     28  NE  ARG B 206      -4.477   0.643 -16.789  1.00 36.74 LIG-0.23  N 
ATOM     29 HE   ARG B 206      -5.082   0.201 -16.366  1.00 36.74 LIG 0.18  HD
ATOM     30  CZ  ARG B 206      -4.862   1.623 -17.588  1.00 37.33 LIG 0.67  C 
ATOM     31  NH2 ARG B 206      -6.124   1.930 -17.710  1.00 40.70 LIG-0.23  N 
ATOM     32  NH1 ARG B 206      -3.971   2.296 -18.273  1.00 35.99 LIG-0.23  N 
ATOM     33 1HH2 ARG B 206      -6.717   1.493 -17.267  1.00 40.70 LIG 0.17  HD
ATOM     34 2HH2 ARG B 206      -6.362   2.570 -18.233  1.00 40.70 LIG 0.17  HD
ATOM     35 1HH1 ARG B 206      -3.136   2.100 -18.203  1.00 35.99 LIG 0.17  HD
ATOM     36 2HH1 ARG B 206      -4.221   2.933 -18.793  1.00 35.99 LIG 0.17  HD
ENDBRANCH 27 28
ENDBRANCH 26 27
ENDBRANCH 25 26
ENDBRANCH 10 25
ENDBRANCH 8 10
ENDBRANCH 5 6
BRANCH 5 37
ATOM     37  CB  TYR B 205      -2.676   0.889  -8.356  1.00 37.09 LIG 0.07  C 
BRANCH 37 38
ATOM     38  CG  TYR B 205      -2.516  -0.579  -8.221  1.00 41.64 LIG-0.06  A 
ATOM     39  CD2 TYR B 205      -3.630  -1.406  -8.224  1.00 44.35 LIG 0.01  A 
ATOM     40  CE2 TYR B 205      -3.512  -2.758  -8.019  1.00 49.08 LIG 0.04  A 
ATOM     41  CZ  TYR B 205      -2.265  -3.309  -7.776  1.00 48.61 LIG 0.07  A 
ATOM     42  CE1 TYR B 205      -1.138  -2.508  -7.739  1.00 45.09 LIG 0.04  A 
ATOM     43  CD1 TYR B 205      -1.270  -1.140  -7.939  1.00 43.95 LIG 0.01  A 
BRANCH 41 44
ATOM     44 OH   TYR B 205      -2.169  -4.668  -7.554  1.00 50.49 LIG-0.36  OA
ATOM     45 HH   TYR B 205      -2.816  -5.058  -7.920  1.00 50.49 LIG 0.22  HD
ENDBRANCH 41 44
ENDBRANCH 37 38
ENDBRANCH 5 37
ENDBRANCH 3 5
BRANCH 1 46
ATOM     46  CA  LYS B 204      -1.846   5.307  -8.990  1.00 31.16 LIG 0.18  C 
BRANCH 46 47
ATOM     47  CB  LYS B 204      -2.671   5.116  -7.722  1.00 32.72 LIG 0.04  C 
BRANCH 47 48
ATOM     48  CG  LYS B 204      -1.992   5.624  -6.458  1.00 37.78 LIG 0.00  C 
BRANCH 48 49
ATOM     49  CD  LYS B 204      -1.311   4.439  -5.757  1.00 44.67 LIG 0.03  C 
BRANCH 49 50
ATOM     50  CE  LYS B 204      -0.437   4.920  -4.598  1.00 46.31 LIG 0.23  C 
BRANCH 50 51
ATOM     51  NZ  LYS B 204       0.934   4.355  -4.682  1.00 49.87 LIG-0.08  N 
ATOM     52 HZ2  LYS B 204       1.043   3.744  -4.044  1.00 49.87 LIG 0.27  HD
ATOM     53 HZ3  LYS B 204       1.050   3.976  -5.478  1.00 49.87 LIG 0.27  HD
ATOM     54 HZ1  LYS B 204       1.531   5.006  -4.573  1.00 49.87 LIG 0.27  HD
ENDBRANCH 50 51
ENDBRANCH 49 50
ENDBRANCH 48 49
ENDBRANCH 47 48
ENDBRANCH 46 47
BRANCH 46 55
ATOM     55  N   LYS B 204      -2.656   5.852 -10.102  1.00 28.52 LIG-0.35  N 
ATOM     56 H    LYS B 204      -3.299   5.336 -10.345  1.00 28.52 LIG 0.16  HD
ATOM     57  C   LYS B 203      -2.416   7.023 -10.669  1.00 30.36 LIG 0.24  C 
ATOM     58 O    LYS B 203      -1.435   7.745 -10.381  1.00 32.75 LIG-0.27  OA
BRANCH 57 59
ATOM     59  CA  LYS B 203      -3.463   7.496 -11.691  1.00 29.12 LIG 0.18  C 
BRANCH 59 60
ATOM     60  CB  LYS B 203      -3.490   9.034 -11.778  1.00 27.59 LIG 0.04  C 
BRANCH 60 61
ATOM     61  CG  LYS B 203      -4.810   9.617 -12.213  1.00 28.85 LIG 0.00  C 
BRANCH 61 62
ATOM     62  CD  LYS B 203      -4.853  11.140 -11.975  1.00 30.56 LIG 0.03  C 
BRANCH 62 63
ATOM     63  CE  LYS B 203      -6.311  11.649 -12.050  1.00 30.34 LIG 0.23  C 
BRANCH 63 64
ATOM     64  NZ  LYS B 203      -6.566  12.980 -11.374  1.00 29.96 LIG-0.08  N 
ATOM     65 HZ2  LYS B 203      -6.214  13.634 -11.864  1.00 29.96 LIG 0.27  HD
ATOM     66 HZ3  LYS B 203      -7.443  13.110 -11.294  1.00 29.96 LIG 0.27  HD
ATOM     67 HZ1  LYS B 203      -6.191  12.980 -10.567  1.00 29.96 LIG 0.27  HD
ENDBRANCH 63 64
ENDBRANCH 62 63
ENDBRANCH 61 62
ENDBRANCH 60 61
ENDBRANCH 59 60
BRANCH 59 68
ATOM     68  N   LYS B 203      -4.741   6.957 -11.259  1.00 32.23 LIG-0.35  N 
ATOM     69  C   ALA B 202      -5.637   6.594 -12.169  1.00 35.90 LIG 0.24  C 
ATOM     70 O    ALA B 202      -5.422   6.722 -13.369  1.00 35.09 LIG-0.27  OA
ATOM     71 H    LYS B 203      -4.850   6.901 -10.408  1.00 32.23 LIG 0.16  HD
BRANCH 69 72
ATOM     72  CA  ALA B 202      -7.008   6.074 -11.697  1.00 40.49 LIG 0.17  C 
ATOM     73  CB  ALA B 202      -7.023   4.540 -11.716  1.00 40.15 LIG 0.04  C 
BRANCH 72 74
ATOM     74  N   ALA B 202      -8.163   6.627 -12.408  1.00 44.85 LIG-0.35  N 
ATOM     75  C   VAL B 201      -8.463   7.920 -12.252  1.00 49.40 LIG 0.26  C 
ATOM     76 O    VAL B 201      -7.871   8.664 -11.440  1.00 49.68 LIG-0.27  OA
ATOM     77 H    ALA B 202      -8.598   6.072 -12.901  1.00 44.85 LIG 0.16  HD
BRANCH 75 78
ATOM     78  CA  VAL B 201      -9.553   8.484 -13.131  1.00 53.79 LIG 0.40  C 
ATOM     79  N   VAL B 201     -10.397   9.388 -12.302  1.00 59.48 LIG 0.61  N 
BRANCH 78 80
ATOM     80  CB  VAL B 201      -8.855   9.239 -14.322  1.00 53.10 LIG 0.03  C 
ATOM     81  CG1 VAL B 201      -7.326   9.069 -14.294  1.00 58.27 LIG 0.01  C 
ATOM     82  CG2 VAL B 201      -9.435   8.779 -15.690  1.00 52.00 LIG 0.01  C 
ENDBRANCH 78 80
ENDBRANCH 75 78
ENDBRANCH 72 74
ENDBRANCH 69 72
ENDBRANCH 59 68
ENDBRANCH 57 59
ENDBRANCH 46 55
ENDBRANCH 1 46
TORSDOF 33
ENDMDL
MODEL 8
USER: ADFR SOLUTION from run 20
USER: SCORE 25.231691 LL:  -6.442 LR: -21.120 RR:   0.000 FEB: -11.276
USER: RMSD 2.054708
USER: SEED 19
USER: STATUS no improvement in best in 6 clusters for 5 generations
USER: GENES 35
USER: genes 0 Translation |==|  0.45030 0.53324 0.58179
USER: genes 1 Rotation |==|  0.48418 0.47565 0.50953 0.99907
USER: genes 2 Torsion [C]-N--CA-[C] |==|  0.70757
USER: genes 3 Torsion [N]-CA--C-[N] |==|  0.32642
USER: genes 4 Torsion [C]-N--CA-[CB] |==|  0.44719
USER: genes 5 Torsion [N]-CA--C-[N] |==|  0.26263
USER: genes 6 Torsion [C]-N--CA-[C] |==|  0.80049
USER: genes 7 Torsion [N]-CA--C-[OXT] |==|  0.40242
USER: genes 8 Torsion [N]-CA--CB-[CG] |==|  0.39932
USER: genes 9 Torsion [CA]-CB--CG-[OD1] |==|  0.73531
USER: genes 10 Torsion [N]-CA--CB-[CG] |==|  0.48582
USER: genes 11 Torsion [CA]-CB--CG-[CD] |==|  0.18254
USER: genes 12 Torsion [CB]-CG--CD-[NE] |==|  0.72947
USER: genes 13 Torsion [CG]-CD--NE-[HE] |==|  0.85828
USER: genes 14 Torsion [N]-CA--CB-[CG] |==|  0.46766
USER: genes 15 Torsion [CA]-CB--CG-[CD2] |==|  0.75075
USER: genes 16 Torsion [CE2]-CZ--OH-[HH] |==|  0.01382
USER: genes 17 Torsion [N]-C--CA-[N] |==|  0.36373
USER: genes 18 Torsion [C]-CA--CB-[CG] |==|  0.36528
USER: genes 19 Torsion [CA]-CB--CG-[CD] |==|  0.41813
USER: genes 20 Torsion [CB]-CG--CD-[CE] |==|  0.20570
USER: genes 21 Torsion [CG]-CD--CE-[NZ] |==|  0.70286
USER: genes 22 Torsion [CD]-CE--NZ-[HZ2] |==|  0.75298
USER: genes 23 Torsion [C]-CA--N-[C] |==|  0.75352
USER: genes 24 Torsion [N]-C--CA-[N] |==|  0.26167
USER: genes 25 Torsion [C]-CA--CB-[CG] |==|  0.42852
USER: genes 26 Torsion [CA]-CB--CG-[CD] |==|  0.55475
USER: genes 27 Torsion [CB]-CG--CD-[CE] |==|  0.61735
USER: genes 28 Torsion [CG]-CD--CE-[NZ] |==|  0.49501
USER: genes 29 Torsion [CD]-CE--NZ-[HZ2] |==|  0.14515
USER: genes 30 Torsion [C]-CA--N-[C] |==|  0.60337
USER: genes 31 Torsion [N]-C--CA-[N] |==|  0.97318
USER: genes 32 Torsion [C]-CA--N-[C] |==|  0.75002
USER: genes 33 Torsion [N]-C--CA-[N] |==|  0.42007
USER: genes 34 Torsion [C]-CA--CB-[CG1] |==|  0.85590
ROOT
ATOM      1  C   LYS B 204      -1.009   4.053  -9.215  1.00 29.43 LIG 0.24  C 
ATOM      2 O    LYS B 204      -0.046   3.950 -10.000  1.00 26.08 LIG-0.27  OA
ATOM      3  N   TYR B 205      -1.729   3.050  -8.767  1.00 31.29 LIG-0.35  N 
ATOM      4 H    TYR B 205      -2.387   3.154  -8.223  1.00 31.29 LIG 0.16  HD
ENDROOT
BRANCH 3 5
ATOM      5  CA  TYR B 205      -1.499   1.680  -9.132  1.00 33.02 LIG 0.18  C 
BRANCH 5 6
ATOM      6  C   TYR B 205      -2.638   1.369 -10.109  1.00 33.21 LIG 0.24  C 
ATOM      7 O    TYR B 205      -3.793   1.493  -9.746  1.00 35.15 LIG-0.27  OA
ATOM      8  N   ARG B 206      -2.328   1.047 -11.363  1.00 31.57 LIG-0.35  N 
ATOM      9 H    ARG B 206      -1.533   1.065 -11.689  1.00 31.57 LIG 0.16  HD
BRANCH 8 10
ATOM     10  CA  ARG B 206      -3.377   0.625 -12.303  1.00 33.28 LIG 0.18  C 
BRANCH 10 11
ATOM     11  C   ARG B 206      -3.882  -0.805 -11.995  1.00 36.59 LIG 0.24  C 
ATOM     12  N   ASN B 207      -4.967  -0.908 -11.225  1.00 40.84 LIG-0.34  N 
ATOM     13 H    ASN B 207      -5.343  -0.245 -10.826  1.00 40.84 LIG 0.16  HD
ATOM     14 O    ARG B 206      -3.276  -1.815 -12.426  1.00 36.06 LIG-0.27  OA
BRANCH 12 15
ATOM     15  CA  ASN B 207      -5.618  -2.216 -10.999  1.00 46.04 LIG 0.19  C 
BRANCH 15 16
ATOM     16  C   ASN B 207      -6.357  -2.746 -12.214  1.00 46.07 LIG 0.20  C 
ATOM     17 OXT  ASN B 207      -6.399  -3.939 -12.467  1.00 45.13 LIG-0.65  OA
ATOM     18 O    ASN B 207      -6.898  -1.987 -12.990  1.00 48.62 LIG-0.65  OA
ENDBRANCH 15 16
BRANCH 15 19
ATOM     19  CB  ASN B 207      -6.607  -2.163  -9.836  1.00 51.14 LIG 0.14  C 
BRANCH 19 20
ATOM     20  CG  ASN B 207      -7.806  -3.018 -10.091  1.00 56.09 LIG 0.22  C 
ATOM     21 OD1  ASN B 207      -8.838  -2.526 -10.565  1.00 63.46 LIG-0.27  OA
ATOM     22  ND2 ASN B 207      -7.676  -4.322  -9.835  1.00 58.21 LIG-0.37  N 
ATOM     23 22HD ASN B 207      -6.941  -4.625  -9.504  1.00 58.21 LIG 0.16  HD
ATOM     24 21HD ASN B 207      -8.326  -4.860 -10.001  1.00 58.21 LIG 0.16  HD
ENDBRANCH 19 20
ENDBRANCH 15 19
ENDBRANCH 12 15
ENDBRANCH 10 11
BRANCH 10 25
ATOM     25  CB  ARG B 206      -2.904   0.758 -13.753  1.00 29.97 LIG 0.04  C 
BRANCH 25 26
ATOM     26  CG  ARG B 206      -3.941   0.203 -14.727  1.00 35.04 LIG 0.02  C 
BRANCH 26 27
ATOM     27  CD  ARG B 206      -5.259   0.998 -14.753  1.00 34.71 LIG 0.14  C 
BRANCH 27 28
ATOM     28  NE  ARG B 206      -6.239   0.337 -13.894  1.00 36.74 LIG-0.23  N 
ATOM     29 HE   ARG B 206      -6.378  -0.504 -14.006  1.00 36.74 LIG 0.18  HD
ATOM     30  CZ  ARG B 206      -6.925   0.965 -12.955  1.00 37.33 LIG 0.67  C 
ATOM     31  NH2 ARG B 206      -7.769   0.320 -12.198  1.00 40.70 LIG-0.23  N 
ATOM     32  NH1 ARG B 206      -6.764   2.253 -12.778  1.00 35.99 LIG-0.23  N 
ATOM     33 1HH2 ARG B 206      -7.884  -0.525 -12.307  1.00 40.70 LIG 0.17  HD
ATOM     34 2HH2 ARG B 206      -8.209   0.740 -11.590  1.00 40.70 LIG 0.17  HD
ATOM     35 1HH1 ARG B 206      -6.212   2.690 -13.273  1.00 35.99 LIG 0.17  HD
ATOM     36 2HH1 ARG B 206      -7.209   2.662 -12.167  1.00 35.99 LIG 0.17  HD
ENDBRANCH 27 28
ENDBRANCH 26 27
ENDBRANCH 25 26
ENDBRANCH 10 25
ENDBRANCH 8 10
ENDBRANCH 5 6
BRANCH 5 37
ATOM     37  CB  TYR B 205      -1.641   0.909  -7.829  1.00 37.09 LIG 0.07  C 
BRANCH 37 38
ATOM     38  CG  TYR B 205      -1.726  -0.571  -7.836  1.00 41.64 LIG-0.06  A 
ATOM     39  CD2 TYR B 205      -2.960  -1.198  -7.934  1.00 44.35 LIG 0.01  A 
ATOM     40  CE2 TYR B 205      -3.070  -2.565  -7.860  1.00 49.08 LIG 0.04  A 
ATOM     41  CZ  TYR B 205      -1.937  -3.334  -7.657  1.00 48.61 LIG 0.07  A 
ATOM     42  CE1 TYR B 205      -0.696  -2.737  -7.528  1.00 45.09 LIG 0.04  A 
ATOM     43  CD1 TYR B 205      -0.597  -1.354  -7.595  1.00 43.95 LIG 0.01  A 
BRANCH 41 44
ATOM     44 OH   TYR B 205      -2.070  -4.705  -7.568  1.00 50.49 LIG-0.36  OA
ATOM     45 HH   TYR B 205      -2.867  -4.920  -7.722  1.00 50.49 LIG 0.22  HD
ENDBRANCH 41 44
ENDBRANCH 37 38
ENDBRANCH 5 37
ENDBRANCH 3 5
BRANCH 1 46
ATOM     46  CA  LYS B 204      -1.409   5.374  -8.650  1.00 31.16 LIG 0.18  C 
BRANCH 46 47
ATOM     47  CB  LYS B 204      -2.080   6.145  -9.782  1.00 32.72 LIG 0.04  C 
BRANCH 47 48
ATOM     48  CG  LYS B 204      -3.411   6.774  -9.400  1.00 37.78 LIG 0.00  C 
BRANCH 48 49
ATOM     49  CD  LYS B 204      -3.617   8.041 -10.245  1.00 44.67 LIG 0.03  C 
BRANCH 49 50
ATOM     50  CE  LYS B 204      -3.975   7.683 -11.687  1.00 46.31 LIG 0.23  C 
BRANCH 50 51
ATOM     51  NZ  LYS B 204      -2.840   7.945 -12.609  1.00 49.87 LIG-0.08  N 
ATOM     52 HZ2  LYS B 204      -2.885   8.783 -12.904  1.00 49.87 LIG 0.27  HD
ATOM     53 HZ3  LYS B 204      -2.072   7.825 -12.175  1.00 49.87 LIG 0.27  HD
ATOM     54 HZ1  LYS B 204      -2.882   7.384 -13.299  1.00 49.87 LIG 0.27  HD
ENDBRANCH 50 51
ENDBRANCH 49 50
ENDBRANCH 48 49
ENDBRANCH 47 48
ENDBRANCH 46 47
BRANCH 46 55
ATOM     55  N   LYS B 204      -0.177   6.043  -8.178  1.00 28.52 LIG-0.35  N 
ATOM     56 H    LYS B 204       0.192   6.543  -8.772  1.00 28.52 LIG 0.16  HD
ATOM     57  C   LYS B 203       0.313   5.888  -6.959  1.00 30.36 LIG 0.24  C 
ATOM     58 O    LYS B 203      -0.167   5.099  -6.114  1.00 32.75 LIG-0.27  OA
BRANCH 57 59
ATOM     59  CA  LYS B 203       1.504   6.792  -6.598  1.00 29.12 LIG 0.18  C 
BRANCH 59 60
ATOM     60  CB  LYS B 203       2.510   6.044  -5.703  1.00 27.59 LIG 0.04  C 
BRANCH 60 61
ATOM     61  CG  LYS B 203       3.925   6.555  -5.784  1.00 28.85 LIG 0.00  C 
BRANCH 61 62
ATOM     62  CD  LYS B 203       4.930   5.500  -5.277  1.00 30.56 LIG 0.03  C 
BRANCH 62 63
ATOM     63  CE  LYS B 203       6.009   6.173  -4.397  1.00 30.34 LIG 0.23  C 
BRANCH 63 64
ATOM     64  NZ  LYS B 203       7.034   5.232  -3.801  1.00 29.96 LIG-0.08  N 
ATOM     65 HZ2  LYS B 203       7.388   4.731  -4.446  1.00 29.96 LIG 0.27  HD
ATOM     66 HZ3  LYS B 203       7.678   5.703  -3.407  1.00 29.96 LIG 0.27  HD
ATOM     67 HZ1  LYS B 203       6.641   4.706  -3.200  1.00 29.96 LIG 0.27  HD
ENDBRANCH 63 64
ENDBRANCH 62 63
ENDBRANCH 61 62
ENDBRANCH 60 61
ENDBRANCH 59 60
BRANCH 59 68
ATOM     68  N   LYS B 203       0.953   7.960  -5.932  1.00 32.23 LIG-0.35  N 
ATOM     69  C   ALA B 202       1.495   9.152  -6.150  1.00 35.90 LIG 0.24  C 
ATOM     70 O    ALA B 202       2.466   9.290  -6.885  1.00 35.09 LIG-0.27  OA
ATOM     71 H    LYS B 203       0.282   7.809  -5.415  1.00 32.23 LIG 0.16  HD
BRANCH 69 72
ATOM     72  CA  ALA B 202       0.936  10.373  -5.397  1.00 40.49 LIG 0.17  C 
ATOM     73  CB  ALA B 202       2.019  10.970  -4.489  1.00 40.15 LIG 0.04  C 
BRANCH 72 74
ATOM     74  N   ALA B 202      -0.307  10.135  -4.658  1.00 44.85 LIG-0.35  N 
ATOM     75  C   VAL B 201      -1.476  10.329  -5.276  1.00 49.40 LIG 0.26  C 
ATOM     76 O    VAL B 201      -1.567  10.811  -6.426  1.00 49.68 LIG-0.27  OA
ATOM     77 H    ALA B 202      -0.213   9.876  -3.843  1.00 44.85 LIG 0.16  HD
BRANCH 75 78
ATOM     78  CA  VAL B 201      -2.723   9.910  -4.535  1.00 53.79 LIG 0.40  C 
ATOM     79  N   VAL B 201      -3.845  10.780  -4.985  1.00 59.48 LIG 0.61  N 
BRANCH 78 80
ATOM     80  CB  VAL B 201      -2.975   8.391  -4.856  1.00 53.10 LIG 0.03  C 
ATOM     81  CG1 VAL B 201      -2.972   8.115  -6.370  1.00 58.27 LIG 0.01  C 
ATOM     82  CG2 VAL B 201      -1.938   7.488  -4.130  1.00 52.00 LIG 0.01  C 
ENDBRANCH 78 80
ENDBRANCH 75 78
ENDBRANCH 72 74
ENDBRANCH 69 72
ENDBRANCH 59 68
ENDBRANCH 57 59
ENDBRANCH 46 55
ENDBRANCH 1 46
TORSDOF 33
ENDMDL
MODEL 9
USER: ADFR SOLUTION from run 83
USER: SCORE 23.658746 LL:  -5.101 LR: -21.052 RR:   0.000 FEB: -11.208
USER: RMSD 13.043912
USER: SEED 82
USER: STATUS no improvement in best in 14 clusters for 5 generations
USER: GENES 35
USER: genes 0 Translation |==|  0.44173 0.50730 0.57718
USER: genes 1 Rotation |==|  0.12048 0.50701 0.82536 0.50724
USER: genes 2 Torsion [C]-N--CA-[C] |==|  0.73474
USER: genes 3 Torsion [N]-CA--C-[N] |==|  0.45599
USER: genes 4 Torsion [C]-N--CA-[CB] |==|  0.38970
USER: genes 5 Torsion [N]-CA--C-[N] |==|  0.85787
USER: genes 6 Torsion [C]-N--CA-[C] |==|  0.56466
USER: genes 7 Torsion [N]-CA--C-[OXT] |==|  0.21342
USER: genes 8 Torsion [N]-CA--CB-[CG] |==|  0.09465
USER: genes 9 Torsion [CA]-CB--CG-[OD1] |==|  0.71162
USER: genes 10 Torsion [N]-CA--CB-[CG] |==|  0.57972
USER: genes 11 Torsion [CA]-CB--CG-[CD] |==|  0.27572
USER: genes 12 Torsion [CB]-CG--CD-[NE] |==|  0.52895
USER: genes 13 Torsion [CG]-CD--NE-[HE] |==|  0.28108
USER: genes 14 Torsion [N]-CA--CB-[CG] |==|  0.66637
USER: genes 15 Torsion [CA]-CB--CG-[CD2] |==|  0.56142
USER: genes 16 Torsion [CE2]-CZ--OH-[HH] |==|  0.53459
USER: genes 17 Torsion [N]-C--CA-[N] |==|  0.24585
USER: genes 18 Torsion [C]-CA--CB-[CG] |==|  0.43174
USER: genes 19 Torsion [CA]-CB--CG-[CD] |==|  0.87790
USER: genes 20 Torsion [CB]-CG--CD-[CE] |==|  0.67703
USER: genes 21 Torsion [CG]-CD--CE-[NZ] |==|  0.28208
USER: genes 22 Torsion [CD]-CE--NZ-[HZ2] |==|  0.28268
USER: genes 23 Torsion [C]-CA--N-[C] |==|  0.54065
USER: genes 24 Torsion [N]-C--CA-[N] |==|  0.10693
USER: genes 25 Torsion [C]-CA--CB-[CG] |==|  0.50826
USER: genes 26 Torsion [CA]-CB--CG-[CD] |==|  0.43945
USER: genes 27 Torsion [CB]-CG--CD-[CE] |==|  0.90980
USER: genes 28 Torsion [CG]-CD--CE-[NZ] |==|  0.32348
USER: genes 29 Torsion [CD]-CE--NZ-[HZ2] |==|  0.03828
USER: genes 30 Torsion [C]-CA--N-[C] |==|  0.18054
USER: genes 31 Torsion [N]-C--CA-[N] |==|  0.88555
USER: genes 32 Torsion [C]-CA--N-[C] |==|  0.87778
USER: genes 33 Torsion [N]-C--CA-[N] |==|  0.17255
USER: genes 34 Torsion [C]-CA--CB-[CG1] |==|  0.28244
ROOT
ATOM      1  C   LYS B 204      -1.215   3.411  -9.333  1.00 29.43 LIG 0.24  C 
ATOM      2 O    LYS B 204      -0.208   3.458 -10.066  1.00 26.08 LIG-0.27  OA
ATOM      3  N   TYR B 205      -1.733   4.434  -8.693  1.00 31.29 LIG-0.35  N 
ATOM      4 H    TYR B 205      -2.431   4.369  -8.196  1.00 31.29 LIG 0.16  HD
ENDROOT
BRANCH 3 5
ATOM      5  CA  TYR B 205      -1.194   5.765  -8.752  1.00 33.02 LIG 0.18  C 
BRANCH 5 6
ATOM      6  C   TYR B 205      -0.301   5.849  -7.509  1.00 33.21 LIG 0.24  C 
ATOM      7 O    TYR B 205      -0.372   4.983  -6.657  1.00 35.15 LIG-0.27  OA
ATOM      8  N   ARG B 206       0.590   6.834  -7.434  1.00 31.57 LIG-0.35  N 
ATOM      9 H    ARG B 206       0.753   7.395  -8.065  1.00 31.57 LIG 0.16  HD
BRANCH 8 10
ATOM     10  CA  ARG B 206       1.384   7.028  -6.211  1.00 33.28 LIG 0.18  C 
BRANCH 10 11
ATOM     11  C   ARG B 206       0.732   8.061  -5.261  1.00 36.59 LIG 0.24  C 
ATOM     12  N   ASN B 207       0.393   9.238  -5.793  1.00 40.84 LIG-0.34  N 
ATOM     13 H    ASN B 207       0.590   9.483  -6.594  1.00 40.84 LIG 0.16  HD
ATOM     14 O    ARG B 206       0.563   7.810  -4.045  1.00 36.06 LIG-0.27  OA
BRANCH 12 15
ATOM     15  CA  ASN B 207      -0.372  10.232  -5.013  1.00 46.04 LIG 0.19  C 
BRANCH 15 16
ATOM     16  C   ASN B 207      -1.139  11.222  -5.872  1.00 46.07 LIG 0.20  C 
ATOM     17 OXT  ASN B 207      -2.182  10.914  -6.426  1.00 45.13 LIG-0.65  OA
ATOM     18 O    ASN B 207      -0.711  12.340  -6.061  1.00 48.62 LIG-0.65  OA
ENDBRANCH 15 16
BRANCH 15 19
ATOM     19  CB  ASN B 207       0.530  11.031  -4.074  1.00 51.14 LIG 0.14  C 
BRANCH 19 20
ATOM     20  CG  ASN B 207       1.884  11.256  -4.665  1.00 56.09 LIG 0.22  C 
ATOM     21 OD1  ASN B 207       2.856  10.597  -4.274  1.00 63.46 LIG-0.27  OA
ATOM     22  ND2 ASN B 207       1.964  12.147  -5.656  1.00 58.21 LIG-0.37  N 
ATOM     23 22HD ASN B 207       1.264  12.586  -5.897  1.00 58.21 LIG 0.16  HD
ATOM     24 21HD ASN B 207       2.714  12.283  -6.052  1.00 58.21 LIG 0.16  HD
ENDBRANCH 19 20
ENDBRANCH 15 19
ENDBRANCH 12 15
ENDBRANCH 10 11
BRANCH 10 25
ATOM     25  CB  ARG B 206       2.830   7.401  -6.546  1.00 29.97 LIG 0.04  C 
BRANCH 25 26
ATOM     26  CG  ARG B 206       3.790   6.933  -5.454  1.00 35.04 LIG 0.02  C 
BRANCH 26 27
ATOM     27  CD  ARG B 206       4.515   5.616  -5.785  1.00 34.71 LIG 0.14  C 
BRANCH 27 28
ATOM     28  NE  ARG B 206       5.208   5.132  -4.593  1.00 36.74 LIG-0.23  N 
ATOM     29 HE   ARG B 206       4.844   4.498  -4.140  1.00 36.74 LIG 0.18  HD
ATOM     30  CZ  ARG B 206       6.364   5.617  -4.175  1.00 37.33 LIG 0.67  C 
ATOM     31  NH2 ARG B 206       6.952   5.127  -3.119  1.00 40.70 LIG-0.23  N 
ATOM     32  NH1 ARG B 206       6.931   6.605  -4.822  1.00 35.99 LIG-0.23  N 
ATOM     33 1HH2 ARG B 206       6.587   4.481  -2.685  1.00 40.70 LIG 0.17  HD
ATOM     34 2HH2 ARG B 206       7.704   5.452  -2.856  1.00 40.70 LIG 0.17  HD
ATOM     35 1HH1 ARG B 206       6.551   6.938  -5.518  1.00 35.99 LIG 0.17  HD
ATOM     36 2HH1 ARG B 206       7.683   6.921  -4.551  1.00 35.99 LIG 0.17  HD
ENDBRANCH 27 28
ENDBRANCH 26 27
ENDBRANCH 25 26
ENDBRANCH 10 25
ENDBRANCH 8 10
ENDBRANCH 5 6
BRANCH 5 37
ATOM     37  CB  TYR B 205      -2.409   6.672  -8.643  1.00 37.09 LIG 0.07  C 
BRANCH 37 38
ATOM     38  CG  TYR B 205      -2.732   7.629  -9.729  1.00 41.64 LIG-0.06  A 
ATOM     39  CD2 TYR B 205      -3.519   8.742  -9.468  1.00 44.35 LIG 0.01  A 
ATOM     40  CE2 TYR B 205      -3.898   9.596 -10.473  1.00 49.08 LIG 0.04  A 
ATOM     41  CZ  TYR B 205      -3.516   9.332 -11.778  1.00 48.61 LIG 0.07  A 
ATOM     42  CE1 TYR B 205      -2.755   8.216 -12.075  1.00 45.09 LIG 0.04  A 
ATOM     43  CD1 TYR B 205      -2.384   7.354 -11.052  1.00 43.95 LIG 0.01  A 
BRANCH 41 44
ATOM     44 OH   TYR B 205      -3.922  10.193 -12.777  1.00 50.49 LIG-0.36  OA
ATOM     45 HH   TYR B 205      -3.777   9.842 -13.526  1.00 50.49 LIG 0.22  HD
ENDBRANCH 41 44
ENDBRANCH 37 38
ENDBRANCH 5 37
ENDBRANCH 3 5
BRANCH 1 46
ATOM     46  CA  LYS B 204      -1.984   2.145  -9.156  1.00 31.16 LIG 0.18  C 
BRANCH 46 47
ATOM     47  CB  LYS B 204      -0.980   1.005  -9.290  1.00 32.72 LIG 0.04  C 
BRANCH 47 48
ATOM     48  CG  LYS B 204      -1.400  -0.277  -8.586  1.00 37.78 LIG 0.00  C 
BRANCH 48 49
ATOM     49  CD  LYS B 204      -1.956   0.082  -7.200  1.00 44.67 LIG 0.03  C 
BRANCH 49 50
ATOM     50  CE  LYS B 204      -1.087  -0.512  -6.092  1.00 46.31 LIG 0.23  C 
BRANCH 50 51
ATOM     51  NZ  LYS B 204      -0.191   0.512  -5.497  1.00 49.87 LIG-0.08  N 
ATOM     52 HZ2  LYS B 204      -0.527   0.784  -4.719  1.00 49.87 LIG 0.27  HD
ATOM     53 HZ3  LYS B 204       0.615   0.160  -5.365  1.00 49.87 LIG 0.27  HD
ATOM     54 HZ1  LYS B 204      -0.125   1.206  -6.050  1.00 49.87 LIG 0.27  HD
ENDBRANCH 50 51
ENDBRANCH 49 50
ENDBRANCH 48 49
ENDBRANCH 47 48
ENDBRANCH 46 47
BRANCH 46 55
ATOM     55  N   LYS B 204      -3.014   2.104 -10.217  1.00 28.52 LIG-0.35  N 
ATOM     56 H    LYS B 204      -2.880   2.671 -10.849  1.00 28.52 LIG 0.16  HD
ATOM     57  C   LYS B 203      -4.044   1.275 -10.197  1.00 30.36 LIG 0.24  C 
ATOM     58 O    LYS B 203      -4.296   0.503  -9.244  1.00 32.75 LIG-0.27  OA
BRANCH 57 59
ATOM     59  CA  LYS B 203      -4.914   1.261 -11.466  1.00 29.12 LIG 0.18  C 
BRANCH 59 60
ATOM     60  CB  LYS B 203      -5.752  -0.029 -11.544  1.00 27.59 LIG 0.04  C 
BRANCH 60 61
ATOM     61  CG  LYS B 203      -6.586  -0.165 -12.792  1.00 28.85 LIG 0.00  C 
BRANCH 61 62
ATOM     62  CD  LYS B 203      -6.950  -1.639 -13.063  1.00 30.56 LIG 0.03  C 
BRANCH 62 63
ATOM     63  CE  LYS B 203      -5.811  -2.565 -12.576  1.00 30.34 LIG 0.23  C 
BRANCH 63 64
ATOM     64  NZ  LYS B 203      -6.184  -3.512 -11.454  1.00 29.96 LIG-0.08  N 
ATOM     65 HZ2  LYS B 203      -7.070  -3.535 -11.367  1.00 29.96 LIG 0.27  HD
ATOM     66 HZ3  LYS B 203      -5.884  -4.328 -11.641  1.00 29.96 LIG 0.27  HD
ATOM     67 HZ1  LYS B 203      -5.820  -3.228 -10.693  1.00 29.96 LIG 0.27  HD
ENDBRANCH 63 64
ENDBRANCH 62 63
ENDBRANCH 61 62
ENDBRANCH 60 61
ENDBRANCH 59 60
BRANCH 59 68
ATOM     68  N   LYS B 203      -4.008   1.384 -12.594  1.00 32.23 LIG-0.35  N 
ATOM     69  C   ALA B 202      -3.136   0.413 -12.840  1.00 35.90 LIG 0.24  C 
ATOM     70 O    ALA B 202      -3.061  -0.579 -12.124  1.00 35.09 LIG-0.27  OA
ATOM     71 H    LYS B 203      -4.089   2.105 -13.057  1.00 32.23 LIG 0.16  HD
BRANCH 69 72
ATOM     72  CA  ALA B 202      -2.145   0.581 -14.007  1.00 40.49 LIG 0.17  C 
ATOM     73  CB  ALA B 202      -0.908   1.358 -13.536  1.00 40.15 LIG 0.04  C 
BRANCH 72 74
ATOM     74  N   ALA B 202      -2.709   1.166 -15.226  1.00 44.85 LIG-0.35  N 
ATOM     75  C   VAL B 201      -3.898   0.739 -15.659  1.00 49.40 LIG 0.26  C 
ATOM     76 O    VAL B 201      -4.511  -0.218 -15.136  1.00 49.68 LIG-0.27  OA
ATOM     77 H    ALA B 202      -2.228   1.769 -15.607  1.00 44.85 LIG 0.16  HD
BRANCH 75 78
ATOM     78  CA  VAL B 201      -4.517   1.484 -16.817  1.00 53.79 LIG 0.40  C 
ATOM     79  N   VAL B 201      -3.614   1.346 -17.994  1.00 59.48 LIG 0.61  N 
BRANCH 78 80
ATOM     80  CB  VAL B 201      -5.938   0.862 -17.074  1.00 53.10 LIG 0.03  C 
ATOM     81  CG1 VAL B 201      -7.063   1.737 -16.494  1.00 58.27 LIG 0.01  C 
ATOM     82  CG2 VAL B 201      -6.168   0.603 -18.590  1.00 52.00 LIG 0.01  C 
ENDBRANCH 78 80
ENDBRANCH 75 78
ENDBRANCH 72 74
ENDBRANCH 69 72
ENDBRANCH 59 68
ENDBRANCH 57 59
ENDBRANCH 46 55
ENDBRANCH 1 46
TORSDOF 33
ENDMDL
