MODEL 1
USER: ADFR SOLUTION from run 67
USER: SCORE 18.124989 LL:  -5.471 LR: -14.628 RR:   0.000 FEB:  -8.364
USER: RMSD 6.463733
USER: SEED 66
USER: STATUS no improvement in best in 17 clusters for 5 generations
USER: GENES 23
USER: genes 0 Translation |==|  0.38992 0.46898 0.28199
USER: genes 1 Rotation |==|  0.74074 0.88787 0.64915 0.63911
USER: genes 2 Torsion [N]-CA--C-[N] |==|  0.26891
USER: genes 3 Torsion [C]-N--CA-[C] |==|  0.70497
USER: genes 4 Torsion [N]-CA--C-[N] |==|  0.07172
USER: genes 5 Torsion [C]-N--CA-[CB] |==|  0.86667
USER: genes 6 Torsion [N]-CA--C-[N] |==|  0.07666
USER: genes 7 Torsion [N]-CA--C-[OXT] |==|  0.88822
USER: genes 8 Torsion [N]-CA--CB-[OG] |==|  0.82165
USER: genes 9 Torsion [CA]-CB--OG-[HG] |==|  0.90927
USER: genes 10 Torsion [N]-CA--CB-[CG2] |==|  0.76278
USER: genes 11 Torsion [CA]-CB--CG1-[CD1] |==|  0.72025
USER: genes 12 Torsion [N]-C--CA-[N] |==|  0.01169
USER: genes 13 Torsion [C]-CA--CB-[CG] |==|  0.87440
USER: genes 14 Torsion [CA]-CB--CG-[CD1] |==|  0.35838
USER: genes 15 Torsion [C]-CA--N-[C] |==|  0.76385
USER: genes 16 Torsion [N]-C--CA-[N] |==|  0.07863
USER: genes 17 Torsion [C]-CA--CB-[CG] |==|  0.54111
USER: genes 18 Torsion [CA]-CB--CG-[OD1] |==|  0.27606
USER: genes 19 Torsion [C]-CA--N-[C] |==|  0.71639
USER: genes 20 Torsion [N]-C--CA-[N] |==|  0.41065
USER: genes 21 Torsion [C]-CA--CB-[CG] |==|  0.88517
USER: genes 22 Torsion [CA]-CB--CG-[CD2] |==|  0.81350
ROOT
ATOM      1  C   PHE C 305      10.585   6.087  -4.689  0.50 34.66 LIG 0.24  C 
ATOM      2 O    PHE C 305       9.452   6.319  -5.100  0.50 33.80 LIG-0.27  OA
ATOM      3  N   PRO C 306      11.349   5.104  -5.205  0.50 35.29 LIG-0.34  N 
ATOM      4  CA  PRO C 306      10.713   3.990  -5.892  0.50 35.79 LIG 0.18  C 
ATOM      5  CB  PRO C 306      11.757   3.589  -6.960  0.50 35.80 LIG 0.04  C 
ATOM      6  CG  PRO C 306      13.002   4.433  -6.663  0.50 35.25 LIG 0.02  C 
ATOM      7  CD  PRO C 306      12.813   4.994  -5.280  0.50 35.51 LIG 0.13  C 
ENDROOT
BRANCH 4 8
ATOM      8  C   PRO C 306      10.510   2.819  -4.928  0.50 36.50 LIG 0.24  C 
ATOM      9  N   ILE C 307       9.294   2.726  -4.365  0.50 37.01 LIG-0.35  N 
ATOM     10 H    ILE C 307       8.661   3.300  -4.464  0.50 37.01 LIG 0.16  HD
ATOM     11 O    PRO C 306      11.441   2.011  -4.712  0.50 36.74 LIG-0.27  OA
BRANCH 9 12
ATOM     12  CA  ILE C 307       8.970   1.581  -3.513  0.50 37.44 LIG 0.18  C 
BRANCH 12 13
ATOM     13  C   ILE C 307       8.029   0.586  -4.196  0.50 38.23 LIG 0.24  C 
ATOM     14  N   SER C 308       8.082   0.589  -5.525  0.50 38.91 LIG-0.34  N 
ATOM     15 H    SER C 308       8.509   1.185  -5.974  0.50 38.91 LIG 0.16  HD
ATOM     16 O    ILE C 307       7.292  -0.161  -3.536  0.50 38.79 LIG-0.27  OA
BRANCH 14 17
ATOM     17  CA  SER C 308       7.426  -0.411  -6.363  0.50 39.43 LIG 0.20  C 
BRANCH 17 18
ATOM     18  C   SER C 308       5.927  -0.115  -6.274  0.50 39.77 LIG 0.24  C 
ATOM     19  N   PRO C 309       5.560   1.154  -6.025  0.50 40.03 LIG-0.34  N 
ATOM     20  CD  PRO C 309       6.367   2.376  -6.175  0.50 39.83 LIG 0.13  C 
ATOM     21  CA  PRO C 309       4.194   1.450  -5.589  0.50 40.09 LIG 0.19  C 
ATOM     22  CG  PRO C 309       5.588   3.389  -5.395  0.50 40.19 LIG 0.02  C 
ATOM     23  CB  PRO C 309       4.156   2.984  -5.567  0.50 40.09 LIG 0.04  C 
ATOM     24 O    SER C 308       5.104  -1.019  -6.444  0.50 39.81 LIG-0.27  OA
BRANCH 21 25
ATOM     25  C   PRO C 309       3.123   0.882  -6.520  0.50 40.04 LIG 0.20  C 
ATOM     26 OXT  PRO C 309       3.254   0.913  -7.747  0.50 40.10 LIG-0.65  OA
ATOM     27 O    PRO C 309       2.090   0.388  -6.065  0.50 40.34 LIG-0.65  OA
ENDBRANCH 21 25
ENDBRANCH 17 18
BRANCH 17 28
ATOM     28  CB  SER C 308       7.723  -1.826  -5.861  0.50 39.49 LIG 0.20  C 
BRANCH 28 29
ATOM     29 OG   SER C 308       9.106  -2.134  -5.963  0.50 39.70 LIG-0.40  OA
ATOM     30 HG   SER C 308       9.432  -1.742  -6.631  0.50 39.70 LIG 0.21  HD
ENDBRANCH 28 29
ENDBRANCH 17 28
ENDBRANCH 14 17
ENDBRANCH 12 13
BRANCH 12 31
ATOM     31  CB  ILE C 307       8.317   2.009  -2.176  0.50 37.20 LIG 0.01  C 
ATOM     32  CG2 ILE C 307       9.387   2.355  -1.130  0.50 36.86 LIG 0.01  C 
BRANCH 31 33
ATOM     33  CG1 ILE C 307       7.332   3.163  -2.432  0.50 35.88 LIG 0.00  C 
ATOM     34  CD1 ILE C 307       7.846   4.541  -2.095  0.50 32.01 LIG 0.01  C 
ENDBRANCH 31 33
ENDBRANCH 12 31
ENDBRANCH 9 12
ENDBRANCH 4 8
BRANCH 1 35
ATOM     35  CA  PHE C 305      11.186   6.957  -3.577  0.50 34.47 LIG 0.18  C 
BRANCH 35 36
ATOM     36  CB  PHE C 305      11.066   8.421  -4.028  0.50 34.49 LIG 0.07  C 
BRANCH 36 37
ATOM     37  CG  PHE C 305      11.472   8.687  -5.468  0.50 35.55 LIG-0.06  A 
ATOM     38  CD1 PHE C 305      10.645   9.385  -6.348  0.50 36.28 LIG 0.01  A 
ATOM     39  CE1 PHE C 305      11.041   9.620  -7.668  0.50 36.66 LIG 0.00  A 
ATOM     40  CZ  PHE C 305      12.273   9.143  -8.125  0.50 36.87 LIG 0.00  A 
ATOM     41  CE2 PHE C 305      13.102   8.444  -7.265  0.50 36.76 LIG 0.00  A 
ATOM     42  CD2 PHE C 305      12.695   8.210  -5.942  0.50 36.02 LIG 0.01  A 
ENDBRANCH 36 37
ENDBRANCH 35 36
BRANCH 35 43
ATOM     43  N   PHE C 305      12.590   6.673  -3.262  0.50 33.54 LIG-0.35  N 
ATOM     44 H    PHE C 305      13.159   7.175  -3.669  0.50 33.54 LIG 0.16  HD
ATOM     45  C   ASN C 304      12.917   5.703  -2.407  0.50 33.07 LIG 0.24  C 
ATOM     46 O    ASN C 304      12.143   4.784  -2.114  0.50 33.39 LIG-0.27  OA
BRANCH 45 47
ATOM     47  CA  ASN C 304      14.317   5.788  -1.783  0.50 32.40 LIG 0.18  C 
BRANCH 47 48
ATOM     48  CB  ASN C 304      14.391   5.167  -0.380  0.50 32.38 LIG 0.14  C 
BRANCH 48 49
ATOM     49  CG  ASN C 304      15.674   5.564   0.393  0.50 31.77 LIG 0.22  C 
ATOM     50 OD1  ASN C 304      15.659   6.456   1.233  0.50 27.48 LIG-0.27  OA
ATOM     51  ND2 ASN C 304      16.787   4.921   0.063  0.50 32.56 LIG-0.37  N 
ATOM     52 21HD ASN C 304      17.531   5.126   0.443  0.50 32.56 LIG 0.16  HD
ATOM     53 22HD ASN C 304      16.765   4.299  -0.531  0.50 32.56 LIG 0.16  HD
ENDBRANCH 48 49
ENDBRANCH 47 48
BRANCH 47 54
ATOM     54  N   ASN C 304      14.752   7.161  -1.707  0.50 31.56 LIG-0.34  N 
ATOM     55  C   LEU C 303      15.618   7.645  -2.585  0.50 30.83 LIG 0.26  C 
ATOM     56 O    LEU C 303      15.923   7.043  -3.605  0.50 29.02 LIG-0.27  OA
ATOM     57 H    ASN C 304      14.408   7.615  -1.062  0.50 31.56 LIG 0.16  HD
BRANCH 55 58
ATOM     58  CA  LEU C 303      16.215   9.017  -2.249  0.50 30.56 LIG 0.40  C 
ATOM     59  N   LEU C 303      17.611   9.198  -2.732  0.50 30.88 LIG 0.61  N 
BRANCH 58 60
ATOM     60  CB  LEU C 303      15.323  10.150  -2.771  0.50 30.80 LIG 0.06  C 
BRANCH 60 61
ATOM     61  CG  LEU C 303      14.701   9.987  -4.163  0.50 30.92 LIG-0.02  C 
ATOM     62  CD2 LEU C 303      15.787  10.016  -5.254  0.50 31.43 LIG 0.01  C 
ATOM     63  CD1 LEU C 303      13.625  11.029  -4.414  0.50 30.50 LIG 0.01  C 
ENDBRANCH 60 61
ENDBRANCH 58 60
ENDBRANCH 55 58
ENDBRANCH 47 54
ENDBRANCH 45 47
ENDBRANCH 35 43
ENDBRANCH 1 35
TORSDOF 21
ENDMDL
MODEL 2
USER: ADFR SOLUTION from run 51
USER: SCORE 18.708524 LL:  -5.130 LR: -14.630 RR:   0.000 FEB:  -8.366
USER: RMSD 7.756666
USER: SEED 50
USER: STATUS no improvement in best in 28 clusters for 5 generations
USER: GENES 23
USER: genes 0 Translation |==|  0.40178 0.48304 0.28673
USER: genes 1 Rotation |==|  0.73210 0.86834 0.67868 0.66890
USER: genes 2 Torsion [N]-CA--C-[N] |==|  0.26555
USER: genes 3 Torsion [C]-N--CA-[C] |==|  0.71278
USER: genes 4 Torsion [N]-CA--C-[N] |==|  0.44793
USER: genes 5 Torsion [C]-N--CA-[CB] |==|  0.59290
USER: genes 6 Torsion [N]-CA--C-[N] |==|  0.81468
USER: genes 7 Torsion [N]-CA--C-[OXT] |==|  0.36810
USER: genes 8 Torsion [N]-CA--CB-[OG] |==|  0.98367
USER: genes 9 Torsion [CA]-CB--OG-[HG] |==|  0.00469
USER: genes 10 Torsion [N]-CA--CB-[CG2] |==|  0.71205
USER: genes 11 Torsion [CA]-CB--CG1-[CD1] |==|  0.19183
USER: genes 12 Torsion [N]-C--CA-[N] |==|  0.95281
USER: genes 13 Torsion [C]-CA--CB-[CG] |==|  0.98853
USER: genes 14 Torsion [CA]-CB--CG-[CD1] |==|  0.75681
USER: genes 15 Torsion [C]-CA--N-[C] |==|  0.79559
USER: genes 16 Torsion [N]-C--CA-[N] |==|  0.49769
USER: genes 17 Torsion [C]-CA--CB-[CG] |==|  0.45091
USER: genes 18 Torsion [CA]-CB--CG-[OD1] |==|  0.96832
USER: genes 19 Torsion [C]-CA--N-[C] |==|  0.77332
USER: genes 20 Torsion [N]-C--CA-[N] |==|  0.66876
USER: genes 21 Torsion [C]-CA--CB-[CG] |==|  0.72438
USER: genes 22 Torsion [CA]-CB--CG-[CD2] |==|  0.52653
ROOT
ATOM      1  C   PHE C 305      10.887   6.424  -4.593  0.50 34.66 LIG 0.24  C 
ATOM      2 O    PHE C 305       9.850   6.696  -5.189  0.50 33.80 LIG-0.27  OA
ATOM      3  N   PRO C 306      11.723   5.453  -5.011  0.50 35.29 LIG-0.34  N 
ATOM      4  CA  PRO C 306      11.212   4.384  -5.854  0.50 35.79 LIG 0.18  C 
ATOM      5  CB  PRO C 306      12.428   4.015  -6.735  0.50 35.80 LIG 0.04  C 
ATOM      6  CG  PRO C 306      13.606   4.821  -6.177  0.50 35.25 LIG 0.02  C 
ATOM      7  CD  PRO C 306      13.176   5.321  -4.826  0.50 35.51 LIG 0.13  C 
ENDROOT
BRANCH 4 8
ATOM      8  C   PRO C 306      10.827   3.173  -5.001  0.50 36.50 LIG 0.24  C 
ATOM      9  N   ILE C 307       9.533   3.089  -4.651  0.50 37.01 LIG-0.35  N 
ATOM     10 H    ILE C 307       8.938   3.686  -4.821  0.50 37.01 LIG 0.16  HD
ATOM     11 O    PRO C 306      11.693   2.328  -4.680  0.50 36.74 LIG-0.27  OA
BRANCH 9 12
ATOM     12  CA  ILE C 307       9.048   1.914  -3.926  0.50 37.44 LIG 0.18  C 
BRANCH 12 13
ATOM     13  C   ILE C 307       8.270   0.949  -4.823  0.50 38.23 LIG 0.24  C 
ATOM     14  N   SER C 308       8.147  -0.285  -4.342  0.50 38.91 LIG-0.34  N 
ATOM     15 H    SER C 308       8.575  -0.562  -3.649  0.50 38.91 LIG 0.16  HD
ATOM     16 O    ILE C 307       7.792   1.318  -5.905  0.50 38.79 LIG-0.27  OA
BRANCH 14 17
ATOM     17  CA  SER C 308       7.278  -1.301  -4.931  0.50 39.43 LIG 0.20  C 
BRANCH 17 18
ATOM     18  C   SER C 308       6.158  -0.535  -5.639  0.50 39.77 LIG 0.24  C 
ATOM     19  N   PRO C 309       5.301   0.160  -4.870  0.50 40.03 LIG-0.34  N 
ATOM     20  CD  PRO C 309       5.481   0.590  -3.474  0.50 39.83 LIG 0.13  C 
ATOM     21  CA  PRO C 309       4.027   0.623  -5.426  0.50 40.09 LIG 0.19  C 
ATOM     22  CG  PRO C 309       4.091   0.951  -3.053  0.50 40.19 LIG 0.02  C 
ATOM     23  CB  PRO C 309       3.442   1.479  -4.296  0.50 40.09 LIG 0.04  C 
ATOM     24 O    SER C 308       6.073  -0.556  -6.870  0.50 39.81 LIG-0.27  OA
BRANCH 21 25
ATOM     25  C   PRO C 309       4.186   1.434  -6.712  0.50 40.04 LIG 0.20  C 
ATOM     26 OXT  PRO C 309       3.493   1.206  -7.707  0.50 40.10 LIG-0.65  OA
ATOM     27 O    PRO C 309       5.025   2.333  -6.790  0.50 40.34 LIG-0.65  OA
ENDBRANCH 21 25
ENDBRANCH 17 18
BRANCH 17 28
ATOM     28  CB  SER C 308       6.700  -2.220  -3.852  0.50 39.49 LIG 0.20  C 
BRANCH 28 29
ATOM     29 OG   SER C 308       7.258  -1.937  -2.576  0.50 39.70 LIG-0.40  OA
ATOM     30 HG   SER C 308       7.794  -1.294  -2.641  0.50 39.70 LIG 0.21  HD
ENDBRANCH 28 29
ENDBRANCH 17 28
ENDBRANCH 14 17
ENDBRANCH 12 13
BRANCH 12 31
ATOM     31  CB  ILE C 307       8.136   2.292  -2.733  0.50 37.20 LIG 0.01  C 
ATOM     32  CG2 ILE C 307       8.890   2.153  -1.402  0.50 36.86 LIG 0.01  C 
BRANCH 31 33
ATOM     33  CG1 ILE C 307       7.562   3.702  -2.955  0.50 35.88 LIG 0.00  C 
ATOM     34  CD1 ILE C 307       6.560   3.825  -4.076  0.50 32.01 LIG 0.01  C 
ENDBRANCH 31 33
ENDBRANCH 12 31
ENDBRANCH 9 12
ENDBRANCH 4 8
BRANCH 1 35
ATOM     35  CA  PHE C 305      11.285   7.231  -3.350  0.50 34.47 LIG 0.18  C 
BRANCH 35 36
ATOM     36  CB  PHE C 305      11.781   8.602  -3.834  0.50 34.49 LIG 0.07  C 
BRANCH 36 37
ATOM     37  CG  PHE C 305      11.847   8.767  -5.344  0.50 35.55 LIG-0.06  A 
ATOM     38  CD1 PHE C 305      12.976   8.398  -6.075  0.50 36.28 LIG 0.01  A 
ATOM     39  CE1 PHE C 305      13.011   8.556  -7.464  0.50 36.66 LIG 0.00  A 
ATOM     40  CZ  PHE C 305      11.913   9.101  -8.135  0.50 36.87 LIG 0.00  A 
ATOM     41  CE2 PHE C 305      10.788   9.477  -7.423  0.50 36.76 LIG 0.00  A 
ATOM     42  CD2 PHE C 305      10.762   9.317  -6.028  0.50 36.02 LIG 0.01  A 
ENDBRANCH 36 37
ENDBRANCH 35 36
BRANCH 35 43
ATOM     43  N   PHE C 305      12.329   6.616  -2.523  0.50 33.54 LIG-0.35  N 
ATOM     44 H    PHE C 305      13.101   6.991  -2.580  0.50 33.54 LIG 0.16  HD
ATOM     45  C   ASN C 304      12.061   5.558  -1.757  0.50 33.07 LIG 0.24  C 
ATOM     46 O    ASN C 304      11.079   4.829  -1.947  0.50 33.39 LIG-0.27  OA
BRANCH 45 47
ATOM     47  CA  ASN C 304      13.034   5.287  -0.602  0.50 32.40 LIG 0.18  C 
BRANCH 47 48
ATOM     48  CB  ASN C 304      14.482   5.072  -1.071  0.50 32.38 LIG 0.14  C 
BRANCH 48 49
ATOM     49  CG  ASN C 304      15.519   5.232   0.069  0.50 31.77 LIG 0.22  C 
ATOM     50 OD1  ASN C 304      15.201   5.702   1.156  0.50 27.48 LIG-0.27  OA
ATOM     51  ND2 ASN C 304      16.767   4.879  -0.211  0.50 32.56 LIG-0.37  N 
ATOM     52 21HD ASN C 304      17.385   4.977   0.380  0.50 32.56 LIG 0.16  HD
ATOM     53 22HD ASN C 304      16.958   4.552  -0.983  0.50 32.56 LIG 0.16  HD
ENDBRANCH 48 49
ENDBRANCH 47 48
BRANCH 47 54
ATOM     54  N   ASN C 304      12.613   4.130   0.150  0.50 31.56 LIG-0.34  N 
ATOM     55  C   LEU C 303      11.670   4.234   1.075  0.50 30.83 LIG 0.26  C 
ATOM     56 O    LEU C 303      10.972   5.231   1.191  0.50 29.02 LIG-0.27  OA
ATOM     57 H    ASN C 304      13.018   3.399  -0.053  0.50 31.56 LIG 0.16  HD
BRANCH 55 58
ATOM     58  CA  LEU C 303      11.499   3.018   1.994  0.50 30.56 LIG 0.40  C 
ATOM     59  N   LEU C 303      10.150   2.394   1.921  0.50 30.88 LIG 0.61  N 
BRANCH 58 60
ATOM     60  CB  LEU C 303      12.583   1.967   1.725  0.50 30.80 LIG 0.06  C 
BRANCH 60 61
ATOM     61  CG  LEU C 303      12.215   0.769   0.841  0.50 30.92 LIG-0.02  C 
ATOM     62  CD2 LEU C 303      13.328  -0.294   0.869  0.50 31.43 LIG 0.01  C 
ATOM     63  CD1 LEU C 303      11.892   1.206  -0.577  0.50 30.50 LIG 0.01  C 
ENDBRANCH 60 61
ENDBRANCH 58 60
ENDBRANCH 55 58
ENDBRANCH 47 54
ENDBRANCH 45 47
ENDBRANCH 35 43
ENDBRANCH 1 35
TORSDOF 21
ENDMDL
MODEL 3
USER: ADFR SOLUTION from run 194
USER: SCORE 17.158910 LL:  -4.154 LR: -14.597 RR:   0.000 FEB:  -8.332
USER: RMSD 12.288957
USER: SEED 193
USER: STATUS no improvement in best in 16 clusters for 5 generations
USER: GENES 23
USER: genes 0 Translation |==|  0.41918 0.35338 0.34072
USER: genes 1 Rotation |==|  0.78698 0.12895 0.52494 0.67130
USER: genes 2 Torsion [N]-CA--C-[N] |==|  0.83733
USER: genes 3 Torsion [C]-N--CA-[C] |==|  0.55831
USER: genes 4 Torsion [N]-CA--C-[N] |==|  0.48889
USER: genes 5 Torsion [C]-N--CA-[CB] |==|  0.88153
USER: genes 6 Torsion [N]-CA--C-[N] |==|  0.40200
USER: genes 7 Torsion [N]-CA--C-[OXT] |==|  0.85333
USER: genes 8 Torsion [N]-CA--CB-[OG] |==|  0.70487
USER: genes 9 Torsion [CA]-CB--OG-[HG] |==|  0.30317
USER: genes 10 Torsion [N]-CA--CB-[CG2] |==|  0.23287
USER: genes 11 Torsion [CA]-CB--CG1-[CD1] |==|  0.20598
USER: genes 12 Torsion [N]-C--CA-[N] |==|  0.17299
USER: genes 13 Torsion [C]-CA--CB-[CG] |==|  0.18186
USER: genes 14 Torsion [CA]-CB--CG-[CD1] |==|  0.02240
USER: genes 15 Torsion [C]-CA--N-[C] |==|  0.69473
USER: genes 16 Torsion [N]-C--CA-[N] |==|  0.31695
USER: genes 17 Torsion [C]-CA--CB-[CG] |==|  0.25495
USER: genes 18 Torsion [CA]-CB--CG-[OD1] |==|  0.33164
USER: genes 19 Torsion [C]-CA--N-[C] |==|  0.63483
USER: genes 20 Torsion [N]-C--CA-[N] |==|  0.83816
USER: genes 21 Torsion [C]-CA--CB-[CG] |==|  0.05157
USER: genes 22 Torsion [CA]-CB--CG-[CD2] |==|  0.70040
ROOT
ATOM      1  C   PHE C 305      11.331   3.312  -3.499  0.50 34.66 LIG 0.24  C 
ATOM      2 O    PHE C 305      12.255   2.674  -3.004  0.50 33.80 LIG-0.27  OA
ATOM      3  N   PRO C 306      11.386   3.799  -4.755  0.50 35.29 LIG-0.34  N 
ATOM      4  CA  PRO C 306      12.681   4.025  -5.378  0.50 35.79 LIG 0.18  C 
ATOM      5  CB  PRO C 306      12.403   3.769  -6.877  0.50 35.80 LIG 0.04  C 
ATOM      6  CG  PRO C 306      10.886   3.579  -6.993  0.50 35.25 LIG 0.02  C 
ATOM      7  CD  PRO C 306      10.296   4.078  -5.702  0.50 35.51 LIG 0.13  C 
ENDROOT
BRANCH 4 8
ATOM      8  C   PRO C 306      13.112   5.481  -5.191  0.50 36.50 LIG 0.24  C 
ATOM      9  N   ILE C 307      12.276   6.409  -5.686  0.50 37.01 LIG-0.35  N 
ATOM     10 H    ILE C 307      11.566   6.238  -6.140  0.50 37.01 LIG 0.16  HD
ATOM     11 O    PRO C 306      14.180   5.751  -4.596  0.50 36.74 LIG-0.27  OA
BRANCH 9 12
ATOM     12  CA  ILE C 307      12.549   7.829  -5.464  0.50 37.44 LIG 0.18  C 
BRANCH 12 13
ATOM     13  C   ILE C 307      11.300   8.700  -5.623  0.50 38.23 LIG 0.24  C 
ATOM     14  N   SER C 308      11.479   9.989  -5.349  0.50 38.91 LIG-0.34  N 
ATOM     15 H    SER C 308      12.197  10.295  -4.987  0.50 38.91 LIG 0.16  HD
ATOM     16 O    ILE C 307      10.219   8.217  -5.990  0.50 38.79 LIG-0.27  OA
BRANCH 14 17
ATOM     17  CA  SER C 308      10.485  11.022  -5.628  0.50 39.43 LIG 0.20  C 
BRANCH 17 18
ATOM     18  C   SER C 308       9.429  10.896  -4.527  0.50 39.77 LIG 0.24  C 
ATOM     19  N   PRO C 309       8.857  12.030  -4.085  0.50 40.03 LIG-0.34  N 
ATOM     20  CD  PRO C 309       8.830  13.346  -4.742  0.50 39.83 LIG 0.13  C 
ATOM     21  CA  PRO C 309       8.112  12.032  -2.824  0.50 40.09 LIG 0.19  C 
ATOM     22  CG  PRO C 309       8.421  14.266  -3.634  0.50 40.19 LIG 0.02  C 
ATOM     23  CB  PRO C 309       7.512  13.443  -2.773  0.50 40.09 LIG 0.04  C 
ATOM     24 O    SER C 308       9.118   9.785  -4.088  0.50 39.81 LIG-0.27  OA
BRANCH 21 25
ATOM     25  C   PRO C 309       7.020  10.963  -2.763  0.50 40.04 LIG 0.20  C 
ATOM     26 OXT  PRO C 309       6.167  10.862  -3.649  0.50 40.10 LIG-0.65  OA
ATOM     27 O    PRO C 309       6.959  10.179  -1.814  0.50 40.34 LIG-0.65  OA
ENDBRANCH 21 25
ENDBRANCH 17 18
BRANCH 17 28
ATOM     28  CB  SER C 308       9.850  10.813  -7.005  0.50 39.49 LIG 0.20  C 
BRANCH 28 29
ATOM     29 OG   SER C 308      10.324  11.766  -7.945  0.50 39.70 LIG-0.40  OA
ATOM     30 HG   SER C 308      10.826  11.386  -8.501  0.50 39.70 LIG 0.21  HD
ENDBRANCH 28 29
ENDBRANCH 17 28
ENDBRANCH 14 17
ENDBRANCH 12 13
BRANCH 12 31
ATOM     31  CB  ILE C 307      13.633   8.378  -6.423  0.50 37.20 LIG 0.01  C 
ATOM     32  CG2 ILE C 307      13.019   8.775  -7.774  0.50 36.86 LIG 0.01  C 
BRANCH 31 33
ATOM     33  CG1 ILE C 307      14.383   9.536  -5.740  0.50 35.88 LIG 0.00  C 
ATOM     34  CD1 ILE C 307      15.352   9.130  -4.657  0.50 32.01 LIG 0.01  C 
ENDBRANCH 31 33
ENDBRANCH 12 31
ENDBRANCH 9 12
ENDBRANCH 4 8
BRANCH 1 35
ATOM     35  CA  PHE C 305      10.046   3.542  -2.694  0.50 34.47 LIG 0.18  C 
BRANCH 35 36
ATOM     36  CB  PHE C 305      10.279   2.969  -1.287  0.50 34.49 LIG 0.07  C 
BRANCH 36 37
ATOM     37  CG  PHE C 305      11.342   3.683  -0.469  0.50 35.55 LIG-0.06  A 
ATOM     38  CD1 PHE C 305      11.928   4.872  -0.902  0.50 36.28 LIG 0.01  A 
ATOM     39  CE1 PHE C 305      12.901   5.512  -0.130  0.50 36.66 LIG 0.00  A 
ATOM     40  CZ  PHE C 305      13.310   4.956   1.086  0.50 36.87 LIG 0.00  A 
ATOM     41  CE2 PHE C 305      12.741   3.774   1.526  0.50 36.76 LIG 0.00  A 
ATOM     42  CD2 PHE C 305      11.766   3.136   0.744  0.50 36.02 LIG 0.01  A 
ENDBRANCH 36 37
ENDBRANCH 35 36
BRANCH 35 43
ATOM     43  N   PHE C 305       8.843   2.924  -3.262  0.50 33.54 LIG-0.35  N 
ATOM     44 H    PHE C 305       8.824   2.065  -3.218  0.50 33.54 LIG 0.16  HD
ATOM     45  C   ASN C 304       7.877   3.672  -3.796  0.50 33.07 LIG 0.24  C 
ATOM     46 O    ASN C 304       8.063   4.836  -4.167  0.50 33.39 LIG-0.27  OA
BRANCH 45 47
ATOM     47  CA  ASN C 304       6.495   3.015  -3.919  0.50 32.40 LIG 0.18  C 
BRANCH 47 48
ATOM     48  CB  ASN C 304       5.951   3.018  -5.356  0.50 32.38 LIG 0.14  C 
BRANCH 48 49
ATOM     49  CG  ASN C 304       6.321   1.738  -6.148  0.50 31.77 LIG 0.22  C 
ATOM     50 OD1  ASN C 304       5.454   0.995  -6.594  0.50 27.48 LIG-0.27  OA
ATOM     51  ND2 ASN C 304       7.615   1.472  -6.274  0.50 32.56 LIG-0.37  N 
ATOM     52 21HD ASN C 304       7.870   0.757  -6.680  0.50 32.56 LIG 0.16  HD
ATOM     53 22HD ASN C 304       8.199   2.014  -5.950  0.50 32.56 LIG 0.16  HD
ENDBRANCH 48 49
ENDBRANCH 47 48
BRANCH 47 54
ATOM     54  N   ASN C 304       5.544   3.678  -3.061  0.50 31.56 LIG-0.34  N 
ATOM     55  C   LEU C 303       4.757   2.978  -2.257  0.50 30.83 LIG 0.26  C 
ATOM     56 O    LEU C 303       4.934   1.788  -2.040  0.50 29.02 LIG-0.27  OA
ATOM     57 H    ASN C 304       5.538   4.536  -3.121  0.50 31.56 LIG 0.16  HD
BRANCH 55 58
ATOM     58  CA  LEU C 303       3.608   3.755  -1.603  0.50 30.56 LIG 0.40  C 
ATOM     59  N   LEU C 303       4.056   4.916  -0.786  0.50 30.88 LIG 0.61  N 
BRANCH 58 60
ATOM     60  CB  LEU C 303       2.584   4.210  -2.651  0.50 30.80 LIG 0.06  C 
BRANCH 60 61
ATOM     61  CG  LEU C 303       2.590   3.502  -4.012  0.50 30.92 LIG-0.02  C 
ATOM     62  CD2 LEU C 303       3.154   4.427  -5.107  0.50 31.43 LIG 0.01  C 
ATOM     63  CD1 LEU C 303       1.209   2.983  -4.372  0.50 30.50 LIG 0.01  C 
ENDBRANCH 60 61
ENDBRANCH 58 60
ENDBRANCH 55 58
ENDBRANCH 47 54
ENDBRANCH 45 47
ENDBRANCH 35 43
ENDBRANCH 1 35
TORSDOF 21
ENDMDL
MODEL 4
USER: ADFR SOLUTION from run 51
USER: SCORE 18.254574 LL:  -5.340 LR: -14.516 RR:   0.000 FEB:  -8.251
USER: RMSD 7.887615
USER: SEED 50
USER: STATUS no improvement in best in 28 clusters for 5 generations
USER: GENES 23
USER: genes 0 Translation |==|  0.41482 0.48805 0.27537
USER: genes 1 Rotation |==|  0.71799 0.87829 0.68028 0.66393
USER: genes 2 Torsion [N]-CA--C-[N] |==|  0.27653
USER: genes 3 Torsion [C]-N--CA-[C] |==|  0.61112
USER: genes 4 Torsion [N]-CA--C-[N] |==|  0.46542
USER: genes 5 Torsion [C]-N--CA-[CB] |==|  0.86024
USER: genes 6 Torsion [N]-CA--C-[N] |==|  0.19713
USER: genes 7 Torsion [N]-CA--C-[OXT] |==|  0.46082
USER: genes 8 Torsion [N]-CA--CB-[OG] |==|  0.83498
USER: genes 9 Torsion [CA]-CB--OG-[HG] |==|  0.12526
USER: genes 10 Torsion [N]-CA--CB-[CG2] |==|  0.75066
USER: genes 11 Torsion [CA]-CB--CG1-[CD1] |==|  0.24950
USER: genes 12 Torsion [N]-C--CA-[N] |==|  0.93483
USER: genes 13 Torsion [C]-CA--CB-[CG] |==|  0.04871
USER: genes 14 Torsion [CA]-CB--CG-[CD1] |==|  0.73258
USER: genes 15 Torsion [C]-CA--N-[C] |==|  0.83325
USER: genes 16 Torsion [N]-C--CA-[N] |==|  0.46548
USER: genes 17 Torsion [C]-CA--CB-[CG] |==|  0.44783
USER: genes 18 Torsion [CA]-CB--CG-[OD1] |==|  0.98021
USER: genes 19 Torsion [C]-CA--N-[C] |==|  0.79034
USER: genes 20 Torsion [N]-C--CA-[N] |==|  0.68413
USER: genes 21 Torsion [C]-CA--CB-[CG] |==|  0.60511
USER: genes 22 Torsion [CA]-CB--CG-[CD2] |==|  0.74215
ROOT
ATOM      1  C   PHE C 305      11.220   6.544  -4.823  0.50 34.66 LIG 0.24  C 
ATOM      2 O    PHE C 305      10.163   6.732  -5.418  0.50 33.80 LIG-0.27  OA
ATOM      3  N   PRO C 306      12.119   5.625  -5.227  0.50 35.29 LIG-0.34  N 
ATOM      4  CA  PRO C 306      11.679   4.507  -6.047  0.50 35.79 LIG 0.18  C 
ATOM      5  CB  PRO C 306      12.914   4.206  -6.927  0.50 35.80 LIG 0.04  C 
ATOM      6  CG  PRO C 306      14.036   5.103  -6.392  0.50 35.25 LIG 0.02  C 
ATOM      7  CD  PRO C 306      13.579   5.598  -5.048  0.50 35.51 LIG 0.13  C 
ENDROOT
BRANCH 4 8
ATOM      8  C   PRO C 306      11.384   3.290  -5.168  0.50 36.50 LIG 0.24  C 
ATOM      9  N   ILE C 307      10.089   3.076  -4.878  0.50 37.01 LIG-0.35  N 
ATOM     10 H    ILE C 307       9.444   3.599  -5.098  0.50 37.01 LIG 0.16  HD
ATOM     11 O    PRO C 306      12.317   2.554  -4.775  0.50 36.74 LIG-0.27  OA
BRANCH 9 12
ATOM     12  CA  ILE C 307       9.697   1.879  -4.133  0.50 37.44 LIG 0.18  C 
BRANCH 12 13
ATOM     13  C   ILE C 307       8.403   1.255  -4.662  0.50 38.23 LIG 0.24  C 
ATOM     14  N   SER C 308       8.141   0.036  -4.200  0.50 38.91 LIG-0.34  N 
ATOM     15 H    SER C 308       8.708  -0.423  -3.745  0.50 38.91 LIG 0.16  HD
ATOM     16 O    ILE C 307       7.668   1.867  -5.451  0.50 38.79 LIG-0.27  OA
BRANCH 14 17
ATOM     17  CA  SER C 308       6.871  -0.654  -4.411  0.50 39.43 LIG 0.20  C 
BRANCH 17 18
ATOM     18  C   SER C 308       6.823  -0.997  -5.902  0.50 39.77 LIG 0.24  C 
ATOM     19  N   PRO C 309       7.655  -1.957  -6.344  0.50 40.03 LIG-0.34  N 
ATOM     20  CD  PRO C 309       8.357  -2.981  -5.554  0.50 39.83 LIG 0.13  C 
ATOM     21  CA  PRO C 309       7.914  -2.098  -7.779  0.50 40.09 LIG 0.19  C 
ATOM     22  CG  PRO C 309       9.401  -3.479  -6.504  0.50 40.19 LIG 0.02  C 
ATOM     23  CB  PRO C 309       8.768  -3.371  -7.857  0.50 40.09 LIG 0.04  C 
ATOM     24 O    SER C 308       6.033  -0.413  -6.649  0.50 39.81 LIG-0.27  OA
BRANCH 21 25
ATOM     25  C   PRO C 309       6.642  -2.231  -8.615  0.50 40.04 LIG 0.20  C 
ATOM     26 OXT  PRO C 309       6.661  -2.101  -9.842  0.50 40.10 LIG-0.65  OA
ATOM     27 O    PRO C 309       5.556  -2.461  -8.078  0.50 40.34 LIG-0.65  OA
ENDBRANCH 21 25
ENDBRANCH 17 18
BRANCH 17 28
ATOM     28  CB  SER C 308       5.691   0.242  -4.029  0.50 39.49 LIG 0.20  C 
BRANCH 28 29
ATOM     29 OG   SER C 308       5.758   0.636  -2.666  0.50 39.70 LIG-0.40  OA
ATOM     30 HG   SER C 308       6.542   0.877  -2.482  0.50 39.70 LIG 0.21  HD
ENDBRANCH 28 29
ENDBRANCH 17 28
ENDBRANCH 14 17
ENDBRANCH 12 13
BRANCH 12 31
ATOM     31  CB  ILE C 307       9.504   2.161  -2.623  0.50 37.20 LIG 0.01  C 
ATOM     32  CG2 ILE C 307      10.820   1.958  -1.856  0.50 36.86 LIG 0.01  C 
BRANCH 31 33
ATOM     33  CG1 ILE C 307       8.910   3.568  -2.436  0.50 35.88 LIG 0.00  C 
ATOM     34  CD1 ILE C 307       7.402   3.638  -2.424  0.50 32.01 LIG 0.01  C 
ENDBRANCH 31 33
ENDBRANCH 12 31
ENDBRANCH 9 12
ENDBRANCH 4 8
BRANCH 1 35
ATOM     35  CA  PHE C 305      11.566   7.401  -3.598  0.50 34.47 LIG 0.18  C 
BRANCH 35 36
ATOM     36  CB  PHE C 305      12.120   8.737  -4.116  0.50 34.49 LIG 0.07  C 
BRANCH 36 37
ATOM     37  CG  PHE C 305      11.806   9.044  -5.571  0.50 35.55 LIG-0.06  A 
ATOM     38  CD1 PHE C 305      12.712   8.765  -6.593  0.50 36.28 LIG 0.01  A 
ATOM     39  CE1 PHE C 305      12.399   9.053  -7.925  0.50 36.66 LIG 0.00  A 
ATOM     40  CZ  PHE C 305      11.171   9.640  -8.245  0.50 36.87 LIG 0.00  A 
ATOM     41  CE2 PHE C 305      10.264   9.926  -7.241  0.50 36.76 LIG 0.00  A 
ATOM     42  CD2 PHE C 305      10.587   9.636  -5.906  0.50 36.02 LIG 0.01  A 
ENDBRANCH 36 37
ENDBRANCH 35 36
BRANCH 35 43
ATOM     43  N   PHE C 305      12.548   6.804  -2.686  0.50 33.54 LIG-0.35  N 
ATOM     44 H    PHE C 305      13.266   7.266  -2.578  0.50 33.54 LIG 0.16  HD
ATOM     45  C   ASN C 304      12.307   5.636  -2.090  0.50 33.07 LIG 0.24  C 
ATOM     46 O    ASN C 304      11.465   4.835  -2.511  0.50 33.39 LIG-0.27  OA
BRANCH 45 47
ATOM     47  CA  ASN C 304      13.129   5.331  -0.830  0.50 32.40 LIG 0.18  C 
BRANCH 47 48
ATOM     48  CB  ASN C 304      14.611   5.055  -1.128  0.50 32.38 LIG 0.14  C 
BRANCH 48 49
ATOM     49  CG  ASN C 304      15.518   5.205   0.119  0.50 31.77 LIG 0.22  C 
ATOM     50 OD1  ASN C 304      15.077   5.637   1.178  0.50 27.48 LIG-0.27  OA
ATOM     51  ND2 ASN C 304      16.797   4.885  -0.037  0.50 32.56 LIG-0.37  N 
ATOM     52 21HD ASN C 304      17.347   4.978   0.619  0.50 32.56 LIG 0.16  HD
ATOM     53 22HD ASN C 304      17.076   4.583  -0.792  0.50 32.56 LIG 0.16  HD
ENDBRANCH 48 49
ENDBRANCH 47 48
BRANCH 47 54
ATOM     54  N   ASN C 304      12.576   4.195  -0.132  0.50 31.56 LIG-0.34  N 
ATOM     55  C   LEU C 303      11.467   4.316   0.581  0.50 30.83 LIG 0.26  C 
ATOM     56 O    LEU C 303      10.750   5.305   0.517  0.50 29.02 LIG-0.27  OA
ATOM     57 H    ASN C 304      13.020   3.464  -0.222  0.50 31.56 LIG 0.16  HD
BRANCH 55 58
ATOM     58  CA  LEU C 303      11.127   3.132   1.495  0.50 30.56 LIG 0.40  C 
ATOM     59  N   LEU C 303       9.892   2.403   1.098  0.50 30.88 LIG 0.61  N 
BRANCH 58 60
ATOM     60  CB  LEU C 303      12.307   2.157   1.596  0.50 30.80 LIG 0.06  C 
BRANCH 60 61
ATOM     61  CG  LEU C 303      11.995   0.657   1.644  0.50 30.92 LIG-0.02  C 
ATOM     62  CD2 LEU C 303      11.880   0.168   3.100  0.50 31.43 LIG 0.01  C 
ATOM     63  CD1 LEU C 303      13.017  -0.147   0.860  0.50 30.50 LIG 0.01  C 
ENDBRANCH 60 61
ENDBRANCH 58 60
ENDBRANCH 55 58
ENDBRANCH 47 54
ENDBRANCH 45 47
ENDBRANCH 35 43
ENDBRANCH 1 35
TORSDOF 21
ENDMDL
MODEL 5
USER: ADFR SOLUTION from run 30
USER: SCORE 17.811259 LL:  -5.413 LR: -14.297 RR:   0.000 FEB:  -8.033
USER: RMSD 10.728380
USER: SEED 29
USER: STATUS no improvement in best in 9 clusters for 5 generations
USER: GENES 23
USER: genes 0 Translation |==|  0.46871 0.57492 0.23412
USER: genes 1 Rotation |==|  0.86944 0.37613 0.32411 0.75929
USER: genes 2 Torsion [N]-CA--C-[N] |==|  0.59528
USER: genes 3 Torsion [C]-N--CA-[C] |==|  0.72754
USER: genes 4 Torsion [N]-CA--C-[N] |==|  0.05459
USER: genes 5 Torsion [C]-N--CA-[CB] |==|  0.25971
USER: genes 6 Torsion [N]-CA--C-[N] |==|  0.29314
USER: genes 7 Torsion [N]-CA--C-[OXT] |==|  0.92728
USER: genes 8 Torsion [N]-CA--CB-[OG] |==|  0.33358
USER: genes 9 Torsion [CA]-CB--OG-[HG] |==|  0.23896
USER: genes 10 Torsion [N]-CA--CB-[CG2] |==|  0.67783
USER: genes 11 Torsion [CA]-CB--CG1-[CD1] |==|  0.32160
USER: genes 12 Torsion [N]-C--CA-[N] |==|  0.16111
USER: genes 13 Torsion [C]-CA--CB-[CG] |==|  0.22813
USER: genes 14 Torsion [CA]-CB--CG-[CD1] |==|  0.40581
USER: genes 15 Torsion [C]-CA--N-[C] |==|  0.68196
USER: genes 16 Torsion [N]-C--CA-[N] |==|  0.92495
USER: genes 17 Torsion [C]-CA--CB-[CG] |==|  0.51572
USER: genes 18 Torsion [CA]-CB--CG-[OD1] |==|  0.82321
USER: genes 19 Torsion [C]-CA--N-[C] |==|  0.76807
USER: genes 20 Torsion [N]-C--CA-[N] |==|  0.37074
USER: genes 21 Torsion [C]-CA--CB-[CG] |==|  0.15898
USER: genes 22 Torsion [CA]-CB--CG-[CD2] |==|  0.10715
ROOT
ATOM      1  C   PHE C 305      12.594   8.629  -5.658  0.50 34.66 LIG 0.24  C 
ATOM      2 O    PHE C 305      13.423   8.704  -6.560  0.50 33.80 LIG-0.27  OA
ATOM      3  N   PRO C 306      11.348   9.125  -5.785  0.50 35.29 LIG-0.34  N 
ATOM      4  CA  PRO C 306      11.092  10.177  -6.756  0.50 35.79 LIG 0.18  C 
ATOM      5  CB  PRO C 306       9.632   9.911  -7.192  0.50 35.80 LIG 0.04  C 
ATOM      6  CG  PRO C 306       9.121   8.795  -6.274  0.50 35.25 LIG 0.02  C 
ATOM      7  CD  PRO C 306      10.098   8.701  -5.135  0.50 35.51 LIG 0.13  C 
ENDROOT
BRANCH 4 8
ATOM      8  C   PRO C 306      11.169  11.549  -6.083  0.50 36.50 LIG 0.24  C 
ATOM      9  N   ILE C 307      10.328  12.483  -6.557  0.50 37.01 LIG-0.35  N 
ATOM     10 H    ILE C 307       9.807  12.379  -7.233  0.50 37.01 LIG 0.16  HD
ATOM     11 O    PRO C 306      11.972  11.746  -5.143  0.50 36.74 LIG-0.27  OA
BRANCH 9 12
ATOM     12  CA  ILE C 307      10.253  13.793  -5.909  0.50 37.44 LIG 0.18  C 
BRANCH 12 13
ATOM     13  C   ILE C 307       9.079  13.901  -4.932  0.50 38.23 LIG 0.24  C 
ATOM     14  N   SER C 308       8.588  12.736  -4.518  0.50 38.91 LIG-0.34  N 
ATOM     15 H    SER C 308       8.818  11.983  -4.864  0.50 38.91 LIG 0.16  HD
ATOM     16 O    ILE C 307       8.646  15.002  -4.563  0.50 38.79 LIG-0.27  OA
BRANCH 14 17
ATOM     17  CA  SER C 308       7.612  12.607  -3.440  0.50 39.43 LIG 0.20  C 
BRANCH 17 18
ATOM     18  C   SER C 308       7.936  11.287  -2.737  0.50 39.77 LIG 0.24  C 
ATOM     19  N   PRO C 309       8.539  11.356  -1.536  0.50 40.03 LIG-0.34  N 
ATOM     20  CD  PRO C 309       8.618  12.511  -0.628  0.50 39.83 LIG 0.13  C 
ATOM     21  CA  PRO C 309       9.183  10.169  -0.970  0.50 40.09 LIG 0.19  C 
ATOM     22  CG  PRO C 309       9.710  12.120   0.317  0.50 40.19 LIG 0.02  C 
ATOM     23  CB  PRO C 309       9.598  10.630   0.433  0.50 40.09 LIG 0.04  C 
ATOM     24 O    SER C 308       7.633  10.211  -3.261  0.50 39.81 LIG-0.27  OA
BRANCH 21 25
ATOM     25  C   PRO C 309       8.260   8.952  -0.903  0.50 40.04 LIG 0.20  C 
ATOM     26 OXT  PRO C 309       7.034   9.076  -0.830  0.50 40.10 LIG-0.65  OA
ATOM     27 O    PRO C 309       8.723   7.809  -0.907  0.50 40.34 LIG-0.65  OA
ENDBRANCH 21 25
ENDBRANCH 17 18
BRANCH 17 28
ATOM     28  CB  SER C 308       6.185  12.582  -3.993  0.50 39.49 LIG 0.20  C 
BRANCH 28 29
ATOM     29 OG   SER C 308       5.517  11.376  -3.653  0.50 39.70 LIG-0.40  OA
ATOM     30 HG   SER C 308       5.166  11.454  -2.894  0.50 39.70 LIG 0.21  HD
ENDBRANCH 28 29
ENDBRANCH 17 28
ENDBRANCH 14 17
ENDBRANCH 12 13
BRANCH 12 31
ATOM     31  CB  ILE C 307      10.126  14.950  -6.930  0.50 37.20 LIG 0.01  C 
ATOM     32  CG2 ILE C 307      11.353  15.872  -6.869  0.50 36.86 LIG 0.01  C 
BRANCH 31 33
ATOM     33  CG1 ILE C 307       9.879  14.369  -8.334  0.50 35.88 LIG 0.00  C 
ATOM     34  CD1 ILE C 307       8.546  14.713  -8.953  0.50 32.01 LIG 0.01  C 
ENDBRANCH 31 33
ENDBRANCH 12 31
ENDBRANCH 9 12
ENDBRANCH 4 8
BRANCH 1 35
ATOM     35  CA  PHE C 305      12.956   7.916  -4.349  0.50 34.47 LIG 0.18  C 
BRANCH 35 36
ATOM     36  CB  PHE C 305      14.409   7.434  -4.477  0.50 34.49 LIG 0.07  C 
BRANCH 36 37
ATOM     37  CG  PHE C 305      15.465   8.487  -4.181  0.50 35.55 LIG-0.06  A 
ATOM     38  CD1 PHE C 305      16.680   8.161  -3.581  0.50 36.28 LIG 0.01  A 
ATOM     39  CE1 PHE C 305      17.638   9.147  -3.322  0.50 36.66 LIG 0.00  A 
ATOM     40  CZ  PHE C 305      17.377  10.480  -3.653  0.50 36.87 LIG 0.00  A 
ATOM     41  CE2 PHE C 305      16.174  10.819  -4.245  0.50 36.76 LIG 0.00  A 
ATOM     42  CD2 PHE C 305      15.217   9.824  -4.499  0.50 36.02 LIG 0.01  A 
ENDBRANCH 36 37
ENDBRANCH 35 36
BRANCH 35 43
ATOM     43  N   PHE C 305      12.105   6.768  -4.016  0.50 33.54 LIG-0.35  N 
ATOM     44 H    PHE C 305      12.166   6.105  -4.561  0.50 33.54 LIG 0.16  HD
ATOM     45  C   ASN C 304      11.314   6.791  -2.943  0.50 33.07 LIG 0.24  C 
ATOM     46 O    ASN C 304      10.974   7.842  -2.388  0.50 33.39 LIG-0.27  OA
BRANCH 45 47
ATOM     47  CA  ASN C 304      10.846   5.429  -2.412  0.50 32.40 LIG 0.18  C 
BRANCH 47 48
ATOM     48  CB  ASN C 304      11.727   4.889  -1.276  0.50 32.38 LIG 0.14  C 
BRANCH 48 49
ATOM     49  CG  ASN C 304      11.338   3.455  -0.835  0.50 31.77 LIG 0.22  C 
ATOM     50 OD1  ASN C 304      10.242   3.217  -0.341  0.50 27.48 LIG-0.27  OA
ATOM     51  ND2 ASN C 304      12.267   2.518  -0.981  0.50 32.56 LIG-0.37  N 
ATOM     52 21HD ASN C 304      12.109   1.712  -0.724  0.50 32.56 LIG 0.16  HD
ATOM     53 22HD ASN C 304      13.026   2.716  -1.332  0.50 32.56 LIG 0.16  HD
ENDBRANCH 48 49
ENDBRANCH 47 48
BRANCH 47 54
ATOM     54  N   ASN C 304      10.814   4.457  -3.478  0.50 31.56 LIG-0.34  N 
ATOM     55  C   LEU C 303       9.767   4.374  -4.285  0.50 30.83 LIG 0.26  C 
ATOM     56 O    LEU C 303       8.891   5.226  -4.313  0.50 29.02 LIG-0.27  OA
ATOM     57 H    ASN C 304      11.513   3.959  -3.534  0.50 31.56 LIG 0.16  HD
BRANCH 55 58
ATOM     58  CA  LEU C 303       9.720   3.139  -5.193  0.50 30.56 LIG 0.40  C 
ATOM     59  N   LEU C 303       8.394   2.461  -5.217  0.50 30.88 LIG 0.61  N 
BRANCH 58 60
ATOM     60  CB  LEU C 303      10.161   3.487  -6.620  0.50 30.80 LIG 0.06  C 
BRANCH 60 61
ATOM     61  CG  LEU C 303      11.553   4.103  -6.808  0.50 30.92 LIG-0.02  C 
ATOM     62  CD2 LEU C 303      12.573   3.452  -5.856  0.50 31.43 LIG 0.01  C 
ATOM     63  CD1 LEU C 303      11.517   5.612  -6.645  0.50 30.50 LIG 0.01  C 
ENDBRANCH 60 61
ENDBRANCH 58 60
ENDBRANCH 55 58
ENDBRANCH 47 54
ENDBRANCH 45 47
ENDBRANCH 35 43
ENDBRANCH 1 35
TORSDOF 21
ENDMDL
MODEL 6
USER: ADFR SOLUTION from run 142
USER: SCORE 17.817529 LL:  -5.489 LR: -14.266 RR:   0.000 FEB:  -8.002
USER: RMSD 5.262425
USER: SEED 141
USER: STATUS no improvement in best in 31 clusters for 5 generations
USER: GENES 23
USER: genes 0 Translation |==|  0.62317 0.52025 0.49384
USER: genes 1 Rotation |==|  0.43120 0.30661 0.47313 0.95513
USER: genes 2 Torsion [N]-CA--C-[N] |==|  0.68993
USER: genes 3 Torsion [C]-N--CA-[C] |==|  0.63086
USER: genes 4 Torsion [N]-CA--C-[N] |==|  0.97486
USER: genes 5 Torsion [C]-N--CA-[CB] |==|  0.15556
USER: genes 6 Torsion [N]-CA--C-[N] |==|  0.46386
USER: genes 7 Torsion [N]-CA--C-[OXT] |==|  0.32018
USER: genes 8 Torsion [N]-CA--CB-[OG] |==|  0.08208
USER: genes 9 Torsion [CA]-CB--OG-[HG] |==|  0.01399
USER: genes 10 Torsion [N]-CA--CB-[CG2] |==|  0.22693
USER: genes 11 Torsion [CA]-CB--CG1-[CD1] |==|  0.07780
USER: genes 12 Torsion [N]-C--CA-[N] |==|  0.37962
USER: genes 13 Torsion [C]-CA--CB-[CG] |==|  0.26899
USER: genes 14 Torsion [CA]-CB--CG-[CD1] |==|  0.27429
USER: genes 15 Torsion [C]-CA--N-[C] |==|  0.81673
USER: genes 16 Torsion [N]-C--CA-[N] |==|  0.15477
USER: genes 17 Torsion [C]-CA--CB-[CG] |==|  0.37636
USER: genes 18 Torsion [CA]-CB--CG-[OD1] |==|  0.12799
USER: genes 19 Torsion [C]-CA--N-[C] |==|  0.64066
USER: genes 20 Torsion [N]-C--CA-[N] |==|  0.35571
USER: genes 21 Torsion [C]-CA--CB-[CG] |==|  0.05616
USER: genes 22 Torsion [CA]-CB--CG-[CD2] |==|  0.73577
ROOT
ATOM      1  C   PHE C 305      16.533   7.317  -0.399  0.50 34.66 LIG 0.24  C 
ATOM      2 O    PHE C 305      17.185   6.342  -0.038  0.50 33.80 LIG-0.27  OA
ATOM      3  N   PRO C 306      15.216   7.239  -0.674  0.50 35.29 LIG-0.34  N 
ATOM      4  CA  PRO C 306      14.637   5.956  -1.038  0.50 35.79 LIG 0.18  C 
ATOM      5  CB  PRO C 306      13.193   6.051  -0.492  0.50 35.80 LIG 0.04  C 
ATOM      6  CG  PRO C 306      13.028   7.493   0.001  0.50 35.25 LIG 0.02  C 
ATOM      7  CD  PRO C 306      14.175   8.273  -0.581  0.50 35.51 LIG 0.13  C 
ENDROOT
BRANCH 4 8
ATOM      8  C   PRO C 306      14.586   5.808  -2.560  0.50 36.50 LIG 0.24  C 
ATOM      9  N   ILE C 307      13.360   5.814  -3.109  0.50 37.01 LIG-0.35  N 
ATOM     10 H    ILE C 307      12.623   5.833  -2.667  0.50 37.01 LIG 0.16  HD
ATOM     11 O    PRO C 306      15.644   5.705  -3.219  0.50 36.74 LIG-0.27  OA
BRANCH 9 12
ATOM     12  CA  ILE C 307      13.213   5.785  -4.565  0.50 37.44 LIG 0.18  C 
BRANCH 12 13
ATOM     13  C   ILE C 307      12.211   6.824  -5.076  0.50 38.23 LIG 0.24  C 
ATOM     14  N   SER C 308      11.510   7.438  -4.127  0.50 38.91 LIG-0.34  N 
ATOM     15 H    SER C 308      11.518   7.188  -3.304  0.50 38.91 LIG 0.16  HD
ATOM     16 O    ILE C 307      12.090   7.062  -6.286  0.50 38.79 LIG-0.27  OA
BRANCH 14 17
ATOM     17  CA  SER C 308      10.655   8.596  -4.374  0.50 39.43 LIG 0.20  C 
BRANCH 17 18
ATOM     18  C   SER C 308       9.971   8.904  -3.040  0.50 39.77 LIG 0.24  C 
ATOM     19  N   PRO C 309       9.337  10.085  -2.927  0.50 40.03 LIG-0.34  N 
ATOM     20  CD  PRO C 309       8.894  10.981  -4.007  0.50 39.83 LIG 0.13  C 
ATOM     21  CA  PRO C 309       8.966  10.595  -1.606  0.50 40.09 LIG 0.19  C 
ATOM     22  CG  PRO C 309       8.630  12.267  -3.289  0.50 40.19 LIG 0.02  C 
ATOM     23  CB  PRO C 309       8.151  11.853  -1.931  0.50 40.09 LIG 0.04  C 
ATOM     24 O    SER C 308       9.999   8.080  -2.122  0.50 39.81 LIG-0.27  OA
BRANCH 21 25
ATOM     25  C   PRO C 309       8.147   9.602  -0.781  0.50 40.04 LIG 0.20  C 
ATOM     26 OXT  PRO C 309       8.585   9.120   0.268  0.50 40.10 LIG-0.65  OA
ATOM     27 O    PRO C 309       7.027   9.246  -1.153  0.50 40.34 LIG-0.65  OA
ENDBRANCH 21 25
ENDBRANCH 17 18
BRANCH 17 28
ATOM     28  CB  SER C 308       9.613   8.287  -5.451  0.50 39.49 LIG 0.20  C 
BRANCH 28 29
ATOM     29 OG   SER C 308       9.267   6.909  -5.459  0.50 39.70 LIG-0.40  OA
ATOM     30 HG   SER C 308       9.649   6.520  -4.820  0.50 39.70 LIG 0.21  HD
ENDBRANCH 28 29
ENDBRANCH 17 28
ENDBRANCH 14 17
ENDBRANCH 12 13
BRANCH 12 31
ATOM     31  CB  ILE C 307      12.762   4.398  -5.085  0.50 37.20 LIG 0.01  C 
ATOM     32  CG2 ILE C 307      11.242   4.228  -4.945  0.50 36.86 LIG 0.01  C 
BRANCH 31 33
ATOM     33  CG1 ILE C 307      13.258   4.206  -6.529  0.50 35.88 LIG 0.00  C 
ATOM     34  CD1 ILE C 307      14.517   4.957  -6.887  0.50 32.01 LIG 0.01  C 
ENDBRANCH 31 33
ENDBRANCH 12 31
ENDBRANCH 9 12
ENDBRANCH 4 8
BRANCH 1 35
ATOM     35  CA  PHE C 305      17.212   8.688  -0.508  0.50 34.47 LIG 0.18  C 
BRANCH 35 36
ATOM     36  CB  PHE C 305      17.989   8.710  -1.833  0.50 34.49 LIG 0.07  C 
BRANCH 36 37
ATOM     37  CG  PHE C 305      17.263   9.367  -2.995  0.50 35.55 LIG-0.06  A 
ATOM     38  CD1 PHE C 305      17.520  10.684  -3.373  0.50 36.28 LIG 0.01  A 
ATOM     39  CE1 PHE C 305      16.841  11.265  -4.449  0.50 36.66 LIG 0.00  A 
ATOM     40  CZ  PHE C 305      15.881  10.530  -5.151  0.50 36.87 LIG 0.00  A 
ATOM     41  CE2 PHE C 305      15.612   9.224  -4.785  0.50 36.76 LIG 0.00  A 
ATOM     42  CD2 PHE C 305      16.296   8.648  -3.703  0.50 36.02 LIG 0.01  A 
ENDBRANCH 36 37
ENDBRANCH 35 36
BRANCH 35 43
ATOM     43  N   PHE C 305      18.135   9.009   0.586  0.50 33.54 LIG-0.35  N 
ATOM     44 H    PHE C 305      18.961   9.074   0.354  0.50 33.54 LIG 0.16  HD
ATOM     45  C   ASN C 304      17.688   9.179   1.831  0.50 33.07 LIG 0.24  C 
ATOM     46 O    ASN C 304      16.593   8.746   2.211  0.50 33.39 LIG-0.27  OA
BRANCH 45 47
ATOM     47  CA  ASN C 304      18.603   9.959   2.784  0.50 32.40 LIG 0.18  C 
BRANCH 47 48
ATOM     48  CB  ASN C 304      17.994  10.154   4.181  0.50 32.38 LIG 0.14  C 
BRANCH 48 49
ATOM     49  CG  ASN C 304      19.002   9.881   5.326  0.50 31.77 LIG 0.22  C 
ATOM     50 OD1  ASN C 304      20.138  10.339   5.296  0.50 27.48 LIG-0.27  OA
ATOM     51  ND2 ASN C 304      18.582   9.093   6.309  0.50 32.56 LIG-0.37  N 
ATOM     52 21HD ASN C 304      19.115   8.888   6.953  0.50 32.56 LIG 0.16  HD
ATOM     53 22HD ASN C 304      17.779   8.788   6.302  0.50 32.56 LIG 0.16  HD
ENDBRANCH 48 49
ENDBRANCH 47 48
BRANCH 47 54
ATOM     54  N   ASN C 304      18.921  11.252   2.231  0.50 31.56 LIG-0.34  N 
ATOM     55  C   LEU C 303      20.178  11.665   2.156  0.50 30.83 LIG 0.26  C 
ATOM     56 O    LEU C 303      21.126  10.915   2.343  0.50 29.02 LIG-0.27  OA
ATOM     57 H    ASN C 304      18.242  11.709   1.965  0.50 31.56 LIG 0.16  HD
BRANCH 55 58
ATOM     58  CA  LEU C 303      20.376  13.146   1.813  0.50 30.56 LIG 0.40  C 
ATOM     59  N   LEU C 303      21.268  13.868   2.762  0.50 30.88 LIG 0.61  N 
BRANCH 58 60
ATOM     60  CB  LEU C 303      20.884  13.316   0.376  0.50 30.80 LIG 0.06  C 
BRANCH 60 61
ATOM     61  CG  LEU C 303      20.665  12.156  -0.603  0.50 30.92 LIG-0.02  C 
ATOM     62  CD2 LEU C 303      21.908  11.250  -0.664  0.50 31.43 LIG 0.01  C 
ATOM     63  CD1 LEU C 303      20.269  12.661  -1.979  0.50 30.50 LIG 0.01  C 
ENDBRANCH 60 61
ENDBRANCH 58 60
ENDBRANCH 55 58
ENDBRANCH 47 54
ENDBRANCH 45 47
ENDBRANCH 35 43
ENDBRANCH 1 35
TORSDOF 21
ENDMDL
MODEL 7
USER: ADFR SOLUTION from run 168
USER: SCORE 16.951254 LL:  -4.332 LR: -14.207 RR:   0.000 FEB:  -7.943
USER: RMSD 13.542289
USER: SEED 167
USER: STATUS no improvement in best in 7 clusters for 5 generations
USER: GENES 23
USER: genes 0 Translation |==|  0.60956 0.48683 0.50819
USER: genes 1 Rotation |==|  0.15867 0.86078 0.50926 0.55692
USER: genes 2 Torsion [N]-CA--C-[N] |==|  0.46231
USER: genes 3 Torsion [C]-N--CA-[C] |==|  0.63731
USER: genes 4 Torsion [N]-CA--C-[N] |==|  0.36556
USER: genes 5 Torsion [C]-N--CA-[CB] |==|  0.89009
USER: genes 6 Torsion [N]-CA--C-[N] |==|  0.31303
USER: genes 7 Torsion [N]-CA--C-[OXT] |==|  0.34541
USER: genes 8 Torsion [N]-CA--CB-[OG] |==|  0.44750
USER: genes 9 Torsion [CA]-CB--OG-[HG] |==|  0.74544
USER: genes 10 Torsion [N]-CA--CB-[CG2] |==|  0.37695
USER: genes 11 Torsion [CA]-CB--CG1-[CD1] |==|  0.43358
USER: genes 12 Torsion [N]-C--CA-[N] |==|  0.27269
USER: genes 13 Torsion [C]-CA--CB-[CG] |==|  0.21320
USER: genes 14 Torsion [CA]-CB--CG-[CD1] |==|  0.02711
USER: genes 15 Torsion [C]-CA--N-[C] |==|  0.66318
USER: genes 16 Torsion [N]-C--CA-[N] |==|  0.27588
USER: genes 17 Torsion [C]-CA--CB-[CG] |==|  0.34834
USER: genes 18 Torsion [CA]-CB--CG-[OD1] |==|  0.18570
USER: genes 19 Torsion [C]-CA--N-[C] |==|  0.61132
USER: genes 20 Torsion [N]-C--CA-[N] |==|  0.97084
USER: genes 21 Torsion [C]-CA--CB-[CG] |==|  0.78675
USER: genes 22 Torsion [CA]-CB--CG-[CD2] |==|  0.60742
ROOT
ATOM      1  C   PHE C 305      16.186   6.515  -0.108  0.50 34.66 LIG 0.24  C 
ATOM      2 O    PHE C 305      16.953   5.675   0.353  0.50 33.80 LIG-0.27  OA
ATOM      3  N   PRO C 306      16.613   7.716  -0.543  0.50 35.29 LIG-0.34  N 
ATOM      4  CA  PRO C 306      17.868   8.254  -0.042  0.50 35.79 LIG 0.18  C 
ATOM      5  CB  PRO C 306      18.401   9.083  -1.233  0.50 35.80 LIG 0.04  C 
ATOM      6  CG  PRO C 306      17.280   9.076  -2.279  0.50 35.25 LIG 0.02  C 
ATOM      7  CD  PRO C 306      16.042   8.600  -1.571  0.50 35.51 LIG 0.13  C 
ENDROOT
BRANCH 4 8
ATOM      8  C   PRO C 306      17.609   9.189   1.141  0.50 36.50 LIG 0.24  C 
ATOM      9  N   ILE C 307      18.686   9.526   1.870  0.50 37.01 LIG-0.35  N 
ATOM     10 H    ILE C 307      19.477   9.210   1.752  0.50 37.01 LIG 0.16  HD
ATOM     11 O    PRO C 306      16.452   9.604   1.375  0.50 36.74 LIG-0.27  OA
BRANCH 9 12
ATOM     12  CA  ILE C 307      18.557  10.499   2.956  0.50 37.44 LIG 0.18  C 
BRANCH 12 13
ATOM     13  C   ILE C 307      19.618  11.600   2.888  0.50 38.23 LIG 0.24  C 
ATOM     14  N   SER C 308      19.146  12.838   3.010  0.50 38.91 LIG-0.34  N 
ATOM     15 H    SER C 308      18.306  13.021   2.998  0.50 38.91 LIG 0.16  HD
ATOM     16 O    ILE C 307      20.819  11.331   2.740  0.50 38.79 LIG-0.27  OA
BRANCH 14 17
ATOM     17  CA  SER C 308      19.995  14.015   3.177  0.50 39.43 LIG 0.20  C 
BRANCH 17 18
ATOM     18  C   SER C 308      20.496  14.373   1.776  0.50 39.77 LIG 0.24  C 
ATOM     19  N   PRO C 309      20.058  15.525   1.237  0.50 40.03 LIG-0.34  N 
ATOM     20  CD  PRO C 309      19.449  16.673   1.928  0.50 39.83 LIG 0.13  C 
ATOM     21  CA  PRO C 309      20.208  15.766  -0.199  0.50 40.09 LIG 0.19  C 
ATOM     22  CG  PRO C 309      18.827  17.446   0.807  0.50 40.19 LIG 0.02  C 
ATOM     23  CB  PRO C 309      19.734  17.216  -0.363  0.50 40.09 LIG 0.04  C 
ATOM     24 O    SER C 308      21.283  13.627   1.187  0.50 39.81 LIG-0.27  OA
BRANCH 21 25
ATOM     25  C   PRO C 309      21.642  15.592  -0.698  0.50 40.04 LIG 0.20  C 
ATOM     26 OXT  PRO C 309      21.916  14.814  -1.616  0.50 40.10 LIG-0.65  OA
ATOM     27 O    PRO C 309      22.569  16.220  -0.181  0.50 40.34 LIG-0.65  OA
ENDBRANCH 21 25
ENDBRANCH 17 18
BRANCH 17 28
ATOM     28  CB  SER C 308      21.173  13.713   4.106  0.50 39.49 LIG 0.20  C 
BRANCH 28 29
ATOM     29 OG   SER C 308      22.217  14.662   3.946  0.50 39.70 LIG-0.40  OA
ATOM     30 HG   SER C 308      22.762  14.387   3.369  0.50 39.70 LIG 0.21  HD
ENDBRANCH 28 29
ENDBRANCH 17 28
ENDBRANCH 14 17
ENDBRANCH 12 13
BRANCH 12 31
ATOM     31  CB  ILE C 307      18.650   9.838   4.353  0.50 37.20 LIG 0.01  C 
ATOM     32  CG2 ILE C 307      19.553  10.657   5.287  0.50 36.86 LIG 0.01  C 
BRANCH 31 33
ATOM     33  CG1 ILE C 307      17.233   9.629   4.916  0.50 35.88 LIG 0.00  C 
ATOM     34  CD1 ILE C 307      17.101   8.538   5.950  0.50 32.01 LIG 0.01  C 
ENDBRANCH 31 33
ENDBRANCH 12 31
ENDBRANCH 9 12
ENDBRANCH 4 8
BRANCH 1 35
ATOM     35  CA  PHE C 305      14.692   6.191  -0.238  0.50 34.47 LIG 0.18  C 
BRANCH 35 36
ATOM     36  CB  PHE C 305      14.275   5.434   1.032  0.50 34.49 LIG 0.07  C 
BRANCH 36 37
ATOM     37  CG  PHE C 305      14.092   6.301   2.267  0.50 35.55 LIG-0.06  A 
ATOM     38  CD1 PHE C 305      14.094   7.693   2.195  0.50 36.28 LIG 0.01  A 
ATOM     39  CE1 PHE C 305      13.920   8.469   3.345  0.50 36.66 LIG 0.00  A 
ATOM     40  CZ  PHE C 305      13.755   7.852   4.589  0.50 36.87 LIG 0.00  A 
ATOM     41  CE2 PHE C 305      13.756   6.471   4.676  0.50 36.76 LIG 0.00  A 
ATOM     42  CD2 PHE C 305      13.933   5.699   3.517  0.50 36.02 LIG 0.01  A 
ENDBRANCH 36 37
ENDBRANCH 35 36
BRANCH 35 43
ATOM     43  N   PHE C 305      14.336   5.381  -1.409  0.50 33.54 LIG-0.35  N 
ATOM     44 H    PHE C 305      14.727   4.616  -1.450  0.50 33.54 LIG 0.16  HD
ATOM     45  C   ASN C 304      13.468   5.833  -2.315  0.50 33.07 LIG 0.24  C 
ATOM     46 O    ASN C 304      13.194   7.033  -2.435  0.50 33.39 LIG-0.27  OA
BRANCH 45 47
ATOM     47  CA  ASN C 304      12.805   4.778  -3.210  0.50 32.40 LIG 0.18  C 
BRANCH 47 48
ATOM     48  CB  ASN C 304      12.696   5.213  -4.679  0.50 32.38 LIG 0.14  C 
BRANCH 48 49
ATOM     49  CG  ASN C 304      13.331   4.196  -5.662  0.50 31.77 LIG 0.22  C 
ATOM     50 OD1  ASN C 304      12.848   3.081  -5.821  0.50 27.48 LIG-0.27  OA
ATOM     51  ND2 ASN C 304      14.440   4.582  -6.280  0.50 32.56 LIG-0.37  N 
ATOM     52 21HD ASN C 304      14.845   4.042  -6.813  0.50 32.56 LIG 0.16  HD
ATOM     53 22HD ASN C 304      14.754   5.372  -6.147  0.50 32.56 LIG 0.16  HD
ENDBRANCH 48 49
ENDBRANCH 47 48
BRANCH 47 54
ATOM     54  N   ASN C 304      11.484   4.462  -2.721  0.50 31.56 LIG-0.34  N 
ATOM     55  C   LEU C 303      11.044   3.212  -2.726  0.50 30.83 LIG 0.26  C 
ATOM     56 O    LEU C 303      11.780   2.258  -2.933  0.50 29.02 LIG-0.27  OA
ATOM     57 H    ASN C 304      11.032   5.136  -2.438  0.50 31.56 LIG 0.16  HD
BRANCH 55 58
ATOM     58  CA  LEU C 303       9.546   3.030  -2.448  0.50 30.56 LIG 0.40  C 
ATOM     59  N   LEU C 303       8.869   4.267  -1.973  0.50 30.88 LIG 0.61  N 
BRANCH 58 60
ATOM     60  CB  LEU C 303       8.822   2.469  -3.678  0.50 30.80 LIG 0.06  C 
BRANCH 60 61
ATOM     61  CG  LEU C 303       8.524   3.432  -4.834  0.50 30.92 LIG-0.02  C 
ATOM     62  CD2 LEU C 303       7.141   3.141  -5.445  0.50 31.43 LIG 0.01  C 
ATOM     63  CD1 LEU C 303       9.621   3.393  -5.884  0.50 30.50 LIG 0.01  C 
ENDBRANCH 60 61
ENDBRANCH 58 60
ENDBRANCH 55 58
ENDBRANCH 47 54
ENDBRANCH 45 47
ENDBRANCH 35 43
ENDBRANCH 1 35
TORSDOF 21
ENDMDL
MODEL 8
USER: ADFR SOLUTION from run 35
USER: SCORE 18.419540 LL:  -5.901 LR: -14.137 RR:   0.000 FEB:  -7.873
USER: RMSD 10.922800
USER: SEED 34
USER: STATUS no improvement in best in 11 clusters for 5 generations
USER: GENES 23
USER: genes 0 Translation |==|  0.63591 0.74045 0.76056
USER: genes 1 Rotation |==|  0.56901 0.47322 0.93287 0.73904
USER: genes 2 Torsion [N]-CA--C-[N] |==|  0.01707
USER: genes 3 Torsion [C]-N--CA-[C] |==|  0.79682
USER: genes 4 Torsion [N]-CA--C-[N] |==|  0.35313
USER: genes 5 Torsion [C]-N--CA-[CB] |==|  0.47784
USER: genes 6 Torsion [N]-CA--C-[N] |==|  0.27485
USER: genes 7 Torsion [N]-CA--C-[OXT] |==|  0.78830
USER: genes 8 Torsion [N]-CA--CB-[OG] |==|  0.94851
USER: genes 9 Torsion [CA]-CB--OG-[HG] |==|  0.13614
USER: genes 10 Torsion [N]-CA--CB-[CG2] |==|  0.51970
USER: genes 11 Torsion [CA]-CB--CG1-[CD1] |==|  0.47404
USER: genes 12 Torsion [N]-C--CA-[N] |==|  0.50350
USER: genes 13 Torsion [C]-CA--CB-[CG] |==|  0.37837
USER: genes 14 Torsion [CA]-CB--CG-[CD1] |==|  0.32342
USER: genes 15 Torsion [C]-CA--N-[C] |==|  0.64790
USER: genes 16 Torsion [N]-C--CA-[N] |==|  0.37856
USER: genes 17 Torsion [C]-CA--CB-[CG] |==|  0.42619
USER: genes 18 Torsion [CA]-CB--CG-[OD1] |==|  0.83370
USER: genes 19 Torsion [C]-CA--N-[C] |==|  0.79988
USER: genes 20 Torsion [N]-C--CA-[N] |==|  0.43525
USER: genes 21 Torsion [C]-CA--CB-[CG] |==|  0.07720
USER: genes 22 Torsion [CA]-CB--CG-[CD2] |==|  0.72627
ROOT
ATOM      1  C   PHE C 305      16.858  12.602   5.002  0.50 34.66 LIG 0.24  C 
ATOM      2 O    PHE C 305      17.147  13.755   4.699  0.50 33.80 LIG-0.27  OA
ATOM      3  N   PRO C 306      17.793  11.692   5.339  0.50 35.29 LIG-0.34  N 
ATOM      4  CA  PRO C 306      19.163  11.874   4.887  0.50 35.79 LIG 0.18  C 
ATOM      5  CB  PRO C 306      19.999  11.237   6.021  0.50 35.80 LIG 0.04  C 
ATOM      6  CG  PRO C 306      18.986  10.581   6.967  0.50 35.25 LIG 0.02  C 
ATOM      7  CD  PRO C 306      17.685  10.515   6.215  0.50 35.51 LIG 0.13  C 
ENDROOT
BRANCH 4 8
ATOM      8  C   PRO C 306      19.402  11.093   3.593  0.50 36.50 LIG 0.24  C 
ATOM      9  N   ILE C 307      18.320  10.510   3.050  0.50 37.01 LIG-0.35  N 
ATOM     10 H    ILE C 307      17.538  10.499   3.407  0.50 37.01 LIG 0.16  HD
ATOM     11 O    PRO C 306      20.549  11.035   3.094  0.50 36.74 LIG-0.27  OA
BRANCH 9 12
ATOM     12  CA  ILE C 307      18.427   9.831   1.758  0.50 37.44 LIG 0.18  C 
BRANCH 12 13
ATOM     13  C   ILE C 307      18.563  10.809   0.589  0.50 38.23 LIG 0.24  C 
ATOM     14  N   SER C 308      19.602  10.583  -0.211  0.50 38.91 LIG-0.34  N 
ATOM     15 H    SER C 308      20.223  10.019  -0.022  0.50 38.91 LIG 0.16  HD
ATOM     16 O    ILE C 307      17.748  11.727   0.418  0.50 38.79 LIG-0.27  OA
BRANCH 14 17
ATOM     17  CA  SER C 308      19.802  11.262  -1.488  0.50 39.43 LIG 0.20  C 
BRANCH 17 18
ATOM     18  C   SER C 308      18.692  10.756  -2.412  0.50 39.77 LIG 0.24  C 
ATOM     19  N   PRO C 309      17.608  11.538  -2.565  0.50 40.03 LIG-0.34  N 
ATOM     20  CD  PRO C 309      17.476  12.971  -2.260  0.50 39.83 LIG 0.13  C 
ATOM     21  CA  PRO C 309      16.380  10.984  -3.138  0.50 40.09 LIG 0.19  C 
ATOM     22  CG  PRO C 309      15.994  13.177  -2.254  0.50 40.19 LIG 0.02  C 
ATOM     23  CB  PRO C 309      15.471  12.213  -3.274  0.50 40.09 LIG 0.04  C 
ATOM     24 O    SER C 308      18.814   9.676  -2.997  0.50 39.81 LIG-0.27  OA
BRANCH 21 25
ATOM     25  C   PRO C 309      16.595  10.302  -4.489  0.50 40.04 LIG 0.20  C 
ATOM     26 OXT  PRO C 309      16.753  10.956  -5.524  0.50 40.10 LIG-0.65  OA
ATOM     27 O    PRO C 309      16.604   9.072  -4.580  0.50 40.34 LIG-0.65  OA
ENDBRANCH 21 25
ENDBRANCH 17 18
BRANCH 17 28
ATOM     28  CB  SER C 308      21.178  10.933  -2.073  0.50 39.49 LIG 0.20  C 
BRANCH 28 29
ATOM     29 OG   SER C 308      22.056  10.423  -1.080  0.50 39.70 LIG-0.40  OA
ATOM     30 HG   SER C 308      21.669   9.815  -0.649  0.50 39.70 LIG 0.21  HD
ENDBRANCH 28 29
ENDBRANCH 17 28
ENDBRANCH 14 17
ENDBRANCH 12 13
BRANCH 12 31
ATOM     31  CB  ILE C 307      17.212   8.916   1.471  0.50 37.20 LIG 0.01  C 
ATOM     32  CG2 ILE C 307      17.440   8.089   0.196  0.50 36.86 LIG 0.01  C 
BRANCH 31 33
ATOM     33  CG1 ILE C 307      16.921   8.047   2.707  0.50 35.88 LIG 0.00  C 
ATOM     34  CD1 ILE C 307      15.633   7.263   2.658  0.50 32.01 LIG 0.01  C 
ENDBRANCH 31 33
ENDBRANCH 12 31
ENDBRANCH 9 12
ENDBRANCH 4 8
BRANCH 1 35
ATOM     35  CA  PHE C 305      15.386  12.171   5.044  0.50 34.47 LIG 0.18  C 
BRANCH 35 36
ATOM     36  CB  PHE C 305      15.236  10.963   4.107  0.50 34.49 LIG 0.07  C 
BRANCH 36 37
ATOM     37  CG  PHE C 305      14.396   9.822   4.658  0.50 35.55 LIG-0.06  A 
ATOM     38  CD1 PHE C 305      13.199   9.433   4.057  0.50 36.28 LIG 0.01  A 
ATOM     39  CE1 PHE C 305      12.446   8.378   4.580  0.50 36.66 LIG 0.00  A 
ATOM     40  CZ  PHE C 305      12.881   7.707   5.726  0.50 36.87 LIG 0.00  A 
ATOM     41  CE2 PHE C 305      14.064   8.084   6.336  0.50 36.76 LIG 0.00  A 
ATOM     42  CD2 PHE C 305      14.814   9.146   5.806  0.50 36.02 LIG 0.01  A 
ENDBRANCH 36 37
ENDBRANCH 35 36
BRANCH 35 43
ATOM     43  N   PHE C 305      14.429  13.206   4.637  0.50 33.54 LIG-0.35  N 
ATOM     44 H    PHE C 305      14.587  13.562   3.869  0.50 33.54 LIG 0.16  HD
ATOM     45  C   ASN C 304      13.406  13.540   5.424  0.50 33.07 LIG 0.24  C 
ATOM     46 O    ASN C 304      13.389  13.292   6.636  0.50 33.39 LIG-0.27  OA
BRANCH 45 47
ATOM     47  CA  ASN C 304      12.225  14.247   4.746  0.50 32.40 LIG 0.18  C 
BRANCH 47 48
ATOM     48  CB  ASN C 304      12.218  15.766   4.976  0.50 32.38 LIG 0.14  C 
BRANCH 48 49
ATOM     49  CG  ASN C 304      11.502  16.548   3.846  0.50 31.77 LIG 0.22  C 
ATOM     50 OD1  ASN C 304      11.892  16.488   2.686  0.50 27.48 LIG-0.27  OA
ATOM     51  ND2 ASN C 304      10.481  17.314   4.210  0.50 32.56 LIG-0.37  N 
ATOM     52 21HD ASN C 304      10.070  17.790   3.623  0.50 32.56 LIG 0.16  HD
ATOM     53 22HD ASN C 304      10.230  17.335   5.033  0.50 32.56 LIG 0.16  HD
ENDBRANCH 48 49
ENDBRANCH 47 48
BRANCH 47 54
ATOM     54  N   ASN C 304      10.975  13.700   5.214  0.50 31.56 LIG-0.34  N 
ATOM     55  C   LEU C 303      10.586  12.490   4.842  0.50 30.83 LIG 0.26  C 
ATOM     56 O    LEU C 303      11.334  11.705   4.277  0.50 29.02 LIG-0.27  OA
ATOM     57 H    ASN C 304      10.526  14.216   5.736  0.50 31.56 LIG 0.16  HD
BRANCH 55 58
ATOM     58  CA  LEU C 303       9.132  12.125   5.169  0.50 30.56 LIG 0.40  C 
ATOM     59  N   LEU C 303       8.573  11.053   4.301  0.50 30.88 LIG 0.61  N 
BRANCH 58 60
ATOM     60  CB  LEU C 303       8.979  11.743   6.646  0.50 30.80 LIG 0.06  C 
BRANCH 60 61
ATOM     61  CG  LEU C 303       9.960  12.359   7.651  0.50 30.92 LIG-0.02  C 
ATOM     62  CD2 LEU C 303      11.100  11.376   7.976  0.50 31.43 LIG 0.01  C 
ATOM     63  CD1 LEU C 303       9.246  12.827   8.907  0.50 30.50 LIG 0.01  C 
ENDBRANCH 60 61
ENDBRANCH 58 60
ENDBRANCH 55 58
ENDBRANCH 47 54
ENDBRANCH 45 47
ENDBRANCH 35 43
ENDBRANCH 1 35
TORSDOF 21
ENDMDL
MODEL 9
USER: ADFR SOLUTION from run 51
USER: SCORE 18.153059 LL:  -5.156 LR: -14.131 RR:   0.000 FEB:  -7.866
USER: RMSD 6.430768
USER: SEED 50
USER: STATUS no improvement in best in 28 clusters for 5 generations
USER: GENES 23
USER: genes 0 Translation |==|  0.39988 0.47687 0.27690
USER: genes 1 Rotation |==|  0.74010 0.87947 0.66146 0.64928
USER: genes 2 Torsion [N]-CA--C-[N] |==|  0.28442
USER: genes 3 Torsion [C]-N--CA-[C] |==|  0.65708
USER: genes 4 Torsion [N]-CA--C-[N] |==|  0.46111
USER: genes 5 Torsion [C]-N--CA-[CB] |==|  0.82210
USER: genes 6 Torsion [N]-CA--C-[N] |==|  0.21940
USER: genes 7 Torsion [N]-CA--C-[OXT] |==|  0.95563
USER: genes 8 Torsion [N]-CA--CB-[OG] |==|  0.93337
USER: genes 9 Torsion [CA]-CB--OG-[HG] |==|  0.11042
USER: genes 10 Torsion [N]-CA--CB-[CG2] |==|  0.73620
USER: genes 11 Torsion [CA]-CB--CG1-[CD1] |==|  0.26628
USER: genes 12 Torsion [N]-C--CA-[N] |==|  0.01703
USER: genes 13 Torsion [C]-CA--CB-[CG] |==|  0.90151
USER: genes 14 Torsion [CA]-CB--CG-[CD1] |==|  0.84719
USER: genes 15 Torsion [C]-CA--N-[C] |==|  0.76091
USER: genes 16 Torsion [N]-C--CA-[N] |==|  0.07110
USER: genes 17 Torsion [C]-CA--CB-[CG] |==|  0.52641
USER: genes 18 Torsion [CA]-CB--CG-[OD1] |==|  0.29109
USER: genes 19 Torsion [C]-CA--N-[C] |==|  0.71228
USER: genes 20 Torsion [N]-C--CA-[N] |==|  0.27275
USER: genes 21 Torsion [C]-CA--CB-[CG] |==|  0.10250
USER: genes 22 Torsion [CA]-CB--CG-[CD2] |==|  0.58443
ROOT
ATOM      1  C   PHE C 305      10.839   6.276  -4.792  0.50 34.66 LIG 0.24  C 
ATOM      2 O    PHE C 305       9.738   6.535  -5.269  0.50 33.80 LIG-0.27  OA
ATOM      3  N   PRO C 306      11.623   5.298  -5.285  0.50 35.29 LIG-0.34  N 
ATOM      4  CA  PRO C 306      11.021   4.212  -6.043  0.50 35.79 LIG 0.18  C 
ATOM      5  CB  PRO C 306      12.127   3.827  -7.052  0.50 35.80 LIG 0.04  C 
ATOM      6  CG  PRO C 306      13.360   4.644  -6.650  0.50 35.25 LIG 0.02  C 
ATOM      7  CD  PRO C 306      13.088   5.170  -5.268  0.50 35.51 LIG 0.13  C 
ENDROOT
BRANCH 4 8
ATOM      8  C   PRO C 306      10.742   3.018  -5.128  0.50 36.50 LIG 0.24  C 
ATOM      9  N   ILE C 307       9.464   2.860  -4.743  0.50 37.01 LIG-0.35  N 
ATOM     10 H    ILE C 307       8.825   3.405  -4.924  0.50 37.01 LIG 0.16  HD
ATOM     11 O    PRO C 306      11.671   2.251  -4.791  0.50 36.74 LIG-0.27  OA
BRANCH 9 12
ATOM     12  CA  ILE C 307       9.080   1.688  -3.954  0.50 37.44 LIG 0.18  C 
BRANCH 12 13
ATOM     13  C   ILE C 307       7.963   0.875  -4.614  0.50 38.23 LIG 0.24  C 
ATOM     14  N   SER C 308       7.778  -0.338  -4.102  0.50 38.91 LIG-0.34  N 
ATOM     15 H    SER C 308       8.319  -0.694  -3.536  0.50 38.91 LIG 0.16  HD
ATOM     16 O    ILE C 307       7.291   1.341  -5.546  0.50 38.79 LIG-0.27  OA
BRANCH 14 17
ATOM     17  CA  SER C 308       6.645  -1.195  -4.441  0.50 39.43 LIG 0.20  C 
BRANCH 17 18
ATOM     18  C   SER C 308       6.671  -1.343  -5.964  0.50 39.77 LIG 0.24  C 
ATOM     19  N   PRO C 309       7.551  -2.216  -6.486  0.50 40.03 LIG-0.34  N 
ATOM     20  CD  PRO C 309       8.251  -3.314  -5.802  0.50 39.83 LIG 0.13  C 
ATOM     21  CA  PRO C 309       7.876  -2.164  -7.913  0.50 40.09 LIG 0.19  C 
ATOM     22  CG  PRO C 309       9.350  -3.658  -6.758  0.50 40.19 LIG 0.02  C 
ATOM     23  CB  PRO C 309       8.772  -3.393  -8.114  0.50 40.09 LIG 0.04  C 
ATOM     24 O    SER C 308       5.894  -0.689  -6.666  0.50 39.81 LIG-0.27  OA
BRANCH 21 25
ATOM     25  C   PRO C 309       6.645  -2.221  -8.818  0.50 40.04 LIG 0.20  C 
ATOM     26 OXT  PRO C 309       5.547  -2.590  -8.390  0.50 40.10 LIG-0.65  OA
ATOM     27 O    PRO C 309       6.722  -1.910 -10.008  0.50 40.34 LIG-0.65  OA
ENDBRANCH 21 25
ENDBRANCH 17 18
BRANCH 17 28
ATOM     28  CB  SER C 308       5.326  -0.564  -3.987  0.50 39.49 LIG 0.20  C 
BRANCH 28 29
ATOM     29 OG   SER C 308       5.529   0.352  -2.921  0.50 39.70 LIG-0.40  OA
ATOM     30 HG   SER C 308       6.231   0.793  -3.059  0.50 39.70 LIG 0.21  HD
ENDBRANCH 28 29
ENDBRANCH 17 28
ENDBRANCH 14 17
ENDBRANCH 12 13
BRANCH 12 31
ATOM     31  CB  ILE C 307       8.611   2.065  -2.528  0.50 37.20 LIG 0.01  C 
ATOM     32  CG2 ILE C 307       9.769   1.956  -1.525  0.50 36.86 LIG 0.01  C 
BRANCH 31 33
ATOM     33  CG1 ILE C 307       7.967   3.462  -2.553  0.50 35.88 LIG 0.00  C 
ATOM     34  CD1 ILE C 307       6.462   3.480  -2.675  0.50 32.01 LIG 0.01  C 
ENDBRANCH 31 33
ENDBRANCH 12 31
ENDBRANCH 9 12
ENDBRANCH 4 8
BRANCH 1 35
ATOM     35  CA  PHE C 305      11.376   7.107  -3.620  0.50 34.47 LIG 0.18  C 
BRANCH 35 36
ATOM     36  CB  PHE C 305      11.258   8.587  -4.016  0.50 34.49 LIG 0.07  C 
BRANCH 36 37
ATOM     37  CG  PHE C 305      11.503   8.881  -5.487  0.50 35.55 LIG-0.06  A 
ATOM     38  CD1 PHE C 305      12.676   8.487  -6.130  0.50 36.28 LIG 0.01  A 
ATOM     39  CE1 PHE C 305      12.877   8.766  -7.485  0.50 36.66 LIG 0.00  A 
ATOM     40  CZ  PHE C 305      11.904   9.460  -8.209  0.50 36.87 LIG 0.00  A 
ATOM     41  CE2 PHE C 305      10.737   9.862  -7.584  0.50 36.76 LIG 0.00  A 
ATOM     42  CD2 PHE C 305      10.544   9.580  -6.222  0.50 36.02 LIG 0.01  A 
ENDBRANCH 36 37
ENDBRANCH 35 36
BRANCH 35 43
ATOM     43  N   PHE C 305      12.768   6.827  -3.251  0.50 33.54 LIG-0.35  N 
ATOM     44 H    PHE C 305      13.349   7.342  -3.620  0.50 33.54 LIG 0.16  HD
ATOM     45  C   ASN C 304      13.066   5.840  -2.404  0.50 33.07 LIG 0.24  C 
ATOM     46 O    ASN C 304      12.288   4.909  -2.166  0.50 33.39 LIG-0.27  OA
BRANCH 45 47
ATOM     47  CA  ASN C 304      14.436   5.921  -1.719  0.50 32.40 LIG 0.18  C 
BRANCH 47 48
ATOM     48  CB  ASN C 304      14.438   5.327  -0.301  0.50 32.38 LIG 0.14  C 
BRANCH 48 49
ATOM     49  CG  ASN C 304      15.748   5.616   0.476  0.50 31.77 LIG 0.22  C 
ATOM     50 OD1  ASN C 304      15.786   6.458   1.365  0.50 27.48 LIG-0.27  OA
ATOM     51  ND2 ASN C 304      16.824   4.939   0.095  0.50 32.56 LIG-0.37  N 
ATOM     52 21HD ASN C 304      17.581   5.085   0.477  0.50 32.56 LIG 0.16  HD
ATOM     53 22HD ASN C 304      16.765   4.353  -0.532  0.50 32.56 LIG 0.16  HD
ENDBRANCH 48 49
ENDBRANCH 47 48
BRANCH 47 54
ATOM     54  N   ASN C 304      14.885   7.290  -1.649  0.50 31.56 LIG-0.34  N 
ATOM     55  C   LEU C 303      15.817   7.738  -2.477  0.50 30.83 LIG 0.26  C 
ATOM     56 O    LEU C 303      16.184   7.104  -3.456  0.50 29.02 LIG-0.27  OA
ATOM     57 H    ASN C 304      14.503   7.766  -1.043  0.50 31.56 LIG 0.16  HD
BRANCH 55 58
ATOM     58  CA  LEU C 303      16.409   9.111  -2.137  0.50 30.56 LIG 0.40  C 
ATOM     59  N   LEU C 303      17.707   9.043  -1.411  0.50 30.88 LIG 0.61  N 
BRANCH 58 60
ATOM     60  CB  LEU C 303      16.552   9.977  -3.395  0.50 30.80 LIG 0.06  C 
BRANCH 60 61
ATOM     61  CG  LEU C 303      15.459   9.870  -4.466  0.50 30.92 LIG-0.02  C 
ATOM     62  CD2 LEU C 303      16.038  10.135  -5.868  0.50 31.43 LIG 0.01  C 
ATOM     63  CD1 LEU C 303      14.291  10.791  -4.158  0.50 30.50 LIG 0.01  C 
ENDBRANCH 60 61
ENDBRANCH 58 60
ENDBRANCH 55 58
ENDBRANCH 47 54
ENDBRANCH 45 47
ENDBRANCH 35 43
ENDBRANCH 1 35
TORSDOF 21
ENDMDL
MODEL 10
USER: ADFR SOLUTION from run 51
USER: SCORE 18.447900 LL:  -5.318 LR: -14.077 RR:   0.000 FEB:  -7.813
USER: RMSD 8.097574
USER: SEED 50
USER: STATUS no improvement in best in 28 clusters for 5 generations
USER: GENES 23
USER: genes 0 Translation |==|  0.41696 0.48798 0.27630
USER: genes 1 Rotation |==|  0.71653 0.87583 0.68462 0.66668
USER: genes 2 Torsion [N]-CA--C-[N] |==|  0.27628
USER: genes 3 Torsion [C]-N--CA-[C] |==|  0.61267
USER: genes 4 Torsion [N]-CA--C-[N] |==|  0.45184
USER: genes 5 Torsion [C]-N--CA-[CB] |==|  0.22065
USER: genes 6 Torsion [N]-CA--C-[N] |==|  0.80035
USER: genes 7 Torsion [N]-CA--C-[OXT] |==|  0.32466
USER: genes 8 Torsion [N]-CA--CB-[OG] |==|  0.83260
USER: genes 9 Torsion [CA]-CB--OG-[HG] |==|  0.17419
USER: genes 10 Torsion [N]-CA--CB-[CG2] |==|  0.75283
USER: genes 11 Torsion [CA]-CB--CG1-[CD1] |==|  0.24933
USER: genes 12 Torsion [N]-C--CA-[N] |==|  0.93674
USER: genes 13 Torsion [C]-CA--CB-[CG] |==|  0.04701
USER: genes 14 Torsion [CA]-CB--CG-[CD1] |==|  0.73355
USER: genes 15 Torsion [C]-CA--N-[C] |==|  0.83021
USER: genes 16 Torsion [N]-C--CA-[N] |==|  0.46641
USER: genes 17 Torsion [C]-CA--CB-[CG] |==|  0.44401
USER: genes 18 Torsion [CA]-CB--CG-[OD1] |==|  0.98131
USER: genes 19 Torsion [C]-CA--N-[C] |==|  0.79010
USER: genes 20 Torsion [N]-C--CA-[N] |==|  0.68374
USER: genes 21 Torsion [C]-CA--CB-[CG] |==|  0.60396
USER: genes 22 Torsion [CA]-CB--CG-[CD2] |==|  0.74120
ROOT
ATOM      1  C   PHE C 305      11.275   6.542  -4.804  0.50 34.66 LIG 0.24  C 
ATOM      2 O    PHE C 305      10.230   6.734  -5.420  0.50 33.80 LIG-0.27  OA
ATOM      3  N   PRO C 306      12.184   5.629  -5.198  0.50 35.29 LIG-0.34  N 
ATOM      4  CA  PRO C 306      11.764   4.519  -6.038  0.50 35.79 LIG 0.18  C 
ATOM      5  CB  PRO C 306      13.018   4.228  -6.895  0.50 35.80 LIG 0.04  C 
ATOM      6  CG  PRO C 306      14.126   5.122  -6.327  0.50 35.25 LIG 0.02  C 
ATOM      7  CD  PRO C 306      13.639   5.603  -4.988  0.50 35.51 LIG 0.13  C 
ENDROOT
BRANCH 4 8
ATOM      8  C   PRO C 306      11.452   3.292  -5.178  0.50 36.50 LIG 0.24  C 
ATOM      9  N   ILE C 307      10.152   3.074  -4.916  0.50 37.01 LIG-0.35  N 
ATOM     10 H    ILE C 307       9.511   3.599  -5.144  0.50 37.01 LIG 0.16  HD
ATOM     11 O    PRO C 306      12.378   2.553  -4.774  0.50 36.74 LIG-0.27  OA
BRANCH 9 12
ATOM     12  CA  ILE C 307       9.746   1.869  -4.192  0.50 37.44 LIG 0.18  C 
BRANCH 12 13
ATOM     13  C   ILE C 307       8.471   1.242  -4.761  0.50 38.23 LIG 0.24  C 
ATOM     14  N   SER C 308       8.257  -0.019  -4.396  0.50 38.91 LIG-0.34  N 
ATOM     15 H    SER C 308       8.845  -0.492  -3.982  0.50 38.91 LIG 0.16  HD
ATOM     16 O    ILE C 307       7.708   1.887  -5.495  0.50 38.79 LIG-0.27  OA
BRANCH 14 17
ATOM     17  CA  SER C 308       7.012  -0.736  -4.654  0.50 39.43 LIG 0.20  C 
BRANCH 17 18
ATOM     18  C   SER C 308       6.997  -1.916  -3.679  0.50 39.77 LIG 0.24  C 
ATOM     19  N   PRO C 309       7.850  -2.928  -3.918  0.50 40.03 LIG-0.34  N 
ATOM     20  CD  PRO C 309       9.047  -2.920  -4.774  0.50 39.83 LIG 0.13  C 
ATOM     21  CA  PRO C 309       7.661  -4.219  -3.253  0.50 40.09 LIG 0.19  C 
ATOM     22  CG  PRO C 309       9.338  -4.377  -4.956  0.50 40.19 LIG 0.02  C 
ATOM     23  CB  PRO C 309       8.902  -5.016  -3.674  0.50 40.09 LIG 0.04  C 
ATOM     24 O    SER C 308       6.236  -1.910  -2.708  0.50 39.81 LIG-0.27  OA
BRANCH 21 25
ATOM     25  C   PRO C 309       7.562  -4.108  -1.731  0.50 40.04 LIG 0.20  C 
ATOM     26 OXT  PRO C 309       6.536  -4.431  -1.126  0.50 40.10 LIG-0.65  OA
ATOM     27 O    PRO C 309       8.509  -3.677  -1.068  0.50 40.34 LIG-0.65  OA
ENDBRANCH 21 25
ENDBRANCH 17 18
BRANCH 17 28
ATOM     28  CB  SER C 308       6.958  -1.236  -6.100  0.50 39.49 LIG 0.20  C 
BRANCH 28 29
ATOM     29 OG   SER C 308       7.030  -0.159  -7.024  0.50 39.70 LIG-0.40  OA
ATOM     30 HG   SER C 308       7.767   0.235  -6.939  0.50 39.70 LIG 0.21  HD
ENDBRANCH 28 29
ENDBRANCH 17 28
ENDBRANCH 14 17
ENDBRANCH 12 13
BRANCH 12 31
ATOM     31  CB  ILE C 307       9.510   2.138  -2.686  0.50 37.20 LIG 0.01  C 
ATOM     32  CG2 ILE C 307      10.809   1.956  -1.886  0.50 36.86 LIG 0.01  C 
BRANCH 31 33
ATOM     33  CG1 ILE C 307       8.884   3.533  -2.506  0.50 35.88 LIG 0.00  C 
ATOM     34  CD1 ILE C 307       7.375   3.574  -2.534  0.50 32.01 LIG 0.01  C 
ENDBRANCH 31 33
ENDBRANCH 12 31
ENDBRANCH 9 12
ENDBRANCH 4 8
BRANCH 1 35
ATOM     35  CA  PHE C 305      11.593   7.387  -3.564  0.50 34.47 LIG 0.18  C 
BRANCH 35 36
ATOM     36  CB  PHE C 305      12.139   8.736  -4.056  0.50 34.49 LIG 0.07  C 
BRANCH 36 37
ATOM     37  CG  PHE C 305      11.855   9.051  -5.516  0.50 35.55 LIG-0.06  A 
ATOM     38  CD1 PHE C 305      12.786   8.789  -6.519  0.50 36.28 LIG 0.01  A 
ATOM     39  CE1 PHE C 305      12.501   9.084  -7.856  0.50 36.66 LIG 0.00  A 
ATOM     40  CZ  PHE C 305      11.275   9.662  -8.199  0.50 36.87 LIG 0.00  A 
ATOM     41  CE2 PHE C 305      10.343   9.933  -7.214  0.50 36.76 LIG 0.00  A 
ATOM     42  CD2 PHE C 305      10.638   9.635  -5.875  0.50 36.02 LIG 0.01  A 
ENDBRANCH 36 37
ENDBRANCH 35 36
BRANCH 35 43
ATOM     43  N   PHE C 305      12.569   6.791  -2.644  0.50 33.54 LIG-0.35  N 
ATOM     44 H    PHE C 305      13.286   7.252  -2.532  0.50 33.54 LIG 0.16  HD
ATOM     45  C   ASN C 304      12.323   5.623  -2.050  0.50 33.07 LIG 0.24  C 
ATOM     46 O    ASN C 304      11.483   4.821  -2.476  0.50 33.39 LIG-0.27  OA
BRANCH 45 47
ATOM     47  CA  ASN C 304      13.136   5.317  -0.785  0.50 32.40 LIG 0.18  C 
BRANCH 47 48
ATOM     48  CB  ASN C 304      14.621   5.049  -1.071  0.50 32.38 LIG 0.14  C 
BRANCH 48 49
ATOM     49  CG  ASN C 304      15.523   5.232   0.176  0.50 31.77 LIG 0.22  C 
ATOM     50 OD1  ASN C 304      15.072   5.675   1.226  0.50 27.48 LIG-0.27  OA
ATOM     51  ND2 ASN C 304      16.806   4.927   0.029  0.50 32.56 LIG-0.37  N 
ATOM     52 21HD ASN C 304      17.352   5.040   0.684  0.50 32.56 LIG 0.16  HD
ATOM     53 22HD ASN C 304      17.092   4.618  -0.721  0.50 32.56 LIG 0.16  HD
ENDBRANCH 48 49
ENDBRANCH 47 48
BRANCH 47 54
ATOM     54  N   ASN C 304      12.583   4.177  -0.094  0.50 31.56 LIG-0.34  N 
ATOM     55  C   LEU C 303      11.468   4.292   0.612  0.50 30.83 LIG 0.26  C 
ATOM     56 O    LEU C 303      10.748   5.278   0.546  0.50 29.02 LIG-0.27  OA
ATOM     57 H    ASN C 304      13.030   3.448  -0.183  0.50 31.56 LIG 0.16  HD
BRANCH 55 58
ATOM     58  CA  LEU C 303      11.126   3.103   1.519  0.50 30.56 LIG 0.40  C 
ATOM     59  N   LEU C 303       9.894   2.373   1.113  0.50 30.88 LIG 0.61  N 
BRANCH 58 60
ATOM     60  CB  LEU C 303      12.308   2.130   1.622  0.50 30.80 LIG 0.06  C 
BRANCH 60 61
ATOM     61  CG  LEU C 303      11.998   0.629   1.672  0.50 30.92 LIG-0.02  C 
ATOM     62  CD2 LEU C 303      11.892   0.141   3.129  0.50 31.43 LIG 0.01  C 
ATOM     63  CD1 LEU C 303      13.017  -0.173   0.883  0.50 30.50 LIG 0.01  C 
ENDBRANCH 60 61
ENDBRANCH 58 60
ENDBRANCH 55 58
ENDBRANCH 47 54
ENDBRANCH 45 47
ENDBRANCH 35 43
ENDBRANCH 1 35
TORSDOF 21
ENDMDL
MODEL 11
USER: ADFR SOLUTION from run 57
USER: SCORE 17.099136 LL:  -5.143 LR: -14.068 RR:   0.000 FEB:  -7.804
USER: RMSD 11.083053
USER: SEED 56
USER: STATUS no improvement in best in 5 clusters for 5 generations
USER: GENES 23
USER: genes 0 Translation |==|  0.47161 0.59136 0.23333
USER: genes 1 Rotation |==|  0.90516 0.36525 0.33722 0.70296
USER: genes 2 Torsion [N]-CA--C-[N] |==|  0.61079
USER: genes 3 Torsion [C]-N--CA-[C] |==|  0.72134
USER: genes 4 Torsion [N]-CA--C-[N] |==|  0.05524
USER: genes 5 Torsion [C]-N--CA-[CB] |==|  0.28856
USER: genes 6 Torsion [N]-CA--C-[N] |==|  0.25195
USER: genes 7 Torsion [N]-CA--C-[OXT] |==|  0.91585
USER: genes 8 Torsion [N]-CA--CB-[OG] |==|  0.37342
USER: genes 9 Torsion [CA]-CB--OG-[HG] |==|  0.17139
USER: genes 10 Torsion [N]-CA--CB-[CG2] |==|  0.79649
USER: genes 11 Torsion [CA]-CB--CG1-[CD1] |==|  0.74128
USER: genes 12 Torsion [N]-C--CA-[N] |==|  0.18866
USER: genes 13 Torsion [C]-CA--CB-[CG] |==|  0.45191
USER: genes 14 Torsion [CA]-CB--CG-[CD1] |==|  0.23676
USER: genes 15 Torsion [C]-CA--N-[C] |==|  0.60800
USER: genes 16 Torsion [N]-C--CA-[N] |==|  0.43896
USER: genes 17 Torsion [C]-CA--CB-[CG] |==|  0.26232
USER: genes 18 Torsion [CA]-CB--CG-[OD1] |==|  0.84215
USER: genes 19 Torsion [C]-CA--N-[C] |==|  0.60888
USER: genes 20 Torsion [N]-C--CA-[N] |==|  0.22376
USER: genes 21 Torsion [C]-CA--CB-[CG] |==|  0.40631
USER: genes 22 Torsion [CA]-CB--CG-[CD2] |==|  0.85735
ROOT
ATOM      1  C   PHE C 305      12.668   9.024  -5.674  0.50 34.66 LIG 0.24  C 
ATOM      2 O    PHE C 305      13.641   9.228  -6.394  0.50 33.80 LIG-0.27  OA
ATOM      3  N   PRO C 306      11.477   9.616  -5.890  0.50 35.29 LIG-0.34  N 
ATOM      4  CA  PRO C 306      11.424  10.861  -6.641  0.50 35.79 LIG 0.18  C 
ATOM      5  CB  PRO C 306      10.053  10.787  -7.353  0.50 35.80 LIG 0.04  C 
ATOM      6  CG  PRO C 306       9.358   9.542  -6.790  0.50 35.25 LIG 0.02  C 
ATOM      7  CD  PRO C 306      10.123   9.151  -5.555  0.50 35.51 LIG 0.13  C 
ENDROOT
BRANCH 4 8
ATOM      8  C   PRO C 306      11.427  12.056  -5.686  0.50 36.50 LIG 0.24  C 
ATOM      9  N   ILE C 307      10.617  13.075  -6.019  0.50 37.01 LIG-0.35  N 
ATOM     10 H    ILE C 307      10.157  13.121  -6.744  0.50 37.01 LIG 0.16  HD
ATOM     11 O    PRO C 306      12.145  12.043  -4.661  0.50 36.74 LIG-0.27  OA
BRANCH 9 12
ATOM     12  CA  ILE C 307      10.471  14.216  -5.115  0.50 37.44 LIG 0.18  C 
BRANCH 12 13
ATOM     13  C   ILE C 307       9.190  14.146  -4.280  0.50 38.23 LIG 0.24  C 
ATOM     14  N   SER C 308       8.651  12.934  -4.185  0.50 38.91 LIG-0.34  N 
ATOM     15 H    SER C 308       8.918  12.265  -4.655  0.50 38.91 LIG 0.16  HD
ATOM     16 O    ILE C 307       8.719  15.156  -3.737  0.50 38.79 LIG-0.27  OA
BRANCH 14 17
ATOM     17  CA  SER C 308       7.553  12.606  -3.280  0.50 39.43 LIG 0.20  C 
BRANCH 17 18
ATOM     18  C   SER C 308       7.924  11.266  -2.640  0.50 39.77 LIG 0.24  C 
ATOM     19  N   PRO C 309       8.618  11.299  -1.489  0.50 40.03 LIG-0.34  N 
ATOM     20  CD  PRO C 309       8.774  12.429  -0.559  0.50 39.83 LIG 0.13  C 
ATOM     21  CA  PRO C 309       9.297  10.095  -1.007  0.50 40.09 LIG 0.19  C 
ATOM     22  CG  PRO C 309       9.934  12.008   0.288  0.50 40.19 LIG 0.02  C 
ATOM     23  CB  PRO C 309       9.823  10.516   0.372  0.50 40.09 LIG 0.04  C 
ATOM     24 O    SER C 308       7.574  10.206  -3.169  0.50 39.81 LIG-0.27  OA
BRANCH 21 25
ATOM     25  C   PRO C 309       8.376   8.880  -0.901  0.50 40.04 LIG 0.20  C 
ATOM     26 OXT  PRO C 309       7.172   9.003  -0.656  0.50 40.10 LIG-0.65  OA
ATOM     27 O    PRO C 309       8.818   7.739  -1.048  0.50 40.34 LIG-0.65  OA
ENDBRANCH 21 25
ENDBRANCH 17 18
BRANCH 17 28
ATOM     28  CB  SER C 308       6.231  12.488  -4.042  0.50 39.49 LIG 0.20  C 
BRANCH 28 29
ATOM     29 OG   SER C 308       5.506  11.332  -3.648  0.50 39.70 LIG-0.40  OA
ATOM     30 HG   SER C 308       5.316  11.385  -2.831  0.50 39.70 LIG 0.21  HD
ENDBRANCH 28 29
ENDBRANCH 17 28
ENDBRANCH 14 17
ENDBRANCH 12 13
BRANCH 12 31
ATOM     31  CB  ILE C 307      10.471  15.569  -5.868  0.50 37.20 LIG 0.01  C 
ATOM     32  CG2 ILE C 307      11.882  15.919  -6.364  0.50 36.86 LIG 0.01  C 
BRANCH 31 33
ATOM     33  CG1 ILE C 307       9.430  15.525  -7.000  0.50 35.88 LIG 0.00  C 
ATOM     34  CD1 ILE C 307       9.957  15.101  -8.349  0.50 32.01 LIG 0.01  C 
ENDBRANCH 31 33
ENDBRANCH 12 31
ENDBRANCH 9 12
ENDBRANCH 4 8
BRANCH 1 35
ATOM     35  CA  PHE C 305      12.779   8.034  -4.508  0.50 34.47 LIG 0.18  C 
BRANCH 35 36
ATOM     36  CB  PHE C 305      14.266   7.685  -4.342  0.50 34.49 LIG 0.07  C 
BRANCH 36 37
ATOM     37  CG  PHE C 305      14.636   7.056  -3.009  0.50 35.55 LIG-0.06  A 
ATOM     38  CD1 PHE C 305      14.519   5.685  -2.785  0.50 36.28 LIG 0.01  A 
ATOM     39  CE1 PHE C 305      14.869   5.129  -1.551  0.50 36.66 LIG 0.00  A 
ATOM     40  CZ  PHE C 305      15.329   5.951  -0.518  0.50 36.87 LIG 0.00  A 
ATOM     41  CE2 PHE C 305      15.445   7.314  -0.723  0.50 36.76 LIG 0.00  A 
ATOM     42  CD2 PHE C 305      15.089   7.864  -1.964  0.50 36.02 LIG 0.01  A 
ENDBRANCH 36 37
ENDBRANCH 35 36
BRANCH 35 43
ATOM     43  N   PHE C 305      12.019   6.790  -4.679  0.50 33.54 LIG-0.35  N 
ATOM     44 H    PHE C 305      12.027   6.470  -5.478  0.50 33.54 LIG 0.16  HD
ATOM     45  C   ASN C 304      11.379   6.232  -3.651  0.50 33.07 LIG 0.24  C 
ATOM     46 O    ASN C 304      11.083   6.862  -2.629  0.50 33.39 LIG-0.27  OA
BRANCH 45 47
ATOM     47  CA  ASN C 304      11.032   4.743  -3.791  0.50 32.40 LIG 0.18  C 
BRANCH 47 48
ATOM     48  CB  ASN C 304       9.781   4.493  -4.648  0.50 32.38 LIG 0.14  C 
BRANCH 48 49
ATOM     49  CG  ASN C 304      10.112   4.206  -6.134  0.50 31.77 LIG 0.22  C 
ATOM     50 OD1  ASN C 304      10.756   5.002  -6.808  0.50 27.48 LIG-0.27  OA
ATOM     51  ND2 ASN C 304       9.623   3.082  -6.643  0.50 32.56 LIG-0.37  N 
ATOM     52 21HD ASN C 304       9.754   2.892  -7.472  0.50 32.56 LIG 0.16  HD
ATOM     53 22HD ASN C 304       9.174   2.543  -6.145  0.50 32.56 LIG 0.16  HD
ENDBRANCH 48 49
ENDBRANCH 47 48
BRANCH 47 54
ATOM     54  N   ASN C 304      10.831   4.149  -2.492  0.50 31.56 LIG-0.34  N 
ATOM     55  C   LEU C 303      11.270   2.926  -2.234  0.50 30.83 LIG 0.26  C 
ATOM     56 O    LEU C 303      12.034   2.332  -2.981  0.50 29.02 LIG-0.27  OA
ATOM     57 H    ASN C 304      10.417   4.647  -1.926  0.50 31.56 LIG 0.16  HD
BRANCH 55 58
ATOM     58  CA  LEU C 303      10.765   2.296  -0.930  0.50 30.56 LIG 0.40  C 
ATOM     59  N   LEU C 303       9.397   1.718  -1.033  0.50 30.88 LIG 0.61  N 
BRANCH 58 60
ATOM     60  CB  LEU C 303      11.748   1.239  -0.412  0.50 30.80 LIG 0.06  C 
BRANCH 60 61
ATOM     61  CG  LEU C 303      11.892   1.077   1.106  0.50 30.92 LIG-0.02  C 
ATOM     62  CD2 LEU C 303      12.158   2.437   1.778  0.50 31.43 LIG 0.01  C 
ATOM     63  CD1 LEU C 303      12.962   0.059   1.456  0.50 30.50 LIG 0.01  C 
ENDBRANCH 60 61
ENDBRANCH 58 60
ENDBRANCH 55 58
ENDBRANCH 47 54
ENDBRANCH 45 47
ENDBRANCH 35 43
ENDBRANCH 1 35
TORSDOF 21
ENDMDL
MODEL 12
USER: ADFR SOLUTION from run 51
USER: SCORE 17.519780 LL:  -4.467 LR: -13.989 RR:   0.000 FEB:  -7.725
USER: RMSD 6.799847
USER: SEED 50
USER: STATUS no improvement in best in 28 clusters for 5 generations
USER: GENES 23
USER: genes 0 Translation |==|  0.39377 0.47900 0.27362
USER: genes 1 Rotation |==|  0.71329 0.86660 0.68315 0.69124
USER: genes 2 Torsion [N]-CA--C-[N] |==|  0.24189
USER: genes 3 Torsion [C]-N--CA-[C] |==|  0.72965
USER: genes 4 Torsion [N]-CA--C-[N] |==|  0.44363
USER: genes 5 Torsion [C]-N--CA-[CB] |==|  0.58548
USER: genes 6 Torsion [N]-CA--C-[N] |==|  0.81621
USER: genes 7 Torsion [N]-CA--C-[OXT] |==|  0.39962
USER: genes 8 Torsion [N]-CA--CB-[OG] |==|  0.94405
USER: genes 9 Torsion [CA]-CB--OG-[HG] |==|  0.96143
USER: genes 10 Torsion [N]-CA--CB-[CG2] |==|  0.71967
USER: genes 11 Torsion [CA]-CB--CG1-[CD1] |==|  0.22074
USER: genes 12 Torsion [N]-C--CA-[N] |==|  0.01568
USER: genes 13 Torsion [C]-CA--CB-[CG] |==|  0.91282
USER: genes 14 Torsion [CA]-CB--CG-[CD1] |==|  0.84595
USER: genes 15 Torsion [C]-CA--N-[C] |==|  0.71214
USER: genes 16 Torsion [N]-C--CA-[N] |==|  0.34719
USER: genes 17 Torsion [C]-CA--CB-[CG] |==|  0.51166
USER: genes 18 Torsion [CA]-CB--CG-[OD1] |==|  0.09960
USER: genes 19 Torsion [C]-CA--N-[C] |==|  0.80548
USER: genes 20 Torsion [N]-C--CA-[N] |==|  0.71012
USER: genes 21 Torsion [C]-CA--CB-[CG] |==|  0.72979
USER: genes 22 Torsion [CA]-CB--CG-[CD2] |==|  0.71762
ROOT
ATOM      1  C   PHE C 305      10.683   6.327  -4.858  0.50 34.66 LIG 0.24  C 
ATOM      2 O    PHE C 305       9.707   6.539  -5.571  0.50 33.80 LIG-0.27  OA
ATOM      3  N   PRO C 306      11.580   5.361  -5.137  0.50 35.29 LIG-0.34  N 
ATOM      4  CA  PRO C 306      11.185   4.237  -5.971  0.50 35.79 LIG 0.18  C 
ATOM      5  CB  PRO C 306      12.494   3.859  -6.702  0.50 35.80 LIG 0.04  C 
ATOM      6  CG  PRO C 306      13.589   4.726  -6.069  0.50 35.25 LIG 0.02  C 
ATOM      7  CD  PRO C 306      13.009   5.280  -4.797  0.50 35.51 LIG 0.13  C 
ENDROOT
BRANCH 4 8
ATOM      8  C   PRO C 306      10.743   3.060  -5.099  0.50 36.50 LIG 0.24  C 
ATOM      9  N   ILE C 307       9.450   3.054  -4.733  0.50 37.01 LIG-0.35  N 
ATOM     10 H    ILE C 307       8.889   3.682  -4.902  0.50 37.01 LIG 0.16  HD
ATOM     11 O    PRO C 306      11.562   2.169  -4.779  0.50 36.74 LIG-0.27  OA
BRANCH 9 12
ATOM     12  CA  ILE C 307       8.908   1.916  -3.988  0.50 37.44 LIG 0.18  C 
BRANCH 12 13
ATOM     13  C   ILE C 307       8.190   0.911  -4.890  0.50 38.23 LIG 0.24  C 
ATOM     14  N   SER C 308       8.054  -0.307  -4.373  0.50 38.91 LIG-0.34  N 
ATOM     15 H    SER C 308       8.448  -0.554  -3.649  0.50 38.91 LIG 0.16  HD
ATOM     16 O    ILE C 307       7.767   1.236  -6.009  0.50 38.79 LIG-0.27  OA
BRANCH 14 17
ATOM     17  CA  SER C 308       7.230  -1.353  -4.972  0.50 39.43 LIG 0.20  C 
BRANCH 17 18
ATOM     18  C   SER C 308       6.101  -0.628  -5.709  0.50 39.77 LIG 0.24  C 
ATOM     19  N   PRO C 309       5.214   0.056  -4.965  0.50 40.03 LIG-0.34  N 
ATOM     20  CD  PRO C 309       5.360   0.511  -3.573  0.50 39.83 LIG 0.13  C 
ATOM     21  CA  PRO C 309       3.938   0.477  -5.548  0.50 40.09 LIG 0.19  C 
ATOM     22  CG  PRO C 309       3.955   0.842  -3.180  0.50 40.19 LIG 0.02  C 
ATOM     23  CB  PRO C 309       3.312   1.335  -4.441  0.50 40.09 LIG 0.04  C 
ATOM     24 O    SER C 308       6.037  -0.669  -6.941  0.50 39.81 LIG-0.27  OA
BRANCH 21 25
ATOM     25  C   PRO C 309       4.097   1.272  -6.844  0.50 40.04 LIG 0.20  C 
ATOM     26 OXT  PRO C 309       3.294   1.156  -7.774  0.50 40.10 LIG-0.65  OA
ATOM     27 O    PRO C 309       5.044   2.046  -6.996  0.50 40.34 LIG-0.65  OA
ENDBRANCH 21 25
ENDBRANCH 17 18
BRANCH 17 28
ATOM     28  CB  SER C 308       6.657  -2.281  -3.897  0.50 39.49 LIG 0.20  C 
BRANCH 28 29
ATOM     29 OG   SER C 308       7.402  -2.200  -2.691  0.50 39.70 LIG-0.40  OA
ATOM     30 HG   SER C 308       8.130  -1.806  -2.836  0.50 39.70 LIG 0.21  HD
ENDBRANCH 28 29
ENDBRANCH 17 28
ENDBRANCH 14 17
ENDBRANCH 12 13
BRANCH 12 31
ATOM     31  CB  ILE C 307       7.916   2.354  -2.883  0.50 37.20 LIG 0.01  C 
ATOM     32  CG2 ILE C 307       8.593   2.343  -1.504  0.50 36.86 LIG 0.01  C 
BRANCH 31 33
ATOM     33  CG1 ILE C 307       7.315   3.723  -3.247  0.50 35.88 LIG 0.00  C 
ATOM     34  CD1 ILE C 307       6.200   3.692  -4.263  0.50 32.01 LIG 0.01  C 
ENDBRANCH 31 33
ENDBRANCH 12 31
ENDBRANCH 9 12
ENDBRANCH 4 8
BRANCH 1 35
ATOM     35  CA  PHE C 305      10.930   7.206  -3.625  0.50 34.47 LIG 0.18  C 
BRANCH 35 36
ATOM     36  CB  PHE C 305      10.877   8.670  -4.089  0.50 34.49 LIG 0.07  C 
BRANCH 36 37
ATOM     37  CG  PHE C 305      11.349   8.912  -5.513  0.50 35.55 LIG-0.06  A 
ATOM     38  CD1 PHE C 305      12.610   8.508  -5.949  0.50 36.28 LIG 0.01  A 
ATOM     39  CE1 PHE C 305      13.020   8.738  -7.266  0.50 36.66 LIG 0.00  A 
ATOM     40  CZ  PHE C 305      12.168   9.393  -8.160  0.50 36.87 LIG 0.00  A 
ATOM     41  CE2 PHE C 305      10.916   9.804  -7.741  0.50 36.76 LIG 0.00  A 
ATOM     42  CD2 PHE C 305      10.513   9.570  -6.417  0.50 36.02 LIG 0.01  A 
ENDBRANCH 36 37
ENDBRANCH 35 36
BRANCH 35 43
ATOM     43  N   PHE C 305      12.210   6.972  -2.947  0.50 33.54 LIG-0.35  N 
ATOM     44 H    PHE C 305      12.895   7.309  -3.344  0.50 33.54 LIG 0.16  HD
ATOM     45  C   ASN C 304      12.264   6.285  -1.806  0.50 33.07 LIG 0.24  C 
ATOM     46 O    ASN C 304      11.359   5.524  -1.442  0.50 33.39 LIG-0.27  OA
BRANCH 45 47
ATOM     47  CA  ASN C 304      13.515   6.493  -0.942  0.50 32.40 LIG 0.18  C 
BRANCH 47 48
ATOM     48  CB  ASN C 304      14.401   5.241  -0.850  0.50 32.38 LIG 0.14  C 
BRANCH 48 49
ATOM     49  CG  ASN C 304      15.609   5.420   0.104  0.50 31.77 LIG 0.22  C 
ATOM     50 OD1  ASN C 304      15.514   6.082   1.131  0.50 27.48 LIG-0.27  OA
ATOM     51  ND2 ASN C 304      16.751   4.860  -0.274  0.50 32.56 LIG-0.37  N 
ATOM     52 21HD ASN C 304      17.457   4.956   0.208  0.50 32.56 LIG 0.16  HD
ATOM     53 22HD ASN C 304      16.785   4.400  -1.000  0.50 32.56 LIG 0.16  HD
ENDBRANCH 48 49
ENDBRANCH 47 48
BRANCH 47 54
ATOM     54  N   ASN C 304      13.145   6.899   0.392  0.50 31.56 LIG-0.34  N 
ATOM     55  C   LEU C 303      12.633   8.100   0.614  0.50 30.83 LIG 0.26  C 
ATOM     56 O    LEU C 303      12.254   8.829  -0.292  0.50 29.02 LIG-0.27  OA
ATOM     57 H    ASN C 304      13.283   6.308   1.002  0.50 31.56 LIG 0.16  HD
BRANCH 55 58
ATOM     58  CA  LEU C 303      12.536   8.524   2.085  0.50 30.56 LIG 0.40  C 
ATOM     59  N   LEU C 303      11.156   8.457   2.639  0.50 30.88 LIG 0.61  N 
BRANCH 58 60
ATOM     60  CB  LEU C 303      13.497   7.708   2.958  0.50 30.80 LIG 0.06  C 
BRANCH 60 61
ATOM     61  CG  LEU C 303      12.930   6.495   3.706  0.50 30.92 LIG-0.02  C 
ATOM     62  CD2 LEU C 303      12.687   6.831   5.188  0.50 31.43 LIG 0.01  C 
ATOM     63  CD1 LEU C 303      13.825   5.278   3.545  0.50 30.50 LIG 0.01  C 
ENDBRANCH 60 61
ENDBRANCH 58 60
ENDBRANCH 55 58
ENDBRANCH 47 54
ENDBRANCH 45 47
ENDBRANCH 35 43
ENDBRANCH 1 35
TORSDOF 21
ENDMDL
MODEL 13
USER: ADFR SOLUTION from run 87
USER: SCORE 18.068099 LL:  -5.383 LR: -13.977 RR:   0.000 FEB:  -7.712
USER: RMSD 6.618880
USER: SEED 86
USER: STATUS searching
USER: GENES 23
USER: genes 0 Translation |==|  0.45488 0.50274 0.22197
USER: genes 1 Rotation |==|  0.78567 0.72516 0.57901 0.83384
USER: genes 2 Torsion [N]-CA--C-[N] |==|  0.63610
USER: genes 3 Torsion [C]-N--CA-[C] |==|  0.82086
USER: genes 4 Torsion [N]-CA--C-[N] |==|  0.94867
USER: genes 5 Torsion [C]-N--CA-[CB] |==|  0.52791
USER: genes 6 Torsion [N]-CA--C-[N] |==|  0.30105
USER: genes 7 Torsion [N]-CA--C-[OXT] |==|  0.45156
USER: genes 8 Torsion [N]-CA--CB-[OG] |==|  0.81507
USER: genes 9 Torsion [CA]-CB--OG-[HG] |==|  0.56324
USER: genes 10 Torsion [N]-CA--CB-[CG2] |==|  0.22828
USER: genes 11 Torsion [CA]-CB--CG1-[CD1] |==|  0.21039
USER: genes 12 Torsion [N]-C--CA-[N] |==|  0.11428
USER: genes 13 Torsion [C]-CA--CB-[CG] |==|  0.18479
USER: genes 14 Torsion [CA]-CB--CG-[CD1] |==|  0.63145
USER: genes 15 Torsion [C]-CA--N-[C] |==|  0.67855
USER: genes 16 Torsion [N]-C--CA-[N] |==|  0.18541
USER: genes 17 Torsion [C]-CA--CB-[CG] |==|  0.54017
USER: genes 18 Torsion [CA]-CB--CG-[OD1] |==|  0.29622
USER: genes 19 Torsion [C]-CA--N-[C] |==|  0.74467
USER: genes 20 Torsion [N]-C--CA-[N] |==|  0.35274
USER: genes 21 Torsion [C]-CA--CB-[CG] |==|  0.01688
USER: genes 22 Torsion [CA]-CB--CG-[CD2] |==|  0.69184
ROOT
ATOM      1  C   PHE C 305      12.241   6.897  -5.904  0.50 34.66 LIG 0.24  C 
ATOM      2 O    PHE C 305      11.972   7.455  -6.963  0.50 33.80 LIG-0.27  OA
ATOM      3  N   PRO C 306      12.097   5.568  -5.735  0.50 35.29 LIG-0.34  N 
ATOM      4  CA  PRO C 306      11.175   4.835  -6.588  0.50 35.79 LIG 0.18  C 
ATOM      5  CB  PRO C 306      11.829   3.438  -6.700  0.50 35.80 LIG 0.04  C 
ATOM      6  CG  PRO C 306      13.017   3.456  -5.732  0.50 35.25 LIG 0.02  C 
ATOM      7  CD  PRO C 306      12.820   4.651  -4.840  0.50 35.51 LIG 0.13  C 
ENDROOT
BRANCH 4 8
ATOM      8  C   PRO C 306       9.815   4.695  -5.902  0.50 36.50 LIG 0.24  C 
ATOM      9  N   ILE C 307       9.290   3.458  -5.886  0.50 37.01 LIG-0.35  N 
ATOM     10 H    ILE C 307       9.632   2.774  -6.279  0.50 37.01 LIG 0.16  HD
ATOM     11 O    PRO C 306       9.263   5.693  -5.386  0.50 36.74 LIG-0.27  OA
BRANCH 9 12
ATOM     12  CA  ILE C 307       8.044   3.204  -5.162  0.50 37.44 LIG 0.18  C 
BRANCH 12 13
ATOM     13  C   ILE C 307       8.187   3.416  -3.653  0.50 38.23 LIG 0.24  C 
ATOM     14  N   SER C 308       9.438   3.409  -3.203  0.50 38.91 LIG-0.34  N 
ATOM     15 H    SER C 308      10.108   3.176  -3.690  0.50 38.91 LIG 0.16  HD
ATOM     16 O    ILE C 307       7.195   3.590  -2.930  0.50 38.79 LIG-0.27  OA
BRANCH 14 17
ATOM     17  CA  SER C 308       9.813   3.792  -1.845  0.50 39.43 LIG 0.20  C 
BRANCH 17 18
ATOM     18  C   SER C 308       9.140   5.143  -1.589  0.50 39.77 LIG 0.24  C 
ATOM     19  N   PRO C 309       8.100   5.166  -0.737  0.50 40.03 LIG-0.34  N 
ATOM     20  CD  PRO C 309       7.727   4.153   0.264  0.50 39.83 LIG 0.13  C 
ATOM     21  CA  PRO C 309       7.203   6.323  -0.706  0.50 40.09 LIG 0.19  C 
ATOM     22  CG  PRO C 309       6.319   4.524   0.607  0.50 40.19 LIG 0.02  C 
ATOM     23  CB  PRO C 309       6.274   6.015   0.476  0.50 40.09 LIG 0.04  C 
ATOM     24 O    SER C 308       9.563   6.162  -2.142  0.50 39.81 LIG-0.27  OA
BRANCH 21 25
ATOM     25  C   PRO C 309       7.933   7.651  -0.508  0.50 40.04 LIG 0.20  C 
ATOM     26 OXT  PRO C 309       7.393   8.729  -0.770  0.50 40.10 LIG-0.65  OA
ATOM     27 O    PRO C 309       9.093   7.676  -0.090  0.50 40.34 LIG-0.65  OA
ENDBRANCH 21 25
ENDBRANCH 17 18
BRANCH 17 28
ATOM     28  CB  SER C 308      11.333   3.916  -1.710  0.50 39.49 LIG 0.20  C 
BRANCH 28 29
ATOM     29 OG   SER C 308      11.972   2.657  -1.860  0.50 39.70 LIG-0.40  OA
ATOM     30 HG   SER C 308      12.725   2.679  -1.488  0.50 39.70 LIG 0.21  HD
ENDBRANCH 28 29
ENDBRANCH 17 28
ENDBRANCH 14 17
ENDBRANCH 12 13
BRANCH 12 31
ATOM     31  CB  ILE C 307       7.513   1.768  -5.389  0.50 37.20 LIG 0.01  C 
ATOM     32  CG2 ILE C 307       8.222   0.768  -4.463  0.50 36.86 LIG 0.01  C 
BRANCH 31 33
ATOM     33  CG1 ILE C 307       5.982   1.755  -5.226  0.50 35.88 LIG 0.00  C 
ATOM     34  CD1 ILE C 307       5.203   2.335  -6.382  0.50 32.01 LIG 0.01  C 
ENDBRANCH 31 33
ENDBRANCH 12 31
ENDBRANCH 9 12
ENDBRANCH 4 8
BRANCH 1 35
ATOM     35  CA  PHE C 305      12.800   7.715  -4.733  0.50 34.47 LIG 0.18  C 
BRANCH 35 36
ATOM     36  CB  PHE C 305      13.281   9.059  -5.302  0.50 34.49 LIG 0.07  C 
BRANCH 36 37
ATOM     37  CG  PHE C 305      12.183   9.960  -5.842  0.50 35.55 LIG-0.06  A 
ATOM     38  CD1 PHE C 305      12.289  10.584  -7.085  0.50 36.28 LIG 0.01  A 
ATOM     39  CE1 PHE C 305      11.264  11.406  -7.562  0.50 36.66 LIG 0.00  A 
ATOM     40  CZ  PHE C 305      10.121  11.622  -6.788  0.50 36.87 LIG 0.00  A 
ATOM     41  CE2 PHE C 305      10.003  11.013  -5.551  0.50 36.76 LIG 0.00  A 
ATOM     42  CD2 PHE C 305      11.038  10.192  -5.078  0.50 36.02 LIG 0.01  A 
ENDBRANCH 36 37
ENDBRANCH 35 36
BRANCH 35 43
ATOM     43  N   PHE C 305      13.910   7.083  -4.012  0.50 33.54 LIG-0.35  N 
ATOM     44 H    PHE C 305      14.624   6.970  -4.478  0.50 33.54 LIG 0.16  HD
ATOM     45  C   ASN C 304      13.780   6.726  -2.733  0.50 33.07 LIG 0.24  C 
ATOM     46 O    ASN C 304      12.679   6.567  -2.194  0.50 33.39 LIG-0.27  OA
BRANCH 45 47
ATOM     47  CA  ASN C 304      15.082   6.529  -1.945  0.50 32.40 LIG 0.18  C 
BRANCH 47 48
ATOM     48  CB  ASN C 304      14.859   5.912  -0.556  0.50 32.38 LIG 0.14  C 
BRANCH 48 49
ATOM     49  CG  ASN C 304      16.096   6.039   0.370  0.50 31.77 LIG 0.22  C 
ATOM     50 OD1  ASN C 304      16.111   6.831   1.305  0.50 27.48 LIG-0.27  OA
ATOM     51  ND2 ASN C 304      17.142   5.280   0.068  0.50 32.56 LIG-0.37  N 
ATOM     52 21HD ASN C 304      17.863   5.336   0.534  0.50 32.56 LIG 0.16  HD
ATOM     53 22HD ASN C 304      17.100   4.733  -0.595  0.50 32.56 LIG 0.16  HD
ENDBRANCH 48 49
ENDBRANCH 47 48
BRANCH 47 54
ATOM     54  N   ASN C 304      15.771   7.787  -1.790  0.50 31.56 LIG-0.34  N 
ATOM     55  C   LEU C 303      16.683   8.170  -2.671  0.50 30.83 LIG 0.26  C 
ATOM     56 O    LEU C 303      16.834   7.607  -3.746  0.50 29.02 LIG-0.27  OA
ATOM     57 H    ASN C 304      15.542   8.243  -1.098  0.50 31.56 LIG 0.16  HD
BRANCH 55 58
ATOM     58  CA  LEU C 303      17.541   9.375  -2.265  0.50 30.56 LIG 0.40  C 
ATOM     59  N   LEU C 303      19.005   9.129  -2.359  0.50 30.88 LIG 0.61  N 
BRANCH 58 60
ATOM     60  CB  LEU C 303      17.160  10.620  -3.076  0.50 30.80 LIG 0.06  C 
BRANCH 60 61
ATOM     61  CG  LEU C 303      15.949  10.523  -4.011  0.50 30.92 LIG-0.02  C 
ATOM     62  CD2 LEU C 303      16.392  10.574  -5.486  0.50 31.43 LIG 0.01  C 
ATOM     63  CD1 LEU C 303      14.920  11.594  -3.697  0.50 30.50 LIG 0.01  C 
ENDBRANCH 60 61
ENDBRANCH 58 60
ENDBRANCH 55 58
ENDBRANCH 47 54
ENDBRANCH 45 47
ENDBRANCH 35 43
ENDBRANCH 1 35
TORSDOF 21
ENDMDL
MODEL 14
USER: ADFR SOLUTION from run 53
USER: SCORE 17.728854 LL:  -6.390 LR: -13.962 RR:   0.000 FEB:  -7.697
USER: RMSD 7.829182
USER: SEED 52
USER: STATUS no improvement in best in 30 clusters for 5 generations
USER: GENES 23
USER: genes 0 Translation |==|  0.38046 0.49229 0.29870
USER: genes 1 Rotation |==|  0.83857 0.82848 0.48162 0.66473
USER: genes 2 Torsion [N]-CA--C-[N] |==|  0.30516
USER: genes 3 Torsion [C]-N--CA-[C] |==|  0.74454
USER: genes 4 Torsion [N]-CA--C-[N] |==|  0.92577
USER: genes 5 Torsion [C]-N--CA-[CB] |==|  0.32839
USER: genes 6 Torsion [N]-CA--C-[N] |==|  0.16512
USER: genes 7 Torsion [N]-CA--C-[OXT] |==|  0.75937
USER: genes 8 Torsion [N]-CA--CB-[OG] |==|  0.95285
USER: genes 9 Torsion [CA]-CB--OG-[HG] |==|  0.17675
USER: genes 10 Torsion [N]-CA--CB-[CG2] |==|  0.32982
USER: genes 11 Torsion [CA]-CB--CG1-[CD1] |==|  0.06796
USER: genes 12 Torsion [N]-C--CA-[N] |==|  0.37934
USER: genes 13 Torsion [C]-CA--CB-[CG] |==|  0.86500
USER: genes 14 Torsion [CA]-CB--CG-[CD1] |==|  0.83069
USER: genes 15 Torsion [C]-CA--N-[C] |==|  0.73893
USER: genes 16 Torsion [N]-C--CA-[N] |==|  0.82063
USER: genes 17 Torsion [C]-CA--CB-[CG] |==|  0.37698
USER: genes 18 Torsion [CA]-CB--CG-[OD1] |==|  0.12189
USER: genes 19 Torsion [C]-CA--N-[C] |==|  0.19298
USER: genes 20 Torsion [N]-C--CA-[N] |==|  0.69575
USER: genes 21 Torsion [C]-CA--CB-[CG] |==|  0.20838
USER: genes 22 Torsion [CA]-CB--CG-[CD2] |==|  0.02889
ROOT
ATOM      1  C   PHE C 305      10.344   6.646  -4.350  0.50 34.66 LIG 0.24  C 
ATOM      2 O    PHE C 305       9.449   7.430  -4.652  0.50 33.80 LIG-0.27  OA
ATOM      3  N   PRO C 306      10.202   5.312  -4.474  0.50 35.29 LIG-0.34  N 
ATOM      4  CA  PRO C 306       8.868   4.732  -4.485  0.50 35.79 LIG 0.18  C 
ATOM      5  CB  PRO C 306       9.026   3.494  -5.398  0.50 35.80 LIG 0.04  C 
ATOM      6  CG  PRO C 306      10.526   3.386  -5.697  0.50 35.25 LIG 0.02  C 
ATOM      7  CD  PRO C 306      11.221   4.277  -4.704  0.50 35.51 LIG 0.13  C 
ENDROOT
BRANCH 4 8
ATOM      8  C   PRO C 306       8.479   4.270  -3.079  0.50 36.50 LIG 0.24  C 
ATOM      9  N   ILE C 307       7.521   4.988  -2.470  0.50 37.01 LIG-0.35  N 
ATOM     10 H    ILE C 307       7.167   5.704  -2.786  0.50 37.01 LIG 0.16  HD
ATOM     11 O    PRO C 306       9.034   3.271  -2.568  0.50 36.74 LIG-0.27  OA
BRANCH 9 12
ATOM     12  CA  ILE C 307       7.007   4.560  -1.168  0.50 37.44 LIG 0.18  C 
BRANCH 12 13
ATOM     13  C   ILE C 307       5.781   3.653  -1.288  0.50 38.23 LIG 0.24  C 
ATOM     14  N   SER C 308       5.059   3.831  -2.391  0.50 38.91 LIG-0.34  N 
ATOM     15 H    SER C 308       5.189   4.486  -2.933  0.50 38.91 LIG 0.16  HD
ATOM     16 O    ILE C 307       5.510   2.816  -0.414  0.50 38.79 LIG-0.27  OA
BRANCH 14 17
ATOM     17  CA  SER C 308       3.976   2.943  -2.802  0.50 39.43 LIG 0.20  C 
BRANCH 17 18
ATOM     18  C   SER C 308       4.357   2.432  -4.194  0.50 39.77 LIG 0.24  C 
ATOM     19  N   PRO C 309       5.514   1.756  -4.310  0.50 40.03 LIG-0.34  N 
ATOM     20  CD  PRO C 309       6.302   1.121  -3.243  0.50 39.83 LIG 0.13  C 
ATOM     21  CA  PRO C 309       6.108   1.542  -5.632  0.50 40.09 LIG 0.19  C 
ATOM     22  CG  PRO C 309       7.628   0.888  -3.898  0.50 40.19 LIG 0.02  C 
ATOM     23  CB  PRO C 309       7.300   0.623  -5.336  0.50 40.09 LIG 0.04  C 
ATOM     24 O    SER C 308       3.609   2.631  -5.155  0.50 39.81 LIG-0.27  OA
BRANCH 21 25
ATOM     25  C   PRO C 309       5.147   0.900  -6.632  0.50 40.04 LIG 0.20  C 
ATOM     26 OXT  PRO C 309       5.022  -0.325  -6.711  0.50 40.10 LIG-0.65  OA
ATOM     27 O    PRO C 309       4.478   1.596  -7.399  0.50 40.34 LIG-0.65  OA
ENDBRANCH 21 25
ENDBRANCH 17 18
BRANCH 17 28
ATOM     28  CB  SER C 308       2.643   3.692  -2.853  0.50 39.49 LIG 0.20  C 
BRANCH 28 29
ATOM     29 OG   SER C 308       2.708   4.917  -2.136  0.50 39.70 LIG-0.40  OA
ATOM     30 HG   SER C 308       3.266   5.426  -2.501  0.50 39.70 LIG 0.21  HD
ENDBRANCH 28 29
ENDBRANCH 17 28
ENDBRANCH 14 17
ENDBRANCH 12 13
BRANCH 12 31
ATOM     31  CB  ILE C 307       6.623   5.757  -0.264  0.50 37.20 LIG 0.01  C 
ATOM     32  CG2 ILE C 307       5.128   5.722   0.086  0.50 36.86 LIG 0.01  C 
BRANCH 31 33
ATOM     33  CG1 ILE C 307       7.531   5.773   0.979  0.50 35.88 LIG 0.00  C 
ATOM     34  CD1 ILE C 307       8.868   5.093   0.813  0.50 32.01 LIG 0.01  C 
ENDBRANCH 31 33
ENDBRANCH 12 31
ENDBRANCH 9 12
ENDBRANCH 4 8
BRANCH 1 35
ATOM     35  CA  PHE C 305      11.691   7.184  -3.851  0.50 34.47 LIG 0.18  C 
BRANCH 35 36
ATOM     36  CB  PHE C 305      11.512   7.563  -2.372  0.50 34.49 LIG 0.07  C 
BRANCH 36 37
ATOM     37  CG  PHE C 305      10.289   8.412  -2.068  0.50 35.55 LIG-0.06  A 
ATOM     38  CD1 PHE C 305      10.113   9.675  -2.631  0.50 36.28 LIG 0.01  A 
ATOM     39  CE1 PHE C 305       8.977  10.436  -2.339  0.50 36.66 LIG 0.00  A 
ATOM     40  CZ  PHE C 305       8.007   9.940  -1.463  0.50 36.87 LIG 0.00  A 
ATOM     41  CE2 PHE C 305       8.170   8.690  -0.893  0.50 36.76 LIG 0.00  A 
ATOM     42  CD2 PHE C 305       9.315   7.933  -1.190  0.50 36.02 LIG 0.01  A 
ENDBRANCH 36 37
ENDBRANCH 35 36
BRANCH 35 43
ATOM     43  N   PHE C 305      12.197   8.352  -4.580  0.50 33.54 LIG-0.35  N 
ATOM     44 H    PHE C 305      11.905   9.109  -4.294  0.50 33.54 LIG 0.16  HD
ATOM     45  C   ASN C 304      13.043   8.208  -5.600  0.50 33.07 LIG 0.24  C 
ATOM     46 O    ASN C 304      13.173   7.141  -6.213  0.50 33.39 LIG-0.27  OA
BRANCH 45 47
ATOM     47  CA  ASN C 304      13.872   9.443  -5.978  0.50 32.40 LIG 0.18  C 
BRANCH 47 48
ATOM     48  CB  ASN C 304      14.721   9.980  -4.816  0.50 32.38 LIG 0.14  C 
BRANCH 48 49
ATOM     49  CG  ASN C 304      16.167  10.343  -5.237  0.50 31.77 LIG 0.22  C 
ATOM     50 OD1  ASN C 304      16.392  10.956  -6.274  0.50 27.48 LIG-0.27  OA
ATOM     51  ND2 ASN C 304      17.140   9.916  -4.442  0.50 32.56 LIG-0.37  N 
ATOM     52 21HD ASN C 304      17.962  10.068  -4.648  0.50 32.56 LIG 0.16  HD
ATOM     53 22HD ASN C 304      16.950   9.489  -3.720  0.50 32.56 LIG 0.16  HD
ENDBRANCH 48 49
ENDBRANCH 47 48
BRANCH 47 54
ATOM     54  N   ASN C 304      13.012  10.499  -6.454  0.50 31.56 LIG-0.34  N 
ATOM     55  C   LEU C 303      12.195  11.129  -5.623  0.50 30.83 LIG 0.26  C 
ATOM     56 O    LEU C 303      12.274  11.009  -4.408  0.50 29.02 LIG-0.27  OA
ATOM     57 H    ASN C 304      13.080  10.672  -7.293  0.50 31.56 LIG 0.16  HD
BRANCH 55 58
ATOM     58  CA  LEU C 303      11.141  12.031  -6.277  0.50 30.56 LIG 0.40  C 
ATOM     59  N   LEU C 303      11.383  13.485  -6.071  0.50 30.88 LIG 0.61  N 
BRANCH 58 60
ATOM     60  CB  LEU C 303      11.006  11.724  -7.774  0.50 30.80 LIG 0.06  C 
BRANCH 60 61
ATOM     61  CG  LEU C 303      10.264  10.444  -8.178  0.50 30.92 LIG-0.02  C 
ATOM     62  CD2 LEU C 303       9.555   9.816  -6.964  0.50 31.43 LIG 0.01  C 
ATOM     63  CD1 LEU C 303      11.196   9.456  -8.858  0.50 30.50 LIG 0.01  C 
ENDBRANCH 60 61
ENDBRANCH 58 60
ENDBRANCH 55 58
ENDBRANCH 47 54
ENDBRANCH 45 47
ENDBRANCH 35 43
ENDBRANCH 1 35
TORSDOF 21
ENDMDL
MODEL 15
USER: ADFR SOLUTION from run 25
USER: SCORE 17.307812 LL:  -4.073 LR: -13.960 RR:   0.000 FEB:  -7.695
USER: RMSD 11.667315
USER: SEED 24
USER: STATUS no improvement in best in 2 clusters for 5 generations
USER: GENES 23
USER: genes 0 Translation |==|  0.58964 0.66385 0.27086
USER: genes 1 Rotation |==|  0.24106 0.70051 0.85260 0.63573
USER: genes 2 Torsion [N]-CA--C-[N] |==|  0.62063
USER: genes 3 Torsion [C]-N--CA-[C] |==|  0.76918
USER: genes 4 Torsion [N]-CA--C-[N] |==|  0.33679
USER: genes 5 Torsion [C]-N--CA-[CB] |==|  0.53898
USER: genes 6 Torsion [N]-CA--C-[N] |==|  0.45108
USER: genes 7 Torsion [N]-CA--C-[OXT] |==|  0.40845
USER: genes 8 Torsion [N]-CA--CB-[OG] |==|  0.84377
USER: genes 9 Torsion [CA]-CB--OG-[HG] |==|  0.46000
USER: genes 10 Torsion [N]-CA--CB-[CG2] |==|  0.47740
USER: genes 11 Torsion [CA]-CB--CG1-[CD1] |==|  0.83201
USER: genes 12 Torsion [N]-C--CA-[N] |==|  0.86728
USER: genes 13 Torsion [C]-CA--CB-[CG] |==|  0.32815
USER: genes 14 Torsion [CA]-CB--CG-[CD1] |==|  0.53992
USER: genes 15 Torsion [C]-CA--N-[C] |==|  0.71177
USER: genes 16 Torsion [N]-C--CA-[N] |==|  0.41460
USER: genes 17 Torsion [C]-CA--CB-[CG] |==|  0.64190
USER: genes 18 Torsion [CA]-CB--CG-[OD1] |==|  0.29148
USER: genes 19 Torsion [C]-CA--N-[C] |==|  0.73956
USER: genes 20 Torsion [N]-C--CA-[N] |==|  0.22426
USER: genes 21 Torsion [C]-CA--CB-[CG] |==|  0.21749
USER: genes 22 Torsion [CA]-CB--CG-[CD2] |==|  0.96071
ROOT
ATOM      1  C   PHE C 305      15.678  10.763  -4.914  0.50 34.66 LIG 0.24  C 
ATOM      2 O    PHE C 305      16.407  10.786  -5.901  0.50 33.80 LIG-0.27  OA
ATOM      3  N   PRO C 306      15.898  11.546  -3.839  0.50 35.29 LIG-0.34  N 
ATOM      4  CA  PRO C 306      17.236  12.059  -3.591  0.50 35.79 LIG 0.18  C 
ATOM      5  CB  PRO C 306      16.973  13.421  -2.907  0.50 35.80 LIG 0.04  C 
ATOM      6  CG  PRO C 306      15.460  13.482  -2.670  0.50 35.25 LIG 0.02  C 
ATOM      7  CD  PRO C 306      14.944  12.081  -2.856  0.50 35.51 LIG 0.13  C 
ENDROOT
BRANCH 4 8
ATOM      8  C   PRO C 306      17.982  11.146  -2.616  0.50 36.50 LIG 0.24  C 
ATOM      9  N   ILE C 307      18.681  11.766  -1.650  0.50 37.01 LIG-0.35  N 
ATOM     10 H    ILE C 307      18.782  12.617  -1.585  0.50 37.01 LIG 0.16  HD
ATOM     11 O    PRO C 306      17.910   9.903  -2.735  0.50 36.74 LIG-0.27  OA
BRANCH 9 12
ATOM     12  CA  ILE C 307      19.341  10.978  -0.608  0.50 37.44 LIG 0.18  C 
BRANCH 12 13
ATOM     13  C   ILE C 307      18.391  10.595   0.529  0.50 38.23 LIG 0.24  C 
ATOM     14  N   SER C 308      18.264   9.287   0.734  0.50 38.91 LIG-0.34  N 
ATOM     15 H    SER C 308      18.583   8.696   0.196  0.50 38.91 LIG 0.16  HD
ATOM     16 O    ILE C 307      17.806  11.458   1.199  0.50 38.79 LIG-0.27  OA
BRANCH 14 17
ATOM     17  CA  SER C 308      17.576   8.711   1.886  0.50 39.43 LIG 0.20  C 
BRANCH 17 18
ATOM     18  C   SER C 308      18.084   9.481   3.107  0.50 39.77 LIG 0.24  C 
ATOM     19  N   PRO C 309      17.358   9.403   4.236  0.50 40.03 LIG-0.34  N 
ATOM     20  CD  PRO C 309      16.334   8.405   4.587  0.50 39.83 LIG 0.13  C 
ATOM     21  CA  PRO C 309      17.579  10.364   5.318  0.50 40.09 LIG 0.19  C 
ATOM     22  CG  PRO C 309      15.623   9.045   5.737  0.50 40.19 LIG 0.02  C 
ATOM     23  CB  PRO C 309      16.679   9.839   6.445  0.50 40.09 LIG 0.04  C 
ATOM     24 O    SER C 308      19.133  10.129   3.041  0.50 39.81 LIG-0.27  OA
BRANCH 21 25
ATOM     25  C   PRO C 309      19.037  10.447   5.767  0.50 40.04 LIG 0.20  C 
ATOM     26 OXT  PRO C 309      19.529  11.505   6.170  0.50 40.10 LIG-0.65  OA
ATOM     27 O    PRO C 309      19.767   9.454   5.726  0.50 40.34 LIG-0.65  OA
ENDBRANCH 21 25
ENDBRANCH 17 18
BRANCH 17 28
ATOM     28  CB  SER C 308      17.892   7.220   2.024  0.50 39.49 LIG 0.20  C 
BRANCH 28 29
ATOM     29 OG   SER C 308      17.565   6.508   0.839  0.50 39.70 LIG-0.40  OA
ATOM     30 HG   SER C 308      17.922   5.748   0.861  0.50 39.70 LIG 0.21  HD
ENDBRANCH 28 29
ENDBRANCH 17 28
ENDBRANCH 14 17
ENDBRANCH 12 13
BRANCH 12 31
ATOM     31  CB  ILE C 307      20.549  11.719   0.015  0.50 37.20 LIG 0.01  C 
ATOM     32  CG2 ILE C 307      21.090  10.957   1.234  0.50 36.86 LIG 0.01  C 
BRANCH 31 33
ATOM     33  CG1 ILE C 307      21.617  11.957  -1.067  0.50 35.88 LIG 0.00  C 
ATOM     34  CD1 ILE C 307      22.177  10.712  -1.711  0.50 32.01 LIG 0.01  C 
ENDBRANCH 31 33
ENDBRANCH 12 31
ENDBRANCH 9 12
ENDBRANCH 4 8
BRANCH 1 35
ATOM     35  CA  PHE C 305      14.446   9.850  -4.899  0.50 34.47 LIG 0.18  C 
BRANCH 35 36
ATOM     36  CB  PHE C 305      13.211  10.742  -5.099  0.50 34.49 LIG 0.07  C 
BRANCH 36 37
ATOM     37  CG  PHE C 305      12.402  10.450  -6.351  0.50 35.55 LIG-0.06  A 
ATOM     38  CD1 PHE C 305      11.442  11.341  -6.830  0.50 36.28 LIG 0.01  A 
ATOM     39  CE1 PHE C 305      10.712  11.052  -7.987  0.50 36.66 LIG 0.00  A 
ATOM     40  CZ  PHE C 305      10.930   9.853  -8.672  0.50 36.87 LIG 0.00  A 
ATOM     41  CE2 PHE C 305      11.876   8.958  -8.207  0.50 36.76 LIG 0.00  A 
ATOM     42  CD2 PHE C 305      12.603   9.254  -7.043  0.50 36.02 LIG 0.01  A 
ENDBRANCH 36 37
ENDBRANCH 35 36
BRANCH 35 43
ATOM     43  N   PHE C 305      14.271   9.070  -3.668  0.50 33.54 LIG-0.35  N 
ATOM     44 H    PHE C 305      13.968   9.517  -2.998  0.50 33.54 LIG 0.16  HD
ATOM     45  C   ASN C 304      14.569   7.771  -3.633  0.50 33.07 LIG 0.24  C 
ATOM     46 O    ASN C 304      15.314   7.235  -4.462  0.50 33.39 LIG-0.27  OA
BRANCH 45 47
ATOM     47  CA  ASN C 304      13.926   6.954  -2.504  0.50 32.40 LIG 0.18  C 
BRANCH 47 48
ATOM     48  CB  ASN C 304      14.764   6.938  -1.217  0.50 32.38 LIG 0.14  C 
BRANCH 48 49
ATOM     49  CG  ASN C 304      15.008   5.509  -0.669  0.50 31.77 LIG 0.22  C 
ATOM     50 OD1  ASN C 304      16.096   4.959  -0.791  0.50 27.48 LIG-0.27  OA
ATOM     51  ND2 ASN C 304      13.968   4.905  -0.107  0.50 32.56 LIG-0.37  N 
ATOM     52 21HD ASN C 304      14.046   4.100   0.187  0.50 32.56 LIG 0.16  HD
ATOM     53 22HD ASN C 304      13.217   5.318  -0.035  0.50 32.56 LIG 0.16  HD
ENDBRANCH 48 49
ENDBRANCH 47 48
BRANCH 47 54
ATOM     54  N   ASN C 304      13.705   5.593  -2.931  0.50 31.56 LIG-0.34  N 
ATOM     55  C   LEU C 303      12.540   5.228  -3.445  0.50 30.83 LIG 0.26  C 
ATOM     56 O    LEU C 303      11.687   6.038  -3.778  0.50 29.02 LIG-0.27  OA
ATOM     57 H    ASN C 304      14.376   5.066  -2.824  0.50 31.56 LIG 0.16  HD
BRANCH 55 58
ATOM     58  CA  LEU C 303      12.323   3.718  -3.604  0.50 30.56 LIG 0.40  C 
ATOM     59  N   LEU C 303      11.911   3.034  -2.348  0.50 30.88 LIG 0.61  N 
BRANCH 58 60
ATOM     60  CB  LEU C 303      11.317   3.420  -4.723  0.50 30.80 LIG 0.06  C 
BRANCH 60 61
ATOM     61  CG  LEU C 303      11.813   3.502  -6.172  0.50 30.92 LIG-0.02  C 
ATOM     62  CD2 LEU C 303      13.175   4.216  -6.245  0.50 31.43 LIG 0.01  C 
ATOM     63  CD1 LEU C 303      10.783   4.161  -7.073  0.50 30.50 LIG 0.01  C 
ENDBRANCH 60 61
ENDBRANCH 58 60
ENDBRANCH 55 58
ENDBRANCH 47 54
ENDBRANCH 45 47
ENDBRANCH 35 43
ENDBRANCH 1 35
TORSDOF 21
ENDMDL
MODEL 16
USER: ADFR SOLUTION from run 51
USER: SCORE 17.580785 LL:  -4.880 LR: -13.857 RR:   0.000 FEB:  -7.592
USER: RMSD 6.546088
USER: SEED 50
USER: STATUS no improvement in best in 28 clusters for 5 generations
USER: GENES 23
USER: genes 0 Translation |==|  0.41371 0.48163 0.27451
USER: genes 1 Rotation |==|  0.74077 0.87716 0.66119 0.65428
USER: genes 2 Torsion [N]-CA--C-[N] |==|  0.28925
USER: genes 3 Torsion [C]-N--CA-[C] |==|  0.64102
USER: genes 4 Torsion [N]-CA--C-[N] |==|  0.42415
USER: genes 5 Torsion [C]-N--CA-[CB] |==|  0.22220
USER: genes 6 Torsion [N]-CA--C-[N] |==|  0.80146
USER: genes 7 Torsion [N]-CA--C-[OXT] |==|  0.31632
USER: genes 8 Torsion [N]-CA--CB-[OG] |==|  0.83987
USER: genes 9 Torsion [CA]-CB--OG-[HG] |==|  0.18433
USER: genes 10 Torsion [N]-CA--CB-[CG2] |==|  0.73067
USER: genes 11 Torsion [CA]-CB--CG1-[CD1] |==|  0.20996
USER: genes 12 Torsion [N]-C--CA-[N] |==|  0.02362
USER: genes 13 Torsion [C]-CA--CB-[CG] |==|  0.90242
USER: genes 14 Torsion [CA]-CB--CG-[CD1] |==|  0.88244
USER: genes 15 Torsion [C]-CA--N-[C] |==|  0.74954
USER: genes 16 Torsion [N]-C--CA-[N] |==|  0.08328
USER: genes 17 Torsion [C]-CA--CB-[CG] |==|  0.53693
USER: genes 18 Torsion [CA]-CB--CG-[OD1] |==|  0.28186
USER: genes 19 Torsion [C]-CA--N-[C] |==|  0.71062
USER: genes 20 Torsion [N]-C--CA-[N] |==|  0.28518
USER: genes 21 Torsion [C]-CA--CB-[CG] |==|  0.07988
USER: genes 22 Torsion [CA]-CB--CG-[CD2] |==|  0.60642
ROOT
ATOM      1  C   PHE C 305      11.192   6.390  -4.840  0.50 34.66 LIG 0.24  C 
ATOM      2 O    PHE C 305      10.102   6.661  -5.337  0.50 33.80 LIG-0.27  OA
ATOM      3  N   PRO C 306      11.971   5.398  -5.314  0.50 35.29 LIG-0.34  N 
ATOM      4  CA  PRO C 306      11.367   4.315  -6.074  0.50 35.79 LIG 0.18  C 
ATOM      5  CB  PRO C 306      12.485   3.909  -7.062  0.50 35.80 LIG 0.04  C 
ATOM      6  CG  PRO C 306      13.721   4.713  -6.646  0.50 35.25 LIG 0.02  C 
ATOM      7  CD  PRO C 306      13.434   5.252  -5.271  0.50 35.51 LIG 0.13  C 
ENDROOT
BRANCH 4 8
ATOM      8  C   PRO C 306      11.057   3.131  -5.156  0.50 36.50 LIG 0.24  C 
ATOM      9  N   ILE C 307       9.766   2.971  -4.821  0.50 37.01 LIG-0.35  N 
ATOM     10 H    ILE C 307       9.132   3.511  -5.034  0.50 37.01 LIG 0.16  HD
ATOM     11 O    PRO C 306      11.976   2.373  -4.773  0.50 36.74 LIG-0.27  OA
BRANCH 9 12
ATOM     12  CA  ILE C 307       9.355   1.807  -4.034  0.50 37.44 LIG 0.18  C 
BRANCH 12 13
ATOM     13  C   ILE C 307       8.174   1.061  -4.659  0.50 38.23 LIG 0.24  C 
ATOM     14  N   SER C 308       8.114  -0.235  -4.366  0.50 38.91 LIG-0.34  N 
ATOM     15 H    SER C 308       8.751  -0.654  -3.968  0.50 38.91 LIG 0.16  HD
ATOM     16 O    ILE C 307       7.346   1.647  -5.371  0.50 38.79 LIG-0.27  OA
BRANCH 14 17
ATOM     17  CA  SER C 308       6.970  -1.084  -4.685  0.50 39.43 LIG 0.20  C 
BRANCH 17 18
ATOM     18  C   SER C 308       7.082  -2.303  -3.766  0.50 39.77 LIG 0.24  C 
ATOM     19  N   PRO C 309       8.061  -3.188  -4.026  0.50 40.03 LIG-0.34  N 
ATOM     20  CD  PRO C 309       9.267  -2.988  -4.846  0.50 39.83 LIG 0.13  C 
ATOM     21  CA  PRO C 309       8.022  -4.522  -3.425  0.50 40.09 LIG 0.19  C 
ATOM     22  CG  PRO C 309       9.744  -4.386  -5.086  0.50 40.19 LIG 0.02  C 
ATOM     23  CB  PRO C 309       9.363  -5.137  -3.847  0.50 40.09 LIG 0.04  C 
ATOM     24 O    SER C 308       6.305  -2.439  -2.817  0.50 39.81 LIG-0.27  OA
BRANCH 21 25
ATOM     25  C   PRO C 309       7.876  -4.499  -1.904  0.50 40.04 LIG 0.20  C 
ATOM     26 OXT  PRO C 309       6.862  -4.927  -1.347  0.50 40.10 LIG-0.65  OA
ATOM     27 O    PRO C 309       8.770  -4.035  -1.193  0.50 40.34 LIG-0.65  OA
ENDBRANCH 21 25
ENDBRANCH 17 18
BRANCH 17 28
ATOM     28  CB  SER C 308       7.002  -1.517  -6.153  0.50 39.49 LIG 0.20  C 
BRANCH 28 29
ATOM     29 OG   SER C 308       7.018  -0.395  -7.024  0.50 39.70 LIG-0.40  OA
ATOM     30 HG   SER C 308       7.741   0.023  -6.930  0.50 39.70 LIG 0.21  HD
ENDBRANCH 28 29
ENDBRANCH 17 28
ENDBRANCH 14 17
ENDBRANCH 12 13
BRANCH 12 31
ATOM     31  CB  ILE C 307       8.963   2.184  -2.584  0.50 37.20 LIG 0.01  C 
ATOM     32  CG2 ILE C 307      10.139   1.956  -1.622  0.50 36.86 LIG 0.01  C 
BRANCH 31 33
ATOM     33  CG1 ILE C 307       8.435   3.630  -2.556  0.50 35.88 LIG 0.00  C 
ATOM     34  CD1 ILE C 307       7.038   3.819  -3.094  0.50 32.01 LIG 0.01  C 
ENDBRANCH 31 33
ENDBRANCH 12 31
ENDBRANCH 9 12
ENDBRANCH 4 8
BRANCH 1 35
ATOM     35  CA  PHE C 305      11.720   7.222  -3.665  0.50 34.47 LIG 0.18  C 
BRANCH 35 36
ATOM     36  CB  PHE C 305      11.573   8.702  -4.049  0.50 34.49 LIG 0.07  C 
BRANCH 36 37
ATOM     37  CG  PHE C 305      11.796   9.011  -5.520  0.50 35.55 LIG-0.06  A 
ATOM     38  CD1 PHE C 305      12.834   8.426  -6.245  0.50 36.28 LIG 0.01  A 
ATOM     39  CE1 PHE C 305      13.017   8.723  -7.598  0.50 36.66 LIG 0.00  A 
ATOM     40  CZ  PHE C 305      12.164   9.627  -8.239  0.50 36.87 LIG 0.00  A 
ATOM     41  CE2 PHE C 305      11.133  10.218  -7.532  0.50 36.76 LIG 0.00  A 
ATOM     42  CD2 PHE C 305      10.957   9.917  -6.173  0.50 36.02 LIG 0.01  A 
ENDBRANCH 36 37
ENDBRANCH 35 36
BRANCH 35 43
ATOM     43  N   PHE C 305      13.119   6.964  -3.306  0.50 33.54 LIG-0.35  N 
ATOM     44 H    PHE C 305      13.693   7.457  -3.717  0.50 33.54 LIG 0.16  HD
ATOM     45  C   ASN C 304      13.434   6.031  -2.408  0.50 33.07 LIG 0.24  C 
ATOM     46 O    ASN C 304      12.663   5.115  -2.099  0.50 33.39 LIG-0.27  OA
BRANCH 45 47
ATOM     47  CA  ASN C 304      14.818   6.153  -1.754  0.50 32.40 LIG 0.18  C 
BRANCH 47 48
ATOM     48  CB  ASN C 304      14.874   5.548  -0.343  0.50 32.38 LIG 0.14  C 
BRANCH 48 49
ATOM     49  CG  ASN C 304      16.149   5.952   0.440  0.50 31.77 LIG 0.22  C 
ATOM     50 OD1  ASN C 304      16.118   6.829   1.296  0.50 27.48 LIG-0.27  OA
ATOM     51  ND2 ASN C 304      17.273   5.333   0.101  0.50 32.56 LIG-0.37  N 
ATOM     52 21HD ASN C 304      18.013   5.544   0.487  0.50 32.56 LIG 0.16  HD
ATOM     53 22HD ASN C 304      17.263   4.722  -0.504  0.50 32.56 LIG 0.16  HD
ENDBRANCH 48 49
ENDBRANCH 47 48
BRANCH 47 54
ATOM     54  N   ASN C 304      15.221   7.536  -1.684  0.50 31.56 LIG-0.34  N 
ATOM     55  C   LEU C 303      16.126   8.019  -2.522  0.50 30.83 LIG 0.26  C 
ATOM     56 O    LEU C 303      16.500   7.403  -3.510  0.50 29.02 LIG-0.27  OA
ATOM     57 H    ASN C 304      14.832   7.996  -1.069  0.50 31.56 LIG 0.16  HD
BRANCH 55 58
ATOM     58  CA  LEU C 303      16.676   9.410  -2.183  0.50 30.56 LIG 0.40  C 
ATOM     59  N   LEU C 303      18.033   9.386  -1.571  0.50 30.88 LIG 0.61  N 
BRANCH 58 60
ATOM     60  CB  LEU C 303      16.669  10.322  -3.416  0.50 30.80 LIG 0.06  C 
BRANCH 60 61
ATOM     61  CG  LEU C 303      15.603  10.065  -4.489  0.50 30.92 LIG-0.02  C 
ATOM     62  CD2 LEU C 303      16.187  10.273  -5.899  0.50 31.43 LIG 0.01  C 
ATOM     63  CD1 LEU C 303      14.370  10.921  -4.260  0.50 30.50 LIG 0.01  C 
ENDBRANCH 60 61
ENDBRANCH 58 60
ENDBRANCH 55 58
ENDBRANCH 47 54
ENDBRANCH 45 47
ENDBRANCH 35 43
ENDBRANCH 1 35
TORSDOF 21
ENDMDL
MODEL 17
USER: ADFR SOLUTION from run 42
USER: SCORE 17.703297 LL:  -5.216 LR: -13.787 RR:   0.000 FEB:  -7.523
USER: RMSD 8.933010
USER: SEED 41
USER: STATUS no improvement in best in 11 clusters for 5 generations
USER: GENES 23
USER: genes 0 Translation |==|  0.29672 0.66386 0.45340
USER: genes 1 Rotation |==|  0.37594 0.23023 0.20795 0.77666
USER: genes 2 Torsion [N]-CA--C-[N] |==|  0.88211
USER: genes 3 Torsion [C]-N--CA-[C] |==|  0.79983
USER: genes 4 Torsion [N]-CA--C-[N] |==|  0.43149
USER: genes 5 Torsion [C]-N--CA-[CB] |==|  0.86111
USER: genes 6 Torsion [N]-CA--C-[N] |==|  0.47949
USER: genes 7 Torsion [N]-CA--C-[OXT] |==|  0.29352
USER: genes 8 Torsion [N]-CA--CB-[OG] |==|  0.85408
USER: genes 9 Torsion [CA]-CB--OG-[HG] |==|  0.86918
USER: genes 10 Torsion [N]-CA--CB-[CG2] |==|  0.76707
USER: genes 11 Torsion [CA]-CB--CG1-[CD1] |==|  0.66329
USER: genes 12 Torsion [N]-C--CA-[N] |==|  0.12144
USER: genes 13 Torsion [C]-CA--CB-[CG] |==|  0.59326
USER: genes 14 Torsion [CA]-CB--CG-[CD1] |==|  0.28827
USER: genes 15 Torsion [C]-CA--N-[C] |==|  0.67283
USER: genes 16 Torsion [N]-C--CA-[N] |==|  0.01252
USER: genes 17 Torsion [C]-CA--CB-[CG] |==|  0.33752
USER: genes 18 Torsion [CA]-CB--CG-[OD1] |==|  0.16261
USER: genes 19 Torsion [C]-CA--N-[C] |==|  0.76041
USER: genes 20 Torsion [N]-C--CA-[N] |==|  0.80038
USER: genes 21 Torsion [C]-CA--CB-[CG] |==|  0.19670
USER: genes 22 Torsion [CA]-CB--CG-[CD2] |==|  0.58097
ROOT
ATOM      1  C   PHE C 305       8.208  10.764  -1.218  0.50 34.66 LIG 0.24  C 
ATOM      2 O    PHE C 305       7.374   9.879  -1.050  0.50 33.80 LIG-0.27  OA
ATOM      3  N   PRO C 306       8.026  11.765  -2.100  0.50 35.29 LIG-0.34  N 
ATOM      4  CA  PRO C 306       7.110  11.578  -3.215  0.50 35.79 LIG 0.18  C 
ATOM      5  CB  PRO C 306       6.555  13.001  -3.461  0.50 35.80 LIG 0.04  C 
ATOM      6  CG  PRO C 306       7.360  13.926  -2.541  0.50 35.25 LIG 0.02  C 
ATOM      7  CD  PRO C 306       8.557  13.137  -2.087  0.50 35.51 LIG 0.13  C 
ENDROOT
BRANCH 4 8
ATOM      8  C   PRO C 306       7.874  11.119  -4.458  0.50 36.50 LIG 0.24  C 
ATOM      9  N   ILE C 307       9.040  11.744  -4.694  0.50 37.01 LIG-0.35  N 
ATOM     10 H    ILE C 307       9.344  12.406  -4.238  0.50 37.01 LIG 0.16  HD
ATOM     11 O    PRO C 306       7.415  10.205  -5.179  0.50 36.74 LIG-0.27  OA
BRANCH 9 12
ATOM     12  CA  ILE C 307       9.893  11.302  -5.798  0.50 37.44 LIG 0.18  C 
BRANCH 12 13
ATOM     13  C   ILE C 307      10.573   9.960  -5.516  0.50 38.23 LIG 0.24  C 
ATOM     14  N   SER C 308      10.920   9.271  -6.600  0.50 38.91 LIG-0.34  N 
ATOM     15 H    SER C 308      10.671   9.491  -7.393  0.50 38.91 LIG 0.16  HD
ATOM     16 O    ILE C 307      10.781   9.574  -4.357  0.50 38.79 LIG-0.27  OA
BRANCH 14 17
ATOM     17  CA  SER C 308      11.754   8.073  -6.564  0.50 39.43 LIG 0.20  C 
BRANCH 17 18
ATOM     18  C   SER C 308      10.897   6.984  -5.915  0.50 39.77 LIG 0.24  C 
ATOM     19  N   PRO C 309      11.389   5.732  -5.904  0.50 40.03 LIG-0.34  N 
ATOM     20  CD  PRO C 309      12.784   5.306  -6.103  0.50 39.83 LIG 0.13  C 
ATOM     21  CA  PRO C 309      10.505   4.599  -5.623  0.50 40.09 LIG 0.19  C 
ATOM     22  CG  PRO C 309      12.651   3.840  -6.373  0.50 40.19 LIG 0.02  C 
ATOM     23  CB  PRO C 309      11.471   3.408  -5.557  0.50 40.09 LIG 0.04  C 
ATOM     24 O    SER C 308       9.806   7.268  -5.412  0.50 39.81 LIG-0.27  OA
BRANCH 21 25
ATOM     25  C   PRO C 309       9.721   4.750  -4.319  0.50 40.04 LIG 0.20  C 
ATOM     26 OXT  PRO C 309       8.517   5.022  -4.319  0.50 40.10 LIG-0.65  OA
ATOM     27 O    PRO C 309      10.280   4.615  -3.229  0.50 40.34 LIG-0.65  OA
ENDBRANCH 21 25
ENDBRANCH 17 18
BRANCH 17 28
ATOM     28  CB  SER C 308      13.024   8.314  -5.745  0.50 39.49 LIG 0.20  C 
BRANCH 28 29
ATOM     29 OG   SER C 308      13.716   9.472  -6.189  0.50 39.70 LIG-0.40  OA
ATOM     30 HG   SER C 308      13.778   9.458  -7.027  0.50 39.70 LIG 0.21  HD
ENDBRANCH 28 29
ENDBRANCH 17 28
ENDBRANCH 14 17
ENDBRANCH 12 13
BRANCH 12 31
ATOM     31  CB  ILE C 307      11.000  12.331  -6.136  0.50 37.20 LIG 0.01  C 
ATOM     32  CG2 ILE C 307      10.464  13.423  -7.074  0.50 36.86 LIG 0.01  C 
BRANCH 31 33
ATOM     33  CG1 ILE C 307      11.590  12.896  -4.831  0.50 35.88 LIG 0.00  C 
ATOM     34  CD1 ILE C 307      11.482  14.392  -4.666  0.50 32.01 LIG 0.01  C 
ENDBRANCH 31 33
ENDBRANCH 12 31
ENDBRANCH 9 12
ENDBRANCH 4 8
BRANCH 1 35
ATOM     35  CA  PHE C 305       9.491  10.770  -0.376  0.50 34.47 LIG 0.18  C 
BRANCH 35 36
ATOM     36  CB  PHE C 305       9.282   9.784   0.784  0.50 34.49 LIG 0.07  C 
BRANCH 36 37
ATOM     37  CG  PHE C 305       9.964  10.168   2.086  0.50 35.55 LIG-0.06  A 
ATOM     38  CD1 PHE C 305       9.252  10.698   3.161  0.50 36.28 LIG 0.01  A 
ATOM     39  CE1 PHE C 305       9.901  11.041   4.351  0.50 36.66 LIG 0.00  A 
ATOM     40  CZ  PHE C 305      11.283  10.866   4.470  0.50 36.87 LIG 0.00  A 
ATOM     41  CE2 PHE C 305      12.004  10.346   3.411  0.50 36.76 LIG 0.00  A 
ATOM     42  CD2 PHE C 305      11.345  10.006   2.219  0.50 36.02 LIG 0.01  A 
ENDBRANCH 36 37
ENDBRANCH 35 36
BRANCH 35 43
ATOM     43  N   PHE C 305       9.859  12.078   0.178  0.50 33.54 LIG-0.35  N 
ATOM     44 H    PHE C 305       9.284  12.413   0.724  0.50 33.54 LIG 0.16  HD
ATOM     45  C   ASN C 304      11.004  12.668  -0.165  0.50 33.07 LIG 0.24  C 
ATOM     46 O    ASN C 304      11.632  12.363  -1.187  0.50 33.39 LIG-0.27  OA
BRANCH 45 47
ATOM     47  CA  ASN C 304      11.524  13.754   0.787  0.50 32.40 LIG 0.18  C 
BRANCH 47 48
ATOM     48  CB  ASN C 304      12.973  13.518   1.238  0.50 32.38 LIG 0.14  C 
BRANCH 48 49
ATOM     49  CG  ASN C 304      13.920  14.690   0.874  0.50 31.77 LIG 0.22  C 
ATOM     50 OD1  ASN C 304      13.710  15.827   1.280  0.50 27.48 LIG-0.27  OA
ATOM     51  ND2 ASN C 304      14.936  14.402   0.070  0.50 32.56 LIG-0.37  N 
ATOM     52 21HD ASN C 304      15.473  15.025  -0.184  0.50 32.56 LIG 0.16  HD
ATOM     53 22HD ASN C 304      15.058  13.594  -0.197  0.50 32.56 LIG 0.16  HD
ENDBRANCH 48 49
ENDBRANCH 47 48
BRANCH 47 54
ATOM     54  N   ASN C 304      10.682  13.844   1.955  0.50 31.56 LIG-0.34  N 
ATOM     55  C   LEU C 303       9.596  14.603   1.948  0.50 30.83 LIG 0.26  C 
ATOM     56 O    LEU C 303       9.139  15.084   0.921  0.50 29.02 LIG-0.27  OA
ATOM     57 H    ASN C 304      10.944  13.376   2.627  0.50 31.56 LIG 0.16  HD
BRANCH 55 58
ATOM     58  CA  LEU C 303       8.938  14.841   3.313  0.50 30.56 LIG 0.40  C 
ATOM     59  N   LEU C 303       8.243  13.644   3.861  0.50 30.88 LIG 0.61  N 
BRANCH 58 60
ATOM     60  CB  LEU C 303       9.954  15.374   4.330  0.50 30.80 LIG 0.06  C 
BRANCH 60 61
ATOM     61  CG  LEU C 303      10.464  16.809   4.148  0.50 30.92 LIG-0.02  C 
ATOM     62  CD2 LEU C 303      11.892  16.957   4.704  0.50 31.43 LIG 0.01  C 
ATOM     63  CD1 LEU C 303       9.512  17.818   4.767  0.50 30.50 LIG 0.01  C 
ENDBRANCH 60 61
ENDBRANCH 58 60
ENDBRANCH 55 58
ENDBRANCH 47 54
ENDBRANCH 45 47
ENDBRANCH 35 43
ENDBRANCH 1 35
TORSDOF 21
ENDMDL
MODEL 18
USER: ADFR SOLUTION from run 179
USER: SCORE 17.962750 LL:  -5.530 LR: -13.770 RR:   0.000 FEB:  -7.506
USER: RMSD 10.976655
USER: SEED 178
USER: STATUS no improvement in best in 13 clusters for 5 generations
USER: GENES 23
USER: genes 0 Translation |==|  0.47288 0.56983 0.18787
USER: genes 1 Rotation |==|  0.81676 0.38062 0.26135 0.78010
USER: genes 2 Torsion [N]-CA--C-[N] |==|  0.50993
USER: genes 3 Torsion [C]-N--CA-[C] |==|  0.74791
USER: genes 4 Torsion [N]-CA--C-[N] |==|  0.10033
USER: genes 5 Torsion [C]-N--CA-[CB] |==|  0.15072
USER: genes 6 Torsion [N]-CA--C-[N] |==|  0.16667
USER: genes 7 Torsion [N]-CA--C-[OXT] |==|  0.22325
USER: genes 8 Torsion [N]-CA--CB-[OG] |==|  0.73591
USER: genes 9 Torsion [CA]-CB--OG-[HG] |==|  0.14125
USER: genes 10 Torsion [N]-CA--CB-[CG2] |==|  0.21692
USER: genes 11 Torsion [CA]-CB--CG1-[CD1] |==|  0.40227
USER: genes 12 Torsion [N]-C--CA-[N] |==|  0.24035
USER: genes 13 Torsion [C]-CA--CB-[CG] |==|  0.27450
USER: genes 14 Torsion [CA]-CB--CG-[CD1] |==|  0.80253
USER: genes 15 Torsion [C]-CA--N-[C] |==|  0.67035
USER: genes 16 Torsion [N]-C--CA-[N] |==|  0.42522
USER: genes 17 Torsion [C]-CA--CB-[CG] |==|  0.25634
USER: genes 18 Torsion [CA]-CB--CG-[OD1] |==|  0.07025
USER: genes 19 Torsion [C]-CA--N-[C] |==|  0.75759
USER: genes 20 Torsion [N]-C--CA-[N] |==|  0.72237
USER: genes 21 Torsion [C]-CA--CB-[CG] |==|  0.17133
USER: genes 22 Torsion [CA]-CB--CG-[CD2] |==|  0.65346
ROOT
ATOM      1  C   PHE C 305      12.700   8.507  -6.595  0.50 34.66 LIG 0.24  C 
ATOM      2 O    PHE C 305      13.232   8.382  -7.694  0.50 33.80 LIG-0.27  OA
ATOM      3  N   PRO C 306      11.542   9.175  -6.429  0.50 35.29 LIG-0.34  N 
ATOM      4  CA  PRO C 306      11.145  10.173  -7.410  0.50 35.79 LIG 0.18  C 
ATOM      5  CB  PRO C 306       9.601  10.098  -7.387  0.50 35.80 LIG 0.04  C 
ATOM      6  CG  PRO C 306       9.247   9.151  -6.235  0.50 35.25 LIG 0.02  C 
ATOM      7  CD  PRO C 306      10.495   9.001  -5.410  0.50 35.51 LIG 0.13  C 
ENDROOT
BRANCH 4 8
ATOM      8  C   PRO C 306      11.584  11.567  -6.956  0.50 36.50 LIG 0.24  C 
ATOM      9  N   ILE C 307      11.208  12.586  -7.747  0.50 37.01 LIG-0.35  N 
ATOM     10 H    ILE C 307      10.801  12.501  -8.499  0.50 37.01 LIG 0.16  HD
ATOM     11 O    PRO C 306      12.242  11.709  -5.901  0.50 36.74 LIG-0.27  OA
BRANCH 9 12
ATOM     12  CA  ILE C 307      11.489  13.964  -7.342  0.50 37.44 LIG 0.18  C 
BRANCH 12 13
ATOM     13  C   ILE C 307      10.350  14.583  -6.528  0.50 38.23 LIG 0.24  C 
ATOM     14  N   SER C 308       9.729  13.741  -5.707  0.50 38.91 LIG-0.34  N 
ATOM     15 H    SER C 308       9.862  12.891  -5.720  0.50 38.91 LIG 0.16  HD
ATOM     16 O    ILE C 307      10.056  15.782  -6.637  0.50 38.79 LIG-0.27  OA
BRANCH 14 17
ATOM     17  CA  SER C 308       8.759  14.160  -4.699  0.50 39.43 LIG 0.20  C 
BRANCH 17 18
ATOM     18  C   SER C 308       8.197  12.871  -4.095  0.50 39.77 LIG 0.24  C 
ATOM     19  N   PRO C 309       9.065  12.036  -3.497  0.50 40.03 LIG-0.34  N 
ATOM     20  CD  PRO C 309      10.425  12.336  -3.019  0.50 39.83 LIG 0.13  C 
ATOM     21  CA  PRO C 309       8.675  10.655  -3.210  0.50 40.09 LIG 0.19  C 
ATOM     22  CG  PRO C 309      11.019  10.975  -2.826  0.50 40.19 LIG 0.02  C 
ATOM     23  CB  PRO C 309       9.867  10.112  -2.410  0.50 40.09 LIG 0.04  C 
ATOM     24 O    SER C 308       6.986  12.634  -4.152  0.50 39.81 LIG-0.27  OA
BRANCH 21 25
ATOM     25  C   PRO C 309       7.376  10.544  -2.413  0.50 40.04 LIG 0.20  C 
ATOM     26 OXT  PRO C 309       6.274  10.642  -2.960  0.50 40.10 LIG-0.65  OA
ATOM     27 O    PRO C 309       7.398  10.366  -1.193  0.50 40.34 LIG-0.65  OA
ENDBRANCH 21 25
ENDBRANCH 17 18
BRANCH 17 28
ATOM     28  CB  SER C 308       7.638  14.989  -5.330  0.50 39.49 LIG 0.20  C 
BRANCH 28 29
ATOM     29 OG   SER C 308       7.902  16.381  -5.229  0.50 39.70 LIG-0.40  OA
ATOM     30 HG   SER C 308       8.675  16.542  -5.513  0.50 39.70 LIG 0.21  HD
ENDBRANCH 28 29
ENDBRANCH 17 28
ENDBRANCH 14 17
ENDBRANCH 12 13
BRANCH 12 31
ATOM     31  CB  ILE C 307      11.762  14.890  -8.553  0.50 37.20 LIG 0.01  C 
ATOM     32  CG2 ILE C 307      10.449  15.291  -9.242  0.50 36.86 LIG 0.01  C 
BRANCH 31 33
ATOM     33  CG1 ILE C 307      12.594  16.101  -8.095  0.50 35.88 LIG 0.00  C 
ATOM     34  CD1 ILE C 307      13.600  16.611  -9.097  0.50 32.01 LIG 0.01  C 
ENDBRANCH 31 33
ENDBRANCH 12 31
ENDBRANCH 9 12
ENDBRANCH 4 8
BRANCH 1 35
ATOM     35  CA  PHE C 305      13.339   7.855  -5.362  0.50 34.47 LIG 0.18  C 
BRANCH 35 36
ATOM     36  CB  PHE C 305      14.854   7.795  -5.608  0.50 34.49 LIG 0.07  C 
BRANCH 36 37
ATOM     37  CG  PHE C 305      15.658   8.904  -4.949  0.50 35.55 LIG-0.06  A 
ATOM     38  CD1 PHE C 305      15.600  10.222  -5.399  0.50 36.28 LIG 0.01  A 
ATOM     39  CE1 PHE C 305      16.346  11.226  -4.773  0.50 36.66 LIG 0.00  A 
ATOM     40  CZ  PHE C 305      17.174  10.912  -3.691  0.50 36.87 LIG 0.00  A 
ATOM     41  CE2 PHE C 305      17.245   9.608  -3.236  0.50 36.76 LIG 0.00  A 
ATOM     42  CD2 PHE C 305      16.495   8.606  -3.871  0.50 36.02 LIG 0.01  A 
ENDBRANCH 36 37
ENDBRANCH 35 36
BRANCH 35 43
ATOM     43  N   PHE C 305      12.856   6.503  -5.059  0.50 33.54 LIG-0.35  N 
ATOM     44 H    PHE C 305      13.002   5.922  -5.677  0.50 33.54 LIG 0.16  HD
ATOM     45  C   ASN C 304      12.244   6.237  -3.905  0.50 33.07 LIG 0.24  C 
ATOM     46 O    ASN C 304      11.735   7.118  -3.202  0.50 33.39 LIG-0.27  OA
BRANCH 45 47
ATOM     47  CA  ASN C 304      12.209   4.764  -3.475  0.50 32.40 LIG 0.18  C 
BRANCH 47 48
ATOM     48  CB  ASN C 304      11.043   3.981  -4.097  0.50 32.38 LIG 0.14  C 
BRANCH 48 49
ATOM     49  CG  ASN C 304      11.423   3.281  -5.426  0.50 31.77 LIG 0.22  C 
ATOM     50 OD1  ASN C 304      12.583   2.971  -5.672  0.50 27.48 LIG-0.27  OA
ATOM     51  ND2 ASN C 304      10.438   3.080  -6.293  0.50 32.56 LIG-0.37  N 
ATOM     52 21HD ASN C 304      10.604   2.721  -7.057  0.50 32.56 LIG 0.16  HD
ATOM     53 22HD ASN C 304       9.634   3.308  -6.091  0.50 32.56 LIG 0.16  HD
ENDBRANCH 48 49
ENDBRANCH 47 48
BRANCH 47 54
ATOM     54  N   ASN C 304      12.123   4.662  -2.038  0.50 31.56 LIG-0.34  N 
ATOM     55  C   LEU C 303      13.219   4.661  -1.294  0.50 30.83 LIG 0.26  C 
ATOM     56 O    LEU C 303      14.317   4.955  -1.745  0.50 29.02 LIG-0.27  OA
ATOM     57 H    ASN C 304      11.323   4.604  -1.726  0.50 31.56 LIG 0.16  HD
BRANCH 55 58
ATOM     58  CA  LEU C 303      13.028   4.272   0.177  0.50 30.56 LIG 0.40  C 
ATOM     59  N   LEU C 303      12.974   5.436   1.103  0.50 30.88 LIG 0.61  N 
BRANCH 58 60
ATOM     60  CB  LEU C 303      11.785   3.393   0.358  0.50 30.80 LIG 0.06  C 
BRANCH 60 61
ATOM     61  CG  LEU C 303      11.754   2.039  -0.361  0.50 30.92 LIG-0.02  C 
ATOM     62  CD2 LEU C 303      10.500   1.918  -1.247  0.50 31.43 LIG 0.01  C 
ATOM     63  CD1 LEU C 303      11.860   0.886   0.622  0.50 30.50 LIG 0.01  C 
ENDBRANCH 60 61
ENDBRANCH 58 60
ENDBRANCH 55 58
ENDBRANCH 47 54
ENDBRANCH 45 47
ENDBRANCH 35 43
ENDBRANCH 1 35
TORSDOF 21
ENDMDL
MODEL 19
USER: ADFR SOLUTION from run 6
USER: SCORE 17.683803 LL:  -6.221 LR: -13.769 RR:   0.000 FEB:  -7.504
USER: RMSD 9.805143
USER: SEED 203933
USER: STATUS no improvement in best in 14 clusters for 5 generations
USER: GENES 23
USER: genes 0 Translation |==|  0.56250 0.63792 0.78385
USER: genes 1 Rotation |==|  0.19640 0.53829 0.33208 0.85800
USER: genes 2 Torsion [N]-CA--C-[N] |==|  0.55006
USER: genes 3 Torsion [C]-N--CA-[C] |==|  0.79781
USER: genes 4 Torsion [N]-CA--C-[N] |==|  0.89414
USER: genes 5 Torsion [C]-N--CA-[CB] |==|  0.43647
USER: genes 6 Torsion [N]-CA--C-[N] |==|  0.29057
USER: genes 7 Torsion [N]-CA--C-[OXT] |==|  0.38962
USER: genes 8 Torsion [N]-CA--CB-[OG] |==|  0.37543
USER: genes 9 Torsion [CA]-CB--OG-[HG] |==|  0.15531
USER: genes 10 Torsion [N]-CA--CB-[CG2] |==|  0.07743
USER: genes 11 Torsion [CA]-CB--CG1-[CD1] |==|  0.31133
USER: genes 12 Torsion [N]-C--CA-[N] |==|  0.20264
USER: genes 13 Torsion [C]-CA--CB-[CG] |==|  0.43163
USER: genes 14 Torsion [CA]-CB--CG-[CD1] |==|  0.21190
USER: genes 15 Torsion [C]-CA--N-[C] |==|  0.14024
USER: genes 16 Torsion [N]-C--CA-[N] |==|  0.94116
USER: genes 17 Torsion [C]-CA--CB-[CG] |==|  0.59322
USER: genes 18 Torsion [CA]-CB--CG-[OD1] |==|  0.28228
USER: genes 19 Torsion [C]-CA--N-[C] |==|  0.75841
USER: genes 20 Torsion [N]-C--CA-[N] |==|  0.43505
USER: genes 21 Torsion [C]-CA--CB-[CG] |==|  0.91220
USER: genes 22 Torsion [CA]-CB--CG-[CD2] |==|  0.68465
ROOT
ATOM      1  C   PHE C 305      14.986  10.141   5.474  0.50 34.66 LIG 0.24  C 
ATOM      2 O    PHE C 305      14.927   9.300   6.365  0.50 33.80 LIG-0.27  OA
ATOM      3  N   PRO C 306      14.389  11.344   5.581  0.50 35.29 LIG-0.34  N 
ATOM      4  CA  PRO C 306      13.269  11.508   6.495  0.50 35.79 LIG 0.18  C 
ATOM      5  CB  PRO C 306      13.397  12.979   6.954  0.50 35.80 LIG 0.04  C 
ATOM      6  CG  PRO C 306      14.517  13.585   6.100  0.50 35.25 LIG 0.02  C 
ATOM      7  CD  PRO C 306      14.748  12.629   4.962  0.50 35.51 LIG 0.13  C 
ENDROOT
BRANCH 4 8
ATOM      8  C   PRO C 306      11.945  11.331   5.749  0.50 36.50 LIG 0.24  C 
ATOM      9  N   ILE C 307      10.855  11.817   6.366  0.50 37.01 LIG-0.35  N 
ATOM     10 H    ILE C 307      10.847  12.156   7.156  0.50 37.01 LIG 0.16  HD
ATOM     11 O    PRO C 306      11.922  10.774   4.629  0.50 36.74 LIG-0.27  OA
BRANCH 9 12
ATOM     12  CA  ILE C 307       9.559  11.790   5.685  0.50 37.44 LIG 0.18  C 
BRANCH 12 13
ATOM     13  C   ILE C 307       9.466  12.821   4.558  0.50 38.23 LIG 0.24  C 
ATOM     14  N   SER C 308      10.054  13.985   4.815  0.50 38.91 LIG-0.34  N 
ATOM     15 H    SER C 308      10.351  14.197   5.594  0.50 38.91 LIG 0.16  HD
ATOM     16 O    ILE C 307       8.888  12.560   3.493  0.50 38.79 LIG-0.27  OA
BRANCH 14 17
ATOM     17  CA  SER C 308      10.260  15.027   3.812  0.50 39.43 LIG 0.20  C 
BRANCH 17 18
ATOM     18  C   SER C 308      11.537  14.641   3.062  0.50 39.77 LIG 0.24  C 
ATOM     19  N   PRO C 309      11.398  14.124   1.828  0.50 40.03 LIG-0.34  N 
ATOM     20  CD  PRO C 309      10.226  14.199   0.942  0.50 39.83 LIG 0.13  C 
ATOM     21  CA  PRO C 309      12.518  13.423   1.197  0.50 40.09 LIG 0.19  C 
ATOM     22  CG  PRO C 309      10.509  13.142  -0.079  0.50 40.19 LIG 0.02  C 
ATOM     23  CB  PRO C 309      12.001  13.138  -0.219  0.50 40.09 LIG 0.04  C 
ATOM     24 O    SER C 308      12.642  14.821   3.582  0.50 39.81 LIG-0.27  OA
BRANCH 21 25
ATOM     25  C   PRO C 309      13.807  14.245   1.162  0.50 40.04 LIG 0.20  C 
ATOM     26 OXT  PRO C 309      14.907  13.728   1.373  0.50 40.10 LIG-0.65  OA
ATOM     27 O    PRO C 309      13.775  15.456   0.934  0.50 40.34 LIG-0.65  OA
ENDBRANCH 21 25
ENDBRANCH 17 18
BRANCH 17 28
ATOM     28  CB  SER C 308      10.421  16.398   4.473  0.50 39.49 LIG 0.20  C 
BRANCH 28 29
ATOM     29 OG   SER C 308      11.500  17.125   3.904  0.50 39.70 LIG-0.40  OA
ATOM     30 HG   SER C 308      11.388  17.191   3.074  0.50 39.70 LIG 0.21  HD
ENDBRANCH 28 29
ENDBRANCH 17 28
ENDBRANCH 14 17
ENDBRANCH 12 13
BRANCH 12 31
ATOM     31  CB  ILE C 307       8.379  12.041   6.655  0.50 37.20 LIG 0.01  C 
ATOM     32  CG2 ILE C 307       8.824  12.899   7.849  0.50 36.86 LIG 0.01  C 
BRANCH 31 33
ATOM     33  CG1 ILE C 307       7.200  12.656   5.880  0.50 35.88 LIG 0.00  C 
ATOM     34  CD1 ILE C 307       5.984  11.773   5.743  0.50 32.01 LIG 0.01  C 
ENDBRANCH 31 33
ENDBRANCH 12 31
ENDBRANCH 9 12
ENDBRANCH 4 8
BRANCH 1 35
ATOM     35  CA  PHE C 305      15.794   9.849   4.203  0.50 34.47 LIG 0.18  C 
BRANCH 35 36
ATOM     36  CB  PHE C 305      16.059   8.336   4.167  0.50 34.49 LIG 0.07  C 
BRANCH 36 37
ATOM     37  CG  PHE C 305      16.306   7.758   2.783  0.50 35.55 LIG-0.06  A 
ATOM     38  CD1 PHE C 305      17.521   7.929   2.121  0.50 36.28 LIG 0.01  A 
ATOM     39  CE1 PHE C 305      17.725   7.385   0.849  0.50 36.66 LIG 0.00  A 
ATOM     40  CZ  PHE C 305      16.702   6.671   0.219  0.50 36.87 LIG 0.00  A 
ATOM     41  CE2 PHE C 305      15.489   6.498   0.862  0.50 36.76 LIG 0.00  A 
ATOM     42  CD2 PHE C 305      15.291   7.049   2.137  0.50 36.02 LIG 0.01  A 
ENDBRANCH 36 37
ENDBRANCH 35 36
BRANCH 35 43
ATOM     43  N   PHE C 305      17.076  10.555   4.111  0.50 33.54 LIG-0.35  N 
ATOM     44 H    PHE C 305      17.205  10.973   3.370  0.50 33.54 LIG 0.16  HD
ATOM     45  C   ASN C 304      17.947  10.527   5.121  0.50 33.07 LIG 0.24  C 
ATOM     46 O    ASN C 304      17.914   9.663   6.005  0.50 33.39 LIG-0.27  OA
BRANCH 45 47
ATOM     47  CA  ASN C 304      19.002  11.642   5.143  0.50 32.40 LIG 0.18  C 
BRANCH 47 48
ATOM     48  CB  ASN C 304      18.670  12.768   6.133  0.50 32.38 LIG 0.14  C 
BRANCH 48 49
ATOM     49  CG  ASN C 304      19.144  14.162   5.648  0.50 31.77 LIG 0.22  C 
ATOM     50 OD1  ASN C 304      18.359  14.965   5.158  0.50 27.48 LIG-0.27  OA
ATOM     51  ND2 ASN C 304      20.443  14.414   5.752  0.50 32.56 LIG-0.37  N 
ATOM     52 21HD ASN C 304      20.760  15.163   5.469  0.50 32.56 LIG 0.16  HD
ATOM     53 22HD ASN C 304      20.969  13.829   6.101  0.50 32.56 LIG 0.16  HD
ENDBRANCH 48 49
ENDBRANCH 47 48
BRANCH 47 54
ATOM     54  N   ASN C 304      19.159  12.211   3.827  0.50 31.56 LIG-0.34  N 
ATOM     55  C   LEU C 303      20.002  11.676   2.956  0.50 30.83 LIG 0.26  C 
ATOM     56 O    LEU C 303      20.517  10.581   3.130  0.50 29.02 LIG-0.27  OA
ATOM     57 H    ASN C 304      18.672  12.903   3.670  0.50 31.56 LIG 0.16  HD
BRANCH 55 58
ATOM     58  CA  LEU C 303      20.293  12.515   1.705  0.50 30.56 LIG 0.40  C 
ATOM     59  N   LEU C 303      21.589  12.188   1.051  0.50 30.88 LIG 0.61  N 
BRANCH 58 60
ATOM     60  CB  LEU C 303      19.147  12.407   0.691  0.50 30.80 LIG 0.06  C 
BRANCH 60 61
ATOM     61  CG  LEU C 303      18.364  11.089   0.632  0.50 30.92 LIG-0.02  C 
ATOM     62  CD2 LEU C 303      18.598  10.373  -0.711  0.50 31.43 LIG 0.01  C 
ATOM     63  CD1 LEU C 303      16.886  11.311   0.901  0.50 30.50 LIG 0.01  C 
ENDBRANCH 60 61
ENDBRANCH 58 60
ENDBRANCH 55 58
ENDBRANCH 47 54
ENDBRANCH 45 47
ENDBRANCH 35 43
ENDBRANCH 1 35
TORSDOF 21
ENDMDL
MODEL 20
USER: ADFR SOLUTION from run 67
USER: SCORE 17.282961 LL:  -5.024 LR: -13.770 RR:   0.000 FEB:  -7.506
USER: RMSD 7.438796
USER: SEED 66
USER: STATUS no improvement in best in 17 clusters for 5 generations
USER: GENES 23
USER: genes 0 Translation |==|  0.38421 0.46801 0.29780
USER: genes 1 Rotation |==|  0.70613 0.87843 0.67240 0.68594
USER: genes 2 Torsion [N]-CA--C-[N] |==|  0.26337
USER: genes 3 Torsion [C]-N--CA-[C] |==|  0.67791
USER: genes 4 Torsion [N]-CA--C-[N] |==|  0.07027
USER: genes 5 Torsion [C]-N--CA-[CB] |==|  0.85474
USER: genes 6 Torsion [N]-CA--C-[N] |==|  0.07954
USER: genes 7 Torsion [N]-CA--C-[OXT] |==|  0.87410
USER: genes 8 Torsion [N]-CA--CB-[OG] |==|  0.82582
USER: genes 9 Torsion [CA]-CB--OG-[HG] |==|  0.87459
USER: genes 10 Torsion [N]-CA--CB-[CG2] |==|  0.77418
USER: genes 11 Torsion [CA]-CB--CG1-[CD1] |==|  0.73111
USER: genes 12 Torsion [N]-C--CA-[N] |==|  0.99713
USER: genes 13 Torsion [C]-CA--CB-[CG] |==|  0.31022
USER: genes 14 Torsion [CA]-CB--CG-[CD1] |==|  0.11790
USER: genes 15 Torsion [C]-CA--N-[C] |==|  0.74339
USER: genes 16 Torsion [N]-C--CA-[N] |==|  0.42523
USER: genes 17 Torsion [C]-CA--CB-[CG] |==|  0.50708
USER: genes 18 Torsion [CA]-CB--CG-[OD1] |==|  0.02202
USER: genes 19 Torsion [C]-CA--N-[C] |==|  0.76321
USER: genes 20 Torsion [N]-C--CA-[N] |==|  0.35878
USER: genes 21 Torsion [C]-CA--CB-[CG] |==|  0.11504
USER: genes 22 Torsion [CA]-CB--CG-[CD2] |==|  0.70782
ROOT
ATOM      1  C   PHE C 305      10.439   6.063  -4.369  0.50 34.66 LIG 0.24  C 
ATOM      2 O    PHE C 305       9.428   6.207  -5.049  0.50 33.80 LIG-0.27  OA
ATOM      3  N   PRO C 306      11.356   5.113  -4.636  0.50 35.29 LIG-0.34  N 
ATOM      4  CA  PRO C 306      10.965   3.936  -5.395  0.50 35.79 LIG 0.18  C 
ATOM      5  CB  PRO C 306      12.256   3.562  -6.161  0.50 35.80 LIG 0.04  C 
ATOM      6  CG  PRO C 306      13.345   4.495  -5.620  0.50 35.25 LIG 0.02  C 
ATOM      7  CD  PRO C 306      12.800   5.095  -4.354  0.50 35.51 LIG 0.13  C 
ENDROOT
BRANCH 4 8
ATOM      8  C   PRO C 306      10.599   2.791  -4.448  0.50 36.50 LIG 0.24  C 
ATOM      9  N   ILE C 307       9.293   2.667  -4.155  0.50 37.01 LIG-0.35  N 
ATOM     10 H    ILE C 307       8.678   3.211  -4.411  0.50 37.01 LIG 0.16  HD
ATOM     11 O    PRO C 306      11.488   2.031  -4.004  0.50 36.74 LIG-0.27  OA
BRANCH 9 12
ATOM     12  CA  ILE C 307       8.832   1.541  -3.343  0.50 37.44 LIG 0.18  C 
BRANCH 12 13
ATOM     13  C   ILE C 307       7.894   0.606  -4.112  0.50 38.23 LIG 0.24  C 
ATOM     14  N   SER C 308       8.052   0.619  -5.433  0.50 38.91 LIG-0.34  N 
ATOM     15 H    SER C 308       8.545   1.195  -5.839  0.50 38.91 LIG 0.16  HD
ATOM     16 O    ILE C 307       7.068  -0.105  -3.523  0.50 38.79 LIG-0.27  OA
BRANCH 14 17
ATOM     17  CA  SER C 308       7.410  -0.334  -6.334  0.50 39.43 LIG 0.20  C 
BRANCH 17 18
ATOM     18  C   SER C 308       5.912  -0.025  -6.274  0.50 39.77 LIG 0.24  C 
ATOM     19  N   PRO C 309       5.551   1.241  -5.998  0.50 40.03 LIG-0.34  N 
ATOM     20  CD  PRO C 309       6.373   2.458  -6.094  0.50 39.83 LIG 0.13  C 
ATOM     21  CA  PRO C 309       4.177   1.538  -5.588  0.50 40.09 LIG 0.19  C 
ATOM     22  CG  PRO C 309       5.585   3.456  -5.305  0.50 40.19 LIG 0.02  C 
ATOM     23  CB  PRO C 309       4.154   3.071  -5.524  0.50 40.09 LIG 0.04  C 
ATOM     24 O    SER C 308       5.085  -0.916  -6.490  0.50 39.81 LIG-0.27  OA
BRANCH 21 25
ATOM     25  C   PRO C 309       3.125   1.007  -6.561  0.50 40.04 LIG 0.20  C 
ATOM     26 OXT  PRO C 309       3.243   1.153  -7.781  0.50 40.10 LIG-0.65  OA
ATOM     27 O    PRO C 309       2.119   0.427  -6.147  0.50 40.34 LIG-0.65  OA
ENDBRANCH 21 25
ENDBRANCH 17 18
BRANCH 17 28
ATOM     28  CB  SER C 308       7.679  -1.774  -5.889  0.50 39.49 LIG 0.20  C 
BRANCH 28 29
ATOM     29 OG   SER C 308       9.065  -2.081  -5.934  0.50 39.70 LIG-0.40  OA
ATOM     30 HG   SER C 308       9.391  -1.799  -6.655  0.50 39.70 LIG 0.21  HD
ENDBRANCH 28 29
ENDBRANCH 17 28
ENDBRANCH 14 17
ENDBRANCH 12 13
BRANCH 12 31
ATOM     31  CB  ILE C 307       8.095   2.000  -2.062  0.50 37.20 LIG 0.01  C 
ATOM     32  CG2 ILE C 307       9.096   2.375  -0.959  0.50 36.86 LIG 0.01  C 
BRANCH 31 33
ATOM     33  CG1 ILE C 307       7.128   3.146  -2.410  0.50 35.88 LIG 0.00  C 
ATOM     34  CD1 ILE C 307       7.655   4.537  -2.161  0.50 32.01 LIG 0.01  C 
ENDBRANCH 31 33
ENDBRANCH 12 31
ENDBRANCH 9 12
ENDBRANCH 4 8
BRANCH 1 35
ATOM     35  CA  PHE C 305      10.707   7.012  -3.193  0.50 34.47 LIG 0.18  C 
BRANCH 35 36
ATOM     36  CB  PHE C 305      10.754   8.440  -3.758  0.50 34.49 LIG 0.07  C 
BRANCH 36 37
ATOM     37  CG  PHE C 305       9.602   9.337  -3.336  0.50 35.55 LIG-0.06  A 
ATOM     38  CD1 PHE C 305       9.125   9.354  -2.026  0.50 36.28 LIG 0.01  A 
ATOM     39  CE1 PHE C 305       8.066  10.191  -1.661  0.50 36.66 LIG 0.00  A 
ATOM     40  CZ  PHE C 305       7.462  11.014  -2.616  0.50 36.87 LIG 0.00  A 
ATOM     41  CE2 PHE C 305       7.921  11.005  -3.921  0.50 36.76 LIG 0.00  A 
ATOM     42  CD2 PHE C 305       8.983  10.160  -4.279  0.50 36.02 LIG 0.01  A 
ENDBRANCH 36 37
ENDBRANCH 35 36
BRANCH 35 43
ATOM     43  N   PHE C 305      11.953   6.752  -2.462  0.50 33.54 LIG-0.35  N 
ATOM     44 H    PHE C 305      12.646   7.149  -2.780  0.50 33.54 LIG 0.16  HD
ATOM     45  C   ASN C 304      11.965   5.957  -1.392  0.50 33.07 LIG 0.24  C 
ATOM     46 O    ASN C 304      11.070   5.135  -1.162  0.50 33.39 LIG-0.27  OA
BRANCH 45 47
ATOM     47  CA  ASN C 304      13.154   6.119  -0.436  0.50 32.40 LIG 0.18  C 
BRANCH 47 48
ATOM     48  CB  ASN C 304      14.387   5.307  -0.863  0.50 32.38 LIG 0.14  C 
BRANCH 48 49
ATOM     49  CG  ASN C 304      15.565   5.422   0.137  0.50 31.77 LIG 0.22  C 
ATOM     50 OD1  ASN C 304      15.429   5.983   1.218  0.50 27.48 LIG-0.27  OA
ATOM     51  ND2 ASN C 304      16.730   4.923  -0.260  0.50 32.56 LIG-0.37  N 
ATOM     52 21HD ASN C 304      17.421   4.989   0.248  0.50 32.56 LIG 0.16  HD
ATOM     53 22HD ASN C 304      16.793   4.535  -1.024  0.50 32.56 LIG 0.16  HD
ENDBRANCH 48 49
ENDBRANCH 47 48
BRANCH 47 54
ATOM     54  N   ASN C 304      12.781   5.728   0.902  0.50 31.56 LIG-0.34  N 
ATOM     55  C   LEU C 303      12.197   6.591   1.719  0.50 30.83 LIG 0.26  C 
ATOM     56 O    LEU C 303      11.756   7.664   1.334  0.50 29.02 LIG-0.27  OA
ATOM     57 H    ASN C 304      12.968   4.913   1.107  0.50 31.56 LIG 0.16  HD
BRANCH 55 58
ATOM     58  CA  LEU C 303      12.098   6.159   3.188  0.50 30.56 LIG 0.40  C 
ATOM     59  N   LEU C 303      12.600   7.180   4.149  0.50 30.88 LIG 0.61  N 
BRANCH 58 60
ATOM     60  CB  LEU C 303      10.663   5.754   3.548  0.50 30.80 LIG 0.06  C 
BRANCH 60 61
ATOM     61  CG  LEU C 303       9.877   4.922   2.528  0.50 30.92 LIG-0.02  C 
ATOM     62  CD2 LEU C 303       8.823   5.787   1.812  0.50 31.43 LIG 0.01  C 
ATOM     63  CD1 LEU C 303       9.253   3.698   3.176  0.50 30.50 LIG 0.01  C 
ENDBRANCH 60 61
ENDBRANCH 58 60
ENDBRANCH 55 58
ENDBRANCH 47 54
ENDBRANCH 45 47
ENDBRANCH 35 43
ENDBRANCH 1 35
TORSDOF 21
ENDMDL
MODEL 21
USER: ADFR SOLUTION from run 71
USER: SCORE 18.885111 LL:  -6.153 LR: -13.739 RR:   0.000 FEB:  -7.475
USER: RMSD 6.082401
USER: SEED 70
USER: STATUS no improvement in best in 17 clusters for 5 generations
USER: GENES 23
USER: genes 0 Translation |==|  0.60926 0.52508 0.47255
USER: genes 1 Rotation |==|  0.40566 0.24878 0.42852 0.91579
USER: genes 2 Torsion [N]-CA--C-[N] |==|  0.62485
USER: genes 3 Torsion [C]-N--CA-[C] |==|  0.78333
USER: genes 4 Torsion [N]-CA--C-[N] |==|  0.88711
USER: genes 5 Torsion [C]-N--CA-[CB] |==|  0.22538
USER: genes 6 Torsion [N]-CA--C-[N] |==|  0.80503
USER: genes 7 Torsion [N]-CA--C-[OXT] |==|  0.82865
USER: genes 8 Torsion [N]-CA--CB-[OG] |==|  0.45385
USER: genes 9 Torsion [CA]-CB--OG-[HG] |==|  0.43075
USER: genes 10 Torsion [N]-CA--CB-[CG2] |==|  0.83567
USER: genes 11 Torsion [CA]-CB--CG1-[CD1] |==|  0.60792
USER: genes 12 Torsion [N]-C--CA-[N] |==|  0.42801
USER: genes 13 Torsion [C]-CA--CB-[CG] |==|  0.27267
USER: genes 14 Torsion [CA]-CB--CG-[CD1] |==|  0.22056
USER: genes 15 Torsion [C]-CA--N-[C] |==|  0.79165
USER: genes 16 Torsion [N]-C--CA-[N] |==|  0.10147
USER: genes 17 Torsion [C]-CA--CB-[CG] |==|  0.42935
USER: genes 18 Torsion [CA]-CB--CG-[OD1] |==|  0.09975
USER: genes 19 Torsion [C]-CA--N-[C] |==|  0.16663
USER: genes 20 Torsion [N]-C--CA-[N] |==|  0.85059
USER: genes 21 Torsion [C]-CA--CB-[CG] |==|  0.58922
USER: genes 22 Torsion [CA]-CB--CG-[CD2] |==|  0.60228
ROOT
ATOM      1  C   PHE C 305      16.178   7.433  -0.830  0.50 34.66 LIG 0.24  C 
ATOM      2 O    PHE C 305      16.511   6.396  -0.265  0.50 33.80 LIG-0.27  OA
ATOM      3  N   PRO C 306      15.001   7.554  -1.475  0.50 35.29 LIG-0.34  N 
ATOM      4  CA  PRO C 306      14.321   6.360  -1.951  0.50 35.79 LIG 0.18  C 
ATOM      5  CB  PRO C 306      12.825   6.740  -1.852  0.50 35.80 LIG 0.04  C 
ATOM      6  CG  PRO C 306      12.798   8.226  -1.474  0.50 35.25 LIG 0.02  C 
ATOM      7  CD  PRO C 306      14.185   8.752  -1.721  0.50 35.51 LIG 0.13  C 
ENDROOT
BRANCH 4 8
ATOM      8  C   PRO C 306      14.673   6.097  -3.416  0.50 36.50 LIG 0.24  C 
ATOM      9  N   ILE C 307      13.644   5.779  -4.219  0.50 37.01 LIG-0.35  N 
ATOM     10 H    ILE C 307      12.835   5.658  -3.956  0.50 37.01 LIG 0.16  HD
ATOM     11 O    PRO C 306      15.858   6.196  -3.807  0.50 36.74 LIG-0.27  OA
BRANCH 9 12
ATOM     12  CA  ILE C 307      13.865   5.614  -5.657  0.50 37.44 LIG 0.18  C 
BRANCH 12 13
ATOM     13  C   ILE C 307      13.975   6.951  -6.393  0.50 38.23 LIG 0.24  C 
ATOM     14  N   SER C 308      13.116   7.883  -5.990  0.50 38.91 LIG-0.34  N 
ATOM     15 H    SER C 308      12.464   7.718  -5.453  0.50 38.91 LIG 0.16  HD
ATOM     16 O    ILE C 307      14.816   7.128  -7.285  0.50 38.79 LIG-0.27  OA
BRANCH 14 17
ATOM     17  CA  SER C 308      13.182   9.280  -6.410  0.50 39.43 LIG 0.20  C 
BRANCH 17 18
ATOM     18  C   SER C 308      12.406  10.072  -5.355  0.50 39.77 LIG 0.24  C 
ATOM     19  N   PRO C 309      11.070   9.916  -5.320  0.50 40.03 LIG-0.34  N 
ATOM     20  CD  PRO C 309      10.271   8.830  -5.909  0.50 39.83 LIG 0.13  C 
ATOM     21  CA  PRO C 309      10.239  10.877  -4.592  0.50 40.09 LIG 0.19  C 
ATOM     22  CG  PRO C 309       8.883   9.390  -5.894  0.50 40.19 LIG 0.02  C 
ATOM     23  CB  PRO C 309       8.836  10.260  -4.675  0.50 40.09 LIG 0.04  C 
ATOM     24 O    SER C 308      13.005  10.808  -4.565  0.50 39.81 LIG-0.27  OA
BRANCH 21 25
ATOM     25  C   PRO C 309      10.672  11.076  -3.140  0.50 40.04 LIG 0.20  C 
ATOM     26 OXT  PRO C 309      10.662  10.144  -2.331  0.50 40.10 LIG-0.65  OA
ATOM     27 O    PRO C 309      11.033  12.184  -2.737  0.50 40.34 LIG-0.65  OA
ENDBRANCH 21 25
ENDBRANCH 17 18
BRANCH 17 28
ATOM     28  CB  SER C 308      12.550   9.467  -7.791  0.50 39.49 LIG 0.20  C 
BRANCH 28 29
ATOM     29 OG   SER C 308      12.262  10.833  -8.050  0.50 39.70 LIG-0.40  OA
ATOM     30 HG   SER C 308      12.247  10.965  -8.880  0.50 39.70 LIG 0.21  HD
ENDBRANCH 28 29
ENDBRANCH 17 28
ENDBRANCH 14 17
ENDBRANCH 12 13
BRANCH 12 31
ATOM     31  CB  ILE C 307      12.742   4.792  -6.335  0.50 37.20 LIG 0.01  C 
ATOM     32  CG2 ILE C 307      12.634   3.392  -5.710  0.50 36.86 LIG 0.01  C 
BRANCH 31 33
ATOM     33  CG1 ILE C 307      11.422   5.580  -6.274  0.50 35.88 LIG 0.00  C 
ATOM     34  CD1 ILE C 307      10.186   4.756  -6.006  0.50 32.01 LIG 0.01  C 
ENDBRANCH 31 33
ENDBRANCH 12 31
ENDBRANCH 9 12
ENDBRANCH 4 8
BRANCH 1 35
ATOM     35  CA  PHE C 305      17.101   8.657  -0.780  0.50 34.47 LIG 0.18  C 
BRANCH 35 36
ATOM     36  CB  PHE C 305      17.925   8.663  -2.076  0.50 34.49 LIG 0.07  C 
BRANCH 36 37
ATOM     37  CG  PHE C 305      17.398   9.579  -3.169  0.50 35.55 LIG-0.06  A 
ATOM     38  CD1 PHE C 305      17.630  10.954  -3.151  0.50 36.28 LIG 0.01  A 
ATOM     39  CE1 PHE C 305      17.138  11.776  -4.170  0.50 36.66 LIG 0.00  A 
ATOM     40  CZ  PHE C 305      16.393  11.225  -5.216  0.50 36.87 LIG 0.00  A 
ATOM     41  CE2 PHE C 305      16.151   9.863  -5.245  0.50 36.76 LIG 0.00  A 
ATOM     42  CD2 PHE C 305      16.646   9.045  -4.218  0.50 36.02 LIG 0.01  A 
ENDBRANCH 36 37
ENDBRANCH 35 36
BRANCH 35 43
ATOM     43  N   PHE C 305      18.020   8.691   0.364  0.50 33.54 LIG-0.35  N 
ATOM     44 H    PHE C 305      18.838   8.502   0.174  0.50 33.54 LIG 0.16  HD
ATOM     45  C   ASN C 304      17.581   8.995   1.586  0.50 33.07 LIG 0.24  C 
ATOM     46 O    ASN C 304      16.389   8.915   1.905  0.50 33.39 LIG-0.27  OA
BRANCH 45 47
ATOM     47  CA  ASN C 304      18.639   9.468   2.592  0.50 32.40 LIG 0.18  C 
BRANCH 47 48
ATOM     48  CB  ASN C 304      18.046  10.273   3.758  0.50 32.38 LIG 0.14  C 
BRANCH 48 49
ATOM     49  CG  ASN C 304      18.916  10.217   5.039  0.50 31.77 LIG 0.22  C 
ATOM     50 OD1  ASN C 304      20.140  10.195   4.975  0.50 27.48 LIG-0.27  OA
ATOM     51  ND2 ASN C 304      18.266  10.148   6.194  0.50 32.56 LIG-0.37  N 
ATOM     52 21HD ASN C 304      18.705  10.086   6.932  0.50 32.56 LIG 0.16  HD
ATOM     53 22HD ASN C 304      17.406  10.167   6.206  0.50 32.56 LIG 0.16  HD
ENDBRANCH 48 49
ENDBRANCH 47 48
BRANCH 47 54
ATOM     54  N   ASN C 304      19.638  10.273   1.931  0.50 31.56 LIG-0.34  N 
ATOM     55  C   LEU C 303      19.298  11.391   1.307  0.50 30.83 LIG 0.26  C 
ATOM     56 O    LEU C 303      18.195  11.904   1.433  0.50 29.02 LIG-0.27  OA
ATOM     57 H    ASN C 304      20.440   9.968   1.981  0.50 31.56 LIG 0.16  HD
BRANCH 55 58
ATOM     58  CA  LEU C 303      20.379  12.013   0.415  0.50 30.56 LIG 0.40  C 
ATOM     59  N   LEU C 303      21.672  12.248   1.114  0.50 30.88 LIG 0.61  N 
BRANCH 58 60
ATOM     60  CB  LEU C 303      20.605  11.171  -0.846  0.50 30.80 LIG 0.06  C 
BRANCH 60 61
ATOM     61  CG  LEU C 303      22.018  11.138  -1.442  0.50 30.92 LIG-0.02  C 
ATOM     62  CD2 LEU C 303      21.962  11.107  -2.981  0.50 31.43 LIG 0.01  C 
ATOM     63  CD1 LEU C 303      22.826   9.979  -0.886  0.50 30.50 LIG 0.01  C 
ENDBRANCH 60 61
ENDBRANCH 58 60
ENDBRANCH 55 58
ENDBRANCH 47 54
ENDBRANCH 45 47
ENDBRANCH 35 43
ENDBRANCH 1 35
TORSDOF 21
ENDMDL
MODEL 22
USER: ADFR SOLUTION from run 51
USER: SCORE 18.591390 LL:  -5.487 LR: -13.741 RR:   0.000 FEB:  -7.476
USER: RMSD 7.441674
USER: SEED 50
USER: STATUS no improvement in best in 28 clusters for 5 generations
USER: GENES 23
USER: genes 0 Translation |==|  0.44952 0.51958 0.27894
USER: genes 1 Rotation |==|  0.72805 0.82046 0.73182 0.70387
USER: genes 2 Torsion [N]-CA--C-[N] |==|  0.19026
USER: genes 3 Torsion [C]-N--CA-[C] |==|  0.61553
USER: genes 4 Torsion [N]-CA--C-[N] |==|  0.40253
USER: genes 5 Torsion [C]-N--CA-[CB] |==|  0.52373
USER: genes 6 Torsion [N]-CA--C-[N] |==|  0.42926
USER: genes 7 Torsion [N]-CA--C-[OXT] |==|  0.38514
USER: genes 8 Torsion [N]-CA--CB-[OG] |==|  0.81914
USER: genes 9 Torsion [CA]-CB--OG-[HG] |==|  0.15610
USER: genes 10 Torsion [N]-CA--CB-[CG2] |==|  0.83247
USER: genes 11 Torsion [CA]-CB--CG1-[CD1] |==|  0.38726
USER: genes 12 Torsion [N]-C--CA-[N] |==|  0.97987
USER: genes 13 Torsion [C]-CA--CB-[CG] |==|  0.79849
USER: genes 14 Torsion [CA]-CB--CG-[CD1] |==|  0.74241
USER: genes 15 Torsion [C]-CA--N-[C] |==|  0.78035
USER: genes 16 Torsion [N]-C--CA-[N] |==|  0.46902
USER: genes 17 Torsion [C]-CA--CB-[CG] |==|  0.41051
USER: genes 18 Torsion [CA]-CB--CG-[OD1] |==|  0.98209
USER: genes 19 Torsion [C]-CA--N-[C] |==|  0.79828
USER: genes 20 Torsion [N]-C--CA-[N] |==|  0.65915
USER: genes 21 Torsion [C]-CA--CB-[CG] |==|  0.60415
USER: genes 22 Torsion [CA]-CB--CG-[CD2] |==|  0.75030
ROOT
ATOM      1  C   PHE C 305      12.105   7.301  -4.750  0.50 34.66 LIG 0.24  C 
ATOM      2 O    PHE C 305      11.279   7.734  -5.549  0.50 33.80 LIG-0.27  OA
ATOM      3  N   PRO C 306      12.990   6.341  -5.083  0.50 35.29 LIG-0.34  N 
ATOM      4  CA  PRO C 306      12.693   5.447  -6.191  0.50 35.79 LIG 0.18  C 
ATOM      5  CB  PRO C 306      14.090   5.119  -6.766  0.50 35.80 LIG 0.04  C 
ATOM      6  CG  PRO C 306      15.098   5.744  -5.795  0.50 35.25 LIG 0.02  C 
ATOM      7  CD  PRO C 306      14.332   6.074  -4.544  0.50 35.51 LIG 0.13  C 
ENDROOT
BRANCH 4 8
ATOM      8  C   PRO C 306      12.050   4.158  -5.675  0.50 36.50 LIG 0.24  C 
ATOM      9  N   ILE C 307      10.813   4.282  -5.166  0.50 37.01 LIG-0.35  N 
ATOM     10 H    ILE C 307      10.398   5.027  -5.059  0.50 37.01 LIG 0.16  HD
ATOM     11 O    PRO C 306      12.666   3.071  -5.753  0.50 36.74 LIG-0.27  OA
BRANCH 9 12
ATOM     12  CA  ILE C 307      10.075   3.091  -4.744  0.50 37.44 LIG 0.18  C 
BRANCH 12 13
ATOM     13  C   ILE C 307       8.600   3.139  -5.149  0.50 38.23 LIG 0.24  C 
ATOM     14  N   SER C 308       8.072   1.964  -5.482  0.50 38.91 LIG-0.34  N 
ATOM     15 H    SER C 308       8.545   1.254  -5.590  0.50 38.91 LIG 0.16  HD
ATOM     16 O    ILE C 307       7.965   4.204  -5.147  0.50 38.79 LIG-0.27  OA
BRANCH 14 17
ATOM     17  CA  SER C 308       6.644   1.751  -5.700  0.50 39.43 LIG 0.20  C 
BRANCH 17 18
ATOM     18  C   SER C 308       5.941   2.315  -4.463  0.50 39.77 LIG 0.24  C 
ATOM     19  N   PRO C 309       4.668   2.725  -4.607  0.50 40.03 LIG-0.34  N 
ATOM     20  CD  PRO C 309       3.725   2.389  -5.686  0.50 39.83 LIG 0.13  C 
ATOM     21  CA  PRO C 309       4.053   3.578  -3.588  0.50 40.09 LIG 0.19  C 
ATOM     22  CG  PRO C 309       2.651   3.418  -5.524  0.50 40.19 LIG 0.02  C 
ATOM     23  CB  PRO C 309       2.594   3.681  -4.050  0.50 40.09 LIG 0.04  C 
ATOM     24 O    SER C 308       6.533   2.367  -3.381  0.50 39.81 LIG-0.27  OA
BRANCH 21 25
ATOM     25  C   PRO C 309       4.148   3.000  -2.176  0.50 40.04 LIG 0.20  C 
ATOM     26 OXT  PRO C 309       4.412   3.713  -1.204  0.50 40.10 LIG-0.65  OA
ATOM     27 O    PRO C 309       3.974   1.796  -1.975  0.50 40.34 LIG-0.65  OA
ENDBRANCH 21 25
ENDBRANCH 17 18
BRANCH 17 28
ATOM     28  CB  SER C 308       6.332   0.261  -5.861  0.50 39.49 LIG 0.20  C 
BRANCH 28 29
ATOM     29 OG   SER C 308       6.933  -0.272  -7.033  0.50 39.70 LIG-0.40  OA
ATOM     30 HG   SER C 308       7.761  -0.132  -7.012  0.50 39.70 LIG 0.21  HD
ENDBRANCH 28 29
ENDBRANCH 17 28
ENDBRANCH 14 17
ENDBRANCH 12 13
BRANCH 12 31
ATOM     31  CB  ILE C 307      10.139   2.868  -3.214  0.50 37.20 LIG 0.01  C 
ATOM     32  CG2 ILE C 307      11.591   2.684  -2.747  0.50 36.86 LIG 0.01  C 
BRANCH 31 33
ATOM     33  CG1 ILE C 307       9.419   4.024  -2.497  0.50 35.88 LIG 0.00  C 
ATOM     34  CD1 ILE C 307       8.571   3.625  -1.314  0.50 32.01 LIG 0.01  C 
ENDBRANCH 31 33
ENDBRANCH 12 31
ENDBRANCH 9 12
ENDBRANCH 4 8
BRANCH 1 35
ATOM     35  CA  PHE C 305      12.175   7.887  -3.334  0.50 34.47 LIG 0.18  C 
BRANCH 35 36
ATOM     36  CB  PHE C 305      12.597   9.358  -3.468  0.50 34.49 LIG 0.07  C 
BRANCH 36 37
ATOM     37  CG  PHE C 305      14.052   9.578  -3.850  0.50 35.55 LIG-0.06  A 
ATOM     38  CD1 PHE C 305      15.045   9.758  -2.888  0.50 36.28 LIG 0.01  A 
ATOM     39  CE1 PHE C 305      16.378   9.955  -3.264  0.50 36.66 LIG 0.00  A 
ATOM     40  CZ  PHE C 305      16.726   9.987  -4.618  0.50 36.87 LIG 0.00  A 
ATOM     41  CE2 PHE C 305      15.751   9.814  -5.583  0.50 36.76 LIG 0.00  A 
ATOM     42  CD2 PHE C 305      14.415   9.619  -5.197  0.50 36.02 LIG 0.01  A 
ENDBRANCH 36 37
ENDBRANCH 35 36
BRANCH 35 43
ATOM     43  N   PHE C 305      13.110   7.207  -2.431  0.50 33.54 LIG-0.35  N 
ATOM     44 H    PHE C 305      13.864   7.608  -2.324  0.50 33.54 LIG 0.16  HD
ATOM     45  C   ASN C 304      12.778   6.058  -1.841  0.50 33.07 LIG 0.24  C 
ATOM     46 O    ASN C 304      11.872   5.330  -2.262  0.50 33.39 LIG-0.27  OA
BRANCH 45 47
ATOM     47  CA  ASN C 304      13.579   5.679  -0.588  0.50 32.40 LIG 0.18  C 
BRANCH 47 48
ATOM     48  CB  ASN C 304      15.041   5.316  -0.892  0.50 32.38 LIG 0.14  C 
BRANCH 48 49
ATOM     49  CG  ASN C 304      16.012   5.698   0.254  0.50 31.77 LIG 0.22  C 
ATOM     50 OD1  ASN C 304      15.627   6.337   1.226  0.50 27.48 LIG-0.27  OA
ATOM     51  ND2 ASN C 304      17.280   5.337   0.101  0.50 32.56 LIG-0.37  N 
ATOM     52 21HD ASN C 304      17.863   5.552   0.696  0.50 32.56 LIG 0.16  HD
ATOM     53 22HD ASN C 304      17.519   4.889  -0.593  0.50 32.56 LIG 0.16  HD
ENDBRANCH 48 49
ENDBRANCH 47 48
BRANCH 47 54
ATOM     54  N   ASN C 304      12.956   4.568   0.090  0.50 31.56 LIG-0.34  N 
ATOM     55  C   LEU C 303      11.826   4.734   0.760  0.50 30.83 LIG 0.26  C 
ATOM     56 O    LEU C 303      11.151   5.750   0.667  0.50 29.02 LIG-0.27  OA
ATOM     57 H    ASN C 304      13.374   3.819   0.019  0.50 31.56 LIG 0.16  HD
BRANCH 55 58
ATOM     58  CA  LEU C 303      11.405   3.566   1.661  0.50 30.56 LIG 0.40  C 
ATOM     59  N   LEU C 303      10.056   3.021   1.347  0.50 30.88 LIG 0.61  N 
BRANCH 58 60
ATOM     60  CB  LEU C 303      12.449   2.444   1.632  0.50 30.80 LIG 0.06  C 
BRANCH 60 61
ATOM     61  CG  LEU C 303      11.945   0.996   1.668  0.50 30.92 LIG-0.02  C 
ATOM     62  CD2 LEU C 303      11.820   0.496   3.119  0.50 31.43 LIG 0.01  C 
ATOM     63  CD1 LEU C 303      12.825   0.082   0.834  0.50 30.50 LIG 0.01  C 
ENDBRANCH 60 61
ENDBRANCH 58 60
ENDBRANCH 55 58
ENDBRANCH 47 54
ENDBRANCH 45 47
ENDBRANCH 35 43
ENDBRANCH 1 35
TORSDOF 21
ENDMDL
MODEL 23
USER: ADFR SOLUTION from run 130
USER: SCORE 18.505985 LL:  -5.870 LR: -13.727 RR:   0.000 FEB:  -7.462
USER: RMSD 11.769695
USER: SEED 129
USER: STATUS no improvement in best in 16 clusters for 5 generations
USER: GENES 23
USER: genes 0 Translation |==|  0.49920 0.49327 0.44919
USER: genes 1 Rotation |==|  0.36292 0.32990 0.94960 0.51163
USER: genes 2 Torsion [N]-CA--C-[N] |==|  0.31615
USER: genes 3 Torsion [C]-N--CA-[C] |==|  0.75296
USER: genes 4 Torsion [N]-CA--C-[N] |==|  0.55556
USER: genes 5 Torsion [C]-N--CA-[CB] |==|  0.56122
USER: genes 6 Torsion [N]-CA--C-[N] |==|  0.33986
USER: genes 7 Torsion [N]-CA--C-[OXT] |==|  0.36418
USER: genes 8 Torsion [N]-CA--CB-[OG] |==|  0.86236
USER: genes 9 Torsion [CA]-CB--OG-[HG] |==|  0.83150
USER: genes 10 Torsion [N]-CA--CB-[CG2] |==|  0.74704
USER: genes 11 Torsion [CA]-CB--CG1-[CD1] |==|  0.58634
USER: genes 12 Torsion [N]-C--CA-[N] |==|  0.43269
USER: genes 13 Torsion [C]-CA--CB-[CG] |==|  0.77055
USER: genes 14 Torsion [CA]-CB--CG-[CD1] |==|  0.73791
USER: genes 15 Torsion [C]-CA--N-[C] |==|  0.66336
USER: genes 16 Torsion [N]-C--CA-[N] |==|  0.95612
USER: genes 17 Torsion [C]-CA--CB-[CG] |==|  0.94356
USER: genes 18 Torsion [CA]-CB--CG-[OD1] |==|  0.22812
USER: genes 19 Torsion [C]-CA--N-[C] |==|  0.79872
USER: genes 20 Torsion [N]-C--CA-[N] |==|  0.47678
USER: genes 21 Torsion [C]-CA--CB-[CG] |==|  0.40904
USER: genes 22 Torsion [CA]-CB--CG-[CD2] |==|  0.19221
ROOT
ATOM      1  C   PHE C 305      13.372   6.669  -1.303  0.50 34.66 LIG 0.24  C 
ATOM      2 O    PHE C 305      12.899   7.798  -1.398  0.50 33.80 LIG-0.27  OA
ATOM      3  N   PRO C 306      13.918   6.214  -0.159  0.50 35.29 LIG-0.34  N 
ATOM      4  CA  PRO C 306      14.417   7.164   0.823  0.50 35.79 LIG 0.18  C 
ATOM      5  CB  PRO C 306      14.184   6.439   2.169  0.50 35.80 LIG 0.04  C 
ATOM      6  CG  PRO C 306      13.712   5.027   1.805  0.50 35.25 LIG 0.02  C 
ATOM      7  CD  PRO C 306      14.027   4.837   0.347  0.50 35.51 LIG 0.13  C 
ENDROOT
BRANCH 4 8
ATOM      8  C   PRO C 306      15.919   7.387   0.630  0.50 36.50 LIG 0.24  C 
ATOM      9  N   ILE C 307      16.283   8.618   0.233  0.50 37.01 LIG-0.35  N 
ATOM     10 H    ILE C 307      15.737   9.250   0.029  0.50 37.01 LIG 0.16  HD
ATOM     11 O    PRO C 306      16.728   6.458   0.851  0.50 36.74 LIG-0.27  OA
BRANCH 9 12
ATOM     12  CA  ILE C 307      17.702   8.959   0.123  0.50 37.44 LIG 0.18  C 
BRANCH 12 13
ATOM     13  C   ILE C 307      18.279   9.505   1.431  0.50 38.23 LIG 0.24  C 
ATOM     14  N   SER C 308      19.402  10.205   1.298  0.50 38.91 LIG-0.34  N 
ATOM     15 H    SER C 308      19.844  10.243   0.561  0.50 38.91 LIG 0.16  HD
ATOM     16 O    ILE C 307      17.717   9.304   2.518  0.50 38.79 LIG-0.27  OA
BRANCH 14 17
ATOM     17  CA  SER C 308      20.006  10.980   2.378  0.50 39.43 LIG 0.20  C 
BRANCH 17 18
ATOM     18  C   SER C 308      18.840  11.606   3.148  0.50 39.77 LIG 0.24  C 
ATOM     19  N   PRO C 309      18.744  11.329   4.460  0.50 40.03 LIG-0.34  N 
ATOM     20  CD  PRO C 309      19.789  10.801   5.352  0.50 39.83 LIG 0.13  C 
ATOM     21  CA  PRO C 309      17.496  11.595   5.177  0.50 40.09 LIG 0.19  C 
ATOM     22  CG  PRO C 309      19.010  10.338   6.544  0.50 40.19 LIG 0.02  C 
ATOM     23  CB  PRO C 309      17.856  11.289   6.637  0.50 40.09 LIG 0.04  C 
ATOM     24 O    SER C 308      18.039  12.347   2.570  0.50 39.81 LIG-0.27  OA
BRANCH 21 25
ATOM     25  C   PRO C 309      17.000  13.032   5.018  0.50 40.04 LIG 0.20  C 
ATOM     26 OXT  PRO C 309      15.831  13.281   4.709  0.50 40.10 LIG-0.65  OA
ATOM     27 O    PRO C 309      17.765  13.985   5.183  0.50 40.34 LIG-0.65  OA
ENDBRANCH 21 25
ENDBRANCH 17 18
BRANCH 17 28
ATOM     28  CB  SER C 308      20.926  12.070   1.821  0.50 39.49 LIG 0.20  C 
BRANCH 28 29
ATOM     29 OG   SER C 308      21.830  11.544   0.861  0.50 39.70 LIG-0.40  OA
ATOM     30 HG   SER C 308      22.312  10.958   1.221  0.50 39.70 LIG 0.21  HD
ENDBRANCH 28 29
ENDBRANCH 17 28
ENDBRANCH 14 17
ENDBRANCH 12 13
BRANCH 12 31
ATOM     31  CB  ILE C 307      17.973  10.004  -0.986  0.50 37.20 LIG 0.01  C 
ATOM     32  CG2 ILE C 307      18.275   9.315  -2.326  0.50 36.86 LIG 0.01  C 
BRANCH 31 33
ATOM     33  CG1 ILE C 307      16.789  10.983  -1.068  0.50 35.88 LIG 0.00  C 
ATOM     34  CD1 ILE C 307      16.511  11.551  -2.439  0.50 32.01 LIG 0.01  C 
ENDBRANCH 31 33
ENDBRANCH 12 31
ENDBRANCH 9 12
ENDBRANCH 4 8
BRANCH 1 35
ATOM     35  CA  PHE C 305      13.312   5.715  -2.503  0.50 34.47 LIG 0.18  C 
BRANCH 35 36
ATOM     36  CB  PHE C 305      14.679   5.775  -3.203  0.50 34.49 LIG 0.07  C 
BRANCH 36 37
ATOM     37  CG  PHE C 305      14.858   6.938  -4.165  0.50 35.55 LIG-0.06  A 
ATOM     38  CD1 PHE C 305      14.606   6.808  -5.531  0.50 36.28 LIG 0.01  A 
ATOM     39  CE1 PHE C 305      14.775   7.893  -6.396  0.50 36.66 LIG 0.00  A 
ATOM     40  CZ  PHE C 305      15.216   9.123  -5.899  0.50 36.87 LIG 0.00  A 
ATOM     41  CE2 PHE C 305      15.475   9.266  -4.547  0.50 36.76 LIG 0.00  A 
ATOM     42  CD2 PHE C 305      15.304   8.171  -3.686  0.50 36.02 LIG 0.01  A 
ENDBRANCH 36 37
ENDBRANCH 35 36
BRANCH 35 43
ATOM     43  N   PHE C 305      12.265   6.022  -3.484  0.50 33.54 LIG-0.35  N 
ATOM     44 H    PHE C 305      12.318   6.806  -3.834  0.50 33.54 LIG 0.16  HD
ATOM     45  C   ASN C 304      11.323   5.127  -3.781  0.50 33.07 LIG 0.24  C 
ATOM     46 O    ASN C 304      11.050   4.175  -3.039  0.50 33.39 LIG-0.27  OA
BRANCH 45 47
ATOM     47  CA  ASN C 304      10.587   5.327  -5.112  0.50 32.40 LIG 0.18  C 
BRANCH 47 48
ATOM     48  CB  ASN C 304      11.003   4.316  -6.191  0.50 32.38 LIG 0.14  C 
BRANCH 48 49
ATOM     49  CG  ASN C 304      12.377   3.657  -5.907  0.50 31.77 LIG 0.22  C 
ATOM     50 OD1  ASN C 304      12.480   2.706  -5.141  0.50 27.48 LIG-0.27  OA
ATOM     51  ND2 ASN C 304      13.430   4.206  -6.499  0.50 32.56 LIG-0.37  N 
ATOM     52 21HD ASN C 304      14.218   3.894  -6.350  0.50 32.56 LIG 0.16  HD
ATOM     53 22HD ASN C 304      13.326   4.873  -7.032  0.50 32.56 LIG 0.16  HD
ENDBRANCH 48 49
ENDBRANCH 47 48
BRANCH 47 54
ATOM     54  N   ASN C 304      10.811   6.661  -5.615  0.50 31.56 LIG-0.34  N 
ATOM     55  C   LEU C 303      10.234   7.705  -5.039  0.50 30.83 LIG 0.26  C 
ATOM     56 O    LEU C 303       9.673   7.630  -3.955  0.50 29.02 LIG-0.27  OA
ATOM     57 H    ASN C 304      11.334   6.708  -6.296  0.50 31.56 LIG 0.16  HD
BRANCH 55 58
ATOM     58  CA  LEU C 303      10.317   9.026  -5.814  0.50 30.56 LIG 0.40  C 
ATOM     59  N   LEU C 303       9.493  10.119  -5.228  0.50 30.88 LIG 0.61  N 
BRANCH 58 60
ATOM     60  CB  LEU C 303      11.773   9.486  -5.966  0.50 30.80 LIG 0.06  C 
BRANCH 60 61
ATOM     61  CG  LEU C 303      12.154  10.249  -7.240  0.50 30.92 LIG-0.02  C 
ATOM     62  CD2 LEU C 303      11.504  11.645  -7.256  0.50 31.43 LIG 0.01  C 
ATOM     63  CD1 LEU C 303      11.807   9.454  -8.486  0.50 30.50 LIG 0.01  C 
ENDBRANCH 60 61
ENDBRANCH 58 60
ENDBRANCH 55 58
ENDBRANCH 47 54
ENDBRANCH 45 47
ENDBRANCH 35 43
ENDBRANCH 1 35
TORSDOF 21
ENDMDL
MODEL 24
USER: ADFR SOLUTION from run 85
USER: SCORE 16.662481 LL:  -5.536 LR: -13.709 RR:   0.000 FEB:  -7.445
USER: RMSD 7.002130
USER: SEED 84
USER: STATUS no improvement in best in 9 clusters for 5 generations
USER: GENES 23
USER: genes 0 Translation |==|  0.56451 0.47124 0.54634
USER: genes 1 Rotation |==|  0.37796 0.59321 0.57703 0.96956
USER: genes 2 Torsion [N]-CA--C-[N] |==|  0.37181
USER: genes 3 Torsion [C]-N--CA-[C] |==|  0.78710
USER: genes 4 Torsion [N]-CA--C-[N] |==|  0.25102
USER: genes 5 Torsion [C]-N--CA-[CB] |==|  0.45871
USER: genes 6 Torsion [N]-CA--C-[N] |==|  0.81352
USER: genes 7 Torsion [N]-CA--C-[OXT] |==|  0.24188
USER: genes 8 Torsion [N]-CA--CB-[OG] |==|  0.45409
USER: genes 9 Torsion [CA]-CB--OG-[HG] |==|  0.23439
USER: genes 10 Torsion [N]-CA--CB-[CG2] |==|  0.77572
USER: genes 11 Torsion [CA]-CB--CG1-[CD1] |==|  0.57198
USER: genes 12 Torsion [N]-C--CA-[N] |==|  0.50556
USER: genes 13 Torsion [C]-CA--CB-[CG] |==|  0.84353
USER: genes 14 Torsion [CA]-CB--CG-[CD1] |==|  0.90073
USER: genes 15 Torsion [C]-CA--N-[C] |==|  0.63493
USER: genes 16 Torsion [N]-C--CA-[N] |==|  0.12333
USER: genes 17 Torsion [C]-CA--CB-[CG] |==|  0.67624
USER: genes 18 Torsion [CA]-CB--CG-[OD1] |==|  0.23278
USER: genes 19 Torsion [C]-CA--N-[C] |==|  0.72559
USER: genes 20 Torsion [N]-C--CA-[N] |==|  0.20098
USER: genes 21 Torsion [C]-CA--CB-[CG] |==|  0.40930
USER: genes 22 Torsion [CA]-CB--CG-[CD2] |==|  0.88294
ROOT
ATOM      1  C   PHE C 305      15.037   6.141   0.664  0.50 34.66 LIG 0.24  C 
ATOM      2 O    PHE C 305      15.855   5.296   0.314  0.50 33.80 LIG-0.27  OA
ATOM      3  N   PRO C 306      14.355   6.044   1.823  0.50 35.29 LIG-0.34  N 
ATOM      4  CA  PRO C 306      14.183   4.740   2.444  0.50 35.79 LIG 0.18  C 
ATOM      5  CB  PRO C 306      14.146   5.068   3.954  0.50 35.80 LIG 0.04  C 
ATOM      6  CG  PRO C 306      14.132   6.598   4.047  0.50 35.25 LIG 0.02  C 
ATOM      7  CD  PRO C 306      13.793   7.104   2.672  0.50 35.51 LIG 0.13  C 
ENDROOT
BRANCH 4 8
ATOM      8  C   PRO C 306      12.841   4.130   2.033  0.50 36.50 LIG 0.24  C 
ATOM      9  N   ILE C 307      12.874   2.842   1.653  0.50 37.01 LIG-0.35  N 
ATOM     10 H    ILE C 307      13.589   2.371   1.571  0.50 37.01 LIG 0.16  HD
ATOM     11 O    PRO C 306      11.796   4.818   2.074  0.50 36.74 LIG-0.27  OA
BRANCH 9 12
ATOM     12  CA  ILE C 307      11.627   2.141   1.343  0.50 37.44 LIG 0.18  C 
BRANCH 12 13
ATOM     13  C   ILE C 307      10.850   1.740   2.600  0.50 38.23 LIG 0.24  C 
ATOM     14  N   SER C 308       9.974   2.645   3.028  0.50 38.91 LIG-0.34  N 
ATOM     15 H    SER C 308       9.934   3.443   2.709  0.50 38.91 LIG 0.16  HD
ATOM     16 O    ILE C 307      11.035   0.645   3.150  0.50 38.79 LIG-0.27  OA
BRANCH 14 17
ATOM     17  CA  SER C 308       8.992   2.387   4.077  0.50 39.43 LIG 0.20  C 
BRANCH 17 18
ATOM     18  C   SER C 308       7.909   1.518   3.434  0.50 39.77 LIG 0.24  C 
ATOM     19  N   PRO C 309       7.150   2.080   2.477  0.50 40.03 LIG-0.34  N 
ATOM     20  CD  PRO C 309       7.429   3.298   1.699  0.50 39.83 LIG 0.13  C 
ATOM     21  CA  PRO C 309       5.896   1.444   2.068  0.50 40.09 LIG 0.19  C 
ATOM     22  CG  PRO C 309       6.095   3.630   1.107  0.50 40.19 LIG 0.02  C 
ATOM     23  CB  PRO C 309       5.437   2.303   0.882  0.50 40.09 LIG 0.04  C 
ATOM     24 O    SER C 308       7.766   0.342   3.784  0.50 39.81 LIG-0.27  OA
BRANCH 21 25
ATOM     25  C   PRO C 309       6.063  -0.020   1.660  0.50 40.04 LIG 0.20  C 
ATOM     26 OXT  PRO C 309       6.013  -0.930   2.492  0.50 40.10 LIG-0.65  OA
ATOM     27 O    PRO C 309       6.267  -0.327   0.484  0.50 40.34 LIG-0.65  OA
ENDBRANCH 21 25
ENDBRANCH 17 18
BRANCH 17 28
ATOM     28  CB  SER C 308       8.390   3.695   4.596  0.50 39.49 LIG 0.20  C 
BRANCH 28 29
ATOM     29 OG   SER C 308       7.193   3.463   5.324  0.50 39.70 LIG-0.40  OA
ATOM     30 HG   SER C 308       7.381   3.270   6.119  0.50 39.70 LIG 0.21  HD
ENDBRANCH 28 29
ENDBRANCH 17 28
ENDBRANCH 14 17
ENDBRANCH 12 13
BRANCH 12 31
ATOM     31  CB  ILE C 307      11.863   0.861   0.505  0.50 37.20 LIG 0.01  C 
ATOM     32  CG2 ILE C 307      12.044   1.206  -0.981  0.50 36.86 LIG 0.01  C 
BRANCH 31 33
ATOM     33  CG1 ILE C 307      13.051   0.077   1.089  0.50 35.88 LIG 0.00  C 
ATOM     34  CD1 ILE C 307      13.788  -0.806   0.111  0.50 32.01 LIG 0.01  C 
ENDBRANCH 31 33
ENDBRANCH 12 31
ENDBRANCH 9 12
ENDBRANCH 4 8
BRANCH 1 35
ATOM     35  CA  PHE C 305      14.796   7.376  -0.212  0.50 34.47 LIG 0.18  C 
BRANCH 35 36
ATOM     36  CB  PHE C 305      13.292   7.432  -0.521  0.50 34.49 LIG 0.07  C 
BRANCH 36 37
ATOM     37  CG  PHE C 305      12.723   6.187  -1.181  0.50 35.55 LIG-0.06  A 
ATOM     38  CD1 PHE C 305      13.457   5.444  -2.105  0.50 36.28 LIG 0.01  A 
ATOM     39  CE1 PHE C 305      12.914   4.300  -2.696  0.50 36.66 LIG 0.00  A 
ATOM     40  CZ  PHE C 305      11.616   3.894  -2.374  0.50 36.87 LIG 0.00  A 
ATOM     41  CE2 PHE C 305      10.874   4.623  -1.462  0.50 36.76 LIG 0.00  A 
ATOM     42  CD2 PHE C 305      11.426   5.772  -0.875  0.50 36.02 LIG 0.01  A 
ENDBRANCH 36 37
ENDBRANCH 35 36
BRANCH 35 43
ATOM     43  N   PHE C 305      15.539   7.390  -1.478  0.50 33.54 LIG-0.35  N 
ATOM     44 H    PHE C 305      15.486   6.662  -1.933  0.50 33.54 LIG 0.16  HD
ATOM     45  C   ASN C 304      16.228   8.467  -1.855  0.50 33.07 LIG 0.24  C 
ATOM     46 O    ASN C 304      16.582   9.345  -1.058  0.50 33.39 LIG-0.27  OA
BRANCH 45 47
ATOM     47  CA  ASN C 304      16.559   8.576  -3.349  0.50 32.40 LIG 0.18  C 
BRANCH 47 48
ATOM     48  CB  ASN C 304      17.055   9.971  -3.758  0.50 32.38 LIG 0.14  C 
BRANCH 48 49
ATOM     49  CG  ASN C 304      16.112  10.681  -4.762  0.50 31.77 LIG 0.22  C 
ATOM     50 OD1  ASN C 304      15.127  11.302  -4.379  0.50 27.48 LIG-0.27  OA
ATOM     51  ND2 ASN C 304      16.402  10.539  -6.049  0.50 32.56 LIG-0.37  N 
ATOM     52 21HD ASN C 304      15.891  10.890  -6.646  0.50 32.56 LIG 0.16  HD
ATOM     53 22HD ASN C 304      17.101  10.098  -6.287  0.50 32.56 LIG 0.16  HD
ENDBRANCH 48 49
ENDBRANCH 47 48
BRANCH 47 54
ATOM     54  N   ASN C 304      15.404   8.241  -4.146  0.50 31.56 LIG-0.34  N 
ATOM     55  C   LEU C 303      15.273   7.033  -4.672  0.50 30.83 LIG 0.26  C 
ATOM     56 O    LEU C 303      15.988   6.095  -4.347  0.50 29.02 LIG-0.27  OA
ATOM     57 H    ASN C 304      14.833   8.878  -4.241  0.50 31.56 LIG 0.16  HD
BRANCH 55 58
ATOM     58  CA  LEU C 303      14.161   6.875  -5.717  0.50 30.56 LIG 0.40  C 
ATOM     59  N   LEU C 303      14.463   7.529  -7.019  0.50 30.88 LIG 0.61  N 
BRANCH 58 60
ATOM     60  CB  LEU C 303      13.817   5.396  -5.935  0.50 30.80 LIG 0.06  C 
BRANCH 60 61
ATOM     61  CG  LEU C 303      12.364   5.042  -6.278  0.50 30.92 LIG-0.02  C 
ATOM     62  CD2 LEU C 303      11.384   5.857  -5.413  0.50 31.43 LIG 0.01  C 
ATOM     63  CD1 LEU C 303      12.114   3.550  -6.155  0.50 30.50 LIG 0.01  C 
ENDBRANCH 60 61
ENDBRANCH 58 60
ENDBRANCH 55 58
ENDBRANCH 47 54
ENDBRANCH 45 47
ENDBRANCH 35 43
ENDBRANCH 1 35
TORSDOF 21
ENDMDL
MODEL 25
USER: ADFR SOLUTION from run 9
USER: SCORE 18.243238 LL:  -5.828 LR: -13.702 RR:   0.000 FEB:  -7.437
USER: RMSD 9.438997
USER: SEED 258994
USER: STATUS no improvement in best in 23 clusters for 5 generations
USER: GENES 23
USER: genes 0 Translation |==|  0.38079 0.47948 0.29737
USER: genes 1 Rotation |==|  0.61663 0.98463 0.48524 0.53625
USER: genes 2 Torsion [N]-CA--C-[N] |==|  0.97339
USER: genes 3 Torsion [C]-N--CA-[C] |==|  0.75801
USER: genes 4 Torsion [N]-CA--C-[N] |==|  0.38120
USER: genes 5 Torsion [C]-N--CA-[CB] |==|  0.45250
USER: genes 6 Torsion [N]-CA--C-[N] |==|  0.43249
USER: genes 7 Torsion [N]-CA--C-[OXT] |==|  0.88375
USER: genes 8 Torsion [N]-CA--CB-[OG] |==|  0.99085
USER: genes 9 Torsion [CA]-CB--OG-[HG] |==|  0.90659
USER: genes 10 Torsion [N]-CA--CB-[CG2] |==|  0.98822
USER: genes 11 Torsion [CA]-CB--CG1-[CD1] |==|  0.47354
USER: genes 12 Torsion [N]-C--CA-[N] |==|  0.02410
USER: genes 13 Torsion [C]-CA--CB-[CG] |==|  0.37475
USER: genes 14 Torsion [CA]-CB--CG-[CD1] |==|  0.45632
USER: genes 15 Torsion [C]-CA--N-[C] |==|  0.68413
USER: genes 16 Torsion [N]-C--CA-[N] |==|  0.11841
USER: genes 17 Torsion [C]-CA--CB-[CG] |==|  0.42580
USER: genes 18 Torsion [CA]-CB--CG-[OD1] |==|  0.05214
USER: genes 19 Torsion [C]-CA--N-[C] |==|  0.13334
USER: genes 20 Torsion [N]-C--CA-[N] |==|  0.68904
USER: genes 21 Torsion [C]-CA--CB-[CG] |==|  0.22131
USER: genes 22 Torsion [CA]-CB--CG-[CD2] |==|  0.09288
ROOT
ATOM      1  C   PHE C 305      10.352   6.338  -4.377  0.50 34.66 LIG 0.24  C 
ATOM      2 O    PHE C 305       9.270   5.921  -3.976  0.50 33.80 LIG-0.27  OA
ATOM      3  N   PRO C 306      11.292   5.521  -4.892  0.50 35.29 LIG-0.34  N 
ATOM      4  CA  PRO C 306      11.279   4.109  -4.545  0.50 35.79 LIG 0.18  C 
ATOM      5  CB  PRO C 306      11.847   3.427  -5.811  0.50 35.80 LIG 0.04  C 
ATOM      6  CG  PRO C 306      12.301   4.567  -6.730  0.50 35.25 LIG 0.02  C 
ATOM      7  CD  PRO C 306      12.345   5.806  -5.879  0.50 35.51 LIG 0.13  C 
ENDROOT
BRANCH 4 8
ATOM      8  C   PRO C 306      12.222   3.844  -3.370  0.50 36.50 LIG 0.24  C 
ATOM      9  N   ILE C 307      13.018   4.866  -3.013  0.50 37.01 LIG-0.35  N 
ATOM     10 H    ILE C 307      13.070   5.616  -3.430  0.50 37.01 LIG 0.16  HD
ATOM     11 O    PRO C 306      12.215   2.733  -2.793  0.50 36.74 LIG-0.27  OA
BRANCH 9 12
ATOM     12  CA  ILE C 307      13.878   4.745  -1.835  0.50 37.44 LIG 0.18  C 
BRANCH 12 13
ATOM     13  C   ILE C 307      13.166   5.152  -0.543  0.50 38.23 LIG 0.24  C 
ATOM     14  N   SER C 308      13.390   4.350   0.495  0.50 38.91 LIG-0.34  N 
ATOM     15 H    SER C 308      13.793   3.593   0.422  0.50 38.91 LIG 0.16  HD
ATOM     16 O    ILE C 307      12.450   6.162  -0.491  0.50 38.79 LIG-0.27  OA
BRANCH 14 17
ATOM     17  CA  SER C 308      12.980   4.660   1.861  0.50 39.43 LIG 0.20  C 
BRANCH 17 18
ATOM     18  C   SER C 308      13.994   5.682   2.382  0.50 39.77 LIG 0.24  C 
ATOM     19  N   PRO C 309      13.599   6.495   3.378  0.50 40.03 LIG-0.34  N 
ATOM     20  CD  PRO C 309      12.458   6.320   4.290  0.50 39.83 LIG 0.13  C 
ATOM     21  CA  PRO C 309      14.368   7.701   3.688  0.50 40.09 LIG 0.19  C 
ATOM     22  CG  PRO C 309      12.293   7.683   4.886  0.50 40.19 LIG 0.02  C 
ATOM     23  CB  PRO C 309      13.682   8.240   4.950  0.50 40.09 LIG 0.04  C 
ATOM     24 O    SER C 308      15.131   5.729   1.903  0.50 39.81 LIG-0.27  OA
BRANCH 21 25
ATOM     25  C   PRO C 309      15.851   7.428   3.937  0.50 40.04 LIG 0.20  C 
ATOM     26 OXT  PRO C 309      16.225   6.456   4.600  0.50 40.10 LIG-0.65  OA
ATOM     27 O    PRO C 309      16.716   8.184   3.489  0.50 40.34 LIG-0.65  OA
ENDBRANCH 21 25
ENDBRANCH 17 18
BRANCH 17 28
ATOM     28  CB  SER C 308      12.989   3.404   2.735  0.50 39.49 LIG 0.20  C 
BRANCH 28 29
ATOM     29 OG   SER C 308      13.320   2.248   1.978  0.50 39.70 LIG-0.40  OA
ATOM     30 HG   SER C 308      13.017   2.326   1.199  0.50 39.70 LIG 0.21  HD
ENDBRANCH 28 29
ENDBRANCH 17 28
ENDBRANCH 14 17
ENDBRANCH 12 13
BRANCH 12 31
ATOM     31  CB  ILE C 307      15.165   5.597  -1.955  0.50 37.20 LIG 0.01  C 
ATOM     32  CG2 ILE C 307      15.250   6.269  -3.334  0.50 36.86 LIG 0.01  C 
BRANCH 31 33
ATOM     33  CG1 ILE C 307      15.224   6.602  -0.792  0.50 35.88 LIG 0.00  C 
ATOM     34  CD1 ILE C 307      16.528   7.349  -0.646  0.50 32.01 LIG 0.01  C 
ENDBRANCH 31 33
ENDBRANCH 12 31
ENDBRANCH 9 12
ENDBRANCH 4 8
BRANCH 1 35
ATOM     35  CA  PHE C 305      10.650   7.843  -4.336  0.50 34.47 LIG 0.18  C 
BRANCH 35 36
ATOM     36  CB  PHE C 305       9.444   8.566  -4.955  0.50 34.49 LIG 0.07  C 
BRANCH 36 37
ATOM     37  CG  PHE C 305       8.958   9.783  -4.185  0.50 35.55 LIG-0.06  A 
ATOM     38  CD1 PHE C 305       8.104  10.723  -4.759  0.50 36.28 LIG 0.01  A 
ATOM     39  CE1 PHE C 305       7.668  11.833  -4.029  0.50 36.66 LIG 0.00  A 
ATOM     40  CZ  PHE C 305       8.097  12.018  -2.712  0.50 36.87 LIG 0.00  A 
ATOM     41  CE2 PHE C 305       8.949  11.096  -2.130  0.50 36.76 LIG 0.00  A 
ATOM     42  CD2 PHE C 305       9.384   9.986  -2.870  0.50 36.02 LIG 0.01  A 
ENDBRANCH 36 37
ENDBRANCH 35 36
BRANCH 35 43
ATOM     43  N   PHE C 305      11.864   8.251  -5.052  0.50 33.54 LIG-0.35  N 
ATOM     44 H    PHE C 305      11.832   8.145  -5.905  0.50 33.54 LIG 0.16  HD
ATOM     45  C   ASN C 304      12.913   8.745  -4.394  0.50 33.07 LIG 0.24  C 
ATOM     46 O    ASN C 304      13.084   8.566  -3.182  0.50 33.39 LIG-0.27  OA
BRANCH 45 47
ATOM     47  CA  ASN C 304      13.911   9.568  -5.220  0.50 32.40 LIG 0.18  C 
BRANCH 47 48
ATOM     48  CB  ASN C 304      14.870  10.400  -4.355  0.50 32.38 LIG 0.14  C 
BRANCH 48 49
ATOM     49  CG  ASN C 304      16.223  10.688  -5.053  0.50 31.77 LIG 0.22  C 
ATOM     50 OD1  ASN C 304      16.345  10.584  -6.268  0.50 27.48 LIG-0.27  OA
ATOM     51  ND2 ASN C 304      17.241  11.005  -4.264  0.50 32.56 LIG-0.37  N 
ATOM     52 21HD ASN C 304      18.020  11.146  -4.602  0.50 32.56 LIG 0.16  HD
ATOM     53 22HD ASN C 304      17.123  11.071  -3.415  0.50 32.56 LIG 0.16  HD
ENDBRANCH 48 49
ENDBRANCH 47 48
BRANCH 47 54
ATOM     54  N   ASN C 304      13.210  10.453  -6.119  0.50 31.56 LIG-0.34  N 
ATOM     55  C   LEU C 303      12.212  11.206  -5.682  0.50 30.83 LIG 0.26  C 
ATOM     56 O    LEU C 303      11.974  11.355  -4.492  0.50 29.02 LIG-0.27  OA
ATOM     57 H    ASN C 304      13.493  10.443  -6.931  0.50 31.56 LIG 0.16  HD
BRANCH 55 58
ATOM     58  CA  LEU C 303      11.368  11.891  -6.764  0.50 30.56 LIG 0.40  C 
ATOM     59  N   LEU C 303      11.517  13.372  -6.794  0.50 30.88 LIG 0.61  N 
BRANCH 58 60
ATOM     60  CB  LEU C 303      11.664  11.302  -8.149  0.50 30.80 LIG 0.06  C 
BRANCH 60 61
ATOM     61  CG  LEU C 303      10.999   9.970  -8.517  0.50 30.92 LIG-0.02  C 
ATOM     62  CD2 LEU C 303       9.604   9.858  -7.874  0.50 31.43 LIG 0.01  C 
ATOM     63  CD1 LEU C 303      11.882   8.790  -8.151  0.50 30.50 LIG 0.01  C 
ENDBRANCH 60 61
ENDBRANCH 58 60
ENDBRANCH 55 58
ENDBRANCH 47 54
ENDBRANCH 45 47
ENDBRANCH 35 43
ENDBRANCH 1 35
TORSDOF 21
ENDMDL
MODEL 26
USER: ADFR SOLUTION from run 87
USER: SCORE 17.820285 LL:  -5.246 LR: -13.694 RR:   0.000 FEB:  -7.430
USER: RMSD 5.907087
USER: SEED 86
USER: STATUS searching
USER: GENES 23
USER: genes 0 Translation |==|  0.46122 0.50356 0.21192
USER: genes 1 Rotation |==|  0.78507 0.73605 0.52879 0.83494
USER: genes 2 Torsion [N]-CA--C-[N] |==|  0.58025
USER: genes 3 Torsion [C]-N--CA-[C] |==|  0.77402
USER: genes 4 Torsion [N]-CA--C-[N] |==|  0.88624
USER: genes 5 Torsion [C]-N--CA-[CB] |==|  0.79444
USER: genes 6 Torsion [N]-CA--C-[N] |==|  0.14641
USER: genes 7 Torsion [N]-CA--C-[OXT] |==|  0.33939
USER: genes 8 Torsion [N]-CA--CB-[OG] |==|  0.74372
USER: genes 9 Torsion [CA]-CB--OG-[HG] |==|  0.63061
USER: genes 10 Torsion [N]-CA--CB-[CG2] |==|  0.14446
USER: genes 11 Torsion [CA]-CB--CG1-[CD1] |==|  0.44198
USER: genes 12 Torsion [N]-C--CA-[N] |==|  0.07600
USER: genes 13 Torsion [C]-CA--CB-[CG] |==|  0.48526
USER: genes 14 Torsion [CA]-CB--CG-[CD1] |==|  0.37758
USER: genes 15 Torsion [C]-CA--N-[C] |==|  0.66115
USER: genes 16 Torsion [N]-C--CA-[N] |==|  0.29266
USER: genes 17 Torsion [C]-CA--CB-[CG] |==|  0.58175
USER: genes 18 Torsion [CA]-CB--CG-[OD1] |==|  0.27364
USER: genes 19 Torsion [C]-CA--N-[C] |==|  0.72002
USER: genes 20 Torsion [N]-C--CA-[N] |==|  0.16472
USER: genes 21 Torsion [C]-CA--CB-[CG] |==|  0.57075
USER: genes 22 Torsion [CA]-CB--CG-[CD2] |==|  0.79931
ROOT
ATOM      1  C   PHE C 305      12.403   6.917  -6.108  0.50 34.66 LIG 0.24  C 
ATOM      2 O    PHE C 305      12.039   7.401  -7.175  0.50 33.80 LIG-0.27  OA
ATOM      3  N   PRO C 306      12.151   5.635  -5.777  0.50 35.29 LIG-0.34  N 
ATOM      4  CA  PRO C 306      11.045   4.937  -6.413  0.50 35.79 LIG 0.18  C 
ATOM      5  CB  PRO C 306      11.531   3.469  -6.461  0.50 35.80 LIG 0.04  C 
ATOM      6  CG  PRO C 306      12.844   3.440  -5.669  0.50 35.25 LIG 0.02  C 
ATOM      7  CD  PRO C 306      12.901   4.728  -4.894  0.50 35.51 LIG 0.13  C 
ENDROOT
BRANCH 4 8
ATOM      8  C   PRO C 306       9.793   5.019  -5.538  0.50 36.50 LIG 0.24  C 
ATOM      9  N   ILE C 307       8.931   3.995  -5.649  0.50 37.01 LIG-0.35  N 
ATOM     10 H    ILE C 307       9.007   3.346  -6.208  0.50 37.01 LIG 0.16  HD
ATOM     11 O    PRO C 306       9.624   5.992  -4.769  0.50 36.74 LIG-0.27  OA
BRANCH 9 12
ATOM     12  CA  ILE C 307       7.757   3.931  -4.777  0.50 37.44 LIG 0.18  C 
BRANCH 12 13
ATOM     13  C   ILE C 307       8.083   3.364  -3.393  0.50 38.23 LIG 0.24  C 
ATOM     14  N   SER C 308       8.919   2.330  -3.395  0.50 38.91 LIG-0.34  N 
ATOM     15 H    SER C 308       9.158   1.924  -4.115  0.50 38.91 LIG 0.16  HD
ATOM     16 O    ILE C 307       7.599   3.857  -2.364  0.50 38.79 LIG-0.27  OA
BRANCH 14 17
ATOM     17  CA  SER C 308       9.517   1.770  -2.187  0.50 39.43 LIG 0.20  C 
BRANCH 17 18
ATOM     18  C   SER C 308       8.377   1.643  -1.174  0.50 39.77 LIG 0.24  C 
ATOM     19  N   PRO C 309       7.271   0.986  -1.565  0.50 40.03 LIG-0.34  N 
ATOM     20  CD  PRO C 309       7.121   0.060  -2.699  0.50 39.83 LIG 0.13  C 
ATOM     21  CA  PRO C 309       6.030   1.119  -0.799  0.50 40.09 LIG 0.19  C 
ATOM     22  CG  PRO C 309       5.637  -0.029  -2.865  0.50 40.19 LIG 0.02  C 
ATOM     23  CB  PRO C 309       5.089   0.115  -1.478  0.50 40.09 LIG 0.04  C 
ATOM     24 O    SER C 308       8.496   2.118  -0.041  0.50 39.81 LIG-0.27  OA
BRANCH 21 25
ATOM     25  C   PRO C 309       6.198   0.803   0.687  0.50 40.04 LIG 0.20  C 
ATOM     26 OXT  PRO C 309       5.915   1.630   1.558  0.50 40.10 LIG-0.65  OA
ATOM     27 O    PRO C 309       6.636  -0.290   1.054  0.50 40.34 LIG-0.65  OA
ENDBRANCH 21 25
ENDBRANCH 17 18
BRANCH 17 28
ATOM     28  CB  SER C 308      10.616   2.687  -1.644  0.50 39.49 LIG 0.20  C 
BRANCH 28 29
ATOM     29 OG   SER C 308      11.891   2.330  -2.158  0.50 39.70 LIG-0.40  OA
ATOM     30 HG   SER C 308      12.448   2.301  -1.531  0.50 39.70 LIG 0.21  HD
ENDBRANCH 28 29
ENDBRANCH 17 28
ENDBRANCH 14 17
ENDBRANCH 12 13
BRANCH 12 31
ATOM     31  CB  ILE C 307       6.618   3.075  -5.382  0.50 37.20 LIG 0.01  C 
ATOM     32  CG2 ILE C 307       7.137   1.693  -5.806  0.50 36.86 LIG 0.01  C 
BRANCH 31 33
ATOM     33  CG1 ILE C 307       5.449   2.999  -4.385  0.50 35.88 LIG 0.00  C 
ATOM     34  CD1 ILE C 307       4.110   2.641  -4.983  0.50 32.01 LIG 0.01  C 
ENDBRANCH 31 33
ENDBRANCH 12 31
ENDBRANCH 9 12
ENDBRANCH 4 8
BRANCH 1 35
ATOM     35  CA  PHE C 305      13.206   7.771  -5.118  0.50 34.47 LIG 0.18  C 
BRANCH 35 36
ATOM     36  CB  PHE C 305      14.014   8.786  -5.941  0.50 34.49 LIG 0.07  C 
BRANCH 36 37
ATOM     37  CG  PHE C 305      14.783   9.811  -5.124  0.50 35.55 LIG-0.06  A 
ATOM     38  CD1 PHE C 305      16.100  10.155  -5.427  0.50 36.28 LIG 0.01  A 
ATOM     39  CE1 PHE C 305      16.786  11.104  -4.662  0.50 36.66 LIG 0.00  A 
ATOM     40  CZ  PHE C 305      16.158  11.710  -3.570  0.50 36.87 LIG 0.00  A 
ATOM     41  CE2 PHE C 305      14.853  11.375  -3.254  0.50 36.76 LIG 0.00  A 
ATOM     42  CD2 PHE C 305      14.173  10.420  -4.026  0.50 36.02 LIG 0.01  A 
ENDBRANCH 36 37
ENDBRANCH 35 36
BRANCH 35 43
ATOM     43  N   PHE C 305      14.128   7.018  -4.260  0.50 33.54 LIG-0.35  N 
ATOM     44 H    PHE C 305      14.716   6.553  -4.683  0.50 33.54 LIG 0.16  HD
ATOM     45  C   ASN C 304      14.029   7.078  -2.932  0.50 33.07 LIG 0.24  C 
ATOM     46 O    ASN C 304      12.998   7.446  -2.356  0.50 33.39 LIG-0.27  OA
BRANCH 45 47
ATOM     47  CA  ASN C 304      15.277   6.672  -2.136  0.50 32.40 LIG 0.18  C 
BRANCH 47 48
ATOM     48  CB  ASN C 304      14.971   5.698  -0.988  0.50 32.38 LIG 0.14  C 
BRANCH 48 49
ATOM     49  CG  ASN C 304      15.954   5.835   0.202  0.50 31.77 LIG 0.22  C 
ATOM     50 OD1  ASN C 304      15.658   6.485   1.199  0.50 27.48 LIG-0.27  OA
ATOM     51  ND2 ASN C 304      17.138   5.253   0.063  0.50 32.56 LIG-0.37  N 
ATOM     52 21HD ASN C 304      17.729   5.326   0.684  0.50 32.56 LIG 0.16  HD
ATOM     53 22HD ASN C 304      17.315   4.804  -0.649  0.50 32.56 LIG 0.16  HD
ENDBRANCH 48 49
ENDBRANCH 47 48
BRANCH 47 54
ATOM     54  N   ASN C 304      15.928   7.840  -1.593  0.50 31.56 LIG-0.34  N 
ATOM     55  C   LEU C 303      17.002   8.347  -2.179  0.50 30.83 LIG 0.26  C 
ATOM     56 O    LEU C 303      17.365   8.002  -3.295  0.50 29.02 LIG-0.27  OA
ATOM     57 H    ASN C 304      15.566   8.160  -0.882  0.50 31.56 LIG 0.16  HD
BRANCH 55 58
ATOM     58  CA  LEU C 303      17.767   9.405  -1.374  0.50 30.56 LIG 0.40  C 
ATOM     59  N   LEU C 303      18.267   8.914  -0.061  0.50 30.88 LIG 0.61  N 
BRANCH 58 60
ATOM     60  CB  LEU C 303      18.923   9.992  -2.193  0.50 30.80 LIG 0.06  C 
BRANCH 60 61
ATOM     61  CG  LEU C 303      20.118  10.577  -1.430  0.50 30.92 LIG-0.02  C 
ATOM     62  CD2 LEU C 303      19.739  11.910  -0.760  0.50 31.43 LIG 0.01  C 
ATOM     63  CD1 LEU C 303      21.331  10.726  -2.331  0.50 30.50 LIG 0.01  C 
ENDBRANCH 60 61
ENDBRANCH 58 60
ENDBRANCH 55 58
ENDBRANCH 47 54
ENDBRANCH 45 47
ENDBRANCH 35 43
ENDBRANCH 1 35
TORSDOF 21
ENDMDL
MODEL 27
USER: ADFR SOLUTION from run 74
USER: SCORE 16.345106 LL:  -4.705 LR: -13.690 RR:   0.000 FEB:  -7.426
USER: RMSD 6.820817
USER: SEED 73
USER: STATUS no improvement in best in 16 clusters for 5 generations
USER: GENES 23
USER: genes 0 Translation |==|  0.38583 0.63969 0.26727
USER: genes 1 Rotation |==|  0.36198 0.04474 0.35065 0.53725
USER: genes 2 Torsion [N]-CA--C-[N] |==|  0.33130
USER: genes 3 Torsion [C]-N--CA-[C] |==|  0.59099
USER: genes 4 Torsion [N]-CA--C-[N] |==|  0.88640
USER: genes 5 Torsion [C]-N--CA-[CB] |==|  0.21977
USER: genes 6 Torsion [N]-CA--C-[N] |==|  0.48125
USER: genes 7 Torsion [N]-CA--C-[OXT] |==|  0.44607
USER: genes 8 Torsion [N]-CA--CB-[OG] |==|  0.96632
USER: genes 9 Torsion [CA]-CB--OG-[HG] |==|  0.45759
USER: genes 10 Torsion [N]-CA--CB-[CG2] |==|  0.37699
USER: genes 11 Torsion [CA]-CB--CG1-[CD1] |==|  0.55768
USER: genes 12 Torsion [N]-C--CA-[N] |==|  0.96309
USER: genes 13 Torsion [C]-CA--CB-[CG] |==|  0.77338
USER: genes 14 Torsion [CA]-CB--CG-[CD1] |==|  0.21899
USER: genes 15 Torsion [C]-CA--N-[C] |==|  0.73343
USER: genes 16 Torsion [N]-C--CA-[N] |==|  0.31718
USER: genes 17 Torsion [C]-CA--CB-[CG] |==|  0.14824
USER: genes 18 Torsion [CA]-CB--CG-[OD1] |==|  0.86939
USER: genes 19 Torsion [C]-CA--N-[C] |==|  0.64495
USER: genes 20 Torsion [N]-C--CA-[N] |==|  0.49114
USER: genes 21 Torsion [C]-CA--CB-[CG] |==|  0.83968
USER: genes 22 Torsion [CA]-CB--CG-[CD2] |==|  0.63877
ROOT
ATOM      1  C   PHE C 305      10.481  10.184  -4.987  0.50 34.66 LIG 0.24  C 
ATOM      2 O    PHE C 305       9.398   9.631  -4.814  0.50 33.80 LIG-0.27  OA
ATOM      3  N   PRO C 306      11.276   9.892  -6.034  0.50 35.29 LIG-0.34  N 
ATOM      4  CA  PRO C 306      11.140   8.607  -6.701  0.50 35.79 LIG 0.18  C 
ATOM      5  CB  PRO C 306      11.517   8.925  -8.166  0.50 35.80 LIG 0.04  C 
ATOM      6  CG  PRO C 306      12.011  10.376  -8.164  0.50 35.25 LIG 0.02  C 
ATOM      7  CD  PRO C 306      12.264  10.735  -6.725  0.50 35.51 LIG 0.13  C 
ENDROOT
BRANCH 4 8
ATOM      8  C   PRO C 306      12.148   7.606  -6.132  0.50 36.50 LIG 0.24  C 
ATOM      9  N   ILE C 307      11.625   6.508  -5.561  0.50 37.01 LIG-0.35  N 
ATOM     10 H    ILE C 307      10.785   6.366  -5.445  0.50 37.01 LIG 0.16  HD
ATOM     11 O    PRO C 306      13.376   7.825  -6.226  0.50 36.74 LIG-0.27  OA
BRANCH 9 12
ATOM     12  CA  ILE C 307      12.509   5.443  -5.084  0.50 37.44 LIG 0.18  C 
BRANCH 12 13
ATOM     13  C   ILE C 307      11.881   4.054  -5.216  0.50 38.23 LIG 0.24  C 
ATOM     14  N   SER C 308      10.592   3.990  -4.895  0.50 38.91 LIG-0.34  N 
ATOM     15 H    SER C 308      10.171   4.639  -4.519  0.50 38.91 LIG 0.16  HD
ATOM     16 O    ILE C 307      12.544   3.081  -5.605  0.50 38.79 LIG-0.27  OA
BRANCH 14 17
ATOM     17  CA  SER C 308       9.753   2.820  -5.140  0.50 39.43 LIG 0.20  C 
BRANCH 17 18
ATOM     18  C   SER C 308       8.308   3.320  -5.083  0.50 39.77 LIG 0.24  C 
ATOM     19  N   PRO C 309       7.338   2.451  -5.417  0.50 40.03 LIG-0.34  N 
ATOM     20  CD  PRO C 309       7.423   0.983  -5.490  0.50 39.83 LIG 0.13  C 
ATOM     21  CA  PRO C 309       5.990   2.937  -5.719  0.50 40.09 LIG 0.19  C 
ATOM     22  CG  PRO C 309       6.202   0.616  -6.274  0.50 40.19 LIG 0.02  C 
ATOM     23  CB  PRO C 309       5.181   1.645  -5.895  0.50 40.09 LIG 0.04  C 
ATOM     24 O    SER C 308       8.064   4.476  -4.725  0.50 39.81 LIG-0.27  OA
BRANCH 21 25
ATOM     25  C   PRO C 309       5.400   3.814  -4.615  0.50 40.04 LIG 0.20  C 
ATOM     26 OXT  PRO C 309       4.458   4.581  -4.835  0.50 40.10 LIG-0.65  OA
ATOM     27 O    PRO C 309       5.864   3.786  -3.473  0.50 40.34 LIG-0.65  OA
ENDBRANCH 21 25
ENDBRANCH 17 18
BRANCH 17 28
ATOM     28  CB  SER C 308       9.990   1.744  -4.077  0.50 39.49 LIG 0.20  C 
BRANCH 28 29
ATOM     29 OG   SER C 308      11.142   2.029  -3.297  0.50 39.70 LIG-0.40  OA
ATOM     30 HG   SER C 308      11.136   1.556  -2.604  0.50 39.70 LIG 0.21  HD
ENDBRANCH 28 29
ENDBRANCH 17 28
ENDBRANCH 14 17
ENDBRANCH 12 13
BRANCH 12 31
ATOM     31  CB  ILE C 307      12.920   5.637  -3.604  0.50 37.20 LIG 0.01  C 
ATOM     32  CG2 ILE C 307      12.826   4.313  -2.831  0.50 36.86 LIG 0.01  C 
BRANCH 31 33
ATOM     33  CG1 ILE C 307      14.320   6.273  -3.540  0.50 35.88 LIG 0.00  C 
ATOM     34  CD1 ILE C 307      15.059   6.084  -2.238  0.50 32.01 LIG 0.01  C 
ENDBRANCH 31 33
ENDBRANCH 12 31
ENDBRANCH 9 12
ENDBRANCH 4 8
BRANCH 1 35
ATOM     35  CA  PHE C 305      10.944  11.273  -4.011  0.50 34.47 LIG 0.18  C 
BRANCH 35 36
ATOM     36  CB  PHE C 305      10.054  12.504  -4.243  0.50 34.49 LIG 0.07  C 
BRANCH 36 37
ATOM     37  CG  PHE C 305      10.462  13.380  -5.416  0.50 35.55 LIG-0.06  A 
ATOM     38  CD1 PHE C 305      10.153  13.038  -6.732  0.50 36.28 LIG 0.01  A 
ATOM     39  CE1 PHE C 305      10.535  13.863  -7.794  0.50 36.66 LIG 0.00  A 
ATOM     40  CZ  PHE C 305      11.248  15.040  -7.546  0.50 36.87 LIG 0.00  A 
ATOM     41  CE2 PHE C 305      11.566  15.390  -6.246  0.50 36.76 LIG 0.00  A 
ATOM     42  CD2 PHE C 305      11.180  14.555  -5.186  0.50 36.02 LIG 0.01  A 
ENDBRANCH 36 37
ENDBRANCH 35 36
BRANCH 35 43
ATOM     43  N   PHE C 305      12.349  11.672  -4.153  0.50 33.54 LIG-0.35  N 
ATOM     44 H    PHE C 305      12.495  12.263  -4.760  0.50 33.54 LIG 0.16  HD
ATOM     45  C   ASN C 304      13.294  11.135  -3.381  0.50 33.07 LIG 0.24  C 
ATOM     46 O    ASN C 304      13.136  10.065  -2.781  0.50 33.39 LIG-0.27  OA
BRANCH 45 47
ATOM     47  CA  ASN C 304      14.604  11.924  -3.258  0.50 32.40 LIG 0.18  C 
BRANCH 47 48
ATOM     48  CB  ASN C 304      15.841  11.108  -3.665  0.50 32.38 LIG 0.14  C 
BRANCH 48 49
ATOM     49  CG  ASN C 304      15.715  10.478  -5.075  0.50 31.77 LIG 0.22  C 
ATOM     50 OD1  ASN C 304      14.700   9.880  -5.415  0.50 27.48 LIG-0.27  OA
ATOM     51  ND2 ASN C 304      16.775  10.581  -5.867  0.50 32.56 LIG-0.37  N 
ATOM     52 21HD ASN C 304      16.764  10.222  -6.649  0.50 32.56 LIG 0.16  HD
ATOM     53 22HD ASN C 304      17.472  11.008  -5.599  0.50 32.56 LIG 0.16  HD
ENDBRANCH 48 49
ENDBRANCH 47 48
BRANCH 47 54
ATOM     54  N   ASN C 304      14.783  12.396  -1.907  0.50 31.56 LIG-0.34  N 
ATOM     55  C   LEU C 303      15.033  13.675  -1.666  0.50 30.83 LIG 0.26  C 
ATOM     56 O    LEU C 303      14.916  14.539  -2.523  0.50 29.02 LIG-0.27  OA
ATOM     57 H    ASN C 304      14.714  11.791  -1.300  0.50 31.56 LIG 0.16  HD
BRANCH 55 58
ATOM     58  CA  LEU C 303      15.476  14.011  -0.236  0.50 30.56 LIG 0.40  C 
ATOM     59  N   LEU C 303      15.817  15.446  -0.036  0.50 30.88 LIG 0.61  N 
BRANCH 58 60
ATOM     60  CB  LEU C 303      14.421  13.571   0.786  0.50 30.80 LIG 0.06  C 
BRANCH 60 61
ATOM     61  CG  LEU C 303      13.004  14.138   0.642  0.50 30.92 LIG-0.02  C 
ATOM     62  CD2 LEU C 303      12.504  14.707   1.983  0.50 31.43 LIG 0.01  C 
ATOM     63  CD1 LEU C 303      12.047  13.102   0.079  0.50 30.50 LIG 0.01  C 
ENDBRANCH 60 61
ENDBRANCH 58 60
ENDBRANCH 55 58
ENDBRANCH 47 54
ENDBRANCH 45 47
ENDBRANCH 35 43
ENDBRANCH 1 35
TORSDOF 21
ENDMDL
MODEL 28
USER: ADFR SOLUTION from run 161
USER: SCORE 18.179130 LL:  -5.543 LR: -13.673 RR:   0.000 FEB:  -7.408
USER: RMSD 8.397782
USER: SEED 160
USER: STATUS no improvement in best in 24 clusters for 5 generations
USER: GENES 23
USER: genes 0 Translation |==|  0.47425 0.43393 0.39532
USER: genes 1 Rotation |==|  0.30945 0.87916 0.59175 0.74801
USER: genes 2 Torsion [N]-CA--C-[N] |==|  0.03543
USER: genes 3 Torsion [C]-N--CA-[C] |==|  0.69289
USER: genes 4 Torsion [N]-CA--C-[N] |==|  0.03402
USER: genes 5 Torsion [C]-N--CA-[CB] |==|  0.53900
USER: genes 6 Torsion [N]-CA--C-[N] |==|  0.30689
USER: genes 7 Torsion [N]-CA--C-[OXT] |==|  0.79502
USER: genes 8 Torsion [N]-CA--CB-[OG] |==|  0.97522
USER: genes 9 Torsion [CA]-CB--OG-[HG] |==|  0.22654
USER: genes 10 Torsion [N]-CA--CB-[CG2] |==|  0.22813
USER: genes 11 Torsion [CA]-CB--CG1-[CD1] |==|  0.15227
USER: genes 12 Torsion [N]-C--CA-[N] |==|  0.02211
USER: genes 13 Torsion [C]-CA--CB-[CG] |==|  0.85607
USER: genes 14 Torsion [CA]-CB--CG-[CD1] |==|  0.28808
USER: genes 15 Torsion [C]-CA--N-[C] |==|  0.67078
USER: genes 16 Torsion [N]-C--CA-[N] |==|  0.19022
USER: genes 17 Torsion [C]-CA--CB-[CG] |==|  0.72000
USER: genes 18 Torsion [CA]-CB--CG-[OD1] |==|  0.20280
USER: genes 19 Torsion [C]-CA--N-[C] |==|  0.74781
USER: genes 20 Torsion [N]-C--CA-[N] |==|  0.28478
USER: genes 21 Torsion [C]-CA--CB-[CG] |==|  0.70976
USER: genes 22 Torsion [CA]-CB--CG-[CD2] |==|  0.56129
ROOT
ATOM      1  C   PHE C 305      12.735   5.245  -2.394  0.50 34.66 LIG 0.24  C 
ATOM      2 O    PHE C 305      12.944   4.080  -2.716  0.50 33.80 LIG-0.27  OA
ATOM      3  N   PRO C 306      13.625   5.963  -1.681  0.50 35.29 LIG-0.34  N 
ATOM      4  CA  PRO C 306      14.605   5.273  -0.857  0.50 35.79 LIG 0.18  C 
ATOM      5  CB  PRO C 306      15.827   6.220  -0.891  0.50 35.80 LIG 0.04  C 
ATOM      6  CG  PRO C 306      15.355   7.483  -1.619  0.50 35.25 LIG 0.02  C 
ATOM      7  CD  PRO C 306      13.853   7.416  -1.655  0.50 35.51 LIG 0.13  C 
ENDROOT
BRANCH 4 8
ATOM      8  C   PRO C 306      14.101   5.161   0.584  0.50 36.50 LIG 0.24  C 
ATOM      9  N   ILE C 307      12.802   5.449   0.775  0.50 37.01 LIG-0.35  N 
ATOM     10 H    ILE C 307      12.269   5.741   0.168  0.50 37.01 LIG 0.16  HD
ATOM     11 O    PRO C 306      14.878   4.807   1.498  0.50 36.74 LIG-0.27  OA
BRANCH 9 12
ATOM     12  CA  ILE C 307      12.203   5.268   2.098  0.50 37.44 LIG 0.18  C 
BRANCH 12 13
ATOM     13  C   ILE C 307      11.203   4.109   2.138  0.50 38.23 LIG 0.24  C 
ATOM     14  N   SER C 308      11.230   3.311   1.074  0.50 38.91 LIG-0.34  N 
ATOM     15 H    SER C 308      11.675   3.497   0.362  0.50 38.91 LIG 0.16  HD
ATOM     16 O    ILE C 307      10.446   3.944   3.105  0.50 38.79 LIG-0.27  OA
BRANCH 14 17
ATOM     17  CA  SER C 308      10.512   2.042   0.996  0.50 39.43 LIG 0.20  C 
BRANCH 17 18
ATOM     18  C   SER C 308      10.791   1.321   2.317  0.50 39.77 LIG 0.24  C 
ATOM     19  N   PRO C 309       9.767   1.189   3.179  0.50 40.03 LIG-0.34  N 
ATOM     20  CD  PRO C 309       8.328   1.319   2.902  0.50 39.83 LIG 0.13  C 
ATOM     21  CA  PRO C 309      10.026   0.831   4.575  0.50 40.09 LIG 0.19  C 
ATOM     22  CG  PRO C 309       7.735   1.463   4.269  0.50 40.19 LIG 0.02  C 
ATOM     23  CB  PRO C 309       8.619   0.640   5.156  0.50 40.09 LIG 0.04  C 
ATOM     24 O    SER C 308      11.915   0.870   2.553  0.50 39.81 LIG-0.27  OA
BRANCH 21 25
ATOM     25  C   PRO C 309      10.867  -0.436   4.730  0.50 40.04 LIG 0.20  C 
ATOM     26 OXT  PRO C 309      10.392  -1.555   4.517  0.50 40.10 LIG-0.65  OA
ATOM     27 O    PRO C 309      12.045  -0.371   5.087  0.50 40.34 LIG-0.65  OA
ENDBRANCH 21 25
ENDBRANCH 17 18
BRANCH 17 28
ATOM     28  CB  SER C 308      11.006   1.206  -0.186  0.50 39.49 LIG 0.20  C 
BRANCH 28 29
ATOM     29 OG   SER C 308      11.882   1.951  -1.020  0.50 39.70 LIG-0.40  OA
ATOM     30 HG   SER C 308      12.654   1.949  -0.689  0.50 39.70 LIG 0.21  HD
ENDBRANCH 28 29
ENDBRANCH 17 28
ENDBRANCH 14 17
ENDBRANCH 12 13
BRANCH 12 31
ATOM     31  CB  ILE C 307      11.472   6.540   2.593  0.50 37.20 LIG 0.01  C 
ATOM     32  CG2 ILE C 307      10.060   6.628   1.995  0.50 36.86 LIG 0.01  C 
BRANCH 31 33
ATOM     33  CG1 ILE C 307      11.476   6.567   4.132  0.50 35.88 LIG 0.00  C 
ATOM     34  CD1 ILE C 307      12.835   6.457   4.779  0.50 32.01 LIG 0.01  C 
ENDBRANCH 31 33
ENDBRANCH 12 31
ENDBRANCH 9 12
ENDBRANCH 4 8
BRANCH 1 35
ATOM     35  CA  PHE C 305      11.442   5.939  -2.840  0.50 34.47 LIG 0.18  C 
BRANCH 35 36
ATOM     36  CB  PHE C 305      11.288   5.694  -4.349  0.50 34.49 LIG 0.07  C 
BRANCH 36 37
ATOM     37  CG  PHE C 305      12.505   6.051  -5.187  0.50 35.55 LIG-0.06  A 
ATOM     38  CD1 PHE C 305      13.363   5.075  -5.691  0.50 36.28 LIG 0.01  A 
ATOM     39  CE1 PHE C 305      14.475   5.428  -6.462  0.50 36.66 LIG 0.00  A 
ATOM     40  CZ  PHE C 305      14.746   6.774  -6.725  0.50 36.87 LIG 0.00  A 
ATOM     41  CE2 PHE C 305      13.907   7.754  -6.227  0.50 36.76 LIG 0.00  A 
ATOM     42  CD2 PHE C 305      12.794   7.391  -5.452  0.50 36.02 LIG 0.01  A 
ENDBRANCH 36 37
ENDBRANCH 35 36
BRANCH 35 43
ATOM     43  N   PHE C 305      11.399   7.384  -2.590  0.50 33.54 LIG-0.35  N 
ATOM     44 H    PHE C 305      12.005   7.839  -2.998  0.50 33.54 LIG 0.16  HD
ATOM     45  C   ASN C 304      10.475   7.912  -1.786  0.50 33.07 LIG 0.24  C 
ATOM     46 O    ASN C 304       9.856   7.241  -0.952  0.50 33.39 LIG-0.27  OA
BRANCH 45 47
ATOM     47  CA  ASN C 304      10.202   9.413  -1.954  0.50 32.40 LIG 0.18  C 
BRANCH 47 48
ATOM     48  CB  ASN C 304       9.328   9.996  -0.834  0.50 32.38 LIG 0.14  C 
BRANCH 48 49
ATOM     49  CG  ASN C 304       7.846  10.175  -1.251  0.50 31.77 LIG 0.22  C 
ATOM     50 OD1  ASN C 304       7.100   9.210  -1.375  0.50 27.48 LIG-0.27  OA
ATOM     51  ND2 ASN C 304       7.448  11.415  -1.507  0.50 32.56 LIG-0.37  N 
ATOM     52 21HD ASN C 304       6.642  11.562  -1.770  0.50 32.56 LIG 0.16  HD
ATOM     53 22HD ASN C 304       7.995  12.071  -1.410  0.50 32.56 LIG 0.16  HD
ENDBRANCH 48 49
ENDBRANCH 47 48
BRANCH 47 54
ATOM     54  N   ASN C 304       9.563   9.669  -3.223  0.50 31.56 LIG-0.34  N 
ATOM     55  C   LEU C 303      10.286   9.935  -4.300  0.50 30.83 LIG 0.26  C 
ATOM     56 O    LEU C 303      11.497   9.772  -4.334  0.50 29.02 LIG-0.27  OA
ATOM     57 H    ASN C 304       8.704   9.633  -3.210  0.50 31.56 LIG 0.16  HD
BRANCH 55 58
ATOM     58  CA  LEU C 303       9.508  10.459  -5.514  0.50 30.56 LIG 0.40  C 
ATOM     59  N   LEU C 303       9.631  11.929  -5.717  0.50 30.88 LIG 0.61  N 
BRANCH 58 60
ATOM     60  CB  LEU C 303       9.913   9.714  -6.791  0.50 30.80 LIG 0.06  C 
BRANCH 60 61
ATOM     61  CG  LEU C 303      10.825  10.441  -7.787  0.50 30.92 LIG-0.02  C 
ATOM     62  CD2 LEU C 303      10.695   9.831  -9.195  0.50 31.43 LIG 0.01  C 
ATOM     63  CD1 LEU C 303      12.267  10.452  -7.311  0.50 30.50 LIG 0.01  C 
ENDBRANCH 60 61
ENDBRANCH 58 60
ENDBRANCH 55 58
ENDBRANCH 47 54
ENDBRANCH 45 47
ENDBRANCH 35 43
ENDBRANCH 1 35
TORSDOF 21
ENDMDL
MODEL 29
USER: ADFR SOLUTION from run 67
USER: SCORE 17.476327 LL:  -5.370 LR: -13.665 RR:   0.000 FEB:  -7.401
USER: RMSD 6.915677
USER: SEED 66
USER: STATUS no improvement in best in 17 clusters for 5 generations
USER: GENES 23
USER: genes 0 Translation |==|  0.38756 0.47186 0.27531
USER: genes 1 Rotation |==|  0.72887 0.88179 0.64781 0.67323
USER: genes 2 Torsion [N]-CA--C-[N] |==|  0.26141
USER: genes 3 Torsion [C]-N--CA-[C] |==|  0.71489
USER: genes 4 Torsion [N]-CA--C-[N] |==|  0.05142
USER: genes 5 Torsion [C]-N--CA-[CB] |==|  0.85556
USER: genes 6 Torsion [N]-CA--C-[N] |==|  0.08095
USER: genes 7 Torsion [N]-CA--C-[OXT] |==|  0.88977
USER: genes 8 Torsion [N]-CA--CB-[OG] |==|  0.83951
USER: genes 9 Torsion [CA]-CB--OG-[HG] |==|  0.85971
USER: genes 10 Torsion [N]-CA--CB-[CG2] |==|  0.60730
USER: genes 11 Torsion [CA]-CB--CG1-[CD1] |==|  0.80518
USER: genes 12 Torsion [N]-C--CA-[N] |==|  0.05368
USER: genes 13 Torsion [C]-CA--CB-[CG] |==|  0.32283
USER: genes 14 Torsion [CA]-CB--CG-[CD1] |==|  0.05497
USER: genes 15 Torsion [C]-CA--N-[C] |==|  0.70599
USER: genes 16 Torsion [N]-C--CA-[N] |==|  0.04760
USER: genes 17 Torsion [C]-CA--CB-[CG] |==|  0.25573
USER: genes 18 Torsion [CA]-CB--CG-[OD1] |==|  0.31453
USER: genes 19 Torsion [C]-CA--N-[C] |==|  0.74120
USER: genes 20 Torsion [N]-C--CA-[N] |==|  0.34986
USER: genes 21 Torsion [C]-CA--CB-[CG] |==|  0.03703
USER: genes 22 Torsion [CA]-CB--CG-[CD2] |==|  0.75019
ROOT
ATOM      1  C   PHE C 305      10.525   6.156  -4.824  0.50 34.66 LIG 0.24  C 
ATOM      2 O    PHE C 305       9.457   6.370  -5.389  0.50 33.80 LIG-0.27  OA
ATOM      3  N   PRO C 306      11.325   5.127  -5.167  0.50 35.29 LIG-0.34  N 
ATOM      4  CA  PRO C 306      10.754   3.972  -5.842  0.50 35.79 LIG 0.18  C 
ATOM      5  CB  PRO C 306      11.913   3.477  -6.739  0.50 35.80 LIG 0.04  C 
ATOM      6  CG  PRO C 306      13.130   4.326  -6.353  0.50 35.25 LIG 0.02  C 
ATOM      7  CD  PRO C 306      12.785   4.994  -5.050  0.50 35.51 LIG 0.13  C 
ENDROOT
BRANCH 4 8
ATOM      8  C   PRO C 306      10.409   2.881  -4.826  0.50 36.50 LIG 0.24  C 
ATOM      9  N   ILE C 307       9.145   2.881  -4.372  0.50 37.01 LIG-0.35  N 
ATOM     10 H    ILE C 307       8.553   3.475  -4.565  0.50 37.01 LIG 0.16  HD
ATOM     11 O    PRO C 306      11.276   2.049  -4.475  0.50 36.74 LIG-0.27  OA
BRANCH 9 12
ATOM     12  CA  ILE C 307       8.690   1.814  -3.479  0.50 37.44 LIG 0.18  C 
BRANCH 12 13
ATOM     13  C   ILE C 307       7.835   0.769  -4.199  0.50 38.23 LIG 0.24  C 
ATOM     14  N   SER C 308       7.956   0.764  -5.524  0.50 38.91 LIG-0.34  N 
ATOM     15 H    SER C 308       8.377   1.376  -5.957  0.50 38.91 LIG 0.16  HD
ATOM     16 O    ILE C 307       7.101  -0.008  -3.571  0.50 38.79 LIG-0.27  OA
BRANCH 14 17
ATOM     17  CA  SER C 308       7.393  -0.273  -6.384  0.50 39.43 LIG 0.20  C 
BRANCH 17 18
ATOM     18  C   SER C 308       5.873  -0.113  -6.295  0.50 39.77 LIG 0.24  C 
ATOM     19  N   PRO C 309       5.393   1.120  -6.053  0.50 40.03 LIG-0.34  N 
ATOM     20  CD  PRO C 309       6.087   2.408  -6.212  0.50 39.83 LIG 0.13  C 
ATOM     21  CA  PRO C 309       4.006   1.294  -5.617  0.50 40.09 LIG 0.19  C 
ATOM     22  CG  PRO C 309       5.221   3.352  -5.438  0.50 40.19 LIG 0.02  C 
ATOM     23  CB  PRO C 309       3.831   2.818  -5.606  0.50 40.09 LIG 0.04  C 
ATOM     24 O    SER C 308       5.135  -1.089  -6.458  0.50 39.81 LIG-0.27  OA
BRANCH 21 25
ATOM     25  C   PRO C 309       2.991   0.626  -6.543  0.50 40.04 LIG 0.20  C 
ATOM     26 OXT  PRO C 309       3.123   0.651  -7.770  0.50 40.10 LIG-0.65  OA
ATOM     27 O    PRO C 309       2.001   0.052  -6.084  0.50 40.34 LIG-0.65  OA
ENDBRANCH 21 25
ENDBRANCH 17 18
BRANCH 17 28
ATOM     28  CB  SER C 308       7.813  -1.666  -5.909  0.50 39.49 LIG 0.20  C 
BRANCH 28 29
ATOM     29 OG   SER C 308       9.227  -1.798  -5.873  0.50 39.70 LIG-0.40  OA
ATOM     30 HG   SER C 308       9.551  -1.548  -6.607  0.50 39.70 LIG 0.21  HD
ENDBRANCH 28 29
ENDBRANCH 17 28
ENDBRANCH 14 17
ENDBRANCH 12 13
BRANCH 12 31
ATOM     31  CB  ILE C 307       7.869   2.356  -2.284  0.50 37.20 LIG 0.01  C 
ATOM     32  CG2 ILE C 307       8.199   1.583  -0.998  0.50 36.86 LIG 0.01  C 
BRANCH 31 33
ATOM     33  CG1 ILE C 307       8.098   3.871  -2.149  0.50 35.88 LIG 0.00  C 
ATOM     34  CD1 ILE C 307       9.472   4.280  -1.677  0.50 32.01 LIG 0.01  C 
ENDBRANCH 31 33
ENDBRANCH 12 31
ENDBRANCH 9 12
ENDBRANCH 4 8
BRANCH 1 35
ATOM     35  CA  PHE C 305      11.003   7.101  -3.714  0.50 34.47 LIG 0.18  C 
BRANCH 35 36
ATOM     36  CB  PHE C 305      10.617   8.529  -4.132  0.50 34.49 LIG 0.07  C 
BRANCH 36 37
ATOM     37  CG  PHE C 305       9.615   9.218  -3.219  0.50 35.55 LIG-0.06  A 
ATOM     38  CD1 PHE C 305       9.398   8.790  -1.910  0.50 36.28 LIG 0.01  A 
ATOM     39  CE1 PHE C 305       8.474   9.442  -1.089  0.50 36.66 LIG 0.00  A 
ATOM     40  CZ  PHE C 305       7.744  10.529  -1.580  0.50 36.87 LIG 0.00  A 
ATOM     41  CE2 PHE C 305       7.945  10.961  -2.878  0.50 36.76 LIG 0.00  A 
ATOM     42  CD2 PHE C 305       8.873  10.299  -3.697  0.50 36.02 LIG 0.01  A 
ENDBRANCH 36 37
ENDBRANCH 35 36
BRANCH 35 43
ATOM     43  N   PHE C 305      12.445   7.061  -3.448  0.50 33.54 LIG-0.35  N 
ATOM     44 H    PHE C 305      12.932   7.445  -4.044  0.50 33.54 LIG 0.16  HD
ATOM     45  C   ASN C 304      12.922   6.464  -2.355  0.50 33.07 LIG 0.24  C 
ATOM     46 O    ASN C 304      12.272   5.632  -1.712  0.50 33.39 LIG-0.27  OA
BRANCH 45 47
ATOM     47  CA  ASN C 304      14.336   6.872  -1.918  0.50 32.40 LIG 0.18  C 
BRANCH 47 48
ATOM     48  CB  ASN C 304      14.476   7.027  -0.396  0.50 32.38 LIG 0.14  C 
BRANCH 48 49
ATOM     49  CG  ASN C 304      14.944   5.727   0.306  0.50 31.77 LIG 0.22  C 
ATOM     50 OD1  ASN C 304      16.041   5.657   0.848  0.50 27.48 LIG-0.27  OA
ATOM     51  ND2 ASN C 304      14.116   4.691   0.248  0.50 32.56 LIG-0.37  N 
ATOM     52 21HD ASN C 304      14.343   3.938   0.598  0.50 32.56 LIG 0.16  HD
ATOM     53 22HD ASN C 304      13.352   4.772  -0.139  0.50 32.56 LIG 0.16  HD
ENDBRANCH 48 49
ENDBRANCH 47 48
BRANCH 47 54
ATOM     54  N   ASN C 304      14.720   8.111  -2.548  0.50 31.56 LIG-0.34  N 
ATOM     55  C   LEU C 303      15.393   8.108  -3.689  0.50 30.83 LIG 0.26  C 
ATOM     56 O    LEU C 303      15.535   7.099  -4.364  0.50 29.02 LIG-0.27  OA
ATOM     57 H    ASN C 304      14.478   8.822  -2.128  0.50 31.56 LIG 0.16  HD
BRANCH 55 58
ATOM     58  CA  LEU C 303      15.983   9.457  -4.121  0.50 30.56 LIG 0.40  C 
ATOM     59  N   LEU C 303      17.445   9.411  -4.397  0.50 30.88 LIG 0.61  N 
BRANCH 58 60
ATOM     60  CB  LEU C 303      15.233  10.024  -5.332  0.50 30.80 LIG 0.06  C 
BRANCH 60 61
ATOM     61  CG  LEU C 303      13.893   9.382  -5.709  0.50 30.92 LIG-0.02  C 
ATOM     62  CD2 LEU C 303      14.101   8.224  -6.703  0.50 31.43 LIG 0.01  C 
ATOM     63  CD1 LEU C 303      12.917  10.414  -6.247  0.50 30.50 LIG 0.01  C 
ENDBRANCH 60 61
ENDBRANCH 58 60
ENDBRANCH 55 58
ENDBRANCH 47 54
ENDBRANCH 45 47
ENDBRANCH 35 43
ENDBRANCH 1 35
TORSDOF 21
ENDMDL
MODEL 30
USER: ADFR SOLUTION from run 200
USER: SCORE 17.911828 LL:  -5.182 LR: -13.650 RR:   0.000 FEB:  -7.386
USER: RMSD 12.445116
USER: SEED 199
USER: STATUS no improvement in best in 18 clusters for 5 generations
USER: GENES 23
USER: genes 0 Translation |==|  0.59941 0.65918 0.82304
USER: genes 1 Rotation |==|  0.31908 0.78571 0.13362 0.53748
USER: genes 2 Torsion [N]-CA--C-[N] |==|  0.63141
USER: genes 3 Torsion [C]-N--CA-[C] |==|  0.83009
USER: genes 4 Torsion [N]-CA--C-[N] |==|  0.94215
USER: genes 5 Torsion [C]-N--CA-[CB] |==|  0.53701
USER: genes 6 Torsion [N]-CA--C-[N] |==|  0.38534
USER: genes 7 Torsion [N]-CA--C-[OXT] |==|  0.42679
USER: genes 8 Torsion [N]-CA--CB-[OG] |==|  0.82857
USER: genes 9 Torsion [CA]-CB--OG-[HG] |==|  0.64131
USER: genes 10 Torsion [N]-CA--CB-[CG2] |==|  0.35087
USER: genes 11 Torsion [CA]-CB--CG1-[CD1] |==|  0.86433
USER: genes 12 Torsion [N]-C--CA-[N] |==|  0.09444
USER: genes 13 Torsion [C]-CA--CB-[CG] |==|  0.20516
USER: genes 14 Torsion [CA]-CB--CG-[CD1] |==|  0.66905
USER: genes 15 Torsion [C]-CA--N-[C] |==|  0.67713
USER: genes 16 Torsion [N]-C--CA-[N] |==|  0.21446
USER: genes 17 Torsion [C]-CA--CB-[CG] |==|  0.53122
USER: genes 18 Torsion [CA]-CB--CG-[OD1] |==|  0.29162
USER: genes 19 Torsion [C]-CA--N-[C] |==|  0.76764
USER: genes 20 Torsion [N]-C--CA-[N] |==|  0.32045
USER: genes 21 Torsion [C]-CA--CB-[CG] |==|  0.04972
USER: genes 22 Torsion [CA]-CB--CG-[CD2] |==|  0.68949
ROOT
ATOM      1  C   PHE C 305      15.927  10.651   6.268  0.50 34.66 LIG 0.24  C 
ATOM      2 O    PHE C 305      15.376  10.964   7.319  0.50 33.80 LIG-0.27  OA
ATOM      3  N   PRO C 306      17.256  10.781   6.087  0.50 35.29 LIG-0.34  N 
ATOM      4  CA  PRO C 306      17.999  11.729   6.901  0.50 35.79 LIG 0.18  C 
ATOM      5  CB  PRO C 306      19.392  11.071   7.031  0.50 35.80 LIG 0.04  C 
ATOM      6  CG  PRO C 306      19.362   9.847   6.108  0.50 35.25 LIG 0.02  C 
ATOM      7  CD  PRO C 306      18.163  10.018   5.216  0.50 35.51 LIG 0.13  C 
ENDROOT
BRANCH 4 8
ATOM      8  C   PRO C 306      18.144  13.062   6.163  0.50 36.50 LIG 0.24  C 
ATOM      9  N   ILE C 307      19.377  13.595   6.152  0.50 37.01 LIG-0.35  N 
ATOM     10 H    ILE C 307      20.055  13.275   6.572  0.50 37.01 LIG 0.16  HD
ATOM     11 O    PRO C 306      17.154  13.585   5.604  0.50 36.74 LIG-0.27  OA
BRANCH 9 12
ATOM     12  CA  ILE C 307      19.638  14.813   5.382  0.50 37.44 LIG 0.18  C 
BRANCH 12 13
ATOM     13  C   ILE C 307      19.380  14.629   3.885  0.50 38.23 LIG 0.24  C 
ATOM     14  N   SER C 308      19.396  13.367   3.465  0.50 38.91 LIG-0.34  N 
ATOM     15 H    SER C 308      19.657  12.713   3.960  0.50 38.91 LIG 0.16  HD
ATOM     16 O    ILE C 307      19.165  15.599   3.144  0.50 38.79 LIG-0.27  OA
BRANCH 14 17
ATOM     17  CA  SER C 308      18.977  12.953   2.129  0.50 39.43 LIG 0.20  C 
BRANCH 17 18
ATOM     18  C   SER C 308      17.646  13.662   1.869  0.50 39.77 LIG 0.24  C 
ATOM     19  N   PRO C 309      17.448  14.177   0.642  0.50 40.03 LIG-0.34  N 
ATOM     20  CD  PRO C 309      18.169  13.858  -0.601  0.50 39.83 LIG 0.13  C 
ATOM     21  CA  PRO C 309      16.377  15.150   0.420  0.50 40.09 LIG 0.19  C 
ATOM     22  CG  PRO C 309      17.795  14.991  -1.505  0.50 40.19 LIG 0.02  C 
ATOM     23  CB  PRO C 309      16.400  15.357  -1.101  0.50 40.09 LIG 0.04  C 
ATOM     24 O    SER C 308      16.794  13.732   2.759  0.50 39.81 LIG-0.27  OA
BRANCH 21 25
ATOM     25  C   PRO C 309      15.007  14.663   0.892  0.50 40.04 LIG 0.20  C 
ATOM     26 OXT  PRO C 309      14.123  15.454   1.231  0.50 40.10 LIG-0.65  OA
ATOM     27 O    PRO C 309      14.756  13.458   0.958  0.50 40.34 LIG-0.65  OA
ENDBRANCH 21 25
ENDBRANCH 17 18
BRANCH 17 28
ATOM     28  CB  SER C 308      18.798  11.434   2.058  0.50 39.49 LIG 0.20  C 
BRANCH 28 29
ATOM     29 OG   SER C 308      20.016  10.755   2.323  0.50 39.70 LIG-0.40  OA
ATOM     30 HG   SER C 308      20.163  10.194   1.715  0.50 39.70 LIG 0.21  HD
ENDBRANCH 28 29
ENDBRANCH 17 28
ENDBRANCH 14 17
ENDBRANCH 12 13
BRANCH 12 31
ATOM     31  CB  ILE C 307      21.092  15.318   5.553  0.50 37.20 LIG 0.01  C 
ATOM     32  CG2 ILE C 307      21.771  15.505   4.188  0.50 36.86 LIG 0.01  C 
BRANCH 31 33
ATOM     33  CG1 ILE C 307      21.092  16.599   6.405  0.50 35.88 LIG 0.00  C 
ATOM     34  CD1 ILE C 307      20.103  17.658   5.983  0.50 32.01 LIG 0.01  C 
ENDBRANCH 31 33
ENDBRANCH 12 31
ENDBRANCH 9 12
ENDBRANCH 4 8
BRANCH 1 35
ATOM     35  CA  PHE C 305      15.099  10.055   5.122  0.50 34.47 LIG 0.18  C 
BRANCH 35 36
ATOM     36  CB  PHE C 305      13.834   9.441   5.743  0.50 34.49 LIG 0.07  C 
BRANCH 36 37
ATOM     37  CG  PHE C 305      12.792  10.446   6.205  0.50 35.55 LIG-0.06  A 
ATOM     38  CD1 PHE C 305      12.392  10.530   7.539  0.50 36.28 LIG 0.01  A 
ATOM     39  CE1 PHE C 305      11.434  11.465   7.941  0.50 36.66 LIG 0.00  A 
ATOM     40  CZ  PHE C 305      10.853  12.322   7.001  0.50 36.87 LIG 0.00  A 
ATOM     41  CE2 PHE C 305      11.236  12.247   5.674  0.50 36.76 LIG 0.00  A 
ATOM     42  CD2 PHE C 305      12.197  11.304   5.278  0.50 36.02 LIG 0.01  A 
ENDBRANCH 36 37
ENDBRANCH 35 36
BRANCH 35 43
ATOM     43  N   PHE C 305      15.786   9.024   4.336  0.50 33.54 LIG-0.35  N 
ATOM     44 H    PHE C 305      15.992   8.313   4.775  0.50 33.54 LIG 0.16  HD
ATOM     45  C   ASN C 304      16.053   9.215   3.043  0.50 33.07 LIG 0.24  C 
ATOM     46 O    ASN C 304      16.079  10.338   2.526  0.50 33.39 LIG-0.27  OA
BRANCH 45 47
ATOM     47  CA  ASN C 304      16.321   7.954   2.209  0.50 32.40 LIG 0.18  C 
BRANCH 47 48
ATOM     48  CB  ASN C 304      17.066   8.246   0.898  0.50 32.38 LIG 0.14  C 
BRANCH 48 49
ATOM     49  CG  ASN C 304      17.093   7.033  -0.067  0.50 31.77 LIG 0.22  C 
ATOM     50 OD1  ASN C 304      16.380   6.998  -1.063  0.50 27.48 LIG-0.27  OA
ATOM     51  ND2 ASN C 304      17.890   6.026   0.269  0.50 32.56 LIG-0.37  N 
ATOM     52 21HD ASN C 304      17.918   5.318  -0.220  0.50 32.56 LIG 0.16  HD
ATOM     53 22HD ASN C 304      18.379   6.081   0.974  0.50 32.56 LIG 0.16  HD
ENDBRANCH 48 49
ENDBRANCH 47 48
BRANCH 47 54
ATOM     54  N   ASN C 304      15.082   7.283   1.901  0.50 31.56 LIG-0.34  N 
ATOM     55  C   LEU C 303      14.532   6.448   2.770  0.50 30.83 LIG 0.26  C 
ATOM     56 O    LEU C 303      14.911   6.365   3.930  0.50 29.02 LIG-0.27  OA
ATOM     57 H    ASN C 304      14.751   7.470   1.129  0.50 31.56 LIG 0.16  HD
BRANCH 55 58
ATOM     58  CA  LEU C 303      13.380   5.588   2.234  0.50 30.56 LIG 0.40  C 
ATOM     59  N   LEU C 303      13.676   4.130   2.220  0.50 30.88 LIG 0.61  N 
BRANCH 58 60
ATOM     60  CB  LEU C 303      12.085   5.858   3.011  0.50 30.80 LIG 0.06  C 
BRANCH 60 61
ATOM     61  CG  LEU C 303      12.000   7.147   3.837  0.50 30.92 LIG-0.02  C 
ATOM     62  CD2 LEU C 303      11.976   6.830   5.344  0.50 31.43 LIG 0.01  C 
ATOM     63  CD1 LEU C 303      10.810   7.994   3.421  0.50 30.50 LIG 0.01  C 
ENDBRANCH 60 61
ENDBRANCH 58 60
ENDBRANCH 55 58
ENDBRANCH 47 54
ENDBRANCH 45 47
ENDBRANCH 35 43
ENDBRANCH 1 35
TORSDOF 21
ENDMDL
MODEL 31
USER: ADFR SOLUTION from run 168
USER: SCORE 17.341543 LL:  -4.826 LR: -13.652 RR:   0.000 FEB:  -7.388
USER: RMSD 13.333600
USER: SEED 167
USER: STATUS no improvement in best in 7 clusters for 5 generations
USER: GENES 23
USER: genes 0 Translation |==|  0.60399 0.47606 0.50626
USER: genes 1 Rotation |==|  0.14713 0.84819 0.52898 0.55833
USER: genes 2 Torsion [N]-CA--C-[N] |==|  0.48000
USER: genes 3 Torsion [C]-N--CA-[C] |==|  0.60556
USER: genes 4 Torsion [N]-CA--C-[N] |==|  0.35784
USER: genes 5 Torsion [C]-N--CA-[CB] |==|  0.88803
USER: genes 6 Torsion [N]-CA--C-[N] |==|  0.31801
USER: genes 7 Torsion [N]-CA--C-[OXT] |==|  0.32254
USER: genes 8 Torsion [N]-CA--CB-[OG] |==|  0.77684
USER: genes 9 Torsion [CA]-CB--OG-[HG] |==|  0.51106
USER: genes 10 Torsion [N]-CA--CB-[CG2] |==|  0.40462
USER: genes 11 Torsion [CA]-CB--CG1-[CD1] |==|  0.56486
USER: genes 12 Torsion [N]-C--CA-[N] |==|  0.30598
USER: genes 13 Torsion [C]-CA--CB-[CG] |==|  0.21498
USER: genes 14 Torsion [CA]-CB--CG-[CD1] |==|  0.09982
USER: genes 15 Torsion [C]-CA--N-[C] |==|  0.70573
USER: genes 16 Torsion [N]-C--CA-[N] |==|  0.12210
USER: genes 17 Torsion [C]-CA--CB-[CG] |==|  0.43887
USER: genes 18 Torsion [CA]-CB--CG-[OD1] |==|  0.87894
USER: genes 19 Torsion [C]-CA--N-[C] |==|  0.17157
USER: genes 20 Torsion [N]-C--CA-[N] |==|  0.82271
USER: genes 21 Torsion [C]-CA--CB-[CG] |==|  0.55072
USER: genes 22 Torsion [CA]-CB--CG-[CD2] |==|  0.67817
ROOT
ATOM      1  C   PHE C 305      16.044   6.256  -0.147  0.50 34.66 LIG 0.24  C 
ATOM      2 O    PHE C 305      16.892   5.455   0.232  0.50 33.80 LIG-0.27  OA
ATOM      3  N   PRO C 306      16.359   7.509  -0.529  0.50 35.29 LIG-0.34  N 
ATOM      4  CA  PRO C 306      17.592   8.114  -0.049  0.50 35.79 LIG 0.18  C 
ATOM      5  CB  PRO C 306      18.006   9.047  -1.211  0.50 35.80 LIG 0.04  C 
ATOM      6  CG  PRO C 306      16.843   9.010  -2.209  0.50 35.25 LIG 0.02  C 
ATOM      7  CD  PRO C 306      15.677   8.401  -1.480  0.50 35.51 LIG 0.13  C 
ENDROOT
BRANCH 4 8
ATOM      8  C   PRO C 306      17.317   8.961   1.196  0.50 36.50 LIG 0.24  C 
ATOM      9  N   ILE C 307      18.399   9.451   1.822  0.50 37.01 LIG-0.35  N 
ATOM     10 H    ILE C 307      19.213   9.274   1.609  0.50 37.01 LIG 0.16  HD
ATOM     11 O    PRO C 306      16.141   9.172   1.568  0.50 36.74 LIG-0.27  OA
BRANCH 9 12
ATOM     12  CA  ILE C 307      18.235  10.358   2.959  0.50 37.44 LIG 0.18  C 
BRANCH 12 13
ATOM     13  C   ILE C 307      19.281  11.476   2.976  0.50 38.23 LIG 0.24  C 
ATOM     14  N   SER C 308      18.786  12.704   3.101  0.50 38.91 LIG-0.34  N 
ATOM     15 H    SER C 308      17.945  12.876   3.046  0.50 38.91 LIG 0.16  HD
ATOM     16 O    ILE C 307      20.492  11.226   2.889  0.50 38.79 LIG-0.27  OA
BRANCH 14 17
ATOM     17  CA  SER C 308      19.606  13.887   3.342  0.50 39.43 LIG 0.20  C 
BRANCH 17 18
ATOM     18  C   SER C 308      20.194  14.274   1.982  0.50 39.77 LIG 0.24  C 
ATOM     19  N   PRO C 309      19.806  15.448   1.452  0.50 40.03 LIG-0.34  N 
ATOM     20  CD  PRO C 309      19.175  16.587   2.137  0.50 39.83 LIG 0.13  C 
ATOM     21  CA  PRO C 309      20.043  15.725   0.033  0.50 40.09 LIG 0.19  C 
ATOM     22  CG  PRO C 309      18.632  17.400   1.005  0.50 40.19 LIG 0.02  C 
ATOM     23  CB  PRO C 309      19.601  17.187  -0.117  0.50 40.09 LIG 0.04  C 
ATOM     24 O    SER C 308      21.003  13.531   1.420  0.50 39.81 LIG-0.27  OA
BRANCH 21 25
ATOM     25  C   PRO C 309      21.501  15.540  -0.385  0.50 40.04 LIG 0.20  C 
ATOM     26 OXT  PRO C 309      21.833  14.676  -1.202  0.50 40.10 LIG-0.65  OA
ATOM     27 O    PRO C 309      22.389  16.247   0.096  0.50 40.34 LIG-0.65  OA
ENDBRANCH 21 25
ENDBRANCH 17 18
BRANCH 17 28
ATOM     28  CB  SER C 308      20.725  13.583   4.341  0.50 39.49 LIG 0.20  C 
BRANCH 28 29
ATOM     29 OG   SER C 308      20.248  13.615   5.679  0.50 39.70 LIG-0.40  OA
ATOM     30 HG   SER C 308      20.890  13.499   6.208  0.50 39.70 LIG 0.21  HD
ENDBRANCH 28 29
ENDBRANCH 17 28
ENDBRANCH 14 17
ENDBRANCH 12 13
BRANCH 12 31
ATOM     31  CB  ILE C 307      18.309   9.620   4.318  0.50 37.20 LIG 0.01  C 
ATOM     32  CG2 ILE C 307      18.969  10.505   5.386  0.50 36.86 LIG 0.01  C 
BRANCH 31 33
ATOM     33  CG1 ILE C 307      16.903   9.142   4.719  0.50 35.88 LIG 0.00  C 
ATOM     34  CD1 ILE C 307      16.693   8.911   6.195  0.50 32.01 LIG 0.01  C 
ENDBRANCH 31 33
ENDBRANCH 12 31
ENDBRANCH 9 12
ENDBRANCH 4 8
BRANCH 1 35
ATOM     35  CA  PHE C 305      14.574   5.825  -0.235  0.50 34.47 LIG 0.18  C 
BRANCH 35 36
ATOM     36  CB  PHE C 305      14.188   5.236   1.131  0.50 34.49 LIG 0.07  C 
BRANCH 36 37
ATOM     37  CG  PHE C 305      13.922   6.260   2.222  0.50 35.55 LIG-0.06  A 
ATOM     38  CD1 PHE C 305      13.310   7.482   1.950  0.50 36.28 LIG 0.01  A 
ATOM     39  CE1 PHE C 305      13.072   8.407   2.971  0.50 36.66 LIG 0.00  A 
ATOM     40  CZ  PHE C 305      13.461   8.118   4.282  0.50 36.87 LIG 0.00  A 
ATOM     41  CE2 PHE C 305      14.074   6.910   4.567  0.50 36.76 LIG 0.00  A 
ATOM     42  CD2 PHE C 305      14.311   5.989   3.535  0.50 36.02 LIG 0.01  A 
ENDBRANCH 36 37
ENDBRANCH 35 36
BRANCH 35 43
ATOM     43  N   PHE C 305      14.283   4.834  -1.276  0.50 33.54 LIG-0.35  N 
ATOM     44 H    PHE C 305      14.551   4.036  -1.099  0.50 33.54 LIG 0.16  HD
ATOM     45  C   ASN C 304      13.649   5.184  -2.396  0.50 33.07 LIG 0.24  C 
ATOM     46 O    ASN C 304      13.588   6.355  -2.789  0.50 33.39 LIG-0.27  OA
BRANCH 45 47
ATOM     47  CA  ASN C 304      12.976   4.051  -3.182  0.50 32.40 LIG 0.18  C 
BRANCH 47 48
ATOM     48  CB  ASN C 304      11.996   4.556  -4.252  0.50 32.38 LIG 0.14  C 
BRANCH 48 49
ATOM     49  CG  ASN C 304      11.736   3.521  -5.375  0.50 31.77 LIG 0.22  C 
ATOM     50 OD1  ASN C 304      12.655   2.880  -5.873  0.50 27.48 LIG-0.27  OA
ATOM     51  ND2 ASN C 304      10.482   3.402  -5.793  0.50 32.56 LIG-0.37  N 
ATOM     52 21HD ASN C 304      10.292   2.861  -6.435  0.50 32.56 LIG 0.16  HD
ATOM     53 22HD ASN C 304       9.860   3.866  -5.423  0.50 32.56 LIG 0.16  HD
ENDBRANCH 48 49
ENDBRANCH 47 48
BRANCH 47 54
ATOM     54  N   ASN C 304      12.270   3.167  -2.286  0.50 31.56 LIG-0.34  N 
ATOM     55  C   LEU C 303      11.267   3.616  -1.547  0.50 30.83 LIG 0.26  C 
ATOM     56 O    LEU C 303      10.754   4.711  -1.733  0.50 29.02 LIG-0.27  OA
ATOM     57 H    ASN C 304      12.554   2.355  -2.279  0.50 31.56 LIG 0.16  HD
BRANCH 55 58
ATOM     58  CA  LEU C 303      10.776   2.673  -0.441  0.50 30.56 LIG 0.40  C 
ATOM     59  N   LEU C 303      10.200   1.399  -0.951  0.50 30.88 LIG 0.61  N 
BRANCH 58 60
ATOM     60  CB  LEU C 303      11.892   2.382   0.570  0.50 30.80 LIG 0.06  C 
BRANCH 60 61
ATOM     61  CG  LEU C 303      11.734   1.157   1.478  0.50 30.92 LIG-0.02  C 
ATOM     62  CD2 LEU C 303      11.622   1.582   2.954  0.50 31.43 LIG 0.01  C 
ATOM     63  CD1 LEU C 303      12.859   0.159   1.265  0.50 30.50 LIG 0.01  C 
ENDBRANCH 60 61
ENDBRANCH 58 60
ENDBRANCH 55 58
ENDBRANCH 47 54
ENDBRANCH 45 47
ENDBRANCH 35 43
ENDBRANCH 1 35
TORSDOF 21
ENDMDL
MODEL 32
USER: ADFR SOLUTION from run 179
USER: SCORE 17.849511 LL:  -6.301 LR: -13.643 RR:   0.000 FEB:  -7.379
USER: RMSD 11.311690
USER: SEED 178
USER: STATUS no improvement in best in 13 clusters for 5 generations
USER: GENES 23
USER: genes 0 Translation |==|  0.46256 0.56633 0.19071
USER: genes 1 Rotation |==|  0.81420 0.36857 0.25810 0.77476
USER: genes 2 Torsion [N]-CA--C-[N] |==|  0.51107
USER: genes 3 Torsion [C]-N--CA-[C] |==|  0.75556
USER: genes 4 Torsion [N]-CA--C-[N] |==|  0.08741
USER: genes 5 Torsion [C]-N--CA-[CB] |==|  0.16432
USER: genes 6 Torsion [N]-CA--C-[N] |==|  0.17217
USER: genes 7 Torsion [N]-CA--C-[OXT] |==|  0.23778
USER: genes 8 Torsion [N]-CA--CB-[OG] |==|  0.73944
USER: genes 9 Torsion [CA]-CB--OG-[HG] |==|  0.14797
USER: genes 10 Torsion [N]-CA--CB-[CG2] |==|  0.21002
USER: genes 11 Torsion [CA]-CB--CG1-[CD1] |==|  0.36452
USER: genes 12 Torsion [N]-C--CA-[N] |==|  0.23708
USER: genes 13 Torsion [C]-CA--CB-[CG] |==|  0.26819
USER: genes 14 Torsion [CA]-CB--CG-[CD1] |==|  0.79020
USER: genes 15 Torsion [C]-CA--N-[C] |==|  0.69689
USER: genes 16 Torsion [N]-C--CA-[N] |==|  0.59450
USER: genes 17 Torsion [C]-CA--CB-[CG] |==|  0.57063
USER: genes 18 Torsion [CA]-CB--CG-[OD1] |==|  0.85096
USER: genes 19 Torsion [C]-CA--N-[C] |==|  0.13696
USER: genes 20 Torsion [N]-C--CA-[N] |==|  0.74381
USER: genes 21 Torsion [C]-CA--CB-[CG] |==|  0.14036
USER: genes 22 Torsion [CA]-CB--CG-[CD2] |==|  0.64276
ROOT
ATOM      1  C   PHE C 305      12.437   8.423  -6.537  0.50 34.66 LIG 0.24  C 
ATOM      2 O    PHE C 305      12.982   8.258  -7.624  0.50 33.80 LIG-0.27  OA
ATOM      3  N   PRO C 306      11.312   9.151  -6.401  0.50 35.29 LIG-0.34  N 
ATOM      4  CA  PRO C 306      10.984  10.154  -7.401  0.50 35.79 LIG 0.18  C 
ATOM      5  CB  PRO C 306       9.438  10.158  -7.408  0.50 35.80 LIG 0.04  C 
ATOM      6  CG  PRO C 306       9.015   9.245  -6.251  0.50 35.25 LIG 0.02  C 
ATOM      7  CD  PRO C 306      10.238   9.042  -5.401  0.50 35.51 LIG 0.13  C 
ENDROOT
BRANCH 4 8
ATOM      8  C   PRO C 306      11.484  11.530  -6.956  0.50 36.50 LIG 0.24  C 
ATOM      9  N   ILE C 307      11.168  12.558  -7.761  0.50 37.01 LIG-0.35  N 
ATOM     10 H    ILE C 307      10.766  12.485  -8.517  0.50 37.01 LIG 0.16  HD
ATOM     11 O    PRO C 306      12.135  11.651  -5.894  0.50 36.74 LIG-0.27  OA
BRANCH 9 12
ATOM     12  CA  ILE C 307      11.510  13.925  -7.366  0.50 37.44 LIG 0.18  C 
BRANCH 12 13
ATOM     13  C   ILE C 307      10.421  14.583  -6.515  0.50 38.23 LIG 0.24  C 
ATOM     14  N   SER C 308       9.732  13.745  -5.745  0.50 38.91 LIG-0.34  N 
ATOM     15 H    SER C 308       9.798  12.890  -5.809  0.50 38.91 LIG 0.16  HD
ATOM     16 O    ILE C 307      10.223  15.806  -6.553  0.50 38.79 LIG-0.27  OA
BRANCH 14 17
ATOM     17  CA  SER C 308       8.794  14.180  -4.713  0.50 39.43 LIG 0.20  C 
BRANCH 17 18
ATOM     18  C   SER C 308       8.221  12.900  -4.100  0.50 39.77 LIG 0.24  C 
ATOM     19  N   PRO C 309       9.082  12.066  -3.490  0.50 40.03 LIG-0.34  N 
ATOM     20  CD  PRO C 309      10.440  12.361  -3.007  0.50 39.83 LIG 0.13  C 
ATOM     21  CA  PRO C 309       8.682  10.689  -3.192  0.50 40.09 LIG 0.19  C 
ATOM     22  CG  PRO C 309      11.025  10.999  -2.799  0.50 40.19 LIG 0.02  C 
ATOM     23  CB  PRO C 309       9.866  10.147  -2.381  0.50 40.09 LIG 0.04  C 
ATOM     24 O    SER C 308       7.010  12.670  -4.161  0.50 39.81 LIG-0.27  OA
BRANCH 21 25
ATOM     25  C   PRO C 309       7.377  10.594  -2.401  0.50 40.04 LIG 0.20  C 
ATOM     26 OXT  PRO C 309       6.280  10.598  -2.965  0.50 40.10 LIG-0.65  OA
ATOM     27 O    PRO C 309       7.391  10.523  -1.170  0.50 40.34 LIG-0.65  OA
ENDBRANCH 21 25
ENDBRANCH 17 18
BRANCH 17 28
ATOM     28  CB  SER C 308       7.675  15.034  -5.314  0.50 39.49 LIG 0.20  C 
BRANCH 28 29
ATOM     29 OG   SER C 308       7.982  16.418  -5.241  0.50 39.70 LIG-0.40  OA
ATOM     30 HG   SER C 308       8.736  16.558  -5.584  0.50 39.70 LIG 0.21  HD
ENDBRANCH 28 29
ENDBRANCH 17 28
ENDBRANCH 14 17
ENDBRANCH 12 13
BRANCH 12 31
ATOM     31  CB  ILE C 307      11.776  14.842  -8.585  0.50 37.20 LIG 0.01  C 
ATOM     32  CG2 ILE C 307      10.458  15.239  -9.268  0.50 36.86 LIG 0.01  C 
BRANCH 31 33
ATOM     33  CG1 ILE C 307      12.612  16.055  -8.141  0.50 35.88 LIG 0.00  C 
ATOM     34  CD1 ILE C 307      13.816  16.360  -9.000  0.50 32.01 LIG 0.01  C 
ENDBRANCH 31 33
ENDBRANCH 12 31
ENDBRANCH 9 12
ENDBRANCH 4 8
BRANCH 1 35
ATOM     35  CA  PHE C 305      13.019   7.755  -5.284  0.50 34.47 LIG 0.18  C 
BRANCH 35 36
ATOM     36  CB  PHE C 305      14.529   7.589  -5.513  0.50 34.49 LIG 0.07  C 
BRANCH 36 37
ATOM     37  CG  PHE C 305      15.395   8.684  -4.913  0.50 35.55 LIG-0.06  A 
ATOM     38  CD1 PHE C 305      15.490   9.948  -5.494  0.50 36.28 LIG 0.01  A 
ATOM     39  CE1 PHE C 305      16.291  10.940  -4.921  0.50 36.66 LIG 0.00  A 
ATOM     40  CZ  PHE C 305      17.020  10.669  -3.760  0.50 36.87 LIG 0.00  A 
ATOM     41  CE2 PHE C 305      16.940   9.418  -3.175  0.50 36.76 LIG 0.00  A 
ATOM     42  CD2 PHE C 305      16.136   8.426  -3.757  0.50 36.02 LIG 0.01  A 
ENDBRANCH 36 37
ENDBRANCH 35 36
BRANCH 35 43
ATOM     43  N   PHE C 305      12.444   6.445  -4.960  0.50 33.54 LIG-0.35  N 
ATOM     44 H    PHE C 305      12.664   5.811  -5.499  0.50 33.54 LIG 0.16  HD
ATOM     45  C   ASN C 304      11.646   6.290  -3.903  0.50 33.07 LIG 0.24  C 
ATOM     46 O    ASN C 304      11.065   7.239  -3.362  0.50 33.39 LIG-0.27  OA
BRANCH 45 47
ATOM     47  CA  ASN C 304      11.487   4.859  -3.372  0.50 32.40 LIG 0.18  C 
BRANCH 47 48
ATOM     48  CB  ASN C 304      11.776   3.786  -4.432  0.50 32.38 LIG 0.14  C 
BRANCH 48 49
ATOM     49  CG  ASN C 304      11.053   2.445  -4.151  0.50 31.77 LIG 0.22  C 
ATOM     50 OD1  ASN C 304      11.169   1.873  -3.073  0.50 27.48 LIG-0.27  OA
ATOM     51  ND2 ASN C 304      10.344   1.933  -5.150  0.50 32.56 LIG-0.37  N 
ATOM     52 21HD ASN C 304       9.948   1.176  -5.052  0.50 32.56 LIG 0.16  HD
ATOM     53 22HD ASN C 304      10.281   2.359  -5.895  0.50 32.56 LIG 0.16  HD
ENDBRANCH 48 49
ENDBRANCH 47 48
BRANCH 47 54
ATOM     54  N   ASN C 304      10.153   4.658  -2.859  0.50 31.56 LIG-0.34  N 
ATOM     55  C   LEU C 303       9.095   5.004  -3.577  0.50 30.83 LIG 0.26  C 
ATOM     56 O    LEU C 303       9.174   5.300  -4.761  0.50 29.02 LIG-0.27  OA
ATOM     57 H    ASN C 304      10.115   4.307  -2.075  0.50 31.56 LIG 0.16  HD
BRANCH 55 58
ATOM     58  CA  LEU C 303       7.753   5.004  -2.834  0.50 30.56 LIG 0.40  C 
ATOM     59  N   LEU C 303       7.012   3.717  -2.932  0.50 30.88 LIG 0.61  N 
BRANCH 58 60
ATOM     60  CB  LEU C 303       7.939   5.397  -1.363  0.50 30.80 LIG 0.06  C 
BRANCH 60 61
ATOM     61  CG  LEU C 303       8.734   6.672  -1.057  0.50 30.92 LIG-0.02  C 
ATOM     62  CD2 LEU C 303       9.844   6.391  -0.027  0.50 31.43 LIG 0.01  C 
ATOM     63  CD1 LEU C 303       7.822   7.799  -0.606  0.50 30.50 LIG 0.01  C 
ENDBRANCH 60 61
ENDBRANCH 58 60
ENDBRANCH 55 58
ENDBRANCH 47 54
ENDBRANCH 45 47
ENDBRANCH 35 43
ENDBRANCH 1 35
TORSDOF 21
ENDMDL
MODEL 33
USER: ADFR SOLUTION from run 76
USER: SCORE 16.700188 LL:  -4.865 LR: -13.608 RR:   0.000 FEB:  -7.344
USER: RMSD 8.233281
USER: SEED 75
USER: STATUS no improvement in best in 11 clusters for 5 generations
USER: GENES 23
USER: genes 0 Translation |==|  0.42753 0.36723 0.26370
USER: genes 1 Rotation |==|  0.50604 0.67712 0.51683 0.96724
USER: genes 2 Torsion [N]-CA--C-[N] |==|  0.27938
USER: genes 3 Torsion [C]-N--CA-[C] |==|  0.62782
USER: genes 4 Torsion [N]-CA--C-[N] |==|  0.34968
USER: genes 5 Torsion [C]-N--CA-[CB] |==|  0.49252
USER: genes 6 Torsion [N]-CA--C-[N] |==|  0.83389
USER: genes 7 Torsion [N]-CA--C-[OXT] |==|  0.32078
USER: genes 8 Torsion [N]-CA--CB-[OG] |==|  0.59617
USER: genes 9 Torsion [CA]-CB--OG-[HG] |==|  0.68389
USER: genes 10 Torsion [N]-CA--CB-[CG2] |==|  0.35999
USER: genes 11 Torsion [CA]-CB--CG1-[CD1] |==|  0.65472
USER: genes 12 Torsion [N]-C--CA-[N] |==|  0.00445
USER: genes 13 Torsion [C]-CA--CB-[CG] |==|  0.54437
USER: genes 14 Torsion [CA]-CB--CG-[CD1] |==|  0.35883
USER: genes 15 Torsion [C]-CA--N-[C] |==|  0.75406
USER: genes 16 Torsion [N]-C--CA-[N] |==|  0.30182
USER: genes 17 Torsion [C]-CA--CB-[CG] |==|  0.56582
USER: genes 18 Torsion [CA]-CB--CG-[OD1] |==|  0.32767
USER: genes 19 Torsion [C]-CA--N-[C] |==|  0.67027
USER: genes 20 Torsion [N]-C--CA-[N] |==|  0.67245
USER: genes 21 Torsion [C]-CA--CB-[CG] |==|  0.24394
USER: genes 22 Torsion [CA]-CB--CG-[CD2] |==|  0.45850
ROOT
ATOM      1  C   PHE C 305      11.544   3.645  -5.059  0.50 34.66 LIG 0.24  C 
ATOM      2 O    PHE C 305      11.789   2.822  -5.936  0.50 33.80 LIG-0.27  OA
ATOM      3  N   PRO C 306      11.193   3.281  -3.810  0.50 35.29 LIG-0.34  N 
ATOM      4  CA  PRO C 306      10.615   1.965  -3.584  0.50 35.79 LIG 0.18  C 
ATOM      5  CB  PRO C 306      11.095   1.606  -2.159  0.50 35.80 LIG 0.04  C 
ATOM      6  CG  PRO C 306      11.786   2.865  -1.623  0.50 35.25 LIG 0.02  C 
ATOM      7  CD  PRO C 306      11.385   3.991  -2.536  0.50 35.51 LIG 0.13  C 
ENDROOT
BRANCH 4 8
ATOM      8  C   PRO C 306       9.087   2.050  -3.590  0.50 36.50 LIG 0.24  C 
ATOM      9  N   ILE C 307       8.483   1.666  -4.727  0.50 37.01 LIG-0.35  N 
ATOM     10 H    ILE C 307       8.891   1.440  -5.449  0.50 37.01 LIG 0.16  HD
ATOM     11 O    PRO C 306       8.473   2.445  -2.574  0.50 36.74 LIG-0.27  OA
BRANCH 9 12
ATOM     12  CA  ILE C 307       7.022   1.610  -4.794  0.50 37.44 LIG 0.18  C 
BRANCH 12 13
ATOM     13  C   ILE C 307       6.510   0.319  -5.437  0.50 38.23 LIG 0.24  C 
ATOM     14  N   SER C 308       5.633  -0.361  -4.705  0.50 38.91 LIG-0.34  N 
ATOM     15 H    SER C 308       5.461  -0.169  -3.884  0.50 38.91 LIG 0.16  HD
ATOM     16 O    ILE C 307       6.893  -0.036  -6.562  0.50 38.79 LIG-0.27  OA
BRANCH 14 17
ATOM     17  CA  SER C 308       4.872  -1.502  -5.207  0.50 39.43 LIG 0.20  C 
BRANCH 17 18
ATOM     18  C   SER C 308       4.000  -0.958  -6.341  0.50 39.77 LIG 0.24  C 
ATOM     19  N   PRO C 309       3.123   0.015  -6.036  0.50 40.03 LIG-0.34  N 
ATOM     20  CD  PRO C 309       3.116   0.890  -4.852  0.50 39.83 LIG 0.13  C 
ATOM     21  CA  PRO C 309       2.036   0.339  -6.962  0.50 40.09 LIG 0.19  C 
ATOM     22  CG  PRO C 309       1.735   1.465  -4.868  0.50 40.19 LIG 0.02  C 
ATOM     23  CB  PRO C 309       1.383   1.571  -6.321  0.50 40.09 LIG 0.04  C 
ATOM     24 O    SER C 308       4.125  -1.398  -7.487  0.50 39.81 LIG-0.27  OA
BRANCH 21 25
ATOM     25  C   PRO C 309       2.517   0.641  -8.381  0.50 40.04 LIG 0.20  C 
ATOM     26 OXT  PRO C 309       2.210  -0.080  -9.334  0.50 40.10 LIG-0.65  OA
ATOM     27 O    PRO C 309       3.240   1.614  -8.607  0.50 40.34 LIG-0.65  OA
ENDBRANCH 21 25
ENDBRANCH 17 18
BRANCH 17 28
ATOM     28  CB  SER C 308       4.000  -2.106  -4.103  0.50 39.49 LIG 0.20  C 
BRANCH 28 29
ATOM     29 OG   SER C 308       3.896  -3.516  -4.238  0.50 39.70 LIG-0.40  OA
ATOM     30 HG   SER C 308       3.103  -3.723  -4.422  0.50 39.70 LIG 0.21  HD
ENDBRANCH 28 29
ENDBRANCH 17 28
ENDBRANCH 14 17
ENDBRANCH 12 13
BRANCH 12 31
ATOM     31  CB  ILE C 307       6.422   2.801  -5.580  0.50 37.20 LIG 0.01  C 
ATOM     32  CG2 ILE C 307       5.433   2.309  -6.648  0.50 36.86 LIG 0.01  C 
BRANCH 31 33
ATOM     33  CG1 ILE C 307       5.794   3.802  -4.594  0.50 35.88 LIG 0.00  C 
ATOM     34  CD1 ILE C 307       4.341   4.130  -4.841  0.50 32.01 LIG 0.01  C 
ENDBRANCH 31 33
ENDBRANCH 12 31
ENDBRANCH 9 12
ENDBRANCH 4 8
BRANCH 1 35
ATOM     35  CA  PHE C 305      11.674   5.143  -5.363  0.50 34.47 LIG 0.18  C 
BRANCH 35 36
ATOM     36  CB  PHE C 305      13.101   5.383  -5.878  0.50 34.49 LIG 0.07  C 
BRANCH 36 37
ATOM     37  CG  PHE C 305      13.550   6.836  -5.876  0.50 35.55 LIG-0.06  A 
ATOM     38  CD1 PHE C 305      14.756   7.231  -5.299  0.50 36.28 LIG 0.01  A 
ATOM     39  CE1 PHE C 305      15.149   8.573  -5.313  0.50 36.66 LIG 0.00  A 
ATOM     40  CZ  PHE C 305      14.325   9.539  -5.896  0.50 36.87 LIG 0.00  A 
ATOM     41  CE2 PHE C 305      13.123   9.162  -6.468  0.50 36.76 LIG 0.00  A 
ATOM     42  CD2 PHE C 305      12.734   7.814  -6.448  0.50 36.02 LIG 0.01  A 
ENDBRANCH 36 37
ENDBRANCH 35 36
BRANCH 35 43
ATOM     43  N   PHE C 305      11.429   6.028  -4.219  0.50 33.54 LIG-0.35  N 
ATOM     44 H    PHE C 305      12.131   6.233  -3.766  0.50 33.54 LIG 0.16  HD
ATOM     45  C   ASN C 304      10.199   6.459  -3.939  0.50 33.07 LIG 0.24  C 
ATOM     46 O    ASN C 304       9.182   5.894  -4.360  0.50 33.39 LIG-0.27  OA
BRANCH 45 47
ATOM     47  CA  ASN C 304      10.099   7.715  -3.063  0.50 32.40 LIG 0.18  C 
BRANCH 47 48
ATOM     48  CB  ASN C 304       9.155   7.542  -1.864  0.50 32.38 LIG 0.14  C 
BRANCH 48 49
ATOM     49  CG  ASN C 304       8.594   8.886  -1.334  0.50 31.77 LIG 0.22  C 
ATOM     50 OD1  ASN C 304       7.392   9.123  -1.348  0.50 27.48 LIG-0.27  OA
ATOM     51  ND2 ASN C 304       9.485   9.774  -0.910  0.50 32.56 LIG-0.37  N 
ATOM     52 21HD ASN C 304       9.225  10.547  -0.634  0.50 32.56 LIG 0.16  HD
ATOM     53 22HD ASN C 304      10.323   9.578  -0.912  0.50 32.56 LIG 0.16  HD
ENDBRANCH 48 49
ENDBRANCH 47 48
BRANCH 47 54
ATOM     54  N   ASN C 304       9.652   8.841  -3.848  0.50 31.56 LIG-0.34  N 
ATOM     55  C   LEU C 303      10.418   9.913  -3.987  0.50 30.83 LIG 0.26  C 
ATOM     56 O    LEU C 303      11.594   9.926  -3.655  0.50 29.02 LIG-0.27  OA
ATOM     57 H    ASN C 304       8.873   8.750  -4.200  0.50 31.56 LIG 0.16  HD
BRANCH 55 58
ATOM     58  CA  LEU C 303       9.739  11.144  -4.601  0.50 30.56 LIG 0.40  C 
ATOM     59  N   LEU C 303      10.339  11.580  -5.891  0.50 30.88 LIG 0.61  N 
BRANCH 58 60
ATOM     60  CB  LEU C 303       8.232  10.916  -4.768  0.50 30.80 LIG 0.06  C 
BRANCH 60 61
ATOM     61  CG  LEU C 303       7.319  11.262  -3.586  0.50 30.92 LIG-0.02  C 
ATOM     62  CD2 LEU C 303       5.847  11.332  -4.033  0.50 31.43 LIG 0.01  C 
ATOM     63  CD1 LEU C 303       7.760  12.546  -2.904  0.50 30.50 LIG 0.01  C 
ENDBRANCH 60 61
ENDBRANCH 58 60
ENDBRANCH 55 58
ENDBRANCH 47 54
ENDBRANCH 45 47
ENDBRANCH 35 43
ENDBRANCH 1 35
TORSDOF 21
ENDMDL
MODEL 34
USER: ADFR SOLUTION from run 17
USER: SCORE 18.236237 LL:  -5.232 LR: -13.609 RR:   0.000 FEB:  -7.344
USER: RMSD 10.029191
USER: SEED 16
USER: STATUS no improvement in best in 3 clusters for 5 generations
USER: GENES 23
USER: genes 0 Translation |==|  0.45724 0.61195 0.26647
USER: genes 1 Rotation |==|  0.00596 0.46957 0.43207 0.51965
USER: genes 2 Torsion [N]-CA--C-[N] |==|  0.30391
USER: genes 3 Torsion [C]-N--CA-[C] |==|  0.79089
USER: genes 4 Torsion [N]-CA--C-[N] |==|  0.88256
USER: genes 5 Torsion [C]-N--CA-[CB] |==|  0.16533
USER: genes 6 Torsion [N]-CA--C-[N] |==|  0.12494
USER: genes 7 Torsion [N]-CA--C-[OXT] |==|  0.37302
USER: genes 8 Torsion [N]-CA--CB-[OG] |==|  0.18558
USER: genes 9 Torsion [CA]-CB--OG-[HG] |==|  0.76505
USER: genes 10 Torsion [N]-CA--CB-[CG2] |==|  0.75137
USER: genes 11 Torsion [CA]-CB--CG1-[CD1] |==|  0.28862
USER: genes 12 Torsion [N]-C--CA-[N] |==|  0.47596
USER: genes 13 Torsion [C]-CA--CB-[CG] |==|  0.35261
USER: genes 14 Torsion [CA]-CB--CG-[CD1] |==|  0.12466
USER: genes 15 Torsion [C]-CA--N-[C] |==|  0.56070
USER: genes 16 Torsion [N]-C--CA-[N] |==|  0.87926
USER: genes 17 Torsion [C]-CA--CB-[CG] |==|  0.49685
USER: genes 18 Torsion [CA]-CB--CG-[OD1] |==|  0.04185
USER: genes 19 Torsion [C]-CA--N-[C] |==|  0.76283
USER: genes 20 Torsion [N]-C--CA-[N] |==|  0.42956
USER: genes 21 Torsion [C]-CA--CB-[CG] |==|  0.80586
USER: genes 22 Torsion [CA]-CB--CG-[CD2] |==|  0.60887
ROOT
ATOM      1  C   PHE C 305      12.302   9.518  -5.003  0.50 34.66 LIG 0.24  C 
ATOM      2 O    PHE C 305      12.729  10.414  -4.282  0.50 33.80 LIG-0.27  OA
ATOM      3  N   PRO C 306      11.385   9.745  -5.964  0.50 35.29 LIG-0.34  N 
ATOM      4  CA  PRO C 306      10.516  10.907  -5.863  0.50 35.79 LIG 0.18  C 
ATOM      5  CB  PRO C 306      10.257  11.286  -7.340  0.50 35.80 LIG 0.04  C 
ATOM      6  CG  PRO C 306      10.887  10.164  -8.174  0.50 35.25 LIG 0.02  C 
ATOM      7  CD  PRO C 306      11.150   9.027  -7.226  0.50 35.51 LIG 0.13  C 
ENDROOT
BRANCH 4 8
ATOM      8  C   PRO C 306       9.189  10.522  -5.206  0.50 36.50 LIG 0.24  C 
ATOM      9  N   ILE C 307       8.992  10.993  -3.963  0.50 37.01 LIG-0.35  N 
ATOM     10 H    ILE C 307       9.572  11.432  -3.506  0.50 37.01 LIG 0.16  HD
ATOM     11 O    PRO C 306       8.358   9.821  -5.826  0.50 36.74 LIG-0.27  OA
BRANCH 9 12
ATOM     12  CA  ILE C 307       7.710  10.767  -3.293  0.50 37.44 LIG 0.18  C 
BRANCH 12 13
ATOM     13  C   ILE C 307       6.598  11.670  -3.832  0.50 38.23 LIG 0.24  C 
ATOM     14  N   SER C 308       6.958  12.932  -4.049  0.50 38.91 LIG-0.34  N 
ATOM     15 H    SER C 308       7.712  13.254  -3.790  0.50 38.91 LIG 0.16  HD
ATOM     16 O    ILE C 307       5.459  11.231  -4.049  0.50 38.79 LIG-0.27  OA
BRANCH 14 17
ATOM     17  CA  SER C 308       6.120  13.904  -4.745  0.50 39.43 LIG 0.20  C 
BRANCH 17 18
ATOM     18  C   SER C 308       6.915  15.212  -4.754  0.50 39.77 LIG 0.24  C 
ATOM     19  N   PRO C 309       8.219  15.143  -5.074  0.50 40.03 LIG-0.34  N 
ATOM     20  CD  PRO C 309       8.925  14.051  -5.763  0.50 39.83 LIG 0.13  C 
ATOM     21  CA  PRO C 309       9.109  16.267  -4.774  0.50 40.09 LIG 0.19  C 
ATOM     22  CG  PRO C 309      10.364  14.353  -5.483  0.50 40.19 LIG 0.02  C 
ATOM     23  CB  PRO C 309      10.435  15.848  -5.423  0.50 40.09 LIG 0.04  C 
ATOM     24 O    SER C 308       6.356  16.281  -4.491  0.50 39.81 LIG-0.27  OA
BRANCH 21 25
ATOM     25  C   PRO C 309       8.613  17.599  -5.336  0.50 40.04 LIG 0.20  C 
ATOM     26 OXT  PRO C 309       8.615  18.627  -4.653  0.50 40.10 LIG-0.65  OA
ATOM     27 O    PRO C 309       8.184  17.676  -6.489  0.50 40.34 LIG-0.65  OA
ENDBRANCH 21 25
ENDBRANCH 17 18
BRANCH 17 28
ATOM     28  CB  SER C 308       4.785  14.094  -4.022  0.50 39.49 LIG 0.20  C 
BRANCH 28 29
ATOM     29 OG   SER C 308       4.964  14.706  -2.753  0.50 39.70 LIG-0.40  OA
ATOM     30 HG   SER C 308       5.152  14.119  -2.182  0.50 39.70 LIG 0.21  HD
ENDBRANCH 28 29
ENDBRANCH 17 28
ENDBRANCH 14 17
ENDBRANCH 12 13
BRANCH 12 31
ATOM     31  CB  ILE C 307       7.798  10.986  -1.763  0.50 37.20 LIG 0.01  C 
ATOM     32  CG2 ILE C 307       8.178   9.683  -1.045  0.50 36.86 LIG 0.01  C 
BRANCH 31 33
ATOM     33  CG1 ILE C 307       8.770  12.142  -1.466  0.50 35.88 LIG 0.00  C 
ATOM     34  CD1 ILE C 307       8.123  13.451  -1.085  0.50 32.01 LIG 0.01  C 
ENDBRANCH 31 33
ENDBRANCH 12 31
ENDBRANCH 9 12
ENDBRANCH 4 8
BRANCH 1 35
ATOM     35  CA  PHE C 305      12.845   8.091  -4.848  0.50 34.47 LIG 0.18  C 
BRANCH 35 36
ATOM     36  CB  PHE C 305      11.689   7.214  -4.344  0.50 34.49 LIG 0.07  C 
BRANCH 36 37
ATOM     37  CG  PHE C 305      11.420   5.966  -5.169  0.50 35.55 LIG-0.06  A 
ATOM     38  CD1 PHE C 305      12.453   5.139  -5.609  0.50 36.28 LIG 0.01  A 
ATOM     39  CE1 PHE C 305      12.181   3.994  -6.364  0.50 36.66 LIG 0.00  A 
ATOM     40  CZ  PHE C 305      10.862   3.673  -6.699  0.50 36.87 LIG 0.00  A 
ATOM     41  CE2 PHE C 305       9.827   4.487  -6.274  0.50 36.76 LIG 0.00  A 
ATOM     42  CD2 PHE C 305      10.109   5.636  -5.518  0.50 36.02 LIG 0.01  A 
ENDBRANCH 36 37
ENDBRANCH 35 36
BRANCH 35 43
ATOM     43  N   PHE C 305      13.976   7.959  -3.923  0.50 33.54 LIG-0.35  N 
ATOM     44 H    PHE C 305      14.045   8.593  -3.346  0.50 33.54 LIG 0.16  HD
ATOM     45  C   ASN C 304      14.809   6.921  -4.006  0.50 33.07 LIG 0.24  C 
ATOM     46 O    ASN C 304      14.914   6.230  -5.026  0.50 33.39 LIG-0.27  OA
BRANCH 45 47
ATOM     47  CA  ASN C 304      15.639   6.611  -2.753  0.50 32.40 LIG 0.18  C 
BRANCH 47 48
ATOM     48  CB  ASN C 304      14.844   5.861  -1.673  0.50 32.38 LIG 0.14  C 
BRANCH 48 49
ATOM     49  CG  ASN C 304      15.691   5.524  -0.420  0.50 31.77 LIG 0.22  C 
ATOM     50 OD1  ASN C 304      16.771   6.067  -0.218  0.50 27.48 LIG-0.27  OA
ATOM     51  ND2 ASN C 304      15.206   4.591   0.390  0.50 32.56 LIG-0.37  N 
ATOM     52 21HD ASN C 304      15.654   4.348   1.083  0.50 32.56 LIG 0.16  HD
ATOM     53 22HD ASN C 304      14.445   4.228   0.221  0.50 32.56 LIG 0.16  HD
ENDBRANCH 48 49
ENDBRANCH 47 48
BRANCH 47 54
ATOM     54  N   ASN C 304      16.162   7.829  -2.182  0.50 31.56 LIG-0.34  N 
ATOM     55  C   LEU C 303      17.299   8.346  -2.623  0.50 30.83 LIG 0.26  C 
ATOM     56 O    LEU C 303      17.841   7.960  -3.649  0.50 29.02 LIG-0.27  OA
ATOM     57 H    ASN C 304      15.684   8.170  -1.554  0.50 31.56 LIG 0.16  HD
BRANCH 55 58
ATOM     58  CA  LEU C 303      17.897   9.472  -1.770  0.50 30.56 LIG 0.40  C 
ATOM     59  N   LEU C 303      19.371   9.616  -1.914  0.50 30.88 LIG 0.61  N 
BRANCH 58 60
ATOM     60  CB  LEU C 303      17.204  10.809  -2.058  0.50 30.80 LIG 0.06  C 
BRANCH 60 61
ATOM     61  CG  LEU C 303      17.455  11.467  -3.420  0.50 30.92 LIG-0.02  C 
ATOM     62  CD2 LEU C 303      17.593  12.994  -3.274  0.50 31.43 LIG 0.01  C 
ATOM     63  CD1 LEU C 303      16.377  11.094  -4.422  0.50 30.50 LIG 0.01  C 
ENDBRANCH 60 61
ENDBRANCH 58 60
ENDBRANCH 55 58
ENDBRANCH 47 54
ENDBRANCH 45 47
ENDBRANCH 35 43
ENDBRANCH 1 35
TORSDOF 21
ENDMDL
MODEL 35
USER: ADFR SOLUTION from run 168
USER: SCORE 16.754189 LL:  -4.846 LR: -13.604 RR:   0.000 FEB:  -7.340
USER: RMSD 13.264345
USER: SEED 167
USER: STATUS no improvement in best in 7 clusters for 5 generations
USER: GENES 23
USER: genes 0 Translation |==|  0.58789 0.46888 0.50445
USER: genes 1 Rotation |==|  0.17982 0.86904 0.48155 0.60468
USER: genes 2 Torsion [N]-CA--C-[N] |==|  0.49022
USER: genes 3 Torsion [C]-N--CA-[C] |==|  0.62862
USER: genes 4 Torsion [N]-CA--C-[N] |==|  0.40021
USER: genes 5 Torsion [C]-N--CA-[CB] |==|  0.89777
USER: genes 6 Torsion [N]-CA--C-[N] |==|  0.39985
USER: genes 7 Torsion [N]-CA--C-[OXT] |==|  0.26650
USER: genes 8 Torsion [N]-CA--CB-[OG] |==|  0.85597
USER: genes 9 Torsion [CA]-CB--OG-[HG] |==|  0.53470
USER: genes 10 Torsion [N]-CA--CB-[CG2] |==|  0.33301
USER: genes 11 Torsion [CA]-CB--CG1-[CD1] |==|  0.52163
USER: genes 12 Torsion [N]-C--CA-[N] |==|  0.28481
USER: genes 13 Torsion [C]-CA--CB-[CG] |==|  0.15503
USER: genes 14 Torsion [CA]-CB--CG-[CD1] |==|  0.17308
USER: genes 15 Torsion [C]-CA--N-[C] |==|  0.75999
USER: genes 16 Torsion [N]-C--CA-[N] |==|  0.10287
USER: genes 17 Torsion [C]-CA--CB-[CG] |==|  0.26748
USER: genes 18 Torsion [CA]-CB--CG-[OD1] |==|  0.61232
USER: genes 19 Torsion [C]-CA--N-[C] |==|  0.57778
USER: genes 20 Torsion [N]-C--CA-[N] |==|  0.42282
USER: genes 21 Torsion [C]-CA--CB-[CG] |==|  0.11642
USER: genes 22 Torsion [CA]-CB--CG-[CD2] |==|  0.53990
ROOT
ATOM      1  C   PHE C 305      15.633   6.084  -0.184  0.50 34.66 LIG 0.24  C 
ATOM      2 O    PHE C 305      16.205   5.147   0.364  0.50 33.80 LIG-0.27  OA
ATOM      3  N   PRO C 306      16.252   7.254  -0.438  0.50 35.29 LIG-0.34  N 
ATOM      4  CA  PRO C 306      17.418   7.631   0.344  0.50 35.79 LIG 0.18  C 
ATOM      5  CB  PRO C 306      18.264   8.457  -0.653  0.50 35.80 LIG 0.04  C 
ATOM      6  CG  PRO C 306      17.391   8.619  -1.903  0.50 35.25 LIG 0.02  C 
ATOM      7  CD  PRO C 306      15.993   8.242  -1.497  0.50 35.51 LIG 0.13  C 
ENDROOT
BRANCH 4 8
ATOM      8  C   PRO C 306      17.005   8.530   1.512  0.50 36.50 LIG 0.24  C 
ATOM      9  N   ILE C 307      17.989   8.886   2.354  0.50 37.01 LIG-0.35  N 
ATOM     10 H    ILE C 307      18.798   8.601   2.314  0.50 37.01 LIG 0.16  HD
ATOM     11 O    PRO C 306      15.815   8.900   1.632  0.50 36.74 LIG-0.27  OA
BRANCH 9 12
ATOM     12  CA  ILE C 307      17.713   9.829   3.440  0.50 37.44 LIG 0.18  C 
BRANCH 12 13
ATOM     13  C   ILE C 307      18.776  10.924   3.552  0.50 38.23 LIG 0.24  C 
ATOM     14  N   SER C 308      18.312  12.121   3.902  0.50 38.91 LIG-0.34  N 
ATOM     15 H    SER C 308      17.472  12.304   3.937  0.50 38.91 LIG 0.16  HD
ATOM     16 O    ILE C 307      19.974  10.685   3.338  0.50 38.79 LIG-0.27  OA
BRANCH 14 17
ATOM     17  CA  SER C 308      19.168  13.248   4.261  0.50 39.43 LIG 0.20  C 
BRANCH 17 18
ATOM     18  C   SER C 308      19.589  13.893   2.939  0.50 39.77 LIG 0.24  C 
ATOM     19  N   PRO C 309      19.709  15.233   2.914  0.50 40.03 LIG-0.34  N 
ATOM     20  CD  PRO C 309      19.842  16.151   4.056  0.50 39.83 LIG 0.13  C 
ATOM     21  CA  PRO C 309      19.766  15.940   1.633  0.50 40.09 LIG 0.19  C 
ATOM     22  CG  PRO C 309      19.540  17.486   3.450  0.50 40.19 LIG 0.02  C 
ATOM     23  CB  PRO C 309      20.051  17.390   2.045  0.50 40.09 LIG 0.04  C 
ATOM     24 O    SER C 308      19.821  13.191   1.951  0.50 39.81 LIG-0.27  OA
BRANCH 21 25
ATOM     25  C   PRO C 309      20.848  15.407   0.694  0.50 40.04 LIG 0.20  C 
ATOM     26 OXT  PRO C 309      20.590  14.577  -0.182  0.50 40.10 LIG-0.65  OA
ATOM     27 O    PRO C 309      22.016  15.788   0.799  0.50 40.34 LIG-0.65  OA
ENDBRANCH 21 25
ENDBRANCH 17 18
BRANCH 17 28
ATOM     28  CB  SER C 308      20.396  12.775   5.042  0.50 39.49 LIG 0.20  C 
BRANCH 28 29
ATOM     29 OG   SER C 308      20.028  11.956   6.142  0.50 39.70 LIG-0.40  OA
ATOM     30 HG   SER C 308      20.691  11.851   6.648  0.50 39.70 LIG 0.21  HD
ENDBRANCH 28 29
ENDBRANCH 17 28
ENDBRANCH 14 17
ENDBRANCH 12 13
BRANCH 12 31
ATOM     31  CB  ILE C 307      17.608   9.129   4.816  0.50 37.20 LIG 0.01  C 
ATOM     32  CG2 ILE C 307      18.668   9.670   5.788  0.50 36.86 LIG 0.01  C 
BRANCH 31 33
ATOM     33  CG1 ILE C 307      16.173   9.267   5.354  0.50 35.88 LIG 0.00  C 
ATOM     34  CD1 ILE C 307      15.964   8.792   6.771  0.50 32.01 LIG 0.01  C 
ENDBRANCH 31 33
ENDBRANCH 12 31
ENDBRANCH 9 12
ENDBRANCH 4 8
BRANCH 1 35
ATOM     35  CA  PHE C 305      14.176   5.926  -0.638  0.50 34.47 LIG 0.18  C 
BRANCH 35 36
ATOM     36  CB  PHE C 305      13.409   5.255   0.512  0.50 34.49 LIG 0.07  C 
BRANCH 36 37
ATOM     37  CG  PHE C 305      13.490   5.975   1.847  0.50 35.55 LIG-0.06  A 
ATOM     38  CD1 PHE C 305      12.992   7.266   2.018  0.50 36.28 LIG 0.01  A 
ATOM     39  CE1 PHE C 305      13.075   7.907   3.258  0.50 36.66 LIG 0.00  A 
ATOM     40  CZ  PHE C 305      13.675   7.260   4.342  0.50 36.87 LIG 0.00  A 
ATOM     41  CE2 PHE C 305      14.179   5.981   4.187  0.50 36.76 LIG 0.00  A 
ATOM     42  CD2 PHE C 305      14.094   5.345   2.938  0.50 36.02 LIG 0.01  A 
ENDBRANCH 36 37
ENDBRANCH 35 36
BRANCH 35 43
ATOM     43  N   PHE C 305      13.993   5.130  -1.857  0.50 33.54 LIG-0.35  N 
ATOM     44 H    PHE C 305      13.835   4.295  -1.721  0.50 33.54 LIG 0.16  HD
ATOM     45  C   ASN C 304      14.072   5.696  -3.061  0.50 33.07 LIG 0.24  C 
ATOM     46 O    ASN C 304      14.635   6.781  -3.253  0.50 33.39 LIG-0.27  OA
BRANCH 45 47
ATOM     47  CA  ASN C 304      13.413   4.933  -4.218  0.50 32.40 LIG 0.18  C 
BRANCH 47 48
ATOM     48  CB  ASN C 304      13.093   5.826  -5.426  0.50 32.38 LIG 0.14  C 
BRANCH 48 49
ATOM     49  CG  ASN C 304      14.186   5.777  -6.524  0.50 31.77 LIG 0.22  C 
ATOM     50 OD1  ASN C 304      14.536   6.791  -7.117  0.50 27.48 LIG-0.27  OA
ATOM     51  ND2 ASN C 304      14.682   4.581  -6.813  0.50 32.56 LIG-0.37  N 
ATOM     52 21HD ASN C 304      15.270   4.499  -7.436  0.50 32.56 LIG 0.16  HD
ATOM     53 22HD ASN C 304      14.416   3.888  -6.379  0.50 32.56 LIG 0.16  HD
ENDBRANCH 48 49
ENDBRANCH 47 48
BRANCH 47 54
ATOM     54  N   ASN C 304      12.196   4.298  -3.774  0.50 31.56 LIG-0.34  N 
ATOM     55  C   LEU C 303      11.758   3.194  -4.358  0.50 30.83 LIG 0.26  C 
ATOM     56 O    LEU C 303      12.445   2.546  -5.136  0.50 29.02 LIG-0.27  OA
ATOM     57 H    ASN C 304      11.800   4.692  -3.119  0.50 31.56 LIG 0.16  HD
BRANCH 55 58
ATOM     58  CA  LEU C 303      10.330   2.767  -3.996  0.50 30.56 LIG 0.40  C 
ATOM     59  N   LEU C 303       9.646   1.990  -5.066  0.50 30.88 LIG 0.61  N 
BRANCH 58 60
ATOM     60  CB  LEU C 303      10.306   1.984  -2.678  0.50 30.80 LIG 0.06  C 
BRANCH 60 61
ATOM     61  CG  LEU C 303      11.181   2.495  -1.526  0.50 30.92 LIG-0.02  C 
ATOM     62  CD2 LEU C 303      11.319   1.424  -0.428  0.50 31.43 LIG 0.01  C 
ATOM     63  CD1 LEU C 303      10.653   3.805  -0.970  0.50 30.50 LIG 0.01  C 
ENDBRANCH 60 61
ENDBRANCH 58 60
ENDBRANCH 55 58
ENDBRANCH 47 54
ENDBRANCH 45 47
ENDBRANCH 35 43
ENDBRANCH 1 35
TORSDOF 21
ENDMDL
MODEL 36
USER: ADFR SOLUTION from run 167
USER: SCORE 17.590207 LL:  -5.531 LR: -13.586 RR:   0.000 FEB:  -7.322
USER: RMSD 9.406766
USER: SEED 166
USER: STATUS no improvement in best in 14 clusters for 5 generations
USER: GENES 23
USER: genes 0 Translation |==|  0.65037 0.56764 0.62610
USER: genes 1 Rotation |==|  0.41035 0.71456 0.37433 0.92442
USER: genes 2 Torsion [N]-CA--C-[N] |==|  0.87872
USER: genes 3 Torsion [C]-N--CA-[C] |==|  0.59629
USER: genes 4 Torsion [N]-CA--C-[N] |==|  0.45243
USER: genes 5 Torsion [C]-N--CA-[CB] |==|  0.18071
USER: genes 6 Torsion [N]-CA--C-[N] |==|  0.12187
USER: genes 7 Torsion [N]-CA--C-[OXT] |==|  0.79460
USER: genes 8 Torsion [N]-CA--CB-[OG] |==|  0.57615
USER: genes 9 Torsion [CA]-CB--OG-[HG] |==|  0.94141
USER: genes 10 Torsion [N]-CA--CB-[CG2] |==|  0.69086
USER: genes 11 Torsion [CA]-CB--CG1-[CD1] |==|  0.73602
USER: genes 12 Torsion [N]-C--CA-[N] |==|  0.14194
USER: genes 13 Torsion [C]-CA--CB-[CG] |==|  0.41942
USER: genes 14 Torsion [CA]-CB--CG-[CD1] |==|  0.67164
USER: genes 15 Torsion [C]-CA--N-[C] |==|  0.67010
USER: genes 16 Torsion [N]-C--CA-[N] |==|  0.67657
USER: genes 17 Torsion [C]-CA--CB-[CG] |==|  0.28481
USER: genes 18 Torsion [CA]-CB--CG-[OD1] |==|  0.11425
USER: genes 19 Torsion [C]-CA--N-[C] |==|  0.13564
USER: genes 20 Torsion [N]-C--CA-[N] |==|  0.90259
USER: genes 21 Torsion [C]-CA--CB-[CG] |==|  0.17227
USER: genes 22 Torsion [CA]-CB--CG-[CD2] |==|  0.58463
ROOT
ATOM      1  C   PHE C 305      17.226   8.454   2.280  0.50 34.66 LIG 0.24  C 
ATOM      2 O    PHE C 305      16.938   7.294   2.004  0.50 33.80 LIG-0.27  OA
ATOM      3  N   PRO C 306      17.160   8.932   3.538  0.50 35.29 LIG-0.34  N 
ATOM      4  CA  PRO C 306      16.296   8.277   4.507  0.50 35.79 LIG 0.18  C 
ATOM      5  CB  PRO C 306      17.035   8.496   5.847  0.50 35.80 LIG 0.04  C 
ATOM      6  CG  PRO C 306      18.206   9.433   5.529  0.50 35.25 LIG 0.02  C 
ATOM      7  CD  PRO C 306      17.925  10.017   4.172  0.50 35.51 LIG 0.13  C 
ENDROOT
BRANCH 4 8
ATOM      8  C   PRO C 306      14.937   8.978   4.565  0.50 36.50 LIG 0.24  C 
ATOM      9  N   ILE C 307      14.971  10.322   4.577  0.50 37.01 LIG-0.35  N 
ATOM     10 H    ILE C 307      15.687  10.795   4.613  0.50 37.01 LIG 0.16  HD
ATOM     11 O    PRO C 306      13.881   8.307   4.586  0.50 36.74 LIG-0.27  OA
BRANCH 9 12
ATOM     12  CA  ILE C 307      13.721  11.083   4.524  0.50 37.44 LIG 0.18  C 
BRANCH 12 13
ATOM     13  C   ILE C 307      13.860  12.387   3.736  0.50 38.23 LIG 0.24  C 
ATOM     14  N   SER C 308      12.709  12.933   3.353  0.50 38.91 LIG-0.34  N 
ATOM     15 H    SER C 308      11.953  12.529   3.424  0.50 38.91 LIG 0.16  HD
ATOM     16 O    ILE C 307      14.971  12.881   3.496  0.50 38.79 LIG-0.27  OA
BRANCH 14 17
ATOM     17  CA  SER C 308      12.600  14.269   2.773  0.50 39.43 LIG 0.20  C 
BRANCH 17 18
ATOM     18  C   SER C 308      11.102  14.532   2.604  0.50 39.77 LIG 0.24  C 
ATOM     19  N   PRO C 309      10.294  14.190   3.623  0.50 40.03 LIG-0.34  N 
ATOM     20  CD  PRO C 309      10.664  13.925   5.022  0.50 39.83 LIG 0.13  C 
ATOM     21  CA  PRO C 309       8.849  14.087   3.409  0.50 40.09 LIG 0.19  C 
ATOM     22  CG  PRO C 309       9.455  13.227   5.562  0.50 40.19 LIG 0.02  C 
ATOM     23  CB  PRO C 309       8.302  13.833   4.820  0.50 40.09 LIG 0.04  C 
ATOM     24 O    SER C 308      10.676  15.056   1.570  0.50 39.81 LIG-0.27  OA
BRANCH 21 25
ATOM     25  C   PRO C 309       8.236  15.346   2.796  0.50 40.04 LIG 0.20  C 
ATOM     26 OXT  PRO C 309       8.076  16.375   3.460  0.50 40.10 LIG-0.65  OA
ATOM     27 O    PRO C 309       7.871  15.361   1.618  0.50 40.34 LIG-0.65  OA
ENDBRANCH 21 25
ENDBRANCH 17 18
BRANCH 17 28
ATOM     28  CB  SER C 308      13.313  14.339   1.421  0.50 39.49 LIG 0.20  C 
BRANCH 28 29
ATOM     29 OG   SER C 308      13.767  15.655   1.140  0.50 39.70 LIG-0.40  OA
ATOM     30 HG   SER C 308      13.332  16.206   1.601  0.50 39.70 LIG 0.21  HD
ENDBRANCH 28 29
ENDBRANCH 17 28
ENDBRANCH 14 17
ENDBRANCH 12 13
BRANCH 12 31
ATOM     31  CB  ILE C 307      13.187  11.436   5.934  0.50 37.20 LIG 0.01  C 
ATOM     32  CG2 ILE C 307      11.895  10.663   6.239  0.50 36.86 LIG 0.01  C 
BRANCH 31 33
ATOM     33  CG1 ILE C 307      14.293  11.193   6.977  0.50 35.88 LIG 0.00  C 
ATOM     34  CD1 ILE C 307      14.255   9.848   7.660  0.50 32.01 LIG 0.01  C 
ENDBRANCH 31 33
ENDBRANCH 12 31
ENDBRANCH 9 12
ENDBRANCH 4 8
BRANCH 1 35
ATOM     35  CA  PHE C 305      17.718   9.399   1.176  0.50 34.47 LIG 0.18  C 
BRANCH 35 36
ATOM     36  CB  PHE C 305      17.886   8.562  -0.102  0.50 34.49 LIG 0.07  C 
BRANCH 36 37
ATOM     37  CG  PHE C 305      17.687   9.325  -1.402  0.50 35.55 LIG-0.06  A 
ATOM     38  CD1 PHE C 305      16.675   8.992  -2.302  0.50 36.28 LIG 0.01  A 
ATOM     39  CE1 PHE C 305      16.510   9.711  -3.489  0.50 36.66 LIG 0.00  A 
ATOM     40  CZ  PHE C 305      17.373  10.768  -3.795  0.50 36.87 LIG 0.00  A 
ATOM     41  CE2 PHE C 305      18.384  11.106  -2.914  0.50 36.76 LIG 0.00  A 
ATOM     42  CD2 PHE C 305      18.545  10.378  -1.725  0.50 36.02 LIG 0.01  A 
ENDBRANCH 36 37
ENDBRANCH 35 36
BRANCH 35 43
ATOM     43  N   PHE C 305      18.986  10.079   1.465  0.50 33.54 LIG-0.35  N 
ATOM     44 H    PHE C 305      19.658   9.554   1.578  0.50 33.54 LIG 0.16  HD
ATOM     45  C   ASN C 304      19.049  11.409   1.536  0.50 33.07 LIG 0.24  C 
ATOM     46 O    ASN C 304      18.050  12.114   1.722  0.50 33.39 LIG-0.27  OA
BRANCH 45 47
ATOM     47  CA  ASN C 304      20.438  12.036   1.363  0.50 32.40 LIG 0.18  C 
BRANCH 47 48
ATOM     48  CB  ASN C 304      21.522  11.012   0.993  0.50 32.38 LIG 0.14  C 
BRANCH 48 49
ATOM     49  CG  ASN C 304      21.898  11.044  -0.510  0.50 31.77 LIG 0.22  C 
ATOM     50 OD1  ASN C 304      22.017  12.104  -1.113  0.50 27.48 LIG-0.27  OA
ATOM     51  ND2 ASN C 304      22.037   9.868  -1.111  0.50 32.56 LIG-0.37  N 
ATOM     52 21HD ASN C 304      22.217   9.834  -1.952  0.50 32.56 LIG 0.16  HD
ATOM     53 22HD ASN C 304      21.948   9.142  -0.660  0.50 32.56 LIG 0.16  HD
ENDBRANCH 48 49
ENDBRANCH 47 48
BRANCH 47 54
ATOM     54  N   ASN C 304      20.837  12.717   2.571  0.50 31.56 LIG-0.34  N 
ATOM     55  C   LEU C 303      20.738  12.118   3.748  0.50 30.83 LIG 0.26  C 
ATOM     56 O    LEU C 303      20.517  10.920   3.857  0.50 29.02 LIG-0.27  OA
ATOM     57 H    ASN C 304      21.132  13.517   2.456  0.50 31.56 LIG 0.16  HD
BRANCH 55 58
ATOM     58  CA  LEU C 303      20.923  13.018   4.976  0.50 30.56 LIG 0.40  C 
ATOM     59  N   LEU C 303      21.923  14.104   4.778  0.50 30.88 LIG 0.61  N 
BRANCH 58 60
ATOM     60  CB  LEU C 303      19.584  13.610   5.433  0.50 30.80 LIG 0.06  C 
BRANCH 60 61
ATOM     61  CG  LEU C 303      18.491  12.637   5.892  0.50 30.92 LIG-0.02  C 
ATOM     62  CD2 LEU C 303      17.091  13.206   5.593  0.50 31.43 LIG 0.01  C 
ATOM     63  CD1 LEU C 303      18.650  12.277   7.358  0.50 30.50 LIG 0.01  C 
ENDBRANCH 60 61
ENDBRANCH 58 60
ENDBRANCH 55 58
ENDBRANCH 47 54
ENDBRANCH 45 47
ENDBRANCH 35 43
ENDBRANCH 1 35
TORSDOF 21
ENDMDL
MODEL 37
USER: ADFR SOLUTION from run 34
USER: SCORE 17.383307 LL:  -5.604 LR: -13.576 RR:   0.000 FEB:  -7.312
USER: RMSD 9.627711
USER: SEED 33
USER: STATUS no improvement in best in 5 clusters for 5 generations
USER: GENES 23
USER: genes 0 Translation |==|  0.46993 0.67091 0.24092
USER: genes 1 Rotation |==|  0.97801 0.63748 0.54204 0.52902
USER: genes 2 Torsion [N]-CA--C-[N] |==|  0.30441
USER: genes 3 Torsion [C]-N--CA-[C] |==|  0.68487
USER: genes 4 Torsion [N]-CA--C-[N] |==|  0.84423
USER: genes 5 Torsion [C]-N--CA-[CB] |==|  0.45556
USER: genes 6 Torsion [N]-CA--C-[N] |==|  0.40132
USER: genes 7 Torsion [N]-CA--C-[OXT] |==|  0.91227
USER: genes 8 Torsion [N]-CA--CB-[OG] |==|  0.70860
USER: genes 9 Torsion [CA]-CB--OG-[HG] |==|  0.99258
USER: genes 10 Torsion [N]-CA--CB-[CG2] |==|  0.76182
USER: genes 11 Torsion [CA]-CB--CG1-[CD1] |==|  0.35806
USER: genes 12 Torsion [N]-C--CA-[N] |==|  0.48305
USER: genes 13 Torsion [C]-CA--CB-[CG] |==|  0.33597
USER: genes 14 Torsion [CA]-CB--CG-[CD1] |==|  0.56609
USER: genes 15 Torsion [C]-CA--N-[C] |==|  0.69390
USER: genes 16 Torsion [N]-C--CA-[N] |==|  0.93657
USER: genes 17 Torsion [C]-CA--CB-[CG] |==|  0.45178
USER: genes 18 Torsion [CA]-CB--CG-[OD1] |==|  0.82424
USER: genes 19 Torsion [C]-CA--N-[C] |==|  0.77560
USER: genes 20 Torsion [N]-C--CA-[N] |==|  0.39564
USER: genes 21 Torsion [C]-CA--CB-[CG] |==|  0.02729
USER: genes 22 Torsion [CA]-CB--CG-[CD2] |==|  0.62798
ROOT
ATOM      1  C   PHE C 305      12.625  10.933  -5.520  0.50 34.66 LIG 0.24  C 
ATOM      2 O    PHE C 305      12.666  12.079  -5.083  0.50 33.80 LIG-0.27  OA
ATOM      3  N   PRO C 306      11.683  10.532  -6.396  0.50 35.29 LIG-0.34  N 
ATOM      4  CA  PRO C 306      10.423  11.254  -6.471  0.50 35.79 LIG 0.18  C 
ATOM      5  CB  PRO C 306      10.016  11.105  -7.956  0.50 35.80 LIG 0.04  C 
ATOM      6  CG  PRO C 306      11.034  10.138  -8.571  0.50 35.25 LIG 0.02  C 
ATOM      7  CD  PRO C 306      11.741   9.477  -7.420  0.50 35.51 LIG 0.13  C 
ENDROOT
BRANCH 4 8
ATOM      8  C   PRO C 306       9.369  10.573  -5.595  0.50 36.50 LIG 0.24  C 
ATOM      9  N   ILE C 307       9.011  11.239  -4.484  0.50 37.01 LIG-0.35  N 
ATOM     10 H    ILE C 307       9.370  11.971  -4.213  0.50 37.01 LIG 0.16  HD
ATOM     11 O    PRO C 306       8.885   9.470  -5.933  0.50 36.74 LIG-0.27  OA
BRANCH 9 12
ATOM     12  CA  ILE C 307       7.935  10.721  -3.638  0.50 37.44 LIG 0.18  C 
BRANCH 12 13
ATOM     13  C   ILE C 307       6.701  11.626  -3.635  0.50 38.23 LIG 0.24  C 
ATOM     14  N   SER C 308       6.933  12.885  -3.273  0.50 38.91 LIG-0.34  N 
ATOM     15 H    SER C 308       7.683  13.145  -2.942  0.50 38.91 LIG 0.16  HD
ATOM     16 O    ILE C 307       5.585  11.196  -3.959  0.50 38.79 LIG-0.27  OA
BRANCH 14 17
ATOM     17  CA  SER C 308       5.948  13.956  -3.394  0.50 39.43 LIG 0.20  C 
BRANCH 17 18
ATOM     18  C   SER C 308       5.910  14.324  -4.879  0.50 39.77 LIG 0.24  C 
ATOM     19  N   PRO C 309       4.721  14.678  -5.400  0.50 40.03 LIG-0.34  N 
ATOM     20  CD  PRO C 309       3.511  15.109  -4.682  0.50 39.83 LIG 0.13  C 
ATOM     21  CA  PRO C 309       4.536  14.706  -6.852  0.50 40.09 LIG 0.19  C 
ATOM     22  CG  PRO C 309       2.442  14.979  -5.721  0.50 40.19 LIG 0.02  C 
ATOM     23  CB  PRO C 309       3.128  15.293  -7.016  0.50 40.09 LIG 0.04  C 
ATOM     24 O    SER C 308       6.946  14.307  -5.551  0.50 39.81 LIG-0.27  OA
BRANCH 21 25
ATOM     25  C   PRO C 309       5.579  15.555  -7.580  0.50 40.04 LIG 0.20  C 
ATOM     26 OXT  PRO C 309       6.081  16.552  -7.053  0.50 40.10 LIG-0.65  OA
ATOM     27 O    PRO C 309       5.936  15.269  -8.725  0.50 40.34 LIG-0.65  OA
ENDBRANCH 21 25
ENDBRANCH 17 18
BRANCH 17 28
ATOM     28  CB  SER C 308       6.351  15.169  -2.552  0.50 39.49 LIG 0.20  C 
BRANCH 28 29
ATOM     29 OG   SER C 308       5.566  15.266  -1.373  0.50 39.70 LIG-0.40  OA
ATOM     30 HG   SER C 308       4.990  14.654  -1.368  0.50 39.70 LIG 0.21  HD
ENDBRANCH 28 29
ENDBRANCH 17 28
ENDBRANCH 14 17
ENDBRANCH 12 13
BRANCH 12 31
ATOM     31  CB  ILE C 307       8.383  10.525  -2.169  0.50 37.20 LIG 0.01  C 
ATOM     32  CG2 ILE C 307       9.046   9.152  -1.977  0.50 36.86 LIG 0.01  C 
BRANCH 31 33
ATOM     33  CG1 ILE C 307       9.290  11.695  -1.750  0.50 35.88 LIG 0.00  C 
ATOM     34  CD1 ILE C 307       8.906  12.383  -0.463  0.50 32.01 LIG 0.01  C 
ENDBRANCH 31 33
ENDBRANCH 12 31
ENDBRANCH 9 12
ENDBRANCH 4 8
BRANCH 1 35
ATOM     35  CA  PHE C 305      13.696   9.918  -5.100  0.50 34.47 LIG 0.18  C 
BRANCH 35 36
ATOM     36  CB  PHE C 305      12.985   8.794  -4.330  0.50 34.49 LIG 0.07  C 
BRANCH 36 37
ATOM     37  CG  PHE C 305      13.146   7.405  -4.926  0.50 35.55 LIG-0.06  A 
ATOM     38  CD1 PHE C 305      12.224   6.389  -4.680  0.50 36.28 LIG 0.01  A 
ATOM     39  CE1 PHE C 305      12.392   5.120  -5.242  0.50 36.66 LIG 0.00  A 
ATOM     40  CZ  PHE C 305      13.501   4.852  -6.050  0.50 36.87 LIG 0.00  A 
ATOM     41  CE2 PHE C 305      14.427   5.849  -6.299  0.50 36.76 LIG 0.00  A 
ATOM     42  CD2 PHE C 305      14.252   7.120  -5.729  0.50 36.02 LIG 0.01  A 
ENDBRANCH 36 37
ENDBRANCH 35 36
BRANCH 35 43
ATOM     43  N   PHE C 305      14.766  10.464  -4.256  0.50 33.54 LIG-0.35  N 
ATOM     44 H    PHE C 305      14.522  10.679  -3.459  0.50 33.54 LIG 0.16  HD
ATOM     45  C   ASN C 304      16.006  10.601  -4.727  0.50 33.07 LIG 0.24  C 
ATOM     46 O    ASN C 304      16.260  10.628  -5.937  0.50 33.39 LIG-0.27  OA
BRANCH 45 47
ATOM     47  CA  ASN C 304      17.124  10.714  -3.682  0.50 32.40 LIG 0.18  C 
BRANCH 47 48
ATOM     48  CB  ASN C 304      17.868   9.390  -3.449  0.50 32.38 LIG 0.14  C 
BRANCH 48 49
ATOM     49  CG  ASN C 304      19.235   9.578  -2.743  0.50 31.77 LIG 0.22  C 
ATOM     50 OD1  ASN C 304      20.142  10.209  -3.274  0.50 27.48 LIG-0.27  OA
ATOM     51  ND2 ASN C 304      19.381   8.985  -1.565  0.50 32.56 LIG-0.37  N 
ATOM     52 21HD ASN C 304      20.131   9.036  -1.148  0.50 32.56 LIG 0.16  HD
ATOM     53 22HD ASN C 304      18.725   8.550  -1.219  0.50 32.56 LIG 0.16  HD
ENDBRANCH 48 49
ENDBRANCH 47 48
BRANCH 47 54
ATOM     54  N   ASN C 304      16.591  11.175  -2.423  0.50 31.56 LIG-0.34  N 
ATOM     55  C   LEU C 303      16.359  12.463  -2.220  0.50 30.83 LIG 0.26  C 
ATOM     56 O    LEU C 303      16.376  13.284  -3.126  0.50 29.02 LIG-0.27  OA
ATOM     57 H    ASN C 304      16.445  10.557  -1.843  0.50 31.56 LIG 0.16  HD
BRANCH 55 58
ATOM     58  CA  LEU C 303      16.060  12.869  -0.771  0.50 30.56 LIG 0.40  C 
ATOM     59  N   LEU C 303      16.645  14.180  -0.381  0.50 30.88 LIG 0.61  N 
BRANCH 58 60
ATOM     60  CB  LEU C 303      14.551  12.860  -0.497  0.50 30.80 LIG 0.06  C 
BRANCH 60 61
ATOM     61  CG  LEU C 303      13.632  12.253  -1.564  0.50 30.92 LIG-0.02  C 
ATOM     62  CD2 LEU C 303      12.422  13.168  -1.828  0.50 31.43 LIG 0.01  C 
ATOM     63  CD1 LEU C 303      13.202  10.846  -1.189  0.50 30.50 LIG 0.01  C 
ENDBRANCH 60 61
ENDBRANCH 58 60
ENDBRANCH 55 58
ENDBRANCH 47 54
ENDBRANCH 45 47
ENDBRANCH 35 43
ENDBRANCH 1 35
TORSDOF 21
ENDMDL
MODEL 38
USER: ADFR SOLUTION from run 57
USER: SCORE 17.667785 LL:  -6.605 LR: -13.562 RR:   0.000 FEB:  -7.297
USER: RMSD 11.566020
USER: SEED 56
USER: STATUS no improvement in best in 5 clusters for 5 generations
USER: GENES 23
USER: genes 0 Translation |==|  0.45442 0.57790 0.24129
USER: genes 1 Rotation |==|  0.88968 0.32659 0.34656 0.71103
USER: genes 2 Torsion [N]-CA--C-[N] |==|  0.63850
USER: genes 3 Torsion [C]-N--CA-[C] |==|  0.71676
USER: genes 4 Torsion [N]-CA--C-[N] |==|  0.01594
USER: genes 5 Torsion [C]-N--CA-[CB] |==|  0.36968
USER: genes 6 Torsion [N]-CA--C-[N] |==|  0.27044
USER: genes 7 Torsion [N]-CA--C-[OXT] |==|  0.98689
USER: genes 8 Torsion [N]-CA--CB-[OG] |==|  0.40349
USER: genes 9 Torsion [CA]-CB--OG-[HG] |==|  0.06556
USER: genes 10 Torsion [N]-CA--CB-[CG2] |==|  0.82863
USER: genes 11 Torsion [CA]-CB--CG1-[CD1] |==|  0.77204
USER: genes 12 Torsion [N]-C--CA-[N] |==|  0.08058
USER: genes 13 Torsion [C]-CA--CB-[CG] |==|  0.76427
USER: genes 14 Torsion [CA]-CB--CG-[CD1] |==|  0.61198
USER: genes 15 Torsion [C]-CA--N-[C] |==|  0.63402
USER: genes 16 Torsion [N]-C--CA-[N] |==|  0.13672
USER: genes 17 Torsion [C]-CA--CB-[CG] |==|  0.41518
USER: genes 18 Torsion [CA]-CB--CG-[OD1] |==|  0.19774
USER: genes 19 Torsion [C]-CA--N-[C] |==|  0.75258
USER: genes 20 Torsion [N]-C--CA-[N] |==|  0.95701
USER: genes 21 Torsion [C]-CA--CB-[CG] |==|  0.13564
USER: genes 22 Torsion [CA]-CB--CG-[CD2] |==|  0.68375
ROOT
ATOM      1  C   PHE C 305      12.230   8.701  -5.513  0.50 34.66 LIG 0.24  C 
ATOM      2 O    PHE C 305      13.260   8.711  -6.180  0.50 33.80 LIG-0.27  OA
ATOM      3  N   PRO C 306      11.133   9.394  -5.875  0.50 35.29 LIG-0.34  N 
ATOM      4  CA  PRO C 306      11.271  10.542  -6.757  0.50 35.79 LIG 0.18  C 
ATOM      5  CB  PRO C 306       9.945  10.542  -7.551  0.50 35.80 LIG 0.04  C 
ATOM      6  CG  PRO C 306       9.075   9.456  -6.908  0.50 35.25 LIG 0.02  C 
ATOM      7  CD  PRO C 306       9.715   9.126  -5.588  0.50 35.51 LIG 0.13  C 
ENDROOT
BRANCH 4 8
ATOM      8  C   PRO C 306      11.363  11.832  -5.939  0.50 36.50 LIG 0.24  C 
ATOM      9  N   ILE C 307      10.540  12.825  -6.315  0.50 37.01 LIG-0.35  N 
ATOM     10 H    ILE C 307      10.025  12.803  -7.003  0.50 37.01 LIG 0.16  HD
ATOM     11 O    PRO C 306      12.158  11.913  -4.976  0.50 36.74 LIG-0.27  OA
BRANCH 9 12
ATOM     12  CA  ILE C 307      10.478  14.058  -5.530  0.50 37.44 LIG 0.18  C 
BRANCH 12 13
ATOM     13  C   ILE C 307       9.244  14.120  -4.626  0.50 38.23 LIG 0.24  C 
ATOM     14  N   SER C 308       8.508  13.012  -4.611  0.50 38.91 LIG-0.34  N 
ATOM     15 H    SER C 308       8.633  12.360  -5.158  0.50 38.91 LIG 0.16  HD
ATOM     16 O    ILE C 307       8.981  15.133  -3.962  0.50 38.79 LIG-0.27  OA
BRANCH 14 17
ATOM     17  CA  SER C 308       7.412  12.782  -3.673  0.50 39.43 LIG 0.20  C 
BRANCH 17 18
ATOM     18  C   SER C 308       7.927  11.744  -2.673  0.50 39.77 LIG 0.24  C 
ATOM     19  N   PRO C 309       8.411  12.197  -1.503  0.50 40.03 LIG-0.34  N 
ATOM     20  CD  PRO C 309       8.198  13.516  -0.885  0.50 39.83 LIG 0.13  C 
ATOM     21  CA  PRO C 309       9.224  11.320  -0.657  0.50 40.09 LIG 0.19  C 
ATOM     22  CG  PRO C 309       9.268  13.573   0.159  0.50 40.19 LIG 0.02  C 
ATOM     23  CB  PRO C 309       9.434  12.155   0.613  0.50 40.09 LIG 0.04  C 
ATOM     24 O    SER C 308       7.875  10.541  -2.944  0.50 39.81 LIG-0.27  OA
BRANCH 21 25
ATOM     25  C   PRO C 309       8.548   9.987  -0.340  0.50 40.04 LIG 0.20  C 
ATOM     26 OXT  PRO C 309       7.392   9.748  -0.701  0.50 40.10 LIG-0.65  OA
ATOM     27 O    PRO C 309       9.141   9.116   0.301  0.50 40.34 LIG-0.65  OA
ENDBRANCH 21 25
ENDBRANCH 17 18
BRANCH 17 28
ATOM     28  CB  SER C 308       6.171  12.257  -4.399  0.50 39.49 LIG 0.20  C 
BRANCH 28 29
ATOM     29 OG   SER C 308       5.453  11.331  -3.596  0.50 39.70 LIG-0.40  OA
ATOM     30 HG   SER C 308       5.628  11.467  -2.786  0.50 39.70 LIG 0.21  HD
ENDBRANCH 28 29
ENDBRANCH 17 28
ENDBRANCH 14 17
ENDBRANCH 12 13
BRANCH 12 31
ATOM     31  CB  ILE C 307      10.476  15.325  -6.420  0.50 37.20 LIG 0.01  C 
ATOM     32  CG2 ILE C 307      11.768  15.416  -7.246  0.50 36.86 LIG 0.01  C 
BRANCH 31 33
ATOM     33  CG1 ILE C 307       9.206  15.339  -7.288  0.50 35.88 LIG 0.00  C 
ATOM     34  CD1 ILE C 307       9.270  14.503  -8.544  0.50 32.01 LIG 0.01  C 
ENDBRANCH 31 33
ENDBRANCH 12 31
ENDBRANCH 9 12
ENDBRANCH 4 8
BRANCH 1 35
ATOM     35  CA  PHE C 305      12.154   7.845  -4.242  0.50 34.47 LIG 0.18  C 
BRANCH 35 36
ATOM     36  CB  PHE C 305      13.108   6.656  -4.433  0.50 34.49 LIG 0.07  C 
BRANCH 36 37
ATOM     37  CG  PHE C 305      12.517   5.470  -5.177  0.50 35.55 LIG-0.06  A 
ATOM     38  CD1 PHE C 305      12.776   4.156  -4.789  0.50 36.28 LIG 0.01  A 
ATOM     39  CE1 PHE C 305      12.217   3.081  -5.487  0.50 36.66 LIG 0.00  A 
ATOM     40  CZ  PHE C 305      11.400   3.314  -6.597  0.50 36.87 LIG 0.00  A 
ATOM     41  CE2 PHE C 305      11.137   4.613  -6.996  0.50 36.76 LIG 0.00  A 
ATOM     42  CD2 PHE C 305      11.704   5.686  -6.291  0.50 36.02 LIG 0.01  A 
ENDBRANCH 36 37
ENDBRANCH 35 36
BRANCH 35 43
ATOM     43  N   PHE C 305      10.817   7.332  -3.922  0.50 33.54 LIG-0.35  N 
ATOM     44 H    PHE C 305      10.406   6.963  -4.581  0.50 33.54 LIG 0.16  HD
ATOM     45  C   ASN C 304      10.316   7.448  -2.692  0.50 33.07 LIG 0.24  C 
ATOM     46 O    ASN C 304      10.746   8.267  -1.871  0.50 33.39 LIG-0.27  OA
BRANCH 45 47
ATOM     47  CA  ASN C 304       9.169   6.495  -2.330  0.50 32.40 LIG 0.18  C 
BRANCH 47 48
ATOM     48  CB  ASN C 304       8.789   6.544  -0.842  0.50 32.38 LIG 0.14  C 
BRANCH 48 49
ATOM     49  CG  ASN C 304       7.291   6.242  -0.588  0.50 31.77 LIG 0.22  C 
ATOM     50 OD1  ASN C 304       6.838   5.112  -0.730  0.50 27.48 LIG-0.27  OA
ATOM     51  ND2 ASN C 304       6.526   7.274  -0.255  0.50 32.56 LIG-0.37  N 
ATOM     52 21HD ASN C 304       5.682   7.162  -0.132  0.50 32.56 LIG 0.16  HD
ATOM     53 22HD ASN C 304       6.874   8.055  -0.162  0.50 32.56 LIG 0.16  HD
ENDBRANCH 48 49
ENDBRANCH 47 48
BRANCH 47 54
ATOM     54  N   ASN C 304       9.514   5.137  -2.676  0.50 31.56 LIG-0.34  N 
ATOM     55  C   LEU C 303       9.241   4.658  -3.881  0.50 30.83 LIG 0.26  C 
ATOM     56 O    LEU C 303       8.892   5.374  -4.808  0.50 29.02 LIG-0.27  OA
ATOM     57 H    ASN C 304       9.899   4.690  -2.050  0.50 31.56 LIG 0.16  HD
BRANCH 55 58
ATOM     58  CA  LEU C 303       9.396   3.141  -4.047  0.50 30.56 LIG 0.40  C 
ATOM     59  N   LEU C 303      10.169   2.493  -2.953  0.50 30.88 LIG 0.61  N 
BRANCH 58 60
ATOM     60  CB  LEU C 303       8.031   2.462  -4.205  0.50 30.80 LIG 0.06  C 
BRANCH 60 61
ATOM     61  CG  LEU C 303       7.049   3.055  -5.222  0.50 30.92 LIG-0.02  C 
ATOM     62  CD2 LEU C 303       5.812   3.638  -4.513  0.50 31.43 LIG 0.01  C 
ATOM     63  CD1 LEU C 303       6.661   2.035  -6.279  0.50 30.50 LIG 0.01  C 
ENDBRANCH 60 61
ENDBRANCH 58 60
ENDBRANCH 55 58
ENDBRANCH 47 54
ENDBRANCH 45 47
ENDBRANCH 35 43
ENDBRANCH 1 35
TORSDOF 21
ENDMDL
MODEL 39
USER: ADFR SOLUTION from run 71
USER: SCORE 18.103541 LL:  -5.967 LR: -13.558 RR:   0.000 FEB:  -7.293
USER: RMSD 6.090736
USER: SEED 70
USER: STATUS no improvement in best in 17 clusters for 5 generations
USER: GENES 23
USER: genes 0 Translation |==|  0.61491 0.53427 0.47694
USER: genes 1 Rotation |==|  0.41592 0.25231 0.43856 0.92167
USER: genes 2 Torsion [N]-CA--C-[N] |==|  0.66092
USER: genes 3 Torsion [C]-N--CA-[C] |==|  0.73890
USER: genes 4 Torsion [N]-CA--C-[N] |==|  0.91550
USER: genes 5 Torsion [C]-N--CA-[CB] |==|  0.19808
USER: genes 6 Torsion [N]-CA--C-[N] |==|  0.80598
USER: genes 7 Torsion [N]-CA--C-[OXT] |==|  0.83505
USER: genes 8 Torsion [N]-CA--CB-[OG] |==|  0.46745
USER: genes 9 Torsion [CA]-CB--OG-[HG] |==|  0.42360
USER: genes 10 Torsion [N]-CA--CB-[CG2] |==|  0.84639
USER: genes 11 Torsion [CA]-CB--CG1-[CD1] |==|  0.59612
USER: genes 12 Torsion [N]-C--CA-[N] |==|  0.41306
USER: genes 13 Torsion [C]-CA--CB-[CG] |==|  0.25710
USER: genes 14 Torsion [CA]-CB--CG-[CD1] |==|  0.23906
USER: genes 15 Torsion [C]-CA--N-[C] |==|  0.80664
USER: genes 16 Torsion [N]-C--CA-[N] |==|  0.20704
USER: genes 17 Torsion [C]-CA--CB-[CG] |==|  0.44918
USER: genes 18 Torsion [CA]-CB--CG-[OD1] |==|  0.02406
USER: genes 19 Torsion [C]-CA--N-[C] |==|  0.64717
USER: genes 20 Torsion [N]-C--CA-[N] |==|  0.75284
USER: genes 21 Torsion [C]-CA--CB-[CG] |==|  0.17663
USER: genes 22 Torsion [CA]-CB--CG-[CD2] |==|  0.62295
ROOT
ATOM      1  C   PHE C 305      16.322   7.653  -0.741  0.50 34.66 LIG 0.24  C 
ATOM      2 O    PHE C 305      16.725   6.625  -0.206  0.50 33.80 LIG-0.27  OA
ATOM      3  N   PRO C 306      15.124   7.722  -1.354  0.50 35.29 LIG-0.34  N 
ATOM      4  CA  PRO C 306      14.498   6.502  -1.838  0.50 35.79 LIG 0.18  C 
ATOM      5  CB  PRO C 306      12.987   6.798  -1.694  0.50 35.80 LIG 0.04  C 
ATOM      6  CG  PRO C 306      12.888   8.272  -1.285  0.50 35.25 LIG 0.02  C 
ATOM      7  CD  PRO C 306      14.237   8.878  -1.555  0.50 35.51 LIG 0.13  C 
ENDROOT
BRANCH 4 8
ATOM      8  C   PRO C 306      14.826   6.288  -3.317  0.50 36.50 LIG 0.24  C 
ATOM      9  N   ILE C 307      13.772   6.199  -4.145  0.50 37.01 LIG-0.35  N 
ATOM     10 H    ILE C 307      12.949   6.193  -3.895  0.50 37.01 LIG 0.16  HD
ATOM     11 O    PRO C 306      16.017   6.220  -3.695  0.50 36.74 LIG-0.27  OA
BRANCH 9 12
ATOM     12  CA  ILE C 307      13.985   6.100  -5.590  0.50 37.44 LIG 0.18  C 
BRANCH 12 13
ATOM     13  C   ILE C 307      13.934   7.462  -6.286  0.50 38.23 LIG 0.24  C 
ATOM     14  N   SER C 308      13.134   8.355  -5.710  0.50 38.91 LIG-0.34  N 
ATOM     15 H    SER C 308      12.589   8.153  -5.076  0.50 38.91 LIG 0.16  HD
ATOM     16 O    ILE C 307      14.604   7.691  -7.303  0.50 38.79 LIG-0.27  OA
BRANCH 14 17
ATOM     17  CA  SER C 308      13.092   9.765  -6.086  0.50 39.43 LIG 0.20  C 
BRANCH 17 18
ATOM     18  C   SER C 308      12.269  10.464  -5.001  0.50 39.77 LIG 0.24  C 
ATOM     19  N   PRO C 309      10.950  10.202  -4.959  0.50 40.03 LIG-0.34  N 
ATOM     20  CD  PRO C 309      10.231   9.073  -5.571  0.50 39.83 LIG 0.13  C 
ATOM     21  CA  PRO C 309      10.054  11.073  -4.196  0.50 40.09 LIG 0.19  C 
ATOM     22  CG  PRO C 309       8.804   9.521  -5.527  0.50 40.19 LIG 0.02  C 
ATOM     23  CB  PRO C 309       8.703  10.350  -4.283  0.50 40.09 LIG 0.04  C 
ATOM     24 O    SER C 308      12.817  11.222  -4.196  0.50 39.81 LIG-0.27  OA
BRANCH 21 25
ATOM     25  C   PRO C 309      10.487  11.265  -2.742  0.50 40.04 LIG 0.20  C 
ATOM     26 OXT  PRO C 309      10.600  10.308  -1.971  0.50 40.10 LIG-0.65  OA
ATOM     27 O    PRO C 309      10.724  12.391  -2.299  0.50 40.34 LIG-0.65  OA
ENDBRANCH 21 25
ENDBRANCH 17 18
BRANCH 17 28
ATOM     28  CB  SER C 308      12.436   9.947  -7.456  0.50 39.49 LIG 0.20  C 
BRANCH 28 29
ATOM     29 OG   SER C 308      12.146  11.313  -7.716  0.50 39.70 LIG-0.40  OA
ATOM     30 HG   SER C 308      12.151  11.448  -8.545  0.50 39.70 LIG 0.21  HD
ENDBRANCH 28 29
ENDBRANCH 17 28
ENDBRANCH 14 17
ENDBRANCH 12 13
BRANCH 12 31
ATOM     31  CB  ILE C 307      12.949   5.178  -6.277  0.50 37.20 LIG 0.01  C 
ATOM     32  CG2 ILE C 307      12.941   3.785  -5.629  0.50 36.86 LIG 0.01  C 
BRANCH 31 33
ATOM     33  CG1 ILE C 307      11.568   5.856  -6.260  0.50 35.88 LIG 0.00  C 
ATOM     34  CD1 ILE C 307      10.391   4.925  -6.105  0.50 32.01 LIG 0.01  C 
ENDBRANCH 31 33
ENDBRANCH 12 31
ENDBRANCH 9 12
ENDBRANCH 4 8
BRANCH 1 35
ATOM     35  CA  PHE C 305      17.178   8.925  -0.688  0.50 34.47 LIG 0.18  C 
BRANCH 35 36
ATOM     36  CB  PHE C 305      18.067   8.932  -1.941  0.50 34.49 LIG 0.07  C 
BRANCH 36 37
ATOM     37  CG  PHE C 305      17.489   9.673  -3.136  0.50 35.55 LIG-0.06  A 
ATOM     38  CD1 PHE C 305      17.658  11.047  -3.300  0.50 36.28 LIG 0.01  A 
ATOM     39  CE1 PHE C 305      17.120  11.706  -4.410  0.50 36.66 LIG 0.00  A 
ATOM     40  CZ  PHE C 305      16.391  10.990  -5.365  0.50 36.87 LIG 0.00  A 
ATOM     41  CE2 PHE C 305      16.212   9.627  -5.212  0.50 36.76 LIG 0.00  A 
ATOM     42  CD2 PHE C 305      16.753   8.974  -4.094  0.50 36.02 LIG 0.01  A 
ENDBRANCH 36 37
ENDBRANCH 35 36
BRANCH 35 43
ATOM     43  N   PHE C 305      18.034   9.044   0.499  0.50 33.54 LIG-0.35  N 
ATOM     44 H    PHE C 305      18.876   8.964   0.344  0.50 33.54 LIG 0.16  HD
ATOM     45  C   ASN C 304      17.506   9.260   1.704  0.50 33.07 LIG 0.24  C 
ATOM     46 O    ASN C 304      16.320   9.023   1.964  0.50 33.39 LIG-0.27  OA
BRANCH 45 47
ATOM     47  CA  ASN C 304      18.449   9.835   2.769  0.50 32.40 LIG 0.18  C 
BRANCH 47 48
ATOM     48  CB  ASN C 304      17.913   9.677   4.200  0.50 32.38 LIG 0.14  C 
BRANCH 48 49
ATOM     49  CG  ASN C 304      19.013   9.829   5.281  0.50 31.77 LIG 0.22  C 
ATOM     50 OD1  ASN C 304      20.142  10.206   4.989  0.50 27.48 LIG-0.27  OA
ATOM     51  ND2 ASN C 304      18.678   9.488   6.519  0.50 32.56 LIG-0.37  N 
ATOM     52 21HD ASN C 304      19.263   9.528   7.149  0.50 32.56 LIG 0.16  HD
ATOM     53 22HD ASN C 304      17.877   9.228   6.692  0.50 32.56 LIG 0.16  HD
ENDBRANCH 48 49
ENDBRANCH 47 48
BRANCH 47 54
ATOM     54  N   ASN C 304      18.698  11.234   2.518  0.50 31.56 LIG-0.34  N 
ATOM     55  C   LEU C 303      19.937  11.695   2.437  0.50 30.83 LIG 0.26  C 
ATOM     56 O    LEU C 303      20.908  10.957   2.355  0.50 29.02 LIG-0.27  OA
ATOM     57 H    ASN C 304      17.992  11.717   2.430  0.50 31.56 LIG 0.16  HD
BRANCH 55 58
ATOM     58  CA  LEU C 303      20.084  13.222   2.445  0.50 30.56 LIG 0.40  C 
ATOM     59  N   LEU C 303      20.022  13.839   1.092  0.50 30.88 LIG 0.61  N 
BRANCH 58 60
ATOM     60  CB  LEU C 303      19.046  13.870   3.369  0.50 30.80 LIG 0.06  C 
BRANCH 60 61
ATOM     61  CG  LEU C 303      19.120  13.548   4.867  0.50 30.92 LIG-0.02  C 
ATOM     62  CD2 LEU C 303      17.718  13.256   5.434  0.50 31.43 LIG 0.01  C 
ATOM     63  CD1 LEU C 303      19.818  14.654   5.638  0.50 30.50 LIG 0.01  C 
ENDBRANCH 60 61
ENDBRANCH 58 60
ENDBRANCH 55 58
ENDBRANCH 47 54
ENDBRANCH 45 47
ENDBRANCH 35 43
ENDBRANCH 1 35
TORSDOF 21
ENDMDL
MODEL 40
USER: ADFR SOLUTION from run 51
USER: SCORE 18.533916 LL:  -5.954 LR: -13.491 RR:   0.000 FEB:  -7.226
USER: RMSD 8.101486
USER: SEED 50
USER: STATUS no improvement in best in 28 clusters for 5 generations
USER: GENES 23
USER: genes 0 Translation |==|  0.43655 0.51615 0.22414
USER: genes 1 Rotation |==|  0.60243 0.80901 0.73288 0.79964
USER: genes 2 Torsion [N]-CA--C-[N] |==|  0.12275
USER: genes 3 Torsion [C]-N--CA-[C] |==|  0.59730
USER: genes 4 Torsion [N]-CA--C-[N] |==|  0.40134
USER: genes 5 Torsion [C]-N--CA-[CB] |==|  0.51327
USER: genes 6 Torsion [N]-CA--C-[N] |==|  0.46062
USER: genes 7 Torsion [N]-CA--C-[OXT] |==|  0.41797
USER: genes 8 Torsion [N]-CA--CB-[OG] |==|  0.82701
USER: genes 9 Torsion [CA]-CB--OG-[HG] |==|  0.10109
USER: genes 10 Torsion [N]-CA--CB-[CG2] |==|  0.50069
USER: genes 11 Torsion [CA]-CB--CG1-[CD1] |==|  0.58041
USER: genes 12 Torsion [N]-C--CA-[N] |==|  0.88623
USER: genes 13 Torsion [C]-CA--CB-[CG] |==|  0.27148
USER: genes 14 Torsion [CA]-CB--CG-[CD1] |==|  0.86495
USER: genes 15 Torsion [C]-CA--N-[C] |==|  0.78959
USER: genes 16 Torsion [N]-C--CA-[N] |==|  0.18915
USER: genes 17 Torsion [C]-CA--CB-[CG] |==|  0.56937
USER: genes 18 Torsion [CA]-CB--CG-[OD1] |==|  0.90110
USER: genes 19 Torsion [C]-CA--N-[C] |==|  0.76665
USER: genes 20 Torsion [N]-C--CA-[N] |==|  0.41634
USER: genes 21 Torsion [C]-CA--CB-[CG] |==|  0.09741
USER: genes 22 Torsion [CA]-CB--CG-[CD2] |==|  0.73734
ROOT
ATOM      1  C   PHE C 305      11.774   7.218  -5.860  0.50 34.66 LIG 0.24  C 
ATOM      2 O    PHE C 305      11.440   7.204  -7.041  0.50 33.80 LIG-0.27  OA
ATOM      3  N   PRO C 306      12.735   6.408  -5.376  0.50 35.29 LIG-0.34  N 
ATOM      4  CA  PRO C 306      13.055   5.177  -6.080  0.50 35.79 LIG 0.18  C 
ATOM      5  CB  PRO C 306      14.563   4.986  -5.795  0.50 35.80 LIG 0.04  C 
ATOM      6  CG  PRO C 306      14.936   6.074  -4.782  0.50 35.25 LIG 0.02  C 
ATOM      7  CD  PRO C 306      13.641   6.605  -4.233  0.50 35.51 LIG 0.13  C 
ENDROOT
BRANCH 4 8
ATOM      8  C   PRO C 306      12.280   4.004  -5.476  0.50 36.50 LIG 0.24  C 
ATOM      9  N   ILE C 307      10.984   4.234  -5.206  0.50 37.01 LIG-0.35  N 
ATOM     10 H    ILE C 307      10.591   4.993  -5.294  0.50 37.01 LIG 0.16  HD
ATOM     11 O    PRO C 306      12.851   2.909  -5.272  0.50 36.74 LIG-0.27  OA
BRANCH 9 12
ATOM     12  CA  ILE C 307      10.135   3.143  -4.726  0.50 37.44 LIG 0.18  C 
BRANCH 12 13
ATOM     13  C   ILE C 307       8.700   3.240  -5.249  0.50 38.23 LIG 0.24  C 
ATOM     14  N   SER C 308       8.119   2.072  -5.509  0.50 38.91 LIG-0.34  N 
ATOM     15 H    SER C 308       8.549   1.327  -5.512  0.50 38.91 LIG 0.16  HD
ATOM     16 O    ILE C 307       8.141   4.337  -5.398  0.50 38.79 LIG-0.27  OA
BRANCH 14 17
ATOM     17  CA  SER C 308       6.700   1.925  -5.819  0.50 39.43 LIG 0.20  C 
BRANCH 17 18
ATOM     18  C   SER C 308       5.947   2.568  -4.652  0.50 39.77 LIG 0.24  C 
ATOM     19  N   PRO C 309       4.638   2.826  -4.826  0.50 40.03 LIG-0.34  N 
ATOM     20  CD  PRO C 309       3.731   2.262  -5.838  0.50 39.83 LIG 0.13  C 
ATOM     21  CA  PRO C 309       3.942   3.735  -3.913  0.50 40.09 LIG 0.19  C 
ATOM     22  CG  PRO C 309       2.558   3.189  -5.791  0.50 40.19 LIG 0.02  C 
ATOM     23  CB  PRO C 309       2.479   3.631  -4.361  0.50 40.09 LIG 0.04  C 
ATOM     24 O    SER C 308       6.534   2.817  -3.595  0.50 39.81 LIG-0.27  OA
BRANCH 21 25
ATOM     25  C   PRO C 309       4.100   3.354  -2.441  0.50 40.04 LIG 0.20  C 
ATOM     26 OXT  PRO C 309       4.077   4.206  -1.549  0.50 40.10 LIG-0.65  OA
ATOM     27 O    PRO C 309       4.267   2.178  -2.109  0.50 40.34 LIG-0.65  OA
ENDBRANCH 21 25
ENDBRANCH 17 18
BRANCH 17 28
ATOM     28  CB  SER C 308       6.319   0.449  -5.954  0.50 39.49 LIG 0.20  C 
BRANCH 28 29
ATOM     29 OG   SER C 308       7.017  -0.172  -7.024  0.50 39.70 LIG-0.40  OA
ATOM     30 HG   SER C 308       7.795   0.140  -7.070  0.50 39.70 LIG 0.21  HD
ENDBRANCH 28 29
ENDBRANCH 17 28
ENDBRANCH 14 17
ENDBRANCH 12 13
BRANCH 12 31
ATOM     31  CB  ILE C 307      10.072   3.081  -3.180  0.50 37.20 LIG 0.01  C 
ATOM     32  CG2 ILE C 307       9.179   1.922  -2.714  0.50 36.86 LIG 0.01  C 
BRANCH 31 33
ATOM     33  CG1 ILE C 307      11.501   3.005  -2.612  0.50 35.88 LIG 0.00  C 
ATOM     34  CD1 ILE C 307      11.635   2.285  -1.293  0.50 32.01 LIG 0.01  C 
ENDBRANCH 31 33
ENDBRANCH 12 31
ENDBRANCH 9 12
ENDBRANCH 4 8
BRANCH 1 35
ATOM     35  CA  PHE C 305      11.114   8.211  -4.894  0.50 34.47 LIG 0.18  C 
BRANCH 35 36
ATOM     36  CB  PHE C 305      12.063   9.411  -4.752  0.50 34.49 LIG 0.07  C 
BRANCH 36 37
ATOM     37  CG  PHE C 305      11.725  10.607  -5.627  0.50 35.55 LIG-0.06  A 
ATOM     38  CD1 PHE C 305      11.458  10.470  -6.989  0.50 36.28 LIG 0.01  A 
ATOM     39  CE1 PHE C 305      11.145  11.585  -7.772  0.50 36.66 LIG 0.00  A 
ATOM     40  CZ  PHE C 305      11.110  12.858  -7.197  0.50 36.87 LIG 0.00  A 
ATOM     41  CE2 PHE C 305      11.377  13.010  -5.848  0.50 36.76 LIG 0.00  A 
ATOM     42  CD2 PHE C 305      11.693  11.886  -5.069  0.50 36.02 LIG 0.01  A 
ENDBRANCH 36 37
ENDBRANCH 35 36
BRANCH 35 43
ATOM     43  N   PHE C 305      10.827   7.675  -3.559  0.50 33.54 LIG-0.35  N 
ATOM     44 H    PHE C 305      11.367   7.937  -2.942  0.50 33.54 LIG 0.16  HD
ATOM     45  C   ASN C 304       9.800   6.848  -3.360  0.50 33.07 LIG 0.24  C 
ATOM     46 O    ASN C 304       9.267   6.214  -4.278  0.50 33.39 LIG-0.27  OA
BRANCH 45 47
ATOM     47  CA  ASN C 304       9.293   6.726  -1.917  0.50 32.40 LIG 0.18  C 
BRANCH 47 48
ATOM     48  CB  ASN C 304       8.287   5.580  -1.725  0.50 32.38 LIG 0.14  C 
BRANCH 48 49
ATOM     49  CG  ASN C 304       7.335   5.804  -0.523  0.50 31.77 LIG 0.22  C 
ATOM     50 OD1  ASN C 304       7.723   6.352   0.502  0.50 27.48 LIG-0.27  OA
ATOM     51  ND2 ASN C 304       6.101   5.332  -0.649  0.50 32.56 LIG-0.37  N 
ATOM     52 21HD ASN C 304       5.544   5.405   0.002  0.50 32.56 LIG 0.16  HD
ATOM     53 22HD ASN C 304       5.858   4.952  -1.382  0.50 32.56 LIG 0.16  HD
ENDBRANCH 48 49
ENDBRANCH 47 48
BRANCH 47 54
ATOM     54  N   ASN C 304       8.678   7.960  -1.493  0.50 31.56 LIG-0.34  N 
ATOM     55  C   LEU C 303       9.415   8.953  -1.018  0.50 30.83 LIG 0.26  C 
ATOM     56 O    LEU C 303      10.635   8.967  -1.110  0.50 29.02 LIG-0.27  OA
ATOM     57 H    ASN C 304       7.823   7.986  -1.576  0.50 31.56 LIG 0.16  HD
BRANCH 55 58
ATOM     58  CA  LEU C 303       8.644  10.096  -0.346  0.50 30.56 LIG 0.40  C 
ATOM     59  N   LEU C 303       9.404  10.778   0.737  0.50 30.88 LIG 0.61  N 
BRANCH 58 60
ATOM     60  CB  LEU C 303       8.165  11.121  -1.382  0.50 30.80 LIG 0.06  C 
BRANCH 60 61
ATOM     61  CG  LEU C 303       7.742  10.601  -2.761  0.50 30.92 LIG-0.02  C 
ATOM     62  CD2 LEU C 303       8.914  10.675  -3.757  0.50 31.43 LIG 0.01  C 
ATOM     63  CD1 LEU C 303       6.518  11.336  -3.278  0.50 30.50 LIG 0.01  C 
ENDBRANCH 60 61
ENDBRANCH 58 60
ENDBRANCH 55 58
ENDBRANCH 47 54
ENDBRANCH 45 47
ENDBRANCH 35 43
ENDBRANCH 1 35
TORSDOF 21
ENDMDL
MODEL 41
USER: ADFR SOLUTION from run 30
USER: SCORE 17.764072 LL:  -6.211 LR: -13.493 RR:   0.000 FEB:  -7.229
USER: RMSD 11.163822
USER: SEED 29
USER: STATUS no improvement in best in 9 clusters for 5 generations
USER: GENES 23
USER: genes 0 Translation |==|  0.46393 0.59092 0.23994
USER: genes 1 Rotation |==|  0.87873 0.34129 0.35184 0.74377
USER: genes 2 Torsion [N]-CA--C-[N] |==|  0.66401
USER: genes 3 Torsion [C]-N--CA-[C] |==|  0.70182
USER: genes 4 Torsion [N]-CA--C-[N] |==|  0.01592
USER: genes 5 Torsion [C]-N--CA-[CB] |==|  0.30400
USER: genes 6 Torsion [N]-CA--C-[N] |==|  0.29771
USER: genes 7 Torsion [N]-CA--C-[OXT] |==|  0.90029
USER: genes 8 Torsion [N]-CA--CB-[OG] |==|  0.34836
USER: genes 9 Torsion [CA]-CB--OG-[HG] |==|  0.19108
USER: genes 10 Torsion [N]-CA--CB-[CG2] |==|  0.60774
USER: genes 11 Torsion [CA]-CB--CG1-[CD1] |==|  0.34285
USER: genes 12 Torsion [N]-C--CA-[N] |==|  0.33044
USER: genes 13 Torsion [C]-CA--CB-[CG] |==|  0.18065
USER: genes 14 Torsion [CA]-CB--CG-[CD1] |==|  0.57243
USER: genes 15 Torsion [C]-CA--N-[C] |==|  0.75408
USER: genes 16 Torsion [N]-C--CA-[N] |==|  0.37279
USER: genes 17 Torsion [C]-CA--CB-[CG] |==|  0.72351
USER: genes 18 Torsion [CA]-CB--CG-[OD1] |==|  0.75401
USER: genes 19 Torsion [C]-CA--N-[C] |==|  0.55623
USER: genes 20 Torsion [N]-C--CA-[N] |==|  0.18116
USER: genes 21 Torsion [C]-CA--CB-[CG] |==|  0.15004
USER: genes 22 Torsion [CA]-CB--CG-[CD2] |==|  0.57369
ROOT
ATOM      1  C   PHE C 305      12.472   9.013  -5.540  0.50 34.66 LIG 0.24  C 
ATOM      2 O    PHE C 305      13.454   9.026  -6.276  0.50 33.80 LIG-0.27  OA
ATOM      3  N   PRO C 306      11.301   9.577  -5.895  0.50 35.29 LIG-0.34  N 
ATOM      4  CA  PRO C 306      11.288  10.625  -6.902  0.50 35.79 LIG 0.18  C 
ATOM      5  CB  PRO C 306       9.919  10.435  -7.595  0.50 35.80 LIG 0.04  C 
ATOM      6  CG  PRO C 306       9.184   9.366  -6.779  0.50 35.25 LIG 0.02  C 
ATOM      7  CD  PRO C 306       9.931   9.235  -5.481  0.50 35.51 LIG 0.13  C 
ENDROOT
BRANCH 4 8
ATOM      8  C   PRO C 306      11.323  12.002  -6.235  0.50 36.50 LIG 0.24  C 
ATOM      9  N   ILE C 307      10.289  12.814  -6.512  0.50 37.01 LIG-0.35  N 
ATOM     10 H    ILE C 307       9.660  12.637  -7.070  0.50 37.01 LIG 0.16  HD
ATOM     11 O    PRO C 306      12.267  12.310  -5.474  0.50 36.74 LIG-0.27  OA
BRANCH 9 12
ATOM     12  CA  ILE C 307      10.179  14.109  -5.839  0.50 37.44 LIG 0.18  C 
BRANCH 12 13
ATOM     13  C   ILE C 307       9.063  14.135  -4.791  0.50 38.23 LIG 0.24  C 
ATOM     14  N   SER C 308       8.467  12.965  -4.580  0.50 38.91 LIG-0.34  N 
ATOM     15 H    SER C 308       8.601  12.276  -5.078  0.50 38.91 LIG 0.16  HD
ATOM     16 O    ILE C 307       8.765  15.179  -4.192  0.50 38.79 LIG-0.27  OA
BRANCH 14 17
ATOM     17  CA  SER C 308       7.526  12.721  -3.490  0.50 39.43 LIG 0.20  C 
BRANCH 17 18
ATOM     18  C   SER C 308       7.997  11.432  -2.811  0.50 39.77 LIG 0.24  C 
ATOM     19  N   PRO C 309       8.577  11.545  -1.603  0.50 40.03 LIG-0.34  N 
ATOM     20  CD  PRO C 309       8.513  12.682  -0.670  0.50 39.83 LIG 0.13  C 
ATOM     21  CA  PRO C 309       9.350  10.429  -1.054  0.50 40.09 LIG 0.19  C 
ATOM     22  CG  PRO C 309       9.635  12.400   0.279  0.50 40.19 LIG 0.02  C 
ATOM     23  CB  PRO C 309       9.697  10.905   0.363  0.50 40.09 LIG 0.04  C 
ATOM     24 O    SER C 308       7.825  10.341  -3.361  0.50 39.81 LIG-0.27  OA
BRANCH 21 25
ATOM     25  C   PRO C 309       8.575   9.112  -1.022  0.50 40.04 LIG 0.20  C 
ATOM     26 OXT  PRO C 309       7.365   9.082  -0.784  0.50 40.10 LIG-0.65  OA
ATOM     27 O    PRO C 309       9.148   8.039  -1.223  0.50 40.34 LIG-0.65  OA
ENDBRANCH 21 25
ENDBRANCH 17 18
BRANCH 17 28
ATOM     28  CB  SER C 308       6.102  12.555  -4.024  0.50 39.49 LIG 0.20  C 
BRANCH 28 29
ATOM     29 OG   SER C 308       5.523  11.332  -3.590  0.50 39.70 LIG-0.40  OA
ATOM     30 HG   SER C 308       5.386  11.365  -2.762  0.50 39.70 LIG 0.21  HD
ENDBRANCH 28 29
ENDBRANCH 17 28
ENDBRANCH 14 17
ENDBRANCH 12 13
BRANCH 12 31
ATOM     31  CB  ILE C 307       9.922  15.269  -6.831  0.50 37.20 LIG 0.01  C 
ATOM     32  CG2 ILE C 307      10.704  16.526  -6.418  0.50 36.86 LIG 0.01  C 
BRANCH 31 33
ATOM     33  CG1 ILE C 307      10.248  14.802  -8.261  0.50 35.88 LIG 0.00  C 
ATOM     34  CD1 ILE C 307       9.122  14.933  -9.258  0.50 32.01 LIG 0.01  C 
ENDBRANCH 31 33
ENDBRANCH 12 31
ENDBRANCH 9 12
ENDBRANCH 4 8
BRANCH 1 35
ATOM     35  CA  PHE C 305      12.548   8.302  -4.183  0.50 34.47 LIG 0.18  C 
BRANCH 35 36
ATOM     36  CB  PHE C 305      13.630   9.012  -3.354  0.50 34.49 LIG 0.07  C 
BRANCH 36 37
ATOM     37  CG  PHE C 305      13.319  10.455  -2.991  0.50 35.55 LIG-0.06  A 
ATOM     38  CD1 PHE C 305      14.329  11.384  -2.740  0.50 36.28 LIG 0.01  A 
ATOM     39  CE1 PHE C 305      14.018  12.707  -2.411  0.50 36.66 LIG 0.00  A 
ATOM     40  CZ  PHE C 305      12.683  13.111  -2.318  0.50 36.87 LIG 0.00  A 
ATOM     41  CE2 PHE C 305      11.671  12.200  -2.561  0.50 36.76 LIG 0.00  A 
ATOM     42  CD2 PHE C 305      11.991  10.873  -2.888  0.50 36.02 LIG 0.01  A 
ENDBRANCH 36 37
ENDBRANCH 35 36
BRANCH 35 43
ATOM     43  N   PHE C 305      12.869   6.872  -4.252  0.50 33.54 LIG-0.35  N 
ATOM     44 H    PHE C 305      13.708   6.689  -4.203  0.50 33.54 LIG 0.16  HD
ATOM     45  C   ASN C 304      11.905   5.960  -4.381  0.50 33.07 LIG 0.24  C 
ATOM     46 O    ASN C 304      10.774   6.240  -4.797  0.50 33.39 LIG-0.27  OA
BRANCH 45 47
ATOM     47  CA  ASN C 304      12.264   4.526  -3.971  0.50 32.40 LIG 0.18  C 
BRANCH 47 48
ATOM     48  CB  ASN C 304      12.516   3.600  -5.171  0.50 32.38 LIG 0.14  C 
BRANCH 48 49
ATOM     49  CG  ASN C 304      11.297   2.709  -5.517  0.50 31.77 LIG 0.22  C 
ATOM     50 OD1  ASN C 304      11.142   1.612  -4.991  0.50 27.48 LIG-0.27  OA
ATOM     51  ND2 ASN C 304      10.464   3.175  -6.438  0.50 32.56 LIG-0.37  N 
ATOM     52 21HD ASN C 304       9.788   2.704  -6.685  0.50 32.56 LIG 0.16  HD
ATOM     53 22HD ASN C 304      10.599   3.949  -6.788  0.50 32.56 LIG 0.16  HD
ENDBRANCH 48 49
ENDBRANCH 47 48
BRANCH 47 54
ATOM     54  N   ASN C 304      11.216   3.957  -3.158  0.50 31.56 LIG-0.34  N 
ATOM     55  C   LEU C 303      11.459   2.918  -2.373  0.50 30.83 LIG 0.26  C 
ATOM     56 O    LEU C 303      12.593   2.530  -2.132  0.50 29.02 LIG-0.27  OA
ATOM     57 H    ASN C 304      10.451   4.343  -3.232  0.50 31.56 LIG 0.16  HD
BRANCH 55 58
ATOM     58  CA  LEU C 303      10.226   2.230  -1.774  0.50 30.56 LIG 0.40  C 
ATOM     59  N   LEU C 303       9.349   1.581  -2.786  0.50 30.88 LIG 0.61  N 
BRANCH 58 60
ATOM     60  CB  LEU C 303      10.630   1.216  -0.696  0.50 30.80 LIG 0.06  C 
BRANCH 60 61
ATOM     61  CG  LEU C 303      11.519   1.709   0.453  0.50 30.92 LIG-0.02  C 
ATOM     62  CD2 LEU C 303      12.350   0.551   1.036  0.50 31.43 LIG 0.01  C 
ATOM     63  CD1 LEU C 303      10.702   2.409   1.524  0.50 30.50 LIG 0.01  C 
ENDBRANCH 60 61
ENDBRANCH 58 60
ENDBRANCH 55 58
ENDBRANCH 47 54
ENDBRANCH 45 47
ENDBRANCH 35 43
ENDBRANCH 1 35
TORSDOF 21
ENDMDL
MODEL 42
USER: ADFR SOLUTION from run 73
USER: SCORE 18.622584 LL:  -6.310 LR: -13.485 RR:   0.000 FEB:  -7.220
USER: RMSD 12.032275
USER: SEED 72
USER: STATUS no improvement in best in 11 clusters for 5 generations
USER: GENES 23
USER: genes 0 Translation |==|  0.46569 0.60613 0.21647
USER: genes 1 Rotation |==|  0.95876 0.34546 0.40153 0.57719
USER: genes 2 Torsion [N]-CA--C-[N] |==|  0.12990
USER: genes 3 Torsion [C]-N--CA-[C] |==|  0.63708
USER: genes 4 Torsion [N]-CA--C-[N] |==|  0.48318
USER: genes 5 Torsion [C]-N--CA-[CB] |==|  0.16593
USER: genes 6 Torsion [N]-CA--C-[N] |==|  0.16718
USER: genes 7 Torsion [N]-CA--C-[OXT] |==|  0.35706
USER: genes 8 Torsion [N]-CA--CB-[OG] |==|  0.74185
USER: genes 9 Torsion [CA]-CB--OG-[HG] |==|  0.78314
USER: genes 10 Torsion [N]-CA--CB-[CG2] |==|  0.61885
USER: genes 11 Torsion [CA]-CB--CG1-[CD1] |==|  0.71238
USER: genes 12 Torsion [N]-C--CA-[N] |==|  0.88648
USER: genes 13 Torsion [C]-CA--CB-[CG] |==|  0.46215
USER: genes 14 Torsion [CA]-CB--CG-[CD1] |==|  0.86497
USER: genes 15 Torsion [C]-CA--N-[C] |==|  0.66111
USER: genes 16 Torsion [N]-C--CA-[N] |==|  0.30965
USER: genes 17 Torsion [C]-CA--CB-[CG] |==|  0.42526
USER: genes 18 Torsion [CA]-CB--CG-[OD1] |==|  0.72409
USER: genes 19 Torsion [C]-CA--N-[C] |==|  0.74674
USER: genes 20 Torsion [N]-C--CA-[N] |==|  0.58037
USER: genes 21 Torsion [C]-CA--CB-[CG] |==|  0.77676
USER: genes 22 Torsion [CA]-CB--CG-[CD2] |==|  0.62080
ROOT
ATOM      1  C   PHE C 305      12.517   9.378  -6.016  0.50 34.66 LIG 0.24  C 
ATOM      2 O    PHE C 305      13.701   9.682  -6.124  0.50 33.80 LIG-0.27  OA
ATOM      3  N   PRO C 306      11.526  10.182  -6.449  0.50 35.29 LIG-0.34  N 
ATOM      4  CA  PRO C 306      11.775  11.608  -6.595  0.50 35.79 LIG 0.18  C 
ATOM      5  CB  PRO C 306      10.857  12.009  -7.773  0.50 35.80 LIG 0.04  C 
ATOM      6  CG  PRO C 306      10.018  10.765  -8.090  0.50 35.25 LIG 0.02  C 
ATOM      7  CD  PRO C 306      10.175   9.838  -6.917  0.50 35.51 LIG 0.13  C 
ENDROOT
BRANCH 4 8
ATOM      8  C   PRO C 306      11.327  12.355  -5.337  0.50 36.50 LIG 0.24  C 
ATOM      9  N   ILE C 307      11.719  11.822  -4.168  0.50 37.01 LIG-0.35  N 
ATOM     10 H    ILE C 307      12.140  11.077  -4.083  0.50 37.01 LIG 0.16  HD
ATOM     11 O    PRO C 306      10.650  13.403  -5.433  0.50 36.74 LIG-0.27  OA
BRANCH 9 12
ATOM     12  CA  ILE C 307      11.431  12.521  -2.914  0.50 37.44 LIG 0.18  C 
BRANCH 12 13
ATOM     13  C   ILE C 307      12.662  12.648  -2.015  0.50 38.23 LIG 0.24  C 
ATOM     14  N   SER C 308      12.483  13.385  -0.922  0.50 38.91 LIG-0.34  N 
ATOM     15 H    SER C 308      11.778  13.860  -0.790  0.50 38.91 LIG 0.16  HD
ATOM     16 O    ILE C 307      13.730  12.088  -2.301  0.50 38.79 LIG-0.27  OA
BRANCH 14 17
ATOM     17  CA  SER C 308      13.453  13.469   0.165  0.50 39.43 LIG 0.20  C 
BRANCH 17 18
ATOM     18  C   SER C 308      12.846  14.423   1.196  0.50 39.77 LIG 0.24  C 
ATOM     19  N   PRO C 309      11.665  14.079   1.739  0.50 40.03 LIG-0.34  N 
ATOM     20  CD  PRO C 309      11.031  12.751   1.760  0.50 39.83 LIG 0.13  C 
ATOM     21  CA  PRO C 309      10.867  15.078   2.454  0.50 40.09 LIG 0.19  C 
ATOM     22  CG  PRO C 309       9.614  13.062   2.126  0.50 40.19 LIG 0.02  C 
ATOM     23  CB  PRO C 309       9.706  14.255   3.028  0.50 40.09 LIG 0.04  C 
ATOM     24 O    SER C 308      13.443  15.456   1.515  0.50 39.81 LIG-0.27  OA
BRANCH 21 25
ATOM     25  C   PRO C 309      11.641  15.793   3.561  0.50 40.04 LIG 0.20  C 
ATOM     26 OXT  PRO C 309      11.673  17.025   3.633  0.50 40.10 LIG-0.65  OA
ATOM     27 O    PRO C 309      12.267  15.152   4.408  0.50 40.34 LIG-0.65  OA
ENDBRANCH 21 25
ENDBRANCH 17 18
BRANCH 17 28
ATOM     28  CB  SER C 308      14.795  14.008  -0.338  0.50 39.49 LIG 0.20  C 
BRANCH 28 29
ATOM     29 OG   SER C 308      15.673  12.954  -0.706  0.50 39.70 LIG-0.40  OA
ATOM     30 HG   SER C 308      16.011  12.617  -0.015  0.50 39.70 LIG 0.21  HD
ENDBRANCH 28 29
ENDBRANCH 17 28
ENDBRANCH 14 17
ENDBRANCH 12 13
BRANCH 12 31
ATOM     31  CB  ILE C 307      10.316  11.826  -2.095  0.50 37.20 LIG 0.01  C 
ATOM     32  CG2 ILE C 307       9.338  12.860  -1.515  0.50 36.86 LIG 0.01  C 
BRANCH 31 33
ATOM     33  CG1 ILE C 307       9.622  10.767  -2.969  0.50 35.88 LIG 0.00  C 
ATOM     34  CD1 ILE C 307       8.266  11.156  -3.506  0.50 32.01 LIG 0.01  C 
ENDBRANCH 31 33
ENDBRANCH 12 31
ENDBRANCH 9 12
ENDBRANCH 4 8
BRANCH 1 35
ATOM     35  CA  PHE C 305      12.131   8.025  -5.404  0.50 34.47 LIG 0.18  C 
BRANCH 35 36
ATOM     36  CB  PHE C 305      11.851   7.061  -6.567  0.50 34.49 LIG 0.07  C 
BRANCH 36 37
ATOM     37  CG  PHE C 305      11.769   5.593  -6.180  0.50 35.55 LIG-0.06  A 
ATOM     38  CD1 PHE C 305      12.741   4.987  -5.386  0.50 36.28 LIG 0.01  A 
ATOM     39  CE1 PHE C 305      12.642   3.635  -5.040  0.50 36.66 LIG 0.00  A 
ATOM     40  CZ  PHE C 305      11.567   2.871  -5.503  0.50 36.87 LIG 0.00  A 
ATOM     41  CE2 PHE C 305      10.597   3.458  -6.296  0.50 36.76 LIG 0.00  A 
ATOM     42  CD2 PHE C 305      10.705   4.814  -6.640  0.50 36.02 LIG 0.01  A 
ENDBRANCH 36 37
ENDBRANCH 35 36
BRANCH 35 43
ATOM     43  N   PHE C 305      10.958   8.058  -4.524  0.50 33.54 LIG-0.35  N 
ATOM     44 H    PHE C 305      10.238   8.350  -4.894  0.50 33.54 LIG 0.16  HD
ATOM     45  C   ASN C 304      11.043   7.657  -3.255  0.50 33.07 LIG 0.24  C 
ATOM     46 O    ASN C 304      12.119   7.582  -2.651  0.50 33.39 LIG-0.27  OA
BRANCH 45 47
ATOM     47  CA  ASN C 304       9.723   7.275  -2.571  0.50 32.40 LIG 0.18  C 
BRANCH 47 48
ATOM     48  CB  ASN C 304       9.491   8.023  -1.249  0.50 32.38 LIG 0.14  C 
BRANCH 48 49
ATOM     49  CG  ASN C 304       7.990   8.182  -0.897  0.50 31.77 LIG 0.22  C 
ATOM     50 OD1  ASN C 304       7.392   9.227  -1.123  0.50 27.48 LIG-0.27  OA
ATOM     51  ND2 ASN C 304       7.408   7.148  -0.303  0.50 32.56 LIG-0.37  N 
ATOM     52 21HD ASN C 304       6.583   7.198  -0.061  0.50 32.56 LIG 0.16  HD
ATOM     53 22HD ASN C 304       7.854   6.427  -0.158  0.50 32.56 LIG 0.16  HD
ENDBRANCH 48 49
ENDBRANCH 47 48
BRANCH 47 54
ATOM     54  N   ASN C 304       9.681   5.856  -2.316  0.50 31.56 LIG-0.34  N 
ATOM     55  C   LEU C 303       9.160   5.025  -3.206  0.50 30.83 LIG 0.26  C 
ATOM     56 O    LEU C 303       8.892   5.372  -4.348  0.50 29.02 LIG-0.27  OA
ATOM     57 H    ASN C 304      10.013   5.613  -1.560  0.50 31.56 LIG 0.16  HD
BRANCH 55 58
ATOM     58  CA  LEU C 303       8.916   3.591  -2.720  0.50 30.56 LIG 0.40  C 
ATOM     59  N   LEU C 303       8.997   2.569  -3.800  0.50 30.88 LIG 0.61  N 
BRANCH 58 60
ATOM     60  CB  LEU C 303       9.869   3.227  -1.575  0.50 30.80 LIG 0.06  C 
BRANCH 60 61
ATOM     61  CG  LEU C 303      11.300   2.812  -1.939  0.50 30.92 LIG-0.02  C 
ATOM     62  CD2 LEU C 303      11.740   1.588  -1.116  0.50 31.43 LIG 0.01  C 
ATOM     63  CD1 LEU C 303      12.269   3.971  -1.785  0.50 30.50 LIG 0.01  C 
ENDBRANCH 60 61
ENDBRANCH 58 60
ENDBRANCH 55 58
ENDBRANCH 47 54
ENDBRANCH 45 47
ENDBRANCH 35 43
ENDBRANCH 1 35
TORSDOF 21
ENDMDL
MODEL 43
USER: ADFR SOLUTION from run 51
USER: SCORE 17.170700 LL:  -4.715 LR: -13.465 RR:   0.000 FEB:  -7.201
USER: RMSD 6.901095
USER: SEED 50
USER: STATUS no improvement in best in 28 clusters for 5 generations
USER: GENES 23
USER: genes 0 Translation |==|  0.39150 0.47822 0.27787
USER: genes 1 Rotation |==|  0.70425 0.88034 0.68663 0.66968
USER: genes 2 Torsion [N]-CA--C-[N] |==|  0.27112
USER: genes 3 Torsion [C]-N--CA-[C] |==|  0.63702
USER: genes 4 Torsion [N]-CA--C-[N] |==|  0.46577
USER: genes 5 Torsion [C]-N--CA-[CB] |==|  0.82222
USER: genes 6 Torsion [N]-CA--C-[N] |==|  0.21935
USER: genes 7 Torsion [N]-CA--C-[OXT] |==|  0.95102
USER: genes 8 Torsion [N]-CA--CB-[OG] |==|  0.96481
USER: genes 9 Torsion [CA]-CB--OG-[HG] |==|  0.90828
USER: genes 10 Torsion [N]-CA--CB-[CG2] |==|  0.72175
USER: genes 11 Torsion [CA]-CB--CG1-[CD1] |==|  0.22059
USER: genes 12 Torsion [N]-C--CA-[N] |==|  0.00260
USER: genes 13 Torsion [C]-CA--CB-[CG] |==|  0.90530
USER: genes 14 Torsion [CA]-CB--CG-[CD1] |==|  0.84032
USER: genes 15 Torsion [C]-CA--N-[C] |==|  0.71475
USER: genes 16 Torsion [N]-C--CA-[N] |==|  0.34607
USER: genes 17 Torsion [C]-CA--CB-[CG] |==|  0.51131
USER: genes 18 Torsion [CA]-CB--CG-[OD1] |==|  0.07946
USER: genes 19 Torsion [C]-CA--N-[C] |==|  0.80543
USER: genes 20 Torsion [N]-C--CA-[N] |==|  0.71204
USER: genes 21 Torsion [C]-CA--CB-[CG] |==|  0.72651
USER: genes 22 Torsion [CA]-CB--CG-[CD2] |==|  0.71760
ROOT
ATOM      1  C   PHE C 305      10.625   6.308  -4.772  0.50 34.66 LIG 0.24  C 
ATOM      2 O    PHE C 305       9.590   6.441  -5.417  0.50 33.80 LIG-0.27  OA
ATOM      3  N   PRO C 306      11.582   5.427  -5.123  0.50 35.29 LIG-0.34  N 
ATOM      4  CA  PRO C 306      11.231   4.281  -5.948  0.50 35.79 LIG 0.18  C 
ATOM      5  CB  PRO C 306      12.518   4.027  -6.768  0.50 35.80 LIG 0.04  C 
ATOM      6  CG  PRO C 306      13.573   4.979  -6.193  0.50 35.25 LIG 0.02  C 
ATOM      7  CD  PRO C 306      13.032   5.468  -4.878  0.50 35.51 LIG 0.13  C 
ENDROOT
BRANCH 4 8
ATOM      8  C   PRO C 306      10.951   3.061  -5.068  0.50 36.50 LIG 0.24  C 
ATOM      9  N   ILE C 307       9.657   2.816  -4.801  0.50 37.01 LIG-0.35  N 
ATOM     10 H    ILE C 307       9.002   3.321  -5.035  0.50 37.01 LIG 0.16  HD
ATOM     11 O    PRO C 306      11.895   2.352  -4.654  0.50 36.74 LIG-0.27  OA
BRANCH 9 12
ATOM     12  CA  ILE C 307       9.282   1.613  -4.057  0.50 37.44 LIG 0.18  C 
BRANCH 12 13
ATOM     13  C   ILE C 307       8.156   0.828  -4.735  0.50 38.23 LIG 0.24  C 
ATOM     14  N   SER C 308       7.953  -0.392  -4.248  0.50 38.91 LIG-0.34  N 
ATOM     15 H    SER C 308       8.488  -0.767  -3.688  0.50 38.91 LIG 0.16  HD
ATOM     16 O    ILE C 307       7.493   1.321  -5.660  0.50 38.79 LIG-0.27  OA
BRANCH 14 17
ATOM     17  CA  SER C 308       6.810  -1.227  -4.607  0.50 39.43 LIG 0.20  C 
BRANCH 17 18
ATOM     18  C   SER C 308       6.839  -1.346  -6.132  0.50 39.77 LIG 0.24  C 
ATOM     19  N   PRO C 309       7.709  -2.220  -6.669  0.50 40.03 LIG-0.34  N 
ATOM     20  CD  PRO C 309       8.393  -3.341  -6.004  0.50 39.83 LIG 0.13  C 
ATOM     21  CA  PRO C 309       8.040  -2.145  -8.094  0.50 40.09 LIG 0.19  C 
ATOM     22  CG  PRO C 309       9.491  -3.680  -6.963  0.50 40.19 LIG 0.02  C 
ATOM     23  CB  PRO C 309       8.921  -3.382  -8.316  0.50 40.09 LIG 0.04  C 
ATOM     24 O    SER C 308       6.073  -0.669  -6.824  0.50 39.81 LIG-0.27  OA
BRANCH 21 25
ATOM     25  C   PRO C 309       6.811  -2.169  -9.003  0.50 40.04 LIG 0.20  C 
ATOM     26 OXT  PRO C 309       5.714  -2.560  -8.595  0.50 40.10 LIG-0.65  OA
ATOM     27 O    PRO C 309       6.891  -1.807 -10.179  0.50 40.34 LIG-0.65  OA
ENDBRANCH 21 25
ENDBRANCH 17 18
BRANCH 17 28
ATOM     28  CB  SER C 308       5.498  -0.587  -4.145  0.50 39.49 LIG 0.20  C 
BRANCH 28 29
ATOM     29 OG   SER C 308       5.733   0.487  -3.246  0.50 39.70 LIG-0.40  OA
ATOM     30 HG   SER C 308       6.417   0.324  -2.787  0.50 39.70 LIG 0.21  HD
ENDBRANCH 28 29
ENDBRANCH 17 28
ENDBRANCH 14 17
ENDBRANCH 12 13
BRANCH 12 31
ATOM     31  CB  ILE C 307       8.831   1.931  -2.610  0.50 37.20 LIG 0.01  C 
ATOM     32  CG2 ILE C 307       9.965   1.656  -1.611  0.50 36.86 LIG 0.01  C 
BRANCH 31 33
ATOM     33  CG1 ILE C 307       8.307   3.376  -2.543  0.50 35.88 LIG 0.00  C 
ATOM     34  CD1 ILE C 307       6.899   3.579  -3.048  0.50 32.01 LIG 0.01  C 
ENDBRANCH 31 33
ENDBRANCH 12 31
ENDBRANCH 9 12
ENDBRANCH 4 8
BRANCH 1 35
ATOM     35  CA  PHE C 305      10.876   7.193  -3.544  0.50 34.47 LIG 0.18  C 
BRANCH 35 36
ATOM     36  CB  PHE C 305      10.784   8.655  -4.007  0.50 34.49 LIG 0.07  C 
BRANCH 36 37
ATOM     37  CG  PHE C 305      11.285   8.917  -5.418  0.50 35.55 LIG-0.06  A 
ATOM     38  CD1 PHE C 305      12.585   8.596  -5.807  0.50 36.28 LIG 0.01  A 
ATOM     39  CE1 PHE C 305      13.021   8.844  -7.112  0.50 36.66 LIG 0.00  A 
ATOM     40  CZ  PHE C 305      12.157   9.431  -8.041  0.50 36.87 LIG 0.00  A 
ATOM     41  CE2 PHE C 305      10.866   9.758  -7.668  0.50 36.76 LIG 0.00  A 
ATOM     42  CD2 PHE C 305      10.436   9.509  -6.355  0.50 36.02 LIG 0.01  A 
ENDBRANCH 36 37
ENDBRANCH 35 36
BRANCH 35 43
ATOM     43  N   PHE C 305      12.173   6.986  -2.889  0.50 33.54 LIG-0.35  N 
ATOM     44 H    PHE C 305      12.841   7.347  -3.291  0.50 33.54 LIG 0.16  HD
ATOM     45  C   ASN C 304      12.263   6.285  -1.758  0.50 33.07 LIG 0.24  C 
ATOM     46 O    ASN C 304      11.386   5.493  -1.392  0.50 33.39 LIG-0.27  OA
BRANCH 45 47
ATOM     47  CA  ASN C 304      13.522   6.517  -0.911  0.50 32.40 LIG 0.18  C 
BRANCH 47 48
ATOM     48  CB  ASN C 304      14.439   5.286  -0.843  0.50 32.38 LIG 0.14  C 
BRANCH 48 49
ATOM     49  CG  ASN C 304      15.657   5.488   0.093  0.50 31.77 LIG 0.22  C 
ATOM     50 OD1  ASN C 304      15.601   6.246   1.055  0.50 27.48 LIG-0.27  OA
ATOM     51  ND2 ASN C 304      16.767   4.836  -0.229  0.50 32.56 LIG-0.37  N 
ATOM     52 21HD ASN C 304      17.479   4.939   0.243  0.50 32.56 LIG 0.16  HD
ATOM     53 22HD ASN C 304      16.775   4.311  -0.910  0.50 32.56 LIG 0.16  HD
ENDBRANCH 48 49
ENDBRANCH 47 48
BRANCH 47 54
ATOM     54  N   ASN C 304      13.161   6.902   0.431  0.50 31.56 LIG-0.34  N 
ATOM     55  C   LEU C 303      12.623   8.089   0.671  0.50 30.83 LIG 0.26  C 
ATOM     56 O    LEU C 303      12.214   8.816  -0.223  0.50 29.02 LIG-0.27  OA
ATOM     57 H    ASN C 304      13.322   6.311   1.034  0.50 31.56 LIG 0.16  HD
BRANCH 55 58
ATOM     58  CA  LEU C 303      12.537   8.498   2.147  0.50 30.56 LIG 0.40  C 
ATOM     59  N   LEU C 303      11.171   8.378   2.725  0.50 30.88 LIG 0.61  N 
BRANCH 58 60
ATOM     60  CB  LEU C 303      13.542   7.711   2.996  0.50 30.80 LIG 0.06  C 
BRANCH 60 61
ATOM     61  CG  LEU C 303      13.027   6.489   3.766  0.50 30.92 LIG-0.02  C 
ATOM     62  CD2 LEU C 303      12.817   6.828   5.254  0.50 31.43 LIG 0.01  C 
ATOM     63  CD1 LEU C 303      13.945   5.293   3.587  0.50 30.50 LIG 0.01  C 
ENDBRANCH 60 61
ENDBRANCH 58 60
ENDBRANCH 55 58
ENDBRANCH 47 54
ENDBRANCH 45 47
ENDBRANCH 35 43
ENDBRANCH 1 35
TORSDOF 21
ENDMDL
MODEL 44
USER: ADFR SOLUTION from run 87
USER: SCORE 17.814732 LL:  -5.531 LR: -13.433 RR:   0.000 FEB:  -7.168
USER: RMSD 6.592050
USER: SEED 86
USER: STATUS searching
USER: GENES 23
USER: genes 0 Translation |==|  0.44477 0.46640 0.22714
USER: genes 1 Rotation |==|  0.75609 0.70426 0.50233 0.87775
USER: genes 2 Torsion [N]-CA--C-[N] |==|  0.58005
USER: genes 3 Torsion [C]-N--CA-[C] |==|  0.76954
USER: genes 4 Torsion [N]-CA--C-[N] |==|  0.32222
USER: genes 5 Torsion [C]-N--CA-[CB] |==|  0.79325
USER: genes 6 Torsion [N]-CA--C-[N] |==|  0.17263
USER: genes 7 Torsion [N]-CA--C-[OXT] |==|  0.39261
USER: genes 8 Torsion [N]-CA--CB-[OG] |==|  0.94698
USER: genes 9 Torsion [CA]-CB--OG-[HG] |==|  0.94484
USER: genes 10 Torsion [N]-CA--CB-[CG2] |==|  0.62167
USER: genes 11 Torsion [CA]-CB--CG1-[CD1] |==|  0.27384
USER: genes 12 Torsion [N]-C--CA-[N] |==|  0.11407
USER: genes 13 Torsion [C]-CA--CB-[CG] |==|  0.21986
USER: genes 14 Torsion [CA]-CB--CG-[CD1] |==|  0.69752
USER: genes 15 Torsion [C]-CA--N-[C] |==|  0.64337
USER: genes 16 Torsion [N]-C--CA-[N] |==|  0.27419
USER: genes 17 Torsion [C]-CA--CB-[CG] |==|  0.56192
USER: genes 18 Torsion [CA]-CB--CG-[OD1] |==|  0.29642
USER: genes 19 Torsion [C]-CA--N-[C] |==|  0.76971
USER: genes 20 Torsion [N]-C--CA-[N] |==|  0.30918
USER: genes 21 Torsion [C]-CA--CB-[CG] |==|  0.06189
USER: genes 22 Torsion [CA]-CB--CG-[CD2] |==|  0.67983
ROOT
ATOM      1  C   PHE C 305      11.984   6.025  -5.799  0.50 34.66 LIG 0.24  C 
ATOM      2 O    PHE C 305      11.785   6.290  -6.981  0.50 33.80 LIG-0.27  OA
ATOM      3  N   PRO C 306      11.560   4.874  -5.240  0.50 35.29 LIG-0.34  N 
ATOM      4  CA  PRO C 306      10.454   4.150  -5.845  0.50 35.79 LIG 0.18  C 
ATOM      5  CB  PRO C 306      10.778   2.672  -5.523  0.50 35.80 LIG 0.04  C 
ATOM      6  CG  PRO C 306      11.993   2.707  -4.588  0.50 35.25 LIG 0.02  C 
ATOM      7  CD  PRO C 306      12.113   4.125  -4.101  0.50 35.51 LIG 0.13  C 
ENDROOT
BRANCH 4 8
ATOM      8  C   PRO C 306       9.136   4.531  -5.166  0.50 36.50 LIG 0.24  C 
ATOM      9  N   ILE C 307       8.182   3.585  -5.165  0.50 37.01 LIG-0.35  N 
ATOM     10 H    ILE C 307       8.243   2.825  -5.562  0.50 37.01 LIG 0.16  HD
ATOM     11 O    PRO C 306       9.000   5.660  -4.644  0.50 36.74 LIG-0.27  OA
BRANCH 9 12
ATOM     12  CA  ILE C 307       6.927   3.817  -4.449  0.50 37.44 LIG 0.18  C 
BRANCH 12 13
ATOM     13  C   ILE C 307       7.036   3.506  -2.954  0.50 38.23 LIG 0.24  C 
ATOM     14  N   SER C 308       6.867   4.552  -2.151  0.50 38.91 LIG-0.34  N 
ATOM     15 H    SER C 308       6.830   5.362  -2.440  0.50 38.91 LIG 0.16  HD
ATOM     16 O    ILE C 307       7.255   2.355  -2.550  0.50 38.79 LIG-0.27  OA
BRANCH 14 17
ATOM     17  CA  SER C 308       6.729   4.447  -0.701  0.50 39.43 LIG 0.20  C 
BRANCH 17 18
ATOM     18  C   SER C 308       7.823   3.478  -0.245  0.50 39.77 LIG 0.24  C 
ATOM     19  N   PRO C 309       9.100   3.836  -0.467  0.50 40.03 LIG-0.34  N 
ATOM     20  CD  PRO C 309       9.625   5.179  -0.762  0.50 39.83 LIG 0.13  C 
ATOM     21  CA  PRO C 309      10.167   2.837  -0.381  0.50 40.09 LIG 0.19  C 
ATOM     22  CG  PRO C 309      10.997   4.893  -1.288  0.50 40.19 LIG 0.02  C 
ATOM     23  CB  PRO C 309      11.444   3.672  -0.545  0.50 40.09 LIG 0.04  C 
ATOM     24 O    SER C 308       7.522   2.421   0.317  0.50 39.81 LIG-0.27  OA
BRANCH 21 25
ATOM     25  C   PRO C 309      10.173   2.068   0.940  0.50 40.04 LIG 0.20  C 
ATOM     26 OXT  PRO C 309      10.426   0.861   0.983  0.50 40.10 LIG-0.65  OA
ATOM     27 O    PRO C 309       9.912   2.638   2.002  0.50 40.34 LIG-0.65  OA
ENDBRANCH 21 25
ENDBRANCH 17 18
BRANCH 17 28
ATOM     28  CB  SER C 308       5.347   3.912  -0.321  0.50 39.49 LIG 0.20  C 
BRANCH 28 29
ATOM     29 OG   SER C 308       4.420   4.064  -1.386  0.50 39.70 LIG-0.40  OA
ATOM     30 HG   SER C 308       4.700   4.648  -1.921  0.50 39.70 LIG 0.21  HD
ENDBRANCH 28 29
ENDBRANCH 17 28
ENDBRANCH 14 17
ENDBRANCH 12 13
BRANCH 12 31
ATOM     31  CB  ILE C 307       5.758   2.980  -5.022  0.50 37.20 LIG 0.01  C 
ATOM     32  CG2 ILE C 307       4.484   3.830  -5.146  0.50 36.86 LIG 0.01  C 
BRANCH 31 33
ATOM     33  CG1 ILE C 307       6.188   2.345  -6.356  0.50 35.88 LIG 0.00  C 
ATOM     34  CD1 ILE C 307       6.638   0.907  -6.274  0.50 32.01 LIG 0.01  C 
ENDBRANCH 31 33
ENDBRANCH 12 31
ENDBRANCH 9 12
ENDBRANCH 4 8
BRANCH 1 35
ATOM     35  CA  PHE C 305      12.772   7.005  -4.922  0.50 34.47 LIG 0.18  C 
BRANCH 35 36
ATOM     36  CB  PHE C 305      13.506   7.973  -5.862  0.50 34.49 LIG 0.07  C 
BRANCH 36 37
ATOM     37  CG  PHE C 305      12.648   9.089  -6.435  0.50 35.55 LIG-0.06  A 
ATOM     38  CD1 PHE C 305      12.274   9.114  -7.778  0.50 36.28 LIG 0.01  A 
ATOM     39  CE1 PHE C 305      11.481  10.150  -8.280  0.50 36.66 LIG 0.00  A 
ATOM     40  CZ  PHE C 305      11.064  11.185  -7.439  0.50 36.87 LIG 0.00  A 
ATOM     41  CE2 PHE C 305      11.431  11.176  -6.105  0.50 36.76 LIG 0.00  A 
ATOM     42  CD2 PHE C 305      12.230  10.134  -5.609  0.50 36.02 LIG 0.01  A 
ENDBRANCH 36 37
ENDBRANCH 35 36
BRANCH 35 43
ATOM     43  N   PHE C 305      13.754   6.380  -4.027  0.50 33.54 LIG-0.35  N 
ATOM     44 H    PHE C 305      14.297   5.836  -4.413  0.50 33.54 LIG 0.16  HD
ATOM     45  C   ASN C 304      13.768   6.661  -2.724  0.50 33.07 LIG 0.24  C 
ATOM     46 O    ASN C 304      12.794   7.147  -2.136  0.50 33.39 LIG-0.27  OA
BRANCH 45 47
ATOM     47  CA  ASN C 304      15.073   6.360  -1.976  0.50 32.40 LIG 0.18  C 
BRANCH 47 48
ATOM     48  CB  ASN C 304      14.845   5.744  -0.587  0.50 32.38 LIG 0.14  C 
BRANCH 48 49
ATOM     49  CG  ASN C 304      16.048   5.940   0.370  0.50 31.77 LIG 0.22  C 
ATOM     50 OD1  ASN C 304      15.998   6.739   1.298  0.50 27.48 LIG-0.27  OA
ATOM     51  ND2 ASN C 304      17.140   5.235   0.101  0.50 32.56 LIG-0.37  N 
ATOM     52 21HD ASN C 304      17.844   5.331   0.586  0.50 32.56 LIG 0.16  HD
ATOM     53 22HD ASN C 304      17.143   4.682  -0.558  0.50 32.56 LIG 0.16  HD
ENDBRANCH 48 49
ENDBRANCH 47 48
BRANCH 47 54
ATOM     54  N   ASN C 304      15.857   7.563  -1.827  0.50 31.56 LIG-0.34  N 
ATOM     55  C   LEU C 303      16.639   7.984  -2.810  0.50 30.83 LIG 0.26  C 
ATOM     56 O    LEU C 303      16.581   7.520  -3.939  0.50 29.02 LIG-0.27  OA
ATOM     57 H    ASN C 304      15.769   7.961  -1.070  0.50 31.56 LIG 0.16  HD
BRANCH 55 58
ATOM     58  CA  LEU C 303      17.625   9.102  -2.447  0.50 30.56 LIG 0.40  C 
ATOM     59  N   LEU C 303      19.049   8.671  -2.451  0.50 30.88 LIG 0.61  N 
BRANCH 58 60
ATOM     60  CB  LEU C 303      17.438  10.320  -3.360  0.50 30.80 LIG 0.06  C 
BRANCH 60 61
ATOM     61  CG  LEU C 303      16.085  10.487  -4.062  0.50 30.92 LIG-0.02  C 
ATOM     62  CD2 LEU C 303      16.243  10.371  -5.590  0.50 31.43 LIG 0.01  C 
ATOM     63  CD1 LEU C 303      15.412  11.789  -3.665  0.50 30.50 LIG 0.01  C 
ENDBRANCH 60 61
ENDBRANCH 58 60
ENDBRANCH 55 58
ENDBRANCH 47 54
ENDBRANCH 45 47
ENDBRANCH 35 43
ENDBRANCH 1 35
TORSDOF 21
ENDMDL
MODEL 45
USER: ADFR SOLUTION from run 17
USER: SCORE 19.414877 LL:  -6.282 LR: -13.419 RR:   0.000 FEB:  -7.154
USER: RMSD 11.523891
USER: SEED 16
USER: STATUS no improvement in best in 3 clusters for 5 generations
USER: GENES 23
USER: genes 0 Translation |==|  0.44460 0.60102 0.31658
USER: genes 1 Rotation |==|  0.98897 0.51632 0.59181 0.54708
USER: genes 2 Torsion [N]-CA--C-[N] |==|  0.23402
USER: genes 3 Torsion [C]-N--CA-[C] |==|  0.83516
USER: genes 4 Torsion [N]-CA--C-[N] |==|  0.88333
USER: genes 5 Torsion [C]-N--CA-[CB] |==|  0.15501
USER: genes 6 Torsion [N]-CA--C-[N] |==|  0.14353
USER: genes 7 Torsion [N]-CA--C-[OXT] |==|  0.84494
USER: genes 8 Torsion [N]-CA--CB-[OG] |==|  0.13694
USER: genes 9 Torsion [CA]-CB--OG-[HG] |==|  0.74911
USER: genes 10 Torsion [N]-CA--CB-[CG2] |==|  0.84068
USER: genes 11 Torsion [CA]-CB--CG1-[CD1] |==|  0.76822
USER: genes 12 Torsion [N]-C--CA-[N] |==|  0.89100
USER: genes 13 Torsion [C]-CA--CB-[CG] |==|  0.13094
USER: genes 14 Torsion [CA]-CB--CG-[CD1] |==|  0.70986
USER: genes 15 Torsion [C]-CA--N-[C] |==|  0.84296
USER: genes 16 Torsion [N]-C--CA-[N] |==|  0.98736
USER: genes 17 Torsion [C]-CA--CB-[CG] |==|  0.27678
USER: genes 18 Torsion [CA]-CB--CG-[OD1] |==|  0.82524
USER: genes 19 Torsion [C]-CA--N-[C] |==|  0.72089
USER: genes 20 Torsion [N]-C--CA-[N] |==|  0.40060
USER: genes 21 Torsion [C]-CA--CB-[CG] |==|  0.94784
USER: genes 22 Torsion [CA]-CB--CG-[CD2] |==|  0.77283
ROOT
ATOM      1  C   PHE C 305      11.979   9.256  -3.988  0.50 34.66 LIG 0.24  C 
ATOM      2 O    PHE C 305      12.428  10.268  -3.458  0.50 33.80 LIG-0.27  OA
ATOM      3  N   PRO C 306      11.191   9.305  -5.080  0.50 35.29 LIG-0.34  N 
ATOM      4  CA  PRO C 306      10.447  10.521  -5.370  0.50 35.79 LIG 0.18  C 
ATOM      5  CB  PRO C 306      10.376  10.534  -6.914  0.50 35.80 LIG 0.04  C 
ATOM      6  CG  PRO C 306      10.961   9.192  -7.369  0.50 35.25 LIG 0.02  C 
ATOM      7  CD  PRO C 306      11.005   8.313  -6.150  0.50 35.51 LIG 0.13  C 
ENDROOT
BRANCH 4 8
ATOM      8  C   PRO C 306       9.028  10.421  -4.806  0.50 36.50 LIG 0.24  C 
ATOM      9  N   ILE C 307       8.887  10.750  -3.511  0.50 37.01 LIG-0.35  N 
ATOM     10 H    ILE C 307       9.533  10.949  -2.981  0.50 37.01 LIG 0.16  HD
ATOM     11 O    PRO C 306       8.081  10.063  -5.541  0.50 36.74 LIG-0.27  OA
BRANCH 9 12
ATOM     12  CA  ILE C 307       7.553  10.788  -2.909  0.50 37.44 LIG 0.18  C 
BRANCH 12 13
ATOM     13  C   ILE C 307       6.620  11.781  -3.607  0.50 38.23 LIG 0.24  C 
ATOM     14  N   SER C 308       7.181  12.943  -3.929  0.50 38.91 LIG-0.34  N 
ATOM     15 H    SER C 308       7.963  13.177  -3.656  0.50 38.91 LIG 0.16  HD
ATOM     16 O    ILE C 307       5.440  11.494  -3.852  0.50 38.79 LIG-0.27  OA
BRANCH 14 17
ATOM     17  CA  SER C 308       6.538  13.946  -4.773  0.50 39.43 LIG 0.20  C 
BRANCH 17 18
ATOM     18  C   SER C 308       7.483  15.150  -4.788  0.50 39.77 LIG 0.24  C 
ATOM     19  N   PRO C 309       8.771  14.924  -5.101  0.50 40.03 LIG-0.34  N 
ATOM     20  CD  PRO C 309       9.345  13.750  -5.778  0.50 39.83 LIG 0.13  C 
ATOM     21  CA  PRO C 309       9.786  15.937  -4.804  0.50 40.09 LIG 0.19  C 
ATOM     22  CG  PRO C 309      10.808  13.881  -5.493  0.50 40.19 LIG 0.02  C 
ATOM     23  CB  PRO C 309      11.056  15.358  -5.443  0.50 40.09 LIG 0.04  C 
ATOM     24 O    SER C 308       7.054  16.280  -4.536  0.50 39.81 LIG-0.27  OA
BRANCH 21 25
ATOM     25  C   PRO C 309       9.455  17.314  -5.378  0.50 40.04 LIG 0.20  C 
ATOM     26 OXT  PRO C 309       9.232  17.474  -6.581  0.50 40.10 LIG-0.65  OA
ATOM     27 O    PRO C 309       9.414  18.307  -4.649  0.50 40.34 LIG-0.65  OA
ENDBRANCH 21 25
ENDBRANCH 17 18
BRANCH 17 28
ATOM     28  CB  SER C 308       5.172  14.344  -4.208  0.50 39.49 LIG 0.20  C 
BRANCH 28 29
ATOM     29 OG   SER C 308       5.254  14.658  -2.826  0.50 39.70 LIG-0.40  OA
ATOM     30 HG   SER C 308       5.121  13.965  -2.372  0.50 39.70 LIG 0.21  HD
ENDBRANCH 28 29
ENDBRANCH 17 28
ENDBRANCH 14 17
ENDBRANCH 12 13
BRANCH 12 31
ATOM     31  CB  ILE C 307       7.595  11.156  -1.406  0.50 37.20 LIG 0.01  C 
ATOM     32  CG2 ILE C 307       8.476  10.168  -0.625  0.50 36.86 LIG 0.01  C 
BRANCH 31 33
ATOM     33  CG1 ILE C 307       8.046  12.618  -1.248  0.50 35.88 LIG 0.00  C 
ATOM     34  CD1 ILE C 307       9.538  12.842  -1.273  0.50 32.01 LIG 0.01  C 
ENDBRANCH 31 33
ENDBRANCH 12 31
ENDBRANCH 9 12
ENDBRANCH 4 8
BRANCH 1 35
ATOM     35  CA  PHE C 305      12.348   7.876  -3.428  0.50 34.47 LIG 0.18  C 
BRANCH 35 36
ATOM     36  CB  PHE C 305      13.523   7.342  -4.262  0.50 34.49 LIG 0.07  C 
BRANCH 36 37
ATOM     37  CG  PHE C 305      14.653   8.332  -4.490  0.50 35.55 LIG-0.06  A 
ATOM     38  CD1 PHE C 305      14.833   8.974  -5.715  0.50 36.28 LIG 0.01  A 
ATOM     39  CE1 PHE C 305      15.878   9.884  -5.899  0.50 36.66 LIG 0.00  A 
ATOM     40  CZ  PHE C 305      16.767  10.151  -4.854  0.50 36.87 LIG 0.00  A 
ATOM     41  CE2 PHE C 305      16.605   9.518  -3.635  0.50 36.76 LIG 0.00  A 
ATOM     42  CD2 PHE C 305      15.554   8.604  -3.459  0.50 36.02 LIG 0.01  A 
ENDBRANCH 36 37
ENDBRANCH 35 36
BRANCH 35 43
ATOM     43  N   PHE C 305      11.263   6.889  -3.455  0.50 33.54 LIG-0.35  N 
ATOM     44 H    PHE C 305      11.447   6.163  -3.879  0.50 33.54 LIG 0.16  HD
ATOM     45  C   ASN C 304      10.097   7.137  -2.857  0.50 33.07 LIG 0.24  C 
ATOM     46 O    ASN C 304       9.725   8.281  -2.571  0.50 33.39 LIG-0.27  OA
BRANCH 45 47
ATOM     47  CA  ASN C 304       9.228   5.916  -2.524  0.50 32.40 LIG 0.18  C 
BRANCH 47 48
ATOM     48  CB  ASN C 304       8.986   5.741  -1.017  0.50 32.38 LIG 0.14  C 
BRANCH 48 49
ATOM     49  CG  ASN C 304       7.605   6.273  -0.558  0.50 31.77 LIG 0.22  C 
ATOM     50 OD1  ASN C 304       7.316   7.460  -0.660  0.50 27.48 LIG-0.27  OA
ATOM     51  ND2 ASN C 304       6.781   5.389  -0.012  0.50 32.56 LIG-0.37  N 
ATOM     52 21HD ASN C 304       6.014   5.642   0.285  0.50 32.56 LIG 0.16  HD
ATOM     53 22HD ASN C 304       7.012   4.562   0.045  0.50 32.56 LIG 0.16  HD
ENDBRANCH 48 49
ENDBRANCH 47 48
BRANCH 47 54
ATOM     54  N   ASN C 304       9.833   4.712  -3.041  0.50 31.56 LIG-0.34  N 
ATOM     55  C   LEU C 303       9.400   4.172  -4.170  0.50 30.83 LIG 0.26  C 
ATOM     56 O    LEU C 303       8.640   4.756  -4.928  0.50 29.02 LIG-0.27  OA
ATOM     57 H    ASN C 304      10.473   4.395  -2.563  0.50 31.56 LIG 0.16  HD
BRANCH 55 58
ATOM     58  CA  LEU C 303       9.919   2.761  -4.477  0.50 30.56 LIG 0.40  C 
ATOM     59  N   LEU C 303       8.919   1.887  -5.149  0.50 30.88 LIG 0.61  N 
BRANCH 58 60
ATOM     60  CB  LEU C 303      11.212   2.816  -5.300  0.50 30.80 LIG 0.06  C 
BRANCH 60 61
ATOM     61  CG  LEU C 303      11.533   4.119  -6.043  0.50 30.92 LIG-0.02  C 
ATOM     62  CD2 LEU C 303      10.767   4.191  -7.377  0.50 31.43 LIG 0.01  C 
ATOM     63  CD1 LEU C 303      13.028   4.287  -6.244  0.50 30.50 LIG 0.01  C 
ENDBRANCH 60 61
ENDBRANCH 58 60
ENDBRANCH 55 58
ENDBRANCH 47 54
ENDBRANCH 45 47
ENDBRANCH 35 43
ENDBRANCH 1 35
TORSDOF 21
ENDMDL
MODEL 46
USER: ADFR SOLUTION from run 27
USER: SCORE 18.363977 LL:  -5.350 LR: -13.422 RR:   0.000 FEB:  -7.158
USER: RMSD 7.566253
USER: SEED 26
USER: STATUS no improvement in best in 10 clusters for 5 generations
USER: GENES 23
USER: genes 0 Translation |==|  0.41074 0.52882 0.24916
USER: genes 1 Rotation |==|  0.61166 0.77193 0.80270 0.76826
USER: genes 2 Torsion [N]-CA--C-[N] |==|  0.08915
USER: genes 3 Torsion [C]-N--CA-[C] |==|  0.55486
USER: genes 4 Torsion [N]-CA--C-[N] |==|  0.44470
USER: genes 5 Torsion [C]-N--CA-[CB] |==|  0.13906
USER: genes 6 Torsion [N]-CA--C-[N] |==|  0.12034
USER: genes 7 Torsion [N]-CA--C-[OXT] |==|  0.76914
USER: genes 8 Torsion [N]-CA--CB-[OG] |==|  0.47610
USER: genes 9 Torsion [CA]-CB--OG-[HG] |==|  0.67280
USER: genes 10 Torsion [N]-CA--CB-[CG2] |==|  0.98362
USER: genes 11 Torsion [CA]-CB--CG1-[CD1] |==|  0.60860
USER: genes 12 Torsion [N]-C--CA-[N] |==|  0.95369
USER: genes 13 Torsion [C]-CA--CB-[CG] |==|  0.40179
USER: genes 14 Torsion [CA]-CB--CG-[CD1] |==|  0.84307
USER: genes 15 Torsion [C]-CA--N-[C] |==|  0.71310
USER: genes 16 Torsion [N]-C--CA-[N] |==|  0.94834
USER: genes 17 Torsion [C]-CA--CB-[CG] |==|  0.85647
USER: genes 18 Torsion [CA]-CB--CG-[OD1] |==|  0.32600
USER: genes 19 Torsion [C]-CA--N-[C] |==|  0.77553
USER: genes 20 Torsion [N]-C--CA-[N] |==|  0.37223
USER: genes 21 Torsion [C]-CA--CB-[CG] |==|  0.72185
USER: genes 22 Torsion [CA]-CB--CG-[CD2] |==|  0.12301
ROOT
ATOM      1  C   PHE C 305      11.116   7.523  -5.354  0.50 34.66 LIG 0.24  C 
ATOM      2 O    PHE C 305      10.821   7.797  -6.513  0.50 33.80 LIG-0.27  OA
ATOM      3  N   PRO C 306      12.193   6.775  -5.045  0.50 35.29 LIG-0.34  N 
ATOM      4  CA  PRO C 306      12.744   5.869  -6.041  0.50 35.79 LIG 0.18  C 
ATOM      5  CB  PRO C 306      14.255   5.852  -5.708  0.50 35.80 LIG 0.04  C 
ATOM      6  CG  PRO C 306      14.402   6.645  -4.404  0.50 35.25 LIG 0.02  C 
ATOM      7  CD  PRO C 306      13.020   6.776  -3.828  0.50 35.51 LIG 0.13  C 
ENDROOT
BRANCH 4 8
ATOM      8  C   PRO C 306      12.175   4.462  -5.850  0.50 36.50 LIG 0.24  C 
ATOM      9  N   ILE C 307      10.918   4.396  -5.380  0.50 37.01 LIG-0.35  N 
ATOM     10 H    ILE C 307      10.451   5.073  -5.130  0.50 37.01 LIG 0.16  HD
ATOM     11 O    PRO C 306      12.865   3.458  -6.139  0.50 36.74 LIG-0.27  OA
BRANCH 9 12
ATOM     12  CA  ILE C 307      10.250   3.099  -5.265  0.50 37.44 LIG 0.18  C 
BRANCH 12 13
ATOM     13  C   ILE C 307       8.727   3.227  -5.186  0.50 38.23 LIG 0.24  C 
ATOM     14  N   SER C 308       8.056   2.121  -5.494  0.50 38.91 LIG-0.34  N 
ATOM     15 H    SER C 308       8.432   1.426  -5.836  0.50 38.91 LIG 0.16  HD
ATOM     16 O    ILE C 307       8.186   4.290  -4.848  0.50 38.79 LIG-0.27  OA
BRANCH 14 17
ATOM     17  CA  SER C 308       6.619   1.962  -5.290  0.50 39.43 LIG 0.20  C 
BRANCH 17 18
ATOM     18  C   SER C 308       6.235   0.664  -6.005  0.50 39.77 LIG 0.24  C 
ATOM     19  N   PRO C 309       7.050  -0.394  -5.849  0.50 40.03 LIG-0.34  N 
ATOM     20  CD  PRO C 309       8.070  -0.605  -4.810  0.50 39.83 LIG 0.13  C 
ATOM     21  CA  PRO C 309       6.946  -1.540  -6.755  0.50 40.09 LIG 0.19  C 
ATOM     22  CG  PRO C 309       8.892  -1.724  -5.369  0.50 40.19 LIG 0.02  C 
ATOM     23  CB  PRO C 309       7.921  -2.557  -6.148  0.50 40.09 LIG 0.04  C 
ATOM     24 O    SER C 308       5.203   0.608  -6.680  0.50 39.81 LIG-0.27  OA
BRANCH 21 25
ATOM     25  C   PRO C 309       5.532  -2.113  -6.848  0.50 40.04 LIG 0.20  C 
ATOM     26 OXT  PRO C 309       5.105  -2.915  -6.012  0.50 40.10 LIG-0.65  OA
ATOM     27 O    PRO C 309       4.783  -1.796  -7.774  0.50 40.34 LIG-0.65  OA
ENDBRANCH 21 25
ENDBRANCH 17 18
BRANCH 17 28
ATOM     28  CB  SER C 308       5.848   3.146  -5.878  0.50 39.49 LIG 0.20  C 
BRANCH 28 29
ATOM     29 OG   SER C 308       4.447   2.913  -5.863  0.50 39.70 LIG-0.40  OA
ATOM     30 HG   SER C 308       4.155   2.908  -6.650  0.50 39.70 LIG 0.21  HD
ENDBRANCH 28 29
ENDBRANCH 17 28
ENDBRANCH 14 17
ENDBRANCH 12 13
BRANCH 12 31
ATOM     31  CB  ILE C 307      10.722   2.301  -4.025  0.50 37.20 LIG 0.01  C 
ATOM     32  CG2 ILE C 307      11.881   3.021  -3.319  0.50 36.86 LIG 0.01  C 
BRANCH 31 33
ATOM     33  CG1 ILE C 307       9.523   2.037  -3.098  0.50 35.88 LIG 0.00  C 
ATOM     34  CD1 ILE C 307       9.810   2.148  -1.620  0.50 32.01 LIG 0.01  C 
ENDBRANCH 31 33
ENDBRANCH 12 31
ENDBRANCH 9 12
ENDBRANCH 4 8
BRANCH 1 35
ATOM     35  CA  PHE C 305      10.266   8.072  -4.201  0.50 34.47 LIG 0.18  C 
BRANCH 35 36
ATOM     36  CB  PHE C 305      10.592   9.567  -4.063  0.50 34.49 LIG 0.07  C 
BRANCH 36 37
ATOM     37  CG  PHE C 305       9.419  10.448  -3.666  0.50 35.55 LIG-0.06  A 
ATOM     38  CD1 PHE C 305       8.242  10.485  -4.412  0.50 36.28 LIG 0.01  A 
ATOM     39  CE1 PHE C 305       7.175  11.301  -4.025  0.50 36.66 LIG 0.00  A 
ATOM     40  CZ  PHE C 305       7.284  12.104  -2.885  0.50 36.87 LIG 0.00  A 
ATOM     41  CE2 PHE C 305       8.448  12.081  -2.138  0.50 36.76 LIG 0.00  A 
ATOM     42  CD2 PHE C 305       9.515  11.261  -2.535  0.50 36.02 LIG 0.01  A 
ENDBRANCH 36 37
ENDBRANCH 35 36
BRANCH 35 43
ATOM     43  N   PHE C 305      10.487   7.419  -2.905  0.50 33.54 LIG-0.35  N 
ATOM     44 H    PHE C 305      11.209   7.656  -2.501  0.50 33.54 LIG 0.16  HD
ATOM     45  C   ASN C 304       9.613   6.533  -2.428  0.50 33.07 LIG 0.24  C 
ATOM     46 O    ASN C 304       8.793   5.950  -3.148  0.50 33.39 LIG-0.27  OA
BRANCH 45 47
ATOM     47  CA  ASN C 304       9.662   6.273  -0.916  0.50 32.40 LIG 0.18  C 
BRANCH 47 48
ATOM     48  CB  ASN C 304       8.523   6.960  -0.148  0.50 32.38 LIG 0.14  C 
BRANCH 48 49
ATOM     49  CG  ASN C 304       8.401   8.472  -0.468  0.50 31.77 LIG 0.22  C 
ATOM     50 OD1  ASN C 304       7.392   8.931  -0.991  0.50 27.48 LIG-0.27  OA
ATOM     51  ND2 ASN C 304       9.458   9.224  -0.187  0.50 32.56 LIG-0.37  N 
ATOM     52 21HD ASN C 304       9.449  10.064  -0.374  0.50 32.56 LIG 0.16  HD
ATOM     53 22HD ASN C 304      10.151   8.872   0.180  0.50 32.56 LIG 0.16  HD
ENDBRANCH 48 49
ENDBRANCH 47 48
BRANCH 47 54
ATOM     54  N   ASN C 304      10.922   6.714  -0.370  0.50 31.56 LIG-0.34  N 
ATOM     55  C   LEU C 303      12.004   5.956  -0.470  0.50 30.83 LIG 0.26  C 
ATOM     56 O    LEU C 303      12.049   4.971  -1.194  0.50 29.02 LIG-0.27  OA
ATOM     57 H    ASN C 304      10.903   7.486   0.010  0.50 31.56 LIG 0.16  HD
BRANCH 55 58
ATOM     58  CA  LEU C 303      13.206   6.391   0.376  0.50 30.56 LIG 0.40  C 
ATOM     59  N   LEU C 303      13.855   5.274   1.116  0.50 30.88 LIG 0.61  N 
BRANCH 58 60
ATOM     60  CB  LEU C 303      14.242   7.131  -0.478  0.50 30.80 LIG 0.06  C 
BRANCH 60 61
ATOM     61  CG  LEU C 303      15.472   6.347  -0.952  0.50 30.92 LIG-0.02  C 
ATOM     62  CD2 LEU C 303      15.066   4.956  -1.473  0.50 31.43 LIG 0.01  C 
ATOM     63  CD1 LEU C 303      16.524   6.253   0.139  0.50 30.50 LIG 0.01  C 
ENDBRANCH 60 61
ENDBRANCH 58 60
ENDBRANCH 55 58
ENDBRANCH 47 54
ENDBRANCH 45 47
ENDBRANCH 35 43
ENDBRANCH 1 35
TORSDOF 21
ENDMDL
MODEL 47
USER: ADFR SOLUTION from run 65
USER: SCORE 17.588031 LL:  -5.570 LR: -13.413 RR:   0.000 FEB:  -7.149
USER: RMSD 12.962598
USER: SEED 64
USER: STATUS no improvement in best in 18 clusters for 5 generations
USER: GENES 23
USER: genes 0 Translation |==|  0.43903 0.57174 0.27450
USER: genes 1 Rotation |==|  0.92998 0.27358 0.42397 0.58983
USER: genes 2 Torsion [N]-CA--C-[N] |==|  0.08739
USER: genes 3 Torsion [C]-N--CA-[C] |==|  0.69023
USER: genes 4 Torsion [N]-CA--C-[N] |==|  0.45769
USER: genes 5 Torsion [C]-N--CA-[CB] |==|  0.21017
USER: genes 6 Torsion [N]-CA--C-[N] |==|  0.17311
USER: genes 7 Torsion [N]-CA--C-[OXT] |==|  0.38540
USER: genes 8 Torsion [N]-CA--CB-[OG] |==|  0.05953
USER: genes 9 Torsion [CA]-CB--OG-[HG] |==|  0.44685
USER: genes 10 Torsion [N]-CA--CB-[CG2] |==|  0.65954
USER: genes 11 Torsion [CA]-CB--CG1-[CD1] |==|  0.72119
USER: genes 12 Torsion [N]-C--CA-[N] |==|  0.31721
USER: genes 13 Torsion [C]-CA--CB-[CG] |==|  0.34722
USER: genes 14 Torsion [CA]-CB--CG-[CD1] |==|  0.08644
USER: genes 15 Torsion [C]-CA--N-[C] |==|  0.70242
USER: genes 16 Torsion [N]-C--CA-[N] |==|  0.44402
USER: genes 17 Torsion [C]-CA--CB-[CG] |==|  0.22957
USER: genes 18 Torsion [CA]-CB--CG-[OD1] |==|  0.16361
USER: genes 19 Torsion [C]-CA--N-[C] |==|  0.83889
USER: genes 20 Torsion [N]-C--CA-[N] |==|  0.17940
USER: genes 21 Torsion [C]-CA--CB-[CG] |==|  0.37545
USER: genes 22 Torsion [CA]-CB--CG-[CD2] |==|  0.48612
ROOT
ATOM      1  C   PHE C 305      11.837   8.553  -4.840  0.50 34.66 LIG 0.24  C 
ATOM      2 O    PHE C 305      13.064   8.510  -4.861  0.50 33.80 LIG-0.27  OA
ATOM      3  N   PRO C 306      11.141   9.511  -5.482  0.50 35.29 LIG-0.34  N 
ATOM      4  CA  PRO C 306      11.785  10.778  -5.791  0.50 35.79 LIG 0.18  C 
ATOM      5  CB  PRO C 306      11.097  11.216  -7.104  0.50 35.80 LIG 0.04  C 
ATOM      6  CG  PRO C 306       9.968  10.206  -7.339  0.50 35.25 LIG 0.02  C 
ATOM      7  CD  PRO C 306       9.781   9.468  -6.042  0.50 35.51 LIG 0.13  C 
ENDROOT
BRANCH 4 8
ATOM      8  C   PRO C 306      11.481  11.807  -4.700  0.50 36.50 LIG 0.24  C 
ATOM      9  N   ILE C 307      11.315  11.316  -3.460  0.50 37.01 LIG-0.35  N 
ATOM     10 H    ILE C 307      11.310  10.481  -3.259  0.50 37.01 LIG 0.16  HD
ATOM     11 O    PRO C 306      11.412  13.024  -4.983  0.50 36.74 LIG-0.27  OA
BRANCH 9 12
ATOM     12  CA  ILE C 307      11.126  12.231  -2.333  0.50 37.44 LIG 0.18  C 
BRANCH 12 13
ATOM     13  C   ILE C 307      12.315  12.231  -1.369  0.50 38.23 LIG 0.24  C 
ATOM     14  N   SER C 308      12.344  13.253  -0.518  0.50 38.91 LIG-0.34  N 
ATOM     15 H    SER C 308      11.817  13.929  -0.582  0.50 38.91 LIG 0.16  HD
ATOM     16 O    ILE C 307      13.165  11.330  -1.395  0.50 38.79 LIG-0.27  OA
BRANCH 14 17
ATOM     17  CA  SER C 308      13.267  13.340   0.610  0.50 39.43 LIG 0.20  C 
BRANCH 17 18
ATOM     18  C   SER C 308      12.709  14.433   1.525  0.50 39.77 LIG 0.24  C 
ATOM     19  N   PRO C 309      11.493  14.229   2.064  0.50 40.03 LIG-0.34  N 
ATOM     20  CD  PRO C 309      10.763  12.958   2.196  0.50 39.83 LIG 0.13  C 
ATOM     21  CA  PRO C 309      10.756  15.348   2.654  0.50 40.09 LIG 0.19  C 
ATOM     22  CG  PRO C 309       9.365  13.404   2.489  0.50 40.19 LIG 0.02  C 
ATOM     23  CB  PRO C 309       9.526  14.671   3.272  0.50 40.09 LIG 0.04  C 
ATOM     24 O    SER C 308      13.372  15.447   1.758  0.50 39.81 LIG-0.27  OA
BRANCH 21 25
ATOM     25  C   PRO C 309      11.556  16.114   3.708  0.50 40.04 LIG 0.20  C 
ATOM     26 OXT  PRO C 309      11.527  17.346   3.770  0.50 40.10 LIG-0.65  OA
ATOM     27 O    PRO C 309      12.266  15.514   4.518  0.50 40.34 LIG-0.65  OA
ENDBRANCH 21 25
ENDBRANCH 17 18
BRANCH 17 28
ATOM     28  CB  SER C 308      14.676  13.705   0.138  0.50 39.49 LIG 0.20  C 
BRANCH 28 29
ATOM     29 OG   SER C 308      14.650  14.331  -1.137  0.50 39.70 LIG-0.40  OA
ATOM     30 HG   SER C 308      15.369  14.749  -1.259  0.50 39.70 LIG 0.21  HD
ENDBRANCH 28 29
ENDBRANCH 17 28
ENDBRANCH 14 17
ENDBRANCH 12 13
BRANCH 12 31
ATOM     31  CB  ILE C 307       9.853  11.902  -1.515  0.50 37.20 LIG 0.01  C 
ATOM     32  CG2 ILE C 307       8.911  13.114  -1.458  0.50 36.86 LIG 0.01  C 
BRANCH 31 33
ATOM     33  CG1 ILE C 307       9.182  10.645  -2.095  0.50 35.88 LIG 0.00  C 
ATOM     34  CD1 ILE C 307       7.995  10.900  -2.992  0.50 32.01 LIG 0.01  C 
ENDBRANCH 31 33
ENDBRANCH 12 31
ENDBRANCH 9 12
ENDBRANCH 4 8
BRANCH 1 35
ATOM     35  CA  PHE C 305      11.050   7.465  -4.098  0.50 34.47 LIG 0.18  C 
BRANCH 35 36
ATOM     36  CB  PHE C 305      11.541   7.458  -2.642  0.50 34.49 LIG 0.07  C 
BRANCH 36 37
ATOM     37  CG  PHE C 305      10.453   7.627  -1.595  0.50 35.55 LIG-0.06  A 
ATOM     38  CD1 PHE C 305       9.155   7.159  -1.800  0.50 36.28 LIG 0.01  A 
ATOM     39  CE1 PHE C 305       8.172   7.323  -0.820  0.50 36.66 LIG 0.00  A 
ATOM     40  CZ  PHE C 305       8.479   7.975   0.378  0.50 36.87 LIG 0.00  A 
ATOM     41  CE2 PHE C 305       9.760   8.448   0.595  0.50 36.76 LIG 0.00  A 
ATOM     42  CD2 PHE C 305      10.741   8.282  -0.395  0.50 36.02 LIG 0.01  A 
ENDBRANCH 36 37
ENDBRANCH 35 36
BRANCH 35 43
ATOM     43  N   PHE C 305      11.193   6.114  -4.651  0.50 33.54 LIG-0.35  N 
ATOM     44 H    PHE C 305      11.955   5.743  -4.504  0.50 33.54 LIG 0.16  HD
ATOM     45  C   ASN C 304      10.194   5.541  -5.323  0.50 33.07 LIG 0.24  C 
ATOM     46 O    ASN C 304       9.268   6.191  -5.823  0.50 33.39 LIG-0.27  OA
BRANCH 45 47
ATOM     47  CA  ASN C 304      10.240   4.011  -5.441  0.50 32.40 LIG 0.18  C 
BRANCH 47 48
ATOM     48  CB  ASN C 304      11.232   3.517  -6.504  0.50 32.38 LIG 0.14  C 
BRANCH 48 49
ATOM     49  CG  ASN C 304      12.692   3.450  -5.987  0.50 31.77 LIG 0.22  C 
ATOM     50 OD1  ASN C 304      12.993   2.757  -5.023  0.50 27.48 LIG-0.27  OA
ATOM     51  ND2 ASN C 304      13.578   4.215  -6.614  0.50 32.56 LIG-0.37  N 
ATOM     52 21HD ASN C 304      14.395   4.234  -6.345  0.50 32.56 LIG 0.16  HD
ATOM     53 22HD ASN C 304      13.335   4.690  -7.288  0.50 32.56 LIG 0.16  HD
ENDBRANCH 48 49
ENDBRANCH 47 48
BRANCH 47 54
ATOM     54  N   ASN C 304       8.930   3.491  -5.750  0.50 31.56 LIG-0.34  N 
ATOM     55  C   LEU C 303       7.902   3.731  -4.950  0.50 30.83 LIG 0.26  C 
ATOM     56 O    LEU C 303       7.950   4.557  -4.050  0.50 29.02 LIG-0.27  OA
ATOM     57 H    ASN C 304       8.885   3.030  -6.475  0.50 31.56 LIG 0.16  HD
BRANCH 55 58
ATOM     58  CA  LEU C 303       6.636   2.909  -5.223  0.50 30.56 LIG 0.40  C 
ATOM     59  N   LEU C 303       6.809   1.447  -5.000  0.50 30.88 LIG 0.61  N 
BRANCH 58 60
ATOM     60  CB  LEU C 303       5.452   3.432  -4.401  0.50 30.80 LIG 0.06  C 
BRANCH 60 61
ATOM     61  CG  LEU C 303       4.102   3.592  -5.112  0.50 30.92 LIG-0.02  C 
ATOM     62  CD2 LEU C 303       3.004   4.006  -4.115  0.50 31.43 LIG 0.01  C 
ATOM     63  CD1 LEU C 303       3.724   2.333  -5.873  0.50 30.50 LIG 0.01  C 
ENDBRANCH 60 61
ENDBRANCH 58 60
ENDBRANCH 55 58
ENDBRANCH 47 54
ENDBRANCH 45 47
ENDBRANCH 35 43
ENDBRANCH 1 35
TORSDOF 21
ENDMDL
MODEL 48
USER: ADFR SOLUTION from run 73
USER: SCORE 18.491000 LL:  -6.276 LR: -13.411 RR:   0.000 FEB:  -7.147
USER: RMSD 8.398613
USER: SEED 72
USER: STATUS no improvement in best in 11 clusters for 5 generations
USER: GENES 23
USER: genes 0 Translation |==|  0.50401 0.64586 0.82658
USER: genes 1 Rotation |==|  0.37470 0.48884 0.28493 0.93350
USER: genes 2 Torsion [N]-CA--C-[N] |==|  0.14451
USER: genes 3 Torsion [C]-N--CA-[C] |==|  0.61448
USER: genes 4 Torsion [N]-CA--C-[N] |==|  0.49108
USER: genes 5 Torsion [C]-N--CA-[CB] |==|  0.16111
USER: genes 6 Torsion [N]-CA--C-[N] |==|  0.17166
USER: genes 7 Torsion [N]-CA--C-[OXT] |==|  0.35575
USER: genes 8 Torsion [N]-CA--CB-[OG] |==|  0.74088
USER: genes 9 Torsion [CA]-CB--OG-[HG] |==|  0.78242
USER: genes 10 Torsion [N]-CA--CB-[CG2] |==|  0.63197
USER: genes 11 Torsion [CA]-CB--CG1-[CD1] |==|  0.70886
USER: genes 12 Torsion [N]-C--CA-[N] |==|  0.88672
USER: genes 13 Torsion [C]-CA--CB-[CG] |==|  0.46466
USER: genes 14 Torsion [CA]-CB--CG-[CD1] |==|  0.85548
USER: genes 15 Torsion [C]-CA--N-[C] |==|  0.66576
USER: genes 16 Torsion [N]-C--CA-[N] |==|  0.30729
USER: genes 17 Torsion [C]-CA--CB-[CG] |==|  0.42065
USER: genes 18 Torsion [CA]-CB--CG-[OD1] |==|  0.72913
USER: genes 19 Torsion [C]-CA--N-[C] |==|  0.74367
USER: genes 20 Torsion [N]-C--CA-[N] |==|  0.57685
USER: genes 21 Torsion [C]-CA--CB-[CG] |==|  0.78057
USER: genes 22 Torsion [CA]-CB--CG-[CD2] |==|  0.62496
ROOT
ATOM      1  C   PHE C 305      13.494  10.332   6.339  0.50 34.66 LIG 0.24  C 
ATOM      2 O    PHE C 305      13.187   9.148   6.449  0.50 33.80 LIG-0.27  OA
ATOM      3  N   PRO C 306      12.701  11.324   6.788  0.50 35.29 LIG-0.34  N 
ATOM      4  CA  PRO C 306      11.277  11.082   6.955  0.50 35.79 LIG 0.18  C 
ATOM      5  CB  PRO C 306      10.898  11.998   8.142  0.50 35.80 LIG 0.04  C 
ATOM      6  CG  PRO C 306      12.149  12.830   8.442  0.50 35.25 LIG 0.02  C 
ATOM      7  CD  PRO C 306      13.058  12.673   7.254  0.50 35.51 LIG 0.13  C 
ENDROOT
BRANCH 4 8
ATOM      8  C   PRO C 306      10.512  11.535   5.710  0.50 36.50 LIG 0.24  C 
ATOM      9  N   ILE C 307      10.961  11.055   4.538  0.50 37.01 LIG-0.35  N 
ATOM     10 H    ILE C 307      11.666  10.573   4.443  0.50 37.01 LIG 0.16  HD
ATOM     11 O    PRO C 306       9.525  12.297   5.819  0.50 36.74 LIG-0.27  OA
BRANCH 9 12
ATOM     12  CA  ILE C 307      10.232  11.347   3.303  0.50 37.44 LIG 0.18  C 
BRANCH 12 13
ATOM     13  C   ILE C 307      10.143  10.135   2.372  0.50 38.23 LIG 0.24  C 
ATOM     14  N   SER C 308       9.432  10.331   1.266  0.50 38.91 LIG-0.34  N 
ATOM     15 H    SER C 308       8.951  11.033   1.138  0.50 38.91 LIG 0.16  HD
ATOM     16 O    ILE C 307      10.709   9.067   2.648  0.50 38.79 LIG-0.27  OA
BRANCH 14 17
ATOM     17  CA  SER C 308       9.386   9.385   0.154  0.50 39.43 LIG 0.20  C 
BRANCH 17 18
ATOM     18  C   SER C 308       8.417   9.985  -0.867  0.50 39.77 LIG 0.24  C 
ATOM     19  N   PRO C 309       8.739  11.175  -1.404  0.50 40.03 LIG-0.34  N 
ATOM     20  CD  PRO C 309      10.057  11.830  -1.427  0.50 39.83 LIG 0.13  C 
ATOM     21  CA  PRO C 309       7.724  11.962  -2.107  0.50 40.09 LIG 0.19  C 
ATOM     22  CG  PRO C 309       9.722  13.245  -1.782  0.50 40.19 LIG 0.02  C 
ATOM     23  CB  PRO C 309       8.525  13.139  -2.678  0.50 40.09 LIG 0.04  C 
ATOM     24 O    SER C 308       7.392   9.374  -1.184  0.50 39.81 LIG-0.27  OA
BRANCH 21 25
ATOM     25  C   PRO C 309       7.015  11.184  -3.215  0.50 40.04 LIG 0.20  C 
ATOM     26 OXT  PRO C 309       5.783  11.126  -3.276  0.50 40.10 LIG-0.65  OA
ATOM     27 O    PRO C 309       7.661  10.581  -4.075  0.50 40.34 LIG-0.65  OA
ENDBRANCH 21 25
ENDBRANCH 17 18
BRANCH 17 28
ATOM     28  CB  SER C 308       8.892   8.015   0.622  0.50 39.49 LIG 0.20  C 
BRANCH 28 29
ATOM     29 OG   SER C 308       9.975   7.162   0.966  0.50 39.70 LIG-0.40  OA
ATOM     30 HG   SER C 308      10.320   6.851   0.267  0.50 39.70 LIG 0.21  HD
ENDBRANCH 28 29
ENDBRANCH 17 28
ENDBRANCH 14 17
ENDBRANCH 12 13
BRANCH 12 31
ATOM     31  CB  ILE C 307      10.868  12.511   2.504  0.50 37.20 LIG 0.01  C 
ATOM     32  CG2 ILE C 307       9.798  13.522   2.065  0.50 36.86 LIG 0.01  C 
BRANCH 31 33
ATOM     33  CG1 ILE C 307      11.993  13.150   3.338  0.50 35.88 LIG 0.00  C 
ATOM     34  CD1 ILE C 307      11.660  14.484   3.961  0.50 32.01 LIG 0.01  C 
ENDBRANCH 31 33
ENDBRANCH 12 31
ENDBRANCH 9 12
ENDBRANCH 4 8
BRANCH 1 35
ATOM     35  CA  PHE C 305      14.839  10.714   5.708  0.50 34.47 LIG 0.18  C 
BRANCH 35 36
ATOM     36  CB  PHE C 305      15.823  10.985   6.857  0.50 34.49 LIG 0.07  C 
BRANCH 36 37
ATOM     37  CG  PHE C 305      17.283  11.083   6.444  0.50 35.55 LIG-0.06  A 
ATOM     38  CD1 PHE C 305      17.900  10.091   5.683  0.50 36.28 LIG 0.01  A 
ATOM     39  CE1 PHE C 305      19.243  10.205   5.313  0.50 36.66 LIG 0.00  A 
ATOM     40  CZ  PHE C 305      19.989  11.316   5.717  0.50 36.87 LIG 0.00  A 
ATOM     41  CE2 PHE C 305      19.392  12.306   6.476  0.50 36.76 LIG 0.00  A 
ATOM     42  CD2 PHE C 305      18.044  12.183   6.846  0.50 36.02 LIG 0.01  A 
ENDBRANCH 36 37
ENDBRANCH 35 36
BRANCH 35 43
ATOM     43  N   PHE C 305      14.798  11.891   4.834  0.50 33.54 LIG-0.35  N 
ATOM     44 H    PHE C 305      14.537  12.615   5.217  0.50 33.54 LIG 0.16  HD
ATOM     45  C   ASN C 304      15.147  11.802   3.550  0.50 33.07 LIG 0.24  C 
ATOM     46 O    ASN C 304      15.175  10.726   2.939  0.50 33.39 LIG-0.27  OA
BRANCH 45 47
ATOM     47  CA  ASN C 304      15.531  13.115   2.855  0.50 32.40 LIG 0.18  C 
BRANCH 47 48
ATOM     48  CB  ASN C 304      14.753  13.359   1.553  0.50 32.38 LIG 0.14  C 
BRANCH 48 49
ATOM     49  CG  ASN C 304      14.572  14.863   1.226  0.50 31.77 LIG 0.22  C 
ATOM     50 OD1  ASN C 304      13.539  15.456   1.513  0.50 27.48 LIG-0.27  OA
ATOM     51  ND2 ASN C 304      15.572  15.454   0.584  0.50 32.56 LIG-0.37  N 
ATOM     52 21HD ASN C 304      15.507  16.281   0.355  0.50 32.56 LIG 0.16  HD
ATOM     53 22HD ASN C 304      16.285  15.011   0.397  0.50 32.56 LIG 0.16  HD
ENDBRANCH 48 49
ENDBRANCH 47 48
BRANCH 47 54
ATOM     54  N   ASN C 304      16.944  13.135   2.562  0.50 31.56 LIG-0.34  N 
ATOM     55  C   LEU C 303      17.803  13.663   3.420  0.50 30.83 LIG 0.26  C 
ATOM     56 O    LEU C 303      17.490  13.957   4.565  0.50 29.02 LIG-0.27  OA
ATOM     57 H    ASN C 304      17.162  12.786   1.807  0.50 31.56 LIG 0.16  HD
BRANCH 55 58
ATOM     58  CA  LEU C 303      19.227  13.880   2.893  0.50 30.56 LIG 0.40  C 
ATOM     59  N   LEU C 303      20.273  13.837   3.951  0.50 30.88 LIG 0.61  N 
BRANCH 58 60
ATOM     60  CB  LEU C 303      19.561  12.880   1.779  0.50 30.80 LIG 0.06  C 
BRANCH 60 61
ATOM     61  CG  LEU C 303      19.947  11.454   2.189  0.50 30.92 LIG-0.02  C 
ATOM     62  CD2 LEU C 303      21.178  10.972   1.399  0.50 31.43 LIG 0.01  C 
ATOM     63  CD1 LEU C 303      18.776  10.499   2.042  0.50 30.50 LIG 0.01  C 
ENDBRANCH 60 61
ENDBRANCH 58 60
ENDBRANCH 55 58
ENDBRANCH 47 54
ENDBRANCH 45 47
ENDBRANCH 35 43
ENDBRANCH 1 35
TORSDOF 21
ENDMDL
MODEL 49
USER: ADFR SOLUTION from run 4
USER: SCORE 18.879171 LL:  -6.160 LR: -13.407 RR:   0.000 FEB:  -7.143
USER: RMSD 10.930174
USER: SEED 576143
USER: STATUS no improvement in best in 17 clusters for 5 generations
USER: GENES 23
USER: genes 0 Translation |==|  0.41509 0.82759 0.61782
USER: genes 1 Rotation |==|  0.16459 0.63016 0.81076 0.65487
USER: genes 2 Torsion [N]-CA--C-[N] |==|  0.03767
USER: genes 3 Torsion [C]-N--CA-[C] |==|  0.65128
USER: genes 4 Torsion [N]-CA--C-[N] |==|  0.43138
USER: genes 5 Torsion [C]-N--CA-[CB] |==|  0.52778
USER: genes 6 Torsion [N]-CA--C-[N] |==|  0.42055
USER: genes 7 Torsion [N]-CA--C-[OXT] |==|  0.95587
USER: genes 8 Torsion [N]-CA--CB-[OG] |==|  0.20464
USER: genes 9 Torsion [CA]-CB--OG-[HG] |==|  0.01699
USER: genes 10 Torsion [N]-CA--CB-[CG2] |==|  0.17294
USER: genes 11 Torsion [CA]-CB--CG1-[CD1] |==|  0.17230
USER: genes 12 Torsion [N]-C--CA-[N] |==|  0.47738
USER: genes 13 Torsion [C]-CA--CB-[CG] |==|  0.65222
USER: genes 14 Torsion [CA]-CB--CG-[CD1] |==|  0.69556
USER: genes 15 Torsion [C]-CA--N-[C] |==|  0.60029
USER: genes 16 Torsion [N]-C--CA-[N] |==|  0.97468
USER: genes 17 Torsion [C]-CA--CB-[CG] |==|  0.15511
USER: genes 18 Torsion [CA]-CB--CG-[OD1] |==|  0.54505
USER: genes 19 Torsion [C]-CA--N-[C] |==|  0.73889
USER: genes 20 Torsion [N]-C--CA-[N] |==|  0.97215
USER: genes 21 Torsion [C]-CA--CB-[CG] |==|  0.52530
USER: genes 22 Torsion [CA]-CB--CG-[CD2] |==|  0.80617
ROOT
ATOM      1  C   PHE C 305      11.227  14.693   2.112  0.50 34.66 LIG 0.24  C 
ATOM      2 O    PHE C 305      12.267  14.941   1.509  0.50 33.80 LIG-0.27  OA
ATOM      3  N   PRO C 306      10.862  15.365   3.222  0.50 35.29 LIG-0.34  N 
ATOM      4  CA  PRO C 306      11.878  16.035   4.018  0.50 35.79 LIG 0.18  C 
ATOM      5  CB  PRO C 306      11.124  17.251   4.605  0.50 35.80 LIG 0.04  C 
ATOM      6  CG  PRO C 306       9.655  17.060   4.209  0.50 35.25 LIG 0.02  C 
ATOM      7  CD  PRO C 306       9.519  15.632   3.758  0.50 35.51 LIG 0.13  C 
ENDROOT
BRANCH 4 8
ATOM      8  C   PRO C 306      12.336  15.130   5.164  0.50 36.50 LIG 0.24  C 
ATOM      9  N   ILE C 307      11.968  13.841   5.077  0.50 37.01 LIG-0.35  N 
ATOM     10 H    ILE C 307      11.457  13.516   4.467  0.50 37.01 LIG 0.16  HD
ATOM     11 O    PRO C 306      13.020  15.598   6.102  0.50 36.74 LIG-0.27  OA
BRANCH 9 12
ATOM     12  CA  ILE C 307      12.446  12.877   6.069  0.50 37.44 LIG 0.18  C 
BRANCH 12 13
ATOM     13  C   ILE C 307      13.145  11.674   5.431  0.50 38.23 LIG 0.24  C 
ATOM     14  N   SER C 308      14.021  11.055   6.218  0.50 38.91 LIG-0.34  N 
ATOM     15 H    SER C 308      14.276  11.374   6.975  0.50 38.91 LIG 0.16  HD
ATOM     16 O    ILE C 307      12.887  11.319   4.272  0.50 38.79 LIG-0.27  OA
BRANCH 14 17
ATOM     17  CA  SER C 308      14.644   9.776   5.887  0.50 39.43 LIG 0.20  C 
BRANCH 17 18
ATOM     18  C   SER C 308      13.498   8.842   5.491  0.50 39.77 LIG 0.24  C 
ATOM     19  N   PRO C 309      13.774   7.858   4.617  0.50 40.03 LIG-0.34  N 
ATOM     20  CD  PRO C 309      15.093   7.318   4.249  0.50 39.83 LIG 0.13  C 
ATOM     21  CA  PRO C 309      12.685   7.155   3.936  0.50 40.09 LIG 0.19  C 
ATOM     22  CG  PRO C 309      14.806   6.560   2.991  0.50 40.19 LIG 0.02  C 
ATOM     23  CB  PRO C 309      13.411   6.041   3.169  0.50 40.09 LIG 0.04  C 
ATOM     24 O    SER C 308      12.375   8.993   5.980  0.50 39.81 LIG-0.27  OA
BRANCH 21 25
ATOM     25  C   PRO C 309      11.642   6.580   4.893  0.50 40.04 LIG 0.20  C 
ATOM     26 OXT  PRO C 309      11.873   6.456   6.099  0.50 40.10 LIG-0.65  OA
ATOM     27 O    PRO C 309      10.541   6.211   4.478  0.50 40.34 LIG-0.65  OA
ENDBRANCH 21 25
ENDBRANCH 17 18
BRANCH 17 28
ATOM     28  CB  SER C 308      15.405   9.211   7.088  0.50 39.49 LIG 0.20  C 
BRANCH 28 29
ATOM     29 OG   SER C 308      14.517   8.707   8.075  0.50 39.70 LIG-0.40  OA
ATOM     30 HG   SER C 308      13.730   8.735   7.785  0.50 39.70 LIG 0.21  HD
ENDBRANCH 28 29
ENDBRANCH 17 28
ENDBRANCH 14 17
ENDBRANCH 12 13
BRANCH 12 31
ATOM     31  CB  ILE C 307      11.305  12.341   6.967  0.50 37.20 LIG 0.01  C 
ATOM     32  CG2 ILE C 307      10.261  11.585   6.132  0.50 36.86 LIG 0.01  C 
BRANCH 31 33
ATOM     33  CG1 ILE C 307      11.903  11.487   8.099  0.50 35.88 LIG 0.00  C 
ATOM     34  CD1 ILE C 307      12.828  12.217   9.043  0.50 32.01 LIG 0.01  C 
ENDBRANCH 31 33
ENDBRANCH 12 31
ENDBRANCH 9 12
ENDBRANCH 4 8
BRANCH 1 35
ATOM     35  CA  PHE C 305      10.277  13.613   1.578  0.50 34.47 LIG 0.18  C 
BRANCH 35 36
ATOM     36  CB  PHE C 305      10.251  12.475   2.610  0.50 34.49 LIG 0.07  C 
BRANCH 36 37
ATOM     37  CG  PHE C 305      10.591  11.100   2.060  0.50 35.55 LIG-0.06  A 
ATOM     38  CD1 PHE C 305       9.627  10.100   1.933  0.50 36.28 LIG 0.01  A 
ATOM     39  CE1 PHE C 305       9.962   8.844   1.421  0.50 36.66 LIG 0.00  A 
ATOM     40  CZ  PHE C 305      11.280   8.571   1.040  0.50 36.87 LIG 0.00  A 
ATOM     41  CE2 PHE C 305      12.248   9.551   1.164  0.50 36.76 LIG 0.00  A 
ATOM     42  CD2 PHE C 305      11.903  10.809   1.682  0.50 36.02 LIG 0.01  A 
ENDBRANCH 36 37
ENDBRANCH 35 36
BRANCH 35 43
ATOM     43  N   PHE C 305      10.646  13.058   0.271  0.50 33.54 LIG-0.35  N 
ATOM     44 H    PHE C 305      11.492  12.976   0.141  0.50 33.54 LIG 0.16  HD
ATOM     45  C   ASN C 304       9.711  12.719  -0.617  0.50 33.07 LIG 0.24  C 
ATOM     46 O    ASN C 304       8.555  13.157  -0.568  0.50 33.39 LIG-0.27  OA
BRANCH 45 47
ATOM     47  CA  ASN C 304      10.137  11.735  -1.714  0.50 32.40 LIG 0.18  C 
BRANCH 47 48
ATOM     48  CB  ASN C 304       9.439  10.370  -1.606  0.50 32.38 LIG 0.14  C 
BRANCH 48 49
ATOM     49  CG  ASN C 304       7.893  10.477  -1.607  0.50 31.77 LIG 0.22  C 
ATOM     50 OD1  ASN C 304       7.192   9.543  -1.238  0.50 27.48 LIG-0.27  OA
ATOM     51  ND2 ASN C 304       7.378  11.610  -2.068  0.50 32.56 LIG-0.37  N 
ATOM     52 21HD ASN C 304       6.524  11.706  -2.116  0.50 32.56 LIG 0.16  HD
ATOM     53 22HD ASN C 304       7.897  12.248  -2.319  0.50 32.56 LIG 0.16  HD
ENDBRANCH 48 49
ENDBRANCH 47 48
BRANCH 47 54
ATOM     54  N   ASN C 304      11.565  11.530  -1.680  0.50 31.56 LIG-0.34  N 
ATOM     55  C   LEU C 303      12.369  12.251  -2.447  0.50 30.83 LIG 0.26  C 
ATOM     56 O    LEU C 303      11.985  13.245  -3.047  0.50 29.02 LIG-0.27  OA
ATOM     57 H    ASN C 304      11.830  10.920  -1.135  0.50 31.56 LIG 0.16  HD
BRANCH 55 58
ATOM     58  CA  LEU C 303      13.821  11.767  -2.535  0.50 30.56 LIG 0.40  C 
ATOM     59  N   LEU C 303      14.157  10.696  -1.557  0.50 30.88 LIG 0.61  N 
BRANCH 58 60
ATOM     60  CB  LEU C 303      14.165  11.310  -3.958  0.50 30.80 LIG 0.06  C 
BRANCH 60 61
ATOM     61  CG  LEU C 303      15.505  10.597  -4.177  0.50 30.92 LIG-0.02  C 
ATOM     62  CD2 LEU C 303      16.680  11.579  -4.010  0.50 31.43 LIG 0.01  C 
ATOM     63  CD1 LEU C 303      15.546   9.897  -5.524  0.50 30.50 LIG 0.01  C 
ENDBRANCH 60 61
ENDBRANCH 58 60
ENDBRANCH 55 58
ENDBRANCH 47 54
ENDBRANCH 45 47
ENDBRANCH 35 43
ENDBRANCH 1 35
TORSDOF 21
ENDMDL
MODEL 50
USER: ADFR SOLUTION from run 102
USER: SCORE 16.941565 LL:  -5.052 LR: -13.406 RR:   0.000 FEB:  -7.142
USER: RMSD 12.043308
USER: SEED 101
USER: STATUS searching
USER: GENES 23
USER: genes 0 Translation |==|  0.41810 0.34998 0.34014
USER: genes 1 Rotation |==|  0.78546 0.13467 0.49161 0.68701
USER: genes 2 Torsion [N]-CA--C-[N] |==|  0.82879
USER: genes 3 Torsion [C]-N--CA-[C] |==|  0.54541
USER: genes 4 Torsion [N]-CA--C-[N] |==|  0.49019
USER: genes 5 Torsion [C]-N--CA-[CB] |==|  0.87217
USER: genes 6 Torsion [N]-CA--C-[N] |==|  0.42044
USER: genes 7 Torsion [N]-CA--C-[OXT] |==|  0.83491
USER: genes 8 Torsion [N]-CA--CB-[OG] |==|  0.83361
USER: genes 9 Torsion [CA]-CB--OG-[HG] |==|  0.61714
USER: genes 10 Torsion [N]-CA--CB-[CG2] |==|  0.22216
USER: genes 11 Torsion [CA]-CB--CG1-[CD1] |==|  0.38402
USER: genes 12 Torsion [N]-C--CA-[N] |==|  0.15933
USER: genes 13 Torsion [C]-CA--CB-[CG] |==|  0.44645
USER: genes 14 Torsion [CA]-CB--CG-[CD1] |==|  0.43939
USER: genes 15 Torsion [C]-CA--N-[C] |==|  0.68014
USER: genes 16 Torsion [N]-C--CA-[N] |==|  0.30587
USER: genes 17 Torsion [C]-CA--CB-[CG] |==|  0.25100
USER: genes 18 Torsion [CA]-CB--CG-[OD1] |==|  0.92393
USER: genes 19 Torsion [C]-CA--N-[C] |==|  0.71837
USER: genes 20 Torsion [N]-C--CA-[N] |==|  0.42972
USER: genes 21 Torsion [C]-CA--CB-[CG] |==|  0.29528
USER: genes 22 Torsion [CA]-CB--CG-[CD2] |==|  0.05652
ROOT
ATOM      1  C   PHE C 305      11.304   3.231  -3.511  0.50 34.66 LIG 0.24  C 
ATOM      2 O    PHE C 305      12.255   2.530  -3.179  0.50 33.80 LIG-0.27  OA
ATOM      3  N   PRO C 306      11.218   3.792  -4.733  0.50 35.29 LIG-0.34  N 
ATOM      4  CA  PRO C 306      12.429   4.009  -5.507  0.50 35.79 LIG 0.18  C 
ATOM      5  CB  PRO C 306      11.949   3.858  -6.969  0.50 35.80 LIG 0.04  C 
ATOM      6  CG  PRO C 306      10.423   3.730  -6.895  0.50 35.25 LIG 0.02  C 
ATOM      7  CD  PRO C 306      10.028   4.168  -5.512  0.50 35.51 LIG 0.13  C 
ENDROOT
BRANCH 4 8
ATOM      8  C   PRO C 306      12.945   5.434  -5.296  0.50 36.50 LIG 0.24  C 
ATOM      9  N   ILE C 307      12.118   6.420  -5.684  0.50 37.01 LIG-0.35  N 
ATOM     10 H    ILE C 307      11.367   6.303  -6.085  0.50 37.01 LIG 0.16  HD
ATOM     11 O    PRO C 306      14.068   5.629  -4.780  0.50 36.74 LIG-0.27  OA
BRANCH 9 12
ATOM     12  CA  ILE C 307      12.477   7.816  -5.426  0.50 37.44 LIG 0.18  C 
BRANCH 12 13
ATOM     13  C   ILE C 307      11.283   8.764  -5.559  0.50 38.23 LIG 0.24  C 
ATOM     14  N   SER C 308      11.543  10.035  -5.262  0.50 38.91 LIG-0.34  N 
ATOM     15 H    SER C 308      12.281  10.289  -4.900  0.50 38.91 LIG 0.16  HD
ATOM     16 O    ILE C 307      10.172   8.355  -5.927  0.50 38.79 LIG-0.27  OA
BRANCH 14 17
ATOM     17  CA  SER C 308      10.612  11.131  -5.514  0.50 39.43 LIG 0.20  C 
BRANCH 17 18
ATOM     18  C   SER C 308       9.511  10.998  -4.459  0.50 39.77 LIG 0.24  C 
ATOM     19  N   PRO C 309       8.884  12.123  -4.071  0.50 40.03 LIG-0.34  N 
ATOM     20  CD  PRO C 309       8.848  13.422  -4.761  0.50 39.83 LIG 0.13  C 
ATOM     21  CA  PRO C 309       8.082  12.130  -2.846  0.50 40.09 LIG 0.19  C 
ATOM     22  CG  PRO C 309       8.361  14.354  -3.696  0.50 40.19 LIG 0.02  C 
ATOM     23  CB  PRO C 309       7.439  13.523  -2.856  0.50 40.09 LIG 0.04  C 
ATOM     24 O    SER C 308       9.214   9.888  -4.007  0.50 39.81 LIG-0.27  OA
BRANCH 21 25
ATOM     25  C   PRO C 309       7.023  11.030  -2.808  0.50 40.04 LIG 0.20  C 
ATOM     26 OXT  PRO C 309       6.140  10.955  -3.667  0.50 40.10 LIG-0.65  OA
ATOM     27 O    PRO C 309       7.017  10.191  -1.904  0.50 40.34 LIG-0.65  OA
ENDBRANCH 21 25
ENDBRANCH 17 18
BRANCH 17 28
ATOM     28  CB  SER C 308      10.019  11.034  -6.922  0.50 39.49 LIG 0.20  C 
BRANCH 28 29
ATOM     29 OG   SER C 308      11.032  11.088  -7.916  0.50 39.70 LIG-0.40  OA
ATOM     30 HG   SER C 308      10.779  11.579  -8.548  0.50 39.70 LIG 0.21  HD
ENDBRANCH 28 29
ENDBRANCH 17 28
ENDBRANCH 14 17
ENDBRANCH 12 13
BRANCH 12 31
ATOM     31  CB  ILE C 307      13.591   8.323  -6.374  0.50 37.20 LIG 0.01  C 
ATOM     32  CG2 ILE C 307      13.013   8.701  -7.746  0.50 36.86 LIG 0.01  C 
BRANCH 31 33
ATOM     33  CG1 ILE C 307      14.349   9.481  -5.701  0.50 35.88 LIG 0.00  C 
ATOM     34  CD1 ILE C 307      15.849   9.458  -5.868  0.50 32.01 LIG 0.01  C 
ENDBRANCH 31 33
ENDBRANCH 12 31
ENDBRANCH 9 12
ENDBRANCH 4 8
BRANCH 1 35
ATOM     35  CA  PHE C 305      10.145   3.456  -2.532  0.50 34.47 LIG 0.18  C 
BRANCH 35 36
ATOM     36  CB  PHE C 305      10.476   2.684  -1.245  0.50 34.49 LIG 0.07  C 
BRANCH 36 37
ATOM     37  CG  PHE C 305       9.710   3.131  -0.011  0.50 35.55 LIG-0.06  A 
ATOM     38  CD1 PHE C 305       9.542   2.296   1.093  0.50 36.28 LIG 0.01  A 
ATOM     39  CE1 PHE C 305       8.837   2.731   2.219  0.50 36.66 LIG 0.00  A 
ATOM     40  CZ  PHE C 305       8.277   4.012   2.243  0.50 36.87 LIG 0.00  A 
ATOM     41  CE2 PHE C 305       8.431   4.850   1.153  0.50 36.76 LIG 0.00  A 
ATOM     42  CD2 PHE C 305       9.139   4.405   0.026  0.50 36.02 LIG 0.01  A 
ENDBRANCH 36 37
ENDBRANCH 35 36
BRANCH 35 43
ATOM     43  N   PHE C 305       8.831   3.020  -3.019  0.50 33.54 LIG-0.35  N 
ATOM     44 H    PHE C 305       8.757   2.172  -3.146  0.50 33.54 LIG 0.16  HD
ATOM     45  C   ASN C 304       7.855   3.901  -3.235  0.50 33.07 LIG 0.24  C 
ATOM     46 O    ASN C 304       8.069   5.110  -3.391  0.50 33.39 LIG-0.27  OA
BRANCH 45 47
ATOM     47  CA  ASN C 304       6.426   3.342  -3.273  0.50 32.40 LIG 0.18  C 
BRANCH 47 48
ATOM     48  CB  ASN C 304       5.651   3.749  -4.535  0.50 32.38 LIG 0.14  C 
BRANCH 48 49
ATOM     49  CG  ASN C 304       5.812   2.739  -5.699  0.50 31.77 LIG 0.22  C 
ATOM     50 OD1  ASN C 304       6.815   2.042  -5.801  0.50 27.48 LIG-0.27  OA
ATOM     51  ND2 ASN C 304       4.833   2.706  -6.595  0.50 32.56 LIG-0.37  N 
ATOM     52 21HD ASN C 304       4.891   2.182  -7.275  0.50 32.56 LIG 0.16  HD
ATOM     53 22HD ASN C 304       4.142   3.207  -6.495  0.50 32.56 LIG 0.16  HD
ENDBRANCH 48 49
ENDBRANCH 47 48
BRANCH 47 54
ATOM     54  N   ASN C 304       5.686   3.774  -2.113  0.50 31.56 LIG-0.34  N 
ATOM     55  C   LEU C 303       5.500   2.957  -1.087  0.50 30.83 LIG 0.26  C 
ATOM     56 O    LEU C 303       6.106   1.901  -0.971  0.50 29.02 LIG-0.27  OA
ATOM     57 H    ASN C 304       5.390   4.581  -2.152  0.50 31.56 LIG 0.16  HD
BRANCH 55 58
ATOM     58  CA  LEU C 303       4.476   3.417  -0.042  0.50 30.56 LIG 0.40  C 
ATOM     59  N   LEU C 303       3.859   2.302   0.727  0.50 30.88 LIG 0.61  N 
BRANCH 58 60
ATOM     60  CB  LEU C 303       5.092   4.443   0.918  0.50 30.80 LIG 0.06  C 
BRANCH 60 61
ATOM     61  CG  LEU C 303       4.675   5.911   0.761  0.50 30.92 LIG-0.02  C 
ATOM     62  CD2 LEU C 303       3.342   6.022  -0.002  0.50 31.43 LIG 0.01  C 
ATOM     63  CD1 LEU C 303       5.769   6.730   0.101  0.50 30.50 LIG 0.01  C 
ENDBRANCH 60 61
ENDBRANCH 58 60
ENDBRANCH 55 58
ENDBRANCH 47 54
ENDBRANCH 45 47
ENDBRANCH 35 43
ENDBRANCH 1 35
TORSDOF 21
ENDMDL
MODEL 51
USER: ADFR SOLUTION from run 173
USER: SCORE 16.763058 LL:  -5.364 LR: -13.386 RR:   0.000 FEB:  -7.121
USER: RMSD 8.275306
USER: SEED 172
USER: STATUS no improvement in best in 27 clusters for 5 generations
USER: GENES 23
USER: genes 0 Translation |==|  0.37740 0.45980 0.28319
USER: genes 1 Rotation |==|  0.70675 0.88086 0.67889 0.67379
USER: genes 2 Torsion [N]-CA--C-[N] |==|  0.21096
USER: genes 3 Torsion [C]-N--CA-[C] |==|  0.72841
USER: genes 4 Torsion [N]-CA--C-[N] |==|  0.07140
USER: genes 5 Torsion [C]-N--CA-[CB] |==|  0.85556
USER: genes 6 Torsion [N]-CA--C-[N] |==|  0.08233
USER: genes 7 Torsion [N]-CA--C-[OXT] |==|  0.92748
USER: genes 8 Torsion [N]-CA--CB-[OG] |==|  0.79822
USER: genes 9 Torsion [CA]-CB--OG-[HG] |==|  0.92018
USER: genes 10 Torsion [N]-CA--CB-[CG2] |==|  0.79678
USER: genes 11 Torsion [CA]-CB--CG1-[CD1] |==|  0.75769
USER: genes 12 Torsion [N]-C--CA-[N] |==|  0.45399
USER: genes 13 Torsion [C]-CA--CB-[CG] |==|  0.55720
USER: genes 14 Torsion [CA]-CB--CG-[CD1] |==|  0.25551
USER: genes 15 Torsion [C]-CA--N-[C] |==|  0.80370
USER: genes 16 Torsion [N]-C--CA-[N] |==|  0.33940
USER: genes 17 Torsion [C]-CA--CB-[CG] |==|  0.34780
USER: genes 18 Torsion [CA]-CB--CG-[OD1] |==|  0.62914
USER: genes 19 Torsion [C]-CA--N-[C] |==|  0.57048
USER: genes 20 Torsion [N]-C--CA-[N] |==|  0.81755
USER: genes 21 Torsion [C]-CA--CB-[CG] |==|  0.03692
USER: genes 22 Torsion [CA]-CB--CG-[CD2] |==|  0.62357
ROOT
ATOM      1  C   PHE C 305      10.266   5.866  -4.664  0.50 34.66 LIG 0.24  C 
ATOM      2 O    PHE C 305       9.230   6.005  -5.309  0.50 33.80 LIG-0.27  OA
ATOM      3  N   PRO C 306      11.200   4.953  -4.995  0.50 35.29 LIG-0.34  N 
ATOM      4  CA  PRO C 306      10.819   3.794  -5.786  0.50 35.79 LIG 0.18  C 
ATOM      5  CB  PRO C 306      12.095   3.487  -6.604  0.50 35.80 LIG 0.04  C 
ATOM      6  CG  PRO C 306      13.174   4.430  -6.061  0.50 35.25 LIG 0.02  C 
ATOM      7  CD  PRO C 306      12.652   4.967  -4.757  0.50 35.51 LIG 0.13  C 
ENDROOT
BRANCH 4 8
ATOM      8  C   PRO C 306      10.514   2.605  -4.872  0.50 36.50 LIG 0.24  C 
ATOM      9  N   ILE C 307       9.334   2.646  -4.230  0.50 37.01 LIG-0.35  N 
ATOM     10 H    ILE C 307       8.784   3.306  -4.254  0.50 37.01 LIG 0.16  HD
ATOM     11 O    PRO C 306      11.333   1.666  -4.765  0.50 36.74 LIG-0.27  OA
BRANCH 9 12
ATOM     12  CA  ILE C 307       8.907   1.507  -3.417  0.50 37.44 LIG 0.18  C 
BRANCH 12 13
ATOM     13  C   ILE C 307       7.946   0.578  -4.163  0.50 38.23 LIG 0.24  C 
ATOM     14  N   SER C 308       8.061   0.603  -5.488  0.50 38.91 LIG-0.34  N 
ATOM     15 H    SER C 308       8.541   1.183  -5.905  0.50 38.91 LIG 0.16  HD
ATOM     16 O    ILE C 307       7.139  -0.139  -3.554  0.50 38.79 LIG-0.27  OA
BRANCH 14 17
ATOM     17  CA  SER C 308       7.392  -0.344  -6.376  0.50 39.43 LIG 0.20  C 
BRANCH 17 18
ATOM     18  C   SER C 308       5.897  -0.032  -6.272  0.50 39.77 LIG 0.24  C 
ATOM     19  N   PRO C 309       5.547   1.238  -5.999  0.50 40.03 LIG-0.34  N 
ATOM     20  CD  PRO C 309       6.367   2.452  -6.134  0.50 39.83 LIG 0.13  C 
ATOM     21  CA  PRO C 309       4.187   1.542  -5.548  0.50 40.09 LIG 0.19  C 
ATOM     22  CG  PRO C 309       5.606   3.461  -5.332  0.50 40.19 LIG 0.02  C 
ATOM     23  CB  PRO C 309       4.168   3.076  -5.501  0.50 40.09 LIG 0.04  C 
ATOM     24 O    SER C 308       5.062  -0.923  -6.452  0.50 39.81 LIG-0.27  OA
BRANCH 21 25
ATOM     25  C   PRO C 309       3.104   1.003  -6.482  0.50 40.04 LIG 0.20  C 
ATOM     26 OXT  PRO C 309       3.322   0.813  -7.682  0.50 40.10 LIG-0.65  OA
ATOM     27 O    PRO C 309       1.973   0.754  -6.058  0.50 40.34 LIG-0.65  OA
ENDBRANCH 21 25
ENDBRANCH 17 18
BRANCH 17 28
ATOM     28  CB  SER C 308       7.669  -1.786  -5.948  0.50 39.49 LIG 0.20  C 
BRANCH 28 29
ATOM     29 OG   SER C 308       9.004  -2.169  -6.246  0.50 39.70 LIG-0.40  OA
ATOM     30 HG   SER C 308       9.277  -1.738  -6.913  0.50 39.70 LIG 0.21  HD
ENDBRANCH 28 29
ENDBRANCH 17 28
ENDBRANCH 14 17
ENDBRANCH 12 13
BRANCH 12 31
ATOM     31  CB  ILE C 307       8.215   1.947  -2.104  0.50 37.20 LIG 0.01  C 
ATOM     32  CG2 ILE C 307       9.240   2.502  -1.104  0.50 36.86 LIG 0.01  C 
BRANCH 31 33
ATOM     33  CG1 ILE C 307       7.089   2.945  -2.427  0.50 35.88 LIG 0.00  C 
ATOM     34  CD1 ILE C 307       7.510   4.392  -2.509  0.50 32.01 LIG 0.01  C 
ENDBRANCH 31 33
ENDBRANCH 12 31
ENDBRANCH 9 12
ENDBRANCH 4 8
BRANCH 1 35
ATOM     35  CA  PHE C 305      10.543   6.778  -3.463  0.50 34.47 LIG 0.18  C 
BRANCH 35 36
ATOM     36  CB  PHE C 305      10.331   5.940  -2.193  0.50 34.49 LIG 0.07  C 
BRANCH 36 37
ATOM     37  CG  PHE C 305      10.075   6.741  -0.927  0.50 35.55 LIG-0.06  A 
ATOM     38  CD1 PHE C 305       8.785   7.063  -0.508  0.50 36.28 LIG 0.01  A 
ATOM     39  CE1 PHE C 305       8.575   7.799   0.662  0.50 36.66 LIG 0.00  A 
ATOM     40  CZ  PHE C 305       9.665   8.233   1.421  0.50 36.87 LIG 0.00  A 
ATOM     41  CE2 PHE C 305      10.952   7.925   1.016  0.50 36.76 LIG 0.00  A 
ATOM     42  CD2 PHE C 305      11.154   7.189  -0.161  0.50 36.02 LIG 0.01  A 
ENDBRANCH 36 37
ENDBRANCH 35 36
BRANCH 35 43
ATOM     43  N   PHE C 305       9.695   7.973  -3.386  0.50 33.54 LIG-0.35  N 
ATOM     44 H    PHE C 305       9.115   7.963  -2.752  0.50 33.54 LIG 0.16  HD
ATOM     45  C   ASN C 304       9.846   8.975  -4.253  0.50 33.07 LIG 0.24  C 
ATOM     46 O    ASN C 304      10.415   8.835  -5.342  0.50 33.39 LIG-0.27  OA
BRANCH 45 47
ATOM     47  CA  ASN C 304       9.282  10.337  -3.826  0.50 32.40 LIG 0.18  C 
BRANCH 47 48
ATOM     48  CB  ASN C 304       8.131  10.821  -4.721  0.50 32.38 LIG 0.14  C 
BRANCH 48 49
ATOM     49  CG  ASN C 304       6.844  11.160  -3.926  0.50 31.77 LIG 0.22  C 
ATOM     50 OD1  ASN C 304       5.746  10.761  -4.296  0.50 27.48 LIG-0.27  OA
ATOM     51  ND2 ASN C 304       6.993  11.935  -2.860  0.50 32.56 LIG-0.37  N 
ATOM     52 21HD ASN C 304       6.305  12.174  -2.403  0.50 32.56 LIG 0.16  HD
ATOM     53 22HD ASN C 304       7.778  12.198  -2.625  0.50 32.56 LIG 0.16  HD
ENDBRANCH 48 49
ENDBRANCH 47 48
BRANCH 47 54
ATOM     54  N   ASN C 304      10.323  11.336  -3.827  0.50 31.56 LIG-0.34  N 
ATOM     55  C   LEU C 303      10.230  12.408  -3.055  0.50 30.83 LIG 0.26  C 
ATOM     56 O    LEU C 303       9.395  12.507  -2.167  0.50 29.02 LIG-0.27  OA
ATOM     57 H    ASN C 304      10.981  11.173  -4.355  0.50 31.56 LIG 0.16  HD
BRANCH 55 58
ATOM     58  CA  LEU C 303      11.242  13.525  -3.337  0.50 30.56 LIG 0.40  C 
ATOM     59  N   LEU C 303      12.653  13.143  -3.053  0.50 30.88 LIG 0.61  N 
BRANCH 58 60
ATOM     60  CB  LEU C 303      11.112  14.036  -4.778  0.50 30.80 LIG 0.06  C 
BRANCH 60 61
ATOM     61  CG  LEU C 303       9.867  13.626  -5.573  0.50 30.92 LIG-0.02  C 
ATOM     62  CD2 LEU C 303      10.248  13.191  -7.000  0.50 31.43 LIG 0.01  C 
ATOM     63  CD1 LEU C 303       8.826  14.732  -5.581  0.50 30.50 LIG 0.01  C 
ENDBRANCH 60 61
ENDBRANCH 58 60
ENDBRANCH 55 58
ENDBRANCH 47 54
ENDBRANCH 45 47
ENDBRANCH 35 43
ENDBRANCH 1 35
TORSDOF 21
ENDMDL
MODEL 52
USER: ADFR SOLUTION from run 81
USER: SCORE 18.965660 LL:  -7.201 LR: -13.387 RR:   0.000 FEB:  -7.123
USER: RMSD 9.951155
USER: SEED 80
USER: STATUS no improvement in best in 3 clusters for 5 generations
USER: GENES 23
USER: genes 0 Translation |==|  0.48254 0.55020 0.19062
USER: genes 1 Rotation |==|  0.84135 0.48474 0.24397 0.76018
USER: genes 2 Torsion [N]-CA--C-[N] |==|  0.47239
USER: genes 3 Torsion [C]-N--CA-[C] |==|  0.78344
USER: genes 4 Torsion [N]-CA--C-[N] |==|  0.89222
USER: genes 5 Torsion [C]-N--CA-[CB] |==|  0.47255
USER: genes 6 Torsion [N]-CA--C-[N] |==|  0.29062
USER: genes 7 Torsion [N]-CA--C-[OXT] |==|  0.94293
USER: genes 8 Torsion [N]-CA--CB-[OG] |==|  0.40661
USER: genes 9 Torsion [CA]-CB--OG-[HG] |==|  0.06029
USER: genes 10 Torsion [N]-CA--CB-[CG2] |==|  0.57606
USER: genes 11 Torsion [CA]-CB--CG1-[CD1] |==|  0.61566
USER: genes 12 Torsion [N]-C--CA-[N] |==|  0.96208
USER: genes 13 Torsion [C]-CA--CB-[CG] |==|  0.77212
USER: genes 14 Torsion [CA]-CB--CG-[CD1] |==|  0.77108
USER: genes 15 Torsion [C]-CA--N-[C] |==|  0.67656
USER: genes 16 Torsion [N]-C--CA-[N] |==|  0.96777
USER: genes 17 Torsion [C]-CA--CB-[CG] |==|  0.50765
USER: genes 18 Torsion [CA]-CB--CG-[OD1] |==|  0.70903
USER: genes 19 Torsion [C]-CA--N-[C] |==|  0.78102
USER: genes 20 Torsion [N]-C--CA-[N] |==|  0.29850
USER: genes 21 Torsion [C]-CA--CB-[CG] |==|  0.45388
USER: genes 22 Torsion [CA]-CB--CG-[CD2] |==|  0.62159
ROOT
ATOM      1  C   PHE C 305      12.947   8.036  -6.539  0.50 34.66 LIG 0.24  C 
ATOM      2 O    PHE C 305      13.212   8.367  -7.690  0.50 33.80 LIG-0.27  OA
ATOM      3  N   PRO C 306      11.765   8.330  -5.961  0.50 35.29 LIG-0.34  N 
ATOM      4  CA  PRO C 306      10.980   9.444  -6.467  0.50 35.79 LIG 0.18  C 
ATOM      5  CB  PRO C 306       9.522   8.999  -6.204  0.50 35.80 LIG 0.04  C 
ATOM      6  CG  PRO C 306       9.623   7.702  -5.394  0.50 35.25 LIG 0.02  C 
ATOM      7  CD  PRO C 306      11.039   7.621  -4.896  0.50 35.51 LIG 0.13  C 
ENDROOT
BRANCH 4 8
ATOM      8  C   PRO C 306      11.269  10.708  -5.655  0.50 36.50 LIG 0.24  C 
ATOM      9  N   ILE C 307      10.766  11.851  -6.150  0.50 37.01 LIG-0.35  N 
ATOM     10 H    ILE C 307      10.356  11.923  -6.902  0.50 37.01 LIG 0.16  HD
ATOM     11 O    PRO C 306      11.928  10.639  -4.593  0.50 36.74 LIG-0.27  OA
BRANCH 9 12
ATOM     12  CA  ILE C 307      10.899  13.096  -5.392  0.50 37.44 LIG 0.18  C 
BRANCH 12 13
ATOM     13  C   ILE C 307       9.893  13.195  -4.242  0.50 38.23 LIG 0.24  C 
ATOM     14  N   SER C 308       8.680  12.725  -4.519  0.50 38.91 LIG-0.34  N 
ATOM     15 H    SER C 308       8.435  12.503  -5.313  0.50 38.91 LIG 0.16  HD
ATOM     16 O    ILE C 307      10.214  13.672  -3.144  0.50 38.79 LIG-0.27  OA
BRANCH 14 17
ATOM     17  CA  SER C 308       7.637  12.537  -3.515  0.50 39.43 LIG 0.20  C 
BRANCH 17 18
ATOM     18  C   SER C 308       8.098  11.364  -2.646  0.50 39.77 LIG 0.24  C 
ATOM     19  N   PRO C 309       8.579  11.650  -1.423  0.50 40.03 LIG-0.34  N 
ATOM     20  CD  PRO C 309       8.404  12.890  -0.649  0.50 39.83 LIG 0.13  C 
ATOM     21  CA  PRO C 309       9.346  10.646  -0.683  0.50 40.09 LIG 0.19  C 
ATOM     22  CG  PRO C 309       9.459  12.777   0.407  0.50 40.19 LIG 0.02  C 
ATOM     23  CB  PRO C 309       9.566  11.308   0.683  0.50 40.09 LIG 0.04  C 
ATOM     24 O    SER C 308       8.007  10.206  -3.065  0.50 39.81 LIG-0.27  OA
BRANCH 21 25
ATOM     25  C   PRO C 309       8.617   9.310  -0.541  0.50 40.04 LIG 0.20  C 
ATOM     26 OXT  PRO C 309       7.392   9.227  -0.669  0.50 40.10 LIG-0.65  OA
ATOM     27 O    PRO C 309       9.238   8.277  -0.282  0.50 40.34 LIG-0.65  OA
ENDBRANCH 21 25
ENDBRANCH 17 18
BRANCH 17 28
ATOM     28  CB  SER C 308       6.293  12.218  -4.175  0.50 39.49 LIG 0.20  C 
BRANCH 28 29
ATOM     29 OG   SER C 308       5.521  11.331  -3.379  0.50 39.70 LIG-0.40  OA
ATOM     30 HG   SER C 308       5.784  11.368  -2.582  0.50 39.70 LIG 0.21  HD
ENDBRANCH 28 29
ENDBRANCH 17 28
ENDBRANCH 14 17
ENDBRANCH 12 13
BRANCH 12 31
ATOM     31  CB  ILE C 307      10.725  14.351  -6.282  0.50 37.20 LIG 0.01  C 
ATOM     32  CG2 ILE C 307      11.497  15.545  -5.701  0.50 36.86 LIG 0.01  C 
BRANCH 31 33
ATOM     33  CG1 ILE C 307      11.135  14.015  -7.727  0.50 35.88 LIG 0.00  C 
ATOM     34  CD1 ILE C 307      11.942  15.076  -8.434  0.50 32.01 LIG 0.01  C 
ENDBRANCH 31 33
ENDBRANCH 12 31
ENDBRANCH 9 12
ENDBRANCH 4 8
BRANCH 1 35
ATOM     35  CA  PHE C 305      13.965   7.226  -5.726  0.50 34.47 LIG 0.18  C 
BRANCH 35 36
ATOM     36  CB  PHE C 305      14.007   5.811  -6.325  0.50 34.49 LIG 0.07  C 
BRANCH 36 37
ATOM     37  CG  PHE C 305      12.904   4.879  -5.854  0.50 35.55 LIG-0.06  A 
ATOM     38  CD1 PHE C 305      12.992   4.186  -4.647  0.50 36.28 LIG 0.01  A 
ATOM     39  CE1 PHE C 305      11.961   3.336  -4.233  0.50 36.66 LIG 0.00  A 
ATOM     40  CZ  PHE C 305      10.831   3.162  -5.037  0.50 36.87 LIG 0.00  A 
ATOM     41  CE2 PHE C 305      10.732   3.839  -6.240  0.50 36.76 LIG 0.00  A 
ATOM     42  CD2 PHE C 305      11.772   4.688  -6.649  0.50 36.02 LIG 0.01  A 
ENDBRANCH 36 37
ENDBRANCH 35 36
BRANCH 35 43
ATOM     43  N   PHE C 305      13.668   7.122  -4.293  0.50 33.54 LIG-0.35  N 
ATOM     44 H    PHE C 305      12.939   6.706  -4.105  0.50 33.54 LIG 0.16  HD
ATOM     45  C   ASN C 304      14.490   7.648  -3.384  0.50 33.07 LIG 0.24  C 
ATOM     46 O    ASN C 304      15.317   8.524  -3.661  0.50 33.39 LIG-0.27  OA
BRANCH 45 47
ATOM     47  CA  ASN C 304      14.370   7.097  -1.956  0.50 32.40 LIG 0.18  C 
BRANCH 47 48
ATOM     48  CB  ASN C 304      15.585   6.261  -1.527  0.50 32.38 LIG 0.14  C 
BRANCH 48 49
ATOM     49  CG  ASN C 304      15.432   5.651  -0.111  0.50 31.77 LIG 0.22  C 
ATOM     50 OD1  ASN C 304      16.036   6.114   0.849  0.50 27.48 LIG-0.27  OA
ATOM     51  ND2 ASN C 304      14.653   4.581  -0.008  0.50 32.56 LIG-0.37  N 
ATOM     52 21HD ASN C 304      14.560   4.189   0.752  0.50 32.56 LIG 0.16  HD
ATOM     53 22HD ASN C 304      14.242   4.280  -0.701  0.50 32.56 LIG 0.16  HD
ENDBRANCH 48 49
ENDBRANCH 47 48
BRANCH 47 54
ATOM     54  N   ASN C 304      13.181   6.290  -1.827  0.50 31.56 LIG-0.34  N 
ATOM     55  C   LEU C 303      11.993   6.857  -1.678  0.50 30.83 LIG 0.26  C 
ATOM     56 O    LEU C 303      11.810   8.053  -1.854  0.50 29.02 LIG-0.27  OA
ATOM     57 H    ASN C 304      13.315   5.441  -1.855  0.50 31.56 LIG 0.16  HD
BRANCH 55 58
ATOM     58  CA  LEU C 303      10.850   5.917  -1.276  0.50 30.56 LIG 0.40  C 
ATOM     59  N   LEU C 303      10.404   6.083   0.134  0.50 30.88 LIG 0.61  N 
BRANCH 58 60
ATOM     60  CB  LEU C 303       9.656   6.061  -2.228  0.50 30.80 LIG 0.06  C 
BRANCH 60 61
ATOM     61  CG  LEU C 303       8.598   4.951  -2.224  0.50 30.92 LIG-0.02  C 
ATOM     62  CD2 LEU C 303       8.191   4.578  -3.662  0.50 31.43 LIG 0.01  C 
ATOM     63  CD1 LEU C 303       7.395   5.337  -1.382  0.50 30.50 LIG 0.01  C 
ENDBRANCH 60 61
ENDBRANCH 58 60
ENDBRANCH 55 58
ENDBRANCH 47 54
ENDBRANCH 45 47
ENDBRANCH 35 43
ENDBRANCH 1 35
TORSDOF 21
ENDMDL
MODEL 53
USER: ADFR SOLUTION from run 77
USER: SCORE 17.995566 LL:  -6.094 LR: -13.376 RR:   0.000 FEB:  -7.111
USER: RMSD 8.507107
USER: SEED 76
USER: STATUS no improvement in best in 43 clusters for 5 generations
USER: GENES 23
USER: genes 0 Translation |==|  0.42517 0.50600 0.25305
USER: genes 1 Rotation |==|  0.62991 0.92836 0.64603 0.66823
USER: genes 2 Torsion [N]-CA--C-[N] |==|  0.99855
USER: genes 3 Torsion [C]-N--CA-[C] |==|  0.85145
USER: genes 4 Torsion [N]-CA--C-[N] |==|  0.86236
USER: genes 5 Torsion [C]-N--CA-[CB] |==|  0.86918
USER: genes 6 Torsion [N]-CA--C-[N] |==|  0.30000
USER: genes 7 Torsion [N]-CA--C-[OXT] |==|  0.90789
USER: genes 8 Torsion [N]-CA--CB-[OG] |==|  0.84727
USER: genes 9 Torsion [CA]-CB--OG-[HG] |==|  0.56784
USER: genes 10 Torsion [N]-CA--CB-[CG2] |==|  0.41722
USER: genes 11 Torsion [CA]-CB--CG1-[CD1] |==|  0.11291
USER: genes 12 Torsion [N]-C--CA-[N] |==|  0.46784
USER: genes 13 Torsion [C]-CA--CB-[CG] |==|  0.71945
USER: genes 14 Torsion [CA]-CB--CG-[CD1] |==|  0.75648
USER: genes 15 Torsion [C]-CA--N-[C] |==|  0.65838
USER: genes 16 Torsion [N]-C--CA-[N] |==|  0.54087
USER: genes 17 Torsion [C]-CA--CB-[CG] |==|  0.41053
USER: genes 18 Torsion [CA]-CB--CG-[OD1] |==|  0.42746
USER: genes 19 Torsion [C]-CA--N-[C] |==|  0.74310
USER: genes 20 Torsion [N]-C--CA-[N] |==|  0.59159
USER: genes 21 Torsion [C]-CA--CB-[CG] |==|  0.74079
USER: genes 22 Torsion [CA]-CB--CG-[CD2] |==|  0.56381
ROOT
ATOM      1  C   PHE C 305      11.484   6.975  -5.275  0.50 34.66 LIG 0.24  C 
ATOM      2 O    PHE C 305      10.456   6.658  -5.866  0.50 33.80 LIG-0.27  OA
ATOM      3  N   PRO C 306      12.635   6.290  -5.418  0.50 35.29 LIG-0.34  N 
ATOM      4  CA  PRO C 306      12.593   4.905  -5.859  0.50 35.79 LIG 0.18  C 
ATOM      5  CB  PRO C 306      13.912   4.743  -6.649  0.50 35.80 LIG 0.04  C 
ATOM      6  CG  PRO C 306      14.688   6.049  -6.436  0.50 35.25 LIG 0.02  C 
ATOM      7  CD  PRO C 306      14.025   6.752  -5.284  0.50 35.51 LIG 0.13  C 
ENDROOT
BRANCH 4 8
ATOM      8  C   PRO C 306      12.616   3.964  -4.652  0.50 36.50 LIG 0.24  C 
ATOM      9  N   ILE C 307      12.680   4.556  -3.448  0.50 37.01 LIG-0.35  N 
ATOM     10 H    ILE C 307      12.767   5.401  -3.320  0.50 37.01 LIG 0.16  HD
ATOM     11 O    PRO C 306      12.564   2.725  -4.818  0.50 36.74 LIG-0.27  OA
BRANCH 9 12
ATOM     12  CA  ILE C 307      12.600   3.745  -2.232  0.50 37.44 LIG 0.18  C 
BRANCH 12 13
ATOM     13  C   ILE C 307      11.366   2.840  -2.208  0.50 38.23 LIG 0.24  C 
ATOM     14  N   SER C 308      10.219   3.452  -2.486  0.50 38.91 LIG-0.34  N 
ATOM     15 H    SER C 308      10.148   4.307  -2.548  0.50 38.91 LIG 0.16  HD
ATOM     16 O    ILE C 307      11.459   1.630  -1.955  0.50 38.79 LIG-0.27  OA
BRANCH 14 17
ATOM     17  CA  SER C 308       8.961   2.747  -2.717  0.50 39.43 LIG 0.20  C 
BRANCH 17 18
ATOM     18  C   SER C 308       8.507   2.240  -1.346  0.50 39.77 LIG 0.24  C 
ATOM     19  N   PRO C 309       7.452   2.851  -0.777  0.50 40.03 LIG-0.34  N 
ATOM     20  CD  PRO C 309       6.441   3.701  -1.425  0.50 39.83 LIG 0.13  C 
ATOM     21  CA  PRO C 309       7.178   2.665   0.650  0.50 40.09 LIG 0.19  C 
ATOM     22  CG  PRO C 309       5.789   4.388  -0.266  0.50 40.19 LIG 0.02  C 
ATOM     23  CB  PRO C 309       5.840   3.388   0.848  0.50 40.09 LIG 0.04  C 
ATOM     24 O    SER C 308       9.091   1.295  -0.808  0.50 39.81 LIG-0.27  OA
BRANCH 21 25
ATOM     25  C   PRO C 309       7.081   1.196   1.061  0.50 40.04 LIG 0.20  C 
ATOM     26 OXT  PRO C 309       6.630   0.340   0.295  0.50 40.10 LIG-0.65  OA
ATOM     27 O    PRO C 309       7.442   0.830   2.182  0.50 40.34 LIG-0.65  OA
ENDBRANCH 21 25
ENDBRANCH 17 18
BRANCH 17 28
ATOM     28  CB  SER C 308       9.158   1.577  -3.682  0.50 39.49 LIG 0.20  C 
BRANCH 28 29
ATOM     29 OG   SER C 308       9.748   2.003  -4.901  0.50 39.70 LIG-0.40  OA
ATOM     30 HG   SER C 308       9.550   1.464  -5.514  0.50 39.70 LIG 0.21  HD
ENDBRANCH 28 29
ENDBRANCH 17 28
ENDBRANCH 14 17
ENDBRANCH 12 13
BRANCH 12 31
ATOM     31  CB  ILE C 307      12.578   4.610  -0.948  0.50 37.20 LIG 0.01  C 
ATOM     32  CG2 ILE C 307      11.792   3.909   0.171  0.50 36.86 LIG 0.01  C 
BRANCH 31 33
ATOM     33  CG1 ILE C 307      14.020   4.959  -0.540  0.50 35.88 LIG 0.00  C 
ATOM     34  CD1 ILE C 307      14.947   5.313  -1.678  0.50 32.01 LIG 0.01  C 
ENDBRANCH 31 33
ENDBRANCH 12 31
ENDBRANCH 9 12
ENDBRANCH 4 8
BRANCH 1 35
ATOM     35  CA  PHE C 305      11.489   8.212  -4.368  0.50 34.47 LIG 0.18  C 
BRANCH 35 36
ATOM     36  CB  PHE C 305      11.630   7.718  -2.920  0.50 34.49 LIG 0.07  C 
BRANCH 36 37
ATOM     37  CG  PHE C 305      10.337   7.687  -2.122  0.50 35.55 LIG-0.06  A 
ATOM     38  CD1 PHE C 305       9.883   8.800  -1.414  0.50 36.28 LIG 0.01  A 
ATOM     39  CE1 PHE C 305       8.688   8.749  -0.690  0.50 36.66 LIG 0.00  A 
ATOM     40  CZ  PHE C 305       7.939   7.569  -0.657  0.50 36.87 LIG 0.00  A 
ATOM     41  CE2 PHE C 305       8.378   6.456  -1.351  0.50 36.76 LIG 0.00  A 
ATOM     42  CD2 PHE C 305       9.580   6.515  -2.073  0.50 36.02 LIG 0.01  A 
ENDBRANCH 36 37
ENDBRANCH 35 36
BRANCH 35 43
ATOM     43  N   PHE C 305      10.292   9.054  -4.465  0.50 33.54 LIG-0.35  N 
ATOM     44 H    PHE C 305       9.551   8.648  -4.302  0.50 33.54 LIG 0.16  HD
ATOM     45  C   ASN C 304      10.387  10.345  -4.784  0.50 33.07 LIG 0.24  C 
ATOM     46 O    ASN C 304      11.380  10.821  -5.348  0.50 33.39 LIG-0.27  OA
BRANCH 45 47
ATOM     47  CA  ASN C 304       9.194  11.232  -4.403  0.50 32.40 LIG 0.18  C 
BRANCH 47 48
ATOM     48  CB  ASN C 304       7.836  10.581  -4.707  0.50 32.38 LIG 0.14  C 
BRANCH 48 49
ATOM     49  CG  ASN C 304       6.728  10.992  -3.704  0.50 31.77 LIG 0.22  C 
ATOM     50 OD1  ASN C 304       5.545  10.978  -4.024  0.50 27.48 LIG-0.27  OA
ATOM     51  ND2 ASN C 304       7.133  11.399  -2.508  0.50 32.56 LIG-0.37  N 
ATOM     52 21HD ASN C 304       6.557  11.665  -1.927  0.50 32.56 LIG 0.16  HD
ATOM     53 22HD ASN C 304       7.971  11.397  -2.313  0.50 32.56 LIG 0.16  HD
ENDBRANCH 48 49
ENDBRANCH 47 48
BRANCH 47 54
ATOM     54  N   ASN C 304       9.267  12.497  -5.093  0.50 31.56 LIG-0.34  N 
ATOM     55  C   LEU C 303       9.860  13.540  -4.530  0.50 30.83 LIG 0.26  C 
ATOM     56 O    LEU C 303      10.546  13.440  -3.523  0.50 29.02 LIG-0.27  OA
ATOM     57 H    ASN C 304       8.903  12.507  -5.872  0.50 31.56 LIG 0.16  HD
BRANCH 55 58
ATOM     58  CA  LEU C 303       9.638  14.890  -5.224  0.50 30.56 LIG 0.40  C 
ATOM     59  N   LEU C 303      10.800  15.815  -5.124  0.50 30.88 LIG 0.61  N 
BRANCH 58 60
ATOM     60  CB  LEU C 303       9.241  14.696  -6.693  0.50 30.80 LIG 0.06  C 
BRANCH 60 61
ATOM     61  CG  LEU C 303      10.357  14.715  -7.744  0.50 30.92 LIG-0.02  C 
ATOM     62  CD2 LEU C 303       9.796  15.079  -9.131  0.50 31.43 LIG 0.01  C 
ATOM     63  CD1 LEU C 303      11.113  13.398  -7.773  0.50 30.50 LIG 0.01  C 
ENDBRANCH 60 61
ENDBRANCH 58 60
ENDBRANCH 55 58
ENDBRANCH 47 54
ENDBRANCH 45 47
ENDBRANCH 35 43
ENDBRANCH 1 35
TORSDOF 21
ENDMDL
MODEL 54
USER: ADFR SOLUTION from run 51
USER: SCORE 17.342943 LL:  -4.826 LR: -13.377 RR:   0.000 FEB:  -7.113
USER: RMSD 7.019778
USER: SEED 50
USER: STATUS no improvement in best in 28 clusters for 5 generations
USER: GENES 23
USER: genes 0 Translation |==|  0.44196 0.52122 0.26479
USER: genes 1 Rotation |==|  0.70851 0.83831 0.71203 0.71705
USER: genes 2 Torsion [N]-CA--C-[N] |==|  0.20617
USER: genes 3 Torsion [C]-N--CA-[C] |==|  0.59178
USER: genes 4 Torsion [N]-CA--C-[N] |==|  0.37066
USER: genes 5 Torsion [C]-N--CA-[CB] |==|  0.52310
USER: genes 6 Torsion [N]-CA--C-[N] |==|  0.37222
USER: genes 7 Torsion [N]-CA--C-[OXT] |==|  0.34002
USER: genes 8 Torsion [N]-CA--CB-[OG] |==|  0.82554
USER: genes 9 Torsion [CA]-CB--OG-[HG] |==|  0.14653
USER: genes 10 Torsion [N]-CA--CB-[CG2] |==|  0.82469
USER: genes 11 Torsion [CA]-CB--CG1-[CD1] |==|  0.29585
USER: genes 12 Torsion [N]-C--CA-[N] |==|  0.98158
USER: genes 13 Torsion [C]-CA--CB-[CG] |==|  0.08786
USER: genes 14 Torsion [CA]-CB--CG-[CD1] |==|  0.72480
USER: genes 15 Torsion [C]-CA--N-[C] |==|  0.76641
USER: genes 16 Torsion [N]-C--CA-[N] |==|  0.38769
USER: genes 17 Torsion [C]-CA--CB-[CG] |==|  0.44416
USER: genes 18 Torsion [CA]-CB--CG-[OD1] |==|  0.04596
USER: genes 19 Torsion [C]-CA--N-[C] |==|  0.79594
USER: genes 20 Torsion [N]-C--CA-[N] |==|  0.70346
USER: genes 21 Torsion [C]-CA--CB-[CG] |==|  0.18286
USER: genes 22 Torsion [CA]-CB--CG-[CD2] |==|  0.56826
ROOT
ATOM      1  C   PHE C 305      11.912   7.340  -5.037  0.50 34.66 LIG 0.24  C 
ATOM      2 O    PHE C 305      11.081   7.636  -5.890  0.50 33.80 LIG-0.27  OA
ATOM      3  N   PRO C 306      12.823   6.366  -5.229  0.50 35.29 LIG-0.34  N 
ATOM      4  CA  PRO C 306      12.557   5.320  -6.203  0.50 35.79 LIG 0.18  C 
ATOM      5  CB  PRO C 306      13.966   4.951  -6.723  0.50 35.80 LIG 0.04  C 
ATOM      6  CG  PRO C 306      14.950   5.732  -5.845  0.50 35.25 LIG 0.02  C 
ATOM      7  CD  PRO C 306      14.168   6.213  -4.654  0.50 35.51 LIG 0.13  C 
ENDROOT
BRANCH 4 8
ATOM      8  C   PRO C 306      11.944   4.099  -5.514  0.50 36.50 LIG 0.24  C 
ATOM      9  N   ILE C 307      10.660   4.221  -5.137  0.50 37.01 LIG-0.35  N 
ATOM     10 H    ILE C 307      10.195   4.940  -5.203  0.50 37.01 LIG 0.16  HD
ATOM     11 O    PRO C 306      12.625   3.063  -5.343  0.50 36.74 LIG-0.27  OA
BRANCH 9 12
ATOM     12  CA  ILE C 307       9.955   3.072  -4.567  0.50 37.44 LIG 0.18  C 
BRANCH 12 13
ATOM     13  C   ILE C 307       8.467   3.057  -4.925  0.50 38.23 LIG 0.24  C 
ATOM     14  N   SER C 308       8.004   1.883  -5.345  0.50 38.91 LIG-0.34  N 
ATOM     15 H    SER C 308       8.517   1.217  -5.527  0.50 38.91 LIG 0.16  HD
ATOM     16 O    ILE C 307       7.767   4.074  -4.813  0.50 38.79 LIG-0.27  OA
BRANCH 14 17
ATOM     17  CA  SER C 308       6.586   1.596  -5.542  0.50 39.43 LIG 0.20  C 
BRANCH 17 18
ATOM     18  C   SER C 308       5.891   1.999  -4.240  0.50 39.77 LIG 0.24  C 
ATOM     19  N   PRO C 309       4.762   2.723  -4.338  0.50 40.03 LIG-0.34  N 
ATOM     20  CD  PRO C 309       3.893   2.889  -5.515  0.50 39.83 LIG 0.13  C 
ATOM     21  CA  PRO C 309       4.239   3.429  -3.167  0.50 40.09 LIG 0.19  C 
ATOM     22  CG  PRO C 309       3.058   4.076  -5.149  0.50 40.19 LIG 0.02  C 
ATOM     23  CB  PRO C 309       2.897   3.985  -3.662  0.50 40.09 LIG 0.04  C 
ATOM     24 O    SER C 308       6.357   1.649  -3.152  0.50 39.81 LIG-0.27  OA
BRANCH 21 25
ATOM     25  C   PRO C 309       4.049   2.526  -1.949  0.50 40.04 LIG 0.20  C 
ATOM     26 OXT  PRO C 309       4.609   2.764  -0.875  0.50 40.10 LIG-0.65  OA
ATOM     27 O    PRO C 309       3.336   1.522  -2.014  0.50 40.34 LIG-0.65  OA
ENDBRANCH 21 25
ENDBRANCH 17 18
BRANCH 17 28
ATOM     28  CB  SER C 308       6.364   0.109  -5.829  0.50 39.49 LIG 0.20  C 
BRANCH 28 29
ATOM     29 OG   SER C 308       7.002  -0.288  -7.035  0.50 39.70 LIG-0.40  OA
ATOM     30 HG   SER C 308       7.810  -0.060  -7.013  0.50 39.70 LIG 0.21  HD
ENDBRANCH 28 29
ENDBRANCH 17 28
ENDBRANCH 14 17
ENDBRANCH 12 13
BRANCH 12 31
ATOM     31  CB  ILE C 307      10.071   3.015  -3.024  0.50 37.20 LIG 0.01  C 
ATOM     32  CG2 ILE C 307      11.534   2.832  -2.592  0.50 36.86 LIG 0.01  C 
BRANCH 31 33
ATOM     33  CG1 ILE C 307       9.417   4.268  -2.415  0.50 35.88 LIG 0.00  C 
ATOM     34  CD1 ILE C 307       8.086   4.040  -1.740  0.50 32.01 LIG 0.01  C 
ENDBRANCH 31 33
ENDBRANCH 12 31
ENDBRANCH 9 12
ENDBRANCH 4 8
BRANCH 1 35
ATOM     35  CA  PHE C 305      11.958   8.119  -3.716  0.50 34.47 LIG 0.18  C 
BRANCH 35 36
ATOM     36  CB  PHE C 305      12.328   9.571  -4.054  0.50 34.49 LIG 0.07  C 
BRANCH 36 37
ATOM     37  CG  PHE C 305      11.835  10.064  -5.404  0.50 35.55 LIG-0.06  A 
ATOM     38  CD1 PHE C 305      12.667  10.101  -6.522  0.50 36.28 LIG 0.01  A 
ATOM     39  CE1 PHE C 305      12.190  10.555  -7.755  0.50 36.66 LIG 0.00  A 
ATOM     40  CZ  PHE C 305      10.868  10.993  -7.876  0.50 36.87 LIG 0.00  A 
ATOM     41  CE2 PHE C 305      10.031  10.968  -6.775  0.50 36.76 LIG 0.00  A 
ATOM     42  CD2 PHE C 305      10.519  10.512  -5.540  0.50 36.02 LIG 0.01  A 
ENDBRANCH 36 37
ENDBRANCH 35 36
BRANCH 35 43
ATOM     43  N   PHE C 305      12.914   7.605  -2.729  0.50 33.54 LIG-0.35  N 
ATOM     44 H    PHE C 305      13.678   8.001  -2.728  0.50 33.54 LIG 0.16  HD
ATOM     45  C   ASN C 304      12.585   6.601  -1.916  0.50 33.07 LIG 0.24  C 
ATOM     46 O    ASN C 304      11.650   5.828  -2.156  0.50 33.39 LIG-0.27  OA
BRANCH 45 47
ATOM     47  CA  ASN C 304      13.425   6.453  -0.640  0.50 32.40 LIG 0.18  C 
BRANCH 47 48
ATOM     48  CB  ASN C 304      14.529   5.392  -0.765  0.50 32.38 LIG 0.14  C 
BRANCH 48 49
ATOM     49  CG  ASN C 304      15.662   5.570   0.278  0.50 31.77 LIG 0.22  C 
ATOM     50 OD1  ASN C 304      15.506   6.270   1.273  0.50 27.48 LIG-0.27  OA
ATOM     51  ND2 ASN C 304      16.813   4.965   0.013  0.50 32.56 LIG-0.37  N 
ATOM     52 21HD ASN C 304      17.481   5.057   0.547  0.50 32.56 LIG 0.16  HD
ATOM     53 22HD ASN C 304      16.891   4.480  -0.693  0.50 32.56 LIG 0.16  HD
ENDBRANCH 48 49
ENDBRANCH 47 48
BRANCH 47 54
ATOM     54  N   ASN C 304      12.582   6.117   0.481  0.50 31.56 LIG-0.34  N 
ATOM     55  C   LEU C 303      11.789   7.027   1.026  0.50 30.83 LIG 0.26  C 
ATOM     56 O    LEU C 303      11.568   8.107   0.496  0.50 29.02 LIG-0.27  OA
ATOM     57 H    ASN C 304      12.643   5.302   0.749  0.50 31.56 LIG 0.16  HD
BRANCH 55 58
ATOM     58  CA  LEU C 303      11.154   6.643   2.369  0.50 30.56 LIG 0.40  C 
ATOM     59  N   LEU C 303       9.702   6.328   2.277  0.50 30.88 LIG 0.61  N 
BRANCH 58 60
ATOM     60  CB  LEU C 303      11.908   5.478   3.022  0.50 30.80 LIG 0.06  C 
BRANCH 60 61
ATOM     61  CG  LEU C 303      13.351   5.725   3.477  0.50 30.92 LIG-0.02  C 
ATOM     62  CD2 LEU C 303      14.142   4.404   3.527  0.50 31.43 LIG 0.01  C 
ATOM     63  CD1 LEU C 303      13.394   6.456   4.807  0.50 30.50 LIG 0.01  C 
ENDBRANCH 60 61
ENDBRANCH 58 60
ENDBRANCH 55 58
ENDBRANCH 47 54
ENDBRANCH 45 47
ENDBRANCH 35 43
ENDBRANCH 1 35
TORSDOF 21
ENDMDL
MODEL 55
USER: ADFR SOLUTION from run 130
USER: SCORE 17.297364 LL:  -5.409 LR: -13.371 RR:   0.000 FEB:  -7.107
USER: RMSD 8.213037
USER: SEED 129
USER: STATUS no improvement in best in 16 clusters for 5 generations
USER: GENES 23
USER: genes 0 Translation |==|  0.37802 0.47918 0.27423
USER: genes 1 Rotation |==|  0.68862 0.87482 0.69968 0.68457
USER: genes 2 Torsion [N]-CA--C-[N] |==|  0.22892
USER: genes 3 Torsion [C]-N--CA-[C] |==|  0.71309
USER: genes 4 Torsion [N]-CA--C-[N] |==|  0.45826
USER: genes 5 Torsion [C]-N--CA-[CB] |==|  0.59458
USER: genes 6 Torsion [N]-CA--C-[N] |==|  0.81293
USER: genes 7 Torsion [N]-CA--C-[OXT] |==|  0.39043
USER: genes 8 Torsion [N]-CA--CB-[OG] |==|  0.93007
USER: genes 9 Torsion [CA]-CB--OG-[HG] |==|  0.10564
USER: genes 10 Torsion [N]-CA--CB-[CG2] |==|  0.69230
USER: genes 11 Torsion [CA]-CB--CG1-[CD1] |==|  0.23245
USER: genes 12 Torsion [N]-C--CA-[N] |==|  0.41699
USER: genes 13 Torsion [C]-CA--CB-[CG] |==|  0.25381
USER: genes 14 Torsion [CA]-CB--CG-[CD1] |==|  0.77160
USER: genes 15 Torsion [C]-CA--N-[C] |==|  0.75341
USER: genes 16 Torsion [N]-C--CA-[N] |==|  0.54049
USER: genes 17 Torsion [C]-CA--CB-[CG] |==|  0.31444
USER: genes 18 Torsion [CA]-CB--CG-[OD1] |==|  0.72395
USER: genes 19 Torsion [C]-CA--N-[C] |==|  0.54237
USER: genes 20 Torsion [N]-C--CA-[N] |==|  0.63531
USER: genes 21 Torsion [C]-CA--CB-[CG] |==|  0.22020
USER: genes 22 Torsion [CA]-CB--CG-[CD2] |==|  0.62995
ROOT
ATOM      1  C   PHE C 305      10.282   6.331  -4.846  0.50 34.66 LIG 0.24  C 
ATOM      2 O    PHE C 305       9.310   6.432  -5.589  0.50 33.80 LIG-0.27  OA
ATOM      3  N   PRO C 306      11.297   5.484  -5.103  0.50 35.29 LIG-0.34  N 
ATOM      4  CA  PRO C 306      11.068   4.331  -5.958  0.50 35.79 LIG 0.18  C 
ATOM      5  CB  PRO C 306      12.436   4.123  -6.649  0.50 35.80 LIG 0.04  C 
ATOM      6  CG  PRO C 306      13.397   5.109  -5.974  0.50 35.25 LIG 0.02  C 
ATOM      7  CD  PRO C 306      12.714   5.573  -4.717  0.50 35.51 LIG 0.13  C 
ENDROOT
BRANCH 4 8
ATOM      8  C   PRO C 306      10.745   3.098  -5.111  0.50 36.50 LIG 0.24  C 
ATOM      9  N   ILE C 307       9.469   2.983  -4.705  0.50 37.01 LIG-0.35  N 
ATOM     10 H    ILE C 307       8.857   3.572  -4.837  0.50 37.01 LIG 0.16  HD
ATOM     11 O    PRO C 306      11.639   2.264  -4.845  0.50 36.74 LIG-0.27  OA
BRANCH 9 12
ATOM     12  CA  ILE C 307       9.039   1.787  -3.981  0.50 37.44 LIG 0.18  C 
BRANCH 12 13
ATOM     13  C   ILE C 307       8.241   0.821  -4.860  0.50 38.23 LIG 0.24  C 
ATOM     14  N   SER C 308       8.097  -0.402  -4.359  0.50 38.91 LIG-0.34  N 
ATOM     15 H    SER C 308       8.522  -0.675  -3.663  0.50 38.91 LIG 0.16  HD
ATOM     16 O    ILE C 307       7.767   1.182  -5.947  0.50 38.79 LIG-0.27  OA
BRANCH 14 17
ATOM     17  CA  SER C 308       7.209  -1.411  -4.929  0.50 39.43 LIG 0.20  C 
BRANCH 17 18
ATOM     18  C   SER C 308       6.109  -0.637  -5.660  0.50 39.77 LIG 0.24  C 
ATOM     19  N   PRO C 309       5.256   0.084  -4.910  0.50 40.03 LIG-0.34  N 
ATOM     20  CD  PRO C 309       5.429   0.531  -3.519  0.50 39.83 LIG 0.13  C 
ATOM     21  CA  PRO C 309       3.997   0.560  -5.486  0.50 40.09 LIG 0.19  C 
ATOM     22  CG  PRO C 309       4.042   0.922  -3.118  0.50 40.19 LIG 0.02  C 
ATOM     23  CB  PRO C 309       3.414   1.443  -4.374  0.50 40.09 LIG 0.04  C 
ATOM     24 O    SER C 308       6.036  -0.674  -6.892  0.50 39.81 LIG-0.27  OA
BRANCH 21 25
ATOM     25  C   PRO C 309       4.182   1.349  -6.782  0.50 40.04 LIG 0.20  C 
ATOM     26 OXT  PRO C 309       3.403   1.223  -7.731  0.50 40.10 LIG-0.65  OA
ATOM     27 O    PRO C 309       5.129   2.128  -6.915  0.50 40.34 LIG-0.65  OA
ENDBRANCH 21 25
ENDBRANCH 17 18
BRANCH 17 28
ATOM     28  CB  SER C 308       6.606  -2.292  -3.833  0.50 39.49 LIG 0.20  C 
BRANCH 28 29
ATOM     29 OG   SER C 308       7.433  -2.325  -2.679  0.50 39.70 LIG-0.40  OA
ATOM     30 HG   SER C 308       7.767  -1.565  -2.552  0.50 39.70 LIG 0.21  HD
ENDBRANCH 28 29
ENDBRANCH 17 28
ENDBRANCH 14 17
ENDBRANCH 12 13
BRANCH 12 31
ATOM     31  CB  ILE C 307       8.173   2.126  -2.743  0.50 37.20 LIG 0.01  C 
ATOM     32  CG2 ILE C 307       8.928   1.811  -1.443  0.50 36.86 LIG 0.01  C 
BRANCH 31 33
ATOM     33  CG1 ILE C 307       7.708   3.591  -2.829  0.50 35.88 LIG 0.00  C 
ATOM     34  CD1 ILE C 307       6.475   3.831  -3.666  0.50 32.01 LIG 0.01  C 
ENDBRANCH 31 33
ENDBRANCH 12 31
ENDBRANCH 9 12
ENDBRANCH 4 8
BRANCH 1 35
ATOM     35  CA  PHE C 305      10.381   7.219  -3.599  0.50 34.47 LIG 0.18  C 
BRANCH 35 36
ATOM     36  CB  PHE C 305       9.773   6.433  -2.427  0.50 34.49 LIG 0.07  C 
BRANCH 36 37
ATOM     37  CG  PHE C 305      10.760   5.593  -1.634  0.50 35.55 LIG-0.06  A 
ATOM     38  CD1 PHE C 305      11.156   4.326  -2.060  0.50 36.28 LIG 0.01  A 
ATOM     39  CE1 PHE C 305      12.069   3.573  -1.315  0.50 36.66 LIG 0.00  A 
ATOM     40  CZ  PHE C 305      12.585   4.082  -0.119  0.50 36.87 LIG 0.00  A 
ATOM     41  CE2 PHE C 305      12.198   5.335   0.319  0.50 36.76 LIG 0.00  A 
ATOM     42  CD2 PHE C 305      11.279   6.083  -0.434  0.50 36.02 LIG 0.01  A 
ENDBRANCH 36 37
ENDBRANCH 35 36
BRANCH 35 43
ATOM     43  N   PHE C 305       9.697   8.512  -3.705  0.50 33.54 LIG-0.35  N 
ATOM     44 H    PHE C 305       8.880   8.511  -3.434  0.50 33.54 LIG 0.16  HD
ATOM     45  C   ASN C 304      10.328   9.582  -4.191  0.50 33.07 LIG 0.24  C 
ATOM     46 O    ASN C 304      11.346   9.496  -4.887  0.50 33.39 LIG-0.27  OA
BRANCH 45 47
ATOM     47  CA  ASN C 304       9.729  10.949  -3.830  0.50 32.40 LIG 0.18  C 
BRANCH 47 48
ATOM     48  CB  ASN C 304       8.198  10.986  -3.944  0.50 32.38 LIG 0.14  C 
BRANCH 48 49
ATOM     49  CG  ASN C 304       7.492  11.164  -2.576  0.50 31.77 LIG 0.22  C 
ATOM     50 OD1  ASN C 304       7.017  10.206  -1.977  0.50 27.48 LIG-0.27  OA
ATOM     51  ND2 ASN C 304       7.392  12.405  -2.118  0.50 32.56 LIG-0.37  N 
ATOM     52 21HD ASN C 304       6.983  12.559  -1.376  0.50 32.56 LIG 0.16  HD
ATOM     53 22HD ASN C 304       7.736  13.057  -2.561  0.50 32.56 LIG 0.16  HD
ENDBRANCH 48 49
ENDBRANCH 47 48
BRANCH 47 54
ATOM     54  N   ASN C 304      10.283  11.979  -4.675  0.50 31.56 LIG-0.34  N 
ATOM     55  C   LEU C 303      10.148  13.258  -4.357  0.50 30.83 LIG 0.26  C 
ATOM     56 O    LEU C 303       9.752  13.622  -3.259  0.50 29.02 LIG-0.27  OA
ATOM     57 H    ASN C 304      10.692  11.692  -5.376  0.50 31.56 LIG 0.16  HD
BRANCH 55 58
ATOM     58  CA  LEU C 303      10.526  14.263  -5.452  0.50 30.56 LIG 0.40  C 
ATOM     59  N   LEU C 303      11.428  15.350  -4.984  0.50 30.88 LIG 0.61  N 
BRANCH 58 60
ATOM     60  CB  LEU C 303      11.140  13.552  -6.664  0.50 30.80 LIG 0.06  C 
BRANCH 60 61
ATOM     61  CG  LEU C 303      10.187  12.867  -7.652  0.50 30.92 LIG-0.02  C 
ATOM     62  CD2 LEU C 303      10.682  11.450  -7.996  0.50 31.43 LIG 0.01  C 
ATOM     63  CD1 LEU C 303       9.984  13.710  -8.899  0.50 30.50 LIG 0.01  C 
ENDBRANCH 60 61
ENDBRANCH 58 60
ENDBRANCH 55 58
ENDBRANCH 47 54
ENDBRANCH 45 47
ENDBRANCH 35 43
ENDBRANCH 1 35
TORSDOF 21
ENDMDL
MODEL 56
USER: ADFR SOLUTION from run 11
USER: SCORE 19.238007 LL:  -7.008 LR: -13.352 RR:   0.000 FEB:  -7.087
USER: RMSD 10.268793
USER: SEED 740185
USER: STATUS no improvement in best in 4 clusters for 5 generations
USER: GENES 23
USER: genes 0 Translation |==|  0.50991 0.56127 0.32528
USER: genes 1 Rotation |==|  0.15078 0.77678 0.32590 0.64534
USER: genes 2 Torsion [N]-CA--C-[N] |==|  0.99103
USER: genes 3 Torsion [C]-N--CA-[C] |==|  0.69628
USER: genes 4 Torsion [N]-CA--C-[N] |==|  0.31519
USER: genes 5 Torsion [C]-N--CA-[CB] |==|  0.80000
USER: genes 6 Torsion [N]-CA--C-[N] |==|  0.12461
USER: genes 7 Torsion [N]-CA--C-[OXT] |==|  0.43265
USER: genes 8 Torsion [N]-CA--CB-[OG] |==|  0.24500
USER: genes 9 Torsion [CA]-CB--OG-[HG] |==|  0.35090
USER: genes 10 Torsion [N]-CA--CB-[CG2] |==|  0.69363
USER: genes 11 Torsion [CA]-CB--CG1-[CD1] |==|  0.51063
USER: genes 12 Torsion [N]-C--CA-[N] |==|  0.45909
USER: genes 13 Torsion [C]-CA--CB-[CG] |==|  0.32559
USER: genes 14 Torsion [CA]-CB--CG-[CD1] |==|  0.46856
USER: genes 15 Torsion [C]-CA--N-[C] |==|  0.61249
USER: genes 16 Torsion [N]-C--CA-[N] |==|  0.01438
USER: genes 17 Torsion [C]-CA--CB-[CG] |==|  0.69325
USER: genes 18 Torsion [CA]-CB--CG-[OD1] |==|  0.13724
USER: genes 19 Torsion [C]-CA--N-[C] |==|  0.67203
USER: genes 20 Torsion [N]-C--CA-[N] |==|  0.27091
USER: genes 21 Torsion [C]-CA--CB-[CG] |==|  0.69472
USER: genes 22 Torsion [CA]-CB--CG-[CD2] |==|  0.53145
ROOT
ATOM      1  C   PHE C 305      13.645   8.302  -3.812  0.50 34.66 LIG 0.24  C 
ATOM      2 O    PHE C 305      13.846   7.795  -2.712  0.50 33.80 LIG-0.27  OA
ATOM      3  N   PRO C 306      14.214   9.465  -4.182  0.50 35.29 LIG-0.34  N 
ATOM      4  CA  PRO C 306      14.667  10.397  -3.161  0.50 35.79 LIG 0.18  C 
ATOM      5  CB  PRO C 306      15.880  11.089  -3.825  0.50 35.80 LIG 0.04  C 
ATOM      6  CG  PRO C 306      15.902  10.590  -5.274  0.50 35.25 LIG 0.02  C 
ATOM      7  CD  PRO C 306      14.563   9.955  -5.525  0.50 35.51 LIG 0.13  C 
ENDROOT
BRANCH 4 8
ATOM      8  C   PRO C 306      13.586  11.443  -2.881  0.50 36.50 LIG 0.24  C 
ATOM      9  N   ILE C 307      12.483  11.365  -3.643  0.50 37.01 LIG-0.35  N 
ATOM     10 H    ILE C 307      12.376  10.819  -4.299  0.50 37.01 LIG 0.16  HD
ATOM     11 O    PRO C 306      13.752  12.294  -1.979  0.50 36.74 LIG-0.27  OA
BRANCH 9 12
ATOM     12  CA  ILE C 307      11.350  12.254  -3.380  0.50 37.44 LIG 0.18  C 
BRANCH 12 13
ATOM     13  C   ILE C 307      10.146  11.515  -2.793  0.50 38.23 LIG 0.24  C 
ATOM     14  N   SER C 308       9.844  11.844  -1.540  0.50 38.91 LIG-0.34  N 
ATOM     15 H    SER C 308      10.354  12.332  -1.050  0.50 38.91 LIG 0.16  HD
ATOM     16 O    ILE C 307       9.511  10.685  -3.460  0.50 38.79 LIG-0.27  OA
BRANCH 14 17
ATOM     17  CA  SER C 308       8.624  11.415  -0.862  0.50 39.43 LIG 0.20  C 
BRANCH 17 18
ATOM     18  C   SER C 308       8.506   9.911  -1.120  0.50 39.77 LIG 0.24  C 
ATOM     19  N   PRO C 309       9.618   9.169  -0.974  0.50 40.03 LIG-0.34  N 
ATOM     20  CD  PRO C 309      10.855   9.522  -0.260  0.50 39.83 LIG 0.13  C 
ATOM     21  CA  PRO C 309       9.673   7.814  -1.527  0.50 40.09 LIG 0.19  C 
ATOM     22  CG  PRO C 309      11.836   8.512  -0.768  0.50 40.19 LIG 0.02  C 
ATOM     23  CB  PRO C 309      11.019   7.281  -1.018  0.50 40.09 LIG 0.04  C 
ATOM     24 O    SER C 308       7.419   9.417  -1.433  0.50 39.81 LIG-0.27  OA
BRANCH 21 25
ATOM     25  C   PRO C 309       8.516   6.925  -1.069  0.50 40.04 LIG 0.20  C 
ATOM     26 OXT  PRO C 309       8.147   5.954  -1.734  0.50 40.10 LIG-0.65  OA
ATOM     27 O    PRO C 309       7.911   7.168  -0.022  0.50 40.34 LIG-0.65  OA
ENDBRANCH 21 25
ENDBRANCH 17 18
BRANCH 17 28
ATOM     28  CB  SER C 308       7.402  12.151  -1.418  0.50 39.49 LIG 0.20  C 
BRANCH 28 29
ATOM     29 OG   SER C 308       6.847  11.467  -2.532  0.50 39.70 LIG-0.40  OA
ATOM     30 HG   SER C 308       6.029  11.331  -2.399  0.50 39.70 LIG 0.21  HD
ENDBRANCH 28 29
ENDBRANCH 17 28
ENDBRANCH 14 17
ENDBRANCH 12 13
BRANCH 12 31
ATOM     31  CB  ILE C 307      10.875  12.996  -4.653  0.50 37.20 LIG 0.01  C 
ATOM     32  CG2 ILE C 307      11.206  14.494  -4.569  0.50 36.86 LIG 0.01  C 
BRANCH 31 33
ATOM     33  CG1 ILE C 307      11.476  12.317  -5.897  0.50 35.88 LIG 0.00  C 
ATOM     34  CD1 ILE C 307      11.171  12.989  -7.213  0.50 32.01 LIG 0.01  C 
ENDBRANCH 31 33
ENDBRANCH 12 31
ENDBRANCH 9 12
ENDBRANCH 4 8
BRANCH 1 35
ATOM     35  CA  PHE C 305      12.749   7.582  -4.829  0.50 34.47 LIG 0.18  C 
BRANCH 35 36
ATOM     36  CB  PHE C 305      11.434   8.371  -4.919  0.50 34.49 LIG 0.07  C 
BRANCH 36 37
ATOM     37  CG  PHE C 305      11.137   8.975  -6.282  0.50 35.55 LIG-0.06  A 
ATOM     38  CD1 PHE C 305       9.890   9.515  -6.591  0.50 36.28 LIG 0.01  A 
ATOM     39  CE1 PHE C 305       9.642  10.069  -7.850  0.50 36.66 LIG 0.00  A 
ATOM     40  CZ  PHE C 305      10.646  10.074  -8.823  0.50 36.87 LIG 0.00  A 
ATOM     41  CE2 PHE C 305      11.887   9.537  -8.533  0.50 36.76 LIG 0.00  A 
ATOM     42  CD2 PHE C 305      12.127   8.981  -7.267  0.50 36.02 LIG 0.01  A 
ENDBRANCH 36 37
ENDBRANCH 35 36
BRANCH 35 43
ATOM     43  N   PHE C 305      12.441   6.186  -4.501  0.50 33.54 LIG-0.35  N 
ATOM     44 H    PHE C 305      12.279   6.039  -3.669  0.50 33.54 LIG 0.16  HD
ATOM     45  C   ASN C 304      12.425   5.248  -5.448  0.50 33.07 LIG 0.24  C 
ATOM     46 O    ASN C 304      12.991   5.392  -6.539  0.50 33.39 LIG-0.27  OA
BRANCH 45 47
ATOM     47  CA  ASN C 304      11.650   3.964  -5.124  0.50 32.40 LIG 0.18  C 
BRANCH 47 48
ATOM     48  CB  ASN C 304      10.617   3.594  -6.199  0.50 32.38 LIG 0.14  C 
BRANCH 48 49
ATOM     49  CG  ASN C 304       9.153   3.767  -5.718  0.50 31.77 LIG 0.22  C 
ATOM     50 OD1  ASN C 304       8.781   4.800  -5.174  0.50 27.48 LIG-0.27  OA
ATOM     51  ND2 ASN C 304       8.347   2.726  -5.887  0.50 32.56 LIG-0.37  N 
ATOM     52 21HD ASN C 304       7.534   2.763  -5.610  0.50 32.56 LIG 0.16  HD
ATOM     53 22HD ASN C 304       8.638   2.015  -6.273  0.50 32.56 LIG 0.16  HD
ENDBRANCH 48 49
ENDBRANCH 47 48
BRANCH 47 54
ATOM     54  N   ASN C 304      10.975   4.090  -3.855  0.50 31.56 LIG-0.34  N 
ATOM     55  C   LEU C 303      11.274   3.283  -2.848  0.50 30.83 LIG 0.26  C 
ATOM     56 O    LEU C 303      12.254   2.552  -2.862  0.50 29.02 LIG-0.27  OA
ATOM     57 H    ASN C 304      10.386   4.716  -3.819  0.50 31.56 LIG 0.16  HD
BRANCH 55 58
ATOM     58  CA  LEU C 303      10.314   3.322  -1.652  0.50 30.56 LIG 0.40  C 
ATOM     59  N   LEU C 303       9.295   2.238  -1.664  0.50 30.88 LIG 0.61  N 
BRANCH 58 60
ATOM     60  CB  LEU C 303      11.085   3.309  -0.326  0.50 30.80 LIG 0.06  C 
BRANCH 60 61
ATOM     61  CG  LEU C 303      11.007   2.042   0.535  0.50 30.92 LIG-0.02  C 
ATOM     62  CD2 LEU C 303      11.593   2.296   1.936  0.50 31.43 LIG 0.01  C 
ATOM     63  CD1 LEU C 303      11.678   0.864  -0.150  0.50 30.50 LIG 0.01  C 
ENDBRANCH 60 61
ENDBRANCH 58 60
ENDBRANCH 55 58
ENDBRANCH 47 54
ENDBRANCH 45 47
ENDBRANCH 35 43
ENDBRANCH 1 35
TORSDOF 21
ENDMDL
MODEL 57
USER: ADFR SOLUTION from run 102
USER: SCORE 17.542086 LL:  -5.591 LR: -13.350 RR:   0.000 FEB:  -7.086
USER: RMSD 12.276138
USER: SEED 101
USER: STATUS searching
USER: GENES 23
USER: genes 0 Translation |==|  0.39363 0.39705 0.36549
USER: genes 1 Rotation |==|  0.73123 0.10967 0.64109 0.65579
USER: genes 2 Torsion [N]-CA--C-[N] |==|  0.92629
USER: genes 3 Torsion [C]-N--CA-[C] |==|  0.53650
USER: genes 4 Torsion [N]-CA--C-[N] |==|  0.44292
USER: genes 5 Torsion [C]-N--CA-[CB] |==|  0.87222
USER: genes 6 Torsion [N]-CA--C-[N] |==|  0.39426
USER: genes 7 Torsion [N]-CA--C-[OXT] |==|  0.91074
USER: genes 8 Torsion [N]-CA--CB-[OG] |==|  0.80948
USER: genes 9 Torsion [CA]-CB--OG-[HG] |==|  0.51257
USER: genes 10 Torsion [N]-CA--CB-[CG2] |==|  0.27174
USER: genes 11 Torsion [CA]-CB--CG1-[CD1] |==|  0.04285
USER: genes 12 Torsion [N]-C--CA-[N] |==|  0.23634
USER: genes 13 Torsion [C]-CA--CB-[CG] |==|  0.29237
USER: genes 14 Torsion [CA]-CB--CG-[CD1] |==|  0.35318
USER: genes 15 Torsion [C]-CA--N-[C] |==|  0.70018
USER: genes 16 Torsion [N]-C--CA-[N] |==|  0.19785
USER: genes 17 Torsion [C]-CA--CB-[CG] |==|  0.22006
USER: genes 18 Torsion [CA]-CB--CG-[OD1] |==|  0.33739
USER: genes 19 Torsion [C]-CA--N-[C] |==|  0.72444
USER: genes 20 Torsion [N]-C--CA-[N] |==|  0.70726
USER: genes 21 Torsion [C]-CA--CB-[CG] |==|  0.20111
USER: genes 22 Torsion [CA]-CB--CG-[CD2] |==|  0.04454
ROOT
ATOM      1  C   PHE C 305      10.680   4.360  -2.998  0.50 34.66 LIG 0.24  C 
ATOM      2 O    PHE C 305      11.311   3.975  -2.018  0.50 33.80 LIG-0.27  OA
ATOM      3  N   PRO C 306      11.199   4.339  -4.241  0.50 35.29 LIG-0.34  N 
ATOM      4  CA  PRO C 306      12.644   4.341  -4.412  0.50 35.79 LIG 0.18  C 
ATOM      5  CB  PRO C 306      12.847   3.533  -5.715  0.50 35.80 LIG 0.04  C 
ATOM      6  CG  PRO C 306      11.442   3.281  -6.273  0.50 35.25 LIG 0.02  C 
ATOM      7  CD  PRO C 306      10.521   4.217  -5.540  0.50 35.51 LIG 0.13  C 
ENDROOT
BRANCH 4 8
ATOM      8  C   PRO C 306      13.150   5.768  -4.625  0.50 36.50 LIG 0.24  C 
ATOM      9  N   ILE C 307      12.269   6.630  -5.160  0.50 37.01 LIG-0.35  N 
ATOM     10 H    ILE C 307      11.483   6.421  -5.437  0.50 37.01 LIG 0.16  HD
ATOM     11 O    PRO C 306      14.317   6.079  -4.297  0.50 36.74 LIG-0.27  OA
BRANCH 9 12
ATOM     12  CA  ILE C 307      12.626   8.042  -5.304  0.50 37.44 LIG 0.18  C 
BRANCH 12 13
ATOM     13  C   ILE C 307      11.417   8.925  -5.624  0.50 38.23 LIG 0.24  C 
ATOM     14  N   SER C 308      11.579  10.216  -5.349  0.50 38.91 LIG-0.34  N 
ATOM     15 H    SER C 308      12.253  10.519  -4.908  0.50 38.91 LIG 0.16  HD
ATOM     16 O    ILE C 307      10.381   8.448  -6.111  0.50 38.79 LIG-0.27  OA
BRANCH 14 17
ATOM     17  CA  SER C 308      10.639  11.255  -5.759  0.50 39.43 LIG 0.20  C 
BRANCH 17 18
ATOM     18  C   SER C 308       9.420  11.104  -4.846  0.50 39.77 LIG 0.24  C 
ATOM     19  N   PRO C 309       8.815  12.230  -4.428  0.50 40.03 LIG-0.34  N 
ATOM     20  CD  PRO C 309       8.926  13.582  -4.998  0.50 39.83 LIG 0.13  C 
ATOM     21  CA  PRO C 309       7.881  12.185  -3.300  0.50 40.09 LIG 0.19  C 
ATOM     22  CG  PRO C 309       8.372  14.450  -3.911  0.50 40.19 LIG 0.02  C 
ATOM     23  CB  PRO C 309       7.318  13.612  -3.255  0.50 40.09 LIG 0.04  C 
ATOM     24 O    SER C 308       9.015   9.981  -4.530  0.50 39.81 LIG-0.27  OA
BRANCH 21 25
ATOM     25  C   PRO C 309       6.767  11.154  -3.477  0.50 40.04 LIG 0.20  C 
ATOM     26 OXT  PRO C 309       6.316  10.876  -4.591  0.50 40.10 LIG-0.65  OA
ATOM     27 O    PRO C 309       6.279  10.581  -2.500  0.50 40.34 LIG-0.65  OA
ENDBRANCH 21 25
ENDBRANCH 17 18
BRANCH 17 28
ATOM     28  CB  SER C 308      10.235  11.080  -7.225  0.50 39.49 LIG 0.20  C 
BRANCH 28 29
ATOM     29 OG   SER C 308      11.322  11.346  -8.099  0.50 39.70 LIG-0.40  OA
ATOM     30 HG   SER C 308      11.059  11.303  -8.895  0.50 39.70 LIG 0.21  HD
ENDBRANCH 28 29
ENDBRANCH 17 28
ENDBRANCH 14 17
ENDBRANCH 12 13
BRANCH 12 31
ATOM     31  CB  ILE C 307      13.685   8.273  -6.410  0.50 37.20 LIG 0.01  C 
ATOM     32  CG2 ILE C 307      13.019   8.710  -7.723  0.50 36.86 LIG 0.01  C 
BRANCH 31 33
ATOM     33  CG1 ILE C 307      14.740   9.275  -5.908  0.50 35.88 LIG 0.00  C 
ATOM     34  CD1 ILE C 307      14.746   9.517  -4.418  0.50 32.01 LIG 0.01  C 
ENDBRANCH 31 33
ENDBRANCH 12 31
ENDBRANCH 9 12
ENDBRANCH 4 8
BRANCH 1 35
ATOM     35  CA  PHE C 305       9.235   4.849  -2.829  0.50 34.47 LIG 0.18  C 
BRANCH 35 36
ATOM     36  CB  PHE C 305       9.103   5.401  -1.401  0.50 34.49 LIG 0.07  C 
BRANCH 36 37
ATOM     37  CG  PHE C 305       9.057   6.916  -1.298  0.50 35.55 LIG-0.06  A 
ATOM     38  CD1 PHE C 305       8.036   7.576  -0.615  0.50 36.28 LIG 0.01  A 
ATOM     39  CE1 PHE C 305       8.018   8.972  -0.531  0.50 36.66 LIG 0.00  A 
ATOM     40  CZ  PHE C 305       9.022   9.724  -1.146  0.50 36.87 LIG 0.00  A 
ATOM     41  CE2 PHE C 305      10.039   9.084  -1.831  0.50 36.76 LIG 0.00  A 
ATOM     42  CD2 PHE C 305      10.049   7.683  -1.913  0.50 36.02 LIG 0.01  A 
ENDBRANCH 36 37
ENDBRANCH 35 36
BRANCH 35 43
ATOM     43  N   PHE C 305       8.208   3.823  -3.036  0.50 33.54 LIG-0.35  N 
ATOM     44 H    PHE C 305       8.153   3.236  -2.409  0.50 33.54 LIG 0.16  HD
ATOM     45  C   ASN C 304       7.439   3.834  -4.126  0.50 33.07 LIG 0.24  C 
ATOM     46 O    ASN C 304       7.752   4.444  -5.155  0.50 33.39 LIG-0.27  OA
BRANCH 45 47
ATOM     47  CA  ASN C 304       6.121   3.052  -4.039  0.50 32.40 LIG 0.18  C 
BRANCH 47 48
ATOM     48  CB  ASN C 304       5.456   2.837  -5.406  0.50 32.38 LIG 0.14  C 
BRANCH 48 49
ATOM     49  CG  ASN C 304       6.095   1.681  -6.217  0.50 31.77 LIG 0.22  C 
ATOM     50 OD1  ASN C 304       5.430   0.721  -6.587  0.50 27.48 LIG-0.27  OA
ATOM     51  ND2 ASN C 304       7.400   1.769  -6.446  0.50 32.56 LIG-0.37  N 
ATOM     52 21HD ASN C 304       7.806   1.138  -6.866  0.50 32.56 LIG 0.16  HD
ATOM     53 22HD ASN C 304       7.839   2.457  -6.174  0.50 32.56 LIG 0.16  HD
ENDBRANCH 48 49
ENDBRANCH 47 48
BRANCH 47 54
ATOM     54  N   ASN C 304       5.190   3.732  -3.171  0.50 31.56 LIG-0.34  N 
ATOM     55  C   LEU C 303       5.031   3.342  -1.915  0.50 30.83 LIG 0.26  C 
ATOM     56 O    LEU C 303       5.792   2.555  -1.371  0.50 29.02 LIG-0.27  OA
ATOM     57 H    ASN C 304       4.767   4.386  -3.535  0.50 31.56 LIG 0.16  HD
BRANCH 55 58
ATOM     58  CA  LEU C 303       3.831   3.946  -1.174  0.50 30.56 LIG 0.40  C 
ATOM     59  N   LEU C 303       4.202   4.993  -0.184  0.50 30.88 LIG 0.61  N 
BRANCH 58 60
ATOM     60  CB  LEU C 303       2.794   4.495  -2.162  0.50 30.80 LIG 0.06  C 
BRANCH 60 61
ATOM     61  CG  LEU C 303       1.956   3.486  -2.956  0.50 30.92 LIG-0.02  C 
ATOM     62  CD2 LEU C 303       2.042   2.085  -2.322  0.50 31.43 LIG 0.01  C 
ATOM     63  CD1 LEU C 303       2.356   3.465  -4.421  0.50 30.50 LIG 0.01  C 
ENDBRANCH 60 61
ENDBRANCH 58 60
ENDBRANCH 55 58
ENDBRANCH 47 54
ENDBRANCH 45 47
ENDBRANCH 35 43
ENDBRANCH 1 35
TORSDOF 21
ENDMDL
MODEL 58
USER: ADFR SOLUTION from run 155
USER: SCORE 18.310944 LL:  -5.652 LR: -13.349 RR:   0.000 FEB:  -7.085
USER: RMSD 9.930136
USER: SEED 154
USER: STATUS no improvement in best in 60 clusters for 5 generations
USER: GENES 23
USER: genes 0 Translation |==|  0.31957 0.71138 0.44978
USER: genes 1 Rotation |==|  0.35925 0.19145 0.32597 0.82358
USER: genes 2 Torsion [N]-CA--C-[N] |==|  0.00937
USER: genes 3 Torsion [C]-N--CA-[C] |==|  0.65355
USER: genes 4 Torsion [N]-CA--C-[N] |==|  0.43790
USER: genes 5 Torsion [C]-N--CA-[CB] |==|  0.53395
USER: genes 6 Torsion [N]-CA--C-[N] |==|  0.41439
USER: genes 7 Torsion [N]-CA--C-[OXT] |==|  0.97539
USER: genes 8 Torsion [N]-CA--CB-[OG] |==|  0.12955
USER: genes 9 Torsion [CA]-CB--OG-[HG] |==|  0.15104
USER: genes 10 Torsion [N]-CA--CB-[CG2] |==|  0.17049
USER: genes 11 Torsion [CA]-CB--CG1-[CD1] |==|  0.19529
USER: genes 12 Torsion [N]-C--CA-[N] |==|  0.37035
USER: genes 13 Torsion [C]-CA--CB-[CG] |==|  0.44526
USER: genes 14 Torsion [CA]-CB--CG-[CD1] |==|  0.16660
USER: genes 15 Torsion [C]-CA--N-[C] |==|  0.73749
USER: genes 16 Torsion [N]-C--CA-[N] |==|  0.92778
USER: genes 17 Torsion [C]-CA--CB-[CG] |==|  0.43128
USER: genes 18 Torsion [CA]-CB--CG-[OD1] |==|  0.22122
USER: genes 19 Torsion [C]-CA--N-[C] |==|  0.74886
USER: genes 20 Torsion [N]-C--CA-[N] |==|  0.81255
USER: genes 21 Torsion [C]-CA--CB-[CG] |==|  0.37257
USER: genes 22 Torsion [CA]-CB--CG-[CD2] |==|  0.83351
ROOT
ATOM      1  C   PHE C 305       8.791  11.904  -1.291  0.50 34.66 LIG 0.24  C 
ATOM      2 O    PHE C 305       8.388  10.914  -0.687  0.50 33.80 LIG-0.27  OA
ATOM      3  N   PRO C 306       8.144  12.405  -2.362  0.50 35.29 LIG-0.34  N 
ATOM      4  CA  PRO C 306       7.264  11.542  -3.133  0.50 35.79 LIG 0.18  C 
ATOM      5  CB  PRO C 306       6.177  12.514  -3.650  0.50 35.80 LIG 0.04  C 
ATOM      6  CG  PRO C 306       6.649  13.916  -3.249  0.50 35.25 LIG 0.02  C 
ATOM      7  CD  PRO C 306       8.098  13.784  -2.870  0.50 35.51 LIG 0.13  C 
ENDROOT
BRANCH 4 8
ATOM      8  C   PRO C 306       8.014  10.951  -4.328  0.50 36.50 LIG 0.24  C 
ATOM      9  N   ILE C 307       9.319  11.260  -4.413  0.50 37.01 LIG-0.35  N 
ATOM     10 H    ILE C 307       9.731  11.801  -3.887  0.50 37.01 LIG 0.16  HD
ATOM     11 O    PRO C 306       7.417  10.219  -5.149  0.50 36.74 LIG-0.27  OA
BRANCH 9 12
ATOM     12  CA  ILE C 307      10.145  10.658  -5.460  0.50 37.44 LIG 0.18  C 
BRANCH 12 13
ATOM     13  C   ILE C 307      11.373   9.936  -4.899  0.50 38.23 LIG 0.24  C 
ATOM     14  N   SER C 308      11.887   9.006  -5.698  0.50 38.91 LIG-0.34  N 
ATOM     15 H    SER C 308      11.495   8.735  -6.414  0.50 38.91 LIG 0.16  HD
ATOM     16 O    ILE C 307      11.837  10.224  -3.787  0.50 38.79 LIG-0.27  OA
BRANCH 14 17
ATOM     17  CA  SER C 308      13.166   8.345  -5.452  0.50 39.43 LIG 0.20  C 
BRANCH 17 18
ATOM     18  C   SER C 308      14.161   9.463  -5.131  0.50 39.77 LIG 0.24  C 
ATOM     19  N   PRO C 309      15.169   9.172  -4.289  0.50 40.03 LIG-0.34  N 
ATOM     20  CD  PRO C 309      15.670   7.844  -3.902  0.50 39.83 LIG 0.13  C 
ATOM     21  CA  PRO C 309      15.942  10.252  -3.672  0.50 40.09 LIG 0.19  C 
ATOM     22  CG  PRO C 309      16.491   8.138  -2.685  0.50 40.19 LIG 0.02  C 
ATOM     23  CB  PRO C 309      17.057   9.504  -2.928  0.50 40.09 LIG 0.04  C 
ATOM     24 O    SER C 308      14.035  10.576  -5.650  0.50 39.81 LIG-0.27  OA
BRANCH 21 25
ATOM     25  C   PRO C 309      16.518  11.241  -4.684  0.50 40.04 LIG 0.20  C 
ATOM     26 OXT  PRO C 309      16.466  11.025  -5.898  0.50 40.10 LIG-0.65  OA
ATOM     27 O    PRO C 309      17.064  12.281  -4.309  0.50 40.34 LIG-0.65  OA
ENDBRANCH 21 25
ENDBRANCH 17 18
BRANCH 17 28
ATOM     28  CB  SER C 308      13.622   7.560  -6.684  0.50 39.49 LIG 0.20  C 
BRANCH 28 29
ATOM     29 OG   SER C 308      13.493   8.332  -7.869  0.50 39.70 LIG-0.40  OA
ATOM     30 HG   SER C 308      13.902   9.059  -7.776  0.50 39.70 LIG 0.21  HD
ENDBRANCH 28 29
ENDBRANCH 17 28
ENDBRANCH 14 17
ENDBRANCH 12 13
BRANCH 12 31
ATOM     31  CB  ILE C 307      10.639  11.700  -6.493  0.50 37.20 LIG 0.01  C 
ATOM     32  CG2 ILE C 307      11.516  12.766  -5.818  0.50 36.86 LIG 0.01  C 
BRANCH 31 33
ATOM     33  CG1 ILE C 307      11.355  10.977  -7.648  0.50 35.88 LIG 0.00  C 
ATOM     34  CD1 ILE C 307      10.462  10.173  -8.561  0.50 32.01 LIG 0.01  C 
ENDBRANCH 31 33
ENDBRANCH 12 31
ENDBRANCH 9 12
ENDBRANCH 4 8
BRANCH 1 35
ATOM     35  CA  PHE C 305      10.049  12.634  -0.803  0.50 34.47 LIG 0.18  C 
BRANCH 35 36
ATOM     36  CB  PHE C 305      11.261  11.788  -1.223  0.50 34.49 LIG 0.07  C 
BRANCH 36 37
ATOM     37  CG  PHE C 305      12.585  12.533  -1.258  0.50 35.55 LIG-0.06  A 
ATOM     38  CD1 PHE C 305      13.117  13.141  -0.122  0.50 36.28 LIG 0.01  A 
ATOM     39  CE1 PHE C 305      14.339  13.818  -0.179  0.50 36.66 LIG 0.00  A 
ATOM     40  CZ  PHE C 305      15.038  13.903  -1.387  0.50 36.87 LIG 0.00  A 
ATOM     41  CE2 PHE C 305      14.520  13.309  -2.524  0.50 36.76 LIG 0.00  A 
ATOM     42  CD2 PHE C 305      13.291  12.633  -2.459  0.50 36.02 LIG 0.01  A 
ENDBRANCH 36 37
ENDBRANCH 35 36
BRANCH 35 43
ATOM     43  N   PHE C 305      10.109  12.859   0.646  0.50 33.54 LIG-0.35  N 
ATOM     44 H    PHE C 305      10.431  12.203   1.099  0.50 33.54 LIG 0.16  HD
ATOM     45  C   ASN C 304       9.688  14.007   1.178  0.50 33.07 LIG 0.24  C 
ATOM     46 O    ASN C 304       8.922  14.775   0.584  0.50 33.39 LIG-0.27  OA
BRANCH 45 47
ATOM     47  CA  ASN C 304      10.213  14.342   2.580  0.50 32.40 LIG 0.18  C 
BRANCH 47 48
ATOM     48  CB  ASN C 304      11.437  15.271   2.560  0.50 32.38 LIG 0.14  C 
BRANCH 48 49
ATOM     49  CG  ASN C 304      11.601  16.086   3.867  0.50 31.77 LIG 0.22  C 
ATOM     50 OD1  ASN C 304      12.093  15.584   4.871  0.50 27.48 LIG-0.27  OA
ATOM     51  ND2 ASN C 304      11.142  17.331   3.851  0.50 32.56 LIG-0.37  N 
ATOM     52 21HD ASN C 304      11.184  17.814   4.562  0.50 32.56 LIG 0.16  HD
ATOM     53 22HD ASN C 304      10.802  17.655   3.131  0.50 32.56 LIG 0.16  HD
ENDBRANCH 48 49
ENDBRANCH 47 48
BRANCH 47 54
ATOM     54  N   ASN C 304      10.558  13.134   3.290  0.50 31.56 LIG-0.34  N 
ATOM     55  C   LEU C 303       9.661  12.513   4.041  0.50 30.83 LIG 0.26  C 
ATOM     56 O    LEU C 303       8.471  12.792   4.006  0.50 29.02 LIG-0.27  OA
ATOM     57 H    ASN C 304      11.370  12.870   3.182  0.50 31.56 LIG 0.16  HD
BRANCH 55 58
ATOM     58  CA  LEU C 303      10.205  11.411   4.959  0.50 30.56 LIG 0.40  C 
ATOM     59  N   LEU C 303      10.724  10.223   4.228  0.50 30.88 LIG 0.61  N 
BRANCH 58 60
ATOM     60  CB  LEU C 303      11.281  11.962   5.903  0.50 30.80 LIG 0.06  C 
BRANCH 60 61
ATOM     61  CG  LEU C 303      11.201  11.573   7.384  0.50 30.92 LIG-0.02  C 
ATOM     62  CD2 LEU C 303       9.872  12.043   8.003  0.50 31.43 LIG 0.01  C 
ATOM     63  CD1 LEU C 303      12.397  12.095   8.160  0.50 30.50 LIG 0.01  C 
ENDBRANCH 60 61
ENDBRANCH 58 60
ENDBRANCH 55 58
ENDBRANCH 47 54
ENDBRANCH 45 47
ENDBRANCH 35 43
ENDBRANCH 1 35
TORSDOF 21
ENDMDL
MODEL 59
USER: ADFR SOLUTION from run 140
USER: SCORE 17.866171 LL:  -6.199 LR: -13.327 RR:   0.000 FEB:  -7.063
USER: RMSD 10.751280
USER: SEED 139
USER: STATUS no improvement in best in 13 clusters for 5 generations
USER: GENES 23
USER: genes 0 Translation |==|  0.60523 0.51334 0.52502
USER: genes 1 Rotation |==|  0.19293 0.76324 0.54188 0.79096
USER: genes 2 Torsion [N]-CA--C-[N] |==|  0.93927
USER: genes 3 Torsion [C]-N--CA-[C] |==|  0.17279
USER: genes 4 Torsion [N]-CA--C-[N] |==|  0.05289
USER: genes 5 Torsion [C]-N--CA-[CB] |==|  0.16131
USER: genes 6 Torsion [N]-CA--C-[N] |==|  0.80797
USER: genes 7 Torsion [N]-CA--C-[OXT] |==|  0.37502
USER: genes 8 Torsion [N]-CA--CB-[OG] |==|  0.74004
USER: genes 9 Torsion [CA]-CB--OG-[HG] |==|  0.24815
USER: genes 10 Torsion [N]-CA--CB-[CG2] |==|  0.54456
USER: genes 11 Torsion [CA]-CB--CG1-[CD1] |==|  0.36037
USER: genes 12 Torsion [N]-C--CA-[N] |==|  0.17368
USER: genes 13 Torsion [C]-CA--CB-[CG] |==|  0.54504
USER: genes 14 Torsion [CA]-CB--CG-[CD1] |==|  0.22597
USER: genes 15 Torsion [C]-CA--N-[C] |==|  0.61823
USER: genes 16 Torsion [N]-C--CA-[N] |==|  0.40886
USER: genes 17 Torsion [C]-CA--CB-[CG] |==|  0.38444
USER: genes 18 Torsion [CA]-CB--CG-[OD1] |==|  0.14364
USER: genes 19 Torsion [C]-CA--N-[C] |==|  0.61972
USER: genes 20 Torsion [N]-C--CA-[N] |==|  0.42905
USER: genes 21 Torsion [C]-CA--CB-[CG] |==|  0.20064
USER: genes 22 Torsion [CA]-CB--CG-[CD2] |==|  0.58657
ROOT
ATOM      1  C   PHE C 305      16.075   7.151   0.233  0.50 34.66 LIG 0.24  C 
ATOM      2 O    PHE C 305      16.778   6.164   0.430  0.50 33.80 LIG-0.27  OA
ATOM      3  N   PRO C 306      16.165   8.260   0.992  0.50 35.29 LIG-0.34  N 
ATOM      4  CA  PRO C 306      16.709   8.164   2.338  0.50 35.79 LIG 0.18  C 
ATOM      5  CB  PRO C 306      17.389   9.537   2.546  0.50 35.80 LIG 0.04  C 
ATOM      6  CG  PRO C 306      17.011  10.378   1.321  0.50 35.25 LIG 0.02  C 
ATOM      7  CD  PRO C 306      15.874   9.660   0.648  0.50 35.51 LIG 0.13  C 
ENDROOT
BRANCH 4 8
ATOM      8  C   PRO C 306      15.578   8.007   3.356  0.50 36.50 LIG 0.24  C 
ATOM      9  N   ILE C 307      14.367   8.431   2.958  0.50 37.01 LIG-0.35  N 
ATOM     10 H    ILE C 307      14.206   8.828   2.213  0.50 37.01 LIG 0.16  HD
ATOM     11 O    PRO C 306      15.805   7.497   4.477  0.50 36.74 LIG-0.27  OA
BRANCH 9 12
ATOM     12  CA  ILE C 307      13.203   8.227   3.821  0.50 37.44 LIG 0.18  C 
BRANCH 12 13
ATOM     13  C   ILE C 307      13.327   8.957   5.161  0.50 38.23 LIG 0.24  C 
ATOM     14  N   SER C 308      14.222   9.941   5.180  0.50 38.91 LIG-0.34  N 
ATOM     15 H    SER C 308      14.780  10.077   4.540  0.50 38.91 LIG 0.16  HD
ATOM     16 O    ILE C 307      12.627   8.642   6.134  0.50 38.79 LIG-0.27  OA
BRANCH 14 17
ATOM     17  CA  SER C 308      14.357  10.891   6.281  0.50 39.43 LIG 0.20  C 
BRANCH 17 18
ATOM     18  C   SER C 308      15.529  11.802   5.907  0.50 39.77 LIG 0.24  C 
ATOM     19  N   PRO C 309      16.760  11.260   5.906  0.50 40.03 LIG-0.34  N 
ATOM     20  CD  PRO C 309      17.121   9.834   5.866  0.50 39.83 LIG 0.13  C 
ATOM     21  CA  PRO C 309      17.941  12.125   5.901  0.50 40.09 LIG 0.19  C 
ATOM     22  CG  PRO C 309      18.559   9.841   6.280  0.50 40.19 LIG 0.02  C 
ATOM     23  CB  PRO C 309      19.102  11.133   5.750  0.50 40.09 LIG 0.04  C 
ATOM     24 O    SER C 308      15.327  12.982   5.604  0.50 39.81 LIG-0.27  OA
BRANCH 21 25
ATOM     25  C   PRO C 309      17.938  13.151   4.768  0.50 40.04 LIG 0.20  C 
ATOM     26 OXT  PRO C 309      18.238  14.331   4.966  0.50 40.10 LIG-0.65  OA
ATOM     27 O    PRO C 309      17.620  12.823   3.623  0.50 40.34 LIG-0.65  OA
ENDBRANCH 21 25
ENDBRANCH 17 18
BRANCH 17 28
ATOM     28  CB  SER C 308      14.642  10.166   7.598  0.50 39.49 LIG 0.20  C 
BRANCH 28 29
ATOM     29 OG   SER C 308      13.445   9.907   8.317  0.50 39.70 LIG-0.40  OA
ATOM     30 HG   SER C 308      13.133   9.163   8.084  0.50 39.70 LIG 0.21  HD
ENDBRANCH 28 29
ENDBRANCH 17 28
ENDBRANCH 14 17
ENDBRANCH 12 13
BRANCH 12 31
ATOM     31  CB  ILE C 307      12.947   6.730   4.121  0.50 37.20 LIG 0.01  C 
ATOM     32  CG2 ILE C 307      11.531   6.516   4.677  0.50 36.86 LIG 0.01  C 
BRANCH 31 33
ATOM     33  CG1 ILE C 307      13.228   5.899   2.857  0.50 35.88 LIG 0.00  C 
ATOM     34  CD1 ILE C 307      14.137   4.710   3.052  0.50 32.01 LIG 0.01  C 
ENDBRANCH 31 33
ENDBRANCH 12 31
ENDBRANCH 9 12
ENDBRANCH 4 8
BRANCH 1 35
ATOM     35  CA  PHE C 305      15.083   7.158  -0.937  0.50 34.47 LIG 0.18  C 
BRANCH 35 36
ATOM     36  CB  PHE C 305      15.114   5.759  -1.571  0.50 34.49 LIG 0.07  C 
BRANCH 36 37
ATOM     37  CG  PHE C 305      14.503   5.668  -2.960  0.50 35.55 LIG-0.06  A 
ATOM     38  CD1 PHE C 305      15.213   6.037  -4.102  0.50 36.28 LIG 0.01  A 
ATOM     39  CE1 PHE C 305      14.630   5.941  -5.369  0.50 36.66 LIG 0.00  A 
ATOM     40  CZ  PHE C 305      13.316   5.484  -5.503  0.50 36.87 LIG 0.00  A 
ATOM     41  CE2 PHE C 305      12.597   5.119  -4.379  0.50 36.76 LIG 0.00  A 
ATOM     42  CD2 PHE C 305      13.188   5.220  -3.110  0.50 36.02 LIG 0.01  A 
ENDBRANCH 36 37
ENDBRANCH 35 36
BRANCH 35 43
ATOM     43  N   PHE C 305      15.361   8.154  -1.977  0.50 33.54 LIG-0.35  N 
ATOM     44 H    PHE C 305      16.191   8.226  -2.195  0.50 33.54 LIG 0.16  HD
ATOM     45  C   ASN C 304      14.376   8.872  -2.518  0.50 33.07 LIG 0.24  C 
ATOM     46 O    ASN C 304      13.278   9.016  -1.969  0.50 33.39 LIG-0.27  OA
BRANCH 45 47
ATOM     47  CA  ASN C 304      14.669   9.513  -3.881  0.50 32.40 LIG 0.18  C 
BRANCH 47 48
ATOM     48  CB  ASN C 304      15.257  10.928  -3.769  0.50 32.38 LIG 0.14  C 
BRANCH 48 49
ATOM     49  CG  ASN C 304      16.409  11.187  -4.772  0.50 31.77 LIG 0.22  C 
ATOM     50 OD1  ASN C 304      16.273  10.960  -5.969  0.50 27.48 LIG-0.27  OA
ATOM     51  ND2 ASN C 304      17.554  11.622  -4.260  0.50 32.56 LIG-0.37  N 
ATOM     52 21HD ASN C 304      18.232  11.752  -4.773  0.50 32.56 LIG 0.16  HD
ATOM     53 22HD ASN C 304      17.618  11.773  -3.416  0.50 32.56 LIG 0.16  HD
ENDBRANCH 48 49
ENDBRANCH 47 48
BRANCH 47 54
ATOM     54  N   ASN C 304      13.467   9.571  -4.678  0.50 31.56 LIG-0.34  N 
ATOM     55  C   LEU C 303      13.494   9.254  -5.964  0.50 30.83 LIG 0.26  C 
ATOM     56 O    LEU C 303      14.455   8.705  -6.484  0.50 29.02 LIG-0.27  OA
ATOM     57 H    ASN C 304      12.762   9.821  -4.253  0.50 31.56 LIG 0.16  HD
BRANCH 55 58
ATOM     58  CA  LEU C 303      12.239   9.614  -6.768  0.50 30.56 LIG 0.40  C 
ATOM     59  N   LEU C 303      12.492   9.815  -8.221  0.50 30.88 LIG 0.61  N 
BRANCH 58 60
ATOM     60  CB  LEU C 303      11.135   8.569  -6.563  0.50 30.80 LIG 0.06  C 
BRANCH 60 61
ATOM     61  CG  LEU C 303      10.418   8.541  -5.208  0.50 30.92 LIG-0.02  C 
ATOM     62  CD2 LEU C 303       9.969   7.110  -4.856  0.50 31.43 LIG 0.01  C 
ATOM     63  CD1 LEU C 303       9.255   9.517  -5.177  0.50 30.50 LIG 0.01  C 
ENDBRANCH 60 61
ENDBRANCH 58 60
ENDBRANCH 55 58
ENDBRANCH 47 54
ENDBRANCH 45 47
ENDBRANCH 35 43
ENDBRANCH 1 35
TORSDOF 21
ENDMDL
MODEL 60
USER: ADFR SOLUTION from run 53
USER: SCORE 18.492480 LL:  -6.793 LR: -13.317 RR:   0.000 FEB:  -7.053
USER: RMSD 10.339041
USER: SEED 52
USER: STATUS no improvement in best in 30 clusters for 5 generations
USER: GENES 23
USER: genes 0 Translation |==|  0.63264 0.73183 0.76430
USER: genes 1 Rotation |==|  0.59002 0.50527 0.94396 0.71158
USER: genes 2 Torsion [N]-CA--C-[N] |==|  0.06176
USER: genes 3 Torsion [C]-N--CA-[C] |==|  0.78753
USER: genes 4 Torsion [N]-CA--C-[N] |==|  0.36747
USER: genes 5 Torsion [C]-N--CA-[CB] |==|  0.46256
USER: genes 6 Torsion [N]-CA--C-[N] |==|  0.26111
USER: genes 7 Torsion [N]-CA--C-[OXT] |==|  0.79571
USER: genes 8 Torsion [N]-CA--CB-[OG] |==|  0.97088
USER: genes 9 Torsion [CA]-CB--OG-[HG] |==|  0.13293
USER: genes 10 Torsion [N]-CA--CB-[CG2] |==|  0.41074
USER: genes 11 Torsion [CA]-CB--CG1-[CD1] |==|  0.24463
USER: genes 12 Torsion [N]-C--CA-[N] |==|  0.47487
USER: genes 13 Torsion [C]-CA--CB-[CG] |==|  0.40588
USER: genes 14 Torsion [CA]-CB--CG-[CD1] |==|  0.35333
USER: genes 15 Torsion [C]-CA--N-[C] |==|  0.66906
USER: genes 16 Torsion [N]-C--CA-[N] |==|  0.03234
USER: genes 17 Torsion [C]-CA--CB-[CG] |==|  0.96076
USER: genes 18 Torsion [CA]-CB--CG-[OD1] |==|  0.81618
USER: genes 19 Torsion [C]-CA--N-[C] |==|  0.69886
USER: genes 20 Torsion [N]-C--CA-[N] |==|  0.34249
USER: genes 21 Torsion [C]-CA--CB-[CG] |==|  0.19956
USER: genes 22 Torsion [CA]-CB--CG-[CD2] |==|  0.03876
ROOT
ATOM      1  C   PHE C 305      16.774  12.395   5.078  0.50 34.66 LIG 0.24  C 
ATOM      2 O    PHE C 305      16.860  13.554   4.684  0.50 33.80 LIG-0.27  OA
ATOM      3  N   PRO C 306      17.862  11.643   5.339  0.50 35.29 LIG-0.34  N 
ATOM      4  CA  PRO C 306      19.130  11.977   4.710  0.50 35.79 LIG 0.18  C 
ATOM      5  CB  PRO C 306      20.175  11.536   5.761  0.50 35.80 LIG 0.04  C 
ATOM      6  CG  PRO C 306      19.383  10.813   6.857  0.50 35.25 LIG 0.02  C 
ATOM      7  CD  PRO C 306      18.025  10.524   6.279  0.50 35.51 LIG 0.13  C 
ENDROOT
BRANCH 4 8
ATOM      8  C   PRO C 306      19.323  11.152   3.436  0.50 36.50 LIG 0.24  C 
ATOM      9  N   ILE C 307      18.203  10.666   2.877  0.50 37.01 LIG-0.35  N 
ATOM     10 H    ILE C 307      17.415  10.737   3.212  0.50 37.01 LIG 0.16  HD
ATOM     11 O    PRO C 306      20.470  10.974   2.969  0.50 36.74 LIG-0.27  OA
BRANCH 9 12
ATOM     12  CA  ILE C 307      18.275   9.954   1.600  0.50 37.44 LIG 0.18  C 
BRANCH 12 13
ATOM     13  C   ILE C 307      18.452  10.899   0.409  0.50 38.23 LIG 0.24  C 
ATOM     14  N   SER C 308      19.408  10.547  -0.447  0.50 38.91 LIG-0.34  N 
ATOM     15 H    SER C 308      19.971   9.917  -0.285  0.50 38.91 LIG 0.16  HD
ATOM     16 O    ILE C 307      17.738  11.903   0.271  0.50 38.79 LIG-0.27  OA
BRANCH 14 17
ATOM     17  CA  SER C 308      19.608  11.187  -1.744  0.50 39.43 LIG 0.20  C 
BRANCH 17 18
ATOM     18  C   SER C 308      18.468  10.691  -2.637  0.50 39.77 LIG 0.24  C 
ATOM     19  N   PRO C 309      17.363  11.454  -2.713  0.50 40.03 LIG-0.34  N 
ATOM     20  CD  PRO C 309      17.217  12.872  -2.348  0.50 39.83 LIG 0.13  C 
ATOM     21  CA  PRO C 309      16.122  10.896  -3.253  0.50 40.09 LIG 0.19  C 
ATOM     22  CG  PRO C 309      15.732  13.046  -2.269  0.50 40.19 LIG 0.02  C 
ATOM     23  CB  PRO C 309      15.184  12.109  -3.302  0.50 40.09 LIG 0.04  C 
ATOM     24 O    SER C 308      18.586   9.636  -3.267  0.50 39.81 LIG-0.27  OA
BRANCH 21 25
ATOM     25  C   PRO C 309      16.291  10.269  -4.636  0.50 40.04 LIG 0.20  C 
ATOM     26 OXT  PRO C 309      16.438  10.964  -5.646  0.50 40.10 LIG-0.65  OA
ATOM     27 O    PRO C 309      16.270   9.044  -4.780  0.50 40.34 LIG-0.65  OA
ENDBRANCH 21 25
ENDBRANCH 17 18
BRANCH 17 28
ATOM     28  CB  SER C 308      20.963  10.800  -2.342  0.50 39.49 LIG 0.20  C 
BRANCH 28 29
ATOM     29 OG   SER C 308      21.774  10.122  -1.393  0.50 39.70 LIG-0.40  OA
ATOM     30 HG   SER C 308      21.325   9.519  -1.019  0.50 39.70 LIG 0.21  HD
ENDBRANCH 28 29
ENDBRANCH 17 28
ENDBRANCH 14 17
ENDBRANCH 12 13
BRANCH 12 31
ATOM     31  CB  ILE C 307      17.019   9.089   1.335  0.50 37.20 LIG 0.01  C 
ATOM     32  CG2 ILE C 307      16.712   9.016  -0.169  0.50 36.86 LIG 0.01  C 
BRANCH 31 33
ATOM     33  CG1 ILE C 307      17.205   7.704   1.979  0.50 35.88 LIG 0.00  C 
ATOM     34  CD1 ILE C 307      16.765   7.595   3.418  0.50 32.01 LIG 0.01  C 
ENDBRANCH 31 33
ENDBRANCH 12 31
ENDBRANCH 9 12
ENDBRANCH 4 8
BRANCH 1 35
ATOM     35  CA  PHE C 305      15.393  11.774   5.325  0.50 34.47 LIG 0.18  C 
BRANCH 35 36
ATOM     36  CB  PHE C 305      15.203  10.654   4.291  0.50 34.49 LIG 0.07  C 
BRANCH 36 37
ATOM     37  CG  PHE C 305      14.403   9.457   4.778  0.50 35.55 LIG-0.06  A 
ATOM     38  CD1 PHE C 305      13.298   8.976   4.076  0.50 36.28 LIG 0.01  A 
ATOM     39  CE1 PHE C 305      12.580   7.871   4.542  0.50 36.66 LIG 0.00  A 
ATOM     40  CZ  PHE C 305      12.957   7.242   5.732  0.50 36.87 LIG 0.00  A 
ATOM     41  CE2 PHE C 305      14.047   7.711   6.442  0.50 36.76 LIG 0.00  A 
ATOM     42  CD2 PHE C 305      14.762   8.823   5.968  0.50 36.02 LIG 0.01  A 
ENDBRANCH 36 37
ENDBRANCH 35 36
BRANCH 35 43
ATOM     43  N   PHE C 305      14.268  12.711   5.220  0.50 33.54 LIG-0.35  N 
ATOM     44 H    PHE C 305      14.179  13.081   4.448  0.50 33.54 LIG 0.16  HD
ATOM     45  C   ASN C 304      13.470  12.941   6.263  0.50 33.07 LIG 0.24  C 
ATOM     46 O    ASN C 304      13.805  12.692   7.427  0.50 33.39 LIG-0.27  OA
BRANCH 45 47
ATOM     47  CA  ASN C 304      12.088  13.530   5.947  0.50 32.40 LIG 0.18  C 
BRANCH 47 48
ATOM     48  CB  ASN C 304      10.946  12.823   6.692  0.50 32.38 LIG 0.14  C 
BRANCH 48 49
ATOM     49  CG  ASN C 304      11.375  11.471   7.318  0.50 31.77 LIG 0.22  C 
ATOM     50 OD1  ASN C 304      11.696  10.519   6.616  0.50 27.48 LIG-0.27  OA
ATOM     51  ND2 ASN C 304      11.332  11.391   8.642  0.50 32.56 LIG-0.37  N 
ATOM     52 21HD ASN C 304      11.532  10.652   9.035  0.50 32.56 LIG 0.16  HD
ATOM     53 22HD ASN C 304      11.103  12.077   9.107  0.50 32.56 LIG 0.16  HD
ENDBRANCH 48 49
ENDBRANCH 47 48
BRANCH 47 54
ATOM     54  N   ASN C 304      11.827  13.467   4.529  0.50 31.56 LIG-0.34  N 
ATOM     55  C   LEU C 303      11.828  14.569   3.794  0.50 30.83 LIG 0.26  C 
ATOM     56 O    LEU C 303      12.250  15.637   4.213  0.50 29.02 LIG-0.27  OA
ATOM     57 H    ASN C 304      11.677  12.677   4.223  0.50 31.56 LIG 0.16  HD
BRANCH 55 58
ATOM     58  CA  LEU C 303      11.271  14.423   2.372  0.50 30.56 LIG 0.40  C 
ATOM     59  N   LEU C 303      10.144  15.348   2.071  0.50 30.88 LIG 0.61  N 
BRANCH 58 60
ATOM     60  CB  LEU C 303      12.381  14.585   1.326  0.50 30.80 LIG 0.06  C 
BRANCH 60 61
ATOM     61  CG  LEU C 303      13.406  13.452   1.188  0.50 30.92 LIG-0.02  C 
ATOM     62  CD2 LEU C 303      12.919  12.184   1.912  0.50 31.43 LIG 0.01  C 
ATOM     63  CD1 LEU C 303      14.778  13.885   1.674  0.50 30.50 LIG 0.01  C 
ENDBRANCH 60 61
ENDBRANCH 58 60
ENDBRANCH 55 58
ENDBRANCH 47 54
ENDBRANCH 45 47
ENDBRANCH 35 43
ENDBRANCH 1 35
TORSDOF 21
ENDMDL
MODEL 61
USER: ADFR SOLUTION from run 77
USER: SCORE 16.574426 LL:  -5.283 LR: -13.321 RR:   0.000 FEB:  -7.057
USER: RMSD 6.017124
USER: SEED 76
USER: STATUS no improvement in best in 43 clusters for 5 generations
USER: GENES 23
USER: genes 0 Translation |==|  0.42466 0.49451 0.27274
USER: genes 1 Rotation |==|  0.72498 0.89475 0.64367 0.65138
USER: genes 2 Torsion [N]-CA--C-[N] |==|  0.19829
USER: genes 3 Torsion [C]-N--CA-[C] |==|  0.64655
USER: genes 4 Torsion [N]-CA--C-[N] |==|  0.98857
USER: genes 5 Torsion [C]-N--CA-[CB] |==|  0.46682
USER: genes 6 Torsion [N]-CA--C-[N] |==|  0.25815
USER: genes 7 Torsion [N]-CA--C-[OXT] |==|  0.87671
USER: genes 8 Torsion [N]-CA--CB-[OG] |==|  0.47682
USER: genes 9 Torsion [CA]-CB--OG-[HG] |==|  0.53680
USER: genes 10 Torsion [N]-CA--CB-[CG2] |==|  0.24649
USER: genes 11 Torsion [CA]-CB--CG1-[CD1] |==|  0.46336
USER: genes 12 Torsion [N]-C--CA-[N] |==|  0.92575
USER: genes 13 Torsion [C]-CA--CB-[CG] |==|  0.11395
USER: genes 14 Torsion [CA]-CB--CG-[CD1] |==|  0.22375
USER: genes 15 Torsion [C]-CA--N-[C] |==|  0.79007
USER: genes 16 Torsion [N]-C--CA-[N] |==|  0.06043
USER: genes 17 Torsion [C]-CA--CB-[CG] |==|  0.43169
USER: genes 18 Torsion [CA]-CB--CG-[OD1] |==|  0.25609
USER: genes 19 Torsion [C]-CA--N-[C] |==|  0.61511
USER: genes 20 Torsion [N]-C--CA-[N] |==|  0.43588
USER: genes 21 Torsion [C]-CA--CB-[CG] |==|  0.89694
USER: genes 22 Torsion [CA]-CB--CG-[CD2] |==|  0.66894
ROOT
ATOM      1  C   PHE C 305      11.471   6.699  -4.876  0.50 34.66 LIG 0.24  C 
ATOM      2 O    PHE C 305      10.347   6.856  -5.343  0.50 33.80 LIG-0.27  OA
ATOM      3  N   PRO C 306      12.293   5.718  -5.297  0.50 35.29 LIG-0.34  N 
ATOM      4  CA  PRO C 306      11.731   4.536  -5.930  0.50 35.79 LIG 0.18  C 
ATOM      5  CB  PRO C 306      12.832   4.111  -6.929  0.50 35.80 LIG 0.04  C 
ATOM      6  CG  PRO C 306      14.029   5.024  -6.643  0.50 35.25 LIG 0.02  C 
ATOM      7  CD  PRO C 306      13.763   5.667  -5.310  0.50 35.51 LIG 0.13  C 
ENDROOT
BRANCH 4 8
ATOM      8  C   PRO C 306      11.537   3.423  -4.898  0.50 36.50 LIG 0.24  C 
ATOM      9  N   ILE C 307      10.547   3.613  -4.009  0.50 37.01 LIG-0.35  N 
ATOM     10 H    ILE C 307      10.071   4.326  -3.949  0.50 37.01 LIG 0.16  HD
ATOM     11 O    PRO C 306      12.267   2.407  -4.921  0.50 36.74 LIG-0.27  OA
BRANCH 9 12
ATOM     12  CA  ILE C 307      10.216   2.558  -3.050  0.50 37.44 LIG 0.18  C 
BRANCH 12 13
ATOM     13  C   ILE C 307       8.729   2.196  -3.065  0.50 38.23 LIG 0.24  C 
ATOM     14  N   SER C 308       7.979   2.945  -3.868  0.50 38.91 LIG-0.34  N 
ATOM     15 H    SER C 308       8.272   3.657  -4.251  0.50 38.91 LIG 0.16  HD
ATOM     16 O    ILE C 307       8.285   1.264  -2.378  0.50 38.79 LIG-0.27  OA
BRANCH 14 17
ATOM     17  CA  SER C 308       6.585   2.645  -4.187  0.50 39.43 LIG 0.20  C 
BRANCH 17 18
ATOM     18  C   SER C 308       6.620   1.427  -5.113  0.50 39.77 LIG 0.24  C 
ATOM     19  N   PRO C 309       6.511   0.213  -4.544  0.50 40.03 LIG-0.34  N 
ATOM     20  CD  PRO C 309       6.008  -0.115  -3.201  0.50 39.83 LIG 0.13  C 
ATOM     21  CA  PRO C 309       6.876  -0.986  -5.301  0.50 40.09 LIG 0.19  C 
ATOM     22  CG  PRO C 309       6.489  -1.518  -2.997  0.50 40.19 LIG 0.02  C 
ATOM     23  CB  PRO C 309       6.468  -2.131  -4.364  0.50 40.09 LIG 0.04  C 
ATOM     24 O    SER C 308       6.726   1.577  -6.334  0.50 39.81 LIG-0.27  OA
BRANCH 21 25
ATOM     25  C   PRO C 309       6.163  -1.093  -6.649  0.50 40.04 LIG 0.20  C 
ATOM     26 OXT  PRO C 309       4.957  -0.859  -6.761  0.50 40.10 LIG-0.65  OA
ATOM     27 O    PRO C 309       6.779  -1.430  -7.663  0.50 40.34 LIG-0.65  OA
ENDBRANCH 21 25
ENDBRANCH 17 18
BRANCH 17 28
ATOM     28  CB  SER C 308       5.917   3.831  -4.886  0.50 39.49 LIG 0.20  C 
BRANCH 28 29
ATOM     29 OG   SER C 308       4.626   3.488  -5.370  0.50 39.70 LIG-0.40  OA
ATOM     30 HG   SER C 308       4.357   4.082  -5.899  0.50 39.70 LIG 0.21  HD
ENDBRANCH 28 29
ENDBRANCH 17 28
ENDBRANCH 14 17
ENDBRANCH 12 13
BRANCH 12 31
ATOM     31  CB  ILE C 307      10.595   2.941  -1.599  0.50 37.20 LIG 0.01  C 
ATOM     32  CG2 ILE C 307       9.441   3.683  -0.908  0.50 36.86 LIG 0.01  C 
BRANCH 31 33
ATOM     33  CG1 ILE C 307      11.041   1.680  -0.837  0.50 35.88 LIG 0.00  C 
ATOM     34  CD1 ILE C 307      11.732   1.930   0.481  0.50 32.01 LIG 0.01  C 
ENDBRANCH 31 33
ENDBRANCH 12 31
ENDBRANCH 9 12
ENDBRANCH 4 8
BRANCH 1 35
ATOM     35  CA  PHE C 305      11.991   7.665  -3.804  0.50 34.47 LIG 0.18  C 
BRANCH 35 36
ATOM     36  CB  PHE C 305      12.566   8.890  -4.532  0.50 34.49 LIG 0.07  C 
BRANCH 36 37
ATOM     37  CG  PHE C 305      11.750   9.376  -5.718  0.50 35.55 LIG-0.06  A 
ATOM     38  CD1 PHE C 305      10.619  10.175  -5.554  0.50 36.28 LIG 0.01  A 
ATOM     39  CE1 PHE C 305       9.886  10.613  -6.662  0.50 36.66 LIG 0.00  A 
ATOM     40  CZ  PHE C 305      10.275  10.240  -7.952  0.50 36.87 LIG 0.00  A 
ATOM     41  CE2 PHE C 305      11.393   9.445  -8.129  0.50 36.76 LIG 0.00  A 
ATOM     42  CD2 PHE C 305      12.122   9.007  -7.012  0.50 36.02 LIG 0.01  A 
ENDBRANCH 36 37
ENDBRANCH 35 36
BRANCH 35 43
ATOM     43  N   PHE C 305      13.025   7.111  -2.923  0.50 33.54 LIG-0.35  N 
ATOM     44 H    PHE C 305      13.824   7.385  -3.088  0.50 33.54 LIG 0.16  HD
ATOM     45  C   ASN C 304      12.709   6.251  -1.954  0.50 33.07 LIG 0.24  C 
ATOM     46 O    ASN C 304      11.653   5.608  -1.951  0.50 33.39 LIG-0.27  OA
BRANCH 45 47
ATOM     47  CA  ASN C 304      13.728   6.102  -0.816  0.50 32.40 LIG 0.18  C 
BRANCH 47 48
ATOM     48  CB  ASN C 304      13.072   5.889   0.557  0.50 32.38 LIG 0.14  C 
BRANCH 48 49
ATOM     49  CG  ASN C 304      13.996   5.157   1.564  0.50 31.77 LIG 0.22  C 
ATOM     50 OD1  ASN C 304      14.723   5.782   2.328  0.50 27.48 LIG-0.27  OA
ATOM     51  ND2 ASN C 304      13.989   3.831   1.519  0.50 32.56 LIG-0.37  N 
ATOM     52 21HD ASN C 304      14.507   3.380   2.038  0.50 32.56 LIG 0.16  HD
ATOM     53 22HD ASN C 304      13.467   3.422   0.972  0.50 32.56 LIG 0.16  HD
ENDBRANCH 48 49
ENDBRANCH 47 48
BRANCH 47 54
ATOM     54  N   ASN C 304      14.580   7.265  -0.747  0.50 31.56 LIG-0.34  N 
ATOM     55  C   LEU C 303      15.880   7.137  -0.531  0.50 30.83 LIG 0.26  C 
ATOM     56 O    LEU C 303      16.452   6.058  -0.591  0.50 29.02 LIG-0.27  OA
ATOM     57 H    ASN C 304      14.176   8.017  -0.857  0.50 31.56 LIG 0.16  HD
BRANCH 55 58
ATOM     58  CA  LEU C 303      16.634   8.432  -0.204  0.50 30.56 LIG 0.40  C 
ATOM     59  N   LEU C 303      17.904   8.216   0.542  0.50 30.88 LIG 0.61  N 
BRANCH 58 60
ATOM     60  CB  LEU C 303      16.900   9.251  -1.474  0.50 30.80 LIG 0.06  C 
BRANCH 60 61
ATOM     61  CG  LEU C 303      17.238   8.487  -2.760  0.50 30.92 LIG-0.02  C 
ATOM     62  CD2 LEU C 303      18.636   8.876  -3.275  0.50 31.43 LIG 0.01  C 
ATOM     63  CD1 LEU C 303      16.172   8.691  -3.822  0.50 30.50 LIG 0.01  C 
ENDBRANCH 60 61
ENDBRANCH 58 60
ENDBRANCH 55 58
ENDBRANCH 47 54
ENDBRANCH 45 47
ENDBRANCH 35 43
ENDBRANCH 1 35
TORSDOF 21
ENDMDL
MODEL 62
USER: ADFR SOLUTION from run 77
USER: SCORE 17.185310 LL:  -5.545 LR: -13.309 RR:   0.000 FEB:  -7.044
USER: RMSD 6.866652
USER: SEED 76
USER: STATUS no improvement in best in 43 clusters for 5 generations
USER: GENES 23
USER: genes 0 Translation |==|  0.42198 0.49770 0.27214
USER: genes 1 Rotation |==|  0.71096 0.89773 0.64752 0.65983
USER: genes 2 Torsion [N]-CA--C-[N] |==|  0.19200
USER: genes 3 Torsion [C]-N--CA-[C] |==|  0.64745
USER: genes 4 Torsion [N]-CA--C-[N] |==|  0.98531
USER: genes 5 Torsion [C]-N--CA-[CB] |==|  0.46690
USER: genes 6 Torsion [N]-CA--C-[N] |==|  0.25784
USER: genes 7 Torsion [N]-CA--C-[OXT] |==|  0.87628
USER: genes 8 Torsion [N]-CA--CB-[OG] |==|  0.47781
USER: genes 9 Torsion [CA]-CB--OG-[HG] |==|  0.53598
USER: genes 10 Torsion [N]-CA--CB-[CG2] |==|  0.25336
USER: genes 11 Torsion [CA]-CB--CG1-[CD1] |==|  0.45950
USER: genes 12 Torsion [N]-C--CA-[N] |==|  0.92230
USER: genes 13 Torsion [C]-CA--CB-[CG] |==|  0.09599
USER: genes 14 Torsion [CA]-CB--CG-[CD1] |==|  0.19503
USER: genes 15 Torsion [C]-CA--N-[C] |==|  0.78536
USER: genes 16 Torsion [N]-C--CA-[N] |==|  0.44118
USER: genes 17 Torsion [C]-CA--CB-[CG] |==|  0.46907
USER: genes 18 Torsion [CA]-CB--CG-[OD1] |==|  0.00645
USER: genes 19 Torsion [C]-CA--N-[C] |==|  0.78740
USER: genes 20 Torsion [N]-C--CA-[N] |==|  0.64221
USER: genes 21 Torsion [C]-CA--CB-[CG] |==|  0.23417
USER: genes 22 Torsion [CA]-CB--CG-[CD2] |==|  0.01271
ROOT
ATOM      1  C   PHE C 305      11.403   6.776  -4.888  0.50 34.66 LIG 0.24  C 
ATOM      2 O    PHE C 305      10.296   6.871  -5.410  0.50 33.80 LIG-0.27  OA
ATOM      3  N   PRO C 306      12.286   5.824  -5.247  0.50 35.29 LIG-0.34  N 
ATOM      4  CA  PRO C 306      11.806   4.603  -5.876  0.50 35.79 LIG 0.18  C 
ATOM      5  CB  PRO C 306      12.970   4.206  -6.813  0.50 35.80 LIG 0.04  C 
ATOM      6  CG  PRO C 306      14.111   5.178  -6.495  0.50 35.25 LIG 0.02  C 
ATOM      7  CD  PRO C 306      13.756   5.838  -5.191  0.50 35.51 LIG 0.13  C 
ENDROOT
BRANCH 4 8
ATOM      8  C   PRO C 306      11.614   3.506  -4.827  0.50 36.50 LIG 0.24  C 
ATOM      9  N   ILE C 307      10.605   3.695  -3.959  0.50 37.01 LIG-0.35  N 
ATOM     10 H    ILE C 307      10.115   4.400  -3.920  0.50 37.01 LIG 0.16  HD
ATOM     11 O    PRO C 306      12.362   2.503  -4.818  0.50 36.74 LIG-0.27  OA
BRANCH 9 12
ATOM     12  CA  ILE C 307      10.275   2.652  -2.987  0.50 37.44 LIG 0.18  C 
BRANCH 12 13
ATOM     13  C   ILE C 307       8.797   2.257  -3.025  0.50 38.23 LIG 0.24  C 
ATOM     14  N   SER C 308       8.044   2.990  -3.841  0.50 38.91 LIG-0.34  N 
ATOM     15 H    SER C 308       8.328   3.709  -4.220  0.50 38.91 LIG 0.16  HD
ATOM     16 O    ILE C 307       8.363   1.316  -2.346  0.50 38.79 LIG-0.27  OA
BRANCH 14 17
ATOM     17  CA  SER C 308       6.663   2.660  -4.183  0.50 39.43 LIG 0.20  C 
BRANCH 17 18
ATOM     18  C   SER C 308       6.739   1.443  -5.108  0.50 39.77 LIG 0.24  C 
ATOM     19  N   PRO C 309       6.650   0.227  -4.540  0.50 40.03 LIG-0.34  N 
ATOM     20  CD  PRO C 309       6.134  -0.113  -3.204  0.50 39.83 LIG 0.13  C 
ATOM     21  CA  PRO C 309       7.053  -0.964  -5.290  0.50 40.09 LIG 0.19  C 
ATOM     22  CG  PRO C 309       6.644  -1.504  -2.992  0.50 40.19 LIG 0.02  C 
ATOM     23  CB  PRO C 309       6.657  -2.117  -4.359  0.50 40.09 LIG 0.04  C 
ATOM     24 O    SER C 308       6.861   1.595  -6.327  0.50 39.81 LIG-0.27  OA
BRANCH 21 25
ATOM     25  C   PRO C 309       6.364  -1.087  -6.649  0.50 40.04 LIG 0.20  C 
ATOM     26 OXT  PRO C 309       5.153  -0.883  -6.779  0.50 40.10 LIG-0.65  OA
ATOM     27 O    PRO C 309       7.003  -1.408  -7.653  0.50 40.34 LIG-0.65  OA
ENDBRANCH 21 25
ENDBRANCH 17 18
BRANCH 17 28
ATOM     28  CB  SER C 308       5.981   3.831  -4.894  0.50 39.49 LIG 0.20  C 
BRANCH 28 29
ATOM     29 OG   SER C 308       4.703   3.462  -5.392  0.50 39.70 LIG-0.40  OA
ATOM     30 HG   SER C 308       4.427   4.052  -5.923  0.50 39.70 LIG 0.21  HD
ENDBRANCH 28 29
ENDBRANCH 17 28
ENDBRANCH 14 17
ENDBRANCH 12 13
BRANCH 12 31
ATOM     31  CB  ILE C 307      10.615   3.070  -1.535  0.50 37.20 LIG 0.01  C 
ATOM     32  CG2 ILE C 307       9.410   3.746  -0.864  0.50 36.86 LIG 0.01  C 
BRANCH 31 33
ATOM     33  CG1 ILE C 307      11.130   1.847  -0.756  0.50 35.88 LIG 0.00  C 
ATOM     34  CD1 ILE C 307      11.819   2.154   0.551  0.50 32.01 LIG 0.01  C 
ENDBRANCH 31 33
ENDBRANCH 12 31
ENDBRANCH 9 12
ENDBRANCH 4 8
BRANCH 1 35
ATOM     35  CA  PHE C 305      11.829   7.788  -3.818  0.50 34.47 LIG 0.18  C 
BRANCH 35 36
ATOM     36  CB  PHE C 305      12.413   9.008  -4.547  0.50 34.49 LIG 0.07  C 
BRANCH 36 37
ATOM     37  CG  PHE C 305      11.751   9.341  -5.875  0.50 35.55 LIG-0.06  A 
ATOM     38  CD1 PHE C 305      10.456   9.854  -5.943  0.50 36.28 LIG 0.01  A 
ATOM     39  CE1 PHE C 305       9.870  10.156  -7.175  0.50 36.66 LIG 0.00  A 
ATOM     40  CZ  PHE C 305      10.577   9.932  -8.361  0.50 36.87 LIG 0.00  A 
ATOM     41  CE2 PHE C 305      11.861   9.419  -8.309  0.50 36.76 LIG 0.00  A 
ATOM     42  CD2 PHE C 305      12.441   9.116  -7.068  0.50 36.02 LIG 0.01  A 
ENDBRANCH 36 37
ENDBRANCH 35 36
BRANCH 35 43
ATOM     43  N   PHE C 305      12.824   7.291  -2.860  0.50 33.54 LIG-0.35  N 
ATOM     44 H    PHE C 305      13.627   7.566  -2.999  0.50 33.54 LIG 0.16  HD
ATOM     45  C   ASN C 304      12.468   6.478  -1.865  0.50 33.07 LIG 0.24  C 
ATOM     46 O    ASN C 304      11.419   5.823  -1.882  0.50 33.39 LIG-0.27  OA
BRANCH 45 47
ATOM     47  CA  ASN C 304      13.430   6.399  -0.672  0.50 32.40 LIG 0.18  C 
BRANCH 47 48
ATOM     48  CB  ASN C 304      14.647   5.499  -0.936  0.50 32.38 LIG 0.14  C 
BRANCH 48 49
ATOM     49  CG  ASN C 304      15.747   5.632   0.147  0.50 31.77 LIG 0.22  C 
ATOM     50 OD1  ASN C 304      15.595   6.360   1.121  0.50 27.48 LIG-0.27  OA
ATOM     51  ND2 ASN C 304      16.869   4.955  -0.061  0.50 32.56 LIG-0.37  N 
ATOM     52 21HD ASN C 304      17.521   5.020   0.497  0.50 32.56 LIG 0.16  HD
ATOM     53 22HD ASN C 304      16.946   4.452  -0.755  0.50 32.56 LIG 0.16  HD
ENDBRANCH 48 49
ENDBRANCH 47 48
BRANCH 47 54
ATOM     54  N   ASN C 304      12.740   5.915   0.500  0.50 31.56 LIG-0.34  N 
ATOM     55  C   LEU C 303      11.934   6.711   1.185  0.50 30.83 LIG 0.26  C 
ATOM     56 O    LEU C 303      11.569   7.798   0.760  0.50 29.02 LIG-0.27  OA
ATOM     57 H    ASN C 304      12.898   5.093   0.699  0.50 31.56 LIG 0.16  HD
BRANCH 55 58
ATOM     58  CA  LEU C 303      11.477   6.185   2.552  0.50 30.56 LIG 0.40  C 
ATOM     59  N   LEU C 303      10.003   6.233   2.752  0.50 30.88 LIG 0.61  N 
BRANCH 58 60
ATOM     60  CB  LEU C 303      11.998   4.763   2.796  0.50 30.80 LIG 0.06  C 
BRANCH 60 61
ATOM     61  CG  LEU C 303      13.416   4.606   3.358  0.50 30.92 LIG-0.02  C 
ATOM     62  CD2 LEU C 303      14.031   5.980   3.684  0.50 31.43 LIG 0.01  C 
ATOM     63  CD1 LEU C 303      14.299   3.805   2.417  0.50 30.50 LIG 0.01  C 
ENDBRANCH 60 61
ENDBRANCH 58 60
ENDBRANCH 55 58
ENDBRANCH 47 54
ENDBRANCH 45 47
ENDBRANCH 35 43
ENDBRANCH 1 35
TORSDOF 21
ENDMDL
MODEL 63
USER: ADFR SOLUTION from run 184
USER: SCORE 18.529610 LL:  -6.127 LR: -13.309 RR:   0.000 FEB:  -7.044
USER: RMSD 8.018055
USER: SEED 183
USER: STATUS no improvement in best in 12 clusters for 5 generations
USER: GENES 23
USER: genes 0 Translation |==|  0.42832 0.49160 0.23938
USER: genes 1 Rotation |==|  0.76054 0.71545 0.60771 0.85228
USER: genes 2 Torsion [N]-CA--C-[N] |==|  0.59919
USER: genes 3 Torsion [C]-N--CA-[C] |==|  0.83039
USER: genes 4 Torsion [N]-CA--C-[N] |==|  0.94774
USER: genes 5 Torsion [C]-N--CA-[CB] |==|  0.49461
USER: genes 6 Torsion [N]-CA--C-[N] |==|  0.36129
USER: genes 7 Torsion [N]-CA--C-[OXT] |==|  0.45467
USER: genes 8 Torsion [N]-CA--CB-[OG] |==|  0.94382
USER: genes 9 Torsion [CA]-CB--OG-[HG] |==|  0.87586
USER: genes 10 Torsion [N]-CA--CB-[CG2] |==|  0.20550
USER: genes 11 Torsion [CA]-CB--CG1-[CD1] |==|  0.11237
USER: genes 12 Torsion [N]-C--CA-[N] |==|  0.46439
USER: genes 13 Torsion [C]-CA--CB-[CG] |==|  0.72658
USER: genes 14 Torsion [CA]-CB--CG-[CD1] |==|  0.63719
USER: genes 15 Torsion [C]-CA--N-[C] |==|  0.80000
USER: genes 16 Torsion [N]-C--CA-[N] |==|  0.96548
USER: genes 17 Torsion [C]-CA--CB-[CG] |==|  0.27670
USER: genes 18 Torsion [CA]-CB--CG-[OD1] |==|  0.00303
USER: genes 19 Torsion [C]-CA--N-[C] |==|  0.79721
USER: genes 20 Torsion [N]-C--CA-[N] |==|  0.07429
USER: genes 21 Torsion [C]-CA--CB-[CG] |==|  0.86475
USER: genes 22 Torsion [CA]-CB--CG-[CD2] |==|  0.77432
ROOT
ATOM      1  C   PHE C 305      11.564   6.629  -5.552  0.50 34.66 LIG 0.24  C 
ATOM      2 O    PHE C 305      11.402   7.112  -6.668  0.50 33.80 LIG-0.27  OA
ATOM      3  N   PRO C 306      11.509   5.302  -5.328  0.50 35.29 LIG-0.34  N 
ATOM      4  CA  PRO C 306      10.783   4.450  -6.257  0.50 35.79 LIG 0.18  C 
ATOM      5  CB  PRO C 306      11.562   3.115  -6.197  0.50 35.80 LIG 0.04  C 
ATOM      6  CG  PRO C 306      12.594   3.285  -5.077  0.50 35.25 LIG 0.02  C 
ATOM      7  CD  PRO C 306      12.172   4.496  -4.291  0.50 35.51 LIG 0.13  C 
ENDROOT
BRANCH 4 8
ATOM      8  C   PRO C 306       9.356   4.217  -5.757  0.50 36.50 LIG 0.24  C 
ATOM      9  N   ILE C 307       8.841   3.000  -5.998  0.50 37.01 LIG-0.35  N 
ATOM     10 H    ILE C 307       9.229   2.383  -6.454  0.50 37.01 LIG 0.16  HD
ATOM     11 O    PRO C 306       8.743   5.126  -5.154  0.50 36.74 LIG-0.27  OA
BRANCH 9 12
ATOM     12  CA  ILE C 307       7.524   2.647  -5.467  0.50 37.44 LIG 0.18  C 
BRANCH 12 13
ATOM     13  C   ILE C 307       7.473   2.696  -3.938  0.50 38.23 LIG 0.24  C 
ATOM     14  N   SER C 308       8.659   2.654  -3.338  0.50 38.91 LIG-0.34  N 
ATOM     15 H    SER C 308       9.390   2.482  -3.758  0.50 38.91 LIG 0.16  HD
ATOM     16 O    ILE C 307       6.396   2.780  -3.331  0.50 38.79 LIG-0.27  OA
BRANCH 14 17
ATOM     17  CA  SER C 308       8.853   2.892  -1.910  0.50 39.43 LIG 0.20  C 
BRANCH 17 18
ATOM     18  C   SER C 308       8.393   4.330  -1.658  0.50 39.77 LIG 0.24  C 
ATOM     19  N   PRO C 309       7.531   4.536  -0.646  0.50 40.03 LIG-0.34  N 
ATOM     20  CD  PRO C 309       7.233   3.644   0.485  0.50 39.83 LIG 0.13  C 
ATOM     21  CA  PRO C 309       6.790   5.796  -0.560  0.50 40.09 LIG 0.19  C 
ATOM     22  CG  PRO C 309       5.959   4.208   1.031  0.50 40.19 LIG 0.02  C 
ATOM     23  CB  PRO C 309       6.060   5.683   0.785  0.50 40.09 LIG 0.04  C 
ATOM     24 O    SER C 308       8.821   5.252  -2.358  0.50 39.81 LIG-0.27  OA
BRANCH 21 25
ATOM     25  C   PRO C 309       7.688   7.032  -0.601  0.50 40.04 LIG 0.20  C 
ATOM     26 OXT  PRO C 309       7.230   8.154  -0.837  0.50 40.10 LIG-0.65  OA
ATOM     27 O    PRO C 309       8.902   6.936  -0.411  0.50 40.34 LIG-0.65  OA
ENDBRANCH 21 25
ENDBRANCH 17 18
BRANCH 17 28
ATOM     28  CB  SER C 308      10.324   2.725  -1.522  0.50 39.49 LIG 0.20  C 
BRANCH 28 29
ATOM     29 OG   SER C 308      11.031   1.956  -2.485  0.50 39.70 LIG-0.40  OA
ATOM     30 HG   SER C 308      10.573   1.286  -2.700  0.50 39.70 LIG 0.21  HD
ENDBRANCH 28 29
ENDBRANCH 17 28
ENDBRANCH 14 17
ENDBRANCH 12 13
BRANCH 12 31
ATOM     31  CB  ILE C 307       7.068   1.235  -5.910  0.50 37.20 LIG 0.01  C 
ATOM     32  CG2 ILE C 307       7.842   0.147  -5.150  0.50 36.86 LIG 0.01  C 
BRANCH 31 33
ATOM     33  CG1 ILE C 307       5.543   1.114  -5.747  0.50 35.88 LIG 0.00  C 
ATOM     34  CD1 ILE C 307       4.749   2.332  -6.150  0.50 32.01 LIG 0.01  C 
ENDBRANCH 31 33
ENDBRANCH 12 31
ENDBRANCH 9 12
ENDBRANCH 4 8
BRANCH 1 35
ATOM     35  CA  PHE C 305      11.879   7.547  -4.364  0.50 34.47 LIG 0.18  C 
BRANCH 35 36
ATOM     36  CB  PHE C 305      10.642   7.558  -3.453  0.50 34.49 LIG 0.07  C 
BRANCH 36 37
ATOM     37  CG  PHE C 305       9.719   8.752  -3.634  0.50 35.55 LIG-0.06  A 
ATOM     38  CD1 PHE C 305       9.269   9.505  -2.550  0.50 36.28 LIG 0.01  A 
ATOM     39  CE1 PHE C 305       8.423  10.601  -2.743  0.50 36.66 LIG 0.00  A 
ATOM     40  CZ  PHE C 305       8.007  10.947  -4.031  0.50 36.87 LIG 0.00  A 
ATOM     41  CE2 PHE C 305       8.441  10.207  -5.116  0.50 36.76 LIG 0.00  A 
ATOM     42  CD2 PHE C 305       9.288   9.106  -4.914  0.50 36.02 LIG 0.01  A 
ENDBRANCH 36 37
ENDBRANCH 35 36
BRANCH 35 43
ATOM     43  N   PHE C 305      12.212   8.930  -4.724  0.50 33.54 LIG-0.35  N 
ATOM     44 H    PHE C 305      11.605   9.509  -4.531  0.50 33.54 LIG 0.16  HD
ATOM     45  C   ASN C 304      13.376   9.225  -5.303  0.50 33.07 LIG 0.24  C 
ATOM     46 O    ASN C 304      14.066   8.377  -5.883  0.50 33.39 LIG-0.27  OA
BRANCH 45 47
ATOM     47  CA  ASN C 304      13.836  10.686  -5.206  0.50 32.40 LIG 0.18  C 
BRANCH 47 48
ATOM     48  CB  ASN C 304      15.046  10.878  -4.278  0.50 32.38 LIG 0.14  C 
BRANCH 48 49
ATOM     49  CG  ASN C 304      16.387  10.987  -5.046  0.50 31.77 LIG 0.22  C 
ATOM     50 OD1  ASN C 304      16.425  10.941  -6.270  0.50 27.48 LIG-0.27  OA
ATOM     51  ND2 ASN C 304      17.486  11.087  -4.308  0.50 32.56 LIG-0.37  N 
ATOM     52 21HD ASN C 304      18.257  11.121  -4.687  0.50 32.56 LIG 0.16  HD
ATOM     53 22HD ASN C 304      17.427  11.117  -3.450  0.50 32.56 LIG 0.16  HD
ENDBRANCH 48 49
ENDBRANCH 47 48
BRANCH 47 54
ATOM     54  N   ASN C 304      12.757  11.523  -4.741  0.50 31.56 LIG-0.34  N 
ATOM     55  C   LEU C 303      11.738  11.815  -5.536  0.50 30.83 LIG 0.26  C 
ATOM     56 O    LEU C 303      11.549  11.238  -6.598  0.50 29.02 LIG-0.27  OA
ATOM     57 H    ASN C 304      12.837  11.801  -3.931  0.50 31.56 LIG 0.16  HD
BRANCH 55 58
ATOM     58  CA  LEU C 303      10.800  12.923  -5.042  0.50 30.56 LIG 0.40  C 
ATOM     59  N   LEU C 303      11.455  13.903  -4.133  0.50 30.88 LIG 0.61  N 
BRANCH 58 60
ATOM     60  CB  LEU C 303      10.140  13.652  -6.219  0.50 30.80 LIG 0.06  C 
BRANCH 60 61
ATOM     61  CG  LEU C 303      11.042  14.127  -7.364  0.50 30.92 LIG-0.02  C 
ATOM     62  CD2 LEU C 303      11.727  15.459  -7.004  0.50 31.43 LIG 0.01  C 
ATOM     63  CD1 LEU C 303      10.274  14.226  -8.670  0.50 30.50 LIG 0.01  C 
ENDBRANCH 60 61
ENDBRANCH 58 60
ENDBRANCH 55 58
ENDBRANCH 47 54
ENDBRANCH 45 47
ENDBRANCH 35 43
ENDBRANCH 1 35
TORSDOF 21
ENDMDL
MODEL 64
USER: ADFR SOLUTION from run 167
USER: SCORE 18.130804 LL:  -6.744 LR: -13.309 RR:   0.000 FEB:  -7.045
USER: RMSD 9.737426
USER: SEED 166
USER: STATUS no improvement in best in 14 clusters for 5 generations
USER: GENES 23
USER: genes 0 Translation |==|  0.64118 0.56399 0.63954
USER: genes 1 Rotation |==|  0.40313 0.73170 0.36497 0.91073
USER: genes 2 Torsion [N]-CA--C-[N] |==|  0.86052
USER: genes 3 Torsion [C]-N--CA-[C] |==|  0.63488
USER: genes 4 Torsion [N]-CA--C-[N] |==|  0.21109
USER: genes 5 Torsion [C]-N--CA-[CB] |==|  0.88889
USER: genes 6 Torsion [N]-CA--C-[N] |==|  0.36163
USER: genes 7 Torsion [N]-CA--C-[OXT] |==|  0.43570
USER: genes 8 Torsion [N]-CA--CB-[OG] |==|  0.41486
USER: genes 9 Torsion [CA]-CB--OG-[HG] |==|  0.98025
USER: genes 10 Torsion [N]-CA--CB-[CG2] |==|  0.51713
USER: genes 11 Torsion [CA]-CB--CG1-[CD1] |==|  0.50539
USER: genes 12 Torsion [N]-C--CA-[N] |==|  0.13060
USER: genes 13 Torsion [C]-CA--CB-[CG] |==|  0.44507
USER: genes 14 Torsion [CA]-CB--CG-[CD1] |==|  0.67182
USER: genes 15 Torsion [C]-CA--N-[C] |==|  0.68603
USER: genes 16 Torsion [N]-C--CA-[N] |==|  0.66430
USER: genes 17 Torsion [C]-CA--CB-[CG] |==|  0.31066
USER: genes 18 Torsion [CA]-CB--CG-[OD1] |==|  0.11829
USER: genes 19 Torsion [C]-CA--N-[C] |==|  0.14638
USER: genes 20 Torsion [N]-C--CA-[N] |==|  0.88910
USER: genes 21 Torsion [C]-CA--CB-[CG] |==|  0.17217
USER: genes 22 Torsion [CA]-CB--CG-[CD2] |==|  0.58819
ROOT
ATOM      1  C   PHE C 305      16.992   8.367   2.552  0.50 34.66 LIG 0.24  C 
ATOM      2 O    PHE C 305      16.631   7.213   2.342  0.50 33.80 LIG-0.27  OA
ATOM      3  N   PRO C 306      17.051   8.886   3.794  0.50 35.29 LIG-0.34  N 
ATOM      4  CA  PRO C 306      16.242   8.303   4.852  0.50 35.79 LIG 0.18  C 
ATOM      5  CB  PRO C 306      17.098   8.529   6.120  0.50 35.80 LIG 0.04  C 
ATOM      6  CG  PRO C 306      18.279   9.399   5.674  0.50 35.25 LIG 0.02  C 
ATOM      7  CD  PRO C 306      17.913   9.953   4.325  0.50 35.51 LIG 0.13  C 
ENDROOT
BRANCH 4 8
ATOM      8  C   PRO C 306      14.925   9.068   4.996  0.50 36.50 LIG 0.24  C 
ATOM      9  N   ILE C 307      15.031  10.404   5.095  0.50 37.01 LIG-0.35  N 
ATOM     10 H    ILE C 307      15.773  10.836   5.143  0.50 37.01 LIG 0.16  HD
ATOM     11 O    PRO C 306      13.835   8.453   5.003  0.50 36.74 LIG-0.27  OA
BRANCH 9 12
ATOM     12  CA  ILE C 307      13.824  11.231   5.130  0.50 37.44 LIG 0.18  C 
BRANCH 12 13
ATOM     13  C   ILE C 307      13.889  12.409   4.155  0.50 38.23 LIG 0.24  C 
ATOM     14  N   SER C 308      13.700  12.089   2.878  0.50 38.91 LIG-0.34  N 
ATOM     15 H    SER C 308      13.672  11.275   2.599  0.50 38.91 LIG 0.16  HD
ATOM     16 O    ILE C 307      14.094  13.565   4.553  0.50 38.79 LIG-0.27  OA
BRANCH 14 17
ATOM     17  CA  SER C 308      13.520  13.073   1.815  0.50 39.43 LIG 0.20  C 
BRANCH 17 18
ATOM     18  C   SER C 308      14.923  13.572   1.463  0.50 39.77 LIG 0.24  C 
ATOM     19  N   PRO C 309      15.269  13.582   0.163  0.50 40.03 LIG-0.34  N 
ATOM     20  CD  PRO C 309      14.383  13.522  -1.010  0.50 39.83 LIG 0.13  C 
ATOM     21  CA  PRO C 309      16.677  13.710  -0.220  0.50 40.09 LIG 0.19  C 
ATOM     22  CG  PRO C 309      15.322  13.173  -2.122  0.50 40.19 LIG 0.02  C 
ATOM     23  CB  PRO C 309      16.615  13.830  -1.748  0.50 40.09 LIG 0.04  C 
ATOM     24 O    SER C 308      15.686  13.961   2.352  0.50 39.81 LIG-0.27  OA
BRANCH 21 25
ATOM     25  C   PRO C 309      17.368  14.922   0.404  0.50 40.04 LIG 0.20  C 
ATOM     26 OXT  PRO C 309      18.593  14.963   0.547  0.50 40.10 LIG-0.65  OA
ATOM     27 O    PRO C 309      16.711  15.890   0.795  0.50 40.34 LIG-0.65  OA
ENDBRANCH 21 25
ENDBRANCH 17 18
BRANCH 17 28
ATOM     28  CB  SER C 308      12.642  14.235   2.287  0.50 39.49 LIG 0.20  C 
BRANCH 28 29
ATOM     29 OG   SER C 308      12.993  15.448   1.638  0.50 39.70 LIG-0.40  OA
ATOM     30 HG   SER C 308      13.687  15.331   1.179  0.50 39.70 LIG 0.21  HD
ENDBRANCH 28 29
ENDBRANCH 17 28
ENDBRANCH 14 17
ENDBRANCH 12 13
BRANCH 12 31
ATOM     31  CB  ILE C 307      13.540  11.800   6.541  0.50 37.20 LIG 0.01  C 
ATOM     32  CG2 ILE C 307      12.190  12.532   6.575  0.50 36.86 LIG 0.01  C 
BRANCH 31 33
ATOM     33  CG1 ILE C 307      13.635  10.668   7.580  0.50 35.88 LIG 0.00  C 
ATOM     34  CD1 ILE C 307      13.336  11.068   9.004  0.50 32.01 LIG 0.01  C 
ENDBRANCH 31 33
ENDBRANCH 12 31
ENDBRANCH 9 12
ENDBRANCH 4 8
BRANCH 1 35
ATOM     35  CA  PHE C 305      17.432   9.252   1.379  0.50 34.47 LIG 0.18  C 
BRANCH 35 36
ATOM     36  CB  PHE C 305      17.556   8.348   0.143  0.50 34.49 LIG 0.07  C 
BRANCH 36 37
ATOM     37  CG  PHE C 305      17.518   9.073  -1.192  0.50 35.55 LIG-0.06  A 
ATOM     38  CD1 PHE C 305      16.517   8.830  -2.132  0.50 36.28 LIG 0.01  A 
ATOM     39  CE1 PHE C 305      16.502   9.513  -3.352  0.50 36.66 LIG 0.00  A 
ATOM     40  CZ  PHE C 305      17.504  10.441  -3.649  0.50 36.87 LIG 0.00  A 
ATOM     41  CE2 PHE C 305      18.506  10.688  -2.728  0.50 36.76 LIG 0.00  A 
ATOM     42  CD2 PHE C 305      18.516   9.997  -1.506  0.50 36.02 LIG 0.01  A 
ENDBRANCH 36 37
ENDBRANCH 35 36
BRANCH 35 43
ATOM     43  N   PHE C 305      18.704   9.955   1.580  0.50 33.54 LIG-0.35  N 
ATOM     44 H    PHE C 305      19.396   9.444   1.618  0.50 33.54 LIG 0.16  HD
ATOM     45  C   ASN C 304      18.743  11.283   1.689  0.50 33.07 LIG 0.24  C 
ATOM     46 O    ASN C 304      17.748  11.957   1.984  0.50 33.39 LIG-0.27  OA
BRANCH 45 47
ATOM     47  CA  ASN C 304      20.097  11.951   1.418  0.50 32.40 LIG 0.18  C 
BRANCH 47 48
ATOM     48  CB  ASN C 304      21.196  10.951   1.025  0.50 32.38 LIG 0.14  C 
BRANCH 48 49
ATOM     49  CG  ASN C 304      21.651  11.097  -0.449  0.50 31.77 LIG 0.22  C 
ATOM     50 OD1  ASN C 304      21.830  12.200  -0.952  0.50 27.48 LIG-0.27  OA
ATOM     51  ND2 ASN C 304      21.789   9.973  -1.140  0.50 32.56 LIG-0.37  N 
ATOM     52 21HD ASN C 304      22.012  10.003  -1.971  0.50 32.56 LIG 0.16  HD
ATOM     53 22HD ASN C 304      21.657   9.214  -0.758  0.50 32.56 LIG 0.16  HD
ENDBRANCH 48 49
ENDBRANCH 47 48
BRANCH 47 54
ATOM     54  N   ASN C 304      20.535  12.691   2.577  0.50 31.56 LIG-0.34  N 
ATOM     55  C   LEU C 303      20.593  12.110   3.765  0.50 30.83 LIG 0.26  C 
ATOM     56 O    LEU C 303      20.493  10.900   3.910  0.50 29.02 LIG-0.27  OA
ATOM     57 H    ASN C 304      20.745  13.511   2.425  0.50 31.56 LIG 0.16  HD
BRANCH 55 58
ATOM     58  CA  LEU C 303      20.801  13.050   4.960  0.50 30.56 LIG 0.40  C 
ATOM     59  N   LEU C 303      21.766  14.152   4.695  0.50 30.88 LIG 0.61  N 
BRANCH 58 60
ATOM     60  CB  LEU C 303      19.465  13.623   5.449  0.50 30.80 LIG 0.06  C 
BRANCH 60 61
ATOM     61  CG  LEU C 303      18.413  12.638   5.974  0.50 30.92 LIG-0.02  C 
ATOM     62  CD2 LEU C 303      16.991  13.151   5.684  0.50 31.43 LIG 0.01  C 
ATOM     63  CD1 LEU C 303      18.615  12.348   7.451  0.50 30.50 LIG 0.01  C 
ENDBRANCH 60 61
ENDBRANCH 58 60
ENDBRANCH 55 58
ENDBRANCH 47 54
ENDBRANCH 45 47
ENDBRANCH 35 43
ENDBRANCH 1 35
TORSDOF 21
ENDMDL
MODEL 65
USER: ADFR SOLUTION from run 1
USER: SCORE 16.571595 LL:  -5.358 LR: -13.307 RR:   0.000 FEB:  -7.043
USER: RMSD 10.057316
USER: SEED 33496
USER: STATUS no improvement in best in 2 clusters for 5 generations
USER: GENES 23
USER: genes 0 Translation |==|  0.73819 0.66595 0.71804
USER: genes 1 Rotation |==|  0.14030 0.55230 0.47945 0.84273
USER: genes 2 Torsion [N]-CA--C-[N] |==|  0.96664
USER: genes 3 Torsion [C]-N--CA-[C] |==|  0.22222
USER: genes 4 Torsion [N]-CA--C-[N] |==|  0.89049
USER: genes 5 Torsion [C]-N--CA-[CB] |==|  0.49363
USER: genes 6 Torsion [N]-CA--C-[N] |==|  0.37330
USER: genes 7 Torsion [N]-CA--C-[OXT] |==|  0.81226
USER: genes 8 Torsion [N]-CA--CB-[OG] |==|  0.29159
USER: genes 9 Torsion [CA]-CB--OG-[HG] |==|  0.15514
USER: genes 10 Torsion [N]-CA--CB-[CG2] |==|  0.41641
USER: genes 11 Torsion [CA]-CB--CG1-[CD1] |==|  0.76068
USER: genes 12 Torsion [N]-C--CA-[N] |==|  0.88557
USER: genes 13 Torsion [C]-CA--CB-[CG] |==|  0.49314
USER: genes 14 Torsion [CA]-CB--CG-[CD1] |==|  0.27767
USER: genes 15 Torsion [C]-CA--N-[C] |==|  0.79007
USER: genes 16 Torsion [N]-C--CA-[N] |==|  0.15840
USER: genes 17 Torsion [C]-CA--CB-[CG] |==|  0.80977
USER: genes 18 Torsion [CA]-CB--CG-[OD1] |==|  0.54671
USER: genes 19 Torsion [C]-CA--N-[C] |==|  0.73413
USER: genes 20 Torsion [N]-C--CA-[N] |==|  0.09037
USER: genes 21 Torsion [C]-CA--CB-[CG] |==|  0.76501
USER: genes 22 Torsion [CA]-CB--CG-[CD2] |==|  0.13728
ROOT
ATOM      1  C   PHE C 305      19.466  10.814   4.141  0.50 34.66 LIG 0.24  C 
ATOM      2 O    PHE C 305      20.134  10.218   4.981  0.50 33.80 LIG-0.27  OA
ATOM      3  N   PRO C 306      18.549  11.742   4.480  0.50 35.29 LIG-0.34  N 
ATOM      4  CA  PRO C 306      17.967  11.719   5.812  0.50 35.79 LIG 0.18  C 
ATOM      5  CB  PRO C 306      17.683  13.211   6.101  0.50 35.80 LIG 0.04  C 
ATOM      6  CG  PRO C 306      17.986  13.953   4.794  0.50 35.25 LIG 0.02  C 
ATOM      7  CD  PRO C 306      18.065  12.904   3.720  0.50 35.51 LIG 0.13  C 
ENDROOT
BRANCH 4 8
ATOM      8  C   PRO C 306      16.643  10.952   5.799  0.50 36.50 LIG 0.24  C 
ATOM      9  N   ILE C 307      16.139  10.673   4.586  0.50 37.01 LIG-0.35  N 
ATOM     10 H    ILE C 307      16.472  10.942   3.841  0.50 37.01 LIG 0.16  HD
ATOM     11 O    PRO C 306      16.100  10.612   6.875  0.50 36.74 LIG-0.27  OA
BRANCH 9 12
ATOM     12  CA  ILE C 307      14.932   9.852   4.469  0.50 37.44 LIG 0.18  C 
BRANCH 12 13
ATOM     13  C   ILE C 307      13.651  10.648   4.728  0.50 38.23 LIG 0.24  C 
ATOM     14  N   SER C 308      13.735  11.536   5.715  0.50 38.91 LIG-0.34  N 
ATOM     15 H    SER C 308      14.406  11.575   6.253  0.50 38.91 LIG 0.16  HD
ATOM     16 O    ILE C 307      12.631  10.467   4.048  0.50 38.79 LIG-0.27  OA
BRANCH 14 17
ATOM     17  CA  SER C 308      12.707  12.534   5.996  0.50 39.43 LIG 0.20  C 
BRANCH 17 18
ATOM     18  C   SER C 308      12.635  13.422   4.751  0.50 39.77 LIG 0.24  C 
ATOM     19  N   PRO C 309      11.413  13.722   4.274  0.50 40.03 LIG-0.34  N 
ATOM     20  CD  PRO C 309      10.120  13.620   4.969  0.50 39.83 LIG 0.13  C 
ATOM     21  CA  PRO C 309      11.267  14.262   2.921  0.50 40.09 LIG 0.19  C 
ATOM     22  CG  PRO C 309       9.131  13.699   3.849  0.50 40.19 LIG 0.02  C 
ATOM     23  CB  PRO C 309       9.772  14.598   2.836  0.50 40.09 LIG 0.04  C 
ATOM     24 O    SER C 308      13.669  13.850   4.232  0.50 39.81 LIG-0.27  OA
BRANCH 21 25
ATOM     25  C   PRO C 309      12.129  15.498   2.665  0.50 40.04 LIG 0.20  C 
ATOM     26 OXT  PRO C 309      11.907  16.569   3.238  0.50 40.10 LIG-0.65  OA
ATOM     27 O    PRO C 309      13.066  15.459   1.865  0.50 40.34 LIG-0.65  OA
ENDBRANCH 21 25
ENDBRANCH 17 18
BRANCH 17 28
ATOM     28  CB  SER C 308      13.073  13.366   7.227  0.50 39.49 LIG 0.20  C 
BRANCH 28 29
ATOM     29 OG   SER C 308      13.519  14.665   6.862  0.50 39.70 LIG-0.40  OA
ATOM     30 HG   SER C 308      12.931  15.042   6.396  0.50 39.70 LIG 0.21  HD
ENDBRANCH 28 29
ENDBRANCH 17 28
ENDBRANCH 14 17
ENDBRANCH 12 13
BRANCH 12 31
ATOM     31  CB  ILE C 307      14.944   8.645   5.438  0.50 37.20 LIG 0.01  C 
ATOM     32  CG2 ILE C 307      13.516   8.265   5.857  0.50 36.86 LIG 0.01  C 
BRANCH 31 33
ATOM     33  CG1 ILE C 307      15.712   7.478   4.794  0.50 35.88 LIG 0.00  C 
ATOM     34  CD1 ILE C 307      14.895   6.582   3.896  0.50 32.01 LIG 0.01  C 
ENDBRANCH 31 33
ENDBRANCH 12 31
ENDBRANCH 9 12
ENDBRANCH 4 8
BRANCH 1 35
ATOM     35  CA  PHE C 305      19.693  10.537   2.650  0.50 34.47 LIG 0.18  C 
BRANCH 35 36
ATOM     36  CB  PHE C 305      20.604  11.651   2.111  0.50 34.49 LIG 0.07  C 
BRANCH 36 37
ATOM     37  CG  PHE C 305      20.993  11.513   0.648  0.50 35.55 LIG-0.06  A 
ATOM     38  CD1 PHE C 305      20.350  12.238  -0.355  0.50 36.28 LIG 0.01  A 
ATOM     39  CE1 PHE C 305      20.728  12.098  -1.693  0.50 36.66 LIG 0.00  A 
ATOM     40  CZ  PHE C 305      21.751  11.212  -2.043  0.50 36.87 LIG 0.00  A 
ATOM     41  CE2 PHE C 305      22.395  10.482  -1.060  0.50 36.76 LIG 0.00  A 
ATOM     42  CD2 PHE C 305      22.008  10.627   0.281  0.50 36.02 LIG 0.01  A 
ENDBRANCH 36 37
ENDBRANCH 35 36
BRANCH 35 43
ATOM     43  N   PHE C 305      18.472  10.490   1.837  0.50 33.54 LIG-0.35  N 
ATOM     44 H    PHE C 305      18.338  11.186   1.350  0.50 33.54 LIG 0.16  HD
ATOM     45  C   ASN C 304      17.662   9.432   1.880  0.50 33.07 LIG 0.24  C 
ATOM     46 O    ASN C 304      17.671   8.623   2.816  0.50 33.39 LIG-0.27  OA
BRANCH 45 47
ATOM     47  CA  ASN C 304      16.709   9.255   0.691  0.50 32.40 LIG 0.18  C 
BRANCH 47 48
ATOM     48  CB  ASN C 304      15.824   8.004   0.808  0.50 32.38 LIG 0.14  C 
BRANCH 48 49
ATOM     49  CG  ASN C 304      16.622   6.682   0.678  0.50 31.77 LIG 0.22  C 
ATOM     50 OD1  ASN C 304      16.058   5.619   0.444  0.50 27.48 LIG-0.27  OA
ATOM     51  ND2 ASN C 304      17.932   6.758   0.879  0.50 32.56 LIG-0.37  N 
ATOM     52 21HD ASN C 304      18.414   6.046   0.847  0.50 32.56 LIG 0.16  HD
ATOM     53 22HD ASN C 304      18.299   7.519   1.041  0.50 32.56 LIG 0.16  HD
ENDBRANCH 48 49
ENDBRANCH 47 48
BRANCH 47 54
ATOM     54  N   ASN C 304      17.452   9.184  -0.544  0.50 31.56 LIG-0.34  N 
ATOM     55  C   LEU C 303      17.629  10.266  -1.287  0.50 30.83 LIG 0.26  C 
ATOM     56 O    LEU C 303      17.371  11.390  -0.882  0.50 29.02 LIG-0.27  OA
ATOM     57 H    ASN C 304      17.756   8.404  -0.739  0.50 31.56 LIG 0.16  HD
BRANCH 55 58
ATOM     58  CA  LEU C 303      18.187  10.024  -2.696  0.50 30.56 LIG 0.40  C 
ATOM     59  N   LEU C 303      17.754   8.734  -3.300  0.50 30.88 LIG 0.61  N 
BRANCH 58 60
ATOM     60  CB  LEU C 303      17.841  11.189  -3.632  0.50 30.80 LIG 0.06  C 
BRANCH 60 61
ATOM     61  CG  LEU C 303      16.471  11.171  -4.322  0.50 30.92 LIG-0.02  C 
ATOM     62  CD2 LEU C 303      15.349  10.904  -3.302  0.50 31.43 LIG 0.01  C 
ATOM     63  CD1 LEU C 303      16.440  10.173  -5.466  0.50 30.50 LIG 0.01  C 
ENDBRANCH 60 61
ENDBRANCH 58 60
ENDBRANCH 55 58
ENDBRANCH 47 54
ENDBRANCH 45 47
ENDBRANCH 35 43
ENDBRANCH 1 35
TORSDOF 21
ENDMDL
MODEL 66
USER: ADFR SOLUTION from run 58
USER: SCORE 17.798255 LL:  -5.958 LR: -13.303 RR:   0.000 FEB:  -7.039
USER: RMSD 7.126196
USER: SEED 57
USER: STATUS no improvement in best in 27 clusters for 5 generations
USER: GENES 23
USER: genes 0 Translation |==|  0.36849 0.47581 0.29515
USER: genes 1 Rotation |==|  0.65854 0.97173 0.45672 0.52150
USER: genes 2 Torsion [N]-CA--C-[N] |==|  0.09458
USER: genes 3 Torsion [C]-N--CA-[C] |==|  0.77687
USER: genes 4 Torsion [N]-CA--C-[N] |==|  0.31928
USER: genes 5 Torsion [C]-N--CA-[CB] |==|  0.81027
USER: genes 6 Torsion [N]-CA--C-[N] |==|  0.10669
USER: genes 7 Torsion [N]-CA--C-[OXT] |==|  0.88186
USER: genes 8 Torsion [N]-CA--CB-[OG] |==|  0.92169
USER: genes 9 Torsion [CA]-CB--OG-[HG] |==|  0.98717
USER: genes 10 Torsion [N]-CA--CB-[CG2] |==|  0.38643
USER: genes 11 Torsion [CA]-CB--CG1-[CD1] |==|  0.19572
USER: genes 12 Torsion [N]-C--CA-[N] |==|  0.96773
USER: genes 13 Torsion [C]-CA--CB-[CG] |==|  0.58439
USER: genes 14 Torsion [CA]-CB--CG-[CD1] |==|  0.24824
USER: genes 15 Torsion [C]-CA--N-[C] |==|  0.65147
USER: genes 16 Torsion [N]-C--CA-[N] |==|  0.47222
USER: genes 17 Torsion [C]-CA--CB-[CG] |==|  0.24930
USER: genes 18 Torsion [CA]-CB--CG-[OD1] |==|  0.62985
USER: genes 19 Torsion [C]-CA--N-[C] |==|  0.54293
USER: genes 20 Torsion [N]-C--CA-[N] |==|  0.72732
USER: genes 21 Torsion [C]-CA--CB-[CG] |==|  0.25280
USER: genes 22 Torsion [CA]-CB--CG-[CD2] |==|  0.92311
ROOT
ATOM      1  C   PHE C 305      10.039   6.250  -4.422  0.50 34.66 LIG 0.24  C 
ATOM      2 O    PHE C 305       8.936   6.075  -3.913  0.50 33.80 LIG-0.27  OA
ATOM      3  N   PRO C 306      10.770   5.234  -4.921  0.50 35.29 LIG-0.34  N 
ATOM      4  CA  PRO C 306      10.531   3.881  -4.444  0.50 35.79 LIG 0.18  C 
ATOM      5  CB  PRO C 306      10.860   3.007  -5.677  0.50 35.80 LIG 0.04  C 
ATOM      6  CG  PRO C 306      11.435   3.966  -6.725  0.50 35.25 LIG 0.02  C 
ATOM      7  CD  PRO C 306      11.772   5.239  -5.997  0.50 35.51 LIG 0.13  C 
ENDROOT
BRANCH 4 8
ATOM      8  C   PRO C 306      11.505   3.537  -3.315  0.50 36.50 LIG 0.24  C 
ATOM      9  N   ILE C 307      11.847   4.554  -2.505  0.50 37.01 LIG-0.35  N 
ATOM     10 H    ILE C 307      11.607   5.372  -2.615  0.50 37.01 LIG 0.16  HD
ATOM     11 O    PRO C 306      11.926   2.367  -3.179  0.50 36.74 LIG-0.27  OA
BRANCH 9 12
ATOM     12  CA  ILE C 307      12.688   4.302  -1.334  0.50 37.44 LIG 0.18  C 
BRANCH 12 13
ATOM     13  C   ILE C 307      11.898   3.740  -0.151  0.50 38.23 LIG 0.24  C 
ATOM     14  N   SER C 308      12.226   2.501   0.203  0.50 38.91 LIG-0.34  N 
ATOM     15 H    SER C 308      12.745   2.002  -0.268  0.50 38.91 LIG 0.16  HD
ATOM     16 O    ILE C 307      11.030   4.414   0.423  0.50 38.79 LIG-0.27  OA
BRANCH 14 17
ATOM     17  CA  SER C 308      11.746   1.853   1.420  0.50 39.43 LIG 0.20  C 
BRANCH 17 18
ATOM     18  C   SER C 308      10.224   2.013   1.409  0.50 39.77 LIG 0.24  C 
ATOM     19  N   PRO C 309       9.598   1.896   0.225  0.50 40.03 LIG-0.34  N 
ATOM     20  CD  PRO C 309      10.109   1.286  -1.014  0.50 39.83 LIG 0.13  C 
ATOM     21  CA  PRO C 309       8.220   2.369   0.074  0.50 40.09 LIG 0.19  C 
ATOM     22  CG  PRO C 309       9.161   1.796  -2.054  0.50 40.19 LIG 0.02  C 
ATOM     23  CB  PRO C 309       7.847   1.919  -1.344  0.50 40.09 LIG 0.04  C 
ATOM     24 O    SER C 308       9.613   2.224   2.461  0.50 39.81 LIG-0.27  OA
BRANCH 21 25
ATOM     25  C   PRO C 309       7.262   1.785   1.112  0.50 40.04 LIG 0.20  C 
ATOM     26 OXT  PRO C 309       7.302   0.593   1.428  0.50 40.10 LIG-0.65  OA
ATOM     27 O    PRO C 309       6.410   2.494   1.652  0.50 40.34 LIG-0.65  OA
ENDBRANCH 21 25
ENDBRANCH 17 18
BRANCH 17 28
ATOM     28  CB  SER C 308      12.345   2.513   2.665  0.50 39.49 LIG 0.20  C 
BRANCH 28 29
ATOM     29 OG   SER C 308      13.615   3.086   2.388  0.50 39.70 LIG-0.40  OA
ATOM     30 HG   SER C 308      13.839   2.904   1.599  0.50 39.70 LIG 0.21  HD
ENDBRANCH 28 29
ENDBRANCH 17 28
ENDBRANCH 14 17
ENDBRANCH 12 13
BRANCH 12 31
ATOM     31  CB  ILE C 307      13.422   5.577  -0.851  0.50 37.20 LIG 0.01  C 
ATOM     32  CG2 ILE C 307      13.420   5.661   0.683  0.50 36.86 LIG 0.01  C 
BRANCH 31 33
ATOM     33  CG1 ILE C 307      14.837   5.614  -1.454  0.50 35.88 LIG 0.00  C 
ATOM     34  CD1 ILE C 307      14.902   5.880  -2.938  0.50 32.01 LIG 0.01  C 
ENDBRANCH 31 33
ENDBRANCH 12 31
ENDBRANCH 9 12
ENDBRANCH 4 8
BRANCH 1 35
ATOM     35  CA  PHE C 305      10.605   7.671  -4.540  0.50 34.47 LIG 0.18  C 
BRANCH 35 36
ATOM     36  CB  PHE C 305       9.750   8.420  -5.574  0.50 34.49 LIG 0.07  C 
BRANCH 36 37
ATOM     37  CG  PHE C 305      10.485   9.493  -6.361  0.50 35.55 LIG-0.06  A 
ATOM     38  CD1 PHE C 305      11.143   9.208  -7.557  0.50 36.28 LIG 0.01  A 
ATOM     39  CE1 PHE C 305      11.809  10.213  -8.264  0.50 36.66 LIG 0.00  A 
ATOM     40  CZ  PHE C 305      11.834  11.520  -7.769  0.50 36.87 LIG 0.00  A 
ATOM     41  CE2 PHE C 305      11.190  11.817  -6.581  0.50 36.76 LIG 0.00  A 
ATOM     42  CD2 PHE C 305      10.525  10.802  -5.876  0.50 36.02 LIG 0.01  A 
ENDBRANCH 36 37
ENDBRANCH 35 36
BRANCH 35 43
ATOM     43  N   PHE C 305      12.012   7.742  -4.950  0.50 33.54 LIG-0.35  N 
ATOM     44 H    PHE C 305      12.196   7.328  -5.682  0.50 33.54 LIG 0.16  HD
ATOM     45  C   ASN C 304      12.905   8.408  -4.218  0.50 33.07 LIG 0.24  C 
ATOM     46 O    ASN C 304      12.717   8.687  -3.028  0.50 33.39 LIG-0.27  OA
BRANCH 45 47
ATOM     47  CA  ASN C 304      14.195   8.831  -4.934  0.50 32.40 LIG 0.18  C 
BRANCH 47 48
ATOM     48  CB  ASN C 304      15.088   7.642  -5.322  0.50 32.38 LIG 0.14  C 
BRANCH 48 49
ATOM     49  CG  ASN C 304      14.768   7.078  -6.730  0.50 31.77 LIG 0.22  C 
ATOM     50 OD1  ASN C 304      14.647   5.873  -6.919  0.50 27.48 LIG-0.27  OA
ATOM     51  ND2 ASN C 304      14.680   7.962  -7.716  0.50 32.56 LIG-0.37  N 
ATOM     52 21HD ASN C 304      14.533   7.695  -8.521  0.50 32.56 LIG 0.16  HD
ATOM     53 22HD ASN C 304      14.769   8.801  -7.552  0.50 32.56 LIG 0.16  HD
ENDBRANCH 48 49
ENDBRANCH 47 48
BRANCH 47 54
ATOM     54  N   ASN C 304      14.958   9.733  -4.105  0.50 31.56 LIG-0.34  N 
ATOM     55  C   LEU C 303      15.938  10.459  -4.623  0.50 30.83 LIG 0.26  C 
ATOM     56 O    LEU C 303      16.107  10.568  -5.829  0.50 29.02 LIG-0.27  OA
ATOM     57 H    ASN C 304      14.723   9.752  -3.278  0.50 31.56 LIG 0.16  HD
BRANCH 55 58
ATOM     58  CA  LEU C 303      16.852  11.165  -3.613  0.50 30.56 LIG 0.40  C 
ATOM     59  N   LEU C 303      16.503  12.594  -3.384  0.50 30.88 LIG 0.61  N 
BRANCH 58 60
ATOM     60  CB  LEU C 303      16.886  10.409  -2.279  0.50 30.80 LIG 0.06  C 
BRANCH 60 61
ATOM     61  CG  LEU C 303      17.971   9.341  -2.088  0.50 30.92 LIG-0.02  C 
ATOM     62  CD2 LEU C 303      18.389   8.739  -3.442  0.50 31.43 LIG 0.01  C 
ATOM     63  CD1 LEU C 303      17.526   8.269  -1.110  0.50 30.50 LIG 0.01  C 
ENDBRANCH 60 61
ENDBRANCH 58 60
ENDBRANCH 55 58
ENDBRANCH 47 54
ENDBRANCH 45 47
ENDBRANCH 35 43
ENDBRANCH 1 35
TORSDOF 21
ENDMDL
MODEL 67
USER: ADFR SOLUTION from run 102
USER: SCORE 17.560801 LL:  -5.713 LR: -13.296 RR:   0.000 FEB:  -7.032
USER: RMSD 9.642656
USER: SEED 101
USER: STATUS searching
USER: GENES 23
USER: genes 0 Translation |==|  0.42160 0.35152 0.34385
USER: genes 1 Rotation |==|  0.74382 0.18277 0.40088 0.78300
USER: genes 2 Torsion [N]-CA--C-[N] |==|  0.81884
USER: genes 3 Torsion [C]-N--CA-[C] |==|  0.51239
USER: genes 4 Torsion [N]-CA--C-[N] |==|  0.43410
USER: genes 5 Torsion [C]-N--CA-[CB] |==|  0.85986
USER: genes 6 Torsion [N]-CA--C-[N] |==|  0.46097
USER: genes 7 Torsion [N]-CA--C-[OXT] |==|  0.83871
USER: genes 8 Torsion [N]-CA--CB-[OG] |==|  0.77266
USER: genes 9 Torsion [CA]-CB--OG-[HG] |==|  0.40364
USER: genes 10 Torsion [N]-CA--CB-[CG2] |==|  0.32709
USER: genes 11 Torsion [CA]-CB--CG1-[CD1] |==|  0.97542
USER: genes 12 Torsion [N]-C--CA-[N] |==|  0.48646
USER: genes 13 Torsion [C]-CA--CB-[CG] |==|  0.34959
USER: genes 14 Torsion [CA]-CB--CG-[CD1] |==|  0.49982
USER: genes 15 Torsion [C]-CA--N-[C] |==|  0.64183
USER: genes 16 Torsion [N]-C--CA-[N] |==|  0.10167
USER: genes 17 Torsion [C]-CA--CB-[CG] |==|  0.40062
USER: genes 18 Torsion [CA]-CB--CG-[OD1] |==|  0.98234
USER: genes 19 Torsion [C]-CA--N-[C] |==|  0.17441
USER: genes 20 Torsion [N]-C--CA-[N] |==|  0.74174
USER: genes 21 Torsion [C]-CA--CB-[CG] |==|  0.30565
USER: genes 22 Torsion [CA]-CB--CG-[CD2] |==|  0.00201
ROOT
ATOM      1  C   PHE C 305      11.393   3.268  -3.436  0.50 34.66 LIG 0.24  C 
ATOM      2 O    PHE C 305      12.271   2.433  -3.631  0.50 33.80 LIG-0.27  OA
ATOM      3  N   PRO C 306      10.736   3.868  -4.448  0.50 35.29 LIG-0.34  N 
ATOM      4  CA  PRO C 306      11.355   3.936  -5.762  0.50 35.79 LIG 0.18  C 
ATOM      5  CB  PRO C 306      10.147   3.893  -6.726  0.50 35.80 LIG 0.04  C 
ATOM      6  CG  PRO C 306       8.901   3.976  -5.837  0.50 35.25 LIG 0.02  C 
ATOM      7  CD  PRO C 306       9.376   4.427  -4.483  0.50 35.51 LIG 0.13  C 
ENDROOT
BRANCH 4 8
ATOM      8  C   PRO C 306      12.085   5.270  -5.936  0.50 36.50 LIG 0.24  C 
ATOM      9  N   ILE C 307      11.309   6.367  -5.944  0.50 37.01 LIG-0.35  N 
ATOM     10 H    ILE C 307      10.450   6.361  -5.919  0.50 37.01 LIG 0.16  HD
ATOM     11 O    PRO C 306      13.331   5.297  -6.048  0.50 36.74 LIG-0.27  OA
BRANCH 9 12
ATOM     12  CA  ILE C 307      11.923   7.694  -5.999  0.50 37.44 LIG 0.18  C 
BRANCH 12 13
ATOM     13  C   ILE C 307      10.895   8.823  -5.890  0.50 38.23 LIG 0.24  C 
ATOM     14  N   SER C 308      11.379   9.979  -5.445  0.50 38.91 LIG-0.34  N 
ATOM     15 H    SER C 308      12.171  10.059  -5.120  0.50 38.91 LIG 0.16  HD
ATOM     16 O    ILE C 307       9.710   8.648  -6.210  0.50 38.79 LIG-0.27  OA
BRANCH 14 17
ATOM     17  CA  SER C 308      10.626  11.230  -5.457  0.50 39.43 LIG 0.20  C 
BRANCH 17 18
ATOM     18  C   SER C 308       9.519  11.064  -4.413  0.50 39.77 LIG 0.24  C 
ATOM     19  N   PRO C 309       8.865  12.173  -4.022  0.50 40.03 LIG-0.34  N 
ATOM     20  CD  PRO C 309       8.806  13.476  -4.702  0.50 39.83 LIG 0.13  C 
ATOM     21  CA  PRO C 309       8.053  12.153  -2.804  0.50 40.09 LIG 0.19  C 
ATOM     22  CG  PRO C 309       8.290  14.388  -3.634  0.50 40.19 LIG 0.02  C 
ATOM     23  CB  PRO C 309       7.379  13.531  -2.809  0.50 40.09 LIG 0.04  C 
ATOM     24 O    SER C 308       9.243   9.945  -3.972  0.50 39.81 LIG-0.27  OA
BRANCH 21 25
ATOM     25  C   PRO C 309       7.017  11.029  -2.783  0.50 40.04 LIG 0.20  C 
ATOM     26 OXT  PRO C 309       6.159  10.928  -3.664  0.50 40.10 LIG-0.65  OA
ATOM     27 O    PRO C 309       7.007  10.198  -1.872  0.50 40.34 LIG-0.65  OA
ENDBRANCH 21 25
ENDBRANCH 17 18
BRANCH 17 28
ATOM     28  CB  SER C 308      10.023  11.493  -6.839  0.50 39.49 LIG 0.20  C 
BRANCH 28 29
ATOM     29 OG   SER C 308      10.976  12.070  -7.720  0.50 39.70 LIG-0.40  OA
ATOM     30 HG   SER C 308      10.843  11.788  -8.500  0.50 39.70 LIG 0.21  HD
ENDBRANCH 28 29
ENDBRANCH 17 28
ENDBRANCH 14 17
ENDBRANCH 12 13
BRANCH 12 31
ATOM     31  CB  ILE C 307      12.733   7.916  -7.299  0.50 37.20 LIG 0.01  C 
ATOM     32  CG2 ILE C 307      12.140   9.067  -8.125  0.50 36.86 LIG 0.01  C 
BRANCH 31 33
ATOM     33  CG1 ILE C 307      14.216   8.129  -6.949  0.50 35.88 LIG 0.00  C 
ATOM     34  CD1 ILE C 307      14.518   8.288  -5.478  0.50 32.01 LIG 0.01  C 
ENDBRANCH 31 33
ENDBRANCH 12 31
ENDBRANCH 9 12
ENDBRANCH 4 8
BRANCH 1 35
ATOM     35  CA  PHE C 305      10.987   3.625  -2.001  0.50 34.47 LIG 0.18  C 
BRANCH 35 36
ATOM     36  CB  PHE C 305      11.299   5.115  -1.794  0.50 34.49 LIG 0.07  C 
BRANCH 36 37
ATOM     37  CG  PHE C 305      10.131   5.956  -1.306  0.50 35.55 LIG-0.06  A 
ATOM     38  CD1 PHE C 305      10.258   7.324  -1.070  0.50 36.28 LIG 0.01  A 
ATOM     39  CE1 PHE C 305       9.168   8.078  -0.625  0.50 36.66 LIG 0.00  A 
ATOM     40  CZ  PHE C 305       7.935   7.460  -0.397  0.50 36.87 LIG 0.00  A 
ATOM     41  CE2 PHE C 305       7.795   6.102  -0.622  0.50 36.76 LIG 0.00  A 
ATOM     42  CD2 PHE C 305       8.895   5.352  -1.067  0.50 36.02 LIG 0.01  A 
ENDBRANCH 36 37
ENDBRANCH 35 36
BRANCH 35 43
ATOM     43  N   PHE C 305      11.666   2.850  -0.956  0.50 33.54 LIG-0.35  N 
ATOM     44 H    PHE C 305      12.524   2.831  -1.023  0.50 33.54 LIG 0.16  HD
ATOM     45  C   ASN C 304      10.972   2.239   0.004  0.50 33.07 LIG 0.24  C 
ATOM     46 O    ASN C 304       9.767   1.980  -0.106  0.50 33.39 LIG-0.27  OA
BRANCH 45 47
ATOM     47  CA  ASN C 304      11.745   1.876   1.279  0.50 32.40 LIG 0.18  C 
BRANCH 47 48
ATOM     48  CB  ASN C 304      10.834   1.669   2.499  0.50 32.38 LIG 0.14  C 
BRANCH 48 49
ATOM     49  CG  ASN C 304      11.332   0.547   3.445  0.50 31.77 LIG 0.22  C 
ATOM     50 OD1  ASN C 304      12.288  -0.159   3.145  0.50 27.48 LIG-0.27  OA
ATOM     51  ND2 ASN C 304      10.643   0.366   4.565  0.50 32.56 LIG-0.37  N 
ATOM     52 21HD ASN C 304      10.863  -0.264   5.108  0.50 32.56 LIG 0.16  HD
ATOM     53 22HD ASN C 304       9.977   0.879   4.747  0.50 32.56 LIG 0.16  HD
ENDBRANCH 48 49
ENDBRANCH 47 48
BRANCH 47 54
ATOM     54  N   ASN C 304      12.712   2.901   1.591  0.50 31.56 LIG-0.34  N 
ATOM     55  C   LEU C 303      12.320   4.134   1.874  0.50 30.83 LIG 0.26  C 
ATOM     56 O    LEU C 303      11.151   4.417   2.096  0.50 29.02 LIG-0.27  OA
ATOM     57 H    ASN C 304      13.532   2.642   1.574  0.50 31.56 LIG 0.16  HD
BRANCH 55 58
ATOM     58  CA  LEU C 303      13.428   5.194   1.915  0.50 30.56 LIG 0.40  C 
ATOM     59  N   LEU C 303      14.000   5.413   3.272  0.50 30.88 LIG 0.61  N 
BRANCH 58 60
ATOM     60  CB  LEU C 303      14.545   4.863   0.918  0.50 30.80 LIG 0.06  C 
BRANCH 60 61
ATOM     61  CG  LEU C 303      14.690   5.759  -0.318  0.50 30.92 LIG-0.02  C 
ATOM     62  CD2 LEU C 303      13.639   6.885  -0.304  0.50 31.43 LIG 0.01  C 
ATOM     63  CD1 LEU C 303      14.626   4.948  -1.601  0.50 30.50 LIG 0.01  C 
ENDBRANCH 60 61
ENDBRANCH 58 60
ENDBRANCH 55 58
ENDBRANCH 47 54
ENDBRANCH 45 47
ENDBRANCH 35 43
ENDBRANCH 1 35
TORSDOF 21
ENDMDL
MODEL 68
USER: ADFR SOLUTION from run 85
USER: SCORE 17.144783 LL:  -4.744 LR: -13.267 RR:   0.000 FEB:  -7.002
USER: RMSD 8.018208
USER: SEED 84
USER: STATUS no improvement in best in 9 clusters for 5 generations
USER: GENES 23
USER: genes 0 Translation |==|  0.54904 0.46571 0.51289
USER: genes 1 Rotation |==|  0.33988 0.65060 0.58544 0.94089
USER: genes 2 Torsion [N]-CA--C-[N] |==|  0.30563
USER: genes 3 Torsion [C]-N--CA-[C] |==|  0.83734
USER: genes 4 Torsion [N]-CA--C-[N] |==|  0.35622
USER: genes 5 Torsion [C]-N--CA-[CB] |==|  0.54117
USER: genes 6 Torsion [N]-CA--C-[N] |==|  0.44555
USER: genes 7 Torsion [N]-CA--C-[OXT] |==|  0.77573
USER: genes 8 Torsion [N]-CA--CB-[OG] |==|  0.59958
USER: genes 9 Torsion [CA]-CB--OG-[HG] |==|  0.09328
USER: genes 10 Torsion [N]-CA--CB-[CG2] |==|  0.81999
USER: genes 11 Torsion [CA]-CB--CG1-[CD1] |==|  0.60597
USER: genes 12 Torsion [N]-C--CA-[N] |==|  0.44736
USER: genes 13 Torsion [C]-CA--CB-[CG] |==|  0.76686
USER: genes 14 Torsion [CA]-CB--CG-[CD1] |==|  0.75988
USER: genes 15 Torsion [C]-CA--N-[C] |==|  0.66667
USER: genes 16 Torsion [N]-C--CA-[N] |==|  0.20641
USER: genes 17 Torsion [C]-CA--CB-[CG] |==|  0.72176
USER: genes 18 Torsion [CA]-CB--CG-[OD1] |==|  0.75005
USER: genes 19 Torsion [C]-CA--N-[C] |==|  0.67174
USER: genes 20 Torsion [N]-C--CA-[N] |==|  0.63362
USER: genes 21 Torsion [C]-CA--CB-[CG] |==|  0.42347
USER: genes 22 Torsion [CA]-CB--CG-[CD2] |==|  0.47666
ROOT
ATOM      1  C   PHE C 305      14.642   6.008  -0.013  0.50 34.66 LIG 0.24  C 
ATOM      2 O    PHE C 305      15.401   5.110  -0.364  0.50 33.80 LIG-0.27  OA
ATOM      3  N   PRO C 306      14.233   6.145   1.263  0.50 35.29 LIG-0.34  N 
ATOM      4  CA  PRO C 306      14.257   4.993   2.150  0.50 35.79 LIG 0.18  C 
ATOM      5  CB  PRO C 306      14.534   5.617   3.537  0.50 35.80 LIG 0.04  C 
ATOM      6  CG  PRO C 306      14.475   7.135   3.330  0.50 35.25 LIG 0.02  C 
ATOM      7  CD  PRO C 306      13.823   7.355   1.993  0.50 35.51 LIG 0.13  C 
ENDROOT
BRANCH 4 8
ATOM      8  C   PRO C 306      12.885   4.314   2.173  0.50 36.50 LIG 0.24  C 
ATOM      9  N   ILE C 307      12.816   3.110   1.580  0.50 37.01 LIG-0.35  N 
ATOM     10 H    ILE C 307      13.460   2.737   1.150  0.50 37.01 LIG 0.16  HD
ATOM     11 O    PRO C 306      11.915   4.872   2.732  0.50 36.74 LIG-0.27  OA
BRANCH 9 12
ATOM     12  CA  ILE C 307      11.576   2.336   1.643  0.50 37.44 LIG 0.18  C 
BRANCH 12 13
ATOM     13  C   ILE C 307      11.140   2.040   3.080  0.50 38.23 LIG 0.24  C 
ATOM     14  N   SER C 308       9.882   2.368   3.362  0.50 38.91 LIG-0.34  N 
ATOM     15 H    SER C 308       9.388   2.828   2.828  0.50 38.91 LIG 0.16  HD
ATOM     16 O    ILE C 307      11.917   1.522   3.896  0.50 38.79 LIG-0.27  OA
BRANCH 14 17
ATOM     17  CA  SER C 308       9.204   1.989   4.598  0.50 39.43 LIG 0.20  C 
BRANCH 17 18
ATOM     18  C   SER C 308       9.534   0.512   4.822  0.50 39.77 LIG 0.24  C 
ATOM     19  N   PRO C 309       9.380   0.024   6.066  0.50 40.03 LIG-0.34  N 
ATOM     20  CD  PRO C 309       8.604   0.601   7.175  0.50 39.83 LIG 0.13  C 
ATOM     21  CA  PRO C 309       9.991  -1.256   6.433  0.50 40.09 LIG 0.19  C 
ATOM     22  CG  PRO C 309       9.120  -0.142   8.368  0.50 40.19 LIG 0.02  C 
ATOM     23  CB  PRO C 309       9.457  -1.507   7.849  0.50 40.09 LIG 0.04  C 
ATOM     24 O    SER C 308       9.910  -0.191   3.880  0.50 39.81 LIG-0.27  OA
BRANCH 21 25
ATOM     25  C   PRO C 309       9.618  -2.398   5.488  0.50 40.04 LIG 0.20  C 
ATOM     26 OXT  PRO C 309       8.544  -2.996   5.593  0.50 40.10 LIG-0.65  OA
ATOM     27 O    PRO C 309      10.394  -2.761   4.601  0.50 40.34 LIG-0.65  OA
ENDBRANCH 21 25
ENDBRANCH 17 18
BRANCH 17 28
ATOM     28  CB  SER C 308       7.691   2.188   4.476  0.50 39.49 LIG 0.20  C 
BRANCH 28 29
ATOM     29 OG   SER C 308       7.125   2.629   5.702  0.50 39.70 LIG-0.40  OA
ATOM     30 HG   SER C 308       7.674   3.121   6.104  0.50 39.70 LIG 0.21  HD
ENDBRANCH 28 29
ENDBRANCH 17 28
ENDBRANCH 14 17
ENDBRANCH 12 13
BRANCH 12 31
ATOM     31  CB  ILE C 307      11.685   0.986   0.894  0.50 37.20 LIG 0.01  C 
ATOM     32  CG2 ILE C 307      11.888   1.211  -0.612  0.50 36.86 LIG 0.01  C 
BRANCH 31 33
ATOM     33  CG1 ILE C 307      12.797   0.135   1.530  0.50 35.88 LIG 0.00  C 
ATOM     34  CD1 ILE C 307      13.633  -0.667   0.563  0.50 32.01 LIG 0.01  C 
ENDBRANCH 31 33
ENDBRANCH 12 31
ENDBRANCH 9 12
ENDBRANCH 4 8
BRANCH 1 35
ATOM     35  CA  PHE C 305      14.163   7.043  -1.039  0.50 34.47 LIG 0.18  C 
BRANCH 35 36
ATOM     36  CB  PHE C 305      12.714   6.688  -1.405  0.50 34.49 LIG 0.07  C 
BRANCH 36 37
ATOM     37  CG  PHE C 305      12.564   5.628  -2.484  0.50 35.55 LIG-0.06  A 
ATOM     38  CD1 PHE C 305      12.567   5.954  -3.840  0.50 36.28 LIG 0.01  A 
ATOM     39  CE1 PHE C 305      12.431   4.960  -4.814  0.50 36.66 LIG 0.00  A 
ATOM     40  CZ  PHE C 305      12.276   3.624  -4.435  0.50 36.87 LIG 0.00  A 
ATOM     41  CE2 PHE C 305      12.266   3.286  -3.094  0.50 36.76 LIG 0.00  A 
ATOM     42  CD2 PHE C 305      12.401   4.290  -2.122  0.50 36.02 LIG 0.01  A 
ENDBRANCH 36 37
ENDBRANCH 35 36
BRANCH 35 43
ATOM     43  N   PHE C 305      14.959   7.107  -2.270  0.50 33.54 LIG-0.35  N 
ATOM     44 H    PHE C 305      14.987   6.374  -2.719  0.50 33.54 LIG 0.16  HD
ATOM     45  C   ASN C 304      15.576   8.233  -2.628  0.50 33.07 LIG 0.24  C 
ATOM     46 O    ASN C 304      15.822   9.143  -1.826  0.50 33.39 LIG-0.27  OA
BRANCH 45 47
ATOM     47  CA  ASN C 304      15.966   8.357  -4.107  0.50 32.40 LIG 0.18  C 
BRANCH 47 48
ATOM     48  CB  ASN C 304      17.003   9.460  -4.368  0.50 32.38 LIG 0.14  C 
BRANCH 48 49
ATOM     49  CG  ASN C 304      16.374  10.768  -4.912  0.50 31.77 LIG 0.22  C 
ATOM     50 OD1  ASN C 304      16.239  10.955  -6.116  0.50 27.48 LIG-0.27  OA
ATOM     51  ND2 ASN C 304      16.036  11.682  -4.011  0.50 32.56 LIG-0.37  N 
ATOM     52 21HD ASN C 304      15.710  12.436  -4.266  0.50 32.56 LIG 0.16  HD
ATOM     53 22HD ASN C 304      16.142  11.520  -3.173  0.50 32.56 LIG 0.16  HD
ENDBRANCH 48 49
ENDBRANCH 47 48
BRANCH 47 54
ATOM     54  N   ASN C 304      14.798   8.616  -4.914  0.50 31.56 LIG-0.34  N 
ATOM     55  C   LEU C 303      14.422   7.760  -5.852  0.50 30.83 LIG 0.26  C 
ATOM     56 O    LEU C 303      14.895   6.636  -5.941  0.50 29.02 LIG-0.27  OA
ATOM     57 H    ASN C 304      14.389   9.351  -4.734  0.50 31.56 LIG 0.16  HD
BRANCH 55 58
ATOM     58  CA  LEU C 303      13.347   8.262  -6.824  0.50 30.56 LIG 0.40  C 
ATOM     59  N   LEU C 303      12.225   7.304  -7.025  0.50 30.88 LIG 0.61  N 
BRANCH 58 60
ATOM     60  CB  LEU C 303      12.803   9.628  -6.386  0.50 30.80 LIG 0.06  C 
BRANCH 60 61
ATOM     61  CG  LEU C 303      12.252  10.560  -7.472  0.50 30.92 LIG-0.02  C 
ATOM     62  CD2 LEU C 303      11.564  11.785  -6.843  0.50 31.43 LIG 0.01  C 
ATOM     63  CD1 LEU C 303      11.324   9.819  -8.419  0.50 30.50 LIG 0.01  C 
ENDBRANCH 60 61
ENDBRANCH 58 60
ENDBRANCH 55 58
ENDBRANCH 47 54
ENDBRANCH 45 47
ENDBRANCH 35 43
ENDBRANCH 1 35
TORSDOF 21
ENDMDL
MODEL 69
USER: ADFR SOLUTION from run 51
USER: SCORE 17.066471 LL:  -4.680 LR: -13.259 RR:   0.000 FEB:  -6.995
USER: RMSD 7.230111
USER: SEED 50
USER: STATUS no improvement in best in 28 clusters for 5 generations
USER: GENES 23
USER: genes 0 Translation |==|  0.40219 0.48278 0.27544
USER: genes 1 Rotation |==|  0.69391 0.87764 0.69651 0.67655
USER: genes 2 Torsion [N]-CA--C-[N] |==|  0.25143
USER: genes 3 Torsion [C]-N--CA-[C] |==|  0.62316
USER: genes 4 Torsion [N]-CA--C-[N] |==|  0.43553
USER: genes 5 Torsion [C]-N--CA-[CB] |==|  0.22747
USER: genes 6 Torsion [N]-CA--C-[N] |==|  0.80625
USER: genes 7 Torsion [N]-CA--C-[OXT] |==|  0.33759
USER: genes 8 Torsion [N]-CA--CB-[OG] |==|  0.83752
USER: genes 9 Torsion [CA]-CB--OG-[HG] |==|  0.16560
USER: genes 10 Torsion [N]-CA--CB-[CG2] |==|  0.76161
USER: genes 11 Torsion [CA]-CB--CG1-[CD1] |==|  0.28365
USER: genes 12 Torsion [N]-C--CA-[N] |==|  0.98436
USER: genes 13 Torsion [C]-CA--CB-[CG] |==|  0.94888
USER: genes 14 Torsion [CA]-CB--CG-[CD1] |==|  0.81060
USER: genes 15 Torsion [C]-CA--N-[C] |==|  0.75067
USER: genes 16 Torsion [N]-C--CA-[N] |==|  0.37381
USER: genes 17 Torsion [C]-CA--CB-[CG] |==|  0.48401
USER: genes 18 Torsion [CA]-CB--CG-[OD1] |==|  0.06255
USER: genes 19 Torsion [C]-CA--N-[C] |==|  0.82187
USER: genes 20 Torsion [N]-C--CA-[N] |==|  0.87161
USER: genes 21 Torsion [C]-CA--CB-[CG] |==|  0.68099
USER: genes 22 Torsion [CA]-CB--CG-[CD2] |==|  0.71443
ROOT
ATOM      1  C   PHE C 305      10.898   6.418  -4.821  0.50 34.66 LIG 0.24  C 
ATOM      2 O    PHE C 305       9.896   6.526  -5.523  0.50 33.80 LIG-0.27  OA
ATOM      3  N   PRO C 306      11.899   5.569  -5.125  0.50 35.29 LIG-0.34  N 
ATOM      4  CA  PRO C 306      11.630   4.421  -5.977  0.50 35.79 LIG 0.18  C 
ATOM      5  CB  PRO C 306      12.968   4.213  -6.725  0.50 35.80 LIG 0.04  C 
ATOM      6  CG  PRO C 306      13.959   5.191  -6.085  0.50 35.25 LIG 0.02  C 
ATOM      7  CD  PRO C 306      13.331   5.651  -4.798  0.50 35.51 LIG 0.13  C 
ENDROOT
BRANCH 4 8
ATOM      8  C   PRO C 306      11.338   3.185  -5.125  0.50 36.50 LIG 0.24  C 
ATOM      9  N   ILE C 307      10.048   2.982  -4.808  0.50 37.01 LIG-0.35  N 
ATOM     10 H    ILE C 307       9.405   3.519  -4.998  0.50 37.01 LIG 0.16  HD
ATOM     11 O    PRO C 306      12.269   2.426  -4.774  0.50 36.74 LIG-0.27  OA
BRANCH 9 12
ATOM     12  CA  ILE C 307       9.656   1.770  -4.086  0.50 37.44 LIG 0.18  C 
BRANCH 12 13
ATOM     13  C   ILE C 307       8.398   1.120  -4.667  0.50 38.23 LIG 0.24  C 
ATOM     14  N   SER C 308       8.266  -0.177  -4.403  0.50 38.91 LIG-0.34  N 
ATOM     15 H    SER C 308       8.893  -0.648  -4.049  0.50 38.91 LIG 0.16  HD
ATOM     16 O    ILE C 307       7.576   1.778  -5.321  0.50 38.79 LIG-0.27  OA
BRANCH 14 17
ATOM     17  CA  SER C 308       7.054  -0.941  -4.683  0.50 39.43 LIG 0.20  C 
BRANCH 17 18
ATOM     18  C   SER C 308       7.108  -2.164  -3.766  0.50 39.77 LIG 0.24  C 
ATOM     19  N   PRO C 309       8.034  -3.101  -4.035  0.50 40.03 LIG-0.34  N 
ATOM     20  CD  PRO C 309       9.242  -2.967  -4.865  0.50 39.83 LIG 0.13  C 
ATOM     21  CA  PRO C 309       7.927  -4.433  -3.435  0.50 40.09 LIG 0.19  C 
ATOM     22  CG  PRO C 309       9.639  -4.389  -5.111  0.50 40.19 LIG 0.02  C 
ATOM     23  CB  PRO C 309       9.229  -5.119  -3.868  0.50 40.09 LIG 0.04  C 
ATOM     24 O    SER C 308       6.332  -2.259  -2.810  0.50 39.81 LIG-0.27  OA
BRANCH 21 25
ATOM     25  C   PRO C 309       7.796  -4.402  -1.912  0.50 40.04 LIG 0.20  C 
ATOM     26 OXT  PRO C 309       6.824  -4.903  -1.339  0.50 40.10 LIG-0.65  OA
ATOM     27 O    PRO C 309       8.659  -3.862  -1.216  0.50 40.34 LIG-0.65  OA
ENDBRANCH 21 25
ENDBRANCH 17 18
BRANCH 17 28
ATOM     28  CB  SER C 308       7.006  -1.374  -6.151  0.50 39.49 LIG 0.20  C 
BRANCH 28 29
ATOM     29 OG   SER C 308       7.056  -0.254  -7.024  0.50 39.70 LIG-0.40  OA
ATOM     30 HG   SER C 308       7.767   0.173  -6.891  0.50 39.70 LIG 0.21  HD
ENDBRANCH 28 29
ENDBRANCH 17 28
ENDBRANCH 14 17
ENDBRANCH 12 13
BRANCH 12 31
ATOM     31  CB  ILE C 307       9.400   2.037  -2.583  0.50 37.20 LIG 0.01  C 
ATOM     32  CG2 ILE C 307      10.708   1.956  -1.782  0.50 36.86 LIG 0.01  C 
BRANCH 31 33
ATOM     33  CG1 ILE C 307       8.676   3.385  -2.418  0.50 35.88 LIG 0.00  C 
ATOM     34  CD1 ILE C 307       7.193   3.296  -2.155  0.50 32.01 LIG 0.01  C 
ENDBRANCH 31 33
ENDBRANCH 12 31
ENDBRANCH 9 12
ENDBRANCH 4 8
BRANCH 1 35
ATOM     35  CA  PHE C 305      11.052   7.297  -3.574  0.50 34.47 LIG 0.18  C 
BRANCH 35 36
ATOM     36  CB  PHE C 305      11.109   8.758  -4.048  0.50 34.49 LIG 0.07  C 
BRANCH 36 37
ATOM     37  CG  PHE C 305      11.442   8.945  -5.519  0.50 35.55 LIG-0.06  A 
ATOM     38  CD1 PHE C 305      12.701   8.638  -6.033  0.50 36.28 LIG 0.01  A 
ATOM     39  CE1 PHE C 305      12.983   8.815  -7.391  0.50 36.66 LIG 0.00  A 
ATOM     40  CZ  PHE C 305      12.001   9.318  -8.250  0.50 36.87 LIG 0.00  A 
ATOM     41  CE2 PHE C 305      10.749   9.632  -7.754  0.50 36.76 LIG 0.00  A 
ATOM     42  CD2 PHE C 305      10.475   9.453  -6.389  0.50 36.02 LIG 0.01  A 
ENDBRANCH 36 37
ENDBRANCH 35 36
BRANCH 35 43
ATOM     43  N   PHE C 305      12.244   7.017  -2.765  0.50 33.54 LIG-0.35  N 
ATOM     44 H    PHE C 305      12.942   7.472  -2.982  0.50 33.54 LIG 0.16  HD
ATOM     45  C   ASN C 304      12.206   6.120  -1.779  0.50 33.07 LIG 0.24  C 
ATOM     46 O    ASN C 304      11.337   5.244  -1.709  0.50 33.39 LIG-0.27  OA
BRANCH 45 47
ATOM     47  CA  ASN C 304      13.303   6.234  -0.712  0.50 32.40 LIG 0.18  C 
BRANCH 47 48
ATOM     48  CB  ASN C 304      14.412   5.182  -0.871  0.50 32.38 LIG 0.14  C 
BRANCH 48 49
ATOM     49  CG  ASN C 304      15.587   5.386   0.118  0.50 31.77 LIG 0.22  C 
ATOM     50 OD1  ASN C 304      15.438   6.008   1.163  0.50 27.48 LIG-0.27  OA
ATOM     51  ND2 ASN C 304      16.763   4.892  -0.250  0.50 32.56 LIG-0.37  N 
ATOM     52 21HD ASN C 304      17.453   5.005   0.252  0.50 32.56 LIG 0.16  HD
ATOM     53 22HD ASN C 304      16.836   4.459  -0.989  0.50 32.56 LIG 0.16  HD
ENDBRANCH 48 49
ENDBRANCH 47 48
BRANCH 47 54
ATOM     54  N   ASN C 304      12.734   6.113   0.609  0.50 31.56 LIG-0.34  N 
ATOM     55  C   LEU C 303      11.878   7.017   1.060  0.50 30.83 LIG 0.26  C 
ATOM     56 O    LEU C 303      11.369   7.859   0.333  0.50 29.02 LIG-0.27  OA
ATOM     57 H    ASN C 304      12.995   5.425   1.054  0.50 31.56 LIG 0.16  HD
BRANCH 55 58
ATOM     58  CA  LEU C 303      11.554   6.943   2.558  0.50 30.56 LIG 0.40  C 
ATOM     59  N   LEU C 303      11.262   5.566   3.041  0.50 30.88 LIG 0.61  N 
BRANCH 58 60
ATOM     60  CB  LEU C 303      12.675   7.572   3.395  0.50 30.80 LIG 0.06  C 
BRANCH 60 61
ATOM     61  CG  LEU C 303      13.472   6.653   4.329  0.50 30.92 LIG-0.02  C 
ATOM     62  CD2 LEU C 303      13.017   6.831   5.790  0.50 31.43 LIG 0.01  C 
ATOM     63  CD1 LEU C 303      14.967   6.870   4.177  0.50 30.50 LIG 0.01  C 
ENDBRANCH 60 61
ENDBRANCH 58 60
ENDBRANCH 55 58
ENDBRANCH 47 54
ENDBRANCH 45 47
ENDBRANCH 35 43
ENDBRANCH 1 35
TORSDOF 21
ENDMDL
MODEL 70
USER: ADFR SOLUTION from run 118
USER: SCORE 17.478741 LL:  -5.004 LR: -13.253 RR:   0.000 FEB:  -6.989
USER: RMSD 8.264624
USER: SEED 117
USER: STATUS no improvement in best in 11 clusters for 5 generations
USER: GENES 23
USER: genes 0 Translation |==|  0.43880 0.45374 0.24641
USER: genes 1 Rotation |==|  0.70138 0.66056 0.54354 0.92635
USER: genes 2 Torsion [N]-CA--C-[N] |==|  0.54236
USER: genes 3 Torsion [C]-N--CA-[C] |==|  0.77687
USER: genes 4 Torsion [N]-CA--C-[N] |==|  0.27239
USER: genes 5 Torsion [C]-N--CA-[CB] |==|  0.86111
USER: genes 6 Torsion [N]-CA--C-[N] |==|  0.37734
USER: genes 7 Torsion [N]-CA--C-[OXT] |==|  0.44111
USER: genes 8 Torsion [N]-CA--CB-[OG] |==|  0.76141
USER: genes 9 Torsion [CA]-CB--OG-[HG] |==|  0.04044
USER: genes 10 Torsion [N]-CA--CB-[CG2] |==|  0.13577
USER: genes 11 Torsion [CA]-CB--CG1-[CD1] |==|  0.60089
USER: genes 12 Torsion [N]-C--CA-[N] |==|  0.51808
USER: genes 13 Torsion [C]-CA--CB-[CG] |==|  0.73302
USER: genes 14 Torsion [CA]-CB--CG-[CD1] |==|  0.14186
USER: genes 15 Torsion [C]-CA--N-[C] |==|  0.71082
USER: genes 16 Torsion [N]-C--CA-[N] |==|  0.95898
USER: genes 17 Torsion [C]-CA--CB-[CG] |==|  0.28629
USER: genes 18 Torsion [CA]-CB--CG-[OD1] |==|  0.04321
USER: genes 19 Torsion [C]-CA--N-[C] |==|  0.81570
USER: genes 20 Torsion [N]-C--CA-[N] |==|  0.57967
USER: genes 21 Torsion [C]-CA--CB-[CG] |==|  0.24658
USER: genes 22 Torsion [CA]-CB--CG-[CD2] |==|  0.60711
ROOT
ATOM      1  C   PHE C 305      11.831   5.721  -5.409  0.50 34.66 LIG 0.24  C 
ATOM      2 O    PHE C 305      11.977   5.742  -6.628  0.50 33.80 LIG-0.27  OA
ATOM      3  N   PRO C 306      11.366   4.635  -4.760  0.50 35.29 LIG-0.34  N 
ATOM      4  CA  PRO C 306      10.567   3.658  -5.483  0.50 35.79 LIG 0.18  C 
ATOM      5  CB  PRO C 306      10.913   2.326  -4.778  0.50 35.80 LIG 0.04  C 
ATOM      6  CG  PRO C 306      11.778   2.706  -3.570  0.50 35.25 LIG 0.02  C 
ATOM      7  CD  PRO C 306      11.613   4.189  -3.381  0.50 35.51 LIG 0.13  C 
ENDROOT
BRANCH 4 8
ATOM      8  C   PRO C 306       9.077   3.949  -5.296  0.50 36.50 LIG 0.24  C 
ATOM      9  N   ILE C 307       8.238   2.957  -5.637  0.50 37.01 LIG-0.35  N 
ATOM     10 H    ILE C 307       8.476   2.215  -5.999  0.50 37.01 LIG 0.16  HD
ATOM     11 O    PRO C 306       8.702   5.052  -4.838  0.50 36.74 LIG-0.27  OA
BRANCH 9 12
ATOM     12  CA  ILE C 307       6.801   3.101  -5.395  0.50 37.44 LIG 0.18  C 
BRANCH 12 13
ATOM     13  C   ILE C 307       6.417   2.809  -3.943  0.50 38.23 LIG 0.24  C 
ATOM     14  N   SER C 308       6.276   3.885  -3.175  0.50 38.91 LIG-0.34  N 
ATOM     15 H    SER C 308       6.506   4.674  -3.429  0.50 38.91 LIG 0.16  HD
ATOM     16 O    ILE C 307       6.246   1.648  -3.543  0.50 38.79 LIG-0.27  OA
BRANCH 14 17
ATOM     17  CA  SER C 308       5.720   3.849  -1.825  0.50 39.43 LIG 0.20  C 
BRANCH 17 18
ATOM     18  C   SER C 308       6.763   3.137  -0.961  0.50 39.77 LIG 0.24  C 
ATOM     19  N   PRO C 309       7.040   3.670   0.242  0.50 40.03 LIG-0.34  N 
ATOM     20  CD  PRO C 309       6.238   4.637   1.010  0.50 39.83 LIG 0.13  C 
ATOM     21  CA  PRO C 309       8.245   3.261   0.966  0.50 40.09 LIG 0.19  C 
ATOM     22  CG  PRO C 309       7.210   5.141   2.031  0.50 40.19 LIG 0.02  C 
ATOM     23  CB  PRO C 309       8.102   3.973   2.318  0.50 40.09 LIG 0.04  C 
ATOM     24 O    SER C 308       7.304   2.104  -1.365  0.50 39.81 LIG-0.27  OA
BRANCH 21 25
ATOM     25  C   PRO C 309       8.361   1.748   1.145  0.50 40.04 LIG 0.20  C 
ATOM     26 OXT  PRO C 309       9.447   1.206   1.370  0.50 40.10 LIG-0.65  OA
ATOM     27 O    PRO C 309       7.366   1.025   1.056  0.50 40.34 LIG-0.65  OA
ENDBRANCH 21 25
ENDBRANCH 17 18
BRANCH 17 28
ATOM     28  CB  SER C 308       4.393   3.087  -1.800  0.50 39.49 LIG 0.20  C 
BRANCH 28 29
ATOM     29 OG   SER C 308       3.300   3.937  -2.121  0.50 39.70 LIG-0.40  OA
ATOM     30 HG   SER C 308       3.589   4.649  -2.460  0.50 39.70 LIG 0.21  HD
ENDBRANCH 28 29
ENDBRANCH 17 28
ENDBRANCH 14 17
ENDBRANCH 12 13
BRANCH 12 31
ATOM     31  CB  ILE C 307       5.955   2.177  -6.304  0.50 37.20 LIG 0.01  C 
ATOM     32  CG2 ILE C 307       6.493   0.738  -6.274  0.50 36.86 LIG 0.01  C 
BRANCH 31 33
ATOM     33  CG1 ILE C 307       4.474   2.273  -5.897  0.50 35.88 LIG 0.00  C 
ATOM     34  CD1 ILE C 307       3.691   0.986  -5.990  0.50 32.01 LIG 0.01  C 
ENDBRANCH 31 33
ENDBRANCH 12 31
ENDBRANCH 9 12
ENDBRANCH 4 8
BRANCH 1 35
ATOM     35  CA  PHE C 305      12.222   6.947  -4.574  0.50 34.47 LIG 0.18  C 
BRANCH 35 36
ATOM     36  CB  PHE C 305      11.027   7.286  -3.671  0.50 34.49 LIG 0.07  C 
BRANCH 36 37
ATOM     37  CG  PHE C 305      10.099   8.363  -4.208  0.50 35.55 LIG-0.06  A 
ATOM     38  CD1 PHE C 305       9.574   8.304  -5.498  0.50 36.28 LIG 0.01  A 
ATOM     39  CE1 PHE C 305       8.719   9.306  -5.969  0.50 36.66 LIG 0.00  A 
ATOM     40  CZ  PHE C 305       8.392  10.390  -5.149  0.50 36.87 LIG 0.00  A 
ATOM     41  CE2 PHE C 305       8.909  10.464  -3.868  0.50 36.76 LIG 0.00  A 
ATOM     42  CD2 PHE C 305       9.768   9.456  -3.404  0.50 36.02 LIG 0.01  A 
ENDBRANCH 36 37
ENDBRANCH 35 36
BRANCH 35 43
ATOM     43  N   PHE C 305      12.577   8.137  -5.355  0.50 33.54 LIG-0.35  N 
ATOM     44 H    PHE C 305      11.908   8.557  -5.696  0.50 33.54 LIG 0.16  HD
ATOM     45  C   ASN C 304      13.850   8.507  -5.500  0.50 33.07 LIG 0.24  C 
ATOM     46 O    ASN C 304      14.794   7.729  -5.318  0.50 33.39 LIG-0.27  OA
BRANCH 45 47
ATOM     47  CA  ASN C 304      14.095   9.968  -5.899  0.50 32.40 LIG 0.18  C 
BRANCH 47 48
ATOM     48  CB  ASN C 304      14.656  10.821  -4.751  0.50 32.38 LIG 0.14  C 
BRANCH 48 49
ATOM     49  CG  ASN C 304      16.176  11.092  -4.883  0.50 31.77 LIG 0.22  C 
ATOM     50 OD1  ASN C 304      16.766  10.902  -5.940  0.50 27.48 LIG-0.27  OA
ATOM     51  ND2 ASN C 304      16.804  11.493  -3.784  0.50 32.56 LIG-0.37  N 
ATOM     52 21HD ASN C 304      17.654  11.628  -3.800  0.50 32.56 LIG 0.16  HD
ATOM     53 22HD ASN C 304      16.362  11.618  -3.057  0.50 32.56 LIG 0.16  HD
ENDBRANCH 48 49
ENDBRANCH 47 48
BRANCH 47 54
ATOM     54  N   ASN C 304      12.873  10.572  -6.372  0.50 31.56 LIG-0.34  N 
ATOM     55  C   LEU C 303      12.307  10.157  -7.496  0.50 30.83 LIG 0.26  C 
ATOM     56 O    LEU C 303      12.651   9.131  -8.064  0.50 29.02 LIG-0.27  OA
ATOM     57 H    ASN C 304      12.563  11.201  -5.874  0.50 31.56 LIG 0.16  HD
BRANCH 55 58
ATOM     58  CA  LEU C 303      11.181  11.043  -8.043  0.50 30.56 LIG 0.40  C 
ATOM     59  N   LEU C 303      10.160  10.299  -8.831  0.50 30.88 LIG 0.61  N 
BRANCH 58 60
ATOM     60  CB  LEU C 303      10.505  11.835  -6.917  0.50 30.80 LIG 0.06  C 
BRANCH 60 61
ATOM     61  CG  LEU C 303      11.092  13.204  -6.553  0.50 30.92 LIG-0.02  C 
ATOM     62  CD2 LEU C 303      11.054  13.428  -5.030  0.50 31.43 LIG 0.01  C 
ATOM     63  CD1 LEU C 303      10.392  14.324  -7.302  0.50 30.50 LIG 0.01  C 
ENDBRANCH 60 61
ENDBRANCH 58 60
ENDBRANCH 55 58
ENDBRANCH 47 54
ENDBRANCH 45 47
ENDBRANCH 35 43
ENDBRANCH 1 35
TORSDOF 21
ENDMDL
MODEL 71
USER: ADFR SOLUTION from run 130
USER: SCORE 18.008659 LL:  -5.811 LR: -13.229 RR:   0.000 FEB:  -6.965
USER: RMSD 7.705501
USER: SEED 129
USER: STATUS no improvement in best in 16 clusters for 5 generations
USER: GENES 23
USER: genes 0 Translation |==|  0.37474 0.48060 0.26658
USER: genes 1 Rotation |==|  0.66739 0.86695 0.68474 0.73066
USER: genes 2 Torsion [N]-CA--C-[N] |==|  0.24264
USER: genes 3 Torsion [C]-N--CA-[C] |==|  0.71291
USER: genes 4 Torsion [N]-CA--C-[N] |==|  0.44159
USER: genes 5 Torsion [C]-N--CA-[CB] |==|  0.57222
USER: genes 6 Torsion [N]-CA--C-[N] |==|  0.82092
USER: genes 7 Torsion [N]-CA--C-[OXT] |==|  0.38221
USER: genes 8 Torsion [N]-CA--CB-[OG] |==|  0.92033
USER: genes 9 Torsion [CA]-CB--OG-[HG] |==|  0.02467
USER: genes 10 Torsion [N]-CA--CB-[CG2] |==|  0.73115
USER: genes 11 Torsion [CA]-CB--CG1-[CD1] |==|  0.21898
USER: genes 12 Torsion [N]-C--CA-[N] |==|  0.88053
USER: genes 13 Torsion [C]-CA--CB-[CG] |==|  0.11888
USER: genes 14 Torsion [CA]-CB--CG-[CD1] |==|  0.67989
USER: genes 15 Torsion [C]-CA--N-[C] |==|  0.79318
USER: genes 16 Torsion [N]-C--CA-[N] |==|  0.90792
USER: genes 17 Torsion [C]-CA--CB-[CG] |==|  0.10504
USER: genes 18 Torsion [CA]-CB--CG-[OD1] |==|  0.66837
USER: genes 19 Torsion [C]-CA--N-[C] |==|  0.82761
USER: genes 20 Torsion [N]-C--CA-[N] |==|  0.28644
USER: genes 21 Torsion [C]-CA--CB-[CG] |==|  0.29175
USER: genes 22 Torsion [CA]-CB--CG-[CD2] |==|  0.23415
ROOT
ATOM      1  C   PHE C 305      10.198   6.365  -5.001  0.50 34.66 LIG 0.24  C 
ATOM      2 O    PHE C 305       9.362   6.396  -5.899  0.50 33.80 LIG-0.27  OA
ATOM      3  N   PRO C 306      11.194   5.458  -4.977  0.50 35.29 LIG-0.34  N 
ATOM      4  CA  PRO C 306      11.040   4.208  -5.703  0.50 35.79 LIG 0.18  C 
ATOM      5  CB  PRO C 306      12.486   3.863  -6.129  0.50 35.80 LIG 0.04  C 
ATOM      6  CG  PRO C 306      13.381   4.899  -5.439  0.50 35.25 LIG 0.02  C 
ATOM      7  CD  PRO C 306      12.535   5.552  -4.380  0.50 35.51 LIG 0.13  C 
ENDROOT
BRANCH 4 8
ATOM      8  C   PRO C 306      10.521   3.113  -4.768  0.50 36.50 LIG 0.24  C 
ATOM      9  N   ILE C 307       9.185   3.031  -4.645  0.50 37.01 LIG-0.35  N 
ATOM     10 H    ILE C 307       8.624   3.577  -5.001  0.50 37.01 LIG 0.16  HD
ATOM     11 O    PRO C 306      11.323   2.352  -4.182  0.50 36.74 LIG-0.27  OA
BRANCH 9 12
ATOM     12  CA  ILE C 307       8.590   1.950  -3.858  0.50 37.44 LIG 0.18  C 
BRANCH 12 13
ATOM     13  C   ILE C 307       7.998   0.842  -4.732  0.50 38.23 LIG 0.24  C 
ATOM     14  N   SER C 308       7.848  -0.330  -4.123  0.50 38.91 LIG-0.34  N 
ATOM     15 H    SER C 308       8.173  -0.498  -3.345  0.50 38.91 LIG 0.16  HD
ATOM     16 O    ILE C 307       7.682   1.052  -5.912  0.50 38.79 LIG-0.27  OA
BRANCH 14 17
ATOM     17  CA  SER C 308       7.121  -1.456  -4.703  0.50 39.43 LIG 0.20  C 
BRANCH 17 18
ATOM     18  C   SER C 308       5.976  -0.844  -5.514  0.50 39.77 LIG 0.24  C 
ATOM     19  N   PRO C 309       5.034  -0.162  -4.839  0.50 40.03 LIG-0.34  N 
ATOM     20  CD  PRO C 309       5.118   0.391  -3.477  0.50 39.83 LIG 0.13  C 
ATOM     21  CA  PRO C 309       3.754   0.149  -5.479  0.50 40.09 LIG 0.19  C 
ATOM     22  CG  PRO C 309       3.687   0.670  -3.141  0.50 40.19 LIG 0.02  C 
ATOM     23  CB  PRO C 309       3.054   1.043  -4.446  0.50 40.09 LIG 0.04  C 
ATOM     24 O    SER C 308       5.948  -0.969  -6.742  0.50 39.81 LIG-0.27  OA
BRANCH 21 25
ATOM     25  C   PRO C 309       3.905   0.865  -6.820  0.50 40.04 LIG 0.20  C 
ATOM     26 OXT  PRO C 309       3.210   0.563  -7.794  0.50 40.10 LIG-0.65  OA
ATOM     27 O    PRO C 309       4.741   1.760  -6.967  0.50 40.34 LIG-0.65  OA
ENDBRANCH 21 25
ENDBRANCH 17 18
BRANCH 17 28
ATOM     28  CB  SER C 308       6.571  -2.374  -3.609  0.50 39.49 LIG 0.20  C 
BRANCH 28 29
ATOM     29 OG   SER C 308       7.379  -2.333  -2.442  0.50 39.70 LIG-0.40  OA
ATOM     30 HG   SER C 308       7.948  -1.720  -2.516  0.50 39.70 LIG 0.21  HD
ENDBRANCH 28 29
ENDBRANCH 17 28
ENDBRANCH 14 17
ENDBRANCH 12 13
BRANCH 12 31
ATOM     31  CB  ILE C 307       7.473   2.455  -2.913  0.50 37.20 LIG 0.01  C 
ATOM     32  CG2 ILE C 307       8.019   2.692  -1.497  0.50 36.86 LIG 0.01  C 
BRANCH 31 33
ATOM     33  CG1 ILE C 307       6.815   3.707  -3.521  0.50 35.88 LIG 0.00  C 
ATOM     34  CD1 ILE C 307       5.814   3.444  -4.619  0.50 32.01 LIG 0.01  C 
ENDBRANCH 31 33
ENDBRANCH 12 31
ENDBRANCH 9 12
ENDBRANCH 4 8
BRANCH 1 35
ATOM     35  CA  PHE C 305      10.148   7.411  -3.879  0.50 34.47 LIG 0.18  C 
BRANCH 35 36
ATOM     36  CB  PHE C 305      11.202   8.481  -4.203  0.50 34.49 LIG 0.07  C 
BRANCH 36 37
ATOM     37  CG  PHE C 305      11.253   8.913  -5.660  0.50 35.55 LIG-0.06  A 
ATOM     38  CD1 PHE C 305      12.372   8.674  -6.458  0.50 36.28 LIG 0.01  A 
ATOM     39  CE1 PHE C 305      12.394   9.078  -7.796  0.50 36.66 LIG 0.00  A 
ATOM     40  CZ  PHE C 305      11.294   9.741  -8.347  0.50 36.87 LIG 0.00  A 
ATOM     41  CE2 PHE C 305      10.179   9.989  -7.566  0.50 36.76 LIG 0.00  A 
ATOM     42  CD2 PHE C 305      10.165   9.583  -6.222  0.50 36.02 LIG 0.01  A 
ENDBRANCH 36 37
ENDBRANCH 35 36
BRANCH 35 43
ATOM     43  N   PHE C 305      10.408   6.885  -2.534  0.50 33.54 LIG-0.35  N 
ATOM     44 H    PHE C 305      11.183   7.080  -2.214  0.50 33.54 LIG 0.16  HD
ATOM     45  C   ASN C 304       9.488   6.165  -1.891  0.50 33.07 LIG 0.24  C 
ATOM     46 O    ASN C 304       8.552   5.604  -2.475  0.50 33.39 LIG-0.27  OA
BRANCH 45 47
ATOM     47  CA  ASN C 304       9.637   6.071  -0.367  0.50 32.40 LIG 0.18  C 
BRANCH 47 48
ATOM     48  CB  ASN C 304       8.917   7.203   0.381  0.50 32.38 LIG 0.14  C 
BRANCH 48 49
ATOM     49  CG  ASN C 304       7.563   7.592  -0.264  0.50 31.77 LIG 0.22  C 
ATOM     50 OD1  ASN C 304       7.363   8.724  -0.688  0.50 27.48 LIG-0.27  OA
ATOM     51  ND2 ASN C 304       6.627   6.651  -0.290  0.50 32.56 LIG-0.37  N 
ATOM     52 21HD ASN C 304       5.849   6.828  -0.612  0.50 32.56 LIG 0.16  HD
ATOM     53 22HD ASN C 304       6.798   5.865   0.014  0.50 32.56 LIG 0.16  HD
ENDBRANCH 48 49
ENDBRANCH 47 48
BRANCH 47 54
ATOM     54  N   ASN C 304      11.032   6.084   0.003  0.50 31.56 LIG-0.34  N 
ATOM     55  C   LEU C 303      11.846   5.121  -0.403  0.50 30.83 LIG 0.26  C 
ATOM     56 O    LEU C 303      11.529   4.313  -1.263  0.50 29.02 LIG-0.27  OA
ATOM     57 H    ASN C 304      11.271   6.749   0.493  0.50 31.56 LIG 0.16  HD
BRANCH 55 58
ATOM     58  CA  LEU C 303      13.225   5.084   0.270  0.50 30.56 LIG 0.40  C 
ATOM     59  N   LEU C 303      13.360   4.020   1.302  0.50 30.88 LIG 0.61  N 
BRANCH 58 60
ATOM     60  CB  LEU C 303      14.343   4.956  -0.772  0.50 30.80 LIG 0.06  C 
BRANCH 60 61
ATOM     61  CG  LEU C 303      15.179   6.204  -1.082  0.50 30.92 LIG-0.02  C 
ATOM     62  CD2 LEU C 303      16.323   6.361  -0.063  0.50 31.43 LIG 0.01  C 
ATOM     63  CD1 LEU C 303      14.313   7.448  -1.150  0.50 30.50 LIG 0.01  C 
ENDBRANCH 60 61
ENDBRANCH 58 60
ENDBRANCH 55 58
ENDBRANCH 47 54
ENDBRANCH 45 47
ENDBRANCH 35 43
ENDBRANCH 1 35
TORSDOF 21
ENDMDL
MODEL 72
USER: ADFR SOLUTION from run 158
USER: SCORE 17.411317 LL:  -5.835 LR: -13.219 RR:   0.000 FEB:  -6.955
USER: RMSD 8.973097
USER: SEED 157
USER: STATUS no improvement in best in 7 clusters for 5 generations
USER: GENES 23
USER: genes 0 Translation |==|  0.47915 0.55006 0.18693
USER: genes 1 Rotation |==|  0.83219 0.51640 0.23861 0.76657
USER: genes 2 Torsion [N]-CA--C-[N] |==|  0.42167
USER: genes 3 Torsion [C]-N--CA-[C] |==|  0.82414
USER: genes 4 Torsion [N]-CA--C-[N] |==|  0.84633
USER: genes 5 Torsion [C]-N--CA-[CB] |==|  0.49444
USER: genes 6 Torsion [N]-CA--C-[N] |==|  0.28130
USER: genes 7 Torsion [N]-CA--C-[OXT] |==|  0.44069
USER: genes 8 Torsion [N]-CA--CB-[OG] |==|  0.36519
USER: genes 9 Torsion [CA]-CB--OG-[HG] |==|  0.19601
USER: genes 10 Torsion [N]-CA--CB-[CG2] |==|  0.56736
USER: genes 11 Torsion [CA]-CB--CG1-[CD1] |==|  0.30543
USER: genes 12 Torsion [N]-C--CA-[N] |==|  0.94333
USER: genes 13 Torsion [C]-CA--CB-[CG] |==|  0.79870
USER: genes 14 Torsion [CA]-CB--CG-[CD1] |==|  0.26553
USER: genes 15 Torsion [C]-CA--N-[C] |==|  0.76652
USER: genes 16 Torsion [N]-C--CA-[N] |==|  0.40191
USER: genes 17 Torsion [C]-CA--CB-[CG] |==|  0.12174
USER: genes 18 Torsion [CA]-CB--CG-[OD1] |==|  0.68087
USER: genes 19 Torsion [C]-CA--N-[C] |==|  0.59558
USER: genes 20 Torsion [N]-C--CA-[N] |==|  0.41046
USER: genes 21 Torsion [C]-CA--CB-[CG] |==|  0.17026
USER: genes 22 Torsion [CA]-CB--CG-[CD2] |==|  0.11393
ROOT
ATOM      1  C   PHE C 305      12.860   8.032  -6.614  0.50 34.66 LIG 0.24  C 
ATOM      2 O    PHE C 305      12.979   8.414  -7.774  0.50 33.80 LIG-0.27  OA
ATOM      3  N   PRO C 306      11.723   8.206  -5.913  0.50 35.29 LIG-0.34  N 
ATOM      4  CA  PRO C 306      10.797   9.259  -6.301  0.50 35.79 LIG 0.18  C 
ATOM      5  CB  PRO C 306       9.417   8.680  -5.911  0.50 35.80 LIG 0.04  C 
ATOM      6  CG  PRO C 306       9.710   7.378  -5.158  0.50 35.25 LIG 0.02  C 
ATOM      7  CD  PRO C 306      11.172   7.411  -4.805  0.50 35.51 LIG 0.13  C 
ENDROOT
BRANCH 4 8
ATOM      8  C   PRO C 306      11.058  10.524  -5.481  0.50 36.50 LIG 0.24  C 
ATOM      9  N   ILE C 307      10.739  11.685  -6.076  0.50 37.01 LIG-0.35  N 
ATOM     10 H    ILE C 307      10.463  11.763  -6.886  0.50 37.01 LIG 0.16  HD
ATOM     11 O    PRO C 306      11.529  10.439  -4.324  0.50 36.74 LIG-0.27  OA
BRANCH 9 12
ATOM     12  CA  ILE C 307      10.853  12.941  -5.332  0.50 37.44 LIG 0.18  C 
BRANCH 12 13
ATOM     13  C   ILE C 307       9.909  13.000  -4.130  0.50 38.23 LIG 0.24  C 
ATOM     14  N   SER C 308       8.626  12.798  -4.416  0.50 38.91 LIG-0.34  N 
ATOM     15 H    SER C 308       8.326  12.765  -5.222  0.50 38.91 LIG 0.16  HD
ATOM     16 O    ILE C 307      10.335  13.213  -2.985  0.50 38.79 LIG-0.27  OA
BRANCH 14 17
ATOM     17  CA  SER C 308       7.590  12.611  -3.404  0.50 39.43 LIG 0.20  C 
BRANCH 17 18
ATOM     18  C   SER C 308       7.974  11.341  -2.641  0.50 39.77 LIG 0.24  C 
ATOM     19  N   PRO C 309       8.563  11.493  -1.441  0.50 40.03 LIG-0.34  N 
ATOM     20  CD  PRO C 309       8.578  12.689  -0.585  0.50 39.83 LIG 0.13  C 
ATOM     21  CA  PRO C 309       9.260  10.365  -0.819  0.50 40.09 LIG 0.19  C 
ATOM     22  CG  PRO C 309       9.680  12.395   0.383  0.50 40.19 LIG 0.02  C 
ATOM     23  CB  PRO C 309       9.641  10.908   0.565  0.50 40.09 LIG 0.04  C 
ATOM     24 O    SER C 308       7.727  10.230  -3.119  0.50 39.81 LIG-0.27  OA
BRANCH 21 25
ATOM     25  C   PRO C 309       8.398   9.108  -0.703  0.50 40.04 LIG 0.20  C 
ATOM     26 OXT  PRO C 309       8.903   7.989  -0.578  0.50 40.10 LIG-0.65  OA
ATOM     27 O    PRO C 309       7.168   9.182  -0.746  0.50 40.34 LIG-0.65  OA
ENDBRANCH 21 25
ENDBRANCH 17 18
BRANCH 17 28
ATOM     28  CB  SER C 308       6.213  12.451  -4.052  0.50 39.49 LIG 0.20  C 
BRANCH 28 29
ATOM     29 OG   SER C 308       5.517  11.331  -3.524  0.50 39.70 LIG-0.40  OA
ATOM     30 HG   SER C 308       5.285  11.493  -2.733  0.50 39.70 LIG 0.21  HD
ENDBRANCH 28 29
ENDBRANCH 17 28
ENDBRANCH 14 17
ENDBRANCH 12 13
BRANCH 12 31
ATOM     31  CB  ILE C 307      10.570  14.178  -6.218  0.50 37.20 LIG 0.01  C 
ATOM     32  CG2 ILE C 307      11.250  15.430  -5.644  0.50 36.86 LIG 0.01  C 
BRANCH 31 33
ATOM     33  CG1 ILE C 307      10.989  13.878  -7.668  0.50 35.88 LIG 0.00  C 
ATOM     34  CD1 ILE C 307       9.855  13.731  -8.653  0.50 32.01 LIG 0.01  C 
ENDBRANCH 31 33
ENDBRANCH 12 31
ENDBRANCH 9 12
ENDBRANCH 4 8
BRANCH 1 35
ATOM     35  CA  PHE C 305      14.021   7.296  -5.932  0.50 34.47 LIG 0.18  C 
BRANCH 35 36
ATOM     36  CB  PHE C 305      14.017   5.851  -6.456  0.50 34.49 LIG 0.07  C 
BRANCH 36 37
ATOM     37  CG  PHE C 305      12.886   4.980  -5.932  0.50 35.55 LIG-0.06  A 
ATOM     38  CD1 PHE C 305      11.704   4.801  -6.649  0.50 36.28 LIG 0.01  A 
ATOM     39  CE1 PHE C 305      10.680   3.992  -6.148  0.50 36.66 LIG 0.00  A 
ATOM     40  CZ  PHE C 305      10.827   3.361  -4.909  0.50 36.87 LIG 0.00  A 
ATOM     41  CE2 PHE C 305      11.993   3.533  -4.185  0.50 36.76 LIG 0.00  A 
ATOM     42  CD2 PHE C 305      13.015   4.349  -4.693  0.50 36.02 LIG 0.01  A 
ENDBRANCH 36 37
ENDBRANCH 35 36
BRANCH 35 43
ATOM     43  N   PHE C 305      13.958   7.267  -4.467  0.50 33.54 LIG-0.35  N 
ATOM     44 H    PHE C 305      13.608   6.554  -4.135  0.50 33.54 LIG 0.16  HD
ATOM     45  C   ASN C 304      14.418   8.287  -3.742  0.50 33.07 LIG 0.24  C 
ATOM     46 O    ASN C 304      14.582   9.419  -4.213  0.50 33.39 LIG-0.27  OA
BRANCH 45 47
ATOM     47  CA  ASN C 304      14.751   7.986  -2.274  0.50 32.40 LIG 0.18  C 
BRANCH 47 48
ATOM     48  CB  ASN C 304      13.583   8.275  -1.319  0.50 32.38 LIG 0.14  C 
BRANCH 48 49
ATOM     49  CG  ASN C 304      12.221   7.767  -1.854  0.50 31.77 LIG 0.22  C 
ATOM     50 OD1  ASN C 304      11.319   8.546  -2.139  0.50 27.48 LIG-0.27  OA
ATOM     51  ND2 ASN C 304      12.072   6.451  -1.941  0.50 32.56 LIG-0.37  N 
ATOM     52 21HD ASN C 304      11.323   6.119  -2.205  0.50 32.56 LIG 0.16  HD
ATOM     53 22HD ASN C 304      12.724   5.930  -1.734  0.50 32.56 LIG 0.16  HD
ENDBRANCH 48 49
ENDBRANCH 47 48
BRANCH 47 54
ATOM     54  N   ASN C 304      15.898   8.752  -1.851  0.50 31.56 LIG-0.34  N 
ATOM     55  C   LEU C 303      16.762   8.249  -0.983  0.50 30.83 LIG 0.26  C 
ATOM     56 O    LEU C 303      16.761   7.068  -0.665  0.50 29.02 LIG-0.27  OA
ATOM     57 H    ASN C 304      15.961   9.534  -2.204  0.50 31.56 LIG 0.16  HD
BRANCH 55 58
ATOM     58  CA  LEU C 303      17.777   9.240  -0.399  0.50 30.56 LIG 0.40  C 
ATOM     59  N   LEU C 303      18.182   8.931   1.000  0.50 30.88 LIG 0.61  N 
BRANCH 58 60
ATOM     60  CB  LEU C 303      19.016   9.353  -1.295  0.50 30.80 LIG 0.06  C 
BRANCH 60 61
ATOM     61  CG  LEU C 303      18.818   9.858  -2.730  0.50 30.92 LIG-0.02  C 
ATOM     62  CD2 LEU C 303      17.814  11.024  -2.766  0.50 31.43 LIG 0.01  C 
ATOM     63  CD1 LEU C 303      18.405   8.732  -3.661  0.50 30.50 LIG 0.01  C 
ENDBRANCH 60 61
ENDBRANCH 58 60
ENDBRANCH 55 58
ENDBRANCH 47 54
ENDBRANCH 45 47
ENDBRANCH 35 43
ENDBRANCH 1 35
TORSDOF 21
ENDMDL
MODEL 73
USER: ADFR SOLUTION from run 25
USER: SCORE 18.054292 LL:  -5.776 LR: -13.219 RR:   0.000 FEB:  -6.955
USER: RMSD 11.359890
USER: SEED 24
USER: STATUS no improvement in best in 2 clusters for 5 generations
USER: GENES 23
USER: genes 0 Translation |==|  0.58460 0.65695 0.25068
USER: genes 1 Rotation |==|  0.22240 0.66283 0.85543 0.64176
USER: genes 2 Torsion [N]-CA--C-[N] |==|  0.52882
USER: genes 3 Torsion [C]-N--CA-[C] |==|  0.80778
USER: genes 4 Torsion [N]-CA--C-[N] |==|  0.33336
USER: genes 5 Torsion [C]-N--CA-[CB] |==|  0.54567
USER: genes 6 Torsion [N]-CA--C-[N] |==|  0.40536
USER: genes 7 Torsion [N]-CA--C-[OXT] |==|  0.78664
USER: genes 8 Torsion [N]-CA--CB-[OG] |==|  0.89591
USER: genes 9 Torsion [CA]-CB--OG-[HG] |==|  0.50342
USER: genes 10 Torsion [N]-CA--CB-[CG2] |==|  0.40412
USER: genes 11 Torsion [CA]-CB--CG1-[CD1] |==|  0.70298
USER: genes 12 Torsion [N]-C--CA-[N] |==|  0.82495
USER: genes 13 Torsion [C]-CA--CB-[CG] |==|  0.33240
USER: genes 14 Torsion [CA]-CB--CG-[CD1] |==|  0.56195
USER: genes 15 Torsion [C]-CA--N-[C] |==|  0.67951
USER: genes 16 Torsion [N]-C--CA-[N] |==|  0.96239
USER: genes 17 Torsion [C]-CA--CB-[CG] |==|  0.23199
USER: genes 18 Torsion [CA]-CB--CG-[OD1] |==|  0.34972
USER: genes 19 Torsion [C]-CA--N-[C] |==|  0.77785
USER: genes 20 Torsion [N]-C--CA-[N] |==|  0.29945
USER: genes 21 Torsion [C]-CA--CB-[CG] |==|  0.27994
USER: genes 22 Torsion [CA]-CB--CG-[CD2] |==|  0.90755
ROOT
ATOM      1  C   PHE C 305      15.549  10.598  -5.323  0.50 34.66 LIG 0.24  C 
ATOM      2 O    PHE C 305      16.361  10.791  -6.223  0.50 33.80 LIG-0.27  OA
ATOM      3  N   PRO C 306      15.592  11.277  -4.160  0.50 35.29 LIG-0.34  N 
ATOM      4  CA  PRO C 306      16.844  11.877  -3.727  0.50 35.79 LIG 0.18  C 
ATOM      5  CB  PRO C 306      16.385  13.129  -2.943  0.50 35.80 LIG 0.04  C 
ATOM      6  CG  PRO C 306      14.858  13.029  -2.857  0.50 35.25 LIG 0.02  C 
ATOM      7  CD  PRO C 306      14.503  11.617  -3.231  0.50 35.51 LIG 0.13  C 
ENDROOT
BRANCH 4 8
ATOM      8  C   PRO C 306      17.583  10.935  -2.775  0.50 36.50 LIG 0.24  C 
ATOM      9  N   ILE C 307      18.643  11.458  -2.138  0.50 37.01 LIG-0.35  N 
ATOM     10 H    ILE C 307      18.958  12.246  -2.273  0.50 37.01 LIG 0.16  HD
ATOM     11 O    PRO C 306      17.185   9.759  -2.618  0.50 36.74 LIG-0.27  OA
BRANCH 9 12
ATOM     12  CA  ILE C 307      19.350  10.668  -1.128  0.50 37.44 LIG 0.18  C 
BRANCH 12 13
ATOM     13  C   ILE C 307      18.517  10.449   0.137  0.50 38.23 LIG 0.24  C 
ATOM     14  N   SER C 308      18.272   9.176   0.432  0.50 38.91 LIG-0.34  N 
ATOM     15 H    SER C 308      18.451   8.529  -0.107  0.50 38.91 LIG 0.16  HD
ATOM     16 O    ILE C 307      18.123  11.404   0.822  0.50 38.79 LIG-0.27  OA
BRANCH 14 17
ATOM     17  CA  SER C 308      17.677   8.736   1.691  0.50 39.43 LIG 0.20  C 
BRANCH 17 18
ATOM     18  C   SER C 308      18.379   9.538   2.789  0.50 39.77 LIG 0.24  C 
ATOM     19  N   PRO C 309      17.651   9.884   3.866  0.50 40.03 LIG-0.34  N 
ATOM     20  CD  PRO C 309      16.375   9.307   4.318  0.50 39.83 LIG 0.13  C 
ATOM     21  CA  PRO C 309      18.136  10.923   4.776  0.50 40.09 LIG 0.19  C 
ATOM     22  CG  PRO C 309      15.873  10.327   5.292  0.50 40.19 LIG 0.02  C 
ATOM     23  CB  PRO C 309      17.110  10.897   5.917  0.50 40.09 LIG 0.04  C 
ATOM     24 O    SER C 308      19.573   9.831   2.678  0.50 39.81 LIG-0.27  OA
BRANCH 21 25
ATOM     25  C   PRO C 309      19.550  10.661   5.296  0.50 40.04 LIG 0.20  C 
ATOM     26 OXT  PRO C 309      19.767   9.832   6.184  0.50 40.10 LIG-0.65  OA
ATOM     27 O    PRO C 309      20.512  11.287   4.847  0.50 40.34 LIG-0.65  OA
ENDBRANCH 21 25
ENDBRANCH 17 18
BRANCH 17 28
ATOM     28  CB  SER C 308      17.892   7.236   1.903  0.50 39.49 LIG 0.20  C 
BRANCH 28 29
ATOM     29 OG   SER C 308      17.786   6.518   0.681  0.50 39.70 LIG-0.40  OA
ATOM     30 HG   SER C 308      17.891   5.698   0.828  0.50 39.70 LIG 0.21  HD
ENDBRANCH 28 29
ENDBRANCH 17 28
ENDBRANCH 14 17
ENDBRANCH 12 13
BRANCH 12 31
ATOM     31  CB  ILE C 307      20.691  11.316  -0.706  0.50 37.20 LIG 0.01  C 
ATOM     32  CG2 ILE C 307      20.978  11.061   0.782  0.50 36.86 LIG 0.01  C 
BRANCH 31 33
ATOM     33  CG1 ILE C 307      21.816  10.815  -1.629  0.50 35.88 LIG 0.00  C 
ATOM     34  CD1 ILE C 307      22.776   9.831  -1.006  0.50 32.01 LIG 0.01  C 
ENDBRANCH 31 33
ENDBRANCH 12 31
ENDBRANCH 9 12
ENDBRANCH 4 8
BRANCH 1 35
ATOM     35  CA  PHE C 305      14.417   9.582  -5.523  0.50 34.47 LIG 0.18  C 
BRANCH 35 36
ATOM     36  CB  PHE C 305      13.090  10.340  -5.373  0.50 34.49 LIG 0.07  C 
BRANCH 36 37
ATOM     37  CG  PHE C 305      12.190  10.312  -6.598  0.50 35.55 LIG-0.06  A 
ATOM     38  CD1 PHE C 305      11.209  11.279  -6.812  0.50 36.28 LIG 0.01  A 
ATOM     39  CE1 PHE C 305      10.396  11.234  -7.949  0.50 36.66 LIG 0.00  A 
ATOM     40  CZ  PHE C 305      10.551  10.204  -8.881  0.50 36.87 LIG 0.00  A 
ATOM     41  CE2 PHE C 305      11.517   9.234  -8.679  0.50 36.76 LIG 0.00  A 
ATOM     42  CD2 PHE C 305      12.327   9.285  -7.534  0.50 36.02 LIG 0.01  A 
ENDBRANCH 36 37
ENDBRANCH 35 36
BRANCH 35 43
ATOM     43  N   PHE C 305      14.426   8.455  -4.583  0.50 33.54 LIG-0.35  N 
ATOM     44 H    PHE C 305      14.293   8.671  -3.761  0.50 33.54 LIG 0.16  HD
ATOM     45  C   ASN C 304      14.628   7.209  -5.011  0.50 33.07 LIG 0.24  C 
ATOM     46 O    ASN C 304      15.156   6.955  -6.100  0.50 33.39 LIG-0.27  OA
BRANCH 45 47
ATOM     47  CA  ASN C 304      14.156   6.083  -4.081  0.50 32.40 LIG 0.18  C 
BRANCH 47 48
ATOM     48  CB  ASN C 304      12.916   5.344  -4.607  0.50 32.38 LIG 0.14  C 
BRANCH 48 49
ATOM     49  CG  ASN C 304      13.261   4.231  -5.629  0.50 31.77 LIG 0.22  C 
ATOM     50 OD1  ASN C 304      12.871   3.080  -5.471  0.50 27.48 LIG-0.27  OA
ATOM     51  ND2 ASN C 304      14.034   4.583  -6.650  0.50 32.56 LIG-0.37  N 
ATOM     52 21HD ASN C 304      14.277   3.993  -7.228  0.50 32.56 LIG 0.16  HD
ATOM     53 22HD ASN C 304      14.291   5.399  -6.733  0.50 32.56 LIG 0.16  HD
ENDBRANCH 48 49
ENDBRANCH 47 48
BRANCH 47 54
ATOM     54  N   ASN C 304      13.863   6.605  -2.768  0.50 31.56 LIG-0.34  N 
ATOM     55  C   LEU C 303      14.837   6.844  -1.904  0.50 30.83 LIG 0.26  C 
ATOM     56 O    LEU C 303      16.016   6.844  -2.228  0.50 29.02 LIG-0.27  OA
ATOM     57 H    ASN C 304      13.028   6.740  -2.610  0.50 31.56 LIG 0.16  HD
BRANCH 55 58
ATOM     58  CA  LEU C 303      14.398   7.130  -0.462  0.50 30.56 LIG 0.40  C 
ATOM     59  N   LEU C 303      14.693   6.022   0.486  0.50 30.88 LIG 0.61  N 
BRANCH 58 60
ATOM     60  CB  LEU C 303      15.006   8.441   0.050  0.50 30.80 LIG 0.06  C 
BRANCH 60 61
ATOM     61  CG  LEU C 303      14.116   9.690   0.057  0.50 30.92 LIG-0.02  C 
ATOM     62  CD2 LEU C 303      13.129   9.664  -1.125  0.50 31.43 LIG 0.01  C 
ATOM     63  CD1 LEU C 303      14.946  10.961   0.068  0.50 30.50 LIG 0.01  C 
ENDBRANCH 60 61
ENDBRANCH 58 60
ENDBRANCH 55 58
ENDBRANCH 47 54
ENDBRANCH 45 47
ENDBRANCH 35 43
ENDBRANCH 1 35
TORSDOF 21
ENDMDL
MODEL 74
USER: ADFR SOLUTION from run 71
USER: SCORE 17.291083 LL:  -5.378 LR: -13.205 RR:   0.000 FEB:  -6.941
USER: RMSD 4.545295
USER: SEED 70
USER: STATUS no improvement in best in 17 clusters for 5 generations
USER: GENES 23
USER: genes 0 Translation |==|  0.62444 0.51141 0.50389
USER: genes 1 Rotation |==|  0.44544 0.31220 0.47654 0.95957
USER: genes 2 Torsion [N]-CA--C-[N] |==|  0.61099
USER: genes 3 Torsion [C]-N--CA-[C] |==|  0.73519
USER: genes 4 Torsion [N]-CA--C-[N] |==|  0.92785
USER: genes 5 Torsion [C]-N--CA-[CB] |==|  0.19471
USER: genes 6 Torsion [N]-CA--C-[N] |==|  0.83769
USER: genes 7 Torsion [N]-CA--C-[OXT] |==|  0.80431
USER: genes 8 Torsion [N]-CA--CB-[OG] |==|  0.05893
USER: genes 9 Torsion [CA]-CB--OG-[HG] |==|  0.61449
USER: genes 10 Torsion [N]-CA--CB-[CG2] |==|  0.15093
USER: genes 11 Torsion [CA]-CB--CG1-[CD1] |==|  0.68797
USER: genes 12 Torsion [N]-C--CA-[N] |==|  0.36377
USER: genes 13 Torsion [C]-CA--CB-[CG] |==|  0.29094
USER: genes 14 Torsion [CA]-CB--CG-[CD1] |==|  0.24466
USER: genes 15 Torsion [C]-CA--N-[C] |==|  0.83524
USER: genes 16 Torsion [N]-C--CA-[N] |==|  0.15556
USER: genes 17 Torsion [C]-CA--CB-[CG] |==|  0.37881
USER: genes 18 Torsion [CA]-CB--CG-[OD1] |==|  0.10937
USER: genes 19 Torsion [C]-CA--N-[C] |==|  0.64013
USER: genes 20 Torsion [N]-C--CA-[N] |==|  0.81715
USER: genes 21 Torsion [C]-CA--CB-[CG] |==|  0.05557
USER: genes 22 Torsion [CA]-CB--CG-[CD2] |==|  0.64370
ROOT
ATOM      1  C   PHE C 305      16.565   7.105  -0.195  0.50 34.66 LIG 0.24  C 
ATOM      2 O    PHE C 305      17.257   6.135   0.099  0.50 33.80 LIG-0.27  OA
ATOM      3  N   PRO C 306      15.245   6.997  -0.441  0.50 35.29 LIG-0.34  N 
ATOM      4  CA  PRO C 306      14.696   5.715  -0.854  0.50 35.79 LIG 0.18  C 
ATOM      5  CB  PRO C 306      13.266   5.735  -0.268  0.50 35.80 LIG 0.04  C 
ATOM      6  CG  PRO C 306      13.069   7.145   0.301  0.50 35.25 LIG 0.02  C 
ATOM      7  CD  PRO C 306      14.174   7.991  -0.270  0.50 35.51 LIG 0.13  C 
ENDROOT
BRANCH 4 8
ATOM      8  C   PRO C 306      14.609   5.642  -2.380  0.50 36.50 LIG 0.24  C 
ATOM      9  N   ILE C 307      13.507   5.058  -2.878  0.50 37.01 LIG-0.35  N 
ATOM     10 H    ILE C 307      12.895   4.680  -2.406  0.50 37.01 LIG 0.16  HD
ATOM     11 O    PRO C 306      15.524   6.121  -3.088  0.50 36.74 LIG-0.27  OA
BRANCH 9 12
ATOM     12  CA  ILE C 307      13.283   5.035  -4.324  0.50 37.44 LIG 0.18  C 
BRANCH 12 13
ATOM     13  C   ILE C 307      12.391   6.185  -4.799  0.50 38.23 LIG 0.24  C 
ATOM     14  N   SER C 308      11.555   6.660  -3.881  0.50 38.91 LIG-0.34  N 
ATOM     15 H    SER C 308      11.426   6.276  -3.122  0.50 38.91 LIG 0.16  HD
ATOM     16 O    ILE C 307      12.471   6.627  -5.955  0.50 38.79 LIG-0.27  OA
BRANCH 14 17
ATOM     17  CA  SER C 308      10.767   7.877  -4.056  0.50 39.43 LIG 0.20  C 
BRANCH 17 18
ATOM     18  C   SER C 308      10.157   8.183  -2.686  0.50 39.77 LIG 0.24  C 
ATOM     19  N   PRO C 309       9.375   7.239  -2.132  0.50 40.03 LIG-0.34  N 
ATOM     20  CD  PRO C 309       9.298   5.810  -2.477  0.50 39.83 LIG 0.13  C 
ATOM     21  CA  PRO C 309       8.493   7.582  -1.014  0.50 40.09 LIG 0.19  C 
ATOM     22  CG  PRO C 309       8.020   5.378  -1.829  0.50 40.19 LIG 0.02  C 
ATOM     23  CB  PRO C 309       7.912   6.224  -0.597  0.50 40.09 LIG 0.04  C 
ATOM     24 O    SER C 308      10.399   9.254  -2.122  0.50 39.81 LIG-0.27  OA
BRANCH 21 25
ATOM     25  C   PRO C 309       9.222   8.254   0.149  0.50 40.04 LIG 0.20  C 
ATOM     26 OXT  PRO C 309      10.004   7.627   0.869  0.50 40.10 LIG-0.65  OA
ATOM     27 O    PRO C 309       9.035   9.446   0.405  0.50 40.34 LIG-0.65  OA
ENDBRANCH 21 25
ENDBRANCH 17 18
BRANCH 17 28
ATOM     28  CB  SER C 308       9.667   7.672  -5.099  0.50 39.49 LIG 0.20  C 
BRANCH 28 29
ATOM     29 OG   SER C 308       9.366   6.294  -5.272  0.50 39.70 LIG-0.40  OA
ATOM     30 HG   SER C 308       9.257   6.131  -6.089  0.50 39.70 LIG 0.21  HD
ENDBRANCH 28 29
ENDBRANCH 17 28
ENDBRANCH 14 17
ENDBRANCH 12 13
BRANCH 12 31
ATOM     31  CB  ILE C 307      12.639   3.710  -4.800  0.50 37.20 LIG 0.01  C 
ATOM     32  CG2 ILE C 307      11.346   3.419  -4.023  0.50 36.86 LIG 0.01  C 
BRANCH 31 33
ATOM     33  CG1 ILE C 307      12.426   3.762  -6.323  0.50 35.88 LIG 0.00  C 
ATOM     34  CD1 ILE C 307      10.987   3.801  -6.775  0.50 32.01 LIG 0.01  C 
ENDBRANCH 31 33
ENDBRANCH 12 31
ENDBRANCH 9 12
ENDBRANCH 4 8
BRANCH 1 35
ATOM     35  CA  PHE C 305      17.197   8.501  -0.252  0.50 34.47 LIG 0.18  C 
BRANCH 35 36
ATOM     36  CB  PHE C 305      18.056   8.564  -1.524  0.50 34.49 LIG 0.07  C 
BRANCH 36 37
ATOM     37  CG  PHE C 305      17.456   9.367  -2.667  0.50 35.55 LIG-0.06  A 
ATOM     38  CD1 PHE C 305      17.666  10.739  -2.791  0.50 36.28 LIG 0.01  A 
ATOM     39  CE1 PHE C 305      17.107  11.456  -3.853  0.50 36.66 LIG 0.00  A 
ATOM     40  CZ  PHE C 305      16.315  10.800  -4.801  0.50 36.87 LIG 0.00  A 
ATOM     41  CE2 PHE C 305      16.094   9.439  -4.688  0.50 36.76 LIG 0.00  A 
ATOM     42  CD2 PHE C 305      16.657   8.728  -3.618  0.50 36.02 LIG 0.01  A 
ENDBRANCH 36 37
ENDBRANCH 35 36
BRANCH 35 43
ATOM     43  N   PHE C 305      18.036   8.847   0.901  0.50 33.54 LIG-0.35  N 
ATOM     44 H    PHE C 305      18.854   9.033   0.709  0.50 33.54 LIG 0.16  HD
ATOM     45  C   ASN C 304      17.531   8.859   2.135  0.50 33.07 LIG 0.24  C 
ATOM     46 O    ASN C 304      16.489   8.264   2.435  0.50 33.39 LIG-0.27  OA
BRANCH 45 47
ATOM     47  CA  ASN C 304      18.308   9.669   3.182  0.50 32.40 LIG 0.18  C 
BRANCH 47 48
ATOM     48  CB  ASN C 304      17.638   9.670   4.564  0.50 32.38 LIG 0.14  C 
BRANCH 48 49
ATOM     49  CG  ASN C 304      18.641   9.456   5.726  0.50 31.77 LIG 0.22  C 
ATOM     50 OD1  ASN C 304      19.750   9.978   5.711  0.50 27.48 LIG-0.27  OA
ATOM     51  ND2 ASN C 304      18.253   8.647   6.704  0.50 32.56 LIG-0.37  N 
ATOM     52 21HD ASN C 304      18.786   8.474   7.356  0.50 32.56 LIG 0.16  HD
ATOM     53 22HD ASN C 304      17.468   8.297   6.685  0.50 32.56 LIG 0.16  HD
ENDBRANCH 48 49
ENDBRANCH 47 48
BRANCH 47 54
ATOM     54  N   ASN C 304      18.470  11.034   2.744  0.50 31.56 LIG-0.34  N 
ATOM     55  C   LEU C 303      19.662  11.610   2.755  0.50 30.83 LIG 0.26  C 
ATOM     56 O    LEU C 303      20.695  10.977   2.924  0.50 29.02 LIG-0.27  OA
ATOM     57 H    ASN C 304      17.745  11.420   2.485  0.50 31.56 LIG 0.16  HD
BRANCH 55 58
ATOM     58  CA  LEU C 303      19.674  13.128   2.536  0.50 30.56 LIG 0.40  C 
ATOM     59  N   LEU C 303      19.220  13.543   1.181  0.50 30.88 LIG 0.61  N 
BRANCH 58 60
ATOM     60  CB  LEU C 303      18.851  13.846   3.613  0.50 30.80 LIG 0.06  C 
BRANCH 60 61
ATOM     61  CG  LEU C 303      18.571  13.095   4.920  0.50 30.92 LIG-0.02  C 
ATOM     62  CD2 LEU C 303      17.067  13.109   5.248  0.50 31.43 LIG 0.01  C 
ATOM     63  CD1 LEU C 303      19.401  13.650   6.065  0.50 30.50 LIG 0.01  C 
ENDBRANCH 60 61
ENDBRANCH 58 60
ENDBRANCH 55 58
ENDBRANCH 47 54
ENDBRANCH 45 47
ENDBRANCH 35 43
ENDBRANCH 1 35
TORSDOF 21
ENDMDL
MODEL 75
USER: ADFR SOLUTION from run 9
USER: SCORE 18.922996 LL:  -6.856 LR: -13.209 RR:   0.000 FEB:  -6.945
USER: RMSD 9.273208
USER: SEED 258994
USER: STATUS no improvement in best in 23 clusters for 5 generations
USER: GENES 23
USER: genes 0 Translation |==|  0.38314 0.46841 0.27450
USER: genes 1 Rotation |==|  0.66296 0.96423 0.42803 0.55252
USER: genes 2 Torsion [N]-CA--C-[N] |==|  0.05335
USER: genes 3 Torsion [C]-N--CA-[C] |==|  0.78536
USER: genes 4 Torsion [N]-CA--C-[N] |==|  0.33388
USER: genes 5 Torsion [C]-N--CA-[CB] |==|  0.51196
USER: genes 6 Torsion [N]-CA--C-[N] |==|  0.28070
USER: genes 7 Torsion [N]-CA--C-[OXT] |==|  0.30170
USER: genes 8 Torsion [N]-CA--CB-[OG] |==|  0.93928
USER: genes 9 Torsion [CA]-CB--OG-[HG] |==|  0.20473
USER: genes 10 Torsion [N]-CA--CB-[CG2] |==|  0.51907
USER: genes 11 Torsion [CA]-CB--CG1-[CD1] |==|  0.48667
USER: genes 12 Torsion [N]-C--CA-[N] |==|  0.44876
USER: genes 13 Torsion [C]-CA--CB-[CG] |==|  0.41516
USER: genes 14 Torsion [CA]-CB--CG-[CD1] |==|  0.36065
USER: genes 15 Torsion [C]-CA--N-[C] |==|  0.64444
USER: genes 16 Torsion [N]-C--CA-[N] |==|  0.05083
USER: genes 17 Torsion [C]-CA--CB-[CG] |==|  0.89638
USER: genes 18 Torsion [CA]-CB--CG-[OD1] |==|  0.79565
USER: genes 19 Torsion [C]-CA--N-[C] |==|  0.69251
USER: genes 20 Torsion [N]-C--CA-[N] |==|  0.34410
USER: genes 21 Torsion [C]-CA--CB-[CG] |==|  0.24014
USER: genes 22 Torsion [CA]-CB--CG-[CD2] |==|  0.05201
ROOT
ATOM      1  C   PHE C 305      10.412   6.073  -4.840  0.50 34.66 LIG 0.24  C 
ATOM      2 O    PHE C 305       9.267   5.991  -4.406  0.50 33.80 LIG-0.27  OA
ATOM      3  N   PRO C 306      11.154   4.983  -5.119  0.50 35.29 LIG-0.34  N 
ATOM      4  CA  PRO C 306      10.842   3.720  -4.469  0.50 35.79 LIG 0.18  C 
ATOM      5  CB  PRO C 306      11.247   2.667  -5.527  0.50 35.80 LIG 0.04  C 
ATOM      6  CG  PRO C 306      11.931   3.450  -6.653  0.50 35.25 LIG 0.02  C 
ATOM      7  CD  PRO C 306      12.241   4.812  -6.096  0.50 35.51 LIG 0.13  C 
ENDROOT
BRANCH 4 8
ATOM      8  C   PRO C 306      11.711   3.536  -3.223  0.50 36.50 LIG 0.24  C 
ATOM      9  N   ILE C 307      12.268   4.653  -2.726  0.50 37.01 LIG-0.35  N 
ATOM     10 H    ILE C 307      12.217   5.431  -3.088  0.50 37.01 LIG 0.16  HD
ATOM     11 O    PRO C 306      11.859   2.400  -2.720  0.50 36.74 LIG-0.27  OA
BRANCH 9 12
ATOM     12  CA  ILE C 307      13.028   4.595  -1.477  0.50 37.44 LIG 0.18  C 
BRANCH 12 13
ATOM     13  C   ILE C 307      12.127   4.522  -0.242  0.50 38.23 LIG 0.24  C 
ATOM     14  N   SER C 308      12.298   3.440   0.512  0.50 38.91 LIG-0.34  N 
ATOM     15 H    SER C 308      12.778   2.770   0.266  0.50 38.91 LIG 0.16  HD
ATOM     16 O    ILE C 307      11.315   5.422   0.018  0.50 38.79 LIG-0.27  OA
BRANCH 14 17
ATOM     17  CA  SER C 308      11.694   3.268   1.830  0.50 39.43 LIG 0.20  C 
BRANCH 17 18
ATOM     18  C   SER C 308      12.142   4.476   2.657  0.50 39.77 LIG 0.24  C 
ATOM     19  N   PRO C 309      11.260   5.479   2.816  0.50 40.03 LIG-0.34  N 
ATOM     20  CD  PRO C 309       9.803   5.444   2.615  0.50 39.83 LIG 0.13  C 
ATOM     21  CA  PRO C 309      11.717   6.789   3.285  0.50 40.09 LIG 0.19  C 
ATOM     22  CG  PRO C 309       9.438   6.894   2.552  0.50 40.19 LIG 0.02  C 
ATOM     23  CB  PRO C 309      10.410   7.572   3.469  0.50 40.09 LIG 0.04  C 
ATOM     24 O    SER C 308      13.267   4.500   3.164  0.50 39.81 LIG-0.27  OA
BRANCH 21 25
ATOM     25  C   PRO C 309      12.512   6.723   4.589  0.50 40.04 LIG 0.20  C 
ATOM     26 OXT  PRO C 309      13.730   6.920   4.612  0.50 40.10 LIG-0.65  OA
ATOM     27 O    PRO C 309      11.953   6.456   5.655  0.50 40.34 LIG-0.65  OA
ENDBRANCH 21 25
ENDBRANCH 17 18
BRANCH 17 28
ATOM     28  CB  SER C 308      12.167   1.967   2.484  0.50 39.49 LIG 0.20  C 
BRANCH 28 29
ATOM     29 OG   SER C 308      12.637   1.041   1.515  0.50 39.70 LIG-0.40  OA
ATOM     30 HG   SER C 308      13.386   1.291   1.228  0.50 39.70 LIG 0.21  HD
ENDBRANCH 28 29
ENDBRANCH 17 28
ENDBRANCH 14 17
ENDBRANCH 12 13
BRANCH 12 31
ATOM     31  CB  ILE C 307      13.971   5.811  -1.304  0.50 37.20 LIG 0.01  C 
ATOM     32  CG2 ILE C 307      14.873   5.633  -0.073  0.50 36.86 LIG 0.01  C 
BRANCH 31 33
ATOM     33  CG1 ILE C 307      14.764   6.033  -2.604  0.50 35.88 LIG 0.00  C 
ATOM     34  CD1 ILE C 307      15.646   7.258  -2.623  0.50 32.01 LIG 0.01  C 
ENDBRANCH 31 33
ENDBRANCH 12 31
ENDBRANCH 9 12
ENDBRANCH 4 8
BRANCH 1 35
ATOM     35  CA  PHE C 305      11.024   7.452  -5.119  0.50 34.47 LIG 0.18  C 
BRANCH 35 36
ATOM     36  CB  PHE C 305      12.014   7.751  -3.983  0.50 34.49 LIG 0.07  C 
BRANCH 36 37
ATOM     37  CG  PHE C 305      13.199   8.619  -4.375  0.50 35.55 LIG-0.06  A 
ATOM     38  CD1 PHE C 305      13.561   9.745  -3.636  0.50 36.28 LIG 0.01  A 
ATOM     39  CE1 PHE C 305      14.658  10.526  -4.014  0.50 36.66 LIG 0.00  A 
ATOM     40  CZ  PHE C 305      15.398  10.191  -5.151  0.50 36.87 LIG 0.00  A 
ATOM     41  CE2 PHE C 305      15.048   9.080  -5.897  0.50 36.76 LIG 0.00  A 
ATOM     42  CD2 PHE C 305      13.944   8.302  -5.512  0.50 36.02 LIG 0.01  A 
ENDBRANCH 36 37
ENDBRANCH 35 36
BRANCH 35 43
ATOM     43  N   PHE C 305      10.055   8.551  -5.203  0.50 33.54 LIG-0.35  N 
ATOM     44 H    PHE C 305       9.517   8.608  -4.535  0.50 33.54 LIG 0.16  HD
ATOM     45  C   ASN C 304      10.045   9.375  -6.252  0.50 33.07 LIG 0.24  C 
ATOM     46 O    ASN C 304      10.563   9.081  -7.336  0.50 33.39 LIG-0.27  OA
BRANCH 45 47
ATOM     47  CA  ASN C 304       9.360  10.732  -6.046  0.50 32.40 LIG 0.18  C 
BRANCH 47 48
ATOM     48  CB  ASN C 304      10.103  11.893  -6.723  0.50 32.38 LIG 0.14  C 
BRANCH 48 49
ATOM     49  CG  ASN C 304      11.645  11.751  -6.651  0.50 31.77 LIG 0.22  C 
ATOM     50 OD1  ASN C 304      12.252  11.942  -5.603  0.50 27.48 LIG-0.27  OA
ATOM     51  ND2 ASN C 304      12.267  11.460  -7.786  0.50 32.56 LIG-0.37  N 
ATOM     52 21HD ASN C 304      13.125  11.399  -7.803  0.50 32.56 LIG 0.16  HD
ATOM     53 22HD ASN C 304      11.813  11.331  -8.505  0.50 32.56 LIG 0.16  HD
ENDBRANCH 48 49
ENDBRANCH 47 48
BRANCH 47 54
ATOM     54  N   ASN C 304       9.230  11.022  -4.638  0.50 31.56 LIG-0.34  N 
ATOM     55  C   LEU C 303       8.040  11.025  -4.056  0.50 30.83 LIG 0.26  C 
ATOM     56 O    LEU C 303       7.040  10.586  -4.606  0.50 29.02 LIG-0.27  OA
ATOM     57 H    ASN C 304       9.971  11.185  -4.232  0.50 31.56 LIG 0.16  HD
BRANCH 55 58
ATOM     58  CA  LEU C 303       7.990  11.611  -2.640  0.50 30.56 LIG 0.40  C 
ATOM     59  N   LEU C 303       7.017  12.727  -2.485  0.50 30.88 LIG 0.61  N 
BRANCH 58 60
ATOM     60  CB  LEU C 303       7.711  10.518  -1.601  0.50 30.80 LIG 0.06  C 
BRANCH 60 61
ATOM     61  CG  LEU C 303       8.907   9.738  -1.042  0.50 30.92 LIG-0.02  C 
ATOM     62  CD2 LEU C 303      10.221  10.503  -1.286  0.50 31.43 LIG 0.01  C 
ATOM     63  CD1 LEU C 303       8.964   8.330  -1.609  0.50 30.50 LIG 0.01  C 
ENDBRANCH 60 61
ENDBRANCH 58 60
ENDBRANCH 55 58
ENDBRANCH 47 54
ENDBRANCH 45 47
ENDBRANCH 35 43
ENDBRANCH 1 35
TORSDOF 21
ENDMDL
MODEL 76
USER: ADFR SOLUTION from run 57
USER: SCORE 18.236296 LL:  -7.072 LR: -13.209 RR:   0.000 FEB:  -6.945
USER: RMSD 9.077668
USER: SEED 56
USER: STATUS no improvement in best in 5 clusters for 5 generations
USER: GENES 23
USER: genes 0 Translation |==|  0.45926 0.58028 0.23567
USER: genes 1 Rotation |==|  0.89032 0.32915 0.34795 0.71294
USER: genes 2 Torsion [N]-CA--C-[N] |==|  0.66595
USER: genes 3 Torsion [C]-N--CA-[C] |==|  0.68956
USER: genes 4 Torsion [N]-CA--C-[N] |==|  0.05481
USER: genes 5 Torsion [C]-N--CA-[CB] |==|  0.28261
USER: genes 6 Torsion [N]-CA--C-[N] |==|  0.27661
USER: genes 7 Torsion [N]-CA--C-[OXT] |==|  0.93035
USER: genes 8 Torsion [N]-CA--CB-[OG] |==|  0.35250
USER: genes 9 Torsion [CA]-CB--OG-[HG] |==|  0.22169
USER: genes 10 Torsion [N]-CA--CB-[CG2] |==|  0.78656
USER: genes 11 Torsion [CA]-CB--CG1-[CD1] |==|  0.74600
USER: genes 12 Torsion [N]-C--CA-[N] |==|  0.56488
USER: genes 13 Torsion [C]-CA--CB-[CG] |==|  0.76173
USER: genes 14 Torsion [CA]-CB--CG-[CD1] |==|  0.80178
USER: genes 15 Torsion [C]-CA--N-[C] |==|  0.61394
USER: genes 16 Torsion [N]-C--CA-[N] |==|  0.00090
USER: genes 17 Torsion [C]-CA--CB-[CG] |==|  0.50101
USER: genes 18 Torsion [CA]-CB--CG-[OD1] |==|  0.31982
USER: genes 19 Torsion [C]-CA--N-[C] |==|  0.77621
USER: genes 20 Torsion [N]-C--CA-[N] |==|  0.21988
USER: genes 21 Torsion [C]-CA--CB-[CG] |==|  0.19322
USER: genes 22 Torsion [CA]-CB--CG-[CD2] |==|  0.09943
ROOT
ATOM      1  C   PHE C 305      12.353   8.758  -5.627  0.50 34.66 LIG 0.24  C 
ATOM      2 O    PHE C 305      13.382   8.779  -6.296  0.50 33.80 LIG-0.27  OA
ATOM      3  N   PRO C 306      11.246   9.435  -5.989  0.50 35.29 LIG-0.34  N 
ATOM      4  CA  PRO C 306      11.368  10.582  -6.876  0.50 35.79 LIG 0.18  C 
ATOM      5  CB  PRO C 306      10.039  10.560  -7.668  0.50 35.80 LIG 0.04  C 
ATOM      6  CG  PRO C 306       9.185   9.465  -7.019  0.50 35.25 LIG 0.02  C 
ATOM      7  CD  PRO C 306       9.833   9.148  -5.699  0.50 35.51 LIG 0.13  C 
ENDROOT
BRANCH 4 8
ATOM      8  C   PRO C 306      11.443  11.875  -6.062  0.50 36.50 LIG 0.24  C 
ATOM      9  N   ILE C 307      10.475  12.776  -6.301  0.50 37.01 LIG-0.35  N 
ATOM     10 H    ILE C 307       9.870  12.698  -6.907  0.50 37.01 LIG 0.16  HD
ATOM     11 O    PRO C 306      12.358  12.042  -5.225  0.50 36.74 LIG-0.27  OA
BRANCH 9 12
ATOM     12  CA  ILE C 307      10.400  13.997  -5.498  0.50 37.44 LIG 0.18  C 
BRANCH 12 13
ATOM     13  C   ILE C 307       9.170  14.030  -4.589  0.50 38.23 LIG 0.24  C 
ATOM     14  N   SER C 308       8.615  12.844  -4.355  0.50 38.91 LIG-0.34  N 
ATOM     15 H    SER C 308       8.843  12.130  -4.778  0.50 38.91 LIG 0.16  HD
ATOM     16 O    ILE C 307       8.749  15.094  -4.112  0.50 38.79 LIG-0.27  OA
BRANCH 14 17
ATOM     17  CA  SER C 308       7.567  12.621  -3.364  0.50 39.43 LIG 0.20  C 
BRANCH 17 18
ATOM     18  C   SER C 308       7.922  11.306  -2.666  0.50 39.77 LIG 0.24  C 
ATOM     19  N   PRO C 309       8.534  11.385  -1.470  0.50 40.03 LIG-0.34  N 
ATOM     20  CD  PRO C 309       8.599  12.540  -0.561  0.50 39.83 LIG 0.13  C 
ATOM     21  CA  PRO C 309       9.204  10.209  -0.912  0.50 40.09 LIG 0.19  C 
ATOM     22  CG  PRO C 309       9.706  12.167   0.375  0.50 40.19 LIG 0.02  C 
ATOM     23  CB  PRO C 309       9.623  10.675   0.489  0.50 40.09 LIG 0.04  C 
ATOM     24 O    SER C 308       7.634  10.227  -3.190  0.50 39.81 LIG-0.27  OA
BRANCH 21 25
ATOM     25  C   PRO C 309       8.305   8.975  -0.839  0.50 40.04 LIG 0.20  C 
ATOM     26 OXT  PRO C 309       7.076   9.076  -0.776  0.50 40.10 LIG-0.65  OA
ATOM     27 O    PRO C 309       8.789   7.841  -0.829  0.50 40.34 LIG-0.65  OA
ENDBRANCH 21 25
ENDBRANCH 17 18
BRANCH 17 28
ATOM     28  CB  SER C 308       6.194  12.520  -4.032  0.50 39.49 LIG 0.20  C 
BRANCH 28 29
ATOM     29 OG   SER C 308       5.517  11.331  -3.649  0.50 39.70 LIG-0.40  OA
ATOM     30 HG   SER C 308       5.171  11.437  -2.891  0.50 39.70 LIG 0.21  HD
ENDBRANCH 28 29
ENDBRANCH 17 28
ENDBRANCH 14 17
ENDBRANCH 12 13
BRANCH 12 31
ATOM     31  CB  ILE C 307      10.378  15.276  -6.371  0.50 37.20 LIG 0.01  C 
ATOM     32  CG2 ILE C 307      11.782  15.599  -6.904  0.50 36.86 LIG 0.01  C 
BRANCH 31 33
ATOM     33  CG1 ILE C 307       9.333  15.115  -7.489  0.50 35.88 LIG 0.00  C 
ATOM     34  CD1 ILE C 307       9.853  14.540  -8.784  0.50 32.01 LIG 0.01  C 
ENDBRANCH 31 33
ENDBRANCH 12 31
ENDBRANCH 9 12
ENDBRANCH 4 8
BRANCH 1 35
ATOM     35  CA  PHE C 305      12.292   7.906  -4.352  0.50 34.47 LIG 0.18  C 
BRANCH 35 36
ATOM     36  CB  PHE C 305      11.397   8.649  -3.348  0.50 34.49 LIG 0.07  C 
BRANCH 36 37
ATOM     37  CG  PHE C 305      12.107   9.692  -2.502  0.50 35.55 LIG-0.06  A 
ATOM     38  CD1 PHE C 305      13.000   9.336  -1.491  0.50 36.28 LIG 0.01  A 
ATOM     39  CE1 PHE C 305      13.644  10.315  -0.729  0.50 36.66 LIG 0.00  A 
ATOM     40  CZ  PHE C 305      13.387  11.669  -0.964  0.50 36.87 LIG 0.00  A 
ATOM     41  CE2 PHE C 305      12.500  12.037  -1.960  0.50 36.76 LIG 0.00  A 
ATOM     42  CD2 PHE C 305      11.856  11.048  -2.720  0.50 36.02 LIG 0.01  A 
ENDBRANCH 36 37
ENDBRANCH 35 36
BRANCH 35 43
ATOM     43  N   PHE C 305      13.591   7.643  -3.723  0.50 33.54 LIG-0.35  N 
ATOM     44 H    PHE C 305      14.127   8.315  -3.709  0.50 33.54 LIG 0.16  HD
ATOM     45  C   ASN C 304      13.877   6.440  -3.223  0.50 33.07 LIG 0.24  C 
ATOM     46 O    ASN C 304      13.266   5.418  -3.555  0.50 33.39 LIG-0.27  OA
BRANCH 45 47
ATOM     47  CA  ASN C 304      15.012   6.384  -2.191  0.50 32.40 LIG 0.18  C 
BRANCH 47 48
ATOM     48  CB  ASN C 304      14.575   5.787  -0.845  0.50 32.38 LIG 0.14  C 
BRANCH 48 49
ATOM     49  CG  ASN C 304      15.720   5.739   0.198  0.50 31.77 LIG 0.22  C 
ATOM     50 OD1  ASN C 304      15.671   6.403   1.227  0.50 27.48 LIG-0.27  OA
ATOM     51  ND2 ASN C 304      16.767   4.982  -0.106  0.50 32.56 LIG-0.37  N 
ATOM     52 21HD ASN C 304      17.441   4.945   0.428  0.50 32.56 LIG 0.16  HD
ATOM     53 22HD ASN C 304      16.772   4.527  -0.836  0.50 32.56 LIG 0.16  HD
ENDBRANCH 48 49
ENDBRANCH 47 48
BRANCH 47 54
ATOM     54  N   ASN C 304      15.551   7.703  -1.962  0.50 31.56 LIG-0.34  N 
ATOM     55  C   LEU C 303      16.425   8.231  -2.806  0.50 30.83 LIG 0.26  C 
ATOM     56 O    LEU C 303      16.655   7.742  -3.903  0.50 29.02 LIG-0.27  OA
ATOM     57 H    ASN C 304      15.260   8.095  -1.254  0.50 31.56 LIG 0.16  HD
BRANCH 55 58
ATOM     58  CA  LEU C 303      17.133   9.504  -2.325  0.50 30.56 LIG 0.40  C 
ATOM     59  N   LEU C 303      18.250   9.248  -1.376  0.50 30.88 LIG 0.61  N 
BRANCH 58 60
ATOM     60  CB  LEU C 303      17.627  10.340  -3.512  0.50 30.80 LIG 0.06  C 
BRANCH 60 61
ATOM     61  CG  LEU C 303      16.576  11.033  -4.388  0.50 30.92 LIG-0.02  C 
ATOM     62  CD2 LEU C 303      15.389  11.518  -3.537  0.50 31.43 LIG 0.01  C 
ATOM     63  CD1 LEU C 303      16.122  10.133  -5.524  0.50 30.50 LIG 0.01  C 
ENDBRANCH 60 61
ENDBRANCH 58 60
ENDBRANCH 55 58
ENDBRANCH 47 54
ENDBRANCH 45 47
ENDBRANCH 35 43
ENDBRANCH 1 35
TORSDOF 21
ENDMDL
MODEL 77
USER: ADFR SOLUTION from run 116
USER: SCORE 17.674199 LL:  -5.685 LR: -13.204 RR:   0.000 FEB:  -6.940
USER: RMSD 10.469725
USER: SEED 115
USER: STATUS no improvement in best in 9 clusters for 5 generations
USER: GENES 23
USER: genes 0 Translation |==|  0.63351 0.73151 0.76849
USER: genes 1 Rotation |==|  0.57763 0.46549 0.94465 0.71229
USER: genes 2 Torsion [N]-CA--C-[N] |==|  0.01827
USER: genes 3 Torsion [C]-N--CA-[C] |==|  0.82098
USER: genes 4 Torsion [N]-CA--C-[N] |==|  0.36782
USER: genes 5 Torsion [C]-N--CA-[CB] |==|  0.52952
USER: genes 6 Torsion [N]-CA--C-[N] |==|  0.80548
USER: genes 7 Torsion [N]-CA--C-[OXT] |==|  0.29187
USER: genes 8 Torsion [N]-CA--CB-[OG] |==|  0.95259
USER: genes 9 Torsion [CA]-CB--OG-[HG] |==|  0.12063
USER: genes 10 Torsion [N]-CA--CB-[CG2] |==|  0.32964
USER: genes 11 Torsion [CA]-CB--CG1-[CD1] |==|  0.59204
USER: genes 12 Torsion [N]-C--CA-[N] |==|  0.42756
USER: genes 13 Torsion [C]-CA--CB-[CG] |==|  0.31823
USER: genes 14 Torsion [CA]-CB--CG-[CD1] |==|  0.42679
USER: genes 15 Torsion [C]-CA--N-[C] |==|  0.67799
USER: genes 16 Torsion [N]-C--CA-[N] |==|  0.01506
USER: genes 17 Torsion [C]-CA--CB-[CG] |==|  0.95307
USER: genes 18 Torsion [CA]-CB--CG-[OD1] |==|  0.79309
USER: genes 19 Torsion [C]-CA--N-[C] |==|  0.73638
USER: genes 20 Torsion [N]-C--CA-[N] |==|  0.99700
USER: genes 21 Torsion [C]-CA--CB-[CG] |==|  0.80310
USER: genes 22 Torsion [CA]-CB--CG-[CD2] |==|  0.77324
ROOT
ATOM      1  C   PHE C 305      16.796  12.387   5.163  0.50 34.66 LIG 0.24  C 
ATOM      2 O    PHE C 305      16.952  13.581   4.924  0.50 33.80 LIG-0.27  OA
ATOM      3  N   PRO C 306      17.830  11.571   5.449  0.50 35.29 LIG-0.34  N 
ATOM      4  CA  PRO C 306      19.168  11.931   5.008  0.50 35.79 LIG 0.18  C 
ATOM      5  CB  PRO C 306      20.077  11.331   6.106  0.50 35.80 LIG 0.04  C 
ATOM      6  CG  PRO C 306      19.150  10.514   7.013  0.50 35.25 LIG 0.02  C 
ATOM      7  CD  PRO C 306      17.861  10.343   6.258  0.50 35.51 LIG 0.13  C 
ENDROOT
BRANCH 4 8
ATOM      8  C   PRO C 306      19.486  11.255   3.672  0.50 36.50 LIG 0.24  C 
ATOM      9  N   ILE C 307      18.470  10.592   3.094  0.50 37.01 LIG-0.35  N 
ATOM     10 H    ILE C 307      17.695  10.478   3.446  0.50 37.01 LIG 0.16  HD
ATOM     11 O    PRO C 306      20.631  11.347   3.175  0.50 36.74 LIG-0.27  OA
BRANCH 9 12
ATOM     12  CA  ILE C 307      18.646  10.003   1.766  0.50 37.44 LIG 0.18  C 
BRANCH 12 13
ATOM     13  C   ILE C 307      18.888  11.056   0.682  0.50 38.23 LIG 0.24  C 
ATOM     14  N   SER C 308      19.906  10.797  -0.133  0.50 38.91 LIG-0.34  N 
ATOM     15 H    SER C 308      20.468  10.161   0.009  0.50 38.91 LIG 0.16  HD
ATOM     16 O    ILE C 307      18.167  12.060   0.587  0.50 38.79 LIG-0.27  OA
BRANCH 14 17
ATOM     17  CA  SER C 308      20.184  11.556  -1.349  0.50 39.43 LIG 0.20  C 
BRANCH 17 18
ATOM     18  C   SER C 308      18.858  11.629  -2.110  0.50 39.77 LIG 0.24  C 
ATOM     19  N   PRO C 309      18.395  10.492  -2.658  0.50 40.03 LIG-0.34  N 
ATOM     20  CD  PRO C 309      18.786   9.109  -2.341  0.50 39.83 LIG 0.13  C 
ATOM     21  CA  PRO C 309      17.340  10.544  -3.673  0.50 40.09 LIG 0.19  C 
ATOM     22  CG  PRO C 309      18.254   8.335  -3.506  0.50 40.19 LIG 0.02  C 
ATOM     23  CB  PRO C 309      17.010   9.065  -3.912  0.50 40.09 LIG 0.04  C 
ATOM     24 O    SER C 308      18.245  12.698  -2.190  0.50 39.81 LIG-0.27  OA
BRANCH 21 25
ATOM     25  C   PRO C 309      16.104  11.322  -3.223  0.50 40.04 LIG 0.20  C 
ATOM     26 OXT  PRO C 309      15.866  12.456  -3.649  0.50 40.10 LIG-0.65  OA
ATOM     27 O    PRO C 309      15.316  10.838  -2.408  0.50 40.34 LIG-0.65  OA
ENDBRANCH 21 25
ENDBRANCH 17 18
BRANCH 17 28
ATOM     28  CB  SER C 308      21.251  10.860  -2.197  0.50 39.49 LIG 0.20  C 
BRANCH 28 29
ATOM     29 OG   SER C 308      21.970   9.897  -1.440  0.50 39.70 LIG-0.40  OA
ATOM     30 HG   SER C 308      21.434   9.454  -0.969  0.50 39.70 LIG 0.21  HD
ENDBRANCH 28 29
ENDBRANCH 17 28
ENDBRANCH 14 17
ENDBRANCH 12 13
BRANCH 12 31
ATOM     31  CB  ILE C 307      17.429   9.150   1.334  0.50 37.20 LIG 0.01  C 
ATOM     32  CG2 ILE C 307      16.783   9.722   0.063  0.50 36.86 LIG 0.01  C 
BRANCH 31 33
ATOM     33  CG1 ILE C 307      17.862   7.681   1.179  0.50 35.88 LIG 0.00  C 
ATOM     34  CD1 ILE C 307      17.146   6.905   0.101  0.50 32.01 LIG 0.01  C 
ENDBRANCH 31 33
ENDBRANCH 12 31
ENDBRANCH 9 12
ENDBRANCH 4 8
BRANCH 1 35
ATOM     35  CA  PHE C 305      15.383  11.792   5.180  0.50 34.47 LIG 0.18  C 
BRANCH 35 36
ATOM     36  CB  PHE C 305      15.134  11.163   3.801  0.50 34.49 LIG 0.07  C 
BRANCH 36 37
ATOM     37  CG  PHE C 305      14.969   9.652   3.803  0.50 35.55 LIG-0.06  A 
ATOM     38  CD1 PHE C 305      14.235   8.991   2.819  0.50 36.28 LIG 0.01  A 
ATOM     39  CE1 PHE C 305      14.101   7.599   2.840  0.50 36.66 LIG 0.00  A 
ATOM     40  CZ  PHE C 305      14.693   6.853   3.863  0.50 36.87 LIG 0.00  A 
ATOM     41  CE2 PHE C 305      15.421   7.496   4.849  0.50 36.76 LIG 0.00  A 
ATOM     42  CD2 PHE C 305      15.549   8.893   4.822  0.50 36.02 LIG 0.01  A 
ENDBRANCH 36 37
ENDBRANCH 35 36
BRANCH 35 43
ATOM     43  N   PHE C 305      14.311  12.755   5.459  0.50 33.54 LIG-0.35  N 
ATOM     44 H    PHE C 305      14.217  13.371   4.866  0.50 33.54 LIG 0.16  HD
ATOM     45  C   ASN C 304      13.565  12.648   6.559  0.50 33.07 LIG 0.24  C 
ATOM     46 O    ASN C 304      13.926  12.000   7.549  0.50 33.39 LIG-0.27  OA
BRANCH 45 47
ATOM     47  CA  ASN C 304      12.210  13.367   6.537  0.50 32.40 LIG 0.18  C 
BRANCH 47 48
ATOM     48  CB  ASN C 304      11.034  12.452   6.911  0.50 32.38 LIG 0.14  C 
BRANCH 48 49
ATOM     49  CG  ASN C 304      11.386  10.946   6.824  0.50 31.77 LIG 0.22  C 
ATOM     50 OD1  ASN C 304      11.494  10.380   5.742  0.50 27.48 LIG-0.27  OA
ATOM     51  ND2 ASN C 304      11.517  10.300   7.976  0.50 32.56 LIG-0.37  N 
ATOM     52 21HD ASN C 304      11.683   9.456   7.979  0.50 32.56 LIG 0.16  HD
ATOM     53 22HD ASN C 304      11.436  10.726   8.719  0.50 32.56 LIG 0.16  HD
ENDBRANCH 48 49
ENDBRANCH 47 48
BRANCH 47 54
ATOM     54  N   ASN C 304      11.962  13.932   5.232  0.50 31.56 LIG-0.34  N 
ATOM     55  C   LEU C 303      12.267  15.195   4.975  0.50 30.83 LIG 0.26  C 
ATOM     56 O    LEU C 303      12.952  15.872   5.729  0.50 29.02 LIG-0.27  OA
ATOM     57 H    ASN C 304      11.611  13.391   4.663  0.50 31.56 LIG 0.16  HD
BRANCH 55 58
ATOM     58  CA  LEU C 303      11.713  15.763   3.662  0.50 30.56 LIG 0.40  C 
ATOM     59  N   LEU C 303      10.930  14.779   2.865  0.50 30.88 LIG 0.61  N 
BRANCH 58 60
ATOM     60  CB  LEU C 303      10.876  17.023   3.916  0.50 30.80 LIG 0.06  C 
BRANCH 60 61
ATOM     61  CG  LEU C 303       9.514  16.852   4.601  0.50 30.92 LIG-0.02  C 
ATOM     62  CD2 LEU C 303       8.439  16.429   3.583  0.50 31.43 LIG 0.01  C 
ATOM     63  CD1 LEU C 303       9.112  18.108   5.354  0.50 30.50 LIG 0.01  C 
ENDBRANCH 60 61
ENDBRANCH 58 60
ENDBRANCH 55 58
ENDBRANCH 47 54
ENDBRANCH 45 47
ENDBRANCH 35 43
ENDBRANCH 1 35
TORSDOF 21
ENDMDL
MODEL 78
USER: ADFR SOLUTION from run 9
USER: SCORE 17.990593 LL:  -6.178 LR: -13.204 RR:   0.000 FEB:  -6.939
USER: RMSD 9.808678
USER: SEED 258994
USER: STATUS no improvement in best in 23 clusters for 5 generations
USER: GENES 23
USER: genes 0 Translation |==|  0.38783 0.48692 0.27688
USER: genes 1 Rotation |==|  0.68517 0.95531 0.40858 0.50679
USER: genes 2 Torsion [N]-CA--C-[N] |==|  0.06406
USER: genes 3 Torsion [C]-N--CA-[C] |==|  0.73518
USER: genes 4 Torsion [N]-CA--C-[N] |==|  0.37761
USER: genes 5 Torsion [C]-N--CA-[CB] |==|  0.46118
USER: genes 6 Torsion [N]-CA--C-[N] |==|  0.41724
USER: genes 7 Torsion [N]-CA--C-[OXT] |==|  0.86646
USER: genes 8 Torsion [N]-CA--CB-[OG] |==|  0.93486
USER: genes 9 Torsion [CA]-CB--OG-[HG] |==|  0.21063
USER: genes 10 Torsion [N]-CA--CB-[CG2] |==|  0.96247
USER: genes 11 Torsion [CA]-CB--CG1-[CD1] |==|  0.43579
USER: genes 12 Torsion [N]-C--CA-[N] |==|  0.37162
USER: genes 13 Torsion [C]-CA--CB-[CG] |==|  0.40896
USER: genes 14 Torsion [CA]-CB--CG-[CD1] |==|  0.43285
USER: genes 15 Torsion [C]-CA--N-[C] |==|  0.61367
USER: genes 16 Torsion [N]-C--CA-[N] |==|  0.09001
USER: genes 17 Torsion [C]-CA--CB-[CG] |==|  0.49943
USER: genes 18 Torsion [CA]-CB--CG-[OD1] |==|  0.18312
USER: genes 19 Torsion [C]-CA--N-[C] |==|  0.16497
USER: genes 20 Torsion [N]-C--CA-[N] |==|  0.62299
USER: genes 21 Torsion [C]-CA--CB-[CG] |==|  0.23050
USER: genes 22 Torsion [CA]-CB--CG-[CD2] |==|  0.56683
ROOT
ATOM      1  C   PHE C 305      10.532   6.517  -4.792  0.50 34.66 LIG 0.24  C 
ATOM      2 O    PHE C 305       9.481   6.582  -4.161  0.50 33.80 LIG-0.27  OA
ATOM      3  N   PRO C 306      11.068   5.342  -5.176  0.50 35.29 LIG-0.34  N 
ATOM      4  CA  PRO C 306      10.718   4.127  -4.456  0.50 35.79 LIG 0.18  C 
ATOM      5  CB  PRO C 306      10.791   3.034  -5.548  0.50 35.80 LIG 0.04  C 
ATOM      6  CG  PRO C 306      11.358   3.727  -6.793  0.50 35.25 LIG 0.02  C 
ATOM      7  CD  PRO C 306      11.932   5.036  -6.326  0.50 35.51 LIG 0.13  C 
ENDROOT
BRANCH 4 8
ATOM      8  C   PRO C 306      11.765   3.829  -3.381  0.50 36.50 LIG 0.24  C 
ATOM      9  N   ILE C 307      12.484   4.881  -2.954  0.50 37.01 LIG-0.35  N 
ATOM     10 H    ILE C 307      12.436   5.674  -3.281  0.50 37.01 LIG 0.16  HD
ATOM     11 O    PRO C 306      11.903   2.666  -2.941  0.50 36.74 LIG-0.27  OA
BRANCH 9 12
ATOM     12  CA  ILE C 307      13.434   4.716  -1.853  0.50 37.44 LIG 0.18  C 
BRANCH 12 13
ATOM     13  C   ILE C 307      12.836   5.096  -0.497  0.50 38.23 LIG 0.24  C 
ATOM     14  N   SER C 308      13.108   4.248   0.491  0.50 38.91 LIG-0.34  N 
ATOM     15 H    SER C 308      13.478   3.483   0.361  0.50 38.91 LIG 0.16  HD
ATOM     16 O    ILE C 307      12.161   6.126  -0.356  0.50 38.79 LIG-0.27  OA
BRANCH 14 17
ATOM     17  CA  SER C 308      12.812   4.520   1.895  0.50 39.43 LIG 0.20  C 
BRANCH 17 18
ATOM     18  C   SER C 308      13.849   5.549   2.352  0.50 39.77 LIG 0.24  C 
ATOM     19  N   PRO C 309      13.485   6.406   3.322  0.50 40.03 LIG-0.34  N 
ATOM     20  CD  PRO C 309      12.362   6.282   4.265  0.50 39.83 LIG 0.13  C 
ATOM     21  CA  PRO C 309      14.275   7.615   3.566  0.50 40.09 LIG 0.19  C 
ATOM     22  CG  PRO C 309      12.227   7.670   4.808  0.50 40.19 LIG 0.02  C 
ATOM     23  CB  PRO C 309      13.623   8.213   4.820  0.50 40.09 LIG 0.04  C 
ATOM     24 O    SER C 308      14.975   5.563   1.847  0.50 39.81 LIG-0.27  OA
BRANCH 21 25
ATOM     25  C   PRO C 309      15.760   7.333   3.794  0.50 40.04 LIG 0.20  C 
ATOM     26 OXT  PRO C 309      16.137   6.456   4.577  0.50 40.10 LIG-0.65  OA
ATOM     27 O    PRO C 309      16.623   7.988   3.207  0.50 40.34 LIG-0.65  OA
ENDBRANCH 21 25
ENDBRANCH 17 18
BRANCH 17 28
ATOM     28  CB  SER C 308      12.918   3.244   2.733  0.50 39.49 LIG 0.20  C 
BRANCH 28 29
ATOM     29 OG   SER C 308      12.741   2.082   1.936  0.50 39.70 LIG-0.40  OA
ATOM     30 HG   SER C 308      13.438   1.940   1.489  0.50 39.70 LIG 0.21  HD
ENDBRANCH 28 29
ENDBRANCH 17 28
ENDBRANCH 14 17
ENDBRANCH 12 13
BRANCH 12 31
ATOM     31  CB  ILE C 307      14.720   5.555  -2.055  0.50 37.20 LIG 0.01  C 
ATOM     32  CG2 ILE C 307      14.814   6.076  -3.497  0.50 36.86 LIG 0.01  C 
BRANCH 31 33
ATOM     33  CG1 ILE C 307      14.768   6.680  -1.005  0.50 35.88 LIG 0.00  C 
ATOM     34  CD1 ILE C 307      16.142   7.226  -0.703  0.50 32.01 LIG 0.01  C 
ENDBRANCH 31 33
ENDBRANCH 12 31
ENDBRANCH 9 12
ENDBRANCH 4 8
BRANCH 1 35
ATOM     35  CA  PHE C 305      11.254   7.807  -5.202  0.50 34.47 LIG 0.18  C 
BRANCH 35 36
ATOM     36  CB  PHE C 305      11.959   8.354  -3.952  0.50 34.49 LIG 0.07  C 
BRANCH 36 37
ATOM     37  CG  PHE C 305      13.269   9.079  -4.216  0.50 35.55 LIG-0.06  A 
ATOM     38  CD1 PHE C 305      13.773  10.032  -3.332  0.50 36.28 LIG 0.01  A 
ATOM     39  CE1 PHE C 305      14.982  10.683  -3.595  0.50 36.66 LIG 0.00  A 
ATOM     40  CZ  PHE C 305      15.695  10.393  -4.763  0.50 36.87 LIG 0.00  A 
ATOM     41  CE2 PHE C 305      15.204   9.453  -5.652  0.50 36.76 LIG 0.00  A 
ATOM     42  CD2 PHE C 305      13.989   8.805  -5.381  0.50 36.02 LIG 0.01  A 
ENDBRANCH 36 37
ENDBRANCH 35 36
BRANCH 35 43
ATOM     43  N   PHE C 305      10.384   8.854  -5.750  0.50 33.54 LIG-0.35  N 
ATOM     44 H    PHE C 305       9.633   8.948  -5.342  0.50 33.54 LIG 0.16  HD
ATOM     45  C   ASN C 304      10.767   9.581  -6.800  0.50 33.07 LIG 0.24  C 
ATOM     46 O    ASN C 304      11.658   9.214  -7.576  0.50 33.39 LIG-0.27  OA
BRANCH 45 47
ATOM     47  CA  ASN C 304      10.049  10.922  -6.999  0.50 32.40 LIG 0.18  C 
BRANCH 47 48
ATOM     48  CB  ASN C 304      10.889  11.949  -7.774  0.50 32.38 LIG 0.14  C 
BRANCH 48 49
ATOM     49  CG  ASN C 304      10.160  13.301  -7.978  0.50 31.77 LIG 0.22  C 
ATOM     50 OD1  ASN C 304       9.887  14.025  -7.028  0.50 27.48 LIG-0.27  OA
ATOM     51  ND2 ASN C 304       9.810  13.603  -9.222  0.50 32.56 LIG-0.37  N 
ATOM     52 21HD ASN C 304       9.378  14.330  -9.383  0.50 32.56 LIG 0.16  HD
ATOM     53 22HD ASN C 304      10.017  13.074  -9.868  0.50 32.56 LIG 0.16  HD
ENDBRANCH 48 49
ENDBRANCH 47 48
BRANCH 47 54
ATOM     54  N   ASN C 304       9.681  11.490  -5.724  0.50 31.56 LIG-0.34  N 
ATOM     55  C   LEU C 303      10.606  11.767  -4.817  0.50 30.83 LIG 0.26  C 
ATOM     56 O    LEU C 303      11.801  11.763  -5.077  0.50 29.02 LIG-0.27  OA
ATOM     57 H    ASN C 304       8.839  11.625  -5.617  0.50 31.56 LIG 0.16  HD
BRANCH 55 58
ATOM     58  CA  LEU C 303      10.087  12.102  -3.414  0.50 30.56 LIG 0.40  C 
ATOM     59  N   LEU C 303      10.756  13.277  -2.790  0.50 30.88 LIG 0.61  N 
BRANCH 58 60
ATOM     60  CB  LEU C 303       8.566  12.303  -3.422  0.50 30.80 LIG 0.06  C 
BRANCH 60 61
ATOM     61  CG  LEU C 303       7.679  11.054  -3.340  0.50 30.92 LIG-0.02  C 
ATOM     62  CD2 LEU C 303       6.289  11.331  -3.942  0.50 31.43 LIG 0.01  C 
ATOM     63  CD1 LEU C 303       7.582  10.537  -1.916  0.50 30.50 LIG 0.01  C 
ENDBRANCH 60 61
ENDBRANCH 58 60
ENDBRANCH 55 58
ENDBRANCH 47 54
ENDBRANCH 45 47
ENDBRANCH 35 43
ENDBRANCH 1 35
TORSDOF 21
ENDMDL
MODEL 79
USER: ADFR SOLUTION from run 179
USER: SCORE 17.418587 LL:  -5.643 LR: -13.185 RR:   0.000 FEB:  -6.921
USER: RMSD 11.493006
USER: SEED 178
USER: STATUS no improvement in best in 13 clusters for 5 generations
USER: GENES 23
USER: genes 0 Translation |==|  0.46771 0.57732 0.18528
USER: genes 1 Rotation |==|  0.83129 0.36194 0.27321 0.76411
USER: genes 2 Torsion [N]-CA--C-[N] |==|  0.52869
USER: genes 3 Torsion [C]-N--CA-[C] |==|  0.74116
USER: genes 4 Torsion [N]-CA--C-[N] |==|  0.08874
USER: genes 5 Torsion [C]-N--CA-[CB] |==|  0.17592
USER: genes 6 Torsion [N]-CA--C-[N] |==|  0.16072
USER: genes 7 Torsion [N]-CA--C-[OXT] |==|  0.21911
USER: genes 8 Torsion [N]-CA--CB-[OG] |==|  0.75483
USER: genes 9 Torsion [CA]-CB--OG-[HG] |==|  0.17652
USER: genes 10 Torsion [N]-CA--CB-[CG2] |==|  0.21725
USER: genes 11 Torsion [CA]-CB--CG1-[CD1] |==|  0.36934
USER: genes 12 Torsion [N]-C--CA-[N] |==|  0.22251
USER: genes 13 Torsion [C]-CA--CB-[CG] |==|  0.26481
USER: genes 14 Torsion [CA]-CB--CG-[CD1] |==|  0.77735
USER: genes 15 Torsion [C]-CA--N-[C] |==|  0.63647
USER: genes 16 Torsion [N]-C--CA-[N] |==|  0.88074
USER: genes 17 Torsion [C]-CA--CB-[CG] |==|  0.12475
USER: genes 18 Torsion [CA]-CB--CG-[OD1] |==|  0.80229
USER: genes 19 Torsion [C]-CA--N-[C] |==|  0.83292
USER: genes 20 Torsion [N]-C--CA-[N] |==|  0.87144
USER: genes 21 Torsion [C]-CA--CB-[CG] |==|  0.29516
USER: genes 22 Torsion [CA]-CB--CG-[CD2] |==|  0.77735
ROOT
ATOM      1  C   PHE C 305      12.569   8.687  -6.647  0.50 34.66 LIG 0.24  C 
ATOM      2 O    PHE C 305      13.218   8.568  -7.682  0.50 33.80 LIG-0.27  OA
ATOM      3  N   PRO C 306      11.424   9.395  -6.596  0.50 35.29 LIG-0.34  N 
ATOM      4  CA  PRO C 306      11.178  10.431  -7.587  0.50 35.79 LIG 0.18  C 
ATOM      5  CB  PRO C 306       9.640  10.416  -7.743  0.50 35.80 LIG 0.04  C 
ATOM      6  CG  PRO C 306       9.122   9.456  -6.666  0.50 35.25 LIG 0.02  C 
ATOM      7  CD  PRO C 306      10.261   9.238  -5.709  0.50 35.51 LIG 0.13  C 
ENDROOT
BRANCH 4 8
ATOM      8  C   PRO C 306      11.612  11.795  -7.048  0.50 36.50 LIG 0.24  C 
ATOM      9  N   ILE C 307      11.242  12.860  -7.779  0.50 37.01 LIG-0.35  N 
ATOM     10 H    ILE C 307      10.841  12.819  -8.538  0.50 37.01 LIG 0.16  HD
ATOM     11 O    PRO C 306      12.260  11.874  -5.980  0.50 36.74 LIG-0.27  OA
BRANCH 9 12
ATOM     12  CA  ILE C 307      11.517  14.212  -7.290  0.50 37.44 LIG 0.18  C 
BRANCH 12 13
ATOM     13  C   ILE C 307      10.347  14.802  -6.501  0.50 38.23 LIG 0.24  C 
ATOM     14  N   SER C 308       9.625  13.914  -5.824  0.50 38.91 LIG-0.34  N 
ATOM     15 H    SER C 308       9.719  13.064  -5.919  0.50 38.91 LIG 0.16  HD
ATOM     16 O    ILE C 307      10.119  16.021  -6.501  0.50 38.79 LIG-0.27  OA
BRANCH 14 17
ATOM     17  CA  SER C 308       8.598  14.278  -4.851  0.50 39.43 LIG 0.20  C 
BRANCH 17 18
ATOM     18  C   SER C 308       8.090  12.960  -4.264  0.50 39.77 LIG 0.24  C 
ATOM     19  N   PRO C 309       8.992  12.156  -3.673  0.50 40.03 LIG-0.34  N 
ATOM     20  CD  PRO C 309      10.336  12.507  -3.187  0.50 39.83 LIG 0.13  C 
ATOM     21  CA  PRO C 309       8.660  10.755  -3.402  0.50 40.09 LIG 0.19  C 
ATOM     22  CG  PRO C 309      10.987  11.171  -3.008  0.50 40.19 LIG 0.02  C 
ATOM     23  CB  PRO C 309       9.872  10.255  -2.605  0.50 40.09 LIG 0.04  C 
ATOM     24 O    SER C 308       6.891  12.672  -4.327  0.50 39.81 LIG-0.27  OA
BRANCH 21 25
ATOM     25  C   PRO C 309       7.364  10.581  -2.610  0.50 40.04 LIG 0.20  C 
ATOM     26 OXT  PRO C 309       6.260  10.665  -3.154  0.50 40.10 LIG-0.65  OA
ATOM     27 O    PRO C 309       7.392  10.363  -1.397  0.50 40.34 LIG-0.65  OA
ENDBRANCH 21 25
ENDBRANCH 17 18
BRANCH 17 28
ATOM     28  CB  SER C 308       7.454  15.042  -5.523  0.50 39.49 LIG 0.20  C 
BRANCH 28 29
ATOM     29 OG   SER C 308       7.710  16.439  -5.553  0.50 39.70 LIG-0.40  OA
ATOM     30 HG   SER C 308       8.389  16.589  -6.024  0.50 39.70 LIG 0.21  HD
ENDBRANCH 28 29
ENDBRANCH 17 28
ENDBRANCH 14 17
ENDBRANCH 12 13
BRANCH 12 31
ATOM     31  CB  ILE C 307      11.859  15.194  -8.437  0.50 37.20 LIG 0.01  C 
ATOM     32  CG2 ILE C 307      10.585  15.650  -9.165  0.50 36.86 LIG 0.01  C 
BRANCH 31 33
ATOM     33  CG1 ILE C 307      12.683  16.367  -7.878  0.50 35.88 LIG 0.00  C 
ATOM     34  CD1 ILE C 307      13.913  16.732  -8.674  0.50 32.01 LIG 0.01  C 
ENDBRANCH 31 33
ENDBRANCH 12 31
ENDBRANCH 9 12
ENDBRANCH 4 8
BRANCH 1 35
ATOM     35  CA  PHE C 305      13.037   7.981  -5.368  0.50 34.47 LIG 0.18  C 
BRANCH 35 36
ATOM     36  CB  PHE C 305      14.545   7.723  -5.514  0.50 34.49 LIG 0.07  C 
BRANCH 36 37
ATOM     37  CG  PHE C 305      15.442   8.776  -4.885  0.50 35.55 LIG-0.06  A 
ATOM     38  CD1 PHE C 305      15.718   9.984  -5.524  0.50 36.28 LIG 0.01  A 
ATOM     39  CE1 PHE C 305      16.543  10.939  -4.924  0.50 36.66 LIG 0.00  A 
ATOM     40  CZ  PHE C 305      17.116  10.684  -3.674  0.50 36.87 LIG 0.00  A 
ATOM     41  CE2 PHE C 305      16.855   9.488  -3.029  0.50 36.76 LIG 0.00  A 
ATOM     42  CD2 PHE C 305      16.027   8.533  -3.640  0.50 36.02 LIG 0.01  A 
ENDBRANCH 36 37
ENDBRANCH 35 36
BRANCH 35 43
ATOM     43  N   PHE C 305      12.365   6.708  -5.084  0.50 33.54 LIG-0.35  N 
ATOM     44 H    PHE C 305      12.333   6.162  -5.749  0.50 33.54 LIG 0.16  HD
ATOM     45  C   ASN C 304      11.858   6.456  -3.877  0.50 33.07 LIG 0.24  C 
ATOM     46 O    ASN C 304      11.598   7.351  -3.064  0.50 33.39 LIG-0.27  OA
BRANCH 45 47
ATOM     47  CA  ASN C 304      11.617   4.980  -3.533  0.50 32.40 LIG 0.18  C 
BRANCH 47 48
ATOM     48  CB  ASN C 304      12.897   4.242  -3.113  0.50 32.38 LIG 0.14  C 
BRANCH 48 49
ATOM     49  CG  ASN C 304      13.765   5.051  -2.116  0.50 31.77 LIG 0.22  C 
ATOM     50 OD1  ASN C 304      14.382   6.047  -2.475  0.50 27.48 LIG-0.27  OA
ATOM     51  ND2 ASN C 304      13.837   4.581  -0.877  0.50 32.56 LIG-0.37  N 
ATOM     52 21HD ASN C 304      14.330   4.979  -0.294  0.50 32.56 LIG 0.16  HD
ATOM     53 22HD ASN C 304      13.392   3.879  -0.656  0.50 32.56 LIG 0.16  HD
ENDBRANCH 48 49
ENDBRANCH 47 48
BRANCH 47 54
ATOM     54  N   ASN C 304      11.030   4.291  -4.656  0.50 31.56 LIG-0.34  N 
ATOM     55  C   LEU C 303       9.861   4.675  -5.148  0.50 30.83 LIG 0.26  C 
ATOM     56 O    LEU C 303       9.333   5.731  -4.833  0.50 29.02 LIG-0.27  OA
ATOM     57 H    ASN C 304      11.494   3.634  -4.961  0.50 31.56 LIG 0.16  HD
BRANCH 55 58
ATOM     58  CA  LEU C 303       9.208   3.712  -6.148  0.50 30.56 LIG 0.40  C 
ATOM     59  N   LEU C 303      10.142   3.202  -7.188  0.50 30.88 LIG 0.61  N 
BRANCH 58 60
ATOM     60  CB  LEU C 303       8.532   2.541  -5.424  0.50 30.80 LIG 0.06  C 
BRANCH 60 61
ATOM     61  CG  LEU C 303       7.000   2.532  -5.352  0.50 30.92 LIG-0.02  C 
ATOM     62  CD2 LEU C 303       6.499   3.463  -4.233  0.50 31.43 LIG 0.01  C 
ATOM     63  CD1 LEU C 303       6.462   1.121  -5.192  0.50 30.50 LIG 0.01  C 
ENDBRANCH 60 61
ENDBRANCH 58 60
ENDBRANCH 55 58
ENDBRANCH 47 54
ENDBRANCH 45 47
ENDBRANCH 35 43
ENDBRANCH 1 35
TORSDOF 21
ENDMDL
MODEL 80
USER: ADFR SOLUTION from run 51
USER: SCORE 17.944872 LL:  -5.678 LR: -13.190 RR:   0.000 FEB:  -6.925
USER: RMSD 7.671607
USER: SEED 50
USER: STATUS no improvement in best in 28 clusters for 5 generations
USER: GENES 23
USER: genes 0 Translation |==|  0.41985 0.49243 0.28311
USER: genes 1 Rotation |==|  0.72425 0.87096 0.67744 0.67498
USER: genes 2 Torsion [N]-CA--C-[N] |==|  0.21616
USER: genes 3 Torsion [C]-N--CA-[C] |==|  0.64399
USER: genes 4 Torsion [N]-CA--C-[N] |==|  0.42634
USER: genes 5 Torsion [C]-N--CA-[CB] |==|  0.52222
USER: genes 6 Torsion [N]-CA--C-[N] |==|  0.27520
USER: genes 7 Torsion [N]-CA--C-[OXT] |==|  0.39605
USER: genes 8 Torsion [N]-CA--CB-[OG] |==|  0.91739
USER: genes 9 Torsion [CA]-CB--OG-[HG] |==|  0.13354
USER: genes 10 Torsion [N]-CA--CB-[CG2] |==|  0.31727
USER: genes 11 Torsion [CA]-CB--CG1-[CD1] |==|  0.22656
USER: genes 12 Torsion [N]-C--CA-[N] |==|  0.94280
USER: genes 13 Torsion [C]-CA--CB-[CG] |==|  0.04398
USER: genes 14 Torsion [CA]-CB--CG-[CD1] |==|  0.73648
USER: genes 15 Torsion [C]-CA--N-[C] |==|  0.82097
USER: genes 16 Torsion [N]-C--CA-[N] |==|  0.46780
USER: genes 17 Torsion [C]-CA--CB-[CG] |==|  0.43956
USER: genes 18 Torsion [CA]-CB--CG-[OD1] |==|  0.98040
USER: genes 19 Torsion [C]-CA--N-[C] |==|  0.78811
USER: genes 20 Torsion [N]-C--CA-[N] |==|  0.68134
USER: genes 21 Torsion [C]-CA--CB-[CG] |==|  0.61285
USER: genes 22 Torsion [CA]-CB--CG-[CD2] |==|  0.74504
ROOT
ATOM      1  C   PHE C 305      11.348   6.649  -4.666  0.50 34.66 LIG 0.24  C 
ATOM      2 O    PHE C 305      10.320   6.885  -5.294  0.50 33.80 LIG-0.27  OA
ATOM      3  N   PRO C 306      12.210   5.682  -5.036  0.50 35.29 LIG-0.34  N 
ATOM      4  CA  PRO C 306      11.737   4.580  -5.859  0.50 35.79 LIG 0.18  C 
ATOM      5  CB  PRO C 306      12.980   4.207  -6.700  0.50 35.80 LIG 0.04  C 
ATOM      6  CG  PRO C 306      14.131   5.050  -6.139  0.50 35.25 LIG 0.02  C 
ATOM      7  CD  PRO C 306      13.661   5.581  -4.814  0.50 35.51 LIG 0.13  C 
ENDROOT
BRANCH 4 8
ATOM      8  C   PRO C 306      11.354   3.387  -4.979  0.50 36.50 LIG 0.24  C 
ATOM      9  N   ILE C 307      10.168   3.477  -4.354  0.50 37.01 LIG-0.35  N 
ATOM     10 H    ILE C 307       9.655   4.166  -4.370  0.50 37.01 LIG 0.16  HD
ATOM     11 O    PRO C 306      12.120   2.402  -4.884  0.50 36.74 LIG-0.27  OA
BRANCH 9 12
ATOM     12  CA  ILE C 307       9.667   2.343  -3.576  0.50 37.44 LIG 0.18  C 
BRANCH 12 13
ATOM     13  C   ILE C 307       8.241   1.946  -3.967  0.50 38.23 LIG 0.24  C 
ATOM     14  N   SER C 308       7.935   0.671  -3.742  0.50 38.91 LIG-0.34  N 
ATOM     15 H    SER C 308       8.520   0.082  -3.519  0.50 38.91 LIG 0.16  HD
ATOM     16 O    ILE C 307       7.450   2.771  -4.445  0.50 38.79 LIG-0.27  OA
BRANCH 14 17
ATOM     17  CA  SER C 308       6.582   0.133  -3.850  0.50 39.43 LIG 0.20  C 
BRANCH 17 18
ATOM     18  C   SER C 308       5.700   1.040  -2.988  0.50 39.77 LIG 0.24  C 
ATOM     19  N   PRO C 309       4.991   1.995  -3.617  0.50 40.03 LIG-0.34  N 
ATOM     20  CD  PRO C 309       4.657   2.079  -5.048  0.50 39.83 LIG 0.13  C 
ATOM     21  CA  PRO C 309       4.409   3.099  -2.853  0.50 40.09 LIG 0.19  C 
ATOM     22  CG  PRO C 309       4.223   3.502  -5.208  0.50 40.19 LIG 0.02  C 
ATOM     23  CB  PRO C 309       3.580   3.853  -3.901  0.50 40.09 LIG 0.04  C 
ATOM     24 O    SER C 308       5.643   0.873  -1.766  0.50 39.81 LIG-0.27  OA
BRANCH 21 25
ATOM     25  C   PRO C 309       3.538   2.636  -1.685  0.50 40.04 LIG 0.20  C 
ATOM     26 OXT  PRO C 309       3.527   3.242  -0.610  0.50 40.10 LIG-0.65  OA
ATOM     27 O    PRO C 309       2.831   1.632  -1.786  0.50 40.34 LIG-0.65  OA
ENDBRANCH 21 25
ENDBRANCH 17 18
BRANCH 17 28
ATOM     28  CB  SER C 308       6.524  -1.309  -3.341  0.50 39.49 LIG 0.20  C 
BRANCH 28 29
ATOM     29 OG   SER C 308       7.762  -1.978  -3.536  0.50 39.70 LIG-0.40  OA
ATOM     30 HG   SER C 308       8.390  -1.493  -3.261  0.50 39.70 LIG 0.21  HD
ENDBRANCH 28 29
ENDBRANCH 17 28
ENDBRANCH 14 17
ENDBRANCH 12 13
BRANCH 12 31
ATOM     31  CB  ILE C 307       9.680   2.622  -2.054  0.50 37.20 LIG 0.01  C 
ATOM     32  CG2 ILE C 307       8.250   2.667  -1.493  0.50 36.86 LIG 0.01  C 
BRANCH 31 33
ATOM     33  CG1 ILE C 307      10.569   1.581  -1.350  0.50 35.88 LIG 0.00  C 
ATOM     34  CD1 ILE C 307      12.051   1.864  -1.387  0.50 32.01 LIG 0.01  C 
ENDBRANCH 31 33
ENDBRANCH 12 31
ENDBRANCH 9 12
ENDBRANCH 4 8
BRANCH 1 35
ATOM     35  CA  PHE C 305      11.703   7.499  -3.439  0.50 34.47 LIG 0.18  C 
BRANCH 35 36
ATOM     36  CB  PHE C 305      12.272   8.830  -3.953  0.50 34.49 LIG 0.07  C 
BRANCH 36 37
ATOM     37  CG  PHE C 305      11.998   9.125  -5.418  0.50 35.55 LIG-0.06  A 
ATOM     38  CD1 PHE C 305      12.919   8.810  -6.416  0.50 36.28 LIG 0.01  A 
ATOM     39  CE1 PHE C 305      12.643   9.087  -7.758  0.50 36.66 LIG 0.00  A 
ATOM     40  CZ  PHE C 305      11.438   9.700  -8.114  0.50 36.87 LIG 0.00  A 
ATOM     41  CE2 PHE C 305      10.516  10.023  -7.134  0.50 36.76 LIG 0.00  A 
ATOM     42  CD2 PHE C 305      10.802   9.743  -5.789  0.50 36.02 LIG 0.01  A 
ENDBRANCH 36 37
ENDBRANCH 35 36
BRANCH 35 43
ATOM     43  N   PHE C 305      12.677   6.889  -2.526  0.50 33.54 LIG-0.35  N 
ATOM     44 H    PHE C 305      13.424   7.311  -2.463  0.50 33.54 LIG 0.16  HD
ATOM     45  C   ASN C 304      12.387   5.768  -1.866  0.50 33.07 LIG 0.24  C 
ATOM     46 O    ASN C 304      11.486   4.999  -2.222  0.50 33.39 LIG-0.27  OA
BRANCH 45 47
ATOM     47  CA  ASN C 304      13.229   5.474  -0.617  0.50 32.40 LIG 0.18  C 
BRANCH 47 48
ATOM     48  CB  ASN C 304      14.687   5.116  -0.943  0.50 32.38 LIG 0.14  C 
BRANCH 48 49
ATOM     49  CG  ASN C 304      15.649   5.342   0.252  0.50 31.77 LIG 0.22  C 
ATOM     50 OD1  ASN C 304      15.265   5.884   1.282  0.50 27.48 LIG-0.27  OA
ATOM     51  ND2 ASN C 304      16.908   4.962   0.079  0.50 32.56 LIG-0.37  N 
ATOM     52 21HD ASN C 304      17.486   5.093   0.702  0.50 32.56 LIG 0.16  HD
ATOM     53 22HD ASN C 304      17.146   4.584  -0.656  0.50 32.56 LIG 0.16  HD
ENDBRANCH 48 49
ENDBRANCH 47 48
BRANCH 47 54
ATOM     54  N   ASN C 304      12.644   4.396   0.142  0.50 31.56 LIG-0.34  N 
ATOM     55  C   LEU C 303      11.571   4.602   0.891  0.50 30.83 LIG 0.26  C 
ATOM     56 O    LEU C 303      10.907   5.626   0.818  0.50 29.02 LIG-0.27  OA
ATOM     57 H    ASN C 304      13.044   3.639   0.063  0.50 31.56 LIG 0.16  HD
BRANCH 55 58
ATOM     58  CA  LEU C 303      11.204   3.471   1.860  0.50 30.56 LIG 0.40  C 
ATOM     59  N   LEU C 303       9.906   2.813   1.550  0.50 30.88 LIG 0.61  N 
BRANCH 58 60
ATOM     60  CB  LEU C 303      12.323   2.424   1.933  0.50 30.80 LIG 0.06  C 
BRANCH 60 61
ATOM     61  CG  LEU C 303      11.918   0.946   1.981  0.50 30.92 LIG-0.02  C 
ATOM     62  CD2 LEU C 303      11.777   0.464   3.437  0.50 31.43 LIG 0.01  C 
ATOM     63  CD1 LEU C 303      12.887   0.080   1.195  0.50 30.50 LIG 0.01  C 
ENDBRANCH 60 61
ENDBRANCH 58 60
ENDBRANCH 55 58
ENDBRANCH 47 54
ENDBRANCH 45 47
ENDBRANCH 35 43
ENDBRANCH 1 35
TORSDOF 21
ENDMDL
MODEL 81
USER: ADFR SOLUTION from run 110
USER: SCORE 17.184141 LL:  -5.683 LR: -13.179 RR:   0.000 FEB:  -6.915
USER: RMSD 12.966518
USER: SEED 109
USER: STATUS no improvement in best in 25 clusters for 5 generations
USER: GENES 23
USER: genes 0 Translation |==|  0.41480 0.53055 0.23478
USER: genes 1 Rotation |==|  0.81418 0.17747 0.32926 0.63459
USER: genes 2 Torsion [N]-CA--C-[N] |==|  0.88317
USER: genes 3 Torsion [C]-N--CA-[C] |==|  0.84140
USER: genes 4 Torsion [N]-CA--C-[N] |==|  0.38725
USER: genes 5 Torsion [C]-N--CA-[CB] |==|  0.38574
USER: genes 6 Torsion [N]-CA--C-[N] |==|  0.82222
USER: genes 7 Torsion [N]-CA--C-[OXT] |==|  0.74082
USER: genes 8 Torsion [N]-CA--CB-[OG] |==|  0.91716
USER: genes 9 Torsion [CA]-CB--OG-[HG] |==|  0.60523
USER: genes 10 Torsion [N]-CA--CB-[CG2] |==|  0.92870
USER: genes 11 Torsion [CA]-CB--CG1-[CD1] |==|  0.37796
USER: genes 12 Torsion [N]-C--CA-[N] |==|  0.46074
USER: genes 13 Torsion [C]-CA--CB-[CG] |==|  0.34241
USER: genes 14 Torsion [CA]-CB--CG-[CD1] |==|  0.28286
USER: genes 15 Torsion [C]-CA--N-[C] |==|  0.72112
USER: genes 16 Torsion [N]-C--CA-[N] |==|  0.37530
USER: genes 17 Torsion [C]-CA--CB-[CG] |==|  0.06956
USER: genes 18 Torsion [CA]-CB--CG-[OD1] |==|  0.25519
USER: genes 19 Torsion [C]-CA--N-[C] |==|  0.83055
USER: genes 20 Torsion [N]-C--CA-[N] |==|  0.48426
USER: genes 21 Torsion [C]-CA--CB-[CG] |==|  0.89899
USER: genes 22 Torsion [CA]-CB--CG-[CD2] |==|  0.65693
ROOT
ATOM      1  C   PHE C 305      11.219   7.564  -5.645  0.50 34.66 LIG 0.24  C 
ATOM      2 O    PHE C 305      12.106   6.833  -6.076  0.50 33.80 LIG-0.27  OA
ATOM      3  N   PRO C 306      10.926   8.750  -6.213  0.50 35.29 LIG-0.34  N 
ATOM      4  CA  PRO C 306      11.934   9.429  -7.012  0.50 35.79 LIG 0.18  C 
ATOM      5  CB  PRO C 306      11.098  10.184  -8.071  0.50 35.80 LIG 0.04  C 
ATOM      6  CG  PRO C 306       9.634   9.993  -7.659  0.50 35.25 LIG 0.02  C 
ATOM      7  CD  PRO C 306       9.654   9.488  -6.243  0.50 35.51 LIG 0.13  C 
ENDROOT
BRANCH 4 8
ATOM      8  C   PRO C 306      12.693  10.446  -6.157  0.50 36.50 LIG 0.24  C 
ATOM      9  N   ILE C 307      11.945  11.179  -5.316  0.50 37.01 LIG-0.35  N 
ATOM     10 H    ILE C 307      11.087  11.156  -5.274  0.50 37.01 LIG 0.16  HD
ATOM     11 O    PRO C 306      13.937  10.549  -6.255  0.50 36.74 LIG-0.27  OA
BRANCH 9 12
ATOM     12  CA  ILE C 307      12.591  12.103  -4.382  0.50 37.44 LIG 0.18  C 
BRANCH 12 13
ATOM     13  C   ILE C 307      13.602  11.405  -3.469  0.50 38.23 LIG 0.24  C 
ATOM     14  N   SER C 308      14.725  12.086  -3.256  0.50 38.91 LIG-0.34  N 
ATOM     15 H    SER C 308      14.930  12.798  -3.693  0.50 38.91 LIG 0.16  HD
ATOM     16 O    ILE C 307      13.363  10.296  -2.972  0.50 38.79 LIG-0.27  OA
BRANCH 14 17
ATOM     17  CA  SER C 308      15.727  11.703  -2.265  0.50 39.43 LIG 0.20  C 
BRANCH 17 18
ATOM     18  C   SER C 308      15.500  12.621  -1.062  0.50 39.77 LIG 0.24  C 
ATOM     19  N   PRO C 309      15.696  13.940  -1.243  0.50 40.03 LIG-0.34  N 
ATOM     20  CD  PRO C 309      15.753  14.680  -2.513  0.50 39.83 LIG 0.13  C 
ATOM     21  CA  PRO C 309      15.836  14.826  -0.086  0.50 40.09 LIG 0.19  C 
ATOM     22  CG  PRO C 309      16.373  15.983  -2.114  0.50 40.19 LIG 0.02  C 
ATOM     23  CB  PRO C 309      15.888  16.223  -0.717  0.50 40.09 LIG 0.04  C 
ATOM     24 O    SER C 308      15.134  12.151   0.019  0.50 39.81 LIG-0.27  OA
BRANCH 21 25
ATOM     25  C   PRO C 309      14.683  14.709   0.911  0.50 40.04 LIG 0.20  C 
ATOM     26 OXT  PRO C 309      13.702  15.456   0.852  0.50 40.10 LIG-0.65  OA
ATOM     27 O    PRO C 309      14.711  13.867   1.812  0.50 40.34 LIG-0.65  OA
ENDBRANCH 21 25
ENDBRANCH 17 18
BRANCH 17 28
ATOM     28  CB  SER C 308      17.142  11.886  -2.819  0.50 39.49 LIG 0.20  C 
BRANCH 28 29
ATOM     29 OG   SER C 308      17.176  11.707  -4.228  0.50 39.70 LIG-0.40  OA
ATOM     30 HG   SER C 308      17.883  11.308  -4.443  0.50 39.70 LIG 0.21  HD
ENDBRANCH 28 29
ENDBRANCH 17 28
ENDBRANCH 14 17
ENDBRANCH 12 13
BRANCH 12 31
ATOM     31  CB  ILE C 307      11.570  12.840  -3.482  0.50 37.20 LIG 0.01  C 
ATOM     32  CG2 ILE C 307      10.198  12.927  -4.167  0.50 36.86 LIG 0.01  C 
BRANCH 31 33
ATOM     33  CG1 ILE C 307      11.513  12.155  -2.105  0.50 35.88 LIG 0.00  C 
ATOM     34  CD1 ILE C 307      11.502  13.086  -0.918  0.50 32.01 LIG 0.01  C 
ENDBRANCH 31 33
ENDBRANCH 12 31
ENDBRANCH 9 12
ENDBRANCH 4 8
BRANCH 1 35
ATOM     35  CA  PHE C 305      10.378   7.113  -4.444  0.50 34.47 LIG 0.18  C 
BRANCH 35 36
ATOM     36  CB  PHE C 305      10.796   7.976  -3.243  0.50 34.49 LIG 0.07  C 
BRANCH 36 37
ATOM     37  CG  PHE C 305       9.666   8.746  -2.579  0.50 35.55 LIG-0.06  A 
ATOM     38  CD1 PHE C 305       9.083   8.316  -1.388  0.50 36.28 LIG 0.01  A 
ATOM     39  CE1 PHE C 305       8.047   9.043  -0.795  0.50 36.66 LIG 0.00  A 
ATOM     40  CZ  PHE C 305       7.572  10.210  -1.402  0.50 36.87 LIG 0.00  A 
ATOM     41  CE2 PHE C 305       8.137  10.646  -2.587  0.50 36.76 LIG 0.00  A 
ATOM     42  CD2 PHE C 305       9.176   9.909  -3.177  0.50 36.02 LIG 0.01  A 
ENDBRANCH 36 37
ENDBRANCH 35 36
BRANCH 35 43
ATOM     43  N   PHE C 305      10.526   5.699  -4.083  0.50 33.54 LIG-0.35  N 
ATOM     44 H    PHE C 305      11.232   5.515  -3.627  0.50 33.54 LIG 0.16  HD
ATOM     45  C   ASN C 304       9.614   4.800  -4.453  0.50 33.07 LIG 0.24  C 
ATOM     46 O    ASN C 304       8.818   4.999  -5.379  0.50 33.39 LIG-0.27  OA
BRANCH 45 47
ATOM     47  CA  ASN C 304       9.587   3.488  -3.656  0.50 32.40 LIG 0.18  C 
BRANCH 47 48
ATOM     48  CB  ASN C 304      10.244   2.316  -4.401  0.50 32.38 LIG 0.14  C 
BRANCH 48 49
ATOM     49  CG  ASN C 304      11.297   2.773  -5.443  0.50 31.77 LIG 0.22  C 
ATOM     50 OD1  ASN C 304      12.481   2.880  -5.145  0.50 27.48 LIG-0.27  OA
ATOM     51  ND2 ASN C 304      10.840   3.081  -6.650  0.50 32.56 LIG-0.37  N 
ATOM     52 21HD ASN C 304      11.381   3.368  -7.254  0.50 32.56 LIG 0.16  HD
ATOM     53 22HD ASN C 304      10.003   2.995  -6.828  0.50 32.56 LIG 0.16  HD
ENDBRANCH 48 49
ENDBRANCH 47 48
BRANCH 47 54
ATOM     54  N   ASN C 304       8.229   3.127  -3.328  0.50 31.56 LIG-0.34  N 
ATOM     55  C   LEU C 303       7.480   3.925  -2.582  0.50 30.83 LIG 0.26  C 
ATOM     56 O    LEU C 303       7.806   5.074  -2.319  0.50 29.02 LIG-0.27  OA
ATOM     57 H    ASN C 304       7.967   2.374  -3.650  0.50 31.56 LIG 0.16  HD
BRANCH 55 58
ATOM     58  CA  LEU C 303       6.166   3.322  -2.070  0.50 30.56 LIG 0.40  C 
ATOM     59  N   LEU C 303       5.425   4.208  -1.131  0.50 30.88 LIG 0.61  N 
BRANCH 58 60
ATOM     60  CB  LEU C 303       5.258   2.909  -3.234  0.50 30.80 LIG 0.06  C 
BRANCH 60 61
ATOM     61  CG  LEU C 303       5.253   3.793  -4.487  0.50 30.92 LIG-0.02  C 
ATOM     62  CD2 LEU C 303       3.827   4.277  -4.809  0.50 31.43 LIG 0.01  C 
ATOM     63  CD1 LEU C 303       5.884   3.081  -5.670  0.50 30.50 LIG 0.01  C 
ENDBRANCH 60 61
ENDBRANCH 58 60
ENDBRANCH 55 58
ENDBRANCH 47 54
ENDBRANCH 45 47
ENDBRANCH 35 43
ENDBRANCH 1 35
TORSDOF 21
ENDMDL
MODEL 82
USER: ADFR SOLUTION from run 144
USER: SCORE 17.855031 LL:  -6.068 LR: -13.182 RR:   0.000 FEB:  -6.917
USER: RMSD 5.349181
USER: SEED 143
USER: STATUS no improvement in best in 27 clusters for 5 generations
USER: GENES 23
USER: genes 0 Translation |==|  0.64096 0.50615 0.51830
USER: genes 1 Rotation |==|  0.47498 0.35916 0.50160 0.97910
USER: genes 2 Torsion [N]-CA--C-[N] |==|  0.67549
USER: genes 3 Torsion [C]-N--CA-[C] |==|  0.81342
USER: genes 4 Torsion [N]-CA--C-[N] |==|  0.38580
USER: genes 5 Torsion [C]-N--CA-[CB] |==|  0.50812
USER: genes 6 Torsion [N]-CA--C-[N] |==|  0.35676
USER: genes 7 Torsion [N]-CA--C-[OXT] |==|  0.90908
USER: genes 8 Torsion [N]-CA--CB-[OG] |==|  0.77767
USER: genes 9 Torsion [CA]-CB--OG-[HG] |==|  0.63848
USER: genes 10 Torsion [N]-CA--CB-[CG2] |==|  0.32329
USER: genes 11 Torsion [CA]-CB--CG1-[CD1] |==|  0.81336
USER: genes 12 Torsion [N]-C--CA-[N] |==|  0.33422
USER: genes 13 Torsion [C]-CA--CB-[CG] |==|  0.26673
USER: genes 14 Torsion [CA]-CB--CG-[CD1] |==|  0.76631
USER: genes 15 Torsion [C]-CA--N-[C] |==|  0.77631
USER: genes 16 Torsion [N]-C--CA-[N] |==|  0.16107
USER: genes 17 Torsion [C]-CA--CB-[CG] |==|  0.44177
USER: genes 18 Torsion [CA]-CB--CG-[OD1] |==|  0.84742
USER: genes 19 Torsion [C]-CA--N-[C] |==|  0.69057
USER: genes 20 Torsion [N]-C--CA-[N] |==|  0.29432
USER: genes 21 Torsion [C]-CA--CB-[CG] |==|  0.18200
USER: genes 22 Torsion [CA]-CB--CG-[CD2] |==|  0.08708
ROOT
ATOM      1  C   PHE C 305      16.986   6.979   0.097  0.50 34.66 LIG 0.24  C 
ATOM      2 O    PHE C 305      17.827   6.086   0.148  0.50 33.80 LIG-0.27  OA
ATOM      3  N   PRO C 306      15.664   6.722   0.111  0.50 35.29 LIG-0.34  N 
ATOM      4  CA  PRO C 306      15.184   5.415  -0.310  0.50 35.79 LIG 0.18  C 
ATOM      5  CB  PRO C 306      13.916   5.208   0.550  0.50 35.80 LIG 0.04  C 
ATOM      6  CG  PRO C 306      13.691   6.534   1.285  0.50 35.25 LIG 0.02  C 
ATOM      7  CD  PRO C 306      14.551   7.555   0.592  0.50 35.51 LIG 0.13  C 
ENDROOT
BRANCH 4 8
ATOM      8  C   PRO C 306      14.786   5.446  -1.787  0.50 36.50 LIG 0.24  C 
ATOM      9  N   ILE C 307      13.490   5.211  -2.050  0.50 37.01 LIG-0.35  N 
ATOM     10 H    ILE C 307      12.901   4.991  -1.463  0.50 37.01 LIG 0.16  HD
ATOM     11 O    PRO C 306      15.642   5.693  -2.666  0.50 36.74 LIG-0.27  OA
BRANCH 9 12
ATOM     12  CA  ILE C 307      12.991   5.324  -3.422  0.50 37.44 LIG 0.18  C 
BRANCH 12 13
ATOM     13  C   ILE C 307      13.025   6.763  -3.943  0.50 38.23 LIG 0.24  C 
ATOM     14  N   SER C 308      13.428   6.891  -5.204  0.50 38.91 LIG-0.34  N 
ATOM     15 H    SER C 308      13.767   6.241  -5.654  0.50 38.91 LIG 0.16  HD
ATOM     16 O    ILE C 307      12.686   7.716  -3.227  0.50 38.79 LIG-0.27  OA
BRANCH 14 17
ATOM     17  CA  SER C 308      13.341   8.138  -5.958  0.50 39.43 LIG 0.20  C 
BRANCH 17 18
ATOM     18  C   SER C 308      11.865   8.542  -5.934  0.50 39.77 LIG 0.24  C 
ATOM     19  N   PRO C 309      11.571   9.794  -5.540  0.50 40.03 LIG-0.34  N 
ATOM     20  CD  PRO C 309      12.473  10.954  -5.466  0.50 39.83 LIG 0.13  C 
ATOM     21  CA  PRO C 309      10.199  10.141  -5.163  0.50 40.09 LIG 0.19  C 
ATOM     22  CG  PRO C 309      11.710  11.917  -4.612  0.50 40.19 LIG 0.02  C 
ATOM     23  CB  PRO C 309      10.271  11.657  -4.936  0.50 40.09 LIG 0.04  C 
ATOM     24 O    SER C 308      10.995   7.738  -6.282  0.50 39.81 LIG-0.27  OA
BRANCH 21 25
ATOM     25  C   PRO C 309       9.168   9.789  -6.235  0.50 40.04 LIG 0.20  C 
ATOM     26 OXT  PRO C 309       9.445   9.838  -7.437  0.50 40.10 LIG-0.65  OA
ATOM     27 O    PRO C 309       8.023   9.456  -5.923  0.50 40.34 LIG-0.65  OA
ENDBRANCH 21 25
ENDBRANCH 17 18
BRANCH 17 28
ATOM     28  CB  SER C 308      13.819   7.941  -7.399  0.50 39.49 LIG 0.20  C 
BRANCH 28 29
ATOM     29 OG   SER C 308      15.236   7.956  -7.483  0.50 39.70 LIG-0.40  OA
ATOM     30 HG   SER C 308      15.476   8.485  -8.090  0.50 39.70 LIG 0.21  HD
ENDBRANCH 28 29
ENDBRANCH 17 28
ENDBRANCH 14 17
ENDBRANCH 12 13
BRANCH 12 31
ATOM     31  CB  ILE C 307      11.541   4.801  -3.567  0.50 37.20 LIG 0.01  C 
ATOM     32  CG2 ILE C 307      10.590   5.934  -3.980  0.50 36.86 LIG 0.01  C 
BRANCH 31 33
ATOM     33  CG1 ILE C 307      11.521   3.613  -4.545  0.50 35.88 LIG 0.00  C 
ATOM     34  CD1 ILE C 307      11.845   3.949  -5.980  0.50 32.01 LIG 0.01  C 
ENDBRANCH 31 33
ENDBRANCH 12 31
ENDBRANCH 9 12
ENDBRANCH 4 8
BRANCH 1 35
ATOM     35  CA  PHE C 305      17.435   8.445   0.054  0.50 34.47 LIG 0.18  C 
BRANCH 35 36
ATOM     36  CB  PHE C 305      18.234   8.642  -1.244  0.50 34.49 LIG 0.07  C 
BRANCH 36 37
ATOM     37  CG  PHE C 305      17.436   9.197  -2.412  0.50 35.55 LIG-0.06  A 
ATOM     38  CD1 PHE C 305      16.678   8.373  -3.243  0.50 36.28 LIG 0.01  A 
ATOM     39  CE1 PHE C 305      15.949   8.907  -4.309  0.50 36.66 LIG 0.00  A 
ATOM     40  CZ  PHE C 305      15.985  10.282  -4.564  0.50 36.87 LIG 0.00  A 
ATOM     41  CE2 PHE C 305      16.737  11.111  -3.751  0.50 36.76 LIG 0.00  A 
ATOM     42  CD2 PHE C 305      17.467  10.566  -2.684  0.50 36.02 LIG 0.01  A 
ENDBRANCH 36 37
ENDBRANCH 35 36
BRANCH 35 43
ATOM     43  N   PHE C 305      18.265   8.869   1.188  0.50 33.54 LIG-0.35  N 
ATOM     44 H    PHE C 305      19.110   8.887   1.029  0.50 33.54 LIG 0.16  HD
ATOM     45  C   ASN C 304      17.711   9.195   2.356  0.50 33.07 LIG 0.24  C 
ATOM     46 O    ASN C 304      16.572   8.836   2.677  0.50 33.39 LIG-0.27  OA
BRANCH 45 47
ATOM     47  CA  ASN C 304      18.562  10.059   3.297  0.50 32.40 LIG 0.18  C 
BRANCH 47 48
ATOM     48  CB  ASN C 304      17.855  10.386   4.621  0.50 32.38 LIG 0.14  C 
BRANCH 48 49
ATOM     49  CG  ASN C 304      18.837  10.788   5.750  0.50 31.77 LIG 0.22  C 
ATOM     50 OD1  ASN C 304      19.767  10.058   6.073  0.50 27.48 LIG-0.27  OA
ATOM     51  ND2 ASN C 304      18.588  11.934   6.372  0.50 32.56 LIG-0.37  N 
ATOM     52 21HD ASN C 304      19.088  12.186   7.025  0.50 32.56 LIG 0.16  HD
ATOM     53 22HD ASN C 304      17.928  12.425   6.121  0.50 32.56 LIG 0.16  HD
ENDBRANCH 48 49
ENDBRANCH 47 48
BRANCH 47 54
ATOM     54  N   ASN C 304      18.930  11.295   2.649  0.50 31.56 LIG-0.34  N 
ATOM     55  C   LEU C 303      20.189  11.531   2.313  0.50 30.83 LIG 0.26  C 
ATOM     56 O    LEU C 303      21.047  10.661   2.331  0.50 29.02 LIG-0.27  OA
ATOM     57 H    ASN C 304      18.278  11.839   2.510  0.50 31.56 LIG 0.16  HD
BRANCH 55 58
ATOM     58  CA  LEU C 303      20.509  12.970   1.889  0.50 30.56 LIG 0.40  C 
ATOM     59  N   LEU C 303      21.267  13.742   2.912  0.50 30.88 LIG 0.61  N 
BRANCH 58 60
ATOM     60  CB  LEU C 303      21.252  12.998   0.548  0.50 30.80 LIG 0.06  C 
BRANCH 60 61
ATOM     61  CG  LEU C 303      20.499  12.515  -0.698  0.50 30.92 LIG-0.02  C 
ATOM     62  CD2 LEU C 303      18.992  12.809  -0.575  0.50 31.43 LIG 0.01  C 
ATOM     63  CD1 LEU C 303      20.763  11.044  -0.968  0.50 30.50 LIG 0.01  C 
ENDBRANCH 60 61
ENDBRANCH 58 60
ENDBRANCH 55 58
ENDBRANCH 47 54
ENDBRANCH 45 47
ENDBRANCH 35 43
ENDBRANCH 1 35
TORSDOF 21
ENDMDL
MODEL 83
USER: ADFR SOLUTION from run 90
USER: SCORE 18.158482 LL:  -6.670 LR: -13.180 RR:   0.000 FEB:  -6.916
USER: RMSD 9.281607
USER: SEED 89
USER: STATUS no improvement in best in 5 clusters for 5 generations
USER: GENES 23
USER: genes 0 Translation |==|  0.44842 0.61365 0.14067
USER: genes 1 Rotation |==|  0.45977 0.81395 0.74027 0.80345
USER: genes 2 Torsion [N]-CA--C-[N] |==|  0.09649
USER: genes 3 Torsion [C]-N--CA-[C] |==|  0.18976
USER: genes 4 Torsion [N]-CA--C-[N] |==|  0.49929
USER: genes 5 Torsion [C]-N--CA-[CB] |==|  0.58889
USER: genes 6 Torsion [N]-CA--C-[N] |==|  0.32358
USER: genes 7 Torsion [N]-CA--C-[OXT] |==|  0.33197
USER: genes 8 Torsion [N]-CA--CB-[OG] |==|  0.15190
USER: genes 9 Torsion [CA]-CB--OG-[HG] |==|  0.25663
USER: genes 10 Torsion [N]-CA--CB-[CG2] |==|  0.28823
USER: genes 11 Torsion [CA]-CB--CG1-[CD1] |==|  0.98411
USER: genes 12 Torsion [N]-C--CA-[N] |==|  0.90071
USER: genes 13 Torsion [C]-CA--CB-[CG] |==|  0.61240
USER: genes 14 Torsion [CA]-CB--CG-[CD1] |==|  0.72508
USER: genes 15 Torsion [C]-CA--N-[C] |==|  0.65332
USER: genes 16 Torsion [N]-C--CA-[N] |==|  0.96266
USER: genes 17 Torsion [C]-CA--CB-[CG] |==|  0.25657
USER: genes 18 Torsion [CA]-CB--CG-[OD1] |==|  0.34704
USER: genes 19 Torsion [C]-CA--N-[C] |==|  0.79287
USER: genes 20 Torsion [N]-C--CA-[N] |==|  0.62829
USER: genes 21 Torsion [C]-CA--CB-[CG] |==|  0.25688
USER: genes 22 Torsion [CA]-CB--CG-[CD2] |==|  0.70290
ROOT
ATOM      1  C   PHE C 305      12.077   9.559  -7.550  0.50 34.66 LIG 0.24  C 
ATOM      2 O    PHE C 305      12.160   9.091  -8.682  0.50 33.80 LIG-0.27  OA
ATOM      3  N   PRO C 306      13.032   9.363  -6.621  0.50 35.29 LIG-0.34  N 
ATOM      4  CA  PRO C 306      13.922   8.219  -6.739  0.50 35.79 LIG 0.18  C 
ATOM      5  CB  PRO C 306      15.241   8.729  -6.113  0.50 35.80 LIG 0.04  C 
ATOM      6  CG  PRO C 306      14.917  10.107  -5.525  0.50 35.25 LIG 0.02  C 
ATOM      7  CD  PRO C 306      13.417  10.207  -5.479  0.50 35.51 LIG 0.13  C 
ENDROOT
BRANCH 4 8
ATOM      8  C   PRO C 306      13.395   7.049  -5.907  0.50 36.50 LIG 0.24  C 
ATOM      9  N   ILE C 307      12.058   6.928  -5.845  0.50 37.01 LIG-0.35  N 
ATOM     10 H    ILE C 307      11.498   7.486  -6.184  0.50 37.01 LIG 0.16  HD
ATOM     11 O    PRO C 306      14.192   6.265  -5.344  0.50 36.74 LIG-0.27  OA
BRANCH 9 12
ATOM     12  CA  ILE C 307      11.460   5.780  -5.162  0.50 37.44 LIG 0.18  C 
BRANCH 12 13
ATOM     13  C   ILE C 307      11.688   5.812  -3.649  0.50 38.23 LIG 0.24  C 
ATOM     14  N   SER C 308      11.157   4.790  -2.983  0.50 38.91 LIG-0.34  N 
ATOM     15 H    SER C 308      10.620   4.224  -3.345  0.50 38.91 LIG 0.16  HD
ATOM     16 O    ILE C 307      12.330   6.726  -3.113  0.50 38.79 LIG-0.27  OA
BRANCH 14 17
ATOM     17  CA  SER C 308      11.425   4.517  -1.573  0.50 39.43 LIG 0.20  C 
BRANCH 17 18
ATOM     18  C   SER C 308      12.821   5.078  -1.295  0.50 39.77 LIG 0.24  C 
ATOM     19  N   PRO C 309      12.918   6.087  -0.411  0.50 40.03 LIG-0.34  N 
ATOM     20  CD  PRO C 309      11.932   6.504   0.599  0.50 39.83 LIG 0.13  C 
ATOM     21  CA  PRO C 309      14.139   6.894  -0.350  0.50 40.09 LIG 0.19  C 
ATOM     22  CG  PRO C 309      12.406   7.870   0.986  0.50 40.19 LIG 0.02  C 
ATOM     23  CB  PRO C 309      13.897   7.806   0.860  0.50 40.09 LIG 0.04  C 
ATOM     24 O    SER C 308      13.808   4.597  -1.858  0.50 39.81 LIG-0.27  OA
BRANCH 21 25
ATOM     25  C   PRO C 309      15.408   6.060  -0.172  0.50 40.04 LIG 0.20  C 
ATOM     26 OXT  PRO C 309      16.314   6.079  -1.009  0.50 40.10 LIG-0.65  OA
ATOM     27 O    PRO C 309      15.551   5.334   0.814  0.50 40.34 LIG-0.65  OA
ENDBRANCH 21 25
ENDBRANCH 17 18
BRANCH 17 28
ATOM     28  CB  SER C 308      11.385   3.013  -1.290  0.50 39.49 LIG 0.20  C 
BRANCH 28 29
ATOM     29 OG   SER C 308      12.270   2.301  -2.143  0.50 39.70 LIG-0.40  OA
ATOM     30 HG   SER C 308      13.016   2.217  -1.767  0.50 39.70 LIG 0.21  HD
ENDBRANCH 28 29
ENDBRANCH 17 28
ENDBRANCH 14 17
ENDBRANCH 12 13
BRANCH 12 31
ATOM     31  CB  ILE C 307      12.001   4.431  -5.694  0.50 37.20 LIG 0.01  C 
ATOM     32  CG2 ILE C 307      13.012   3.821  -4.711  0.50 36.86 LIG 0.01  C 
BRANCH 31 33
ATOM     33  CG1 ILE C 307      10.822   3.492  -6.003  0.50 35.88 LIG 0.00  C 
ATOM     34  CD1 ILE C 307       9.460   4.010  -5.609  0.50 32.01 LIG 0.01  C 
ENDBRANCH 31 33
ENDBRANCH 12 31
ENDBRANCH 9 12
ENDBRANCH 4 8
BRANCH 1 35
ATOM     35  CA  PHE C 305      10.872  10.429  -7.173  0.50 34.47 LIG 0.18  C 
BRANCH 35 36
ATOM     36  CB  PHE C 305      11.265  11.892  -7.430  0.50 34.49 LIG 0.07  C 
BRANCH 36 37
ATOM     37  CG  PHE C 305      10.792  12.880  -6.376  0.50 35.55 LIG-0.06  A 
ATOM     38  CD1 PHE C 305       9.650  13.659  -6.559  0.50 36.28 LIG 0.01  A 
ATOM     39  CE1 PHE C 305       9.232  14.559  -5.574  0.50 36.66 LIG 0.00  A 
ATOM     40  CZ  PHE C 305       9.969  14.697  -4.394  0.50 36.87 LIG 0.00  A 
ATOM     41  CE2 PHE C 305      11.107  13.935  -4.201  0.50 36.76 LIG 0.00  A 
ATOM     42  CD2 PHE C 305      11.521  13.036  -5.196  0.50 36.02 LIG 0.01  A 
ENDBRANCH 36 37
ENDBRANCH 35 36
BRANCH 35 43
ATOM     43  N   PHE C 305      10.426  10.297  -5.781  0.50 33.54 LIG-0.35  N 
ATOM     44 H    PHE C 305      11.037  10.442  -5.193  0.50 33.54 LIG 0.16  HD
ATOM     45  C   ASN C 304       9.164   9.977  -5.494  0.50 33.07 LIG 0.24  C 
ATOM     46 O    ASN C 304       8.410   9.438  -6.313  0.50 33.39 LIG-0.27  OA
BRANCH 45 47
ATOM     47  CA  ASN C 304       8.678  10.323  -4.080  0.50 32.40 LIG 0.18  C 
BRANCH 47 48
ATOM     48  CB  ASN C 304       7.675  11.487  -4.055  0.50 32.38 LIG 0.14  C 
BRANCH 48 49
ATOM     49  CG  ASN C 304       6.200  11.019  -4.131  0.50 31.77 LIG 0.22  C 
ATOM     50 OD1  ASN C 304       5.383  11.354  -3.281  0.50 27.48 LIG-0.27  OA
ATOM     51  ND2 ASN C 304       5.887  10.206  -5.132  0.50 32.56 LIG-0.37  N 
ATOM     52 21HD ASN C 304       5.087   9.896  -5.200  0.50 32.56 LIG 0.16  HD
ATOM     53 22HD ASN C 304       6.483   9.990  -5.713  0.50 32.56 LIG 0.16  HD
ENDBRANCH 48 49
ENDBRANCH 47 48
BRANCH 47 54
ATOM     54  N   ASN C 304       9.796  10.655  -3.231  0.50 31.56 LIG-0.34  N 
ATOM     55  C   LEU C 303      10.601   9.707  -2.774  0.50 30.83 LIG 0.26  C 
ATOM     56 O    LEU C 303      10.577   8.563  -3.205  0.50 29.02 LIG-0.27  OA
ATOM     57 H    ASN C 304       9.883  11.492  -3.057  0.50 31.56 LIG 0.16  HD
BRANCH 55 58
ATOM     58  CA  LEU C 303      11.576  10.133  -1.670  0.50 30.56 LIG 0.40  C 
ATOM     59  N   LEU C 303      12.971   9.662  -1.887  0.50 30.88 LIG 0.61  N 
BRANCH 58 60
ATOM     60  CB  LEU C 303      11.556  11.654  -1.473  0.50 30.80 LIG 0.06  C 
BRANCH 60 61
ATOM     61  CG  LEU C 303      10.602  12.226  -0.418  0.50 30.92 LIG-0.02  C 
ATOM     62  CD2 LEU C 303       9.405  12.929  -1.086  0.50 31.43 LIG 0.01  C 
ATOM     63  CD1 LEU C 303      11.329  13.149   0.544  0.50 30.50 LIG 0.01  C 
ENDBRANCH 60 61
ENDBRANCH 58 60
ENDBRANCH 55 58
ENDBRANCH 47 54
ENDBRANCH 45 47
ENDBRANCH 35 43
ENDBRANCH 1 35
TORSDOF 21
ENDMDL
MODEL 84
USER: ADFR SOLUTION from run 173
USER: SCORE 18.266298 LL:  -6.497 LR: -13.169 RR:   0.000 FEB:  -6.905
USER: RMSD 12.601836
USER: SEED 172
USER: STATUS no improvement in best in 27 clusters for 5 generations
USER: GENES 23
USER: genes 0 Translation |==|  0.42454 0.82137 0.60797
USER: genes 1 Rotation |==|  0.14028 0.55556 0.83772 0.55885
USER: genes 2 Torsion [N]-CA--C-[N] |==|  0.02722
USER: genes 3 Torsion [C]-N--CA-[C] |==|  0.63409
USER: genes 4 Torsion [N]-CA--C-[N] |==|  0.32680
USER: genes 5 Torsion [C]-N--CA-[CB] |==|  0.53939
USER: genes 6 Torsion [N]-CA--C-[N] |==|  0.34089
USER: genes 7 Torsion [N]-CA--C-[OXT] |==|  0.38991
USER: genes 8 Torsion [N]-CA--CB-[OG] |==|  0.85473
USER: genes 9 Torsion [CA]-CB--OG-[HG] |==|  0.04694
USER: genes 10 Torsion [N]-CA--CB-[CG2] |==|  0.05919
USER: genes 11 Torsion [CA]-CB--CG1-[CD1] |==|  0.64095
USER: genes 12 Torsion [N]-C--CA-[N] |==|  0.35098
USER: genes 13 Torsion [C]-CA--CB-[CG] |==|  0.33293
USER: genes 14 Torsion [CA]-CB--CG-[CD1] |==|  0.93366
USER: genes 15 Torsion [C]-CA--N-[C] |==|  0.78920
USER: genes 16 Torsion [N]-C--CA-[N] |==|  0.82233
USER: genes 17 Torsion [C]-CA--CB-[CG] |==|  0.30649
USER: genes 18 Torsion [CA]-CB--CG-[OD1] |==|  0.56332
USER: genes 19 Torsion [C]-CA--N-[C] |==|  0.62212
USER: genes 20 Torsion [N]-C--CA-[N] |==|  0.83763
USER: genes 21 Torsion [C]-CA--CB-[CG] |==|  0.22256
USER: genes 22 Torsion [CA]-CB--CG-[CD2] |==|  0.71910
ROOT
ATOM      1  C   PHE C 305      11.468  14.544   1.912  0.50 34.66 LIG 0.24  C 
ATOM      2 O    PHE C 305      12.259  15.214   1.256  0.50 33.80 LIG-0.27  OA
ATOM      3  N   PRO C 306      10.825  15.040   2.988  0.50 35.29 LIG-0.34  N 
ATOM      4  CA  PRO C 306      11.392  16.175   3.699  0.50 35.79 LIG 0.18  C 
ATOM      5  CB  PRO C 306      10.145  16.920   4.231  0.50 35.80 LIG 0.04  C 
ATOM      6  CG  PRO C 306       8.950  16.017   3.904  0.50 35.25 LIG 0.02  C 
ATOM      7  CD  PRO C 306       9.520  14.669   3.555  0.50 35.51 LIG 0.13  C 
ENDROOT
BRANCH 4 8
ATOM      8  C   PRO C 306      12.229  15.693   4.885  0.50 36.50 LIG 0.24  C 
ATOM      9  N   ILE C 307      12.463  14.371   4.940  0.50 37.01 LIG-0.35  N 
ATOM     10 H    ILE C 307      12.131  13.791   4.400  0.50 37.01 LIG 0.16  HD
ATOM     11 O    PRO C 306      12.663  16.513   5.725  0.50 36.74 LIG-0.27  OA
BRANCH 9 12
ATOM     12  CA  ILE C 307      13.341  13.828   5.977  0.50 37.44 LIG 0.18  C 
BRANCH 12 13
ATOM     13  C   ILE C 307      14.388  12.863   5.416  0.50 38.23 LIG 0.24  C 
ATOM     14  N   SER C 308      15.650  13.249   5.582  0.50 38.91 LIG-0.34  N 
ATOM     15 H    SER C 308      15.866  14.033   5.863  0.50 38.91 LIG 0.16  HD
ATOM     16 O    ILE C 307      14.058  11.804   4.862  0.50 38.79 LIG-0.27  OA
BRANCH 14 17
ATOM     17  CA  SER C 308      16.801  12.393   5.308  0.50 39.43 LIG 0.20  C 
BRANCH 17 18
ATOM     18  C   SER C 308      16.477  11.039   5.944  0.50 39.77 LIG 0.24  C 
ATOM     19  N   PRO C 309      16.487   9.959   5.142  0.50 40.03 LIG-0.34  N 
ATOM     20  CD  PRO C 309      17.107   9.823   3.814  0.50 39.83 LIG 0.13  C 
ATOM     21  CA  PRO C 309      15.863   8.711   5.585  0.50 40.09 LIG 0.19  C 
ATOM     22  CG  PRO C 309      16.464   8.587   3.269  0.50 40.19 LIG 0.02  C 
ATOM     23  CB  PRO C 309      16.223   7.722   4.469  0.50 40.09 LIG 0.04  C 
ATOM     24 O    SER C 308      16.237  10.961   7.152  0.50 39.81 LIG-0.27  OA
BRANCH 21 25
ATOM     25  C   PRO C 309      16.374   8.226   6.942  0.50 40.04 LIG 0.20  C 
ATOM     26 OXT  PRO C 309      15.614   7.730   7.778  0.50 40.10 LIG-0.65  OA
ATOM     27 O    PRO C 309      17.566   8.331   7.240  0.50 40.34 LIG-0.65  OA
ENDBRANCH 21 25
ENDBRANCH 17 18
BRANCH 17 28
ATOM     28  CB  SER C 308      18.077  12.979   5.917  0.50 39.49 LIG 0.20  C 
BRANCH 28 29
ATOM     29 OG   SER C 308      18.266  14.331   5.523  0.50 39.70 LIG-0.40  OA
ATOM     30 HG   SER C 308      17.544  14.639   5.223  0.50 39.70 LIG 0.21  HD
ENDBRANCH 28 29
ENDBRANCH 17 28
ENDBRANCH 14 17
ENDBRANCH 12 13
BRANCH 12 31
ATOM     31  CB  ILE C 307      12.555  13.082   7.083  0.50 37.20 LIG 0.01  C 
ATOM     32  CG2 ILE C 307      11.174  12.646   6.574  0.50 36.86 LIG 0.01  C 
BRANCH 31 33
ATOM     33  CG1 ILE C 307      13.401  11.909   7.610  0.50 35.88 LIG 0.00  C 
ATOM     34  CD1 ILE C 307      12.699  10.573   7.652  0.50 32.01 LIG 0.01  C 
ENDBRANCH 31 33
ENDBRANCH 12 31
ENDBRANCH 9 12
ENDBRANCH 4 8
BRANCH 1 35
ATOM     35  CA  PHE C 305      11.156  13.103   1.488  0.50 34.47 LIG 0.18  C 
BRANCH 35 36
ATOM     36  CB  PHE C 305      12.421  12.268   1.738  0.50 34.49 LIG 0.07  C 
BRANCH 36 37
ATOM     37  CG  PHE C 305      12.251  11.117   2.715  0.50 35.55 LIG-0.06  A 
ATOM     38  CD1 PHE C 305      11.246  11.116   3.682  0.50 36.28 LIG 0.01  A 
ATOM     39  CE1 PHE C 305      11.107  10.043   4.568  0.50 36.66 LIG 0.00  A 
ATOM     40  CZ  PHE C 305      11.988   8.960   4.501  0.50 36.87 LIG 0.00  A 
ATOM     41  CE2 PHE C 305      12.992   8.949   3.550  0.50 36.76 LIG 0.00  A 
ATOM     42  CD2 PHE C 305      13.127  10.031   2.666  0.50 36.02 LIG 0.01  A 
ENDBRANCH 36 37
ENDBRANCH 35 36
BRANCH 35 43
ATOM     43  N   PHE C 305      10.756  12.946   0.085  0.50 33.54 LIG-0.35  N 
ATOM     44 H    PHE C 305      11.364  12.620  -0.428  0.50 33.54 LIG 0.16  HD
ATOM     45  C   ASN C 304       9.534  13.293  -0.320  0.50 33.07 LIG 0.24  C 
ATOM     46 O    ASN C 304       8.813  14.066   0.322  0.50 33.39 LIG-0.27  OA
BRANCH 45 47
ATOM     47  CA  ASN C 304       9.050  12.670  -1.637  0.50 32.40 LIG 0.18  C 
BRANCH 47 48
ATOM     48  CB  ASN C 304       9.039  11.134  -1.610  0.50 32.38 LIG 0.14  C 
BRANCH 48 49
ATOM     49  CG  ASN C 304       7.609  10.537  -1.611  0.50 31.77 LIG 0.22  C 
ATOM     50 OD1  ASN C 304       7.392   9.408  -1.187  0.50 27.48 LIG-0.27  OA
ATOM     51  ND2 ASN C 304       6.652  11.293  -2.134  0.50 32.56 LIG-0.37  N 
ATOM     52 21HD ASN C 304       5.847  10.994  -2.184  0.50 32.56 LIG 0.16  HD
ATOM     53 22HD ASN C 304       6.836  12.082  -2.423  0.50 32.56 LIG 0.16  HD
ENDBRANCH 48 49
ENDBRANCH 47 48
BRANCH 47 54
ATOM     54  N   ASN C 304       9.876  13.110  -2.735  0.50 31.56 LIG-0.34  N 
ATOM     55  C   LEU C 303       9.330  13.485  -3.882  0.50 30.83 LIG 0.26  C 
ATOM     56 O    LEU C 303       8.129  13.682  -4.004  0.50 29.02 LIG-0.27  OA
ATOM     57 H    ASN C 304      10.721  13.105  -2.577  0.50 31.56 LIG 0.16  HD
BRANCH 55 58
ATOM     58  CA  LEU C 303      10.300  13.665  -5.057  0.50 30.56 LIG 0.40  C 
ATOM     59  N   LEU C 303      11.372  14.665  -4.802  0.50 30.88 LIG 0.61  N 
BRANCH 58 60
ATOM     60  CB  LEU C 303      10.916  12.323  -5.474  0.50 30.80 LIG 0.06  C 
BRANCH 60 61
ATOM     61  CG  LEU C 303      10.077  11.395  -6.361  0.50 30.92 LIG-0.02  C 
ATOM     62  CD2 LEU C 303       9.438  10.270  -5.526  0.50 31.43 LIG 0.01  C 
ATOM     63  CD1 LEU C 303      10.895  10.843  -7.514  0.50 30.50 LIG 0.01  C 
ENDBRANCH 60 61
ENDBRANCH 58 60
ENDBRANCH 55 58
ENDBRANCH 47 54
ENDBRANCH 45 47
ENDBRANCH 35 43
ENDBRANCH 1 35
TORSDOF 21
ENDMDL
MODEL 85
USER: ADFR SOLUTION from run 9
USER: SCORE 18.096623 LL:  -6.001 LR: -13.171 RR:   0.000 FEB:  -6.907
USER: RMSD 8.188863
USER: SEED 258994
USER: STATUS no improvement in best in 23 clusters for 5 generations
USER: GENES 23
USER: genes 0 Translation |==|  0.39021 0.47401 0.27441
USER: genes 1 Rotation |==|  0.63141 0.96568 0.53778 0.62018
USER: genes 2 Torsion [N]-CA--C-[N] |==|  0.98203
USER: genes 3 Torsion [C]-N--CA-[C] |==|  0.86474
USER: genes 4 Torsion [N]-CA--C-[N] |==|  0.36521
USER: genes 5 Torsion [C]-N--CA-[CB] |==|  0.53333
USER: genes 6 Torsion [N]-CA--C-[N] |==|  0.30171
USER: genes 7 Torsion [N]-CA--C-[OXT] |==|  0.77163
USER: genes 8 Torsion [N]-CA--CB-[OG] |==|  0.95949
USER: genes 9 Torsion [CA]-CB--OG-[HG] |==|  0.15767
USER: genes 10 Torsion [N]-CA--CB-[CG2] |==|  0.76850
USER: genes 11 Torsion [CA]-CB--CG1-[CD1] |==|  0.47442
USER: genes 12 Torsion [N]-C--CA-[N] |==|  0.10685
USER: genes 13 Torsion [C]-CA--CB-[CG] |==|  0.38899
USER: genes 14 Torsion [CA]-CB--CG-[CD1] |==|  0.40928
USER: genes 15 Torsion [C]-CA--N-[C] |==|  0.67603
USER: genes 16 Torsion [N]-C--CA-[N] |==|  0.10960
USER: genes 17 Torsion [C]-CA--CB-[CG] |==|  0.39109
USER: genes 18 Torsion [CA]-CB--CG-[OD1] |==|  0.05408
USER: genes 19 Torsion [C]-CA--N-[C] |==|  0.14823
USER: genes 20 Torsion [N]-C--CA-[N] |==|  0.67626
USER: genes 21 Torsion [C]-CA--CB-[CG] |==|  0.23794
USER: genes 22 Torsion [CA]-CB--CG-[CD2] |==|  0.05182
ROOT
ATOM      1  C   PHE C 305      10.592   6.207  -4.842  0.50 34.66 LIG 0.24  C 
ATOM      2 O    PHE C 305       9.429   5.826  -4.931  0.50 33.80 LIG-0.27  OA
ATOM      3  N   PRO C 306      11.636   5.388  -5.077  0.50 35.29 LIG-0.34  N 
ATOM      4  CA  PRO C 306      11.459   3.950  -4.952  0.50 35.79 LIG 0.18  C 
ATOM      5  CB  PRO C 306      12.445   3.379  -5.997  0.50 35.80 LIG 0.04  C 
ATOM      6  CG  PRO C 306      13.240   4.581  -6.520  0.50 35.25 LIG 0.02  C 
ATOM      7  CD  PRO C 306      12.990   5.707  -5.555  0.50 35.51 LIG 0.13  C 
ENDROOT
BRANCH 4 8
ATOM      8  C   PRO C 306      11.883   3.483  -3.558  0.50 36.50 LIG 0.24  C 
ATOM      9  N   ILE C 307      12.452   4.414  -2.775  0.50 37.01 LIG-0.35  N 
ATOM     10 H    ILE C 307      12.641   5.216  -3.022  0.50 37.01 LIG 0.16  HD
ATOM     11 O    PRO C 306      11.684   2.300  -3.202  0.50 36.74 LIG-0.27  OA
BRANCH 9 12
ATOM     12  CA  ILE C 307      12.794   4.092  -1.389  0.50 37.44 LIG 0.18  C 
BRANCH 12 13
ATOM     13  C   ILE C 307      11.641   3.421  -0.638  0.50 38.23 LIG 0.24  C 
ATOM     14  N   SER C 308      11.974   2.320   0.029  0.50 38.91 LIG-0.34  N 
ATOM     15 H    SER C 308      12.739   1.937  -0.054  0.50 38.91 LIG 0.16  HD
ATOM     16 O    ILE C 307      10.496   3.895  -0.660  0.50 38.79 LIG-0.27  OA
BRANCH 14 17
ATOM     17  CA  SER C 308      11.084   1.643   0.969  0.50 39.43 LIG 0.20  C 
BRANCH 17 18
ATOM     18  C   SER C 308      10.529   2.738   1.883  0.50 39.77 LIG 0.24  C 
ATOM     19  N   PRO C 309       9.235   3.073   1.733  0.50 40.03 LIG-0.34  N 
ATOM     20  CD  PRO C 309       8.172   2.304   1.066  0.50 39.83 LIG 0.13  C 
ATOM     21  CA  PRO C 309       8.729   4.319   2.312  0.50 40.09 LIG 0.19  C 
ATOM     22  CG  PRO C 309       7.093   3.323   0.871  0.50 40.19 LIG 0.02  C 
ATOM     23  CB  PRO C 309       7.219   4.241   2.049  0.50 40.09 LIG 0.04  C 
ATOM     24 O    SER C 308      11.253   3.267   2.731  0.50 39.81 LIG-0.27  OA
BRANCH 21 25
ATOM     25  C   PRO C 309       9.025   4.459   3.805  0.50 40.04 LIG 0.20  C 
ATOM     26 OXT  PRO C 309       8.312   3.920   4.657  0.50 40.10 LIG-0.65  OA
ATOM     27 O    PRO C 309       9.983   5.128   4.198  0.50 40.34 LIG-0.65  OA
ENDBRANCH 21 25
ENDBRANCH 17 18
BRANCH 17 28
ATOM     28  CB  SER C 308      11.845   0.597   1.786  0.50 39.49 LIG 0.20  C 
BRANCH 28 29
ATOM     29 OG   SER C 308      13.113   0.312   1.213  0.50 39.70 LIG-0.40  OA
ATOM     30 HG   SER C 308      13.556   1.022   1.146  0.50 39.70 LIG 0.21  HD
ENDBRANCH 28 29
ENDBRANCH 17 28
ENDBRANCH 14 17
ENDBRANCH 12 13
BRANCH 12 31
ATOM     31  CB  ILE C 307      13.221   5.341  -0.581  0.50 37.20 LIG 0.01  C 
ATOM     32  CG2 ILE C 307      14.705   5.664  -0.815  0.50 36.86 LIG 0.01  C 
BRANCH 31 33
ATOM     33  CG1 ILE C 307      12.289   6.517  -0.924  0.50 35.88 LIG 0.00  C 
ATOM     34  CD1 ILE C 307      12.444   7.742  -0.056  0.50 32.01 LIG 0.01  C 
ENDBRANCH 31 33
ENDBRANCH 12 31
ENDBRANCH 9 12
ENDBRANCH 4 8
BRANCH 1 35
ATOM     35  CA  PHE C 305      10.890   7.671  -4.492  0.50 34.47 LIG 0.18  C 
BRANCH 35 36
ATOM     36  CB  PHE C 305       9.615   8.479  -4.780  0.50 34.49 LIG 0.07  C 
BRANCH 36 37
ATOM     37  CG  PHE C 305       9.291   9.557  -3.759  0.50 35.55 LIG-0.06  A 
ATOM     38  CD1 PHE C 305       8.663  10.748  -4.122  0.50 36.28 LIG 0.01  A 
ATOM     39  CE1 PHE C 305       8.372  11.723  -3.163  0.50 36.66 LIG 0.00  A 
ATOM     40  CZ  PHE C 305       8.722  11.518  -1.826  0.50 36.87 LIG 0.00  A 
ATOM     41  CE2 PHE C 305       9.350  10.343  -1.452  0.50 36.76 LIG 0.00  A 
ATOM     42  CD2 PHE C 305       9.641   9.370  -2.420  0.50 36.02 LIG 0.01  A 
ENDBRANCH 36 37
ENDBRANCH 35 36
BRANCH 35 43
ATOM     43  N   PHE C 305      12.005   8.269  -5.234  0.50 33.54 LIG-0.35  N 
ATOM     44 H    PHE C 305      11.885   8.322  -6.084  0.50 33.54 LIG 0.16  HD
ATOM     45  C   ASN C 304      13.103   8.684  -4.601  0.50 33.07 LIG 0.24  C 
ATOM     46 O    ASN C 304      13.409   8.290  -3.469  0.50 33.39 LIG-0.27  OA
BRANCH 45 47
ATOM     47  CA  ASN C 304      13.979   9.698  -5.349  0.50 32.40 LIG 0.18  C 
BRANCH 47 48
ATOM     48  CB  ASN C 304      14.945  10.457  -4.426  0.50 32.38 LIG 0.14  C 
BRANCH 48 49
ATOM     49  CG  ASN C 304      16.341  10.682  -5.062  0.50 31.77 LIG 0.22  C 
ATOM     50 OD1  ASN C 304      16.506  10.607  -6.274  0.50 27.48 LIG-0.27  OA
ATOM     51  ND2 ASN C 304      17.344  10.911  -4.224  0.50 32.56 LIG-0.37  N 
ATOM     52 21HD ASN C 304      18.143  11.013  -4.526  0.50 32.56 LIG 0.16  HD
ATOM     53 22HD ASN C 304      17.195  10.958  -3.378  0.50 32.56 LIG 0.16  HD
ENDBRANCH 48 49
ENDBRANCH 47 48
BRANCH 47 54
ATOM     54  N   ASN C 304      13.156  10.655  -6.048  0.50 31.56 LIG-0.34  N 
ATOM     55  C   LEU C 303      12.215  11.331  -5.406  0.50 30.83 LIG 0.26  C 
ATOM     56 O    LEU C 303      12.135  11.347  -4.186  0.50 29.02 LIG-0.27  OA
ATOM     57 H    ASN C 304      13.330  10.738  -6.886  0.50 31.56 LIG 0.16  HD
BRANCH 55 58
ATOM     58  CA  LEU C 303      11.228  12.105  -6.290  0.50 30.56 LIG 0.40  C 
ATOM     59  N   LEU C 303      11.281  13.580  -6.098  0.50 30.88 LIG 0.61  N 
BRANCH 58 60
ATOM     60  CB  LEU C 303      11.424  11.757  -7.770  0.50 30.80 LIG 0.06  C 
BRANCH 60 61
ATOM     61  CG  LEU C 303      10.696  10.523  -8.318  0.50 30.92 LIG-0.02  C 
ATOM     62  CD2 LEU C 303       9.536  10.117  -7.392  0.50 31.43 LIG 0.01  C 
ATOM     63  CD1 LEU C 303      11.658   9.372  -8.553  0.50 30.50 LIG 0.01  C 
ENDBRANCH 60 61
ENDBRANCH 58 60
ENDBRANCH 55 58
ENDBRANCH 47 54
ENDBRANCH 45 47
ENDBRANCH 35 43
ENDBRANCH 1 35
TORSDOF 21
ENDMDL
MODEL 86
USER: ADFR SOLUTION from run 130
USER: SCORE 18.045973 LL:  -5.987 LR: -13.168 RR:   0.000 FEB:  -6.904
USER: RMSD 8.359550
USER: SEED 129
USER: STATUS no improvement in best in 16 clusters for 5 generations
USER: GENES 23
USER: genes 0 Translation |==|  0.38245 0.47564 0.25946
USER: genes 1 Rotation |==|  0.68824 0.88266 0.68180 0.68731
USER: genes 2 Torsion [N]-CA--C-[N] |==|  0.24300
USER: genes 3 Torsion [C]-N--CA-[C] |==|  0.69442
USER: genes 4 Torsion [N]-CA--C-[N] |==|  0.47173
USER: genes 5 Torsion [C]-N--CA-[CB] |==|  0.59216
USER: genes 6 Torsion [N]-CA--C-[N] |==|  0.81223
USER: genes 7 Torsion [N]-CA--C-[OXT] |==|  0.38795
USER: genes 8 Torsion [N]-CA--CB-[OG] |==|  0.98347
USER: genes 9 Torsion [CA]-CB--OG-[HG] |==|  0.92389
USER: genes 10 Torsion [N]-CA--CB-[CG2] |==|  0.69850
USER: genes 11 Torsion [CA]-CB--CG1-[CD1] |==|  0.19467
USER: genes 12 Torsion [N]-C--CA-[N] |==|  0.38114
USER: genes 13 Torsion [C]-CA--CB-[CG] |==|  0.24739
USER: genes 14 Torsion [CA]-CB--CG-[CD1] |==|  0.91741
USER: genes 15 Torsion [C]-CA--N-[C] |==|  0.86835
USER: genes 16 Torsion [N]-C--CA-[N] |==|  0.94249
USER: genes 17 Torsion [C]-CA--CB-[CG] |==|  0.02574
USER: genes 18 Torsion [CA]-CB--CG-[OD1] |==|  0.76424
USER: genes 19 Torsion [C]-CA--N-[C] |==|  0.81858
USER: genes 20 Torsion [N]-C--CA-[N] |==|  0.41352
USER: genes 21 Torsion [C]-CA--CB-[CG] |==|  0.06395
USER: genes 22 Torsion [CA]-CB--CG-[CD2] |==|  0.59339
ROOT
ATOM      1  C   PHE C 305      10.394   6.246  -5.145  0.50 34.66 LIG 0.24  C 
ATOM      2 O    PHE C 305       9.402   6.312  -5.865  0.50 33.80 LIG-0.27  OA
ATOM      3  N   PRO C 306      11.388   5.364  -5.370  0.50 35.29 LIG-0.34  N 
ATOM      4  CA  PRO C 306      11.113   4.158  -6.135  0.50 35.79 LIG 0.18  C 
ATOM      5  CB  PRO C 306      12.456   3.877  -6.849  0.50 35.80 LIG 0.04  C 
ATOM      6  CG  PRO C 306      13.453   4.889  -6.274  0.50 35.25 LIG 0.02  C 
ATOM      7  CD  PRO C 306      12.817   5.454  -5.034  0.50 35.51 LIG 0.13  C 
ENDROOT
BRANCH 4 8
ATOM      8  C   PRO C 306      10.795   2.994  -5.193  0.50 36.50 LIG 0.24  C 
ATOM      9  N   ILE C 307       9.508   2.871  -4.828  0.50 37.01 LIG-0.35  N 
ATOM     10 H    ILE C 307       8.883   3.423  -5.035  0.50 37.01 LIG 0.16  HD
ATOM     11 O    PRO C 306      11.704   2.219  -4.820  0.50 36.74 LIG-0.27  OA
BRANCH 9 12
ATOM     12  CA  ILE C 307       9.088   1.728  -4.015  0.50 37.44 LIG 0.18  C 
BRANCH 12 13
ATOM     13  C   ILE C 307       8.217   0.740  -4.795  0.50 38.23 LIG 0.24  C 
ATOM     14  N   SER C 308       7.986  -0.413  -4.173  0.50 38.91 LIG-0.34  N 
ATOM     15 H    SER C 308       8.393  -0.644  -3.452  0.50 38.91 LIG 0.16  HD
ATOM     16 O    ILE C 307       7.767   1.022  -5.915  0.50 38.79 LIG-0.27  OA
BRANCH 14 17
ATOM     17  CA  SER C 308       7.024  -1.406  -4.642  0.50 39.43 LIG 0.20  C 
BRANCH 17 18
ATOM     18  C   SER C 308       5.969  -0.629  -5.433  0.50 39.77 LIG 0.24  C 
ATOM     19  N   PRO C 309       5.174   0.211  -4.746  0.50 40.03 LIG-0.34  N 
ATOM     20  CD  PRO C 309       5.391   0.766  -3.400  0.50 39.83 LIG 0.13  C 
ATOM     21  CA  PRO C 309       3.942   0.716  -5.354  0.50 40.09 LIG 0.19  C 
ATOM     22  CG  PRO C 309       4.037   1.282  -3.028  0.50 40.19 LIG 0.02  C 
ATOM     23  CB  PRO C 309       3.431   1.731  -4.322  0.50 40.09 LIG 0.04  C 
ATOM     24 O    SER C 308       5.880  -0.769  -6.656  0.50 39.81 LIG-0.27  OA
BRANCH 21 25
ATOM     25  C   PRO C 309       4.164   1.374  -6.716  0.50 40.04 LIG 0.20  C 
ATOM     26 OXT  PRO C 309       3.376   1.204  -7.651  0.50 40.10 LIG-0.65  OA
ATOM     27 O    PRO C 309       5.149   2.087  -6.918  0.50 40.34 LIG-0.65  OA
ENDBRANCH 21 25
ENDBRANCH 17 18
BRANCH 17 28
ATOM     28  CB  SER C 308       6.378  -2.140  -3.465  0.50 39.49 LIG 0.20  C 
BRANCH 28 29
ATOM     29 OG   SER C 308       6.973  -1.767  -2.231  0.50 39.70 LIG-0.40  OA
ATOM     30 HG   SER C 308       7.767  -1.528  -2.363  0.50 39.70 LIG 0.21  HD
ENDBRANCH 28 29
ENDBRANCH 17 28
ENDBRANCH 14 17
ENDBRANCH 12 13
BRANCH 12 31
ATOM     31  CB  ILE C 307       8.300   2.160  -2.754  0.50 37.20 LIG 0.01  C 
ATOM     32  CG2 ILE C 307       9.138   1.946  -1.485  0.50 36.86 LIG 0.01  C 
BRANCH 31 33
ATOM     33  CG1 ILE C 307       7.822   3.613  -2.921  0.50 35.88 LIG 0.00  C 
ATOM     34  CD1 ILE C 307       6.734   3.823  -3.946  0.50 32.01 LIG 0.01  C 
ENDBRANCH 31 33
ENDBRANCH 12 31
ENDBRANCH 9 12
ENDBRANCH 4 8
BRANCH 1 35
ATOM     35  CA  PHE C 305      10.547   7.218  -3.967  0.50 34.47 LIG 0.18  C 
BRANCH 35 36
ATOM     36  CB  PHE C 305       9.683   6.680  -2.816  0.50 34.49 LIG 0.07  C 
BRANCH 36 37
ATOM     37  CG  PHE C 305      10.386   5.708  -1.883  0.50 35.55 LIG-0.06  A 
ATOM     38  CD1 PHE C 305      11.416   4.878  -2.326  0.50 36.28 LIG 0.01  A 
ATOM     39  CE1 PHE C 305      12.050   3.994  -1.448  0.50 36.66 LIG 0.00  A 
ATOM     40  CZ  PHE C 305      11.646   3.923  -0.111  0.50 36.87 LIG 0.00  A 
ATOM     41  CE2 PHE C 305      10.623   4.737   0.341  0.50 36.76 LIG 0.00  A 
ATOM     42  CD2 PHE C 305       9.989   5.620  -0.547  0.50 36.02 LIG 0.01  A 
ENDBRANCH 36 37
ENDBRANCH 35 36
BRANCH 35 43
ATOM     43  N   PHE C 305      10.147   8.600  -4.252  0.50 33.54 LIG-0.35  N 
ATOM     44 H    PHE C 305       9.637   8.957  -3.658  0.50 33.54 LIG 0.16  HD
ATOM     45  C   ASN C 304      10.564   9.219  -5.357  0.50 33.07 LIG 0.24  C 
ATOM     46 O    ASN C 304      10.984   8.606  -6.346  0.50 33.39 LIG-0.27  OA
BRANCH 45 47
ATOM     47  CA  ASN C 304      10.508  10.753  -5.343  0.50 32.40 LIG 0.18  C 
BRANCH 47 48
ATOM     48  CB  ASN C 304      11.876  11.404  -5.089  0.50 32.38 LIG 0.14  C 
BRANCH 48 49
ATOM     49  CG  ASN C 304      13.048  10.391  -5.131  0.50 31.77 LIG 0.22  C 
ATOM     50 OD1  ASN C 304      13.358   9.737  -4.142  0.50 27.48 LIG-0.27  OA
ATOM     51  ND2 ASN C 304      13.717  10.306  -6.274  0.50 32.56 LIG-0.37  N 
ATOM     52 21HD ASN C 304      14.394   9.778  -6.338  0.50 32.56 LIG 0.16  HD
ATOM     53 22HD ASN C 304      13.474  10.777  -6.951  0.50 32.56 LIG 0.16  HD
ENDBRANCH 48 49
ENDBRANCH 47 48
BRANCH 47 54
ATOM     54  N   ASN C 304       9.581  11.213  -4.337  0.50 31.56 LIG-0.34  N 
ATOM     55  C   LEU C 303       8.286  10.956  -4.444  0.50 30.83 LIG 0.26  C 
ATOM     56 O    LEU C 303       7.841  10.157  -5.256  0.50 29.02 LIG-0.27  OA
ATOM     57 H    ASN C 304       9.938  11.651  -3.689  0.50 31.56 LIG 0.16  HD
BRANCH 55 58
ATOM     58  CA  LEU C 303       7.371  11.719  -3.480  0.50 30.56 LIG 0.40  C 
ATOM     59  N   LEU C 303       6.019  12.005  -4.034  0.50 30.88 LIG 0.61  N 
BRANCH 58 60
ATOM     60  CB  LEU C 303       7.248  10.985  -2.139  0.50 30.80 LIG 0.06  C 
BRANCH 60 61
ATOM     61  CG  LEU C 303       8.370  10.015  -1.749  0.50 30.92 LIG-0.02  C 
ATOM     62  CD2 LEU C 303       7.810   8.826  -0.946  0.50 31.43 LIG 0.01  C 
ATOM     63  CD1 LEU C 303       9.481  10.726  -0.997  0.50 30.50 LIG 0.01  C 
ENDBRANCH 60 61
ENDBRANCH 58 60
ENDBRANCH 55 58
ENDBRANCH 47 54
ENDBRANCH 45 47
ENDBRANCH 35 43
ENDBRANCH 1 35
TORSDOF 21
ENDMDL
MODEL 87
USER: ADFR SOLUTION from run 87
USER: SCORE 17.665556 LL:  -5.574 LR: -13.169 RR:   0.000 FEB:  -6.905
USER: RMSD 6.316364
USER: SEED 86
USER: STATUS searching
USER: GENES 23
USER: genes 0 Translation |==|  0.44860 0.50458 0.22252
USER: genes 1 Rotation |==|  0.77757 0.73025 0.58653 0.83534
USER: genes 2 Torsion [N]-CA--C-[N] |==|  0.62378
USER: genes 3 Torsion [C]-N--CA-[C] |==|  0.81965
USER: genes 4 Torsion [N]-CA--C-[N] |==|  0.95129
USER: genes 5 Torsion [C]-N--CA-[CB] |==|  0.51768
USER: genes 6 Torsion [N]-CA--C-[N] |==|  0.45096
USER: genes 7 Torsion [N]-CA--C-[OXT] |==|  0.90949
USER: genes 8 Torsion [N]-CA--CB-[OG] |==|  0.84420
USER: genes 9 Torsion [CA]-CB--OG-[HG] |==|  0.60545
USER: genes 10 Torsion [N]-CA--CB-[CG2] |==|  0.21428
USER: genes 11 Torsion [CA]-CB--CG1-[CD1] |==|  0.22000
USER: genes 12 Torsion [N]-C--CA-[N] |==|  0.11544
USER: genes 13 Torsion [C]-CA--CB-[CG] |==|  0.62500
USER: genes 14 Torsion [CA]-CB--CG-[CD1] |==|  0.24283
USER: genes 15 Torsion [C]-CA--N-[C] |==|  0.66808
USER: genes 16 Torsion [N]-C--CA-[N] |==|  0.28899
USER: genes 17 Torsion [C]-CA--CB-[CG] |==|  0.57198
USER: genes 18 Torsion [CA]-CB--CG-[OD1] |==|  0.21144
USER: genes 19 Torsion [C]-CA--N-[C] |==|  0.62383
USER: genes 20 Torsion [N]-C--CA-[N] |==|  0.24242
USER: genes 21 Torsion [C]-CA--CB-[CG] |==|  0.78988
USER: genes 22 Torsion [CA]-CB--CG-[CD2] |==|  0.67411
ROOT
ATOM      1  C   PHE C 305      12.081   6.941  -5.893  0.50 34.66 LIG 0.24  C 
ATOM      2 O    PHE C 305      11.799   7.471  -6.963  0.50 33.80 LIG-0.27  OA
ATOM      3  N   PRO C 306      11.995   5.609  -5.706  0.50 35.29 LIG-0.34  N 
ATOM      4  CA  PRO C 306      11.117   4.823  -6.558  0.50 35.79 LIG 0.18  C 
ATOM      5  CB  PRO C 306      11.836   3.456  -6.642  0.50 35.80 LIG 0.04  C 
ATOM      6  CG  PRO C 306      13.010   3.542  -5.660  0.50 35.25 LIG 0.02  C 
ATOM      7  CD  PRO C 306      12.748   4.739  -4.790  0.50 35.51 LIG 0.13  C 
ENDROOT
BRANCH 4 8
ATOM      8  C   PRO C 306       9.757   4.631  -5.884  0.50 36.50 LIG 0.24  C 
ATOM      9  N   ILE C 307       9.246   3.390  -5.938  0.50 37.01 LIG-0.35  N 
ATOM     10 H    ILE C 307       9.596   2.732  -6.365  0.50 37.01 LIG 0.16  HD
ATOM     11 O    PRO C 306       9.193   5.594  -5.318  0.50 36.74 LIG-0.27  OA
BRANCH 9 12
ATOM     12  CA  ILE C 307       8.001   3.083  -5.232  0.50 37.44 LIG 0.18  C 
BRANCH 12 13
ATOM     13  C   ILE C 307       8.140   3.205  -3.713  0.50 38.23 LIG 0.24  C 
ATOM     14  N   SER C 308       9.392   3.199  -3.264  0.50 38.91 LIG-0.34  N 
ATOM     15 H    SER C 308      10.067   3.012  -3.764  0.50 38.91 LIG 0.16  HD
ATOM     16 O    ILE C 307       7.145   3.310  -2.980  0.50 38.79 LIG-0.27  OA
BRANCH 14 17
ATOM     17  CA  SER C 308       9.759   3.506  -1.884  0.50 39.43 LIG 0.20  C 
BRANCH 17 18
ATOM     18  C   SER C 308       9.132   4.868  -1.576  0.50 39.77 LIG 0.24  C 
ATOM     19  N   PRO C 309       9.007   5.214  -0.282  0.50 40.03 LIG-0.34  N 
ATOM     20  CD  PRO C 309       9.704   4.640   0.880  0.50 39.83 LIG 0.13  C 
ATOM     21  CA  PRO C 309       8.123   6.317   0.099  0.50 40.09 LIG 0.19  C 
ATOM     22  CG  PRO C 309       8.890   5.131   2.035  0.50 40.19 LIG 0.02  C 
ATOM     23  CB  PRO C 309       8.387   6.475   1.603  0.50 40.09 LIG 0.04  C 
ATOM     24 O    SER C 308       8.776   5.611  -2.495  0.50 39.81 LIG-0.27  OA
BRANCH 21 25
ATOM     25  C   PRO C 309       8.414   7.615  -0.654  0.50 40.04 LIG 0.20  C 
ATOM     26 OXT  PRO C 309       9.558   7.914  -1.007  0.50 40.10 LIG-0.65  OA
ATOM     27 O    PRO C 309       7.506   8.408  -0.917  0.50 40.34 LIG-0.65  OA
ENDBRANCH 21 25
ENDBRANCH 17 18
BRANCH 17 28
ATOM     28  CB  SER C 308      11.279   3.568  -1.723  0.50 39.49 LIG 0.20  C 
BRANCH 28 29
ATOM     29 OG   SER C 308      11.896   2.362  -2.151  0.50 39.70 LIG-0.40  OA
ATOM     30 HG   SER C 308      12.538   2.178  -1.641  0.50 39.70 LIG 0.21  HD
ENDBRANCH 28 29
ENDBRANCH 17 28
ENDBRANCH 14 17
ENDBRANCH 12 13
BRANCH 12 31
ATOM     31  CB  ILE C 307       7.480   1.659  -5.547  0.50 37.20 LIG 0.01  C 
ATOM     32  CG2 ILE C 307       8.281   0.601  -4.774  0.50 36.86 LIG 0.01  C 
BRANCH 31 33
ATOM     33  CG1 ILE C 307       5.968   1.593  -5.266  0.50 35.88 LIG 0.00  C 
ATOM     34  CD1 ILE C 307       5.084   2.180  -6.338  0.50 32.01 LIG 0.01  C 
ENDBRANCH 31 33
ENDBRANCH 12 31
ENDBRANCH 9 12
ENDBRANCH 4 8
BRANCH 1 35
ATOM     35  CA  PHE C 305      12.588   7.801  -4.728  0.50 34.47 LIG 0.18  C 
BRANCH 35 36
ATOM     36  CB  PHE C 305      13.005   9.160  -5.310  0.50 34.49 LIG 0.07  C 
BRANCH 36 37
ATOM     37  CG  PHE C 305      14.336   9.695  -4.807  0.50 35.55 LIG-0.06  A 
ATOM     38  CD1 PHE C 305      15.542   9.359  -5.421  0.50 36.28 LIG 0.01  A 
ATOM     39  CE1 PHE C 305      16.754   9.866  -4.942  0.50 36.66 LIG 0.00  A 
ATOM     40  CZ  PHE C 305      16.769  10.710  -3.827  0.50 36.87 LIG 0.00  A 
ATOM     41  CE2 PHE C 305      15.581  11.048  -3.205  0.50 36.76 LIG 0.00  A 
ATOM     42  CD2 PHE C 305      14.369  10.532  -3.690  0.50 36.02 LIG 0.01  A 
ENDBRANCH 36 37
ENDBRANCH 35 36
BRANCH 35 43
ATOM     43  N   PHE C 305      13.723   7.234  -3.991  0.50 33.54 LIG-0.35  N 
ATOM     44 H    PHE C 305      14.431   7.105  -4.463  0.50 33.54 LIG 0.16  HD
ATOM     45  C   ASN C 304      13.625   6.956  -2.691  0.50 33.07 LIG 0.24  C 
ATOM     46 O    ASN C 304      12.537   6.812  -2.121  0.50 33.39 LIG-0.27  OA
BRANCH 45 47
ATOM     47  CA  ASN C 304      14.945   6.832  -1.918  0.50 32.40 LIG 0.18  C 
BRANCH 47 48
ATOM     48  CB  ASN C 304      14.996   5.597  -1.005  0.50 32.38 LIG 0.14  C 
BRANCH 48 49
ATOM     49  CG  ASN C 304      15.956   5.772   0.199  0.50 31.77 LIG 0.22  C 
ATOM     50 OD1  ASN C 304      15.642   6.454   1.168  0.50 27.48 LIG-0.27  OA
ATOM     51  ND2 ASN C 304      17.142   5.185   0.101  0.50 32.56 LIG-0.37  N 
ATOM     52 21HD ASN C 304      17.721   5.277   0.731  0.50 32.56 LIG 0.16  HD
ATOM     53 22HD ASN C 304      17.332   4.712  -0.592  0.50 32.56 LIG 0.16  HD
ENDBRANCH 48 49
ENDBRANCH 47 48
BRANCH 47 54
ATOM     54  N   ASN C 304      15.172   8.011  -1.118  0.50 31.56 LIG-0.34  N 
ATOM     55  C   LEU C 303      16.366   8.584  -1.086  0.50 30.83 LIG 0.26  C 
ATOM     56 O    LEU C 303      17.256   8.291  -1.871  0.50 29.02 LIG-0.27  OA
ATOM     57 H    ASN C 304      14.485   8.291  -0.683  0.50 31.56 LIG 0.16  HD
BRANCH 55 58
ATOM     58  CA  LEU C 303      16.566   9.651  -0.002  0.50 30.56 LIG 0.40  C 
ATOM     59  N   LEU C 303      17.021   9.101   1.305  0.50 30.88 LIG 0.61  N 
BRANCH 58 60
ATOM     60  CB  LEU C 303      17.527  10.747  -0.478  0.50 30.80 LIG 0.06  C 
BRANCH 60 61
ATOM     61  CG  LEU C 303      19.025  10.420  -0.513  0.50 30.92 LIG-0.02  C 
ATOM     62  CD2 LEU C 303      19.806  11.330   0.454  0.50 31.43 LIG 0.01  C 
ATOM     63  CD1 LEU C 303      19.576  10.497  -1.926  0.50 30.50 LIG 0.01  C 
ENDBRANCH 60 61
ENDBRANCH 58 60
ENDBRANCH 55 58
ENDBRANCH 47 54
ENDBRANCH 45 47
ENDBRANCH 35 43
ENDBRANCH 1 35
TORSDOF 21
ENDMDL
MODEL 88
USER: ADFR SOLUTION from run 74
USER: SCORE 17.283664 LL:  -5.520 LR: -13.147 RR:   0.000 FEB:  -6.883
USER: RMSD 6.927906
USER: SEED 73
USER: STATUS no improvement in best in 16 clusters for 5 generations
USER: GENES 23
USER: genes 0 Translation |==|  0.38307 0.61930 0.27539
USER: genes 1 Rotation |==|  0.37729 0.05445 0.31592 0.55042
USER: genes 2 Torsion [N]-CA--C-[N] |==|  0.23995
USER: genes 3 Torsion [C]-N--CA-[C] |==|  0.66279
USER: genes 4 Torsion [N]-CA--C-[N] |==|  0.90951
USER: genes 5 Torsion [C]-N--CA-[CB] |==|  0.20000
USER: genes 6 Torsion [N]-CA--C-[N] |==|  0.49044
USER: genes 7 Torsion [N]-CA--C-[OXT] |==|  0.44762
USER: genes 8 Torsion [N]-CA--CB-[OG] |==|  0.00120
USER: genes 9 Torsion [CA]-CB--OG-[HG] |==|  0.46222
USER: genes 10 Torsion [N]-CA--CB-[CG2] |==|  0.35797
USER: genes 11 Torsion [CA]-CB--CG1-[CD1] |==|  0.02670
USER: genes 12 Torsion [N]-C--CA-[N] |==|  0.94478
USER: genes 13 Torsion [C]-CA--CB-[CG] |==|  0.80882
USER: genes 14 Torsion [CA]-CB--CG-[CD1] |==|  0.23074
USER: genes 15 Torsion [C]-CA--N-[C] |==|  0.82049
USER: genes 16 Torsion [N]-C--CA-[N] |==|  0.45528
USER: genes 17 Torsion [C]-CA--CB-[CG] |==|  0.84310
USER: genes 18 Torsion [CA]-CB--CG-[OD1] |==|  0.10133
USER: genes 19 Torsion [C]-CA--N-[C] |==|  0.63860
USER: genes 20 Torsion [N]-C--CA-[N] |==|  0.35555
USER: genes 21 Torsion [C]-CA--CB-[CG] |==|  0.24448
USER: genes 22 Torsion [CA]-CB--CG-[CD2] |==|  0.63526
ROOT
ATOM      1  C   PHE C 305      10.410   9.694  -4.822  0.50 34.66 LIG 0.24  C 
ATOM      2 O    PHE C 305       9.357   9.068  -4.749  0.50 33.80 LIG-0.27  OA
ATOM      3  N   PRO C 306      11.222   9.611  -5.895  0.50 35.29 LIG-0.34  N 
ATOM      4  CA  PRO C 306      11.152   8.441  -6.755  0.50 35.79 LIG 0.18  C 
ATOM      5  CB  PRO C 306      11.514   9.003  -8.150  0.50 35.80 LIG 0.04  C 
ATOM      6  CG  PRO C 306      11.935  10.459  -7.915  0.50 35.25 LIG 0.02  C 
ATOM      7  CD  PRO C 306      12.167  10.600  -6.436  0.50 35.51 LIG 0.13  C 
ENDROOT
BRANCH 4 8
ATOM      8  C   PRO C 306      12.208   7.414  -6.341  0.50 36.50 LIG 0.24  C 
ATOM      9  N   ILE C 307      11.845   6.558  -5.371  0.50 37.01 LIG-0.35  N 
ATOM     10 H    ILE C 307      11.102   6.590  -4.940  0.50 37.01 LIG 0.16  HD
ATOM     11 O    PRO C 306      13.325   7.396  -6.905  0.50 36.74 LIG-0.27  OA
BRANCH 9 12
ATOM     12  CA  ILE C 307      12.747   5.474  -4.980  0.50 37.44 LIG 0.18  C 
BRANCH 12 13
ATOM     13  C   ILE C 307      12.112   4.091  -5.147  0.50 38.23 LIG 0.24  C 
ATOM     14  N   SER C 308      10.799   4.051  -4.940  0.50 38.91 LIG-0.34  N 
ATOM     15 H    SER C 308      10.357   4.712  -4.612  0.50 38.91 LIG 0.16  HD
ATOM     16 O    ILE C 307      12.792   3.104  -5.462  0.50 38.79 LIG-0.27  OA
BRANCH 14 17
ATOM     17  CA  SER C 308       9.968   2.889  -5.241  0.50 39.43 LIG 0.20  C 
BRANCH 17 18
ATOM     18  C   SER C 308       8.519   3.372  -5.141  0.50 39.77 LIG 0.24  C 
ATOM     19  N   PRO C 309       7.549   2.492  -5.447  0.50 40.03 LIG-0.34  N 
ATOM     20  CD  PRO C 309       7.649   1.026  -5.525  0.50 39.83 LIG 0.13  C 
ATOM     21  CA  PRO C 309       6.187   2.963  -5.708  0.50 40.09 LIG 0.19  C 
ATOM     22  CG  PRO C 309       6.410   0.645  -6.272  0.50 40.19 LIG 0.02  C 
ATOM     23  CB  PRO C 309       5.389   1.662  -5.862  0.50 40.09 LIG 0.04  C 
ATOM     24 O    SER C 308       8.272   4.525  -4.774  0.50 39.81 LIG-0.27  OA
BRANCH 21 25
ATOM     25  C   PRO C 309       5.621   3.833  -4.586  0.50 40.04 LIG 0.20  C 
ATOM     26 OXT  PRO C 309       4.658   4.581  -4.774  0.50 40.10 LIG-0.65  OA
ATOM     27 O    PRO C 309       6.125   3.816  -3.461  0.50 40.34 LIG-0.65  OA
ENDBRANCH 21 25
ENDBRANCH 17 18
BRANCH 17 28
ATOM     28  CB  SER C 308      10.225   1.758  -4.243  0.50 39.49 LIG 0.20  C 
BRANCH 28 29
ATOM     29 OG   SER C 308      11.197   2.130  -3.276  0.50 39.70 LIG-0.40  OA
ATOM     30 HG   SER C 308      11.186   1.580  -2.641  0.50 39.70 LIG 0.21  HD
ENDBRANCH 28 29
ENDBRANCH 17 28
ENDBRANCH 14 17
ENDBRANCH 12 13
BRANCH 12 31
ATOM     31  CB  ILE C 307      13.223   5.602  -3.513  0.50 37.20 LIG 0.01  C 
ATOM     32  CG2 ILE C 307      13.001   4.288  -2.748  0.50 36.86 LIG 0.01  C 
BRANCH 31 33
ATOM     33  CG1 ILE C 307      14.688   6.073  -3.488  0.50 35.88 LIG 0.00  C 
ATOM     34  CD1 ILE C 307      15.249   6.515  -4.817  0.50 32.01 LIG 0.01  C 
ENDBRANCH 31 33
ENDBRANCH 12 31
ENDBRANCH 9 12
ENDBRANCH 4 8
BRANCH 1 35
ATOM     35  CA  PHE C 305      10.816  10.639  -3.684  0.50 34.47 LIG 0.18  C 
BRANCH 35 36
ATOM     36  CB  PHE C 305       9.978  11.919  -3.830  0.50 34.49 LIG 0.07  C 
BRANCH 36 37
ATOM     37  CG  PHE C 305      10.316  12.774  -5.041  0.50 35.55 LIG-0.06  A 
ATOM     38  CD1 PHE C 305       9.788  12.502  -6.302  0.50 36.28 LIG 0.01  A 
ATOM     39  CE1 PHE C 305      10.111  13.306  -7.400  0.50 36.66 LIG 0.00  A 
ATOM     40  CZ  PHE C 305      10.982  14.388  -7.245  0.50 36.87 LIG 0.00  A 
ATOM     41  CE2 PHE C 305      11.517  14.667  -6.000  0.50 36.76 LIG 0.00  A 
ATOM     42  CD2 PHE C 305      11.190  13.854  -4.903  0.50 36.02 LIG 0.01  A 
ENDBRANCH 36 37
ENDBRANCH 35 36
BRANCH 35 43
ATOM     43  N   PHE C 305      12.237  11.004  -3.661  0.50 33.54 LIG-0.35  N 
ATOM     44 H    PHE C 305      12.396  11.839  -3.797  0.50 33.54 LIG 0.16  HD
ATOM     45  C   ASN C 304      13.176  10.083  -3.444  0.50 33.07 LIG 0.24  C 
ATOM     46 O    ASN C 304      12.974   8.874  -3.603  0.50 33.39 LIG-0.27  OA
BRANCH 45 47
ATOM     47  CA  ASN C 304      14.541  10.600  -2.970  0.50 32.40 LIG 0.18  C 
BRANCH 47 48
ATOM     48  CB  ASN C 304      15.350  11.282  -4.084  0.50 32.38 LIG 0.14  C 
BRANCH 48 49
ATOM     49  CG  ASN C 304      15.578  10.367  -5.314  0.50 31.77 LIG 0.22  C 
ATOM     50 OD1  ASN C 304      14.714   9.585  -5.693  0.50 27.48 LIG-0.27  OA
ATOM     51  ND2 ASN C 304      16.767  10.446  -5.899  0.50 32.56 LIG-0.37  N 
ATOM     52 21HD ASN C 304      16.952   9.937  -6.567  0.50 32.56 LIG 0.16  HD
ATOM     53 22HD ASN C 304      17.352  11.006  -5.609  0.50 32.56 LIG 0.16  HD
ENDBRANCH 48 49
ENDBRANCH 47 48
BRANCH 47 54
ATOM     54  N   ASN C 304      15.325   9.521  -2.421  0.50 31.56 LIG-0.34  N 
ATOM     55  C   LEU C 303      15.905   9.642  -1.236  0.50 30.83 LIG 0.26  C 
ATOM     56 O    LEU C 303      15.643  10.557  -0.468  0.50 29.02 LIG-0.27  OA
ATOM     57 H    ASN C 304      15.376   8.821  -2.918  0.50 31.56 LIG 0.16  HD
BRANCH 55 58
ATOM     58  CA  LEU C 303      16.929   8.557  -0.879  0.50 30.56 LIG 0.40  C 
ATOM     59  N   LEU C 303      18.247   9.095  -0.443  0.50 30.88 LIG 0.61  N 
BRANCH 58 60
ATOM     60  CB  LEU C 303      16.371   7.601   0.183  0.50 30.80 LIG 0.06  C 
BRANCH 60 61
ATOM     61  CG  LEU C 303      15.570   6.385  -0.299  0.50 30.92 LIG-0.02  C 
ATOM     62  CD2 LEU C 303      14.245   6.262   0.476  0.50 31.43 LIG 0.01  C 
ATOM     63  CD1 LEU C 303      16.392   5.112  -0.213  0.50 30.50 LIG 0.01  C 
ENDBRANCH 60 61
ENDBRANCH 58 60
ENDBRANCH 55 58
ENDBRANCH 47 54
ENDBRANCH 45 47
ENDBRANCH 35 43
ENDBRANCH 1 35
TORSDOF 21
ENDMDL
MODEL 89
USER: ADFR SOLUTION from run 77
USER: SCORE 17.377486 LL:  -6.398 LR: -13.127 RR:   0.000 FEB:  -6.863
USER: RMSD 7.531741
USER: SEED 76
USER: STATUS no improvement in best in 43 clusters for 5 generations
USER: GENES 23
USER: genes 0 Translation |==|  0.37662 0.48368 0.26462
USER: genes 1 Rotation |==|  0.62459 0.89279 0.70278 0.69768
USER: genes 2 Torsion [N]-CA--C-[N] |==|  0.12052
USER: genes 3 Torsion [C]-N--CA-[C] |==|  0.65026
USER: genes 4 Torsion [N]-CA--C-[N] |==|  0.96268
USER: genes 5 Torsion [C]-N--CA-[CB] |==|  0.49552
USER: genes 6 Torsion [N]-CA--C-[N] |==|  0.26647
USER: genes 7 Torsion [N]-CA--C-[OXT] |==|  0.87376
USER: genes 8 Torsion [N]-CA--CB-[OG] |==|  0.43902
USER: genes 9 Torsion [CA]-CB--OG-[HG] |==|  0.63952
USER: genes 10 Torsion [N]-CA--CB-[CG2] |==|  0.32972
USER: genes 11 Torsion [CA]-CB--CG1-[CD1] |==|  0.61909
USER: genes 12 Torsion [N]-C--CA-[N] |==|  0.85237
USER: genes 13 Torsion [C]-CA--CB-[CG] |==|  0.12058
USER: genes 14 Torsion [CA]-CB--CG-[CD1] |==|  0.68453
USER: genes 15 Torsion [C]-CA--N-[C] |==|  0.77364
USER: genes 16 Torsion [N]-C--CA-[N] |==|  0.91064
USER: genes 17 Torsion [C]-CA--CB-[CG] |==|  0.92946
USER: genes 18 Torsion [CA]-CB--CG-[OD1] |==|  0.30421
USER: genes 19 Torsion [C]-CA--N-[C] |==|  0.63853
USER: genes 20 Torsion [N]-C--CA-[N] |==|  0.39283
USER: genes 21 Torsion [C]-CA--CB-[CG] |==|  0.17909
USER: genes 22 Torsion [CA]-CB--CG-[CD2] |==|  0.74257
ROOT
ATOM      1  C   PHE C 305      10.246   6.439  -5.040  0.50 34.66 LIG 0.24  C 
ATOM      2 O    PHE C 305       9.380   6.244  -5.888  0.50 33.80 LIG-0.27  OA
ATOM      3  N   PRO C 306      11.431   5.798  -5.064  0.50 35.29 LIG-0.34  N 
ATOM      4  CA  PRO C 306      11.543   4.528  -5.763  0.50 35.79 LIG 0.18  C 
ATOM      5  CB  PRO C 306      13.005   4.529  -6.269  0.50 35.80 LIG 0.04  C 
ATOM      6  CG  PRO C 306      13.659   5.768  -5.646  0.50 35.25 LIG 0.02  C 
ATOM      7  CD  PRO C 306      12.740   6.227  -4.549  0.50 35.51 LIG 0.13  C 
ENDROOT
BRANCH 4 8
ATOM      8  C   PRO C 306      11.355   3.366  -4.785  0.50 36.50 LIG 0.24  C 
ATOM      9  N   ILE C 307      10.353   3.501  -3.900  0.50 37.01 LIG-0.35  N 
ATOM     10 H    ILE C 307       9.866   4.204  -3.813  0.50 37.01 LIG 0.16  HD
ATOM     11 O    PRO C 306      12.100   2.363  -4.847  0.50 36.74 LIG-0.27  OA
BRANCH 9 12
ATOM     12  CA  ILE C 307      10.027   2.399  -2.994  0.50 37.44 LIG 0.18  C 
BRANCH 12 13
ATOM     13  C   ILE C 307       8.552   1.995  -3.066  0.50 38.23 LIG 0.24  C 
ATOM     14  N   SER C 308       7.766   2.860  -3.699  0.50 38.91 LIG-0.34  N 
ATOM     15 H    SER C 308       8.030   3.644  -3.937  0.50 38.91 LIG 0.16  HD
ATOM     16 O    ILE C 307       8.151   0.931  -2.572  0.50 38.79 LIG-0.27  OA
BRANCH 14 17
ATOM     17  CA  SER C 308       6.378   2.581  -4.058  0.50 39.43 LIG 0.20  C 
BRANCH 17 18
ATOM     18  C   SER C 308       6.424   1.387  -5.015  0.50 39.77 LIG 0.24  C 
ATOM     19  N   PRO C 309       6.232   0.164  -4.489  0.50 40.03 LIG-0.34  N 
ATOM     20  CD  PRO C 309       5.630  -0.179  -3.191  0.50 39.83 LIG 0.13  C 
ATOM     21  CA  PRO C 309       6.597  -1.029  -5.256  0.50 40.09 LIG 0.19  C 
ATOM     22  CG  PRO C 309       6.041  -1.605  -2.997  0.50 40.19 LIG 0.02  C 
ATOM     23  CB  PRO C 309       6.085  -2.180  -4.380  0.50 40.09 LIG 0.04  C 
ATOM     24 O    SER C 308       6.616   1.564  -6.221  0.50 39.81 LIG-0.27  OA
BRANCH 21 25
ATOM     25  C   PRO C 309       5.970  -1.070  -6.649  0.50 40.04 LIG 0.20  C 
ATOM     26 OXT  PRO C 309       4.779  -0.803  -6.828  0.50 40.10 LIG-0.65  OA
ATOM     27 O    PRO C 309       6.642  -1.387  -7.633  0.50 40.34 LIG-0.65  OA
ENDBRANCH 21 25
ENDBRANCH 17 18
BRANCH 17 28
ATOM     28  CB  SER C 308       5.735   3.790  -4.741  0.50 39.49 LIG 0.20  C 
BRANCH 28 29
ATOM     29 OG   SER C 308       4.614   3.408  -5.525  0.50 39.70 LIG-0.40  OA
ATOM     30 HG   SER C 308       4.685   3.737  -6.294  0.50 39.70 LIG 0.21  HD
ENDBRANCH 28 29
ENDBRANCH 17 28
ENDBRANCH 14 17
ENDBRANCH 12 13
BRANCH 12 31
ATOM     31  CB  ILE C 307      10.355   2.732  -1.518  0.50 37.20 LIG 0.01  C 
ATOM     32  CG2 ILE C 307       9.086   2.695  -0.653  0.50 36.86 LIG 0.01  C 
BRANCH 31 33
ATOM     33  CG1 ILE C 307      11.456   1.783  -1.011  0.50 35.88 LIG 0.00  C 
ATOM     34  CD1 ILE C 307      11.244   1.227   0.376  0.50 32.01 LIG 0.01  C 
ENDBRANCH 31 33
ENDBRANCH 12 31
ENDBRANCH 9 12
ENDBRANCH 4 8
BRANCH 1 35
ATOM     35  CA  PHE C 305      10.007   7.472  -3.931  0.50 34.47 LIG 0.18  C 
BRANCH 35 36
ATOM     36  CB  PHE C 305      10.950   8.655  -4.196  0.50 34.49 LIG 0.07  C 
BRANCH 36 37
ATOM     37  CG  PHE C 305      11.033   9.100  -5.647  0.50 35.55 LIG-0.06  A 
ATOM     38  CD1 PHE C 305      12.203   8.962  -6.393  0.50 36.28 LIG 0.01  A 
ATOM     39  CE1 PHE C 305      12.254   9.375  -7.727  0.50 36.66 LIG 0.00  A 
ATOM     40  CZ  PHE C 305      11.128   9.947  -8.327  0.50 36.87 LIG 0.00  A 
ATOM     41  CE2 PHE C 305       9.962  10.095  -7.599  0.50 36.76 LIG 0.00  A 
ATOM     42  CD2 PHE C 305       9.920   9.680  -6.259  0.50 36.02 LIG 0.01  A 
ENDBRANCH 36 37
ENDBRANCH 35 36
BRANCH 35 43
ATOM     43  N   PHE C 305      10.239   6.978  -2.569  0.50 33.54 LIG-0.35  N 
ATOM     44 H    PHE C 305      11.007   7.182  -2.238  0.50 33.54 LIG 0.16  HD
ATOM     45  C   ASN C 304       9.306   6.273  -1.928  0.50 33.07 LIG 0.24  C 
ATOM     46 O    ASN C 304       8.384   5.698  -2.518  0.50 33.39 LIG-0.27  OA
BRANCH 45 47
ATOM     47  CA  ASN C 304       9.425   6.216  -0.399  0.50 32.40 LIG 0.18  C 
BRANCH 47 48
ATOM     48  CB  ASN C 304       8.668   7.351   0.308  0.50 32.38 LIG 0.14  C 
BRANCH 48 49
ATOM     49  CG  ASN C 304       8.491   8.608  -0.581  0.50 31.77 LIG 0.22  C 
ATOM     50 OD1  ASN C 304       7.392   8.924  -1.023  0.50 27.48 LIG-0.27  OA
ATOM     51  ND2 ASN C 304       9.593   9.289  -0.871  0.50 32.56 LIG-0.37  N 
ATOM     52 21HD ASN C 304       9.550   9.978  -1.385  0.50 32.56 LIG 0.16  HD
ATOM     53 22HD ASN C 304      10.349   9.042  -0.545  0.50 32.56 LIG 0.16  HD
ENDBRANCH 48 49
ENDBRANCH 47 48
BRANCH 47 54
ATOM     54  N   ASN C 304      10.810   6.262   0.000  0.50 31.56 LIG-0.34  N 
ATOM     55  C   LEU C 303      11.295   5.376   0.857  0.50 30.83 LIG 0.26  C 
ATOM     56 O    LEU C 303      10.679   4.371   1.181  0.50 29.02 LIG-0.27  OA
ATOM     57 H    ASN C 304      11.270   6.895  -0.358  0.50 31.56 LIG 0.16  HD
BRANCH 55 58
ATOM     58  CA  LEU C 303      12.690   5.683   1.418  0.50 30.56 LIG 0.40  C 
ATOM     59  N   LEU C 303      12.847   5.336   2.857  0.50 30.88 LIG 0.61  N 
BRANCH 58 60
ATOM     60  CB  LEU C 303      13.781   4.997   0.587  0.50 30.80 LIG 0.06  C 
BRANCH 60 61
ATOM     61  CG  LEU C 303      13.954   5.439  -0.872  0.50 30.92 LIG-0.02  C 
ATOM     62  CD2 LEU C 303      13.121   4.552  -1.815  0.50 31.43 LIG 0.01  C 
ATOM     63  CD1 LEU C 303      15.418   5.465  -1.273  0.50 30.50 LIG 0.01  C 
ENDBRANCH 60 61
ENDBRANCH 58 60
ENDBRANCH 55 58
ENDBRANCH 47 54
ENDBRANCH 45 47
ENDBRANCH 35 43
ENDBRANCH 1 35
TORSDOF 21
ENDMDL
MODEL 90
USER: ADFR SOLUTION from run 144
USER: SCORE 18.412352 LL:  -6.524 LR: -13.119 RR:   0.000 FEB:  -6.854
USER: RMSD 11.896407
USER: SEED 143
USER: STATUS no improvement in best in 27 clusters for 5 generations
USER: GENES 23
USER: genes 0 Translation |==|  0.59782 0.45676 0.49837
USER: genes 1 Rotation |==|  0.18395 0.87506 0.55671 0.57890
USER: genes 2 Torsion [N]-CA--C-[N] |==|  0.63210
USER: genes 3 Torsion [C]-N--CA-[C] |==|  0.80348
USER: genes 4 Torsion [N]-CA--C-[N] |==|  0.46667
USER: genes 5 Torsion [C]-N--CA-[CB] |==|  0.56710
USER: genes 6 Torsion [N]-CA--C-[N] |==|  0.29713
USER: genes 7 Torsion [N]-CA--C-[OXT] |==|  0.80535
USER: genes 8 Torsion [N]-CA--CB-[OG] |==|  0.14193
USER: genes 9 Torsion [CA]-CB--OG-[HG] |==|  0.09539
USER: genes 10 Torsion [N]-CA--CB-[CG2] |==|  0.24479
USER: genes 11 Torsion [CA]-CB--CG1-[CD1] |==|  0.61062
USER: genes 12 Torsion [N]-C--CA-[N] |==|  0.34906
USER: genes 13 Torsion [C]-CA--CB-[CG] |==|  0.18434
USER: genes 14 Torsion [CA]-CB--CG-[CD1] |==|  0.60561
USER: genes 15 Torsion [C]-CA--N-[C] |==|  0.72247
USER: genes 16 Torsion [N]-C--CA-[N] |==|  0.17343
USER: genes 17 Torsion [C]-CA--CB-[CG] |==|  0.47504
USER: genes 18 Torsion [CA]-CB--CG-[OD1] |==|  0.95329
USER: genes 19 Torsion [C]-CA--N-[C] |==|  0.67171
USER: genes 20 Torsion [N]-C--CA-[N] |==|  0.28173
USER: genes 21 Torsion [C]-CA--CB-[CG] |==|  0.15830
USER: genes 22 Torsion [CA]-CB--CG-[CD2] |==|  0.07756
ROOT
ATOM      1  C   PHE C 305      15.886   5.793  -0.307  0.50 34.66 LIG 0.24  C 
ATOM      2 O    PHE C 305      16.595   4.814  -0.091  0.50 33.80 LIG-0.27  OA
ATOM      3  N   PRO C 306      16.402   7.019  -0.524  0.50 35.29 LIG-0.34  N 
ATOM      4  CA  PRO C 306      17.733   7.333  -0.031  0.50 35.79 LIG 0.18  C 
ATOM      5  CB  PRO C 306      18.268   8.346  -1.070  0.50 35.80 LIG 0.04  C 
ATOM      6  CG  PRO C 306      17.087   8.652  -1.998  0.50 35.25 LIG 0.02  C 
ATOM      7  CD  PRO C 306      15.856   8.143  -1.300  0.50 35.51 LIG 0.13  C 
ENDROOT
BRANCH 4 8
ATOM      8  C   PRO C 306      17.645   8.018   1.335  0.50 36.50 LIG 0.24  C 
ATOM      9  N   ILE C 307      18.386   9.129   1.482  0.50 37.01 LIG-0.35  N 
ATOM     10 H    ILE C 307      18.936   9.434   0.897  0.50 37.01 LIG 0.16  HD
ATOM     11 O    PRO C 306      16.906   7.549   2.229  0.50 36.74 LIG-0.27  OA
BRANCH 9 12
ATOM     12  CA  ILE C 307      18.287   9.913   2.714  0.50 37.44 LIG 0.18  C 
BRANCH 12 13
ATOM     13  C   ILE C 307      16.953  10.653   2.835  0.50 38.23 LIG 0.24  C 
ATOM     14  N   SER C 308      16.709  11.173   4.035  0.50 38.91 LIG-0.34  N 
ATOM     15 H    SER C 308      17.192  11.002   4.725  0.50 38.91 LIG 0.16  HD
ATOM     16 O    ILE C 307      16.182  10.755   1.869  0.50 38.79 LIG-0.27  OA
BRANCH 14 17
ATOM     17  CA  SER C 308      15.602  12.084   4.312  0.50 39.43 LIG 0.20  C 
BRANCH 17 18
ATOM     18  C   SER C 308      15.452  12.955   3.062  0.50 39.77 LIG 0.24  C 
ATOM     19  N   PRO C 309      14.394  12.720   2.266  0.50 40.03 LIG-0.34  N 
ATOM     20  CD  PRO C 309      13.159  11.990   2.595  0.50 39.83 LIG 0.13  C 
ATOM     21  CA  PRO C 309      14.366  13.258   0.905  0.50 40.09 LIG 0.19  C 
ATOM     22  CG  PRO C 309      12.561  11.721   1.250  0.50 40.19 LIG 0.02  C 
ATOM     23  CB  PRO C 309      12.958  12.899   0.413  0.50 40.09 LIG 0.04  C 
ATOM     24 O    SER C 308      16.274  13.844   2.822  0.50 39.81 LIG-0.27  OA
BRANCH 21 25
ATOM     25  C   PRO C 309      14.607  14.766   0.844  0.50 40.04 LIG 0.20  C 
ATOM     26 OXT  PRO C 309      13.767  15.570   1.257  0.50 40.10 LIG-0.65  OA
ATOM     27 O    PRO C 309      15.649  15.219   0.364  0.50 40.34 LIG-0.65  OA
ENDBRANCH 21 25
ENDBRANCH 17 18
BRANCH 17 28
ATOM     28  CB  SER C 308      15.901  12.952   5.537  0.50 39.49 LIG 0.20  C 
BRANCH 28 29
ATOM     29 OG   SER C 308      17.170  13.581   5.430  0.50 39.70 LIG-0.40  OA
ATOM     30 HG   SER C 308      17.322  13.771   4.626  0.50 39.70 LIG 0.21  HD
ENDBRANCH 28 29
ENDBRANCH 17 28
ENDBRANCH 14 17
ENDBRANCH 12 13
BRANCH 12 31
ATOM     31  CB  ILE C 307      19.422  10.959   2.840  0.50 37.20 LIG 0.01  C 
ATOM     32  CG2 ILE C 307      19.026  12.280   2.163  0.50 36.86 LIG 0.01  C 
BRANCH 31 33
ATOM     33  CG1 ILE C 307      19.798  11.132   4.322  0.50 35.88 LIG 0.00  C 
ATOM     34  CD1 ILE C 307      20.085  12.548   4.757  0.50 32.01 LIG 0.01  C 
ENDBRANCH 31 33
ENDBRANCH 12 31
ENDBRANCH 9 12
ENDBRANCH 4 8
BRANCH 1 35
ATOM     35  CA  PHE C 305      14.362   5.630  -0.375  0.50 34.47 LIG 0.18  C 
BRANCH 35 36
ATOM     36  CB  PHE C 305      13.875   5.287   1.041  0.50 34.49 LIG 0.07  C 
BRANCH 36 37
ATOM     37  CG  PHE C 305      14.048   6.395   2.067  0.50 35.55 LIG-0.06  A 
ATOM     38  CD1 PHE C 305      14.418   6.126   3.385  0.50 36.28 LIG 0.01  A 
ATOM     39  CE1 PHE C 305      14.575   7.163   4.310  0.50 36.66 LIG 0.00  A 
ATOM     40  CZ  PHE C 305      14.347   8.487   3.923  0.50 36.87 LIG 0.00  A 
ATOM     41  CE2 PHE C 305      13.975   8.769   2.621  0.50 36.76 LIG 0.00  A 
ATOM     42  CD2 PHE C 305      13.817   7.722   1.699  0.50 36.02 LIG 0.01  A 
ENDBRANCH 36 37
ENDBRANCH 35 36
BRANCH 35 43
ATOM     43  N   PHE C 305      13.894   4.592  -1.300  0.50 33.54 LIG-0.35  N 
ATOM     44 H    PHE C 305      13.936   3.789  -0.992  0.50 33.54 LIG 0.16  HD
ATOM     45  C   ASN C 304      13.444   4.909  -2.514  0.50 33.07 LIG 0.24  C 
ATOM     46 O    ASN C 304      13.712   5.985  -3.064  0.50 33.39 LIG-0.27  OA
BRANCH 45 47
ATOM     47  CA  ASN C 304      12.555   3.868  -3.206  0.50 32.40 LIG 0.18  C 
BRANCH 47 48
ATOM     48  CB  ASN C 304      12.172   4.259  -4.642  0.50 32.38 LIG 0.14  C 
BRANCH 48 49
ATOM     49  CG  ASN C 304      11.464   3.117  -5.414  0.50 31.77 LIG 0.22  C 
ATOM     50 OD1  ASN C 304      11.520   1.956  -5.023  0.50 27.48 LIG-0.27  OA
ATOM     51  ND2 ASN C 304      10.840   3.457  -6.535  0.50 32.56 LIG-0.37  N 
ATOM     52 21HD ASN C 304      10.457   2.854  -7.014  0.50 32.56 LIG 0.16  HD
ATOM     53 22HD ASN C 304      10.818   4.281  -6.782  0.50 32.56 LIG 0.16  HD
ENDBRANCH 48 49
ENDBRANCH 47 48
BRANCH 47 54
ATOM     54  N   ASN C 304      11.348   3.652  -2.446  0.50 31.56 LIG-0.34  N 
ATOM     55  C   LEU C 303      11.073   2.459  -1.939  0.50 30.83 LIG 0.26  C 
ATOM     56 O    LEU C 303      11.899   1.558  -1.899  0.50 29.02 LIG-0.27  OA
ATOM     57 H    ASN C 304      10.846   4.345  -2.358  0.50 31.56 LIG 0.16  HD
BRANCH 55 58
ATOM     58  CA  LEU C 303       9.651   2.275  -1.395  0.50 30.56 LIG 0.40  C 
ATOM     59  N   LEU C 303       8.748   1.531  -2.315  0.50 30.88 LIG 0.61  N 
BRANCH 58 60
ATOM     60  CB  LEU C 303       9.672   1.603  -0.016  0.50 30.80 LIG 0.06  C 
BRANCH 60 61
ATOM     61  CG  LEU C 303      10.477   2.281   1.099  0.50 30.92 LIG-0.02  C 
ATOM     62  CD2 LEU C 303      10.551   3.802   0.872  0.50 31.43 LIG 0.01  C 
ATOM     63  CD1 LEU C 303      11.858   1.666   1.238  0.50 30.50 LIG 0.01  C 
ENDBRANCH 60 61
ENDBRANCH 58 60
ENDBRANCH 55 58
ENDBRANCH 47 54
ENDBRANCH 45 47
ENDBRANCH 35 43
ENDBRANCH 1 35
TORSDOF 21
ENDMDL
MODEL 91
USER: ADFR SOLUTION from run 51
USER: SCORE 17.880508 LL:  -5.530 LR: -13.113 RR:   0.000 FEB:  -6.849
USER: RMSD 5.867902
USER: SEED 50
USER: STATUS no improvement in best in 28 clusters for 5 generations
USER: GENES 23
USER: genes 0 Translation |==|  0.44849 0.52212 0.27518
USER: genes 1 Rotation |==|  0.72026 0.82492 0.72216 0.71577
USER: genes 2 Torsion [N]-CA--C-[N] |==|  0.19564
USER: genes 3 Torsion [C]-N--CA-[C] |==|  0.61622
USER: genes 4 Torsion [N]-CA--C-[N] |==|  0.39086
USER: genes 5 Torsion [C]-N--CA-[CB] |==|  0.52333
USER: genes 6 Torsion [N]-CA--C-[N] |==|  0.43590
USER: genes 7 Torsion [N]-CA--C-[OXT] |==|  0.38526
USER: genes 8 Torsion [N]-CA--CB-[OG] |==|  0.81299
USER: genes 9 Torsion [CA]-CB--OG-[HG] |==|  0.15398
USER: genes 10 Torsion [N]-CA--CB-[CG2] |==|  0.79872
USER: genes 11 Torsion [CA]-CB--CG1-[CD1] |==|  0.29792
USER: genes 12 Torsion [N]-C--CA-[N] |==|  0.00485
USER: genes 13 Torsion [C]-CA--CB-[CG] |==|  0.78419
USER: genes 14 Torsion [CA]-CB--CG-[CD1] |==|  0.66958
USER: genes 15 Torsion [C]-CA--N-[C] |==|  0.75067
USER: genes 16 Torsion [N]-C--CA-[N] |==|  0.01699
USER: genes 17 Torsion [C]-CA--CB-[CG] |==|  0.33276
USER: genes 18 Torsion [CA]-CB--CG-[OD1] |==|  0.34593
USER: genes 19 Torsion [C]-CA--N-[C] |==|  0.65000
USER: genes 20 Torsion [N]-C--CA-[N] |==|  0.25985
USER: genes 21 Torsion [C]-CA--CB-[CG] |==|  0.24758
USER: genes 22 Torsion [CA]-CB--CG-[CD2] |==|  0.66313
ROOT
ATOM      1  C   PHE C 305      12.078   7.362  -4.827  0.50 34.66 LIG 0.24  C 
ATOM      2 O    PHE C 305      11.273   7.747  -5.669  0.50 33.80 LIG-0.27  OA
ATOM      3  N   PRO C 306      12.960   6.373  -5.075  0.50 35.29 LIG-0.34  N 
ATOM      4  CA  PRO C 306      12.675   5.410  -6.127  0.50 35.79 LIG 0.18  C 
ATOM      5  CB  PRO C 306      14.080   5.031  -6.650  0.50 35.80 LIG 0.04  C 
ATOM      6  CG  PRO C 306      15.075   5.711  -5.703  0.50 35.25 LIG 0.02  C 
ATOM      7  CD  PRO C 306      14.288   6.132  -4.492  0.50 35.51 LIG 0.13  C 
ENDROOT
BRANCH 4 8
ATOM      8  C   PRO C 306      12.009   4.164  -5.539  0.50 36.50 LIG 0.24  C 
ATOM      9  N   ILE C 307      10.749   4.324  -5.101  0.50 37.01 LIG-0.35  N 
ATOM     10 H    ILE C 307      10.329   5.074  -5.076  0.50 37.01 LIG 0.16  HD
ATOM     11 O    PRO C 306      12.629   3.078  -5.498  0.50 36.74 LIG-0.27  OA
BRANCH 9 12
ATOM     12  CA  ILE C 307       9.992   3.168  -4.619  0.50 37.44 LIG 0.18  C 
BRANCH 12 13
ATOM     13  C   ILE C 307       8.539   3.173  -5.101  0.50 38.23 LIG 0.24  C 
ATOM     14  N   SER C 308       8.060   1.981  -5.445  0.50 38.91 LIG-0.34  N 
ATOM     15 H    SER C 308       8.555   1.282  -5.517  0.50 38.91 LIG 0.16  HD
ATOM     16 O    ILE C 307       7.880   4.222  -5.149  0.50 38.79 LIG-0.27  OA
BRANCH 14 17
ATOM     17  CA  SER C 308       6.651   1.729  -5.735  0.50 39.43 LIG 0.20  C 
BRANCH 17 18
ATOM     18  C   SER C 308       5.870   2.288  -4.544  0.50 39.77 LIG 0.24  C 
ATOM     19  N   PRO C 309       4.582   2.617  -4.746  0.50 40.03 LIG-0.34  N 
ATOM     20  CD  PRO C 309       3.702   2.193  -5.847  0.50 39.83 LIG 0.13  C 
ATOM     21  CA  PRO C 309       3.880   3.463  -3.779  0.50 40.09 LIG 0.19  C 
ATOM     22  CG  PRO C 309       2.564   3.161  -5.758  0.50 40.19 LIG 0.02  C 
ATOM     23  CB  PRO C 309       2.436   3.466  -4.297  0.50 40.09 LIG 0.04  C 
ATOM     24 O    SER C 308       6.416   2.408  -3.443  0.50 39.81 LIG-0.27  OA
BRANCH 21 25
ATOM     25  C   PRO C 309       3.954   2.935  -2.346  0.50 40.04 LIG 0.20  C 
ATOM     26 OXT  PRO C 309       4.139   3.692  -1.389  0.50 40.10 LIG-0.65  OA
ATOM     27 O    PRO C 309       3.844   1.730  -2.112  0.50 40.34 LIG-0.65  OA
ENDBRANCH 21 25
ENDBRANCH 17 18
BRANCH 17 28
ATOM     28  CB  SER C 308       6.385   0.230  -5.894  0.50 39.49 LIG 0.20  C 
BRANCH 28 29
ATOM     29 OG   SER C 308       7.019  -0.290  -7.054  0.50 39.70 LIG-0.40  OA
ATOM     30 HG   SER C 308       7.840  -0.116  -7.027  0.50 39.70 LIG 0.21  HD
ENDBRANCH 28 29
ENDBRANCH 17 28
ENDBRANCH 14 17
ENDBRANCH 12 13
BRANCH 12 31
ATOM     31  CB  ILE C 307       9.977   3.075  -3.074  0.50 37.20 LIG 0.01  C 
ATOM     32  CG2 ILE C 307      11.350   2.641  -2.539  0.50 36.86 LIG 0.01  C 
BRANCH 31 33
ATOM     33  CG1 ILE C 307       9.498   4.413  -2.485  0.50 35.88 LIG 0.00  C 
ATOM     34  CD1 ILE C 307       8.106   4.401  -1.900  0.50 32.01 LIG 0.01  C 
ENDBRANCH 31 33
ENDBRANCH 12 31
ENDBRANCH 9 12
ENDBRANCH 4 8
BRANCH 1 35
ATOM     35  CA  PHE C 305      12.127   8.041  -3.452  0.50 34.47 LIG 0.18  C 
BRANCH 35 36
ATOM     36  CB  PHE C 305      12.342   9.543  -3.691  0.50 34.49 LIG 0.07  C 
BRANCH 36 37
ATOM     37  CG  PHE C 305      13.768   9.942  -4.036  0.50 35.55 LIG-0.06  A 
ATOM     38  CD1 PHE C 305      14.503  10.814  -3.234  0.50 36.28 LIG 0.01  A 
ATOM     39  CE1 PHE C 305      15.814  11.163  -3.571  0.50 36.66 LIG 0.00  A 
ATOM     40  CZ  PHE C 305      16.400  10.649  -4.731  0.50 36.87 LIG 0.00  A 
ATOM     41  CE2 PHE C 305      15.682   9.786  -5.539  0.50 36.76 LIG 0.00  A 
ATOM     42  CD2 PHE C 305      14.365   9.442  -5.195  0.50 36.02 LIG 0.01  A 
ENDBRANCH 36 37
ENDBRANCH 35 36
BRANCH 35 43
ATOM     43  N   PHE C 305      13.180   7.549  -2.557  0.50 33.54 LIG-0.35  N 
ATOM     44 H    PHE C 305      13.929   7.968  -2.618  0.50 33.54 LIG 0.16  HD
ATOM     45  C   ASN C 304      12.953   6.529  -1.729  0.50 33.07 LIG 0.24  C 
ATOM     46 O    ASN C 304      12.025   5.729  -1.896  0.50 33.39 LIG-0.27  OA
BRANCH 45 47
ATOM     47  CA  ASN C 304      13.905   6.397  -0.533  0.50 32.40 LIG 0.18  C 
BRANCH 47 48
ATOM     48  CB  ASN C 304      13.172   6.276   0.812  0.50 32.38 LIG 0.14  C 
BRANCH 48 49
ATOM     49  CG  ASN C 304      13.486   4.954   1.558  0.50 31.77 LIG 0.22  C 
ATOM     50 OD1  ASN C 304      13.920   4.960   2.704  0.50 27.48 LIG-0.27  OA
ATOM     51  ND2 ASN C 304      13.304   3.831   0.875  0.50 32.56 LIG-0.37  N 
ATOM     52 21HD ASN C 304      13.492   3.073   1.236  0.50 32.56 LIG 0.16  HD
ATOM     53 22HD ASN C 304      12.997   3.860   0.072  0.50 32.56 LIG 0.16  HD
ENDBRANCH 48 49
ENDBRANCH 47 48
BRANCH 47 54
ATOM     54  N   ASN C 304      14.799   7.528  -0.474  0.50 31.56 LIG-0.34  N 
ATOM     55  C   LEU C 303      16.111   7.350  -0.430  0.50 30.83 LIG 0.26  C 
ATOM     56 O    LEU C 303      16.634   6.266  -0.649  0.50 29.02 LIG-0.27  OA
ATOM     57 H    ASN C 304      14.412   8.296  -0.470  0.50 31.56 LIG 0.16  HD
BRANCH 55 58
ATOM     58  CA  LEU C 303      16.944   8.593  -0.093  0.50 30.56 LIG 0.40  C 
ATOM     59  N   LEU C 303      17.255   8.732   1.356  0.50 30.88 LIG 0.61  N 
BRANCH 58 60
ATOM     60  CB  LEU C 303      18.236   8.631  -0.917  0.50 30.80 LIG 0.06  C 
BRANCH 60 61
ATOM     61  CG  LEU C 303      18.193   9.325  -2.285  0.50 30.92 LIG-0.02  C 
ATOM     62  CD2 LEU C 303      18.593   8.349  -3.406  0.50 31.43 LIG 0.01  C 
ATOM     63  CD1 LEU C 303      19.052  10.577  -2.297  0.50 30.50 LIG 0.01  C 
ENDBRANCH 60 61
ENDBRANCH 58 60
ENDBRANCH 55 58
ENDBRANCH 47 54
ENDBRANCH 45 47
ENDBRANCH 35 43
ENDBRANCH 1 35
TORSDOF 21
ENDMDL
MODEL 92
USER: ADFR SOLUTION from run 82
USER: SCORE 17.690233 LL:  -6.005 LR: -13.109 RR:   0.000 FEB:  -6.845
USER: RMSD 10.045652
USER: SEED 81
USER: STATUS no improvement in best in 9 clusters for 5 generations
USER: GENES 23
USER: genes 0 Translation |==|  0.53091 0.62220 0.28178
USER: genes 1 Rotation |==|  0.89877 0.42245 0.21259 0.54864
USER: genes 2 Torsion [N]-CA--C-[N] |==|  0.59878
USER: genes 3 Torsion [C]-N--CA-[C] |==|  0.65325
USER: genes 4 Torsion [N]-CA--C-[N] |==|  0.07292
USER: genes 5 Torsion [C]-N--CA-[CB] |==|  0.20487
USER: genes 6 Torsion [N]-CA--C-[N] |==|  0.81892
USER: genes 7 Torsion [N]-CA--C-[OXT] |==|  0.38980
USER: genes 8 Torsion [N]-CA--CB-[OG] |==|  0.81144
USER: genes 9 Torsion [CA]-CB--OG-[HG] |==|  0.45199
USER: genes 10 Torsion [N]-CA--CB-[CG2] |==|  0.58052
USER: genes 11 Torsion [CA]-CB--CG1-[CD1] |==|  0.45133
USER: genes 12 Torsion [N]-C--CA-[N] |==|  0.93897
USER: genes 13 Torsion [C]-CA--CB-[CG] |==|  0.91123
USER: genes 14 Torsion [CA]-CB--CG-[CD1] |==|  0.75283
USER: genes 15 Torsion [C]-CA--N-[C] |==|  0.71219
USER: genes 16 Torsion [N]-C--CA-[N] |==|  0.02126
USER: genes 17 Torsion [C]-CA--CB-[CG] |==|  0.23099
USER: genes 18 Torsion [CA]-CB--CG-[OD1] |==|  0.12414
USER: genes 19 Torsion [C]-CA--N-[C] |==|  0.18889
USER: genes 20 Torsion [N]-C--CA-[N] |==|  0.03069
USER: genes 21 Torsion [C]-CA--CB-[CG] |==|  0.22151
USER: genes 22 Torsion [CA]-CB--CG-[CD2] |==|  0.04460
ROOT
ATOM      1  C   PHE C 305      14.180   9.764  -4.693  0.50 34.66 LIG 0.24  C 
ATOM      2 O    PHE C 305      14.972  10.316  -5.450  0.50 33.80 LIG-0.27  OA
ATOM      3  N   PRO C 306      13.230  10.447  -4.025  0.50 35.29 LIG-0.34  N 
ATOM      4  CA  PRO C 306      13.410  11.870  -3.781  0.50 35.79 LIG 0.18  C 
ATOM      5  CB  PRO C 306      11.964  12.417  -3.790  0.50 35.80 LIG 0.04  C 
ATOM      6  CG  PRO C 306      11.053  11.187  -3.874  0.50 35.25 LIG 0.02  C 
ATOM      7  CD  PRO C 306      11.914   9.999  -3.545  0.50 35.51 LIG 0.13  C 
ENDROOT
BRANCH 4 8
ATOM      8  C   PRO C 306      14.021  12.096  -2.397  0.50 36.50 LIG 0.24  C 
ATOM      9  N   ILE C 307      13.596  13.188  -1.740  0.50 37.01 LIG-0.35  N 
ATOM     10 H    ILE C 307      13.064  13.781  -2.063  0.50 37.01 LIG 0.16  HD
ATOM     11 O    PRO C 306      14.854  11.285  -1.934  0.50 36.74 LIG-0.27  OA
BRANCH 9 12
ATOM     12  CA  ILE C 307      14.043  13.434  -0.368  0.50 37.44 LIG 0.18  C 
BRANCH 12 13
ATOM     13  C   ILE C 307      12.877  13.615   0.607  0.50 38.23 LIG 0.24  C 
ATOM     14  N   SER C 308      11.747  13.012   0.246  0.50 38.91 LIG-0.34  N 
ATOM     15 H    SER C 308      11.634  12.659  -0.530  0.50 38.91 LIG 0.16  HD
ATOM     16 O    ILE C 307      13.006  14.269   1.652  0.50 38.79 LIG-0.27  OA
BRANCH 14 17
ATOM     17  CA  SER C 308      10.583  12.886   1.118  0.50 39.43 LIG 0.20  C 
BRANCH 17 18
ATOM     18  C   SER C 308       9.672  11.851   0.453  0.50 39.77 LIG 0.24  C 
ATOM     19  N   PRO C 309       9.136  12.172  -0.739  0.50 40.03 LIG-0.34  N 
ATOM     20  CD  PRO C 309       9.571  13.222  -1.673  0.50 39.83 LIG 0.13  C 
ATOM     21  CA  PRO C 309       8.006  11.404  -1.265  0.50 40.09 LIG 0.19  C 
ATOM     22  CG  PRO C 309       8.396  13.361  -2.590  0.50 40.19 LIG 0.02  C 
ATOM     23  CB  PRO C 309       7.811  11.984  -2.672  0.50 40.09 LIG 0.04  C 
ATOM     24 O    SER C 308       9.463  10.764   0.999  0.50 39.81 LIG-0.27  OA
BRANCH 21 25
ATOM     25  C   PRO C 309       8.267   9.899  -1.317  0.50 40.04 LIG 0.20  C 
ATOM     26 OXT  PRO C 309       7.391   9.081  -1.022  0.50 40.10 LIG-0.65  OA
ATOM     27 O    PRO C 309       9.372   9.462  -1.646  0.50 40.34 LIG-0.65  OA
ENDBRANCH 21 25
ENDBRANCH 17 18
BRANCH 17 28
ATOM     28  CB  SER C 308       9.857  14.226   1.260  0.50 39.49 LIG 0.20  C 
BRANCH 28 29
ATOM     29 OG   SER C 308      10.642  15.167   1.978  0.50 39.70 LIG-0.40  OA
ATOM     30 HG   SER C 308      10.344  15.941   1.843  0.50 39.70 LIG 0.21  HD
ENDBRANCH 28 29
ENDBRANCH 17 28
ENDBRANCH 14 17
ENDBRANCH 12 13
BRANCH 12 31
ATOM     31  CB  ILE C 307      14.950  14.683  -0.257  0.50 37.20 LIG 0.01  C 
ATOM     32  CG2 ILE C 307      15.942  14.539   0.906  0.50 36.86 LIG 0.01  C 
BRANCH 31 33
ATOM     33  CG1 ILE C 307      15.641  14.936  -1.609  0.50 35.88 LIG 0.00  C 
ATOM     34  CD1 ILE C 307      16.220  16.318  -1.793  0.50 32.01 LIG 0.01  C 
ENDBRANCH 31 33
ENDBRANCH 12 31
ENDBRANCH 9 12
ENDBRANCH 4 8
BRANCH 1 35
ATOM     35  CA  PHE C 305      14.231   8.241  -4.516  0.50 34.47 LIG 0.18  C 
BRANCH 35 36
ATOM     36  CB  PHE C 305      13.525   7.615  -5.729  0.50 34.49 LIG 0.07  C 
BRANCH 36 37
ATOM     37  CG  PHE C 305      12.387   8.440  -6.307  0.50 35.55 LIG-0.06  A 
ATOM     38  CD1 PHE C 305      11.077   8.310  -5.848  0.50 36.28 LIG 0.01  A 
ATOM     39  CE1 PHE C 305      10.047   9.082  -6.393  0.50 36.66 LIG 0.00  A 
ATOM     40  CZ  PHE C 305      10.321   9.989  -7.421  0.50 36.87 LIG 0.00  A 
ATOM     41  CE2 PHE C 305      11.615  10.126  -7.891  0.50 36.76 LIG 0.00  A 
ATOM     42  CD2 PHE C 305      12.642   9.345  -7.339  0.50 36.02 LIG 0.01  A 
ENDBRANCH 36 37
ENDBRANCH 35 36
BRANCH 35 43
ATOM     43  N   PHE C 305      13.597   7.741  -3.291  0.50 33.54 LIG-0.35  N 
ATOM     44 H    PHE C 305      12.737   7.725  -3.310  0.50 33.54 LIG 0.16  HD
ATOM     45  C   ASN C 304      14.334   7.350  -2.250  0.50 33.07 LIG 0.24  C 
ATOM     46 O    ASN C 304      15.511   7.699  -2.098  0.50 33.39 LIG-0.27  OA
BRANCH 45 47
ATOM     47  CA  ASN C 304      13.647   6.422  -1.238  0.50 32.40 LIG 0.18  C 
BRANCH 47 48
ATOM     48  CB  ASN C 304      14.474   5.169  -0.911  0.50 32.38 LIG 0.14  C 
BRANCH 48 49
ATOM     49  CG  ASN C 304      15.551   5.419   0.174  0.50 31.77 LIG 0.22  C 
ATOM     50 OD1  ASN C 304      15.293   6.050   1.193  0.50 27.48 LIG-0.27  OA
ATOM     51  ND2 ASN C 304      16.768   4.955  -0.081  0.50 32.56 LIG-0.37  N 
ATOM     52 21HD ASN C 304      17.407   5.094   0.478  0.50 32.56 LIG 0.16  HD
ATOM     53 22HD ASN C 304      16.918   4.515  -0.805  0.50 32.56 LIG 0.16  HD
ENDBRANCH 48 49
ENDBRANCH 47 48
BRANCH 47 54
ATOM     54  N   ASN C 304      12.354   6.011  -1.730  0.50 31.56 LIG-0.34  N 
ATOM     55  C   LEU C 303      12.255   5.211  -2.781  0.50 30.83 LIG 0.26  C 
ATOM     56 O    LEU C 303      13.218   4.619  -3.248  0.50 29.02 LIG-0.27  OA
ATOM     57 H    ASN C 304      11.684   6.324  -1.291  0.50 31.56 LIG 0.16  HD
BRANCH 55 58
ATOM     58  CA  LEU C 303      10.850   5.065  -3.379  0.50 30.56 LIG 0.40  C 
ATOM     59  N   LEU C 303       9.865   6.045  -2.846  0.50 30.88 LIG 0.61  N 
BRANCH 58 60
ATOM     60  CB  LEU C 303      10.893   5.138  -4.910  0.50 30.80 LIG 0.06  C 
BRANCH 60 61
ATOM     61  CG  LEU C 303      11.316   3.879  -5.676  0.50 30.92 LIG-0.02  C 
ATOM     62  CD2 LEU C 303      11.244   2.637  -4.768  0.50 31.43 LIG 0.01  C 
ATOM     63  CD1 LEU C 303      12.693   4.043  -6.295  0.50 30.50 LIG 0.01  C 
ENDBRANCH 60 61
ENDBRANCH 58 60
ENDBRANCH 55 58
ENDBRANCH 47 54
ENDBRANCH 45 47
ENDBRANCH 35 43
ENDBRANCH 1 35
TORSDOF 21
ENDMDL
MODEL 93
USER: ADFR SOLUTION from run 6
USER: SCORE 16.341971 LL:  -5.416 LR: -13.104 RR:   0.000 FEB:  -6.840
USER: RMSD 10.126443
USER: SEED 203933
USER: STATUS no improvement in best in 14 clusters for 5 generations
USER: GENES 23
USER: genes 0 Translation |==|  0.54252 0.62041 0.81335
USER: genes 1 Rotation |==|  0.16975 0.54964 0.31422 0.82243
USER: genes 2 Torsion [N]-CA--C-[N] |==|  0.58690
USER: genes 3 Torsion [C]-N--CA-[C] |==|  0.75500
USER: genes 4 Torsion [N]-CA--C-[N] |==|  0.85185
USER: genes 5 Torsion [C]-N--CA-[CB] |==|  0.46667
USER: genes 6 Torsion [N]-CA--C-[N] |==|  0.29636
USER: genes 7 Torsion [N]-CA--C-[OXT] |==|  0.40561
USER: genes 8 Torsion [N]-CA--CB-[OG] |==|  0.36313
USER: genes 9 Torsion [CA]-CB--OG-[HG] |==|  0.15401
USER: genes 10 Torsion [N]-CA--CB-[CG2] |==|  0.55851
USER: genes 11 Torsion [CA]-CB--CG1-[CD1] |==|  0.67618
USER: genes 12 Torsion [N]-C--CA-[N] |==|  0.20755
USER: genes 13 Torsion [C]-CA--CB-[CG] |==|  0.38827
USER: genes 14 Torsion [CA]-CB--CG-[CD1] |==|  0.07953
USER: genes 15 Torsion [C]-CA--N-[C] |==|  0.67880
USER: genes 16 Torsion [N]-C--CA-[N] |==|  0.42147
USER: genes 17 Torsion [C]-CA--CB-[CG] |==|  0.26517
USER: genes 18 Torsion [CA]-CB--CG-[OD1] |==|  0.05420
USER: genes 19 Torsion [C]-CA--N-[C] |==|  0.79951
USER: genes 20 Torsion [N]-C--CA-[N] |==|  0.45240
USER: genes 21 Torsion [C]-CA--CB-[CG] |==|  0.81387
USER: genes 22 Torsion [CA]-CB--CG-[CD2] |==|  0.65722
ROOT
ATOM      1  C   PHE C 305      14.476   9.721   6.071  0.50 34.66 LIG 0.24  C 
ATOM      2 O    PHE C 305      14.361   9.036   7.083  0.50 33.80 LIG-0.27  OA
ATOM      3  N   PRO C 306      14.027  10.989   6.007  0.50 35.29 LIG-0.34  N 
ATOM      4  CA  PRO C 306      12.976  11.422   6.915  0.50 35.79 LIG 0.18  C 
ATOM      5  CB  PRO C 306      13.293  12.919   7.137  0.50 35.80 LIG 0.04  C 
ATOM      6  CG  PRO C 306      14.435  13.251   6.171  0.50 35.25 LIG 0.02  C 
ATOM      7  CD  PRO C 306      14.503  12.114   5.188  0.50 35.51 LIG 0.13  C 
ENDROOT
BRANCH 4 8
ATOM      8  C   PRO C 306      11.608  11.296   6.240  0.50 36.50 LIG 0.24  C 
ATOM      9  N   ILE C 307      10.682  12.193   6.619  0.50 37.01 LIG-0.35  N 
ATOM     10 H    ILE C 307      10.789  12.777   7.241  0.50 37.01 LIG 0.16  HD
ATOM     11 O    PRO C 306      11.407  10.407   5.383  0.50 36.74 LIG-0.27  OA
BRANCH 9 12
ATOM     12  CA  ILE C 307       9.378  12.221   5.955  0.50 37.44 LIG 0.18  C 
BRANCH 12 13
ATOM     13  C   ILE C 307       9.369  13.117   4.714  0.50 38.23 LIG 0.24  C 
ATOM     14  N   SER C 308       9.796  14.359   4.919  0.50 38.91 LIG-0.34  N 
ATOM     15 H    SER C 308       9.944  14.680   5.703  0.50 38.91 LIG 0.16  HD
ATOM     16 O    ILE C 307       8.996  12.688   3.612  0.50 38.79 LIG-0.27  OA
BRANCH 14 17
ATOM     17  CA  SER C 308      10.060  15.312   3.844  0.50 39.43 LIG 0.20  C 
BRANCH 17 18
ATOM     18  C   SER C 308      11.342  14.829   3.160  0.50 39.77 LIG 0.24  C 
ATOM     19  N   PRO C 309      11.221  14.260   1.948  0.50 40.03 LIG-0.34  N 
ATOM     20  CD  PRO C 309      10.085  14.348   1.016  0.50 39.83 LIG 0.13  C 
ATOM     21  CA  PRO C 309      12.326  13.476   1.392  0.50 40.09 LIG 0.19  C 
ATOM     22  CG  PRO C 309      10.351  13.230   0.058  0.50 40.19 LIG 0.02  C 
ATOM     23  CB  PRO C 309      11.844  13.148  -0.027  0.50 40.09 LIG 0.04  C 
ATOM     24 O    SER C 308      12.436  14.981   3.712  0.50 39.81 LIG-0.27  OA
BRANCH 21 25
ATOM     25  C   PRO C 309      13.653  14.233   1.367  0.50 40.04 LIG 0.20  C 
ATOM     26 OXT  PRO C 309      14.729  13.653   1.539  0.50 40.10 LIG-0.65  OA
ATOM     27 O    PRO C 309      13.680  15.452   1.184  0.50 40.34 LIG-0.65  OA
ENDBRANCH 21 25
ENDBRANCH 17 18
BRANCH 17 28
ATOM     28  CB  SER C 308      10.249  16.726   4.399  0.50 39.49 LIG 0.20  C 
BRANCH 28 29
ATOM     29 OG   SER C 308      11.423  17.335   3.880  0.50 39.70 LIG-0.40  OA
ATOM     30 HG   SER C 308      11.395  17.327   3.041  0.50 39.70 LIG 0.21  HD
ENDBRANCH 28 29
ENDBRANCH 17 28
ENDBRANCH 14 17
ENDBRANCH 12 13
BRANCH 12 31
ATOM     31  CB  ILE C 307       8.248  12.704   6.896  0.50 37.20 LIG 0.01  C 
ATOM     32  CG2 ILE C 307       6.875  12.243   6.383  0.50 36.86 LIG 0.01  C 
BRANCH 31 33
ATOM     33  CG1 ILE C 307       8.541  12.236   8.332  0.50 35.88 LIG 0.00  C 
ATOM     34  CD1 ILE C 307       7.536  11.274   8.918  0.50 32.01 LIG 0.01  C 
ENDBRANCH 31 33
ENDBRANCH 12 31
ENDBRANCH 9 12
ENDBRANCH 4 8
BRANCH 1 35
ATOM     35  CA  PHE C 305      15.187   9.146   4.840  0.50 34.47 LIG 0.18  C 
BRANCH 35 36
ATOM     36  CB  PHE C 305      15.235   7.620   5.009  0.50 34.49 LIG 0.07  C 
BRANCH 36 37
ATOM     37  CG  PHE C 305      14.974   6.822   3.742  0.50 35.55 LIG-0.06  A 
ATOM     38  CD1 PHE C 305      15.284   7.326   2.479  0.50 36.28 LIG 0.01  A 
ATOM     39  CE1 PHE C 305      15.038   6.572   1.328  0.50 36.66 LIG 0.00  A 
ATOM     40  CZ  PHE C 305      14.462   5.303   1.432  0.50 36.87 LIG 0.00  A 
ATOM     41  CE2 PHE C 305      14.145   4.792   2.677  0.50 36.76 LIG 0.00  A 
ATOM     42  CD2 PHE C 305      14.393   5.556   3.828  0.50 36.02 LIG 0.01  A 
ENDBRANCH 36 37
ENDBRANCH 35 36
BRANCH 35 43
ATOM     43  N   PHE C 305      16.553   9.640   4.629  0.50 33.54 LIG-0.35  N 
ATOM     44 H    PHE C 305      17.113   9.426   5.245  0.50 33.54 LIG 0.16  HD
ATOM     45  C   ASN C 304      16.860  10.363   3.551  0.50 33.07 LIG 0.24  C 
ATOM     46 O    ASN C 304      16.005  10.951   2.877  0.50 33.39 LIG-0.27  OA
BRANCH 45 47
ATOM     47  CA  ASN C 304      18.345  10.424   3.171  0.50 32.40 LIG 0.18  C 
BRANCH 47 48
ATOM     48  CB  ASN C 304      19.112  11.533   3.908  0.50 32.38 LIG 0.14  C 
BRANCH 48 49
ATOM     49  CG  ASN C 304      19.834  11.028   5.183  0.50 31.77 LIG 0.22  C 
ATOM     50 OD1  ASN C 304      20.075   9.838   5.347  0.50 27.48 LIG-0.27  OA
ATOM     51  ND2 ASN C 304      20.131  11.943   6.097  0.50 32.56 LIG-0.37  N 
ATOM     52 21HD ASN C 304      20.506  11.708   6.835  0.50 32.56 LIG 0.16  HD
ATOM     53 22HD ASN C 304      19.949  12.771   5.952  0.50 32.56 LIG 0.16  HD
ENDBRANCH 48 49
ENDBRANCH 47 48
BRANCH 47 54
ATOM     54  N   ASN C 304      18.494  10.622   1.750  0.50 31.56 LIG-0.34  N 
ATOM     55  C   LEU C 303      18.222   9.643   0.900  0.50 30.83 LIG 0.26  C 
ATOM     56 O    LEU C 303      17.642   8.621   1.240  0.50 29.02 LIG-0.27  OA
ATOM     57 H    ASN C 304      18.764  11.405   1.519  0.50 31.56 LIG 0.16  HD
BRANCH 55 58
ATOM     58  CA  LEU C 303      18.674   9.869  -0.548  0.50 30.56 LIG 0.40  C 
ATOM     59  N   LEU C 303      18.722   8.625  -1.364  0.50 30.88 LIG 0.61  N 
BRANCH 58 60
ATOM     60  CB  LEU C 303      17.800  10.922  -1.240  0.50 30.80 LIG 0.06  C 
BRANCH 60 61
ATOM     61  CG  LEU C 303      16.330  10.572  -1.503  0.50 30.92 LIG-0.02  C 
ATOM     62  CD2 LEU C 303      15.996  10.703  -3.000  0.50 31.43 LIG 0.01  C 
ATOM     63  CD1 LEU C 303      15.399  11.410  -0.644  0.50 30.50 LIG 0.01  C 
ENDBRANCH 60 61
ENDBRANCH 58 60
ENDBRANCH 55 58
ENDBRANCH 47 54
ENDBRANCH 45 47
ENDBRANCH 35 43
ENDBRANCH 1 35
TORSDOF 21
ENDMDL
MODEL 94
USER: ADFR SOLUTION from run 37
USER: SCORE 16.755064 LL:  -5.143 LR: -13.096 RR:   0.000 FEB:  -6.831
USER: RMSD 9.062077
USER: SEED 36
USER: STATUS no improvement in best in 22 clusters for 5 generations
USER: GENES 23
USER: genes 0 Translation |==|  0.41826 0.36654 0.36933
USER: genes 1 Rotation |==|  0.72813 0.22366 0.43595 0.84277
USER: genes 2 Torsion [N]-CA--C-[N] |==|  0.06935
USER: genes 3 Torsion [C]-N--CA-[C] |==|  0.21477
USER: genes 4 Torsion [N]-CA--C-[N] |==|  0.41111
USER: genes 5 Torsion [C]-N--CA-[CB] |==|  0.87163
USER: genes 6 Torsion [N]-CA--C-[N] |==|  0.37690
USER: genes 7 Torsion [N]-CA--C-[OXT] |==|  0.47402
USER: genes 8 Torsion [N]-CA--CB-[OG] |==|  0.81502
USER: genes 9 Torsion [CA]-CB--OG-[HG] |==|  0.77143
USER: genes 10 Torsion [N]-CA--CB-[CG2] |==|  0.45353
USER: genes 11 Torsion [CA]-CB--CG1-[CD1] |==|  0.23179
USER: genes 12 Torsion [N]-C--CA-[N] |==|  0.45362
USER: genes 13 Torsion [C]-CA--CB-[CG] |==|  0.31817
USER: genes 14 Torsion [CA]-CB--CG-[CD1] |==|  0.04445
USER: genes 15 Torsion [C]-CA--N-[C] |==|  0.54976
USER: genes 16 Torsion [N]-C--CA-[N] |==|  0.32360
USER: genes 17 Torsion [C]-CA--CB-[CG] |==|  0.14470
USER: genes 18 Torsion [CA]-CB--CG-[OD1] |==|  0.62308
USER: genes 19 Torsion [C]-CA--N-[C] |==|  0.69097
USER: genes 20 Torsion [N]-C--CA-[N] |==|  0.50895
USER: genes 21 Torsion [C]-CA--CB-[CG] |==|  0.29363
USER: genes 22 Torsion [CA]-CB--CG-[CD2] |==|  0.07312
ROOT
ATOM      1  C   PHE C 305      11.308   3.628  -2.920  0.50 34.66 LIG 0.24  C 
ATOM      2 O    PHE C 305      12.279   2.907  -3.127  0.50 33.80 LIG-0.27  OA
ATOM      3  N   PRO C 306      10.391   3.888  -3.873  0.50 35.29 LIG-0.34  N 
ATOM      4  CA  PRO C 306      10.757   3.752  -5.274  0.50 35.79 LIG 0.18  C 
ATOM      5  CB  PRO C 306       9.432   3.321  -5.946  0.50 35.80 LIG 0.04  C 
ATOM      6  CG  PRO C 306       8.360   3.418  -4.855  0.50 35.25 LIG 0.02  C 
ATOM      7  CD  PRO C 306       8.965   4.222  -3.737  0.50 35.51 LIG 0.13  C 
ENDROOT
BRANCH 4 8
ATOM      8  C   PRO C 306      11.188   5.105  -5.843  0.50 36.50 LIG 0.24  C 
ATOM      9  N   ILE C 307      11.656   5.994  -4.951  0.50 37.01 LIG-0.35  N 
ATOM     10 H    ILE C 307      11.671   5.875  -4.099  0.50 37.01 LIG 0.16  HD
ATOM     11 O    PRO C 306      11.107   5.328  -7.071  0.50 36.74 LIG-0.27  OA
BRANCH 9 12
ATOM     12  CA  ILE C 307      12.192   7.276  -5.411  0.50 37.44 LIG 0.18  C 
BRANCH 12 13
ATOM     13  C   ILE C 307      11.092   8.272  -5.789  0.50 38.23 LIG 0.24  C 
ATOM     14  N   SER C 308      11.395   9.548  -5.570  0.50 38.91 LIG-0.34  N 
ATOM     15 H    SER C 308      12.093   9.795  -5.133  0.50 38.91 LIG 0.16  HD
ATOM     16 O    ILE C 307      10.016   7.891  -6.271  0.50 38.79 LIG-0.27  OA
BRANCH 14 17
ATOM     17  CA  SER C 308      10.581  10.665  -6.043  0.50 39.43 LIG 0.20  C 
BRANCH 17 18
ATOM     18  C   SER C 308       9.340  10.689  -5.146  0.50 39.77 LIG 0.24  C 
ATOM     19  N   PRO C 309       8.933  11.884  -4.683  0.50 40.03 LIG-0.34  N 
ATOM     20  CD  PRO C 309       9.287  13.220  -5.191  0.50 39.83 LIG 0.13  C 
ATOM     21  CA  PRO C 309       7.989  11.955  -3.567  0.50 40.09 LIG 0.19  C 
ATOM     22  CG  PRO C 309       8.875  14.123  -4.071  0.50 40.19 LIG 0.02  C 
ATOM     23  CB  PRO C 309       7.681  13.455  -3.462  0.50 40.09 LIG 0.04  C 
ATOM     24 O    SER C 308       8.742   9.642  -4.885  0.50 39.81 LIG-0.27  OA
BRANCH 21 25
ATOM     25  C   PRO C 309       6.715  11.142  -3.798  0.50 40.04 LIG 0.20  C 
ATOM     26 OXT  PRO C 309       5.896  10.956  -2.893  0.50 40.10 LIG-0.65  OA
ATOM     27 O    PRO C 309       6.480  10.639  -4.898  0.50 40.34 LIG-0.65  OA
ENDBRANCH 21 25
ENDBRANCH 17 18
BRANCH 17 28
ATOM     28  CB  SER C 308      10.180  10.470  -7.507  0.50 39.49 LIG 0.20  C 
BRANCH 28 29
ATOM     29 OG   SER C 308      11.310  10.530  -8.366  0.50 39.70 LIG-0.40  OA
ATOM     30 HG   SER C 308      11.496  11.333  -8.528  0.50 39.70 LIG 0.21  HD
ENDBRANCH 28 29
ENDBRANCH 17 28
ENDBRANCH 14 17
ENDBRANCH 12 13
BRANCH 12 31
ATOM     31  CB  ILE C 307      13.129   7.119  -6.633  0.50 37.20 LIG 0.01  C 
ATOM     32  CG2 ILE C 307      13.338   8.467  -7.340  0.50 36.86 LIG 0.01  C 
BRANCH 31 33
ATOM     33  CG1 ILE C 307      14.447   6.463  -6.187  0.50 35.88 LIG 0.00  C 
ATOM     34  CD1 ILE C 307      14.424   4.956  -6.099  0.50 32.01 LIG 0.01  C 
ENDBRANCH 31 33
ENDBRANCH 12 31
ENDBRANCH 9 12
ENDBRANCH 4 8
BRANCH 1 35
ATOM     35  CA  PHE C 305      11.090   4.232  -1.527  0.50 34.47 LIG 0.18  C 
BRANCH 35 36
ATOM     36  CB  PHE C 305      11.447   5.724  -1.613  0.50 34.49 LIG 0.07  C 
BRANCH 36 37
ATOM     37  CG  PHE C 305      10.283   6.677  -1.396  0.50 35.55 LIG-0.06  A 
ATOM     38  CD1 PHE C 305       9.084   6.256  -0.823  0.50 36.28 LIG 0.01  A 
ATOM     39  CE1 PHE C 305       8.029   7.153  -0.630  0.50 36.66 LIG 0.00  A 
ATOM     40  CZ  PHE C 305       8.163   8.487  -1.025  0.50 36.87 LIG 0.00  A 
ATOM     41  CE2 PHE C 305       9.345   8.919  -1.599  0.50 36.76 LIG 0.00  A 
ATOM     42  CD2 PHE C 305      10.399   8.012  -1.791  0.50 36.02 LIG 0.01  A 
ENDBRANCH 36 37
ENDBRANCH 35 36
BRANCH 35 43
ATOM     43  N   PHE C 305      11.885   3.617  -0.457  0.50 33.54 LIG-0.35  N 
ATOM     44 H    PHE C 305      12.560   3.158  -0.729  0.50 33.54 LIG 0.16  HD
ATOM     45  C   ASN C 304      11.553   3.784   0.823  0.50 33.07 LIG 0.24  C 
ATOM     46 O    ASN C 304      10.421   4.131   1.179  0.50 33.39 LIG-0.27  OA
BRANCH 45 47
ATOM     47  CA  ASN C 304      12.662   3.531   1.854  0.50 32.40 LIG 0.18  C 
BRANCH 47 48
ATOM     48  CB  ASN C 304      12.306   2.434   2.868  0.50 32.38 LIG 0.14  C 
BRANCH 48 49
ATOM     49  CG  ASN C 304      11.843   1.115   2.198  0.50 31.77 LIG 0.22  C 
ATOM     50 OD1  ASN C 304      10.867   0.501   2.612  0.50 27.48 LIG-0.27  OA
ATOM     51  ND2 ASN C 304      12.584   0.671   1.191  0.50 32.56 LIG-0.37  N 
ATOM     52 21HD ASN C 304      12.384  -0.072   0.805  0.50 32.56 LIG 0.16  HD
ATOM     53 22HD ASN C 304      13.263   1.125   0.923  0.50 32.56 LIG 0.16  HD
ENDBRANCH 48 49
ENDBRANCH 47 48
BRANCH 47 54
ATOM     54  N   ASN C 304      12.969   4.745   2.571  0.50 31.56 LIG-0.34  N 
ATOM     55  C   LEU C 303      14.131   5.357   2.397  0.50 30.83 LIG 0.26  C 
ATOM     56 O    LEU C 303      14.898   5.063   1.491  0.50 29.02 LIG-0.27  OA
ATOM     57 H    ASN C 304      12.348   5.020   3.100  0.50 31.56 LIG 0.16  HD
BRANCH 55 58
ATOM     58  CA  LEU C 303      14.459   6.468   3.402  0.50 30.56 LIG 0.40  C 
ATOM     59  N   LEU C 303      15.738   7.175   3.120  0.50 30.88 LIG 0.61  N 
BRANCH 58 60
ATOM     60  CB  LEU C 303      13.308   7.477   3.503  0.50 30.80 LIG 0.06  C 
BRANCH 60 61
ATOM     61  CG  LEU C 303      12.424   7.432   4.756  0.50 30.92 LIG-0.02  C 
ATOM     62  CD2 LEU C 303      13.200   6.852   5.952  0.50 31.43 LIG 0.01  C 
ATOM     63  CD1 LEU C 303      11.136   6.670   4.498  0.50 30.50 LIG 0.01  C 
ENDBRANCH 60 61
ENDBRANCH 58 60
ENDBRANCH 55 58
ENDBRANCH 47 54
ENDBRANCH 45 47
ENDBRANCH 35 43
ENDBRANCH 1 35
TORSDOF 21
ENDMDL
MODEL 95
USER: ADFR SOLUTION from run 137
USER: SCORE 17.912661 LL:  -5.834 LR: -13.079 RR:   0.000 FEB:  -6.815
USER: RMSD 11.640793
USER: SEED 136
USER: STATUS no improvement in best in 23 clusters for 5 generations
USER: GENES 23
USER: genes 0 Translation |==|  0.45328 0.65201 0.24384
USER: genes 1 Rotation |==|  0.02229 0.63855 0.51920 0.54717
USER: genes 2 Torsion [N]-CA--C-[N] |==|  0.00040
USER: genes 3 Torsion [C]-N--CA-[C] |==|  0.79569
USER: genes 4 Torsion [N]-CA--C-[N] |==|  0.40930
USER: genes 5 Torsion [C]-N--CA-[CB] |==|  0.89215
USER: genes 6 Torsion [N]-CA--C-[N] |==|  0.38888
USER: genes 7 Torsion [N]-CA--C-[OXT] |==|  0.41402
USER: genes 8 Torsion [N]-CA--CB-[OG] |==|  0.45460
USER: genes 9 Torsion [CA]-CB--OG-[HG] |==|  0.86139
USER: genes 10 Torsion [N]-CA--CB-[CG2] |==|  0.34447
USER: genes 11 Torsion [CA]-CB--CG1-[CD1] |==|  0.35799
USER: genes 12 Torsion [N]-C--CA-[N] |==|  0.49006
USER: genes 13 Torsion [C]-CA--CB-[CG] |==|  0.54519
USER: genes 14 Torsion [CA]-CB--CG-[CD1] |==|  0.86219
USER: genes 15 Torsion [C]-CA--N-[C] |==|  0.71378
USER: genes 16 Torsion [N]-C--CA-[N] |==|  0.04193
USER: genes 17 Torsion [C]-CA--CB-[CG] |==|  0.71088
USER: genes 18 Torsion [CA]-CB--CG-[OD1] |==|  0.79546
USER: genes 19 Torsion [C]-CA--N-[C] |==|  0.67222
USER: genes 20 Torsion [N]-C--CA-[N] |==|  0.68559
USER: genes 21 Torsion [C]-CA--CB-[CG] |==|  0.35722
USER: genes 22 Torsion [CA]-CB--CG-[CD2] |==|  0.54090
ROOT
ATOM      1  C   PHE C 305      12.201  10.479  -5.461  0.50 34.66 LIG 0.24  C 
ATOM      2 O    PHE C 305      13.274  10.737  -4.926  0.50 33.80 LIG-0.27  OA
ATOM      3  N   PRO C 306      11.400  11.440  -5.963  0.50 35.29 LIG-0.34  N 
ATOM      4  CA  PRO C 306      11.516  12.801  -5.465  0.50 35.79 LIG 0.18  C 
ATOM      5  CB  PRO C 306      11.143  13.662  -6.694  0.50 35.80 LIG 0.04  C 
ATOM      6  CG  PRO C 306      10.671  12.674  -7.766  0.50 35.25 LIG 0.02  C 
ATOM      7  CD  PRO C 306      10.424  11.369  -7.062  0.50 35.51 LIG 0.13  C 
ENDROOT
BRANCH 4 8
ATOM      8  C   PRO C 306      10.494  13.048  -4.353  0.50 36.50 LIG 0.24  C 
ATOM      9  N   ILE C 307       9.703  12.008  -4.042  0.50 37.01 LIG-0.35  N 
ATOM     10 H    ILE C 307       9.695  11.255  -4.457  0.50 37.01 LIG 0.16  HD
ATOM     11 O    PRO C 306      10.439  14.161  -3.784  0.50 36.74 LIG-0.27  OA
BRANCH 9 12
ATOM     12  CA  ILE C 307       8.767  12.113  -2.922  0.50 37.44 LIG 0.18  C 
BRANCH 12 13
ATOM     13  C   ILE C 307       9.467  12.056  -1.563  0.50 38.23 LIG 0.24  C 
ATOM     14  N   SER C 308       8.891  12.778  -0.606  0.50 38.91 LIG-0.34  N 
ATOM     15 H    SER C 308       8.254  13.336  -0.760  0.50 38.91 LIG 0.16  HD
ATOM     16 O    ILE C 307      10.487  11.372  -1.391  0.50 38.79 LIG-0.27  OA
BRANCH 14 17
ATOM     17  CA  SER C 308       9.271  12.706   0.802  0.50 39.43 LIG 0.20  C 
BRANCH 17 18
ATOM     18  C   SER C 308      10.514  13.587   0.947  0.50 39.77 LIG 0.24  C 
ATOM     19  N   PRO C 309      10.607  14.353   2.049  0.50 40.03 LIG-0.34  N 
ATOM     20  CD  PRO C 309       9.867  14.213   3.313  0.50 39.83 LIG 0.13  C 
ATOM     21  CA  PRO C 309      11.569  15.456   2.096  0.50 40.09 LIG 0.19  C 
ATOM     22  CG  PRO C 309      10.088  15.534   3.979  0.50 40.19 LIG 0.02  C 
ATOM     23  CB  PRO C 309      11.458  15.956   3.543  0.50 40.09 LIG 0.04  C 
ATOM     24 O    SER C 308      11.394  13.567   0.081  0.50 39.81 LIG-0.27  OA
BRANCH 21 25
ATOM     25  C   PRO C 309      12.998  15.029   1.764  0.50 40.04 LIG 0.20  C 
ATOM     26 OXT  PRO C 309      13.791  15.801   1.217  0.50 40.10 LIG-0.65  OA
ATOM     27 O    PRO C 309      13.393  13.891   2.026  0.50 40.34 LIG-0.65  OA
ENDBRANCH 21 25
ENDBRANCH 17 18
BRANCH 17 28
ATOM     28  CB  SER C 308       9.585  11.266   1.212  0.50 39.49 LIG 0.20  C 
BRANCH 28 29
ATOM     29 OG   SER C 308      10.301  11.219   2.438  0.50 39.70 LIG-0.40  OA
ATOM     30 HG   SER C 308      10.954  11.746   2.401  0.50 39.70 LIG 0.21  HD
ENDBRANCH 28 29
ENDBRANCH 17 28
ENDBRANCH 14 17
ENDBRANCH 12 13
BRANCH 12 31
ATOM     31  CB  ILE C 307       7.690  11.001  -2.947  0.50 37.20 LIG 0.01  C 
ATOM     32  CG2 ILE C 307       7.690  10.210  -1.630  0.50 36.86 LIG 0.01  C 
BRANCH 31 33
ATOM     33  CG1 ILE C 307       6.320  11.621  -3.276  0.50 35.88 LIG 0.00  C 
ATOM     34  CD1 ILE C 307       5.562  10.957  -4.399  0.50 32.01 LIG 0.01  C 
ENDBRANCH 31 33
ENDBRANCH 12 31
ENDBRANCH 9 12
ENDBRANCH 4 8
BRANCH 1 35
ATOM     35  CA  PHE C 305      11.755   9.019  -5.609  0.50 34.47 LIG 0.18  C 
BRANCH 35 36
ATOM     36  CB  PHE C 305      10.437   8.862  -4.835  0.50 34.49 LIG 0.07  C 
BRANCH 36 37
ATOM     37  CG  PHE C 305      10.034   7.428  -4.534  0.50 35.55 LIG-0.06  A 
ATOM     38  CD1 PHE C 305      10.017   6.446  -5.524  0.50 36.28 LIG 0.01  A 
ATOM     39  CE1 PHE C 305       9.646   5.132  -5.222  0.50 36.66 LIG 0.00  A 
ATOM     40  CZ  PHE C 305       9.272   4.791  -3.919  0.50 36.87 LIG 0.00  A 
ATOM     41  CE2 PHE C 305       9.280   5.756  -2.927  0.50 36.76 LIG 0.00  A 
ATOM     42  CD2 PHE C 305       9.651   7.073  -3.239  0.50 36.02 LIG 0.01  A 
ENDBRANCH 36 37
ENDBRANCH 35 36
BRANCH 35 43
ATOM     43  N   PHE C 305      12.715   8.027  -5.113  0.50 33.54 LIG-0.35  N 
ATOM     44 H    PHE C 305      12.736   7.943  -4.257  0.50 33.54 LIG 0.16  HD
ATOM     45  C   ASN C 304      13.478   7.331  -5.957  0.50 33.07 LIG 0.24  C 
ATOM     46 O    ASN C 304      13.694   7.699  -7.118  0.50 33.39 LIG-0.27  OA
BRANCH 45 47
ATOM     47  CA  ASN C 304      14.077   6.026  -5.416  0.50 32.40 LIG 0.18  C 
BRANCH 47 48
ATOM     48  CB  ASN C 304      14.001   4.866  -6.421  0.50 32.38 LIG 0.14  C 
BRANCH 48 49
ATOM     49  CG  ASN C 304      12.890   3.841  -6.082  0.50 31.77 LIG 0.22  C 
ATOM     50 OD1  ASN C 304      13.013   3.055  -5.149  0.50 27.48 LIG-0.27  OA
ATOM     51  ND2 ASN C 304      11.829   3.832  -6.879  0.50 32.56 LIG-0.37  N 
ATOM     52 21HD ASN C 304      11.198   3.261  -6.749  0.50 32.56 LIG 0.16  HD
ATOM     53 22HD ASN C 304      11.772   4.396  -7.525  0.50 32.56 LIG 0.16  HD
ENDBRANCH 48 49
ENDBRANCH 47 48
BRANCH 47 54
ATOM     54  N   ASN C 304      13.408   5.631  -4.200  0.50 31.56 LIG-0.34  N 
ATOM     55  C   LEU C 303      14.077   5.544  -3.060  0.50 30.83 LIG 0.26  C 
ATOM     56 O    LEU C 303      15.210   5.986  -2.929  0.50 29.02 LIG-0.27  OA
ATOM     57 H    ASN C 304      12.569   5.466  -4.285  0.50 31.56 LIG 0.16  HD
BRANCH 55 58
ATOM     58  CA  LEU C 303      13.341   4.856  -1.904  0.50 30.56 LIG 0.40  C 
ATOM     59  N   LEU C 303      13.011   5.768  -0.775  0.50 30.88 LIG 0.61  N 
BRANCH 58 60
ATOM     60  CB  LEU C 303      12.074   4.149  -2.400  0.50 30.80 LIG 0.06  C 
BRANCH 60 61
ATOM     61  CG  LEU C 303      11.876   2.678  -2.012  0.50 30.92 LIG-0.02  C 
ATOM     62  CD2 LEU C 303      10.776   2.029  -2.873  0.50 31.43 LIG 0.01  C 
ATOM     63  CD1 LEU C 303      11.588   2.531  -0.529  0.50 30.50 LIG 0.01  C 
ENDBRANCH 60 61
ENDBRANCH 58 60
ENDBRANCH 55 58
ENDBRANCH 47 54
ENDBRANCH 45 47
ENDBRANCH 35 43
ENDBRANCH 1 35
TORSDOF 21
ENDMDL
MODEL 96
USER: ADFR SOLUTION from run 43
USER: SCORE 18.465224 LL:  -6.663 LR: -13.069 RR:   0.000 FEB:  -6.805
USER: RMSD 9.759938
USER: SEED 42
USER: STATUS no improvement in best in 22 clusters for 5 generations
USER: GENES 23
USER: genes 0 Translation |==|  0.61241 0.51411 0.54091
USER: genes 1 Rotation |==|  0.22520 0.76924 0.52563 0.81834
USER: genes 2 Torsion [N]-CA--C-[N] |==|  0.95864
USER: genes 3 Torsion [C]-N--CA-[C] |==|  0.18978
USER: genes 4 Torsion [N]-CA--C-[N] |==|  0.04063
USER: genes 5 Torsion [C]-N--CA-[CB] |==|  0.18015
USER: genes 6 Torsion [N]-CA--C-[N] |==|  0.81112
USER: genes 7 Torsion [N]-CA--C-[OXT] |==|  0.88178
USER: genes 8 Torsion [N]-CA--CB-[OG] |==|  0.01188
USER: genes 9 Torsion [CA]-CB--OG-[HG] |==|  0.70187
USER: genes 10 Torsion [N]-CA--CB-[CG2] |==|  0.53430
USER: genes 11 Torsion [CA]-CB--CG1-[CD1] |==|  0.35880
USER: genes 12 Torsion [N]-C--CA-[N] |==|  0.13333
USER: genes 13 Torsion [C]-CA--CB-[CG] |==|  0.51658
USER: genes 14 Torsion [CA]-CB--CG-[CD1] |==|  0.27395
USER: genes 15 Torsion [C]-CA--N-[C] |==|  0.14375
USER: genes 16 Torsion [N]-C--CA-[N] |==|  0.33765
USER: genes 17 Torsion [C]-CA--CB-[CG] |==|  0.22781
USER: genes 18 Torsion [CA]-CB--CG-[OD1] |==|  0.06030
USER: genes 19 Torsion [C]-CA--N-[C] |==|  0.66881
USER: genes 20 Torsion [N]-C--CA-[N] |==|  0.57440
USER: genes 21 Torsion [C]-CA--CB-[CG] |==|  0.27941
USER: genes 22 Torsion [CA]-CB--CG-[CD2] |==|  0.99383
ROOT
ATOM      1  C   PHE C 305      16.258   7.170   0.554  0.50 34.66 LIG 0.24  C 
ATOM      2 O    PHE C 305      16.814   6.083   0.687  0.50 33.80 LIG-0.27  OA
ATOM      3  N   PRO C 306      16.426   8.175   1.436  0.50 35.29 LIG-0.34  N 
ATOM      4  CA  PRO C 306      16.845   7.871   2.795  0.50 35.79 LIG 0.18  C 
ATOM      5  CB  PRO C 306      17.672   9.114   3.198  0.50 35.80 LIG 0.04  C 
ATOM      6  CG  PRO C 306      17.502  10.117   2.051  0.50 35.25 LIG 0.02  C 
ATOM      7  CD  PRO C 306      16.341   9.628   1.230  0.50 35.51 LIG 0.13  C 
ENDROOT
BRANCH 4 8
ATOM      8  C   PRO C 306      15.626   7.764   3.714  0.50 36.50 LIG 0.24  C 
ATOM      9  N   ILE C 307      14.476   8.256   3.223  0.50 37.01 LIG-0.35  N 
ATOM     10 H    ILE C 307      14.399   8.669   2.473  0.50 37.01 LIG 0.16  HD
ATOM     11 O    PRO C 306      15.731   7.231   4.842  0.50 36.74 LIG-0.27  OA
BRANCH 9 12
ATOM     12  CA  ILE C 307      13.234   8.105   3.983  0.50 37.44 LIG 0.18  C 
BRANCH 12 13
ATOM     13  C   ILE C 307      13.227   8.935   5.269  0.50 38.23 LIG 0.24  C 
ATOM     14  N   SER C 308      14.173   9.867   5.339  0.50 38.91 LIG-0.34  N 
ATOM     15 H    SER C 308      14.819   9.920   4.774  0.50 38.91 LIG 0.16  HD
ATOM     16 O    ILE C 307      12.385   8.739   6.158  0.50 38.79 LIG-0.27  OA
BRANCH 14 17
ATOM     17  CA  SER C 308      14.222  10.895   6.375  0.50 39.43 LIG 0.20  C 
BRANCH 17 18
ATOM     18  C   SER C 308      15.390  11.811   6.001  0.50 39.77 LIG 0.24  C 
ATOM     19  N   PRO C 309      16.631  11.299   6.085  0.50 40.03 LIG-0.34  N 
ATOM     20  CD  PRO C 309      17.023   9.882   6.139  0.50 39.83 LIG 0.13  C 
ATOM     21  CA  PRO C 309      17.793  12.190   6.082  0.50 40.09 LIG 0.19  C 
ATOM     22  CG  PRO C 309      18.441   9.945   6.615  0.50 40.19 LIG 0.02  C 
ATOM     23  CB  PRO C 309      18.980  11.218   6.037  0.50 40.09 LIG 0.04  C 
ATOM     24 O    SER C 308      15.177  12.967   5.625  0.50 39.81 LIG-0.27  OA
BRANCH 21 25
ATOM     25  C   PRO C 309      17.818  13.151   4.894  0.50 40.04 LIG 0.20  C 
ATOM     26 OXT  PRO C 309      17.530  12.775   3.755  0.50 40.10 LIG-0.65  OA
ATOM     27 O    PRO C 309      18.142  14.331   5.045  0.50 40.34 LIG-0.65  OA
ENDBRANCH 21 25
ENDBRANCH 17 18
BRANCH 17 28
ATOM     28  CB  SER C 308      14.450  10.272   7.754  0.50 39.49 LIG 0.20  C 
BRANCH 28 29
ATOM     29 OG   SER C 308      14.653   8.869   7.663  0.50 39.70 LIG-0.40  OA
ATOM     30 HG   SER C 308      13.973   8.468   7.952  0.50 39.70 LIG 0.21  HD
ENDBRANCH 28 29
ENDBRANCH 17 28
ENDBRANCH 14 17
ENDBRANCH 12 13
BRANCH 12 31
ATOM     31  CB  ILE C 307      12.955   6.632   4.369  0.50 37.20 LIG 0.01  C 
ATOM     32  CG2 ILE C 307      11.519   6.464   4.887  0.50 36.86 LIG 0.01  C 
BRANCH 31 33
ATOM     33  CG1 ILE C 307      13.272   5.720   3.171  0.50 35.88 LIG 0.00  C 
ATOM     34  CD1 ILE C 307      14.174   4.547   3.470  0.50 32.01 LIG 0.01  C 
ENDBRANCH 31 33
ENDBRANCH 12 31
ENDBRANCH 9 12
ENDBRANCH 4 8
BRANCH 1 35
ATOM     35  CA  PHE C 305      15.370   7.426  -0.670  0.50 34.47 LIG 0.18  C 
BRANCH 35 36
ATOM     36  CB  PHE C 305      15.567   6.246  -1.634  0.50 34.49 LIG 0.07  C 
BRANCH 36 37
ATOM     37  CG  PHE C 305      14.872   6.389  -2.978  0.50 35.55 LIG-0.06  A 
ATOM     38  CD1 PHE C 305      15.554   6.818  -4.116  0.50 36.28 LIG 0.01  A 
ATOM     39  CE1 PHE C 305      14.894   6.939  -5.342  0.50 36.66 LIG 0.00  A 
ATOM     40  CZ  PHE C 305      13.531   6.642  -5.437  0.50 36.87 LIG 0.00  A 
ATOM     41  CE2 PHE C 305      12.840   6.220  -4.315  0.50 36.76 LIG 0.00  A 
ATOM     42  CD2 PHE C 305      13.510   6.104  -3.087  0.50 36.02 LIG 0.01  A 
ENDBRANCH 36 37
ENDBRANCH 35 36
BRANCH 35 43
ATOM     43  N   PHE C 305      15.654   8.674  -1.387  0.50 33.54 LIG-0.35  N 
ATOM     44 H    PHE C 305      14.968   9.175  -1.524  0.50 33.54 LIG 0.16  HD
ATOM     45  C   ASN C 304      16.893   8.972  -1.779  0.50 33.07 LIG 0.24  C 
ATOM     46 O    ASN C 304      17.779   8.117  -1.894  0.50 33.39 LIG-0.27  OA
BRANCH 45 47
ATOM     47  CA  ASN C 304      17.179  10.450  -2.075  0.50 32.40 LIG 0.18  C 
BRANCH 47 48
ATOM     48  CB  ASN C 304      17.542  10.713  -3.544  0.50 32.38 LIG 0.14  C 
BRANCH 48 49
ATOM     49  CG  ASN C 304      16.302  10.826  -4.466  0.50 31.77 LIG 0.22  C 
ATOM     50 OD1  ASN C 304      15.197  11.104  -4.013  0.50 27.48 LIG-0.27  OA
ATOM     51  ND2 ASN C 304      16.493  10.563  -5.752  0.50 32.56 LIG-0.37  N 
ATOM     52 21HD ASN C 304      15.829  10.584  -6.299  0.50 32.56 LIG 0.16  HD
ATOM     53 22HD ASN C 304      17.281  10.372  -6.039  0.50 32.56 LIG 0.16  HD
ENDBRANCH 48 49
ENDBRANCH 47 48
BRANCH 47 54
ATOM     54  N   ASN C 304      18.250  10.933  -1.237  0.50 31.56 LIG-0.34  N 
ATOM     55  C   LEU C 303      18.046  11.928  -0.387  0.50 30.83 LIG 0.26  C 
ATOM     56 O    LEU C 303      16.926  12.337  -0.113  0.50 29.02 LIG-0.27  OA
ATOM     57 H    ASN C 304      19.001  10.528  -1.341  0.50 31.56 LIG 0.16  HD
BRANCH 55 58
ATOM     58  CA  LEU C 303      19.304  12.538   0.243  0.50 30.56 LIG 0.40  C 
ATOM     59  N   LEU C 303      19.069  13.155   1.577  0.50 30.88 LIG 0.61  N 
BRANCH 58 60
ATOM     60  CB  LEU C 303      20.433  11.504   0.330  0.50 30.80 LIG 0.06  C 
BRANCH 60 61
ATOM     61  CG  LEU C 303      21.537  11.557  -0.733  0.50 30.92 LIG-0.02  C 
ATOM     62  CD2 LEU C 303      21.250  12.664  -1.764  0.50 31.43 LIG 0.01  C 
ATOM     63  CD1 LEU C 303      21.730  10.206  -1.399  0.50 30.50 LIG 0.01  C 
ENDBRANCH 60 61
ENDBRANCH 58 60
ENDBRANCH 55 58
ENDBRANCH 47 54
ENDBRANCH 45 47
ENDBRANCH 35 43
ENDBRANCH 1 35
TORSDOF 21
ENDMDL
MODEL 97
USER: ADFR SOLUTION from run 52
USER: SCORE 16.433442 LL:  -4.442 LR: -13.061 RR:   0.000 FEB:  -6.796
USER: RMSD 8.981931
USER: SEED 51
USER: STATUS no improvement in best in 54 clusters for 5 generations
USER: GENES 23
USER: genes 0 Translation |==|  0.30236 0.64324 0.43932
USER: genes 1 Rotation |==|  0.33494 0.24753 0.18833 0.74875
USER: genes 2 Torsion [N]-CA--C-[N] |==|  0.91625
USER: genes 3 Torsion [C]-N--CA-[C] |==|  0.64718
USER: genes 4 Torsion [N]-CA--C-[N] |==|  0.40792
USER: genes 5 Torsion [C]-N--CA-[CB] |==|  0.86546
USER: genes 6 Torsion [N]-CA--C-[N] |==|  0.31275
USER: genes 7 Torsion [N]-CA--C-[OXT] |==|  0.81108
USER: genes 8 Torsion [N]-CA--CB-[OG] |==|  0.71171
USER: genes 9 Torsion [CA]-CB--OG-[HG] |==|  0.27297
USER: genes 10 Torsion [N]-CA--CB-[CG2] |==|  0.27596
USER: genes 11 Torsion [CA]-CB--CG1-[CD1] |==|  0.72617
USER: genes 12 Torsion [N]-C--CA-[N] |==|  0.11027
USER: genes 13 Torsion [C]-CA--CB-[CG] |==|  0.54498
USER: genes 14 Torsion [CA]-CB--CG-[CD1] |==|  0.36565
USER: genes 15 Torsion [C]-CA--N-[C] |==|  0.17685
USER: genes 16 Torsion [N]-C--CA-[N] |==|  0.52202
USER: genes 17 Torsion [C]-CA--CB-[CG] |==|  0.66744
USER: genes 18 Torsion [CA]-CB--CG-[OD1] |==|  0.72146
USER: genes 19 Torsion [C]-CA--N-[C] |==|  0.75129
USER: genes 20 Torsion [N]-C--CA-[N] |==|  0.63919
USER: genes 21 Torsion [C]-CA--CB-[CG] |==|  0.36205
USER: genes 22 Torsion [CA]-CB--CG-[CD2] |==|  0.61129
ROOT
ATOM      1  C   PHE C 305       8.352  10.269  -1.503  0.50 34.66 LIG 0.24  C 
ATOM      2 O    PHE C 305       7.361   9.588  -1.258  0.50 33.80 LIG-0.27  OA
ATOM      3  N   PRO C 306       8.335  11.259  -2.416  0.50 35.29 LIG-0.34  N 
ATOM      4  CA  PRO C 306       7.338  11.240  -3.474  0.50 35.79 LIG 0.18  C 
ATOM      5  CB  PRO C 306       7.084  12.740  -3.750  0.50 35.80 LIG 0.04  C 
ATOM      6  CG  PRO C 306       8.119  13.499  -2.912  0.50 35.25 LIG 0.02  C 
ATOM      7  CD  PRO C 306       9.145  12.486  -2.486  0.50 35.51 LIG 0.13  C 
ENDROOT
BRANCH 4 8
ATOM      8  C   PRO C 306       7.914  10.591  -4.734  0.50 36.50 LIG 0.24  C 
ATOM      9  N   ILE C 307       9.237  10.736  -4.916  0.50 37.01 LIG-0.35  N 
ATOM     10 H    ILE C 307       9.753  11.208  -4.416  0.50 37.01 LIG 0.16  HD
ATOM     11 O    PRO C 306       7.168   9.960  -5.517  0.50 36.74 LIG-0.27  OA
BRANCH 9 12
ATOM     12  CA  ILE C 307       9.898  10.063  -6.035  0.50 37.44 LIG 0.18  C 
BRANCH 12 13
ATOM     13  C   ILE C 307      11.098   9.223  -5.591  0.50 38.23 LIG 0.24  C 
ATOM     14  N   SER C 308      11.305   8.121  -6.307  0.50 38.91 LIG-0.34  N 
ATOM     15 H    SER C 308      10.742   7.829  -6.888  0.50 38.91 LIG 0.16  HD
ATOM     16 O    ILE C 307      11.812   9.572  -4.640  0.50 38.79 LIG-0.27  OA
BRANCH 14 17
ATOM     17  CA  SER C 308      12.500   7.290  -6.187  0.50 39.43 LIG 0.20  C 
BRANCH 17 18
ATOM     18  C   SER C 308      12.383   6.580  -4.836  0.50 39.77 LIG 0.24  C 
ATOM     19  N   PRO C 309      12.205   5.247  -4.851  0.50 40.03 LIG-0.34  N 
ATOM     20  CD  PRO C 309      12.457   4.312  -5.958  0.50 39.83 LIG 0.13  C 
ATOM     21  CA  PRO C 309      11.745   4.556  -3.644  0.50 40.09 LIG 0.19  C 
ATOM     22  CG  PRO C 309      11.720   3.081  -5.532  0.50 40.19 LIG 0.02  C 
ATOM     23  CB  PRO C 309      11.821   3.075  -4.038  0.50 40.09 LIG 0.04  C 
ATOM     24 O    SER C 308      12.469   7.223  -3.786  0.50 39.81 LIG-0.27  OA
BRANCH 21 25
ATOM     25  C   PRO C 309      12.605   4.847  -2.414  0.50 40.04 LIG 0.20  C 
ATOM     26 OXT  PRO C 309      13.769   4.445  -2.330  0.50 40.10 LIG-0.65  OA
ATOM     27 O    PRO C 309      12.148   5.486  -1.463  0.50 40.34 LIG-0.65  OA
ENDBRANCH 21 25
ENDBRANCH 17 18
BRANCH 17 28
ATOM     28  CB  SER C 308      13.768   8.146  -6.234  0.50 39.49 LIG 0.20  C 
BRANCH 28 29
ATOM     29 OG   SER C 308      14.413   8.048  -7.496  0.50 39.70 LIG-0.40  OA
ATOM     30 HG   SER C 308      14.202   8.708  -7.971  0.50 39.70 LIG 0.21  HD
ENDBRANCH 28 29
ENDBRANCH 17 28
ENDBRANCH 14 17
ENDBRANCH 12 13
BRANCH 12 31
ATOM     31  CB  ILE C 307      10.390  11.057  -7.114  0.50 37.20 LIG 0.01  C 
ATOM     32  CG2 ILE C 307      11.891  11.341  -6.954  0.50 36.86 LIG 0.01  C 
BRANCH 31 33
ATOM     33  CG1 ILE C 307      10.026  10.521  -8.510  0.50 35.88 LIG 0.00  C 
ATOM     34  CD1 ILE C 307      11.139   9.811  -9.242  0.50 32.01 LIG 0.01  C 
ENDBRANCH 31 33
ENDBRANCH 12 31
ENDBRANCH 9 12
ENDBRANCH 4 8
BRANCH 1 35
ATOM     35  CA  PHE C 305       9.653  10.026  -0.727  0.50 34.47 LIG 0.18  C 
BRANCH 35 36
ATOM     36  CB  PHE C 305       9.292   9.228   0.535  0.50 34.49 LIG 0.07  C 
BRANCH 36 37
ATOM     37  CG  PHE C 305      10.359   9.216   1.617  0.50 35.55 LIG-0.06  A 
ATOM     38  CD1 PHE C 305      10.057   9.490   2.950  0.50 36.28 LIG 0.01  A 
ATOM     39  CE1 PHE C 305      11.055   9.470   3.929  0.50 36.66 LIG 0.00  A 
ATOM     40  CZ  PHE C 305      12.378   9.187   3.575  0.50 36.87 LIG 0.00  A 
ATOM     41  CE2 PHE C 305      12.694   8.918   2.255  0.50 36.76 LIG 0.00  A 
ATOM     42  CD2 PHE C 305      11.686   8.943   1.278  0.50 36.02 LIG 0.01  A 
ENDBRANCH 36 37
ENDBRANCH 35 36
BRANCH 35 43
ATOM     43  N   PHE C 305      10.370  11.242  -0.328  0.50 33.54 LIG-0.35  N 
ATOM     44 H    PHE C 305      11.148  11.335  -0.683  0.50 33.54 LIG 0.16  HD
ATOM     45  C   ASN C 304       9.822  12.111   0.522  0.50 33.07 LIG 0.24  C 
ATOM     46 O    ASN C 304       8.892  11.807   1.279  0.50 33.39 LIG-0.27  OA
BRANCH 45 47
ATOM     47  CA  ASN C 304      10.398  13.533   0.511  0.50 32.40 LIG 0.18  C 
BRANCH 47 48
ATOM     48  CB  ASN C 304      11.931  13.564   0.610  0.50 32.38 LIG 0.14  C 
BRANCH 48 49
ATOM     49  CG  ASN C 304      12.443  14.326   1.859  0.50 31.77 LIG 0.22  C 
ATOM     50 OD1  ASN C 304      12.847  15.480   1.778  0.50 27.48 LIG-0.27  OA
ATOM     51  ND2 ASN C 304      12.462  13.648   3.000  0.50 32.56 LIG-0.37  N 
ATOM     52 21HD ASN C 304      12.765  14.018   3.715  0.50 32.56 LIG 0.16  HD
ATOM     53 22HD ASN C 304      12.171  12.839   3.024  0.50 32.56 LIG 0.16  HD
ENDBRANCH 48 49
ENDBRANCH 47 48
BRANCH 47 54
ATOM     54  N   ASN C 304       9.847  14.309   1.595  0.50 31.56 LIG-0.34  N 
ATOM     55  C   LEU C 303       8.732  15.004   1.429  0.50 30.83 LIG 0.26  C 
ATOM     56 O    LEU C 303       8.011  14.863   0.452  0.50 29.02 LIG-0.27  OA
ATOM     57 H    ASN C 304      10.295  14.276   2.329  0.50 31.56 LIG 0.16  HD
BRANCH 55 58
ATOM     58  CA  LEU C 303       8.392  15.999   2.545  0.50 30.56 LIG 0.40  C 
ATOM     59  N   LEU C 303       6.997  15.880   3.052  0.50 30.88 LIG 0.61  N 
BRANCH 58 60
ATOM     60  CB  LEU C 303       9.387  15.887   3.706  0.50 30.80 LIG 0.06  C 
BRANCH 60 61
ATOM     61  CG  LEU C 303      10.028  17.178   4.229  0.50 30.92 LIG-0.02  C 
ATOM     62  CD2 LEU C 303      11.516  16.958   4.555  0.50 31.43 LIG 0.01  C 
ATOM     63  CD1 LEU C 303       9.267  17.730   5.422  0.50 30.50 LIG 0.01  C 
ENDBRANCH 60 61
ENDBRANCH 58 60
ENDBRANCH 55 58
ENDBRANCH 47 54
ENDBRANCH 45 47
ENDBRANCH 35 43
ENDBRANCH 1 35
TORSDOF 21
ENDMDL
MODEL 98
USER: ADFR SOLUTION from run 27
USER: SCORE 17.596243 LL:  -5.544 LR: -13.057 RR:   0.000 FEB:  -6.793
USER: RMSD 7.007468
USER: SEED 26
USER: STATUS no improvement in best in 10 clusters for 5 generations
USER: GENES 23
USER: genes 0 Translation |==|  0.41107 0.52110 0.24516
USER: genes 1 Rotation |==|  0.56912 0.75873 0.79575 0.80135
USER: genes 2 Torsion [N]-CA--C-[N] |==|  0.03379
USER: genes 3 Torsion [C]-N--CA-[C] |==|  0.60544
USER: genes 4 Torsion [N]-CA--C-[N] |==|  0.43300
USER: genes 5 Torsion [C]-N--CA-[CB] |==|  0.12540
USER: genes 6 Torsion [N]-CA--C-[N] |==|  0.14027
USER: genes 7 Torsion [N]-CA--C-[OXT] |==|  0.87528
USER: genes 8 Torsion [N]-CA--CB-[OG] |==|  0.54779
USER: genes 9 Torsion [CA]-CB--OG-[HG] |==|  0.53659
USER: genes 10 Torsion [N]-CA--CB-[CG2] |==|  0.92326
USER: genes 11 Torsion [CA]-CB--CG1-[CD1] |==|  0.32031
USER: genes 12 Torsion [N]-C--CA-[N] |==|  0.13610
USER: genes 13 Torsion [C]-CA--CB-[CG] |==|  0.83157
USER: genes 14 Torsion [CA]-CB--CG-[CD1] |==|  0.83883
USER: genes 15 Torsion [C]-CA--N-[C] |==|  0.57782
USER: genes 16 Torsion [N]-C--CA-[N] |==|  0.02222
USER: genes 17 Torsion [C]-CA--CB-[CG] |==|  0.85313
USER: genes 18 Torsion [CA]-CB--CG-[OD1] |==|  0.91014
USER: genes 19 Torsion [C]-CA--N-[C] |==|  0.76693
USER: genes 20 Torsion [N]-C--CA-[N] |==|  0.35896
USER: genes 21 Torsion [C]-CA--CB-[CG] |==|  0.70396
USER: genes 22 Torsion [CA]-CB--CG-[CD2] |==|  0.52139
ROOT
ATOM      1  C   PHE C 305      11.124   7.337  -5.434  0.50 34.66 LIG 0.24  C 
ATOM      2 O    PHE C 305      11.068   7.490  -6.651  0.50 33.80 LIG-0.27  OA
ATOM      3  N   PRO C 306      12.102   6.622  -4.845  0.50 35.29 LIG-0.34  N 
ATOM      4  CA  PRO C 306      12.815   5.615  -5.616  0.50 35.79 LIG 0.18  C 
ATOM      5  CB  PRO C 306      14.230   5.626  -4.992  0.50 35.80 LIG 0.04  C 
ATOM      6  CG  PRO C 306      14.140   6.551  -3.773  0.50 35.25 LIG 0.02  C 
ATOM      7  CD  PRO C 306      12.675   6.747  -3.496  0.50 35.51 LIG 0.13  C 
ENDROOT
BRANCH 4 8
ATOM      8  C   PRO C 306      12.185   4.237  -5.399  0.50 36.50 LIG 0.24  C 
ATOM      9  N   ILE C 307      10.990   4.229  -4.783  0.50 37.01 LIG-0.35  N 
ATOM     10 H    ILE C 307      10.599   4.922  -4.460  0.50 37.01 LIG 0.16  HD
ATOM     11 O    PRO C 306      12.772   3.206  -5.796  0.50 36.74 LIG-0.27  OA
BRANCH 9 12
ATOM     12  CA  ILE C 307      10.260   2.970  -4.626  0.50 37.44 LIG 0.18  C 
BRANCH 12 13
ATOM     13  C   ILE C 307       8.750   3.139  -4.806  0.50 38.23 LIG 0.24  C 
ATOM     14  N   SER C 308       8.104   2.035  -5.172  0.50 38.91 LIG-0.34  N 
ATOM     15 H    SER C 308       8.508   1.316  -5.415  0.50 38.91 LIG 0.16  HD
ATOM     16 O    ILE C 307       8.195   4.230  -4.609  0.50 38.79 LIG-0.27  OA
BRANCH 14 17
ATOM     17  CA  SER C 308       6.648   1.922  -5.202  0.50 39.43 LIG 0.20  C 
BRANCH 17 18
ATOM     18  C   SER C 308       6.342   0.666  -6.021  0.50 39.77 LIG 0.24  C 
ATOM     19  N   PRO C 309       6.986  -0.466  -5.683  0.50 40.03 LIG-0.34  N 
ATOM     20  CD  PRO C 309       7.677  -0.772  -4.421  0.50 39.83 LIG 0.13  C 
ATOM     21  CA  PRO C 309       7.013  -1.598  -6.612  0.50 40.09 LIG 0.19  C 
ATOM     22  CG  PRO C 309       8.507  -1.966  -4.775  0.50 40.19 LIG 0.02  C 
ATOM     23  CB  PRO C 309       7.697  -2.704  -5.797  0.50 40.09 LIG 0.04  C 
ATOM     24 O    SER C 308       5.520   0.708  -6.941  0.50 39.81 LIG-0.27  OA
BRANCH 21 25
ATOM     25  C   PRO C 309       5.624  -2.032  -7.079  0.50 40.04 LIG 0.20  C 
ATOM     26 OXT  PRO C 309       4.685  -2.150  -6.288  0.50 40.10 LIG-0.65  OA
ATOM     27 O    PRO C 309       5.411  -2.290  -8.266  0.50 40.34 LIG-0.65  OA
ENDBRANCH 21 25
ENDBRANCH 17 18
BRANCH 17 28
ATOM     28  CB  SER C 308       6.017   3.154  -5.854  0.50 39.49 LIG 0.20  C 
BRANCH 28 29
ATOM     29 OG   SER C 308       4.633   3.252  -5.547  0.50 39.70 LIG-0.40  OA
ATOM     30 HG   SER C 308       4.273   3.819  -6.052  0.50 39.70 LIG 0.21  HD
ENDBRANCH 28 29
ENDBRANCH 17 28
ENDBRANCH 14 17
ENDBRANCH 12 13
BRANCH 12 31
ATOM     31  CB  ILE C 307      10.502   2.318  -3.242  0.50 37.20 LIG 0.01  C 
ATOM     32  CG2 ILE C 307      11.875   2.717  -2.681  0.50 36.86 LIG 0.01  C 
BRANCH 31 33
ATOM     33  CG1 ILE C 307       9.340   2.674  -2.298  0.50 35.88 LIG 0.00  C 
ATOM     34  CD1 ILE C 307       8.495   1.510  -1.843  0.50 32.01 LIG 0.01  C 
ENDBRANCH 31 33
ENDBRANCH 12 31
ENDBRANCH 9 12
ENDBRANCH 4 8
BRANCH 1 35
ATOM     35  CA  PHE C 305      10.079   8.008  -4.533  0.50 34.47 LIG 0.18  C 
BRANCH 35 36
ATOM     36  CB  PHE C 305       9.247   8.949  -5.418  0.50 34.49 LIG 0.07  C 
BRANCH 36 37
ATOM     37  CG  PHE C 305      10.035  10.056  -6.099  0.50 35.55 LIG-0.06  A 
ATOM     38  CD1 PHE C 305      10.782  10.981  -5.371  0.50 36.28 LIG 0.01  A 
ATOM     39  CE1 PHE C 305      11.501  11.989  -6.020  0.50 36.66 LIG 0.00  A 
ATOM     40  CZ  PHE C 305      11.467  12.088  -7.415  0.50 36.87 LIG 0.00  A 
ATOM     41  CE2 PHE C 305      10.727  11.179  -8.150  0.50 36.76 LIG 0.00  A 
ATOM     42  CD2 PHE C 305      10.006  10.172  -7.490  0.50 36.02 LIG 0.01  A 
ENDBRANCH 36 37
ENDBRANCH 35 36
BRANCH 35 43
ATOM     43  N   PHE C 305      10.633   8.779  -3.414  0.50 33.54 LIG-0.35  N 
ATOM     44 H    PHE C 305      11.417   9.104  -3.554  0.50 33.54 LIG 0.16  HD
ATOM     45  C   ASN C 304       9.941   8.940  -2.286  0.50 33.07 LIG 0.24  C 
ATOM     46 O    ASN C 304       9.004   8.198  -1.967  0.50 33.39 LIG-0.27  OA
BRANCH 45 47
ATOM     47  CA  ASN C 304      10.360  10.114  -1.391  0.50 32.40 LIG 0.18  C 
BRANCH 47 48
ATOM     48  CB  ASN C 304       9.178  10.996  -0.960  0.50 32.38 LIG 0.14  C 
BRANCH 48 49
ATOM     49  CG  ASN C 304       8.320  11.488  -2.153  0.50 31.77 LIG 0.22  C 
ATOM     50 OD1  ASN C 304       8.825  11.713  -3.247  0.50 27.48 LIG-0.27  OA
ATOM     51  ND2 ASN C 304       7.032  11.693  -1.912  0.50 32.56 LIG-0.37  N 
ATOM     52 21HD ASN C 304       6.520  11.995  -2.535  0.50 32.56 LIG 0.16  HD
ATOM     53 22HD ASN C 304       6.707  11.525  -1.133  0.50 32.56 LIG 0.16  HD
ENDBRANCH 48 49
ENDBRANCH 47 48
BRANCH 47 54
ATOM     54  N   ASN C 304      11.332  10.939  -2.066  0.50 31.56 LIG-0.34  N 
ATOM     55  C   LEU C 303      12.618  10.622  -2.042  0.50 30.83 LIG 0.26  C 
ATOM     56 O    LEU C 303      13.019   9.536  -1.649  0.50 29.02 LIG-0.27  OA
ATOM     57 H    ASN C 304      11.008  11.627  -2.467  0.50 31.56 LIG 0.16  HD
BRANCH 55 58
ATOM     58  CA  LEU C 303      13.582  11.703  -2.548  0.50 30.56 LIG 0.40  C 
ATOM     59  N   LEU C 303      14.705  11.991  -1.613  0.50 30.88 LIG 0.61  N 
BRANCH 58 60
ATOM     60  CB  LEU C 303      14.128  11.348  -3.937  0.50 30.80 LIG 0.06  C 
BRANCH 60 61
ATOM     61  CG  LEU C 303      15.585  10.880  -4.035  0.50 30.92 LIG-0.02  C 
ATOM     62  CD2 LEU C 303      16.020  10.752  -5.507  0.50 31.43 LIG 0.01  C 
ATOM     63  CD1 LEU C 303      15.804   9.586  -3.271  0.50 30.50 LIG 0.01  C 
ENDBRANCH 60 61
ENDBRANCH 58 60
ENDBRANCH 55 58
ENDBRANCH 47 54
ENDBRANCH 45 47
ENDBRANCH 35 43
ENDBRANCH 1 35
TORSDOF 21
ENDMDL
MODEL 99
USER: ADFR SOLUTION from run 153
USER: SCORE 17.846543 LL:  -5.819 LR: -13.052 RR:   0.000 FEB:  -6.788
USER: RMSD 6.715989
USER: SEED 152
USER: STATUS no improvement in best in 22 clusters for 5 generations
USER: GENES 23
USER: genes 0 Translation |==|  0.37190 0.45758 0.27058
USER: genes 1 Rotation |==|  0.66835 0.93217 0.51782 0.68593
USER: genes 2 Torsion [N]-CA--C-[N] |==|  0.21634
USER: genes 3 Torsion [C]-N--CA-[C] |==|  0.73557
USER: genes 4 Torsion [N]-CA--C-[N] |==|  0.94666
USER: genes 5 Torsion [C]-N--CA-[CB] |==|  0.15571
USER: genes 6 Torsion [N]-CA--C-[N] |==|  0.12020
USER: genes 7 Torsion [N]-CA--C-[OXT] |==|  0.80801
USER: genes 8 Torsion [N]-CA--CB-[OG] |==|  0.74055
USER: genes 9 Torsion [CA]-CB--OG-[HG] |==|  0.14112
USER: genes 10 Torsion [N]-CA--CB-[CG2] |==|  0.78962
USER: genes 11 Torsion [CA]-CB--CG1-[CD1] |==|  0.31055
USER: genes 12 Torsion [N]-C--CA-[N] |==|  0.09324
USER: genes 13 Torsion [C]-CA--CB-[CG] |==|  0.62806
USER: genes 14 Torsion [CA]-CB--CG-[CD1] |==|  0.23009
USER: genes 15 Torsion [C]-CA--N-[C] |==|  0.59701
USER: genes 16 Torsion [N]-C--CA-[N] |==|  0.50000
USER: genes 17 Torsion [C]-CA--CB-[CG] |==|  0.25539
USER: genes 18 Torsion [CA]-CB--CG-[OD1] |==|  0.58621
USER: genes 19 Torsion [C]-CA--N-[C] |==|  0.54840
USER: genes 20 Torsion [N]-C--CA-[N] |==|  0.70583
USER: genes 21 Torsion [C]-CA--CB-[CG] |==|  0.27744
USER: genes 22 Torsion [CA]-CB--CG-[CD2] |==|  0.90894
ROOT
ATOM      1  C   PHE C 305      10.125   5.813  -4.920  0.50 34.66 LIG 0.24  C 
ATOM      2 O    PHE C 305       8.959   5.660  -5.272  0.50 33.80 LIG-0.27  OA
ATOM      3  N   PRO C 306      10.988   4.782  -4.826  0.50 35.29 LIG-0.34  N 
ATOM      4  CA  PRO C 306      10.474   3.433  -4.648  0.50 35.79 LIG 0.18  C 
ATOM      5  CB  PRO C 306      11.523   2.555  -5.369  0.50 35.80 LIG 0.04  C 
ATOM      6  CG  PRO C 306      12.663   3.504  -5.757  0.50 35.25 LIG 0.02  C 
ATOM      7  CD  PRO C 306      12.452   4.767  -4.968  0.50 35.51 LIG 0.13  C 
ENDROOT
BRANCH 4 8
ATOM      8  C   PRO C 306      10.450   3.066  -3.163  0.50 36.50 LIG 0.24  C 
ATOM      9  N   ILE C 307       9.438   3.583  -2.447  0.50 37.01 LIG-0.35  N 
ATOM     10 H    ILE C 307       8.856   4.139  -2.749  0.50 37.01 LIG 0.16  HD
ATOM     11 O    PRO C 306      11.330   2.315  -2.685  0.50 36.74 LIG-0.27  OA
BRANCH 9 12
ATOM     12  CA  ILE C 307       9.270   3.204  -1.043  0.50 37.44 LIG 0.18  C 
BRANCH 12 13
ATOM     13  C   ILE C 307       8.276   2.055  -0.859  0.50 38.23 LIG 0.24  C 
ATOM     14  N   SER C 308       7.450   1.860  -1.883  0.50 38.91 LIG-0.34  N 
ATOM     15 H    SER C 308       7.385   2.409  -2.542  0.50 38.91 LIG 0.16  HD
ATOM     16 O    ILE C 307       8.270   1.368   0.173  0.50 38.79 LIG-0.27  OA
BRANCH 14 17
ATOM     17  CA  SER C 308       6.569   0.702  -2.003  0.50 39.43 LIG 0.20  C 
BRANCH 17 18
ATOM     18  C   SER C 308       5.737   0.938  -3.266  0.50 39.77 LIG 0.24  C 
ATOM     19  N   PRO C 309       6.378   1.402  -4.353  0.50 40.03 LIG-0.34  N 
ATOM     20  CD  PRO C 309       7.824   1.385  -4.627  0.50 39.83 LIG 0.13  C 
ATOM     21  CA  PRO C 309       5.616   1.971  -5.467  0.50 40.09 LIG 0.19  C 
ATOM     22  CG  PRO C 309       7.963   2.362  -5.753  0.50 40.19 LIG 0.02  C 
ATOM     23  CB  PRO C 309       6.690   2.229  -6.532  0.50 40.09 LIG 0.04  C 
ATOM     24 O    SER C 308       4.528   0.689  -3.270  0.50 39.81 LIG-0.27  OA
BRANCH 21 25
ATOM     25  C   PRO C 309       4.525   1.040  -5.993  0.50 40.04 LIG 0.20  C 
ATOM     26 OXT  PRO C 309       4.801  -0.001  -6.598  0.50 40.10 LIG-0.65  OA
ATOM     27 O    PRO C 309       3.333   1.313  -5.837  0.50 40.34 LIG-0.65  OA
ENDBRANCH 21 25
ENDBRANCH 17 18
BRANCH 17 28
ATOM     28  CB  SER C 308       5.660   0.577  -0.779  0.50 39.49 LIG 0.20  C 
BRANCH 28 29
ATOM     29 OG   SER C 308       6.225  -0.282   0.202  0.50 39.70 LIG-0.40  OA
ATOM     30 HG   SER C 308       7.015  -0.046   0.359  0.50 39.70 LIG 0.21  HD
ENDBRANCH 28 29
ENDBRANCH 17 28
ENDBRANCH 14 17
ENDBRANCH 12 13
BRANCH 12 31
ATOM     31  CB  ILE C 307       8.792   4.388  -0.167  0.50 37.20 LIG 0.01  C 
ATOM     32  CG2 ILE C 307       9.946   5.364   0.111  0.50 36.86 LIG 0.01  C 
BRANCH 31 33
ATOM     33  CG1 ILE C 307       7.581   5.063  -0.833  0.50 35.88 LIG 0.00  C 
ATOM     34  CD1 ILE C 307       6.268   4.902  -0.106  0.50 32.01 LIG 0.01  C 
ENDBRANCH 31 33
ENDBRANCH 12 31
ENDBRANCH 9 12
ENDBRANCH 4 8
BRANCH 1 35
ATOM     35  CA  PHE C 305      10.649   7.221  -4.610  0.50 34.47 LIG 0.18  C 
BRANCH 35 36
ATOM     36  CB  PHE C 305       9.759   8.218  -5.368  0.50 34.49 LIG 0.07  C 
BRANCH 36 37
ATOM     37  CG  PHE C 305      10.508   9.307  -6.120  0.50 35.55 LIG-0.06  A 
ATOM     38  CD1 PHE C 305      11.041   9.090  -7.390  0.50 36.28 LIG 0.01  A 
ATOM     39  CE1 PHE C 305      11.722  10.108  -8.063  0.50 36.66 LIG 0.00  A 
ATOM     40  CZ  PHE C 305      11.889  11.358  -7.459  0.50 36.87 LIG 0.00  A 
ATOM     41  CE2 PHE C 305      11.369  11.587  -6.197  0.50 36.76 LIG 0.00  A 
ATOM     42  CD2 PHE C 305      10.688  10.558  -5.527  0.50 36.02 LIG 0.01  A 
ENDBRANCH 36 37
ENDBRANCH 35 36
BRANCH 35 43
ATOM     43  N   PHE C 305      12.048   7.456  -4.986  0.50 33.54 LIG-0.35  N 
ATOM     44 H    PHE C 305      12.301   7.051  -5.702  0.50 33.54 LIG 0.16  HD
ATOM     45  C   ASN C 304      12.832   8.243  -4.248  0.50 33.07 LIG 0.24  C 
ATOM     46 O    ASN C 304      12.577   8.522  -3.071  0.50 33.39 LIG-0.27  OA
BRANCH 45 47
ATOM     47  CA  ASN C 304      14.080   8.805  -4.942  0.50 32.40 LIG 0.18  C 
BRANCH 47 48
ATOM     48  CB  ASN C 304      15.007   7.712  -5.495  0.50 32.38 LIG 0.14  C 
BRANCH 48 49
ATOM     49  CG  ASN C 304      14.701   7.345  -6.969  0.50 31.77 LIG 0.22  C 
ATOM     50 OD1  ASN C 304      14.893   6.212  -7.395  0.50 27.48 LIG-0.27  OA
ATOM     51  ND2 ASN C 304      14.268   8.329  -7.747  0.50 32.56 LIG-0.37  N 
ATOM     52 21HD ASN C 304      14.112   8.182  -8.580  0.50 32.56 LIG 0.16  HD
ATOM     53 22HD ASN C 304      14.142   9.114  -7.419  0.50 32.56 LIG 0.16  HD
ENDBRANCH 48 49
ENDBRANCH 47 48
BRANCH 47 54
ATOM     54  N   ASN C 304      14.831   9.635  -4.031  0.50 31.56 LIG-0.34  N 
ATOM     55  C   LEU C 303      15.736  10.488  -4.486  0.50 30.83 LIG 0.26  C 
ATOM     56 O    LEU C 303      15.833  10.772  -5.671  0.50 29.02 LIG-0.27  OA
ATOM     57 H    ASN C 304      14.640   9.525  -3.200  0.50 31.56 LIG 0.16  HD
BRANCH 55 58
ATOM     58  CA  LEU C 303      16.659  11.109  -3.430  0.50 30.56 LIG 0.40  C 
ATOM     59  N   LEU C 303      16.348  12.532  -3.122  0.50 30.88 LIG 0.61  N 
BRANCH 58 60
ATOM     60  CB  LEU C 303      16.661  10.277  -2.142  0.50 30.80 LIG 0.06  C 
BRANCH 60 61
ATOM     61  CG  LEU C 303      17.833   9.316  -1.912  0.50 30.92 LIG-0.02  C 
ATOM     62  CD2 LEU C 303      18.346   8.749  -3.249  0.50 31.43 LIG 0.01  C 
ATOM     63  CD1 LEU C 303      17.461   8.211  -0.939  0.50 30.50 LIG 0.01  C 
ENDBRANCH 60 61
ENDBRANCH 58 60
ENDBRANCH 55 58
ENDBRANCH 47 54
ENDBRANCH 45 47
ENDBRANCH 35 43
ENDBRANCH 1 35
TORSDOF 21
ENDMDL
MODEL 100
USER: ADFR SOLUTION from run 80
USER: SCORE 16.606846 LL:  -4.590 LR: -13.038 RR:   0.000 FEB:  -6.773
USER: RMSD 8.089253
USER: SEED 79
USER: STATUS no improvement in best in 24 clusters for 5 generations
USER: GENES 23
USER: genes 0 Translation |==|  0.31951 0.65306 0.27900
USER: genes 1 Rotation |==|  0.39393 0.13338 0.17820 0.52807
USER: genes 2 Torsion [N]-CA--C-[N] |==|  0.11238
USER: genes 3 Torsion [C]-N--CA-[C] |==|  0.64179
USER: genes 4 Torsion [N]-CA--C-[N] |==|  0.49014
USER: genes 5 Torsion [C]-N--CA-[CB] |==|  0.57377
USER: genes 6 Torsion [N]-CA--C-[N] |==|  0.32794
USER: genes 7 Torsion [N]-CA--C-[OXT] |==|  0.85203
USER: genes 8 Torsion [N]-CA--CB-[OG] |==|  0.99886
USER: genes 9 Torsion [CA]-CB--OG-[HG] |==|  0.70033
USER: genes 10 Torsion [N]-CA--CB-[CG2] |==|  0.23886
USER: genes 11 Torsion [CA]-CB--CG1-[CD1] |==|  0.20578
USER: genes 12 Torsion [N]-C--CA-[N] |==|  0.06778
USER: genes 13 Torsion [C]-CA--CB-[CG] |==|  0.86545
USER: genes 14 Torsion [CA]-CB--CG-[CD1] |==|  0.31394
USER: genes 15 Torsion [C]-CA--N-[C] |==|  0.67815
USER: genes 16 Torsion [N]-C--CA-[N] |==|  0.22833
USER: genes 17 Torsion [C]-CA--CB-[CG] |==|  0.36417
USER: genes 18 Torsion [CA]-CB--CG-[OD1] |==|  0.18235
USER: genes 19 Torsion [C]-CA--N-[C] |==|  0.76657
USER: genes 20 Torsion [N]-C--CA-[N] |==|  0.93272
USER: genes 21 Torsion [C]-CA--CB-[CG] |==|  0.73983
USER: genes 22 Torsion [CA]-CB--CG-[CD2] |==|  0.59018
ROOT
ATOM      1  C   PHE C 305       8.790  10.504  -4.749  0.50 34.66 LIG 0.24  C 
ATOM      2 O    PHE C 305       7.724  10.122  -5.222  0.50 33.80 LIG-0.27  OA
ATOM      3  N   PRO C 306       9.821  10.894  -5.524  0.50 35.29 LIG-0.34  N 
ATOM      4  CA  PRO C 306       9.903  10.421  -6.897  0.50 35.79 LIG 0.18  C 
ATOM      5  CB  PRO C 306      10.596  11.589  -7.635  0.50 35.80 LIG 0.04  C 
ATOM      6  CG  PRO C 306      11.009  12.584  -6.544  0.50 35.25 LIG 0.02  C 
ATOM      7  CD  PRO C 306      10.903  11.848  -5.237  0.50 35.51 LIG 0.13  C 
ENDROOT
BRANCH 4 8
ATOM      8  C   PRO C 306      10.795   9.180  -6.977  0.50 36.50 LIG 0.24  C 
ATOM      9  N   ILE C 307      10.654   8.291  -5.980  0.50 37.01 LIG-0.35  N 
ATOM     10 H    ILE C 307      10.153   8.401  -5.290  0.50 37.01 LIG 0.16  HD
ATOM     11 O    PRO C 306      11.585   9.033  -7.936  0.50 36.74 LIG-0.27  OA
BRANCH 9 12
ATOM     12  CA  ILE C 307      11.386   7.024  -6.023  0.50 37.44 LIG 0.18  C 
BRANCH 12 13
ATOM     13  C   ILE C 307      10.478   5.812  -5.799  0.50 38.23 LIG 0.24  C 
ATOM     14  N   SER C 308      11.085   4.633  -5.904  0.50 38.91 LIG-0.34  N 
ATOM     15 H    SER C 308      11.888   4.545  -6.199  0.50 38.91 LIG 0.16  HD
ATOM     16 O    ILE C 307       9.276   5.948  -5.532  0.50 38.79 LIG-0.27  OA
BRANCH 14 17
ATOM     17  CA  SER C 308      10.461   3.366  -5.531  0.50 39.43 LIG 0.20  C 
BRANCH 17 18
ATOM     18  C   SER C 308       9.547   3.681  -4.345  0.50 39.77 LIG 0.24  C 
ATOM     19  N   PRO C 309       8.229   3.465  -4.503  0.50 40.03 LIG-0.34  N 
ATOM     20  CD  PRO C 309       7.564   2.638  -5.521  0.50 39.83 LIG 0.13  C 
ATOM     21  CA  PRO C 309       7.272   4.054  -3.564  0.50 40.09 LIG 0.19  C 
ATOM     22  CG  PRO C 309       6.140   3.092  -5.444  0.50 40.19 LIG 0.02  C 
ATOM     23  CB  PRO C 309       5.932   3.451  -4.004  0.50 40.09 LIG 0.04  C 
ATOM     24 O    SER C 308      10.025   4.100  -3.286  0.50 39.81 LIG-0.27  OA
BRANCH 21 25
ATOM     25  C   PRO C 309       7.575   3.725  -2.103  0.50 40.04 LIG 0.20  C 
ATOM     26 OXT  PRO C 309       7.725   2.561  -1.722  0.50 40.10 LIG-0.65  OA
ATOM     27 O    PRO C 309       7.666   4.621  -1.260  0.50 40.34 LIG-0.65  OA
ENDBRANCH 21 25
ENDBRANCH 17 18
BRANCH 17 28
ATOM     28  CB  SER C 308      11.517   2.332  -5.135  0.50 39.49 LIG 0.20  C 
BRANCH 28 29
ATOM     29 OG   SER C 308      12.830   2.864  -5.239  0.50 39.70 LIG-0.40  OA
ATOM     30 HG   SER C 308      13.220   2.522  -5.899  0.50 39.70 LIG 0.21  HD
ENDBRANCH 28 29
ENDBRANCH 17 28
ENDBRANCH 14 17
ENDBRANCH 12 13
BRANCH 12 31
ATOM     31  CB  ILE C 307      12.523   6.964  -4.975  0.50 37.20 LIG 0.01  C 
ATOM     32  CG2 ILE C 307      11.992   6.477  -3.618  0.50 36.86 LIG 0.01  C 
BRANCH 31 33
ATOM     33  CG1 ILE C 307      13.674   6.098  -5.516  0.50 35.88 LIG 0.00  C 
ATOM     34  CD1 ILE C 307      14.515   6.738  -6.593  0.50 32.01 LIG 0.01  C 
ENDBRANCH 31 33
ENDBRANCH 12 31
ENDBRANCH 9 12
ENDBRANCH 4 8
BRANCH 1 35
ATOM     35  CA  PHE C 305       8.962  10.586  -3.227  0.50 34.47 LIG 0.18  C 
BRANCH 35 36
ATOM     36  CB  PHE C 305       7.595  10.955  -2.631  0.50 34.49 LIG 0.07  C 
BRANCH 36 37
ATOM     37  CG  PHE C 305       6.896  12.128  -3.300  0.50 35.55 LIG-0.06  A 
ATOM     38  CD1 PHE C 305       5.715  11.965  -4.023  0.50 36.28 LIG 0.01  A 
ATOM     39  CE1 PHE C 305       5.089  13.059  -4.627  0.50 36.66 LIG 0.00  A 
ATOM     40  CZ  PHE C 305       5.652  14.334  -4.522  0.50 36.87 LIG 0.00  A 
ATOM     41  CE2 PHE C 305       6.826  14.511  -3.812  0.50 36.76 LIG 0.00  A 
ATOM     42  CD2 PHE C 305       7.450  13.406  -3.211  0.50 36.02 LIG 0.01  A 
ENDBRANCH 36 37
ENDBRANCH 35 36
BRANCH 35 43
ATOM     43  N   PHE C 305       9.956  11.563  -2.770  0.50 33.54 LIG-0.35  N 
ATOM     44 H    PHE C 305       9.765  12.383  -2.951  0.50 33.54 LIG 0.16  HD
ATOM     45  C   ASN C 304      11.056  11.170  -2.127  0.50 33.07 LIG 0.24  C 
ATOM     46 O    ASN C 304      11.484  10.012  -2.185  0.50 33.39 LIG-0.27  OA
BRANCH 45 47
ATOM     47  CA  ASN C 304      11.773  12.237  -1.287  0.50 32.40 LIG 0.18  C 
BRANCH 47 48
ATOM     48  CB  ASN C 304      13.264  11.937  -1.076  0.50 32.38 LIG 0.14  C 
BRANCH 48 49
ATOM     49  CG  ASN C 304      14.177  13.150  -1.385  0.50 31.77 LIG 0.22  C 
ATOM     50 OD1  ASN C 304      14.132  14.168  -0.704  0.50 27.48 LIG-0.27  OA
ATOM     51  ND2 ASN C 304      14.969  13.042  -2.445  0.50 32.56 LIG-0.37  N 
ATOM     52 21HD ASN C 304      15.473  13.700  -2.674  0.50 32.56 LIG 0.16  HD
ATOM     53 22HD ASN C 304      14.978  12.313  -2.902  0.50 32.56 LIG 0.16  HD
ENDBRANCH 48 49
ENDBRANCH 47 48
BRANCH 47 54
ATOM     54  N   ASN C 304      11.139  12.372   0.002  0.50 31.56 LIG-0.34  N 
ATOM     55  C   LEU C 303      10.075  13.147   0.153  0.50 30.83 LIG 0.26  C 
ATOM     56 O    LEU C 303       9.457  13.605  -0.798  0.50 29.02 LIG-0.27  OA
ATOM     57 H    ASN C 304      11.505  11.919   0.635  0.50 31.56 LIG 0.16  HD
BRANCH 55 58
ATOM     58  CA  LEU C 303       9.656  13.433   1.601  0.50 30.56 LIG 0.40  C 
ATOM     59  N   LEU C 303      10.107  12.398   2.571  0.50 30.88 LIG 0.61  N 
BRANCH 58 60
ATOM     60  CB  LEU C 303      10.132  14.821   2.048  0.50 30.80 LIG 0.06  C 
BRANCH 60 61
ATOM     61  CG  LEU C 303      11.478  14.916   2.777  0.50 30.92 LIG-0.02  C 
ATOM     62  CD2 LEU C 303      11.460  16.058   3.809  0.50 31.43 LIG 0.01  C 
ATOM     63  CD1 LEU C 303      12.629  15.062   1.797  0.50 30.50 LIG 0.01  C 
ENDBRANCH 60 61
ENDBRANCH 58 60
ENDBRANCH 55 58
ENDBRANCH 47 54
ENDBRANCH 45 47
ENDBRANCH 35 43
ENDBRANCH 1 35
TORSDOF 21
ENDMDL
MODEL 101
USER: ADFR SOLUTION from run 99
USER: SCORE 18.532180 LL:  -6.440 LR: -13.034 RR:   0.000 FEB:  -6.769
USER: RMSD 11.690707
USER: SEED 98
USER: STATUS no improvement in best in 16 clusters for 5 generations
USER: GENES 23
USER: genes 0 Translation |==|  0.42704 0.51994 0.24054
USER: genes 1 Rotation |==|  0.80161 0.16040 0.32263 0.61068
USER: genes 2 Torsion [N]-CA--C-[N] |==|  0.99533
USER: genes 3 Torsion [C]-N--CA-[C] |==|  0.75789
USER: genes 4 Torsion [N]-CA--C-[N] |==|  0.15653
USER: genes 5 Torsion [C]-N--CA-[CB] |==|  0.78608
USER: genes 6 Torsion [N]-CA--C-[N] |==|  0.17596
USER: genes 7 Torsion [N]-CA--C-[OXT] |==|  0.43420
USER: genes 8 Torsion [N]-CA--CB-[OG] |==|  0.91433
USER: genes 9 Torsion [CA]-CB--OG-[HG] |==|  0.84663
USER: genes 10 Torsion [N]-CA--CB-[CG2] |==|  0.54670
USER: genes 11 Torsion [CA]-CB--CG1-[CD1] |==|  0.49467
USER: genes 12 Torsion [N]-C--CA-[N] |==|  0.46430
USER: genes 13 Torsion [C]-CA--CB-[CG] |==|  0.39223
USER: genes 14 Torsion [CA]-CB--CG-[CD1] |==|  0.26326
USER: genes 15 Torsion [C]-CA--N-[C] |==|  0.68889
USER: genes 16 Torsion [N]-C--CA-[N] |==|  0.41410
USER: genes 17 Torsion [C]-CA--CB-[CG] |==|  0.07032
USER: genes 18 Torsion [CA]-CB--CG-[OD1] |==|  0.26355
USER: genes 19 Torsion [C]-CA--N-[C] |==|  0.82790
USER: genes 20 Torsion [N]-C--CA-[N] |==|  0.48782
USER: genes 21 Torsion [C]-CA--CB-[CG] |==|  0.89614
USER: genes 22 Torsion [CA]-CB--CG-[CD2] |==|  0.66568
ROOT
ATOM      1  C   PHE C 305      11.532   7.310  -5.528  0.50 34.66 LIG 0.24  C 
ATOM      2 O    PHE C 305      12.349   6.498  -5.951  0.50 33.80 LIG-0.27  OA
ATOM      3  N   PRO C 306      11.404   8.542  -6.057  0.50 35.29 LIG-0.34  N 
ATOM      4  CA  PRO C 306      12.520   9.129  -6.782  0.50 35.79 LIG 0.18  C 
ATOM      5  CB  PRO C 306      11.828  10.015  -7.843  0.50 35.80 LIG 0.04  C 
ATOM      6  CG  PRO C 306      10.333   9.980  -7.504  0.50 35.25 LIG 0.02  C 
ATOM      7  CD  PRO C 306      10.227   9.423  -6.111  0.50 35.51 LIG 0.13  C 
ENDROOT
BRANCH 4 8
ATOM      8  C   PRO C 306      13.347  10.018  -5.851  0.50 36.50 LIG 0.24  C 
ATOM      9  N   ILE C 307      12.897  10.127  -4.590  0.50 37.01 LIG-0.35  N 
ATOM     10 H    ILE C 307      12.163   9.787  -4.299  0.50 37.01 LIG 0.16  HD
ATOM     11 O    PRO C 306      14.382  10.582  -6.273  0.50 36.74 LIG-0.27  OA
BRANCH 9 12
ATOM     12  CA  ILE C 307      13.678  10.869  -3.599  0.50 37.44 LIG 0.18  C 
BRANCH 12 13
ATOM     13  C   ILE C 307      14.725   9.997  -2.902  0.50 38.23 LIG 0.24  C 
ATOM     14  N   SER C 308      15.583   9.393  -3.719  0.50 38.91 LIG-0.34  N 
ATOM     15 H    SER C 308      15.486   9.383  -4.574  0.50 38.91 LIG 0.16  HD
ATOM     16 O    ILE C 307      14.755   9.888  -1.668  0.50 38.79 LIG-0.27  OA
BRANCH 14 17
ATOM     17  CA  SER C 308      16.776   8.686  -3.262  0.50 39.43 LIG 0.20  C 
BRANCH 17 18
ATOM     18  C   SER C 308      16.340   7.875  -2.039  0.50 39.77 LIG 0.24  C 
ATOM     19  N   PRO C 309      15.420   6.913  -2.230  0.50 40.03 LIG-0.34  N 
ATOM     20  CD  PRO C 309      15.024   6.277  -3.497  0.50 39.83 LIG 0.13  C 
ATOM     21  CA  PRO C 309      14.709   6.341  -1.085  0.50 40.09 LIG 0.19  C 
ATOM     22  CG  PRO C 309      13.733   5.607  -3.146  0.50 40.19 LIG 0.02  C 
ATOM     23  CB  PRO C 309      13.890   5.205  -1.711  0.50 40.09 LIG 0.04  C 
ATOM     24 O    SER C 308      16.839   8.101  -0.933  0.50 39.81 LIG-0.27  OA
BRANCH 21 25
ATOM     25  C   PRO C 309      15.642   5.815   0.006  0.50 40.04 LIG 0.20  C 
ATOM     26 OXT  PRO C 309      15.267   5.706   1.177  0.50 40.10 LIG-0.65  OA
ATOM     27 O    PRO C 309      16.803   5.497  -0.257  0.50 40.34 LIG-0.65  OA
ENDBRANCH 21 25
ENDBRANCH 17 18
BRANCH 17 28
ATOM     28  CB  SER C 308      17.885   9.671  -2.884  0.50 39.49 LIG 0.20  C 
BRANCH 28 29
ATOM     29 OG   SER C 308      17.816  10.855  -3.665  0.50 39.70 LIG-0.40  OA
ATOM     30 HG   SER C 308      17.834  10.654  -4.481  0.50 39.70 LIG 0.21  HD
ENDBRANCH 28 29
ENDBRANCH 17 28
ENDBRANCH 14 17
ENDBRANCH 12 13
BRANCH 12 31
ATOM     31  CB  ILE C 307      12.787  11.504  -2.503  0.50 37.20 LIG 0.01  C 
ATOM     32  CG2 ILE C 307      13.553  12.594  -1.739  0.50 36.86 LIG 0.01  C 
BRANCH 31 33
ATOM     33  CG1 ILE C 307      11.483  12.019  -3.138  0.50 35.88 LIG 0.00  C 
ATOM     34  CD1 ILE C 307      10.491  12.628  -2.177  0.50 32.01 LIG 0.01  C 
ENDBRANCH 31 33
ENDBRANCH 12 31
ENDBRANCH 9 12
ENDBRANCH 4 8
BRANCH 1 35
ATOM     35  CA  PHE C 305      10.587   6.914  -4.385  0.50 34.47 LIG 0.18  C 
BRANCH 35 36
ATOM     36  CB  PHE C 305      11.022   7.702  -3.140  0.50 34.49 LIG 0.07  C 
BRANCH 36 37
ATOM     37  CG  PHE C 305       9.883   8.212  -2.271  0.50 35.55 LIG-0.06  A 
ATOM     38  CD1 PHE C 305       9.425   7.497  -1.165  0.50 36.28 LIG 0.01  A 
ATOM     39  CE1 PHE C 305       8.378   7.988  -0.379  0.50 36.66 LIG 0.00  A 
ATOM     40  CZ  PHE C 305       7.768   9.203  -0.705  0.50 36.87 LIG 0.00  A 
ATOM     41  CE2 PHE C 305       8.209   9.921  -1.802  0.50 36.76 LIG 0.00  A 
ATOM     42  CD2 PHE C 305       9.258   9.420  -2.587  0.50 36.02 LIG 0.01  A 
ENDBRANCH 36 37
ENDBRANCH 35 36
BRANCH 35 43
ATOM     43  N   PHE C 305      10.578   5.484  -4.060  0.50 33.54 LIG-0.35  N 
ATOM     44 H    PHE C 305      11.307   5.188  -3.712  0.50 33.54 LIG 0.16  HD
ATOM     45  C   ASN C 304       9.501   4.735  -4.300  0.50 33.07 LIG 0.24  C 
ATOM     46 O    ASN C 304       8.620   5.072  -5.100  0.50 33.39 LIG-0.27  OA
BRANCH 45 47
ATOM     47  CA  ASN C 304       9.397   3.419  -3.518  0.50 32.40 LIG 0.18  C 
BRANCH 47 48
ATOM     48  CB  ASN C 304      10.078   2.239  -4.228  0.50 32.38 LIG 0.14  C 
BRANCH 48 49
ATOM     49  CG  ASN C 304      11.208   2.681  -5.191  0.50 31.77 LIG 0.22  C 
ATOM     50 OD1  ASN C 304      12.379   2.707  -4.827  0.50 27.48 LIG-0.27  OA
ATOM     51  ND2 ASN C 304      10.835   3.069  -6.404  0.50 32.56 LIG-0.37  N 
ATOM     52 21HD ASN C 304      11.424   3.351  -6.965  0.50 32.56 LIG 0.16  HD
ATOM     53 22HD ASN C 304      10.006   3.038  -6.629  0.50 32.56 LIG 0.16  HD
ENDBRANCH 48 49
ENDBRANCH 47 48
BRANCH 47 54
ATOM     54  N   ASN C 304       8.014   3.082  -3.280  0.50 31.56 LIG-0.34  N 
ATOM     55  C   LEU C 303       7.239   3.882  -2.563  0.50 30.83 LIG 0.26  C 
ATOM     56 O    LEU C 303       7.574   5.016  -2.253  0.50 29.02 LIG-0.27  OA
ATOM     57 H    ASN C 304       7.754   2.343  -3.636  0.50 31.56 LIG 0.16  HD
BRANCH 55 58
ATOM     58  CA  LEU C 303       5.883   3.299  -2.145  0.50 30.56 LIG 0.40  C 
ATOM     59  N   LEU C 303       5.093   4.194  -1.255  0.50 30.88 LIG 0.61  N 
BRANCH 58 60
ATOM     60  CB  LEU C 303       5.051   2.904  -3.371  0.50 30.80 LIG 0.06  C 
BRANCH 60 61
ATOM     61  CG  LEU C 303       5.128   3.806  -4.609  0.50 30.92 LIG-0.02  C 
ATOM     62  CD2 LEU C 303       3.738   4.361  -4.969  0.50 31.43 LIG 0.01  C 
ATOM     63  CD1 LEU C 303       5.764   3.081  -5.783  0.50 30.50 LIG 0.01  C 
ENDBRANCH 60 61
ENDBRANCH 58 60
ENDBRANCH 55 58
ENDBRANCH 47 54
ENDBRANCH 45 47
ENDBRANCH 35 43
ENDBRANCH 1 35
TORSDOF 21
ENDMDL
MODEL 102
USER: ADFR SOLUTION from run 125
USER: SCORE 17.280050 LL:  -6.898 LR: -13.032 RR:   0.000 FEB:  -6.768
USER: RMSD 10.756300
USER: SEED 124
USER: STATUS no improvement in best in 9 clusters for 5 generations
USER: GENES 23
USER: genes 0 Translation |==|  0.33075 0.56871 0.43650
USER: genes 1 Rotation |==|  0.33339 0.39119 0.04190 0.52339
USER: genes 2 Torsion [N]-CA--C-[N] |==|  0.58376
USER: genes 3 Torsion [C]-N--CA-[C] |==|  0.74127
USER: genes 4 Torsion [N]-CA--C-[N] |==|  0.93634
USER: genes 5 Torsion [C]-N--CA-[CB] |==|  0.34120
USER: genes 6 Torsion [N]-CA--C-[N] |==|  0.22915
USER: genes 7 Torsion [N]-CA--C-[OXT] |==|  0.36154
USER: genes 8 Torsion [N]-CA--CB-[OG] |==|  0.87474
USER: genes 9 Torsion [CA]-CB--OG-[HG] |==|  0.70266
USER: genes 10 Torsion [N]-CA--CB-[CG2] |==|  0.66315
USER: genes 11 Torsion [CA]-CB--CG1-[CD1] |==|  0.73033
USER: genes 12 Torsion [N]-C--CA-[N] |==|  0.88133
USER: genes 13 Torsion [C]-CA--CB-[CG] |==|  0.48770
USER: genes 14 Torsion [CA]-CB--CG-[CD1] |==|  0.91970
USER: genes 15 Torsion [C]-CA--N-[C] |==|  0.80218
USER: genes 16 Torsion [N]-C--CA-[N] |==|  0.09498
USER: genes 17 Torsion [C]-CA--CB-[CG] |==|  0.34998
USER: genes 18 Torsion [CA]-CB--CG-[OD1] |==|  0.12009
USER: genes 19 Torsion [C]-CA--N-[C] |==|  0.56178
USER: genes 20 Torsion [N]-C--CA-[N] |==|  0.49669
USER: genes 21 Torsion [C]-CA--CB-[CG] |==|  0.67901
USER: genes 22 Torsion [CA]-CB--CG-[CD2] |==|  0.71674
ROOT
ATOM      1  C   PHE C 305       9.076   8.480  -1.560  0.50 34.66 LIG 0.24  C 
ATOM      2 O    PHE C 305       8.037   9.097  -1.775  0.50 33.80 LIG-0.27  OA
ATOM      3  N   PRO C 306      10.286   8.974  -1.888  0.50 35.29 LIG-0.34  N 
ATOM      4  CA  PRO C 306      10.388   9.985  -2.929  0.50 35.79 LIG 0.18  C 
ATOM      5  CB  PRO C 306      11.604  10.831  -2.484  0.50 35.80 LIG 0.04  C 
ATOM      6  CG  PRO C 306      12.204  10.096  -1.280  0.50 35.25 LIG 0.02  C 
ATOM      7  CD  PRO C 306      11.601   8.718  -1.280  0.50 35.51 LIG 0.13  C 
ENDROOT
BRANCH 4 8
ATOM      8  C   PRO C 306      10.701   9.330  -4.276  0.50 36.50 LIG 0.24  C 
ATOM      9  N   ILE C 307      11.414  10.074  -5.138  0.50 37.01 LIG-0.35  N 
ATOM     10 H    ILE C 307      11.646  10.891  -5.007  0.50 37.01 LIG 0.16  HD
ATOM     11 O    PRO C 306      10.310   8.166  -4.517  0.50 36.74 LIG-0.27  OA
BRANCH 9 12
ATOM     12  CA  ILE C 307      11.853   9.496  -6.409  0.50 37.44 LIG 0.18  C 
BRANCH 12 13
ATOM     13  C   ILE C 307      13.258   8.895  -6.328  0.50 38.23 LIG 0.24  C 
ATOM     14  N   SER C 308      14.019   9.382  -5.352  0.50 38.91 LIG-0.34  N 
ATOM     15 H    SER C 308      13.797  10.068  -4.884  0.50 38.91 LIG 0.16  HD
ATOM     16 O    ILE C 307      13.629   8.014  -7.117  0.50 38.79 LIG-0.27  OA
BRANCH 14 17
ATOM     17  CA  SER C 308      15.308   8.811  -4.969  0.50 39.43 LIG 0.20  C 
BRANCH 17 18
ATOM     18  C   SER C 308      15.144   8.337  -3.523  0.50 39.77 LIG 0.24  C 
ATOM     19  N   PRO C 309      14.576   7.134  -3.326  0.50 40.03 LIG-0.34  N 
ATOM     20  CD  PRO C 309      14.407   6.043  -4.299  0.50 39.83 LIG 0.13  C 
ATOM     21  CA  PRO C 309      14.076   6.767  -1.999  0.50 40.09 LIG 0.19  C 
ATOM     22  CG  PRO C 309      13.392   5.162  -3.641  0.50 40.19 LIG 0.02  C 
ATOM     23  CB  PRO C 309      13.661   5.301  -2.174  0.50 40.09 LIG 0.04  C 
ATOM     24 O    SER C 308      15.541   9.040  -2.589  0.50 39.81 LIG-0.27  OA
BRANCH 21 25
ATOM     25  C   PRO C 309      15.122   6.920  -0.895  0.50 40.04 LIG 0.20  C 
ATOM     26 OXT  PRO C 309      14.872   7.529   0.149  0.50 40.10 LIG-0.65  OA
ATOM     27 O    PRO C 309      16.252   6.445  -1.026  0.50 40.34 LIG-0.65  OA
ENDBRANCH 21 25
ENDBRANCH 17 18
BRANCH 17 28
ATOM     28  CB  SER C 308      16.421   9.858  -5.066  0.50 39.49 LIG 0.20  C 
BRANCH 28 29
ATOM     29 OG   SER C 308      16.331  10.600  -6.274  0.50 39.70 LIG-0.40  OA
ATOM     30 HG   SER C 308      16.945  10.364  -6.795  0.50 39.70 LIG 0.21  HD
ENDBRANCH 28 29
ENDBRANCH 17 28
ENDBRANCH 14 17
ENDBRANCH 12 13
BRANCH 12 31
ATOM     31  CB  ILE C 307      11.848  10.532  -7.560  0.50 37.20 LIG 0.01  C 
ATOM     32  CG2 ILE C 307      10.930  10.076  -8.703  0.50 36.86 LIG 0.01  C 
BRANCH 31 33
ATOM     33  CG1 ILE C 307      11.472  11.916  -7.002  0.50 35.88 LIG 0.00  C 
ATOM     34  CD1 ILE C 307      10.020  12.302  -7.152  0.50 32.01 LIG 0.01  C 
ENDBRANCH 31 33
ENDBRANCH 12 31
ENDBRANCH 9 12
ENDBRANCH 4 8
BRANCH 1 35
ATOM     35  CA  PHE C 305       9.020   7.117  -0.858  0.50 34.47 LIG 0.18  C 
BRANCH 35 36
ATOM     36  CB  PHE C 305       9.379   7.346   0.618  0.50 34.49 LIG 0.07  C 
BRANCH 36 37
ATOM     37  CG  PHE C 305       9.274   6.117   1.505  0.50 35.55 LIG-0.06  A 
ATOM     38  CD1 PHE C 305       8.375   5.086   1.229  0.50 36.28 LIG 0.01  A 
ATOM     39  CE1 PHE C 305       8.300   3.963   2.058  0.50 36.66 LIG 0.00  A 
ATOM     40  CZ  PHE C 305       9.120   3.867   3.186  0.50 36.87 LIG 0.00  A 
ATOM     41  CE2 PHE C 305      10.012   4.884   3.475  0.50 36.76 LIG 0.00  A 
ATOM     42  CD2 PHE C 305      10.081   6.010   2.639  0.50 36.02 LIG 0.01  A 
ENDBRANCH 36 37
ENDBRANCH 35 36
BRANCH 35 43
ATOM     43  N   PHE C 305       9.923   6.101  -1.411  0.50 33.54 LIG-0.35  N 
ATOM     44 H    PHE C 305      10.594   5.904  -0.910  0.50 33.54 LIG 0.16  HD
ATOM     45  C   ASN C 304       9.686   5.551  -2.602  0.50 33.07 LIG 0.24  C 
ATOM     46 O    ASN C 304       8.950   6.077  -3.445  0.50 33.39 LIG-0.27  OA
BRANCH 45 47
ATOM     47  CA  ASN C 304      10.371   4.206  -2.880  0.50 32.40 LIG 0.18  C 
BRANCH 47 48
ATOM     48  CB  ASN C 304       9.650   3.370  -3.949  0.50 32.38 LIG 0.14  C 
BRANCH 48 49
ATOM     49  CG  ASN C 304      10.581   2.933  -5.108  0.50 31.77 LIG 0.22  C 
ATOM     50 OD1  ASN C 304      11.712   2.513  -4.891  0.50 27.48 LIG-0.27  OA
ATOM     51  ND2 ASN C 304      10.106   3.081  -6.338  0.50 32.56 LIG-0.37  N 
ATOM     52 21HD ASN C 304      10.596   2.879  -7.016  0.50 32.56 LIG 0.16  HD
ATOM     53 22HD ASN C 304       9.308   3.378  -6.458  0.50 32.56 LIG 0.16  HD
ENDBRANCH 48 49
ENDBRANCH 47 48
BRANCH 47 54
ATOM     54  N   ASN C 304      10.465   3.429  -1.668  0.50 31.56 LIG-0.34  N 
ATOM     55  C   LEU C 303      11.370   2.468  -1.551  0.50 30.83 LIG 0.26  C 
ATOM     56 O    LEU C 303      12.289   2.332  -2.346  0.50 29.02 LIG-0.27  OA
ATOM     57 H    ASN C 304       9.899   3.642  -1.057  0.50 31.56 LIG 0.16  HD
BRANCH 55 58
ATOM     58  CA  LEU C 303      11.200   1.534  -0.346  0.50 30.56 LIG 0.40  C 
ATOM     59  N   LEU C 303      12.224   0.456  -0.274  0.50 30.88 LIG 0.61  N 
BRANCH 58 60
ATOM     60  CB  LEU C 303      11.173   2.327   0.967  0.50 30.80 LIG 0.06  C 
BRANCH 60 61
ATOM     61  CG  LEU C 303      12.311   2.093   1.968  0.50 30.92 LIG-0.02  C 
ATOM     62  CD2 LEU C 303      11.848   1.179   3.118  0.50 31.43 LIG 0.01  C 
ATOM     63  CD1 LEU C 303      12.871   3.406   2.486  0.50 30.50 LIG 0.01  C 
ENDBRANCH 60 61
ENDBRANCH 58 60
ENDBRANCH 55 58
ENDBRANCH 47 54
ENDBRANCH 45 47
ENDBRANCH 35 43
ENDBRANCH 1 35
TORSDOF 21
ENDMDL
MODEL 103
USER: ADFR SOLUTION from run 166
USER: SCORE 17.501138 LL:  -5.844 LR: -13.020 RR:   0.000 FEB:  -6.756
USER: RMSD 12.773821
USER: SEED 165
USER: STATUS no improvement in best in 51 clusters for 5 generations
USER: GENES 23
USER: genes 0 Translation |==|  0.46250 0.82923 0.60955
USER: genes 1 Rotation |==|  0.10491 0.51197 0.78994 0.59846
USER: genes 2 Torsion [N]-CA--C-[N] |==|  0.94317
USER: genes 3 Torsion [C]-N--CA-[C] |==|  0.73132
USER: genes 4 Torsion [N]-CA--C-[N] |==|  0.92819
USER: genes 5 Torsion [C]-N--CA-[CB] |==|  0.53069
USER: genes 6 Torsion [N]-CA--C-[N] |==|  0.31890
USER: genes 7 Torsion [N]-CA--C-[OXT] |==|  0.30256
USER: genes 8 Torsion [N]-CA--CB-[OG] |==|  0.75531
USER: genes 9 Torsion [CA]-CB--OG-[HG] |==|  0.41828
USER: genes 10 Torsion [N]-CA--CB-[CG2] |==|  0.13299
USER: genes 11 Torsion [CA]-CB--CG1-[CD1] |==|  0.18281
USER: genes 12 Torsion [N]-C--CA-[N] |==|  0.13837
USER: genes 13 Torsion [C]-CA--CB-[CG] |==|  0.57446
USER: genes 14 Torsion [CA]-CB--CG-[CD1] |==|  0.82962
USER: genes 15 Torsion [C]-CA--N-[C] |==|  0.67778
USER: genes 16 Torsion [N]-C--CA-[N] |==|  0.06098
USER: genes 17 Torsion [C]-CA--CB-[CG] |==|  0.56574
USER: genes 18 Torsion [CA]-CB--CG-[OD1] |==|  0.80863
USER: genes 19 Torsion [C]-CA--N-[C] |==|  0.68459
USER: genes 20 Torsion [N]-C--CA-[N] |==|  0.07155
USER: genes 21 Torsion [C]-CA--CB-[CG] |==|  0.87481
USER: genes 22 Torsion [CA]-CB--CG-[CD2] |==|  0.82268
ROOT
ATOM      1  C   PHE C 305      12.436  14.733   1.944  0.50 34.66 LIG 0.24  C 
ATOM      2 O    PHE C 305      13.347  15.505   1.664  0.50 33.80 LIG-0.27  OA
ATOM      3  N   PRO C 306      11.512  15.022   2.881  0.50 35.29 LIG-0.34  N 
ATOM      4  CA  PRO C 306      11.825  15.990   3.920  0.50 35.79 LIG 0.18  C 
ATOM      5  CB  PRO C 306      10.455  16.636   4.229  0.50 35.80 LIG 0.04  C 
ATOM      6  CG  PRO C 306       9.425  15.831   3.428  0.50 35.25 LIG 0.02  C 
ATOM      7  CD  PRO C 306      10.117  14.568   2.996  0.50 35.51 LIG 0.13  C 
ENDROOT
BRANCH 4 8
ATOM      8  C   PRO C 306      12.334  15.276   5.174  0.50 36.50 LIG 0.24  C 
ATOM      9  N   ILE C 307      12.012  13.976   5.280  0.50 37.01 LIG-0.35  N 
ATOM     10 H    ILE C 307      11.503  13.549   4.735  0.50 37.01 LIG 0.16  HD
ATOM     11 O    PRO C 306      13.017  15.896   6.020  0.50 36.74 LIG-0.27  OA
BRANCH 9 12
ATOM     12  CA  ILE C 307      12.542  13.182   6.390  0.50 37.44 LIG 0.18  C 
BRANCH 12 13
ATOM     13  C   ILE C 307      13.792  12.389   6.002  0.50 38.23 LIG 0.24  C 
ATOM     14  N   SER C 308      13.891  12.098   4.708  0.50 38.91 LIG-0.34  N 
ATOM     15 H    SER C 308      13.249  12.226   4.150  0.50 38.91 LIG 0.16  HD
ATOM     16 O    ILE C 307      14.638  12.065   6.849  0.50 38.79 LIG-0.27  OA
BRANCH 14 17
ATOM     17  CA  SER C 308      15.089  11.533   4.095  0.50 39.43 LIG 0.20  C 
BRANCH 17 18
ATOM     18  C   SER C 308      16.255  12.399   4.575  0.50 39.77 LIG 0.24  C 
ATOM     19  N   PRO C 309      17.177  11.817   5.363  0.50 40.03 LIG-0.34  N 
ATOM     20  CD  PRO C 309      17.431  10.379   5.548  0.50 39.83 LIG 0.13  C 
ATOM     21  CA  PRO C 309      18.112  12.641   6.131  0.50 40.09 LIG 0.19  C 
ATOM     22  CG  PRO C 309      18.262  10.343   6.792  0.50 40.19 LIG 0.02  C 
ATOM     23  CB  PRO C 309      19.062  11.609   6.753  0.50 40.09 LIG 0.04  C 
ATOM     24 O    SER C 308      16.336  13.581   4.228  0.50 39.81 LIG-0.27  OA
BRANCH 21 25
ATOM     25  C   PRO C 309      18.874  13.652   5.275  0.50 40.04 LIG 0.20  C 
ATOM     26 OXT  PRO C 309      18.641  14.862   5.344  0.50 40.10 LIG-0.65  OA
ATOM     27 O    PRO C 309      19.739  13.278   4.479  0.50 40.34 LIG-0.65  OA
ENDBRANCH 21 25
ENDBRANCH 17 18
BRANCH 17 28
ATOM     28  CB  SER C 308      14.990  11.566   2.568  0.50 39.49 LIG 0.20  C 
BRANCH 28 29
ATOM     29 OG   SER C 308      14.357  10.400   2.063  0.50 39.70 LIG-0.40  OA
ATOM     30 HG   SER C 308      13.959  10.584   1.346  0.50 39.70 LIG 0.21  HD
ENDBRANCH 28 29
ENDBRANCH 17 28
ENDBRANCH 14 17
ENDBRANCH 12 13
BRANCH 12 31
ATOM     31  CB  ILE C 307      11.501  12.181   6.948  0.50 37.20 LIG 0.01  C 
ATOM     32  CG2 ILE C 307      10.829  11.398   5.809  0.50 36.86 LIG 0.01  C 
BRANCH 31 33
ATOM     33  CG1 ILE C 307      12.173  11.268   7.989  0.50 35.88 LIG 0.00  C 
ATOM     34  CD1 ILE C 307      12.646  11.958   9.245  0.50 32.01 LIG 0.01  C 
ENDBRANCH 31 33
ENDBRANCH 12 31
ENDBRANCH 9 12
ENDBRANCH 4 8
BRANCH 1 35
ATOM     35  CA  PHE C 305      12.303  13.405   1.187  0.50 34.47 LIG 0.18  C 
BRANCH 35 36
ATOM     36  CB  PHE C 305      13.324  13.428   0.040  0.50 34.49 LIG 0.07  C 
BRANCH 36 37
ATOM     37  CG  PHE C 305      12.961  12.574  -1.164  0.50 35.55 LIG-0.06  A 
ATOM     38  CD1 PHE C 305      12.799  11.193  -1.063  0.50 36.28 LIG 0.01  A 
ATOM     39  CE1 PHE C 305      12.461  10.428  -2.183  0.50 36.66 LIG 0.00  A 
ATOM     40  CZ  PHE C 305      12.294  11.044  -3.427  0.50 36.87 LIG 0.00  A 
ATOM     41  CE2 PHE C 305      12.455  12.413  -3.544  0.50 36.76 LIG 0.00  A 
ATOM     42  CD2 PHE C 305      12.797  13.173  -2.414  0.50 36.02 LIG 0.01  A 
ENDBRANCH 36 37
ENDBRANCH 35 36
BRANCH 35 43
ATOM     43  N   PHE C 305      10.971  13.144   0.628  0.50 33.54 LIG-0.35  N 
ATOM     44 H    PHE C 305      10.720  13.700   0.021  0.50 33.54 LIG 0.16  HD
ATOM     45  C   ASN C 304      10.240  12.115   1.056  0.50 33.07 LIG 0.24  C 
ATOM     46 O    ASN C 304      10.445  11.556   2.140  0.50 33.39 LIG-0.27  OA
BRANCH 45 47
ATOM     47  CA  ASN C 304       9.118  11.640   0.122  0.50 32.40 LIG 0.18  C 
BRANCH 47 48
ATOM     48  CB  ASN C 304       8.917  10.117   0.146  0.50 32.38 LIG 0.14  C 
BRANCH 48 49
ATOM     49  CG  ASN C 304       8.252   9.573  -1.144  0.50 31.77 LIG 0.22  C 
ATOM     50 OD1  ASN C 304       7.081   9.823  -1.409  0.50 27.48 LIG-0.27  OA
ATOM     51  ND2 ASN C 304       9.000   8.792  -1.912  0.50 32.56 LIG-0.37  N 
ATOM     52 21HD ASN C 304       8.666   8.441  -2.624  0.50 32.56 LIG 0.16  HD
ATOM     53 22HD ASN C 304       9.818   8.635  -1.699  0.50 32.56 LIG 0.16  HD
ENDBRANCH 48 49
ENDBRANCH 47 48
BRANCH 47 54
ATOM     54  N   ASN C 304       9.386  12.052  -1.235  0.50 31.56 LIG-0.34  N 
ATOM     55  C   LEU C 303       8.607  12.938  -1.837  0.50 30.83 LIG 0.26  C 
ATOM     56 O    LEU C 303       7.775  13.599  -1.232  0.50 29.02 LIG-0.27  OA
ATOM     57 H    ASN C 304      10.072  11.682  -1.598  0.50 31.56 LIG 0.16  HD
BRANCH 55 58
ATOM     58  CA  LEU C 303       8.814  13.092  -3.349  0.50 30.56 LIG 0.40  C 
ATOM     59  N   LEU C 303       9.374  11.879  -4.005  0.50 30.88 LIG 0.61  N 
BRANCH 58 60
ATOM     60  CB  LEU C 303       7.514  13.517  -4.043  0.50 30.80 LIG 0.06  C 
BRANCH 60 61
ATOM     61  CG  LEU C 303       6.222  12.791  -3.649  0.50 30.92 LIG-0.02  C 
ATOM     62  CD2 LEU C 303       6.296  11.299  -4.024  0.50 31.43 LIG 0.01  C 
ATOM     63  CD1 LEU C 303       5.002  13.462  -4.256  0.50 30.50 LIG 0.01  C 
ENDBRANCH 60 61
ENDBRANCH 58 60
ENDBRANCH 55 58
ENDBRANCH 47 54
ENDBRANCH 45 47
ENDBRANCH 35 43
ENDBRANCH 1 35
TORSDOF 21
ENDMDL
MODEL 104
USER: ADFR SOLUTION from run 51
USER: SCORE 17.396856 LL:  -6.381 LR: -13.018 RR:   0.000 FEB:  -6.754
USER: RMSD 7.781555
USER: SEED 50
USER: STATUS no improvement in best in 28 clusters for 5 generations
USER: GENES 23
USER: genes 0 Translation |==|  0.42525 0.49489 0.28859
USER: genes 1 Rotation |==|  0.73646 0.88175 0.65236 0.65856
USER: genes 2 Torsion [N]-CA--C-[N] |==|  0.18182
USER: genes 3 Torsion [C]-N--CA-[C] |==|  0.61858
USER: genes 4 Torsion [N]-CA--C-[N] |==|  0.41308
USER: genes 5 Torsion [C]-N--CA-[CB] |==|  0.41107
USER: genes 6 Torsion [N]-CA--C-[N] |==|  0.22947
USER: genes 7 Torsion [N]-CA--C-[OXT] |==|  0.26438
USER: genes 8 Torsion [N]-CA--CB-[OG] |==|  0.01617
USER: genes 9 Torsion [CA]-CB--OG-[HG] |==|  0.10289
USER: genes 10 Torsion [N]-CA--CB-[CG2] |==|  0.37830
USER: genes 11 Torsion [CA]-CB--CG1-[CD1] |==|  0.64428
USER: genes 12 Torsion [N]-C--CA-[N] |==|  0.90915
USER: genes 13 Torsion [C]-CA--CB-[CG] |==|  0.08160
USER: genes 14 Torsion [CA]-CB--CG-[CD1] |==|  0.72593
USER: genes 15 Torsion [C]-CA--N-[C] |==|  0.80343
USER: genes 16 Torsion [N]-C--CA-[N] |==|  0.48031
USER: genes 17 Torsion [C]-CA--CB-[CG] |==|  0.41617
USER: genes 18 Torsion [CA]-CB--CG-[OD1] |==|  0.01085
USER: genes 19 Torsion [C]-CA--N-[C] |==|  0.76668
USER: genes 20 Torsion [N]-C--CA-[N] |==|  0.60136
USER: genes 21 Torsion [C]-CA--CB-[CG] |==|  0.46327
USER: genes 22 Torsion [CA]-CB--CG-[CD2] |==|  0.56173
ROOT
ATOM      1  C   PHE C 305      11.486   6.708  -4.555  0.50 34.66 LIG 0.24  C 
ATOM      2 O    PHE C 305      10.393   6.950  -5.059  0.50 33.80 LIG-0.27  OA
ATOM      3  N   PRO C 306      12.268   5.700  -4.986  0.50 35.29 LIG-0.34  N 
ATOM      4  CA  PRO C 306      11.667   4.580  -5.693  0.50 35.79 LIG 0.18  C 
ATOM      5  CB  PRO C 306      12.783   4.134  -6.666  0.50 35.80 LIG 0.04  C 
ATOM      6  CG  PRO C 306      14.017   4.963  -6.292  0.50 35.25 LIG 0.02  C 
ATOM      7  CD  PRO C 306      13.732   5.563  -4.943  0.50 35.51 LIG 0.13  C 
ENDROOT
BRANCH 4 8
ATOM      8  C   PRO C 306      11.368   3.438  -4.720  0.50 36.50 LIG 0.24  C 
ATOM      9  N   ILE C 307      10.438   3.693  -3.784  0.50 37.01 LIG-0.35  N 
ATOM     10 H    ILE C 307      10.058   4.455  -3.664  0.50 37.01 LIG 0.16  HD
ATOM     11 O    PRO C 306      11.963   2.343  -4.830  0.50 36.74 LIG-0.27  OA
BRANCH 9 12
ATOM     12  CA  ILE C 307      10.007   2.630  -2.875  0.50 37.44 LIG 0.18  C 
BRANCH 12 13
ATOM     13  C   ILE C 307       8.492   2.616  -2.662  0.50 38.23 LIG 0.24  C 
ATOM     14  N   SER C 308       7.970   1.414  -2.437  0.50 38.91 LIG-0.34  N 
ATOM     15 H    SER C 308       8.417   0.685  -2.531  0.50 38.91 LIG 0.16  HD
ATOM     16 O    ILE C 307       7.827   3.662  -2.693  0.50 38.79 LIG-0.27  OA
BRANCH 14 17
ATOM     17  CA  SER C 308       6.590   1.197  -2.011  0.50 39.43 LIG 0.20  C 
BRANCH 17 18
ATOM     18  C   SER C 308       6.624   1.161  -0.481  0.50 39.77 LIG 0.24  C 
ATOM     19  N   PRO C 309       6.616   2.340   0.166  0.50 40.03 LIG-0.34  N 
ATOM     20  CD  PRO C 309       6.221   3.658  -0.357  0.50 39.83 LIG 0.13  C 
ATOM     21  CA  PRO C 309       6.990   2.403   1.581  0.50 40.09 LIG 0.19  C 
ATOM     22  CG  PRO C 309       6.785   4.604   0.656  0.50 40.19 LIG 0.02  C 
ATOM     23  CB  PRO C 309       6.704   3.863   1.956  0.50 40.09 LIG 0.04  C 
ATOM     24 O    SER C 308       6.642   0.081   0.115  0.50 39.81 LIG-0.27  OA
BRANCH 21 25
ATOM     25  C   PRO C 309       6.196   1.438   2.461  0.50 40.04 LIG 0.20  C 
ATOM     26 OXT  PRO C 309       6.632   0.320   2.750  0.50 40.10 LIG-0.65  OA
ATOM     27 O    PRO C 309       5.086   1.751   2.897  0.50 40.34 LIG-0.65  OA
ENDBRANCH 21 25
ENDBRANCH 17 18
BRANCH 17 28
ATOM     28  CB  SER C 308       6.047  -0.122  -2.565  0.50 39.49 LIG 0.20  C 
BRANCH 28 29
ATOM     29 OG   SER C 308       7.058  -0.859  -3.238  0.50 39.70 LIG-0.40  OA
ATOM     30 HG   SER C 308       7.788  -0.766  -2.833  0.50 39.70 LIG 0.21  HD
ENDBRANCH 28 29
ENDBRANCH 17 28
ENDBRANCH 14 17
ENDBRANCH 12 13
BRANCH 12 31
ATOM     31  CB  ILE C 307      10.679   2.735  -1.484  0.50 37.20 LIG 0.01  C 
ATOM     32  CG2 ILE C 307       9.655   2.504  -0.363  0.50 36.86 LIG 0.01  C 
BRANCH 31 33
ATOM     33  CG1 ILE C 307      11.873   1.767  -1.417  0.50 35.88 LIG 0.00  C 
ATOM     34  CD1 ILE C 307      11.885   0.834  -0.231  0.50 32.01 LIG 0.01  C 
ENDBRANCH 31 33
ENDBRANCH 12 31
ENDBRANCH 9 12
ENDBRANCH 4 8
BRANCH 1 35
ATOM     35  CA  PHE C 305      12.014   7.596  -3.421  0.50 34.47 LIG 0.18  C 
BRANCH 35 36
ATOM     36  CB  PHE C 305      12.818   8.735  -4.068  0.50 34.49 LIG 0.07  C 
BRANCH 36 37
ATOM     37  CG  PHE C 305      12.358   9.138  -5.460  0.50 35.55 LIG-0.06  A 
ATOM     38  CD1 PHE C 305      12.996   8.673  -6.609  0.50 36.28 LIG 0.01  A 
ATOM     39  CE1 PHE C 305      12.552   9.055  -7.878  0.50 36.66 LIG 0.00  A 
ATOM     40  CZ  PHE C 305      11.465   9.924  -8.008  0.50 36.87 LIG 0.00  A 
ATOM     41  CE2 PHE C 305      10.825  10.397  -6.877  0.50 36.76 LIG 0.00  A 
ATOM     42  CD2 PHE C 305      11.278  10.011  -5.606  0.50 36.02 LIG 0.01  A 
ENDBRANCH 36 37
ENDBRANCH 35 36
BRANCH 35 43
ATOM     43  N   PHE C 305      12.869   6.909  -2.447  0.50 33.54 LIG-0.35  N 
ATOM     44 H    PHE C 305      13.702   7.125  -2.482  0.50 33.54 LIG 0.16  HD
ATOM     45  C   ASN C 304      12.356   6.026  -1.589  0.50 33.07 LIG 0.24  C 
ATOM     46 O    ASN C 304      11.266   5.474  -1.774  0.50 33.39 LIG-0.27  OA
BRANCH 45 47
ATOM     47  CA  ASN C 304      13.190   5.730  -0.335  0.50 32.40 LIG 0.18  C 
BRANCH 47 48
ATOM     48  CB  ASN C 304      14.532   5.051  -0.649  0.50 32.38 LIG 0.14  C 
BRANCH 48 49
ATOM     49  CG  ASN C 304      15.642   5.399   0.374  0.50 31.77 LIG 0.22  C 
ATOM     50 OD1  ASN C 304      15.405   6.088   1.360  0.50 27.48 LIG-0.27  OA
ATOM     51  ND2 ASN C 304      16.862   4.952   0.101  0.50 32.56 LIG-0.37  N 
ATOM     52 21HD ASN C 304      17.517   5.144   0.624  0.50 32.56 LIG 0.16  HD
ATOM     53 22HD ASN C 304      16.996   4.470  -0.599  0.50 32.56 LIG 0.16  HD
ENDBRANCH 48 49
ENDBRANCH 47 48
BRANCH 47 54
ATOM     54  N   ASN C 304      12.448   4.893   0.576  0.50 31.56 LIG-0.34  N 
ATOM     55  C   LEU C 303      11.583   5.423   1.427  0.50 30.83 LIG 0.26  C 
ATOM     56 O    LEU C 303      11.213   6.586   1.348  0.50 29.02 LIG-0.27  OA
ATOM     57 H    ASN C 304      12.616   4.051   0.513  0.50 31.56 LIG 0.16  HD
BRANCH 55 58
ATOM     58  CA  LEU C 303      11.063   4.485   2.524  0.50 30.56 LIG 0.40  C 
ATOM     59  N   LEU C 303       9.634   4.705   2.875  0.50 30.88 LIG 0.61  N 
BRANCH 58 60
ATOM     60  CB  LEU C 303      11.295   3.016   2.148  0.50 30.80 LIG 0.06  C 
BRANCH 60 61
ATOM     61  CG  LEU C 303      11.125   1.960   3.247  0.50 30.92 LIG-0.02  C 
ATOM     62  CD2 LEU C 303      11.897   0.675   2.895  0.50 31.43 LIG 0.01  C 
ATOM     63  CD1 LEU C 303       9.658   1.678   3.520  0.50 30.50 LIG 0.01  C 
ENDBRANCH 60 61
ENDBRANCH 58 60
ENDBRANCH 55 58
ENDBRANCH 47 54
ENDBRANCH 45 47
ENDBRANCH 35 43
ENDBRANCH 1 35
TORSDOF 21
ENDMDL
MODEL 105
USER: ADFR SOLUTION from run 79
USER: SCORE 17.555614 LL:  -5.509 LR: -13.016 RR:   0.000 FEB:  -6.752
USER: RMSD 7.567597
USER: SEED 78
USER: STATUS searching
USER: GENES 23
USER: genes 0 Translation |==|  0.37099 0.46109 0.28049
USER: genes 1 Rotation |==|  0.64723 0.96490 0.48237 0.60901
USER: genes 2 Torsion [N]-CA--C-[N] |==|  0.06509
USER: genes 3 Torsion [C]-N--CA-[C] |==|  0.70660
USER: genes 4 Torsion [N]-CA--C-[N] |==|  0.04959
USER: genes 5 Torsion [C]-N--CA-[CB] |==|  0.52540
USER: genes 6 Torsion [N]-CA--C-[N] |==|  0.42304
USER: genes 7 Torsion [N]-CA--C-[OXT] |==|  0.41852
USER: genes 8 Torsion [N]-CA--CB-[OG] |==|  0.91803
USER: genes 9 Torsion [CA]-CB--OG-[HG] |==|  0.64831
USER: genes 10 Torsion [N]-CA--CB-[CG2] |==|  0.56906
USER: genes 11 Torsion [CA]-CB--CG1-[CD1] |==|  0.61035
USER: genes 12 Torsion [N]-C--CA-[N] |==|  0.02629
USER: genes 13 Torsion [C]-CA--CB-[CG] |==|  0.58242
USER: genes 14 Torsion [CA]-CB--CG-[CD1] |==|  0.23589
USER: genes 15 Torsion [C]-CA--N-[C] |==|  0.63006
USER: genes 16 Torsion [N]-C--CA-[N] |==|  0.46845
USER: genes 17 Torsion [C]-CA--CB-[CG] |==|  0.25177
USER: genes 18 Torsion [CA]-CB--CG-[OD1] |==|  0.63431
USER: genes 19 Torsion [C]-CA--N-[C] |==|  0.54463
USER: genes 20 Torsion [N]-C--CA-[N] |==|  0.82450
USER: genes 21 Torsion [C]-CA--CB-[CG] |==|  0.02419
USER: genes 22 Torsion [CA]-CB--CG-[CD2] |==|  0.65245
ROOT
ATOM      1  C   PHE C 305      10.102   5.897  -4.719  0.50 34.66 LIG 0.24  C 
ATOM      2 O    PHE C 305       8.904   5.647  -4.627  0.50 33.80 LIG-0.27  OA
ATOM      3  N   PRO C 306      11.026   4.932  -4.896  0.50 35.29 LIG-0.34  N 
ATOM      4  CA  PRO C 306      10.722   3.568  -4.493  0.50 35.79 LIG 0.18  C 
ATOM      5  CB  PRO C 306      11.522   2.713  -5.503  0.50 35.80 LIG 0.04  C 
ATOM      6  CG  PRO C 306      12.369   3.705  -6.309  0.50 35.25 LIG 0.02  C 
ATOM      7  CD  PRO C 306      12.343   5.001  -5.549  0.50 35.51 LIG 0.13  C 
ENDROOT
BRANCH 4 8
ATOM      8  C   PRO C 306      11.252   3.301  -3.083  0.50 36.50 LIG 0.24  C 
ATOM      9  N   ILE C 307      11.427   4.384  -2.307  0.50 37.01 LIG-0.35  N 
ATOM     10 H    ILE C 307      11.319   5.197  -2.566  0.50 37.01 LIG 0.16  HD
ATOM     11 O    PRO C 306      11.485   2.130  -2.708  0.50 36.74 LIG-0.27  OA
BRANCH 9 12
ATOM     12  CA  ILE C 307      11.829   4.223  -0.909  0.50 37.44 LIG 0.18  C 
BRANCH 12 13
ATOM     13  C   ILE C 307      10.679   4.481   0.068  0.50 38.23 LIG 0.24  C 
ATOM     14  N   SER C 308       9.465   4.436  -0.473  0.50 38.91 LIG-0.34  N 
ATOM     15 H    SER C 308       9.333   4.395  -1.323  0.50 38.91 LIG 0.16  HD
ATOM     16 O    ILE C 307      10.891   4.703   1.269  0.50 38.79 LIG-0.27  OA
BRANCH 14 17
ATOM     17  CA  SER C 308       8.230   4.451   0.306  0.50 39.43 LIG 0.20  C 
BRANCH 17 18
ATOM     18  C   SER C 308       8.389   3.358   1.366  0.50 39.77 LIG 0.24  C 
ATOM     19  N   PRO C 309       7.717   3.512   2.520  0.50 40.03 LIG-0.34  N 
ATOM     20  CD  PRO C 309       6.570   4.393   2.789  0.50 39.83 LIG 0.13  C 
ATOM     21  CA  PRO C 309       8.079   2.711   3.692  0.50 40.09 LIG 0.19  C 
ATOM     22  CG  PRO C 309       6.520   4.431   4.285  0.50 40.19 LIG 0.02  C 
ATOM     23  CB  PRO C 309       6.997   3.077   4.716  0.50 40.09 LIG 0.04  C 
ATOM     24 O    SER C 308       9.099   2.373   1.142  0.50 39.81 LIG-0.27  OA
BRANCH 21 25
ATOM     25  C   PRO C 309       8.095   1.207   3.416  0.50 40.04 LIG 0.20  C 
ATOM     26 OXT  PRO C 309       8.841   0.446   4.038  0.50 40.10 LIG-0.65  OA
ATOM     27 O    PRO C 309       7.366   0.717   2.551  0.50 40.34 LIG-0.65  OA
ENDBRANCH 21 25
ENDBRANCH 17 18
BRANCH 17 28
ATOM     28  CB  SER C 308       7.018   4.162  -0.583  0.50 39.49 LIG 0.20  C 
BRANCH 28 29
ATOM     29 OG   SER C 308       7.234   4.606  -1.915  0.50 39.70 LIG-0.40  OA
ATOM     30 HG   SER C 308       6.602   5.107  -2.150  0.50 39.70 LIG 0.21  HD
ENDBRANCH 28 29
ENDBRANCH 17 28
ENDBRANCH 14 17
ENDBRANCH 12 13
BRANCH 12 31
ATOM     31  CB  ILE C 307      12.999   5.159  -0.520  0.50 37.20 LIG 0.01  C 
ATOM     32  CG2 ILE C 307      13.789   4.584   0.665  0.50 36.86 LIG 0.01  C 
BRANCH 31 33
ATOM     33  CG1 ILE C 307      13.876   5.422  -1.756  0.50 35.88 LIG 0.00  C 
ATOM     34  CD1 ILE C 307      15.364   5.449  -1.501  0.50 32.01 LIG 0.01  C 
ENDBRANCH 31 33
ENDBRANCH 12 31
ENDBRANCH 9 12
ENDBRANCH 4 8
BRANCH 1 35
ATOM     35  CA  PHE C 305      10.581   7.354  -4.673  0.50 34.47 LIG 0.18  C 
BRANCH 35 36
ATOM     36  CB  PHE C 305       9.696   8.158  -5.637  0.50 34.49 LIG 0.07  C 
BRANCH 36 37
ATOM     37  CG  PHE C 305      10.368   9.362  -6.276  0.50 35.55 LIG-0.06  A 
ATOM     38  CD1 PHE C 305      11.142   9.245  -7.430  0.50 36.28 LIG 0.01  A 
ATOM     39  CE1 PHE C 305      11.747  10.368  -8.002  0.50 36.66 LIG 0.00  A 
ATOM     40  CZ  PHE C 305      11.593  11.625  -7.410  0.50 36.87 LIG 0.00  A 
ATOM     41  CE2 PHE C 305      10.831  11.756  -6.263  0.50 36.76 LIG 0.00  A 
ATOM     42  CD2 PHE C 305      10.229  10.623  -5.694  0.50 36.02 LIG 0.01  A 
ENDBRANCH 36 37
ENDBRANCH 35 36
BRANCH 35 43
ATOM     43  N   PHE C 305      11.987   7.553  -5.045  0.50 33.54 LIG-0.35  N 
ATOM     44 H    PHE C 305      12.231   7.144  -5.762  0.50 33.54 LIG 0.16  HD
ATOM     45  C   ASN C 304      12.789   8.317  -4.303  0.50 33.07 LIG 0.24  C 
ATOM     46 O    ASN C 304      12.539   8.599  -3.125  0.50 33.39 LIG-0.27  OA
BRANCH 45 47
ATOM     47  CA  ASN C 304      14.053   8.849  -4.992  0.50 32.40 LIG 0.18  C 
BRANCH 47 48
ATOM     48  CB  ASN C 304      15.082   7.750  -5.299  0.50 32.38 LIG 0.14  C 
BRANCH 48 49
ATOM     49  CG  ASN C 304      14.892   7.116  -6.700  0.50 31.77 LIG 0.22  C 
ATOM     50 OD1  ASN C 304      14.876   5.899  -6.850  0.50 27.48 LIG-0.27  OA
ATOM     51  ND2 ASN C 304      14.795   7.956  -7.723  0.50 32.56 LIG-0.37  N 
ATOM     52 21HD ASN C 304      14.718   7.651  -8.524  0.50 32.56 LIG 0.16  HD
ATOM     53 22HD ASN C 304      14.809   8.805  -7.585  0.50 32.56 LIG 0.16  HD
ENDBRANCH 48 49
ENDBRANCH 47 48
BRANCH 47 54
ATOM     54  N   ASN C 304      14.682   9.860  -4.177  0.50 31.56 LIG-0.34  N 
ATOM     55  C   LEU C 303      15.590  10.675  -4.694  0.50 30.83 LIG 0.26  C 
ATOM     56 O    LEU C 303      15.783  10.762  -5.899  0.50 29.02 LIG-0.27  OA
ATOM     57 H    ASN C 304      14.421   9.880  -3.358  0.50 31.56 LIG 0.16  HD
BRANCH 55 58
ATOM     58  CA  LEU C 303      16.386  11.514  -3.687  0.50 30.56 LIG 0.40  C 
ATOM     59  N   LEU C 303      15.550  12.467  -2.906  0.50 30.88 LIG 0.61  N 
BRANCH 58 60
ATOM     60  CB  LEU C 303      17.193  10.619  -2.739  0.50 30.80 LIG 0.06  C 
BRANCH 60 61
ATOM     61  CG  LEU C 303      17.255   9.118  -3.051  0.50 30.92 LIG-0.02  C 
ATOM     62  CD2 LEU C 303      16.789   8.289  -1.840  0.50 31.43 LIG 0.01  C 
ATOM     63  CD1 LEU C 303      18.641   8.706  -3.515  0.50 30.50 LIG 0.01  C 
ENDBRANCH 60 61
ENDBRANCH 58 60
ENDBRANCH 55 58
ENDBRANCH 47 54
ENDBRANCH 45 47
ENDBRANCH 35 43
ENDBRANCH 1 35
TORSDOF 21
ENDMDL
MODEL 106
USER: ADFR SOLUTION from run 49
USER: SCORE 17.959273 LL:  -6.286 LR: -13.008 RR:   0.000 FEB:  -6.743
USER: RMSD 11.425927
USER: SEED 48
USER: STATUS no improvement in best in 24 clusters for 5 generations
USER: GENES 23
USER: genes 0 Translation |==|  0.57805 0.48650 0.55568
USER: genes 1 Rotation |==|  0.16286 0.77503 0.70525 0.63626
USER: genes 2 Torsion [N]-CA--C-[N] |==|  0.61815
USER: genes 3 Torsion [C]-N--CA-[C] |==|  0.81530
USER: genes 4 Torsion [N]-CA--C-[N] |==|  0.89696
USER: genes 5 Torsion [C]-N--CA-[CB] |==|  0.22004
USER: genes 6 Torsion [N]-CA--C-[N] |==|  0.80000
USER: genes 7 Torsion [N]-CA--C-[OXT] |==|  0.77112
USER: genes 8 Torsion [N]-CA--CB-[OG] |==|  0.86263
USER: genes 9 Torsion [CA]-CB--OG-[HG] |==|  0.84158
USER: genes 10 Torsion [N]-CA--CB-[CG2] |==|  0.84315
USER: genes 11 Torsion [CA]-CB--CG1-[CD1] |==|  0.58822
USER: genes 12 Torsion [N]-C--CA-[N] |==|  0.40395
USER: genes 13 Torsion [C]-CA--CB-[CG] |==|  0.25990
USER: genes 14 Torsion [CA]-CB--CG-[CD1] |==|  0.18643
USER: genes 15 Torsion [C]-CA--N-[C] |==|  0.80238
USER: genes 16 Torsion [N]-C--CA-[N] |==|  0.19260
USER: genes 17 Torsion [C]-CA--CB-[CG] |==|  0.42058
USER: genes 18 Torsion [CA]-CB--CG-[OD1] |==|  0.05144
USER: genes 19 Torsion [C]-CA--N-[C] |==|  0.62726
USER: genes 20 Torsion [N]-C--CA-[N] |==|  0.88706
USER: genes 21 Torsion [C]-CA--CB-[CG] |==|  0.93935
USER: genes 22 Torsion [CA]-CB--CG-[CD2] |==|  0.73802
ROOT
ATOM      1  C   PHE C 305      15.382   6.507   0.853  0.50 34.66 LIG 0.24  C 
ATOM      2 O    PHE C 305      16.393   5.952   0.434  0.50 33.80 LIG-0.27  OA
ATOM      3  N   PRO C 306      15.416   7.730   1.419  0.50 35.29 LIG-0.34  N 
ATOM      4  CA  PRO C 306      16.658   8.215   1.999  0.50 35.79 LIG 0.18  C 
ATOM      5  CB  PRO C 306      16.578   9.744   1.781  0.50 35.80 LIG 0.04  C 
ATOM      6  CG  PRO C 306      15.174  10.013   1.227  0.50 35.25 LIG 0.02  C 
ATOM      7  CD  PRO C 306      14.373   8.765   1.479  0.50 35.51 LIG 0.13  C 
ENDROOT
BRANCH 4 8
ATOM      8  C   PRO C 306      16.689   7.927   3.502  0.50 36.50 LIG 0.24  C 
ATOM      9  N   ILE C 307      17.154   8.919   4.280  0.50 37.01 LIG-0.35  N 
ATOM     10 H    ILE C 307      17.481   9.659   3.990  0.50 37.01 LIG 0.16  HD
ATOM     11 O    PRO C 306      16.286   6.827   3.941  0.50 36.74 LIG-0.27  OA
BRANCH 9 12
ATOM     12  CA  ILE C 307      17.124   8.778   5.736  0.50 37.44 LIG 0.18  C 
BRANCH 12 13
ATOM     13  C   ILE C 307      15.700   8.743   6.295  0.50 38.23 LIG 0.24  C 
ATOM     14  N   SER C 308      14.838   9.546   5.678  0.50 38.91 LIG-0.34  N 
ATOM     15 H    SER C 308      15.079  10.134   5.099  0.50 38.91 LIG 0.16  HD
ATOM     16 O    ILE C 307      15.398   8.006   7.244  0.50 38.79 LIG-0.27  OA
BRANCH 14 17
ATOM     17  CA  SER C 308      13.396   9.519   5.912  0.50 39.43 LIG 0.20  C 
BRANCH 17 18
ATOM     18  C   SER C 308      12.762  10.211   4.704  0.50 39.77 LIG 0.24  C 
ATOM     19  N   PRO C 309      12.909  11.544   4.605  0.50 40.03 LIG-0.34  N 
ATOM     20  CD  PRO C 309      13.888  12.401   5.293  0.50 39.83 LIG 0.13  C 
ATOM     21  CA  PRO C 309      12.059  12.310   3.690  0.50 40.09 LIG 0.19  C 
ATOM     22  CG  PRO C 309      13.323  13.774   5.105  0.50 40.19 LIG 0.02  C 
ATOM     23  CB  PRO C 309      12.643  13.726   3.770  0.50 40.09 LIG 0.04  C 
ATOM     24 O    SER C 308      12.157   9.549   3.855  0.50 39.81 LIG-0.27  OA
BRANCH 21 25
ATOM     25  C   PRO C 309      12.081  11.781   2.256  0.50 40.04 LIG 0.20  C 
ATOM     26 OXT  PRO C 309      12.982  12.087   1.470  0.50 40.10 LIG-0.65  OA
ATOM     27 O    PRO C 309      11.185  11.040   1.844  0.50 40.34 LIG-0.65  OA
ENDBRANCH 21 25
ENDBRANCH 17 18
BRANCH 17 28
ATOM     28  CB  SER C 308      13.038  10.260   7.203  0.50 39.49 LIG 0.20  C 
BRANCH 28 29
ATOM     29 OG   SER C 308      13.848   9.834   8.289  0.50 39.70 LIG-0.40  OA
ATOM     30 HG   SER C 308      13.768   9.004   8.389  0.50 39.70 LIG 0.21  HD
ENDBRANCH 28 29
ENDBRANCH 17 28
ENDBRANCH 14 17
ENDBRANCH 12 13
BRANCH 12 31
ATOM     31  CB  ILE C 307      17.886   9.919   6.454  0.50 37.20 LIG 0.01  C 
ATOM     32  CG2 ILE C 307      19.340   9.999   5.965  0.50 36.86 LIG 0.01  C 
BRANCH 31 33
ATOM     33  CG1 ILE C 307      17.118  11.240   6.276  0.50 35.88 LIG 0.00  C 
ATOM     34  CD1 ILE C 307      17.972  12.483   6.217  0.50 32.01 LIG 0.01  C 
ENDBRANCH 31 33
ENDBRANCH 12 31
ENDBRANCH 9 12
ENDBRANCH 4 8
BRANCH 1 35
ATOM     35  CA  PHE C 305      14.019   5.820   0.704  0.50 34.47 LIG 0.18  C 
BRANCH 35 36
ATOM     36  CB  PHE C 305      13.817   4.930   1.940  0.50 34.49 LIG 0.07  C 
BRANCH 36 37
ATOM     37  CG  PHE C 305      13.056   5.580   3.083  0.50 35.55 LIG-0.06  A 
ATOM     38  CD1 PHE C 305      11.707   5.915   2.972  0.50 36.28 LIG 0.01  A 
ATOM     39  CE1 PHE C 305      11.027   6.509   4.040  0.50 36.66 LIG 0.00  A 
ATOM     40  CZ  PHE C 305      11.701   6.787   5.233  0.50 36.87 LIG 0.00  A 
ATOM     41  CE2 PHE C 305      13.041   6.464   5.356  0.50 36.76 LIG 0.00  A 
ATOM     42  CD2 PHE C 305      13.717   5.870   4.278  0.50 36.02 LIG 0.01  A 
ENDBRANCH 36 37
ENDBRANCH 35 36
BRANCH 35 43
ATOM     43  N   PHE C 305      13.873   4.995  -0.501  0.50 33.54 LIG-0.35  N 
ATOM     44 H    PHE C 305      13.856   4.147  -0.357  0.50 33.54 LIG 0.16  HD
ATOM     45  C   ASN C 304      13.776   5.556  -1.707  0.50 33.07 LIG 0.24  C 
ATOM     46 O    ASN C 304      14.148   6.714  -1.935  0.50 33.39 LIG-0.27  OA
BRANCH 45 47
ATOM     47  CA  ASN C 304      13.161   4.691  -2.815  0.50 32.40 LIG 0.18  C 
BRANCH 47 48
ATOM     48  CB  ASN C 304      13.338   5.291  -4.218  0.50 32.38 LIG 0.14  C 
BRANCH 48 49
ATOM     49  CG  ASN C 304      13.392   4.217  -5.334  0.50 31.77 LIG 0.22  C 
ATOM     50 OD1  ASN C 304      12.973   3.081  -5.144  0.50 27.48 LIG-0.27  OA
ATOM     51  ND2 ASN C 304      13.953   4.582  -6.480  0.50 32.56 LIG-0.37  N 
ATOM     52 21HD ASN C 304      14.033   4.012  -7.121  0.50 32.56 LIG 0.16  HD
ATOM     53 22HD ASN C 304      14.237   5.387  -6.583  0.50 32.56 LIG 0.16  HD
ENDBRANCH 48 49
ENDBRANCH 47 48
BRANCH 47 54
ATOM     54  N   ASN C 304      11.753   4.487  -2.571  0.50 31.56 LIG-0.34  N 
ATOM     55  C   LEU C 303      11.215   3.283  -2.688  0.50 30.83 LIG 0.26  C 
ATOM     56 O    LEU C 303      11.892   2.269  -2.792  0.50 29.02 LIG-0.27  OA
ATOM     57 H    ASN C 304      11.317   5.196  -2.351  0.50 31.56 LIG 0.16  HD
BRANCH 55 58
ATOM     58  CA  LEU C 303       9.682   3.231  -2.680  0.50 30.56 LIG 0.40  C 
ATOM     59  N   LEU C 303       9.056   4.149  -1.689  0.50 30.88 LIG 0.61  N 
BRANCH 58 60
ATOM     60  CB  LEU C 303       9.114   3.497  -4.079  0.50 30.80 LIG 0.06  C 
BRANCH 60 61
ATOM     61  CG  LEU C 303      10.001   4.244  -5.082  0.50 30.92 LIG-0.02  C 
ATOM     62  CD2 LEU C 303       9.702   5.754  -5.059  0.50 31.43 LIG 0.01  C 
ATOM     63  CD1 LEU C 303       9.865   3.666  -6.480  0.50 30.50 LIG 0.01  C 
ENDBRANCH 60 61
ENDBRANCH 58 60
ENDBRANCH 55 58
ENDBRANCH 47 54
ENDBRANCH 45 47
ENDBRANCH 35 43
ENDBRANCH 1 35
TORSDOF 21
ENDMDL
MODEL 107
USER: ADFR SOLUTION from run 175
USER: SCORE 17.529396 LL:  -5.667 LR: -13.001 RR:   0.000 FEB:  -6.736
USER: RMSD 7.801660
USER: SEED 174
USER: STATUS searching
USER: GENES 23
USER: genes 0 Translation |==|  0.38403 0.47211 0.27019
USER: genes 1 Rotation |==|  0.59992 0.97744 0.51791 0.60839
USER: genes 2 Torsion [N]-CA--C-[N] |==|  0.94423
USER: genes 3 Torsion [C]-N--CA-[C] |==|  0.82746
USER: genes 4 Torsion [N]-CA--C-[N] |==|  0.35030
USER: genes 5 Torsion [C]-N--CA-[CB] |==|  0.50594
USER: genes 6 Torsion [N]-CA--C-[N] |==|  0.28515
USER: genes 7 Torsion [N]-CA--C-[OXT] |==|  0.87737
USER: genes 8 Torsion [N]-CA--CB-[OG] |==|  0.95989
USER: genes 9 Torsion [CA]-CB--OG-[HG] |==|  0.99456
USER: genes 10 Torsion [N]-CA--CB-[CG2] |==|  0.56229
USER: genes 11 Torsion [CA]-CB--CG1-[CD1] |==|  0.46331
USER: genes 12 Torsion [N]-C--CA-[N] |==|  0.03835
USER: genes 13 Torsion [C]-CA--CB-[CG] |==|  0.60058
USER: genes 14 Torsion [CA]-CB--CG-[CD1] |==|  0.26587
USER: genes 15 Torsion [C]-CA--N-[C] |==|  0.68333
USER: genes 16 Torsion [N]-C--CA-[N] |==|  0.45310
USER: genes 17 Torsion [C]-CA--CB-[CG] |==|  0.61474
USER: genes 18 Torsion [CA]-CB--CG-[OD1] |==|  0.24974
USER: genes 19 Torsion [C]-CA--N-[C] |==|  0.75874
USER: genes 20 Torsion [N]-C--CA-[N] |==|  0.65352
USER: genes 21 Torsion [C]-CA--CB-[CG] |==|  0.24508
USER: genes 22 Torsion [CA]-CB--CG-[CD2] |==|  0.53643
ROOT
ATOM      1  C   PHE C 305      10.435   6.162  -4.928  0.50 34.66 LIG 0.24  C 
ATOM      2 O    PHE C 305       9.321   5.648  -4.897  0.50 33.80 LIG-0.27  OA
ATOM      3  N   PRO C 306      11.551   5.444  -5.161  0.50 35.29 LIG-0.34  N 
ATOM      4  CA  PRO C 306      11.551   4.015  -4.893  0.50 35.79 LIG 0.18  C 
ATOM      5  CB  PRO C 306      12.532   3.455  -5.950  0.50 35.80 LIG 0.04  C 
ATOM      6  CG  PRO C 306      13.148   4.680  -6.636  0.50 35.25 LIG 0.02  C 
ATOM      7  CD  PRO C 306      12.827   5.862  -5.762  0.50 35.51 LIG 0.13  C 
ENDROOT
BRANCH 4 8
ATOM      8  C   PRO C 306      12.111   3.737  -3.496  0.50 36.50 LIG 0.24  C 
ATOM      9  N   ILE C 307      12.861   4.715  -2.960  0.50 37.01 LIG-0.35  N 
ATOM     10 H    ILE C 307      13.089   5.438  -3.365  0.50 37.01 LIG 0.16  HD
ATOM     11 O    PRO C 306      11.853   2.659  -2.916  0.50 36.74 LIG-0.27  OA
BRANCH 9 12
ATOM     12  CA  ILE C 307      13.353   4.587  -1.587  0.50 37.44 LIG 0.18  C 
BRANCH 12 13
ATOM     13  C   ILE C 307      12.220   4.509  -0.561  0.50 38.23 LIG 0.24  C 
ATOM     14  N   SER C 308      12.273   3.457   0.251  0.50 38.91 LIG-0.34  N 
ATOM     15 H    SER C 308      12.819   2.803   0.133  0.50 38.91 LIG 0.16  HD
ATOM     16 O    ILE C 307      11.339   5.379  -0.507  0.50 38.79 LIG-0.27  OA
BRANCH 14 17
ATOM     17  CA  SER C 308      11.417   3.296   1.423  0.50 39.43 LIG 0.20  C 
BRANCH 17 18
ATOM     18  C   SER C 308      11.680   4.519   2.306  0.50 39.77 LIG 0.24  C 
ATOM     19  N   PRO C 309      10.760   5.501   2.294  0.50 40.03 LIG-0.34  N 
ATOM     20  CD  PRO C 309       9.364   5.427   1.835  0.50 39.83 LIG 0.13  C 
ATOM     21  CA  PRO C 309      11.094   6.824   2.825  0.50 40.09 LIG 0.19  C 
ATOM     22  CG  PRO C 309       8.982   6.867   1.694  0.50 40.19 LIG 0.02  C 
ATOM     23  CB  PRO C 309       9.756   7.574   2.764  0.50 40.09 LIG 0.04  C 
ATOM     24 O    SER C 308      12.695   4.574   3.006  0.50 39.81 LIG-0.27  OA
BRANCH 21 25
ATOM     25  C   PRO C 309      11.643   6.784   4.251  0.50 40.04 LIG 0.20  C 
ATOM     26 OXT  PRO C 309      11.124   6.081   5.123  0.50 40.10 LIG-0.65  OA
ATOM     27 O    PRO C 309      12.617   7.469   4.570  0.50 40.34 LIG-0.65  OA
ENDBRANCH 21 25
ENDBRANCH 17 18
BRANCH 17 28
ATOM     28  CB  SER C 308      11.759   2.009   2.177  0.50 39.49 LIG 0.20  C 
BRANCH 28 29
ATOM     29 OG   SER C 308      12.568   1.146   1.391  0.50 39.70 LIG-0.40  OA
ATOM     30 HG   SER C 308      12.693   1.490   0.635  0.50 39.70 LIG 0.21  HD
ENDBRANCH 28 29
ENDBRANCH 17 28
ENDBRANCH 14 17
ENDBRANCH 12 13
BRANCH 12 31
ATOM     31  CB  ILE C 307      14.279   5.759  -1.182  0.50 37.20 LIG 0.01  C 
ATOM     32  CG2 ILE C 307      15.196   5.355  -0.017  0.50 36.86 LIG 0.01  C 
BRANCH 31 33
ATOM     33  CG1 ILE C 307      15.056   6.250  -2.416  0.50 35.88 LIG 0.00  C 
ATOM     34  CD1 ILE C 307      15.760   7.575  -2.254  0.50 32.01 LIG 0.01  C 
ENDBRANCH 31 33
ENDBRANCH 12 31
ENDBRANCH 9 12
ENDBRANCH 4 8
BRANCH 1 35
ATOM     35  CA  PHE C 305      10.580   7.677  -4.735  0.50 34.47 LIG 0.18  C 
BRANCH 35 36
ATOM     36  CB  PHE C 305       9.477   8.351  -5.565  0.50 34.49 LIG 0.07  C 
BRANCH 36 37
ATOM     37  CG  PHE C 305       9.876   9.665  -6.218  0.50 35.55 LIG-0.06  A 
ATOM     38  CD1 PHE C 305      10.323   9.724  -7.538  0.50 36.28 LIG 0.01  A 
ATOM     39  CE1 PHE C 305      10.681  10.944  -8.118  0.50 36.66 LIG 0.00  A 
ATOM     40  CZ  PHE C 305      10.606  12.124  -7.371  0.50 36.87 LIG 0.00  A 
ATOM     41  CE2 PHE C 305      10.169  12.080  -6.059  0.50 36.76 LIG 0.00  A 
ATOM     42  CD2 PHE C 305       9.814  10.850  -5.484  0.50 36.02 LIG 0.01  A 
ENDBRANCH 36 37
ENDBRANCH 35 36
BRANCH 35 43
ATOM     43  N   PHE C 305      11.878   8.229  -5.137  0.50 33.54 LIG-0.35  N 
ATOM     44 H    PHE C 305      12.044   8.182  -5.979  0.50 33.54 LIG 0.16  HD
ATOM     45  C   ASN C 304      12.708   8.753  -4.234  0.50 33.07 LIG 0.24  C 
ATOM     46 O    ASN C 304      12.624   8.502  -3.026  0.50 33.39 LIG-0.27  OA
BRANCH 45 47
ATOM     47  CA  ASN C 304      13.782   9.709  -4.769  0.50 32.40 LIG 0.18  C 
BRANCH 47 48
ATOM     48  CB  ASN C 304      14.926   8.985  -5.496  0.50 32.38 LIG 0.14  C 
BRANCH 48 49
ATOM     49  CG  ASN C 304      16.323   9.567  -5.160  0.50 31.77 LIG 0.22  C 
ATOM     50 OD1  ASN C 304      16.981   9.138  -4.220  0.50 27.48 LIG-0.27  OA
ATOM     51  ND2 ASN C 304      16.740  10.577  -5.914  0.50 32.56 LIG-0.37  N 
ATOM     52 21HD ASN C 304      17.497  10.953  -5.748  0.50 32.56 LIG 0.16  HD
ATOM     53 22HD ASN C 304      16.256  10.855  -6.567  0.50 32.56 LIG 0.16  HD
ENDBRANCH 48 49
ENDBRANCH 47 48
BRANCH 47 54
ATOM     54  N   ASN C 304      14.338  10.494  -3.694  0.50 31.56 LIG-0.34  N 
ATOM     55  C   LEU C 303      13.767  11.629  -3.322  0.50 30.83 LIG 0.26  C 
ATOM     56 O    LEU C 303      12.653  11.959  -3.704  0.50 29.02 LIG-0.27  OA
ATOM     57 H    ASN C 304      15.047  10.166  -3.334  0.50 31.56 LIG 0.16  HD
BRANCH 55 58
ATOM     58  CA  LEU C 303      14.586  12.510  -2.370  0.50 30.56 LIG 0.40  C 
ATOM     59  N   LEU C 303      13.874  12.859  -1.111  0.50 30.88 LIG 0.61  N 
BRANCH 58 60
ATOM     60  CB  LEU C 303      15.940  11.865  -2.051  0.50 30.80 LIG 0.06  C 
BRANCH 60 61
ATOM     61  CG  LEU C 303      17.116  12.165  -2.989  0.50 30.92 LIG-0.02  C 
ATOM     62  CD2 LEU C 303      18.287  11.201  -2.724  0.50 31.43 LIG 0.01  C 
ATOM     63  CD1 LEU C 303      17.549  13.617  -2.888  0.50 30.50 LIG 0.01  C 
ENDBRANCH 60 61
ENDBRANCH 58 60
ENDBRANCH 55 58
ENDBRANCH 47 54
ENDBRANCH 45 47
ENDBRANCH 35 43
ENDBRANCH 1 35
TORSDOF 21
ENDMDL
MODEL 108
USER: ADFR SOLUTION from run 95
USER: SCORE 17.395205 LL:  -5.368 LR: -12.982 RR:   0.000 FEB:  -6.717
USER: RMSD 12.307123
USER: SEED 94
USER: STATUS no improvement in best in 43 clusters for 5 generations
USER: GENES 23
USER: genes 0 Translation |==|  0.43532 0.82975 0.60372
USER: genes 1 Rotation |==|  0.13089 0.53896 0.82312 0.58848
USER: genes 2 Torsion [N]-CA--C-[N] |==|  0.98120
USER: genes 3 Torsion [C]-N--CA-[C] |==|  0.68035
USER: genes 4 Torsion [N]-CA--C-[N] |==|  0.29754
USER: genes 5 Torsion [C]-N--CA-[CB] |==|  0.53506
USER: genes 6 Torsion [N]-CA--C-[N] |==|  0.36972
USER: genes 7 Torsion [N]-CA--C-[OXT] |==|  0.85957
USER: genes 8 Torsion [N]-CA--CB-[OG] |==|  0.83306
USER: genes 9 Torsion [CA]-CB--OG-[HG] |==|  0.37255
USER: genes 10 Torsion [N]-CA--CB-[CG2] |==|  0.11718
USER: genes 11 Torsion [CA]-CB--CG1-[CD1] |==|  0.28249
USER: genes 12 Torsion [N]-C--CA-[N] |==|  0.31824
USER: genes 13 Torsion [C]-CA--CB-[CG] |==|  0.71363
USER: genes 14 Torsion [CA]-CB--CG-[CD1] |==|  0.70415
USER: genes 15 Torsion [C]-CA--N-[C] |==|  0.73662
USER: genes 16 Torsion [N]-C--CA-[N] |==|  0.03628
USER: genes 17 Torsion [C]-CA--CB-[CG] |==|  0.49705
USER: genes 18 Torsion [CA]-CB--CG-[OD1] |==|  0.15936
USER: genes 19 Torsion [C]-CA--N-[C] |==|  0.68333
USER: genes 20 Torsion [N]-C--CA-[N] |==|  0.05052
USER: genes 21 Torsion [C]-CA--CB-[CG] |==|  0.67167
USER: genes 22 Torsion [CA]-CB--CG-[CD2] |==|  0.77216
ROOT
ATOM      1  C   PHE C 305      11.743  14.745   1.826  0.50 34.66 LIG 0.24  C 
ATOM      2 O    PHE C 305      12.609  15.455   1.326  0.50 33.80 LIG-0.27  OA
ATOM      3  N   PRO C 306      11.020  15.137   2.894  0.50 35.29 LIG-0.34  N 
ATOM      4  CA  PRO C 306      11.554  16.157   3.783  0.50 35.79 LIG 0.18  C 
ATOM      5  CB  PRO C 306      10.287  16.883   4.291  0.50 35.80 LIG 0.04  C 
ATOM      6  CG  PRO C 306       9.100  16.074   3.757  0.50 35.25 LIG 0.02  C 
ATOM      7  CD  PRO C 306       9.659  14.755   3.298  0.50 35.51 LIG 0.13  C 
ENDROOT
BRANCH 4 8
ATOM      8  C   PRO C 306      12.267  15.506   4.970  0.50 36.50 LIG 0.24  C 
ATOM      9  N   ILE C 307      12.154  14.170   5.061  0.50 37.01 LIG-0.35  N 
ATOM     10 H    ILE C 307      11.672  13.681   4.544  0.50 37.01 LIG 0.16  HD
ATOM     11 O    PRO C 306      12.915  16.207   5.779  0.50 36.74 LIG-0.27  OA
BRANCH 9 12
ATOM     12  CA  ILE C 307      12.887  13.446   6.100  0.50 37.44 LIG 0.18  C 
BRANCH 12 13
ATOM     13  C   ILE C 307      13.945  12.501   5.525  0.50 38.23 LIG 0.24  C 
ATOM     14  N   SER C 308      15.202  12.905   5.685  0.50 38.91 LIG-0.34  N 
ATOM     15 H    SER C 308      15.407  13.690   5.970  0.50 38.91 LIG 0.16  HD
ATOM     16 O    ILE C 307      13.627  11.441   4.967  0.50 38.79 LIG-0.27  OA
BRANCH 14 17
ATOM     17  CA  SER C 308      16.364  12.069   5.397  0.50 39.43 LIG 0.20  C 
BRANCH 17 18
ATOM     18  C   SER C 308      16.083  10.718   6.060  0.50 39.77 LIG 0.24  C 
ATOM     19  N   PRO C 309      16.304   9.611   5.329  0.50 40.03 LIG-0.34  N 
ATOM     20  CD  PRO C 309      17.113   9.480   4.106  0.50 39.83 LIG 0.13  C 
ATOM     21  CA  PRO C 309      15.745   8.327   5.755  0.50 40.09 LIG 0.19  C 
ATOM     22  CG  PRO C 309      16.670   8.163   3.551  0.50 40.19 LIG 0.02  C 
ATOM     23  CB  PRO C 309      16.347   7.331   4.755  0.50 40.09 LIG 0.04  C 
ATOM     24 O    SER C 308      15.686  10.669   7.227  0.50 39.81 LIG-0.27  OA
BRANCH 21 25
ATOM     25  C   PRO C 309      16.106   7.955   7.193  0.50 40.04 LIG 0.20  C 
ATOM     26 OXT  PRO C 309      17.273   7.988   7.594  0.50 40.10 LIG-0.65  OA
ATOM     27 O    PRO C 309      15.235   7.599   7.990  0.50 40.34 LIG-0.65  OA
ENDBRANCH 21 25
ENDBRANCH 17 18
BRANCH 17 28
ATOM     28  CB  SER C 308      17.640  12.690   5.967  0.50 39.49 LIG 0.20  C 
BRANCH 28 29
ATOM     29 OG   SER C 308      17.886  13.974   5.411  0.50 39.70 LIG-0.40  OA
ATOM     30 HG   SER C 308      18.088  14.511   6.024  0.50 39.70 LIG 0.21  HD
ENDBRANCH 28 29
ENDBRANCH 17 28
ENDBRANCH 14 17
ENDBRANCH 12 13
BRANCH 12 31
ATOM     31  CB  ILE C 307      11.951  12.611   7.009  0.50 37.20 LIG 0.01  C 
ATOM     32  CG2 ILE C 307      10.876  11.896   6.177  0.50 36.86 LIG 0.01  C 
BRANCH 31 33
ATOM     33  CG1 ILE C 307      12.792  11.646   7.862  0.50 35.88 LIG 0.00  C 
ATOM     34  CD1 ILE C 307      13.014  12.071   9.293  0.50 32.01 LIG 0.01  C 
ENDBRANCH 31 33
ENDBRANCH 12 31
ENDBRANCH 9 12
ENDBRANCH 4 8
BRANCH 1 35
ATOM     35  CA  PHE C 305      11.428  13.377   1.207  0.50 34.47 LIG 0.18  C 
BRANCH 35 36
ATOM     36  CB  PHE C 305      12.734  12.569   1.194  0.50 34.49 LIG 0.07  C 
BRANCH 36 37
ATOM     37  CG  PHE C 305      13.420  12.475  -0.159  0.50 35.55 LIG-0.06  A 
ATOM     38  CD1 PHE C 305      13.410  11.299  -0.909  0.50 36.28 LIG 0.01  A 
ATOM     39  CE1 PHE C 305      14.045  11.239  -2.153  0.50 36.66 LIG 0.00  A 
ATOM     40  CZ  PHE C 305      14.712  12.360  -2.655  0.50 36.87 LIG 0.00  A 
ATOM     41  CE2 PHE C 305      14.735  13.532  -1.920  0.50 36.76 LIG 0.00  A 
ATOM     42  CD2 PHE C 305      14.097  13.584  -0.671  0.50 36.02 LIG 0.01  A 
ENDBRANCH 36 37
ENDBRANCH 35 36
BRANCH 35 43
ATOM     43  N   PHE C 305      10.890  13.427  -0.158  0.50 33.54 LIG-0.35  N 
ATOM     44 H    PHE C 305      11.485  13.468  -0.778  0.50 33.54 LIG 0.16  HD
ATOM     45  C   ASN C 304       9.575  13.408  -0.376  0.50 33.07 LIG 0.24  C 
ATOM     46 O    ASN C 304       8.750  13.702   0.498  0.50 33.39 LIG-0.27  OA
BRANCH 45 47
ATOM     47  CA  ASN C 304       9.122  12.987  -1.780  0.50 32.40 LIG 0.18  C 
BRANCH 47 48
ATOM     48  CB  ASN C 304       7.951  11.993  -1.764  0.50 32.38 LIG 0.14  C 
BRANCH 48 49
ATOM     49  CG  ASN C 304       7.478  11.589  -3.184  0.50 31.77 LIG 0.22  C 
ATOM     50 OD1  ASN C 304       8.251  11.085  -3.991  0.50 27.48 LIG-0.27  OA
ATOM     51  ND2 ASN C 304       6.215  11.859  -3.487  0.50 32.56 LIG-0.37  N 
ATOM     52 21HD ASN C 304       5.913  11.680  -4.273  0.50 32.56 LIG 0.16  HD
ATOM     53 22HD ASN C 304       5.697  12.213  -2.898  0.50 32.56 LIG 0.16  HD
ENDBRANCH 48 49
ENDBRANCH 47 48
BRANCH 47 54
ATOM     54  N   ASN C 304      10.221  12.399  -2.507  0.50 31.56 LIG-0.34  N 
ATOM     55  C   LEU C 303      10.718  12.998  -3.579  0.50 30.83 LIG 0.26  C 
ATOM     56 O    LEU C 303      10.433  14.149  -3.879  0.50 29.02 LIG-0.27  OA
ATOM     57 H    ASN C 304      10.508  11.653  -2.189  0.50 31.56 LIG 0.16  HD
BRANCH 55 58
ATOM     58  CA  LEU C 303      11.685  12.160  -4.425  0.50 30.56 LIG 0.40  C 
ATOM     59  N   LEU C 303      11.592  10.696  -4.170  0.50 30.88 LIG 0.61  N 
BRANCH 58 60
ATOM     60  CB  LEU C 303      11.501  12.449  -5.920  0.50 30.80 LIG 0.06  C 
BRANCH 60 61
ATOM     61  CG  LEU C 303      11.062  11.291  -6.825  0.50 30.92 LIG-0.02  C 
ATOM     62  CD2 LEU C 303      12.269  10.420  -7.223  0.50 31.43 LIG 0.01  C 
ATOM     63  CD1 LEU C 303      10.308  11.796  -8.043  0.50 30.50 LIG 0.01  C 
ENDBRANCH 60 61
ENDBRANCH 58 60
ENDBRANCH 55 58
ENDBRANCH 47 54
ENDBRANCH 45 47
ENDBRANCH 35 43
ENDBRANCH 1 35
TORSDOF 21
ENDMDL
MODEL 109
USER: ADFR SOLUTION from run 66
USER: SCORE 17.682770 LL:  -6.327 LR: -12.983 RR:   0.000 FEB:  -6.718
USER: RMSD 6.538559
USER: SEED 65
USER: STATUS no improvement in best in 7 clusters for 5 generations
USER: GENES 23
USER: genes 0 Translation |==|  0.60060 0.47297 0.52382
USER: genes 1 Rotation |==|  0.66247 0.24678 0.41754 0.89075
USER: genes 2 Torsion [N]-CA--C-[N] |==|  0.90490
USER: genes 3 Torsion [C]-N--CA-[C] |==|  0.19046
USER: genes 4 Torsion [N]-CA--C-[N] |==|  0.03470
USER: genes 5 Torsion [C]-N--CA-[CB] |==|  0.17897
USER: genes 6 Torsion [N]-CA--C-[N] |==|  0.81160
USER: genes 7 Torsion [N]-CA--C-[OXT] |==|  0.91187
USER: genes 8 Torsion [N]-CA--CB-[OG] |==|  0.99852
USER: genes 9 Torsion [CA]-CB--OG-[HG] |==|  0.68944
USER: genes 10 Torsion [N]-CA--CB-[CG2] |==|  0.55567
USER: genes 11 Torsion [CA]-CB--CG1-[CD1] |==|  0.55194
USER: genes 12 Torsion [N]-C--CA-[N] |==|  0.83445
USER: genes 13 Torsion [C]-CA--CB-[CG] |==|  0.45263
USER: genes 14 Torsion [CA]-CB--CG-[CD1] |==|  0.94526
USER: genes 15 Torsion [C]-CA--N-[C] |==|  0.64899
USER: genes 16 Torsion [N]-C--CA-[N] |==|  0.30559
USER: genes 17 Torsion [C]-CA--CB-[CG] |==|  0.82371
USER: genes 18 Torsion [CA]-CB--CG-[OD1] |==|  0.78458
USER: genes 19 Torsion [C]-CA--N-[C] |==|  0.74665
USER: genes 20 Torsion [N]-C--CA-[N] |==|  0.63453
USER: genes 21 Torsion [C]-CA--CB-[CG] |==|  0.74332
USER: genes 22 Torsion [CA]-CB--CG-[CD2] |==|  0.63006
ROOT
ATOM      1  C   PHE C 305      15.957   6.182   0.208  0.50 34.66 LIG 0.24  C 
ATOM      2 O    PHE C 305      16.769   5.295  -0.037  0.50 33.80 LIG-0.27  OA
ATOM      3  N   PRO C 306      14.865   6.387  -0.553  0.50 35.29 LIG-0.34  N 
ATOM      4  CA  PRO C 306      14.858   5.924  -1.932  0.50 35.79 LIG 0.18  C 
ATOM      5  CB  PRO C 306      13.372   5.576  -2.182  0.50 35.80 LIG 0.04  C 
ATOM      6  CG  PRO C 306      12.618   6.048  -0.933  0.50 35.25 LIG 0.02  C 
ATOM      7  CD  PRO C 306      13.558   6.954  -0.188  0.50 35.51 LIG 0.13  C 
ENDROOT
BRANCH 4 8
ATOM      8  C   PRO C 306      15.270   7.057  -2.874  0.50 36.50 LIG 0.24  C 
ATOM      9  N   ILE C 307      14.883   8.291  -2.512  0.50 37.01 LIG-0.35  N 
ATOM     10 H    ILE C 307      14.381   8.471  -1.837  0.50 37.01 LIG 0.16  HD
ATOM     11 O    PRO C 306      15.939   6.810  -3.902  0.50 36.74 LIG-0.27  OA
BRANCH 9 12
ATOM     12  CA  ILE C 307      15.319   9.451  -3.291  0.50 37.44 LIG 0.18  C 
BRANCH 12 13
ATOM     13  C   ILE C 307      14.689   9.493  -4.686  0.50 38.23 LIG 0.24  C 
ATOM     14  N   SER C 308      13.677   8.651  -4.868  0.50 38.91 LIG-0.34  N 
ATOM     15 H    SER C 308      13.470   8.038  -4.300  0.50 38.91 LIG 0.16  HD
ATOM     16 O    ILE C 307      15.104  10.271  -5.557  0.50 38.79 LIG-0.27  OA
BRANCH 14 17
ATOM     17  CA  SER C 308      12.809   8.669  -6.042  0.50 39.43 LIG 0.20  C 
BRANCH 17 18
ATOM     18  C   SER C 308      11.729   7.616  -5.783  0.50 39.77 LIG 0.24  C 
ATOM     19  N   PRO C 309      12.114   6.327  -5.760  0.50 40.03 LIG-0.34  N 
ATOM     20  CD  PRO C 309      13.474   5.791  -5.593  0.50 39.83 LIG 0.13  C 
ATOM     21  CA  PRO C 309      11.114   5.262  -5.863  0.50 40.09 LIG 0.19  C 
ATOM     22  CG  PRO C 309      13.331   4.370  -6.039  0.50 40.19 LIG 0.02  C 
ATOM     23  CB  PRO C 309      11.938   3.986  -5.646  0.50 40.09 LIG 0.04  C 
ATOM     24 O    SER C 308      10.560   7.959  -5.588  0.50 39.81 LIG-0.27  OA
BRANCH 21 25
ATOM     25  C   PRO C 309       9.992   5.380  -4.832  0.50 40.04 LIG 0.20  C 
ATOM     26 OXT  PRO C 309      10.193   5.861  -3.713  0.50 40.10 LIG-0.65  OA
ATOM     27 O    PRO C 309       8.854   4.984  -5.091  0.50 40.34 LIG-0.65  OA
ENDBRANCH 21 25
ENDBRANCH 17 18
BRANCH 17 28
ATOM     28  CB  SER C 308      13.596   8.329  -7.310  0.50 39.49 LIG 0.20  C 
BRANCH 28 29
ATOM     29 OG   SER C 308      14.967   8.094  -7.022  0.50 39.70 LIG-0.40  OA
ATOM     30 HG   SER C 308      15.433   8.710  -7.353  0.50 39.70 LIG 0.21  HD
ENDBRANCH 28 29
ENDBRANCH 17 28
ENDBRANCH 14 17
ENDBRANCH 12 13
BRANCH 12 31
ATOM     31  CB  ILE C 307      16.857   9.499  -3.465  0.50 37.20 LIG 0.01  C 
ATOM     32  CG2 ILE C 307      17.323  10.917  -3.827  0.50 36.86 LIG 0.01  C 
BRANCH 31 33
ATOM     33  CG1 ILE C 307      17.533   8.949  -2.197  0.50 35.88 LIG 0.00  C 
ATOM     34  CD1 ILE C 307      18.985   9.326  -2.022  0.50 32.01 LIG 0.01  C 
ENDBRANCH 31 33
ENDBRANCH 12 31
ENDBRANCH 9 12
ENDBRANCH 4 8
BRANCH 1 35
ATOM     35  CA  PHE C 305      16.153   7.074   1.441  0.50 34.47 LIG 0.18  C 
BRANCH 35 36
ATOM     36  CB  PHE C 305      14.959   6.832   2.376  0.50 34.49 LIG 0.07  C 
BRANCH 36 37
ATOM     37  CG  PHE C 305      15.157   7.299   3.809  0.50 35.55 LIG-0.06  A 
ATOM     38  CD1 PHE C 305      16.427   7.522   4.340  0.50 36.28 LIG 0.01  A 
ATOM     39  CE1 PHE C 305      16.583   7.956   5.660  0.50 36.66 LIG 0.00  A 
ATOM     40  CZ  PHE C 305      15.462   8.158   6.469  0.50 36.87 LIG 0.00  A 
ATOM     41  CE2 PHE C 305      14.196   7.937   5.957  0.50 36.76 LIG 0.00  A 
ATOM     42  CD2 PHE C 305      14.047   7.499   4.632  0.50 36.02 LIG 0.01  A 
ENDBRANCH 36 37
ENDBRANCH 35 36
BRANCH 35 43
ATOM     43  N   PHE C 305      16.245   8.510   1.155  0.50 33.54 LIG-0.35  N 
ATOM     44 H    PHE C 305      15.592   8.828   0.694  0.50 33.54 LIG 0.16  HD
ATOM     45  C   ASN C 304      17.278   9.230   1.594  0.50 33.07 LIG 0.24  C 
ATOM     46 O    ASN C 304      18.352   8.718   1.933  0.50 33.39 LIG-0.27  OA
BRANCH 45 47
ATOM     47  CA  ASN C 304      17.067  10.749   1.672  0.50 32.40 LIG 0.18  C 
BRANCH 47 48
ATOM     48  CB  ASN C 304      18.163  11.548   0.952  0.50 32.38 LIG 0.14  C 
BRANCH 48 49
ATOM     49  CG  ASN C 304      19.566  11.360   1.584  0.50 31.77 LIG 0.22  C 
ATOM     50 OD1  ASN C 304      19.880  11.939   2.618  0.50 27.48 LIG-0.27  OA
ATOM     51  ND2 ASN C 304      20.413  10.581   0.923  0.50 32.56 LIG-0.37  N 
ATOM     52 21HD ASN C 304      21.214  10.469   1.219  0.50 32.56 LIG 0.16  HD
ATOM     53 22HD ASN C 304      20.162  10.188   0.200  0.50 32.56 LIG 0.16  HD
ENDBRANCH 48 49
ENDBRANCH 47 48
BRANCH 47 54
ATOM     54  N   ASN C 304      17.006  11.178   3.048  0.50 31.56 LIG-0.34  N 
ATOM     55  C   LEU C 303      15.846  11.244   3.684  0.50 30.83 LIG 0.26  C 
ATOM     56 O    LEU C 303      14.821  10.757   3.230  0.50 29.02 LIG-0.27  OA
ATOM     57 H    ASN C 304      17.766  11.378   3.399  0.50 31.56 LIG 0.16  HD
BRANCH 55 58
ATOM     58  CA  LEU C 303      15.865  11.969   5.036  0.50 30.56 LIG 0.40  C 
ATOM     59  N   LEU C 303      15.194  11.216   6.130  0.50 30.88 LIG 0.61  N 
BRANCH 58 60
ATOM     60  CB  LEU C 303      17.297  12.334   5.445  0.50 30.80 LIG 0.06  C 
BRANCH 60 61
ATOM     61  CG  LEU C 303      18.067  11.338   6.321  0.50 30.92 LIG-0.02  C 
ATOM     62  CD2 LEU C 303      18.754  12.059   7.495  0.50 31.43 LIG 0.01  C 
ATOM     63  CD1 LEU C 303      19.058  10.531   5.501  0.50 30.50 LIG 0.01  C 
ENDBRANCH 60 61
ENDBRANCH 58 60
ENDBRANCH 55 58
ENDBRANCH 47 54
ENDBRANCH 45 47
ENDBRANCH 35 43
ENDBRANCH 1 35
TORSDOF 21
ENDMDL
MODEL 110
USER: ADFR SOLUTION from run 68
USER: SCORE 18.520249 LL:  -6.949 LR: -12.985 RR:   0.000 FEB:  -6.721
USER: RMSD 10.618601
USER: SEED 67
USER: STATUS no improvement in best in 16 clusters for 5 generations
USER: GENES 23
USER: genes 0 Translation |==|  0.51461 0.55170 0.31762
USER: genes 1 Rotation |==|  0.15881 0.79543 0.32245 0.62159
USER: genes 2 Torsion [N]-CA--C-[N] |==|  0.01009
USER: genes 3 Torsion [C]-N--CA-[C] |==|  0.70363
USER: genes 4 Torsion [N]-CA--C-[N] |==|  0.39245
USER: genes 5 Torsion [C]-N--CA-[CB] |==|  0.53097
USER: genes 6 Torsion [N]-CA--C-[N] |==|  0.82762
USER: genes 7 Torsion [N]-CA--C-[OXT] |==|  0.92423
USER: genes 8 Torsion [N]-CA--CB-[OG] |==|  0.88348
USER: genes 9 Torsion [CA]-CB--OG-[HG] |==|  0.87565
USER: genes 10 Torsion [N]-CA--CB-[CG2] |==|  0.65677
USER: genes 11 Torsion [CA]-CB--CG1-[CD1] |==|  0.53234
USER: genes 12 Torsion [N]-C--CA-[N] |==|  0.45000
USER: genes 13 Torsion [C]-CA--CB-[CG] |==|  0.33280
USER: genes 14 Torsion [CA]-CB--CG-[CD1] |==|  0.95053
USER: genes 15 Torsion [C]-CA--N-[C] |==|  0.65313
USER: genes 16 Torsion [N]-C--CA-[N] |==|  0.99195
USER: genes 17 Torsion [C]-CA--CB-[CG] |==|  0.70693
USER: genes 18 Torsion [CA]-CB--CG-[OD1] |==|  0.12230
USER: genes 19 Torsion [C]-CA--N-[C] |==|  0.70611
USER: genes 20 Torsion [N]-C--CA-[N] |==|  0.43230
USER: genes 21 Torsion [C]-CA--CB-[CG] |==|  0.10731
USER: genes 22 Torsion [CA]-CB--CG-[CD2] |==|  0.57234
ROOT
ATOM      1  C   PHE C 305      13.765   8.072  -3.967  0.50 34.66 LIG 0.24  C 
ATOM      2 O    PHE C 305      13.972   7.587  -2.859  0.50 33.80 LIG-0.27  OA
ATOM      3  N   PRO C 306      14.433   9.153  -4.414  0.50 35.29 LIG-0.34  N 
ATOM      4  CA  PRO C 306      15.037  10.066  -3.457  0.50 35.79 LIG 0.18  C 
ATOM      5  CB  PRO C 306      16.278  10.600  -4.210  0.50 35.80 LIG 0.04  C 
ATOM      6  CG  PRO C 306      16.167  10.050  -5.636  0.50 35.25 LIG 0.02  C 
ATOM      7  CD  PRO C 306      14.756   9.554  -5.792  0.50 35.51 LIG 0.13  C 
ENDROOT
BRANCH 4 8
ATOM      8  C   PRO C 306      14.090  11.232  -3.165  0.50 36.50 LIG 0.24  C 
ATOM      9  N   ILE C 307      12.886  11.172  -3.757  0.50 37.01 LIG-0.35  N 
ATOM     10 H    ILE C 307      12.644  10.568  -4.320  0.50 37.01 LIG 0.16  HD
ATOM     11 O    PRO C 306      14.448  12.160  -2.405  0.50 36.74 LIG-0.27  OA
BRANCH 9 12
ATOM     12  CA  ILE C 307      11.873  12.185  -3.456  0.50 37.44 LIG 0.18  C 
BRANCH 12 13
ATOM     13  C   ILE C 307      10.746  11.646  -2.572  0.50 38.23 LIG 0.24  C 
ATOM     14  N   SER C 308      10.304  12.497  -1.649  0.50 38.91 LIG-0.34  N 
ATOM     15 H    SER C 308      10.699  13.240  -1.471  0.50 38.91 LIG 0.16  HD
ATOM     16 O    ILE C 307      10.292  10.504  -2.731  0.50 38.79 LIG-0.27  OA
BRANCH 14 17
ATOM     17  CA  SER C 308       9.110  12.266  -0.842  0.50 39.43 LIG 0.20  C 
BRANCH 17 18
ATOM     18  C   SER C 308       8.008  11.866  -1.827  0.50 39.77 LIG 0.24  C 
ATOM     19  N   PRO C 309       7.654  12.768  -2.759  0.50 40.03 LIG-0.34  N 
ATOM     20  CD  PRO C 309       8.406  13.952  -3.206  0.50 39.83 LIG 0.13  C 
ATOM     21  CA  PRO C 309       6.401  12.604  -3.499  0.50 40.09 LIG 0.19  C 
ATOM     22  CG  PRO C 309       7.371  14.752  -3.932  0.50 40.19 LIG 0.02  C 
ATOM     23  CB  PRO C 309       6.456  13.732  -4.538  0.50 40.09 LIG 0.04  C 
ATOM     24 O    SER C 308       7.490  10.748  -1.760  0.50 39.81 LIG-0.27  OA
BRANCH 21 25
ATOM     25  C   PRO C 309       6.267  11.237  -4.170  0.50 40.04 LIG 0.20  C 
ATOM     26 OXT  PRO C 309       7.259  10.588  -4.513  0.50 40.10 LIG-0.65  OA
ATOM     27 O    PRO C 309       5.157  10.753  -4.398  0.50 40.34 LIG-0.65  OA
ENDBRANCH 21 25
ENDBRANCH 17 18
BRANCH 17 28
ATOM     28  CB  SER C 308       8.712  13.531  -0.078  0.50 39.49 LIG 0.20  C 
BRANCH 28 29
ATOM     29 OG   SER C 308       9.848  14.188   0.465  0.50 39.70 LIG-0.40  OA
ATOM     30 HG   SER C 308      10.355  13.622   0.824  0.50 39.70 LIG 0.21  HD
ENDBRANCH 28 29
ENDBRANCH 17 28
ENDBRANCH 14 17
ENDBRANCH 12 13
BRANCH 12 31
ATOM     31  CB  ILE C 307      11.231  12.775  -4.735  0.50 37.20 LIG 0.01  C 
ATOM     32  CG2 ILE C 307      11.387  14.302  -4.772  0.50 36.86 LIG 0.01  C 
BRANCH 31 33
ATOM     33  CG1 ILE C 307      11.824  12.080  -5.974  0.50 35.88 LIG 0.00  C 
ATOM     34  CD1 ILE C 307      11.502  12.730  -7.297  0.50 32.01 LIG 0.01  C 
ENDBRANCH 31 33
ENDBRANCH 12 31
ENDBRANCH 9 12
ENDBRANCH 4 8
BRANCH 1 35
ATOM     35  CA  PHE C 305      12.743   7.417  -4.906  0.50 34.47 LIG 0.18  C 
BRANCH 35 36
ATOM     36  CB  PHE C 305      11.483   8.297  -4.896  0.50 34.49 LIG 0.07  C 
BRANCH 36 37
ATOM     37  CG  PHE C 305      11.088   8.870  -6.247  0.50 35.55 LIG-0.06  A 
ATOM     38  CD1 PHE C 305      11.986   8.926  -7.313  0.50 36.28 LIG 0.01  A 
ATOM     39  CE1 PHE C 305      11.598   9.455  -8.548  0.50 36.66 LIG 0.00  A 
ATOM     40  CZ  PHE C 305      10.302   9.949  -8.723  0.50 36.87 LIG 0.00  A 
ATOM     41  CE2 PHE C 305       9.402   9.904  -7.673  0.50 36.76 LIG 0.00  A 
ATOM     42  CD2 PHE C 305       9.800   9.374  -6.436  0.50 36.02 LIG 0.01  A 
ENDBRANCH 36 37
ENDBRANCH 35 36
BRANCH 35 43
ATOM     43  N   PHE C 305      12.365   6.046  -4.547  0.50 33.54 LIG-0.35  N 
ATOM     44 H    PHE C 305      12.068   5.953  -3.744  0.50 33.54 LIG 0.16  HD
ATOM     45  C   ASN C 304      12.487   5.050  -5.425  0.50 33.07 LIG 0.24  C 
ATOM     46 O    ASN C 304      13.222   5.122  -6.416  0.50 33.39 LIG-0.27  OA
BRANCH 45 47
ATOM     47  CA  ASN C 304      11.649   3.793  -5.151  0.50 32.40 LIG 0.18  C 
BRANCH 47 48
ATOM     48  CB  ASN C 304      10.652   3.476  -6.276  0.50 32.38 LIG 0.14  C 
BRANCH 48 49
ATOM     49  CG  ASN C 304       9.187   3.814  -5.902  0.50 31.77 LIG 0.22  C 
ATOM     50 OD1  ASN C 304       8.902   4.864  -5.338  0.50 27.48 LIG-0.27  OA
ATOM     51  ND2 ASN C 304       8.275   2.891  -6.182  0.50 32.56 LIG-0.37  N 
ATOM     52 21HD ASN C 304       7.452   3.020  -5.967  0.50 32.56 LIG 0.16  HD
ATOM     53 22HD ASN C 304       8.507   2.164  -6.579  0.50 32.56 LIG 0.16  HD
ENDBRANCH 48 49
ENDBRANCH 47 48
BRANCH 47 54
ATOM     54  N   ASN C 304      10.923   3.933  -3.912  0.50 31.56 LIG-0.34  N 
ATOM     55  C   LEU C 303      11.304   3.272  -2.829  0.50 30.83 LIG 0.26  C 
ATOM     56 O    LEU C 303      12.380   2.697  -2.756  0.50 29.02 LIG-0.27  OA
ATOM     57 H    ASN C 304      10.248   4.464  -3.946  0.50 31.56 LIG 0.16  HD
BRANCH 55 58
ATOM     58  CA  LEU C 303      10.311   3.277  -1.660  0.50 30.56 LIG 0.40  C 
ATOM     59  N   LEU C 303      10.469   2.122  -0.734  0.50 30.88 LIG 0.61  N 
BRANCH 58 60
ATOM     60  CB  LEU C 303      10.385   4.595  -0.879  0.50 30.80 LIG 0.06  C 
BRANCH 60 61
ATOM     61  CG  LEU C 303      10.581   5.890  -1.677  0.50 30.92 LIG-0.02  C 
ATOM     62  CD2 LEU C 303      11.261   6.967  -0.813  0.50 31.43 LIG 0.01  C 
ATOM     63  CD1 LEU C 303       9.269   6.384  -2.262  0.50 30.50 LIG 0.01  C 
ENDBRANCH 60 61
ENDBRANCH 58 60
ENDBRANCH 55 58
ENDBRANCH 47 54
ENDBRANCH 45 47
ENDBRANCH 35 43
ENDBRANCH 1 35
TORSDOF 21
ENDMDL
MODEL 111
USER: ADFR SOLUTION from run 110
USER: SCORE 17.926048 LL:  -6.240 LR: -12.972 RR:   0.000 FEB:  -6.708
USER: RMSD 11.581507
USER: SEED 109
USER: STATUS no improvement in best in 25 clusters for 5 generations
USER: GENES 23
USER: genes 0 Translation |==|  0.58091 0.48395 0.55519
USER: genes 1 Rotation |==|  0.16646 0.79416 0.70638 0.59811
USER: genes 2 Torsion [N]-CA--C-[N] |==|  0.61167
USER: genes 3 Torsion [C]-N--CA-[C] |==|  0.84326
USER: genes 4 Torsion [N]-CA--C-[N] |==|  0.89491
USER: genes 5 Torsion [C]-N--CA-[CB] |==|  0.19924
USER: genes 6 Torsion [N]-CA--C-[N] |==|  0.79494
USER: genes 7 Torsion [N]-CA--C-[OXT] |==|  0.30336
USER: genes 8 Torsion [N]-CA--CB-[OG] |==|  0.77210
USER: genes 9 Torsion [CA]-CB--OG-[HG] |==|  0.85962
USER: genes 10 Torsion [N]-CA--CB-[CG2] |==|  0.55345
USER: genes 11 Torsion [CA]-CB--CG1-[CD1] |==|  0.51481
USER: genes 12 Torsion [N]-C--CA-[N] |==|  0.39970
USER: genes 13 Torsion [C]-CA--CB-[CG] |==|  0.28820
USER: genes 14 Torsion [CA]-CB--CG-[CD1] |==|  0.66978
USER: genes 15 Torsion [C]-CA--N-[C] |==|  0.81170
USER: genes 16 Torsion [N]-C--CA-[N] |==|  0.15443
USER: genes 17 Torsion [C]-CA--CB-[CG] |==|  0.38961
USER: genes 18 Torsion [CA]-CB--CG-[OD1] |==|  0.12594
USER: genes 19 Torsion [C]-CA--N-[C] |==|  0.61902
USER: genes 20 Torsion [N]-C--CA-[N] |==|  0.36868
USER: genes 21 Torsion [C]-CA--CB-[CG] |==|  0.09768
USER: genes 22 Torsion [CA]-CB--CG-[CD2] |==|  0.65441
ROOT
ATOM      1  C   PHE C 305      15.455   6.446   0.844  0.50 34.66 LIG 0.24  C 
ATOM      2 O    PHE C 305      16.419   5.839   0.386  0.50 33.80 LIG-0.27  OA
ATOM      3  N   PRO C 306      15.538   7.730   1.242  0.50 35.29 LIG-0.34  N 
ATOM      4  CA  PRO C 306      16.832   8.282   1.611  0.50 35.79 LIG 0.18  C 
ATOM      5  CB  PRO C 306      16.711   9.771   1.210  0.50 35.80 LIG 0.04  C 
ATOM      6  CG  PRO C 306      15.250   9.971   0.790  0.50 35.25 LIG 0.02  C 
ATOM      7  CD  PRO C 306      14.497   8.768   1.288  0.50 35.51 LIG 0.13  C 
ENDROOT
BRANCH 4 8
ATOM      8  C   PRO C 306      17.037   8.188   3.124  0.50 36.50 LIG 0.24  C 
ATOM      9  N   ILE C 307      17.620   9.250   3.704  0.50 37.01 LIG-0.35  N 
ATOM     10 H    ILE C 307      17.930   9.932   3.283  0.50 37.01 LIG 0.16  HD
ATOM     11 O    PRO C 306      16.658   7.173   3.750  0.50 36.74 LIG-0.27  OA
BRANCH 9 12
ATOM     12  CA  ILE C 307      17.762   9.299   5.160  0.50 37.44 LIG 0.18  C 
BRANCH 12 13
ATOM     13  C   ILE C 307      16.424   9.151   5.888  0.50 38.23 LIG 0.24  C 
ATOM     14  N   SER C 308      15.397   9.758   5.299  0.50 38.91 LIG-0.34  N 
ATOM     15 H    SER C 308      15.491  10.299   4.637  0.50 38.91 LIG 0.16  HD
ATOM     16 O    ILE C 307      16.329   8.500   6.938  0.50 38.79 LIG-0.27  OA
BRANCH 14 17
ATOM     17  CA  SER C 308      14.007   9.577   5.707  0.50 39.43 LIG 0.20  C 
BRANCH 17 18
ATOM     18  C   SER C 308      13.159  10.208   4.600  0.50 39.77 LIG 0.24  C 
ATOM     19  N   PRO C 309      13.123  11.551   4.536  0.50 40.03 LIG-0.34  N 
ATOM     20  CD  PRO C 309      14.055  12.511   5.146  0.50 39.83 LIG 0.13  C 
ATOM     21  CA  PRO C 309      12.086  12.219   3.747  0.50 40.09 LIG 0.19  C 
ATOM     22  CG  PRO C 309      13.303  13.803   5.071  0.50 40.19 LIG 0.02  C 
ATOM     23  CB  PRO C 309      12.490  13.698   3.816  0.50 40.09 LIG 0.04  C 
ATOM     24 O    SER C 308      12.553   9.492   3.797  0.50 39.81 LIG-0.27  OA
BRANCH 21 25
ATOM     25  C   PRO C 309      12.016  11.731   2.300  0.50 40.04 LIG 0.20  C 
ATOM     26 OXT  PRO C 309      11.072  11.046   1.896  0.50 40.10 LIG-0.65  OA
ATOM     27 O    PRO C 309      12.914  12.001   1.499  0.50 40.34 LIG-0.65  OA
ENDBRANCH 21 25
ENDBRANCH 17 18
BRANCH 17 28
ATOM     28  CB  SER C 308      13.736  10.266   7.047  0.50 39.49 LIG 0.20  C 
BRANCH 28 29
ATOM     29 OG   SER C 308      14.147   9.456   8.139  0.50 39.70 LIG-0.40  OA
ATOM     30 HG   SER C 308      13.826   8.685   8.053  0.50 39.70 LIG 0.21  HD
ENDBRANCH 28 29
ENDBRANCH 17 28
ENDBRANCH 14 17
ENDBRANCH 12 13
BRANCH 12 31
ATOM     31  CB  ILE C 307      18.420  10.614   5.644  0.50 37.20 LIG 0.01  C 
ATOM     32  CG2 ILE C 307      18.985  10.454   7.064  0.50 36.86 LIG 0.01  C 
BRANCH 31 33
ATOM     33  CG1 ILE C 307      19.480  11.063   4.623  0.50 35.88 LIG 0.00  C 
ATOM     34  CD1 ILE C 307      20.296  12.268   5.023  0.50 32.01 LIG 0.01  C 
ENDBRANCH 31 33
ENDBRANCH 12 31
ENDBRANCH 9 12
ENDBRANCH 4 8
BRANCH 1 35
ATOM     35  CA  PHE C 305      14.092   5.749   0.938  0.50 34.47 LIG 0.18  C 
BRANCH 35 36
ATOM     36  CB  PHE C 305      14.056   4.993   2.275  0.50 34.49 LIG 0.07  C 
BRANCH 36 37
ATOM     37  CG  PHE C 305      13.228   5.652   3.366  0.50 35.55 LIG-0.06  A 
ATOM     38  CD1 PHE C 305      13.795   6.068   4.570  0.50 36.28 LIG 0.01  A 
ATOM     39  CE1 PHE C 305      13.013   6.675   5.557  0.50 36.66 LIG 0.00  A 
ATOM     40  CZ  PHE C 305      11.642   6.860   5.350  0.50 36.87 LIG 0.00  A 
ATOM     41  CE2 PHE C 305      11.065   6.448   4.162  0.50 36.76 LIG 0.00  A 
ATOM     42  CD2 PHE C 305      11.857   5.837   3.178  0.50 36.02 LIG 0.01  A 
ENDBRANCH 36 37
ENDBRANCH 35 36
BRANCH 35 43
ATOM     43  N   PHE C 305      13.805   4.804  -0.147  0.50 33.54 LIG-0.35  N 
ATOM     44 H    PHE C 305      13.772   3.978   0.094  0.50 33.54 LIG 0.16  HD
ATOM     45  C   ASN C 304      13.618   5.232  -1.395  0.50 33.07 LIG 0.24  C 
ATOM     46 O    ASN C 304      14.008   6.338  -1.786  0.50 33.39 LIG-0.27  OA
BRANCH 45 47
ATOM     47  CA  ASN C 304      12.872   4.279  -2.339  0.50 32.40 LIG 0.18  C 
BRANCH 47 48
ATOM     48  CB  ASN C 304      12.649   4.867  -3.740  0.50 32.38 LIG 0.14  C 
BRANCH 48 49
ATOM     49  CG  ASN C 304      12.845   3.828  -4.873  0.50 31.77 LIG 0.22  C 
ATOM     50 OD1  ASN C 304      12.358   2.706  -4.797  0.50 27.48 LIG-0.27  OA
ATOM     51  ND2 ASN C 304      13.600   4.204  -5.898  0.50 32.56 LIG-0.37  N 
ATOM     52 21HD ASN C 304      13.762   3.653  -6.538  0.50 32.56 LIG 0.16  HD
ATOM     53 22HD ASN C 304      13.927   5.000  -5.923  0.50 32.56 LIG 0.16  HD
ENDBRANCH 48 49
ENDBRANCH 47 48
BRANCH 47 54
ATOM     54  N   ASN C 304      11.593   3.915  -1.779  0.50 31.56 LIG-0.34  N 
ATOM     55  C   LEU C 303      11.164   2.663  -1.831  0.50 30.83 LIG 0.26  C 
ATOM     56 O    LEU C 303      11.892   1.733  -2.149  0.50 29.02 LIG-0.27  OA
ATOM     57 H    ASN C 304      11.155   4.565  -1.423  0.50 31.56 LIG 0.16  HD
BRANCH 55 58
ATOM     58  CA  LEU C 303       9.692   2.444  -1.461  0.50 30.56 LIG 0.40  C 
ATOM     59  N   LEU C 303       8.953   1.581  -2.422  0.50 30.88 LIG 0.61  N 
BRANCH 58 60
ATOM     60  CB  LEU C 303       9.558   1.887  -0.038  0.50 30.80 LIG 0.06  C 
BRANCH 60 61
ATOM     61  CG  LEU C 303      10.562   2.368   1.017  0.50 30.92 LIG-0.02  C 
ATOM     62  CD2 LEU C 303      11.286   1.175   1.668  0.50 31.43 LIG 0.01  C 
ATOM     63  CD1 LEU C 303       9.894   3.253   2.054  0.50 30.50 LIG 0.01  C 
ENDBRANCH 60 61
ENDBRANCH 58 60
ENDBRANCH 55 58
ENDBRANCH 47 54
ENDBRANCH 45 47
ENDBRANCH 35 43
ENDBRANCH 1 35
TORSDOF 21
ENDMDL
MODEL 112
USER: ADFR SOLUTION from run 128
USER: SCORE 16.932444 LL:  -5.645 LR: -12.960 RR:   0.000 FEB:  -6.696
USER: RMSD 9.123188
USER: SEED 127
USER: STATUS no improvement in best in 7 clusters for 5 generations
USER: GENES 23
USER: genes 0 Translation |==|  0.41664 0.61363 0.14642
USER: genes 1 Rotation |==|  0.53359 0.81807 0.67482 0.84226
USER: genes 2 Torsion [N]-CA--C-[N] |==|  0.62972
USER: genes 3 Torsion [C]-N--CA-[C] |==|  0.58408
USER: genes 4 Torsion [N]-CA--C-[N] |==|  0.46489
USER: genes 5 Torsion [C]-N--CA-[CB] |==|  0.19537
USER: genes 6 Torsion [N]-CA--C-[N] |==|  0.83205
USER: genes 7 Torsion [N]-CA--C-[OXT] |==|  0.90840
USER: genes 8 Torsion [N]-CA--CB-[OG] |==|  0.00348
USER: genes 9 Torsion [CA]-CB--OG-[HG] |==|  0.10465
USER: genes 10 Torsion [N]-CA--CB-[CG2] |==|  0.69207
USER: genes 11 Torsion [CA]-CB--CG1-[CD1] |==|  0.71123
USER: genes 12 Torsion [N]-C--CA-[N] |==|  0.88747
USER: genes 13 Torsion [C]-CA--CB-[CG] |==|  0.37739
USER: genes 14 Torsion [CA]-CB--CG-[CD1] |==|  0.99581
USER: genes 15 Torsion [C]-CA--N-[C] |==|  0.78333
USER: genes 16 Torsion [N]-C--CA-[N] |==|  0.82653
USER: genes 17 Torsion [C]-CA--CB-[CG] |==|  0.35539
USER: genes 18 Torsion [CA]-CB--CG-[OD1] |==|  0.95738
USER: genes 19 Torsion [C]-CA--N-[C] |==|  0.58127
USER: genes 20 Torsion [N]-C--CA-[N] |==|  0.39622
USER: genes 21 Torsion [C]-CA--CB-[CG] |==|  0.16707
USER: genes 22 Torsion [CA]-CB--CG-[CD2] |==|  0.11472
ROOT
ATOM      1  C   PHE C 305      11.266   9.558  -7.434  0.50 34.66 LIG 0.24  C 
ATOM      2 O    PHE C 305      11.118   9.127  -8.574  0.50 33.80 LIG-0.27  OA
ATOM      3  N   PRO C 306      12.083   8.964  -6.542  0.50 35.29 LIG-0.34  N 
ATOM      4  CA  PRO C 306      12.421   7.559  -6.707  0.50 35.79 LIG 0.18  C 
ATOM      5  CB  PRO C 306      13.850   7.466  -6.123  0.50 35.80 LIG 0.04  C 
ATOM      6  CG  PRO C 306      14.138   8.840  -5.507  0.50 35.25 LIG 0.02  C 
ATOM      7  CD  PRO C 306      12.813   9.545  -5.405  0.50 35.51 LIG 0.13  C 
ENDROOT
BRANCH 4 8
ATOM      8  C   PRO C 306      11.482   6.687  -5.870  0.50 36.50 LIG 0.24  C 
ATOM      9  N   ILE C 307      12.071   5.727  -5.137  0.50 37.01 LIG-0.35  N 
ATOM     10 H    ILE C 307      12.910   5.540  -5.156  0.50 37.01 LIG 0.16  HD
ATOM     11 O    PRO C 306      10.248   6.894  -5.884  0.50 36.74 LIG-0.27  OA
BRANCH 9 12
ATOM     12  CA  ILE C 307      11.270   4.911  -4.224  0.50 37.44 LIG 0.18  C 
BRANCH 12 13
ATOM     13  C   ILE C 307      12.065   4.439  -3.005  0.50 38.23 LIG 0.24  C 
ATOM     14  N   SER C 308      11.330   3.924  -2.023  0.50 38.91 LIG-0.34  N 
ATOM     15 H    SER C 308      10.470   3.968  -2.010  0.50 38.91 LIG 0.16  HD
ATOM     16 O    ILE C 307      13.300   4.531  -2.966  0.50 38.79 LIG-0.27  OA
BRANCH 14 17
ATOM     17  CA  SER C 308      11.893   3.233  -0.866  0.50 39.43 LIG 0.20  C 
BRANCH 17 18
ATOM     18  C   SER C 308      10.707   2.591  -0.143  0.50 39.77 LIG 0.24  C 
ATOM     19  N   PRO C 309       9.743   3.409   0.315  0.50 40.03 LIG-0.34  N 
ATOM     20  CD  PRO C 309       9.474   4.801  -0.080  0.50 39.83 LIG 0.13  C 
ATOM     21  CA  PRO C 309       8.774   2.921   1.298  0.50 40.09 LIG 0.19  C 
ATOM     22  CG  PRO C 309       8.579   5.293   1.014  0.50 40.19 LIG 0.02  C 
ATOM     23  CB  PRO C 309       7.788   4.090   1.429  0.50 40.09 LIG 0.04  C 
ATOM     24 O    SER C 308      10.650   1.365  -0.011  0.50 39.81 LIG-0.27  OA
BRANCH 21 25
ATOM     25  C   PRO C 309       8.061   1.641   0.864  0.50 40.04 LIG 0.20  C 
ATOM     26 OXT  PRO C 309       7.809   1.414  -0.323  0.50 40.10 LIG-0.65  OA
ATOM     27 O    PRO C 309       7.707   0.803   1.696  0.50 40.34 LIG-0.65  OA
ENDBRANCH 21 25
ENDBRANCH 17 18
BRANCH 17 28
ATOM     28  CB  SER C 308      12.616   4.215   0.059  0.50 39.49 LIG 0.20  C 
BRANCH 28 29
ATOM     29 OG   SER C 308      12.530   5.546  -0.428  0.50 39.70 LIG-0.40  OA
ATOM     30 HG   SER C 308      11.772   5.674  -0.765  0.50 39.70 LIG 0.21  HD
ENDBRANCH 28 29
ENDBRANCH 17 28
ENDBRANCH 14 17
ENDBRANCH 12 13
BRANCH 12 31
ATOM     31  CB  ILE C 307      10.678   3.660  -4.917  0.50 37.20 LIG 0.01  C 
ATOM     32  CG2 ILE C 307       9.153   3.780  -5.057  0.50 36.86 LIG 0.01  C 
BRANCH 31 33
ATOM     33  CG1 ILE C 307      11.389   3.435  -6.263  0.50 35.88 LIG 0.00  C 
ATOM     34  CD1 ILE C 307      10.601   3.834  -7.487  0.50 32.01 LIG 0.01  C 
ENDBRANCH 31 33
ENDBRANCH 12 31
ENDBRANCH 9 12
ENDBRANCH 4 8
BRANCH 1 35
ATOM     35  CA  PHE C 305      10.537  10.837  -7.002  0.50 34.47 LIG 0.18  C 
BRANCH 35 36
ATOM     36  CB  PHE C 305      11.531  12.000  -7.142  0.50 34.49 LIG 0.07  C 
BRANCH 36 37
ATOM     37  CG  PHE C 305      10.965  13.256  -7.784  0.50 35.55 LIG-0.06  A 
ATOM     38  CD1 PHE C 305       9.649  13.321  -8.239  0.50 36.28 LIG 0.01  A 
ATOM     39  CE1 PHE C 305       9.150  14.489  -8.823  0.50 36.66 LIG 0.00  A 
ATOM     40  CZ  PHE C 305       9.977  15.607  -8.971  0.50 36.87 LIG 0.00  A 
ATOM     41  CE2 PHE C 305      11.287  15.556  -8.529  0.50 36.76 LIG 0.00  A 
ATOM     42  CD2 PHE C 305      11.780  14.378  -7.946  0.50 36.02 LIG 0.01  A 
ENDBRANCH 36 37
ENDBRANCH 35 36
BRANCH 35 43
ATOM     43  N   PHE C 305      10.020  10.819  -5.629  0.50 33.54 LIG-0.35  N 
ATOM     44 H    PHE C 305      10.495  11.256  -5.060  0.50 33.54 LIG 0.16  HD
ATOM     45  C   ASN C 304       8.899  10.164  -5.328  0.50 33.07 LIG 0.24  C 
ATOM     46 O    ASN C 304       8.434   9.272  -6.049  0.50 33.39 LIG-0.27  OA
BRANCH 45 47
ATOM     47  CA  ASN C 304       8.192  10.581  -4.031  0.50 32.40 LIG 0.18  C 
BRANCH 47 48
ATOM     48  CB  ASN C 304       7.771  12.058  -4.021  0.50 32.38 LIG 0.14  C 
BRANCH 48 49
ATOM     49  CG  ASN C 304       6.277  12.261  -3.665  0.50 31.77 LIG 0.22  C 
ATOM     50 OD1  ASN C 304       5.484  11.327  -3.695  0.50 27.48 LIG-0.27  OA
ATOM     51  ND2 ASN C 304       5.900  13.499  -3.372  0.50 32.56 LIG-0.37  N 
ATOM     52 21HD ASN C 304       5.075  13.668  -3.196  0.50 32.56 LIG 0.16  HD
ATOM     53 22HD ASN C 304       6.481  14.134  -3.358  0.50 32.56 LIG 0.16  HD
ENDBRANCH 48 49
ENDBRANCH 47 48
BRANCH 47 54
ATOM     54  N   ASN C 304       9.043  10.332  -2.893  0.50 31.56 LIG-0.34  N 
ATOM     55  C   LEU C 303       8.520  10.056  -1.708  0.50 30.83 LIG 0.26  C 
ATOM     56 O    LEU C 303       7.336   9.789  -1.559  0.50 29.02 LIG-0.27  OA
ATOM     57 H    ASN C 304       9.886  10.379  -3.054  0.50 31.56 LIG 0.16  HD
BRANCH 55 58
ATOM     58  CA  LEU C 303       9.495  10.084  -0.524  0.50 30.56 LIG 0.40  C 
ATOM     59  N   LEU C 303       8.906  10.636   0.726  0.50 30.88 LIG 0.61  N 
BRANCH 58 60
ATOM     60  CB  LEU C 303      10.083   8.692  -0.261  0.50 30.80 LIG 0.06  C 
BRANCH 60 61
ATOM     61  CG  LEU C 303      10.885   8.029  -1.388  0.50 30.92 LIG-0.02  C 
ATOM     62  CD2 LEU C 303      11.796   9.054  -2.088  0.50 31.43 LIG 0.01  C 
ATOM     63  CD1 LEU C 303       9.972   7.323  -2.375  0.50 30.50 LIG 0.01  C 
ENDBRANCH 60 61
ENDBRANCH 58 60
ENDBRANCH 55 58
ENDBRANCH 47 54
ENDBRANCH 45 47
ENDBRANCH 35 43
ENDBRANCH 1 35
TORSDOF 21
ENDMDL
MODEL 113
USER: ADFR SOLUTION from run 194
USER: SCORE 16.293629 LL:  -4.939 LR: -12.961 RR:   0.000 FEB:  -6.697
USER: RMSD 10.844129
USER: SEED 193
USER: STATUS no improvement in best in 16 clusters for 5 generations
USER: GENES 23
USER: genes 0 Translation |==|  0.40981 0.35564 0.34147
USER: genes 1 Rotation |==|  0.77079 0.13569 0.48064 0.70876
USER: genes 2 Torsion [N]-CA--C-[N] |==|  0.83555
USER: genes 3 Torsion [C]-N--CA-[C] |==|  0.54057
USER: genes 4 Torsion [N]-CA--C-[N] |==|  0.47400
USER: genes 5 Torsion [C]-N--CA-[CB] |==|  0.86573
USER: genes 6 Torsion [N]-CA--C-[N] |==|  0.43267
USER: genes 7 Torsion [N]-CA--C-[OXT] |==|  0.83702
USER: genes 8 Torsion [N]-CA--CB-[OG] |==|  0.72945
USER: genes 9 Torsion [CA]-CB--OG-[HG] |==|  0.35560
USER: genes 10 Torsion [N]-CA--CB-[CG2] |==|  0.25722
USER: genes 11 Torsion [CA]-CB--CG1-[CD1] |==|  0.18193
USER: genes 12 Torsion [N]-C--CA-[N] |==|  0.53889
USER: genes 13 Torsion [C]-CA--CB-[CG] |==|  0.48304
USER: genes 14 Torsion [CA]-CB--CG-[CD1] |==|  0.90431
USER: genes 15 Torsion [C]-CA--N-[C] |==|  0.64099
USER: genes 16 Torsion [N]-C--CA-[N] |==|  0.32697
USER: genes 17 Torsion [C]-CA--CB-[CG] |==|  0.30044
USER: genes 18 Torsion [CA]-CB--CG-[OD1] |==|  0.35530
USER: genes 19 Torsion [C]-CA--N-[C] |==|  0.59566
USER: genes 20 Torsion [N]-C--CA-[N] |==|  0.83635
USER: genes 21 Torsion [C]-CA--CB-[CG] |==|  0.04735
USER: genes 22 Torsion [CA]-CB--CG-[CD2] |==|  0.69818
ROOT
ATOM      1  C   PHE C 305      11.092   3.366  -3.484  0.50 34.66 LIG 0.24  C 
ATOM      2 O    PHE C 305      12.031   2.625  -3.210  0.50 33.80 LIG-0.27  OA
ATOM      3  N   PRO C 306      10.924   3.886  -4.716  0.50 35.29 LIG-0.34  N 
ATOM      4  CA  PRO C 306      12.070   4.005  -5.604  0.50 35.79 LIG 0.18  C 
ATOM      5  CB  PRO C 306      11.449   3.828  -7.009  0.50 35.80 LIG 0.04  C 
ATOM      6  CG  PRO C 306       9.932   3.790  -6.793  0.50 35.25 LIG 0.02  C 
ATOM      7  CD  PRO C 306       9.690   4.301  -5.399  0.50 35.51 LIG 0.13  C 
ENDROOT
BRANCH 4 8
ATOM      8  C   PRO C 306      12.678   5.405  -5.501  0.50 36.50 LIG 0.24  C 
ATOM      9  N   ILE C 307      11.858   6.425  -5.804  0.50 37.01 LIG-0.35  N 
ATOM     10 H    ILE C 307      11.056   6.339  -6.102  0.50 37.01 LIG 0.16  HD
ATOM     11 O    PRO C 306      13.867   5.551  -5.139  0.50 36.74 LIG-0.27  OA
BRANCH 9 12
ATOM     12  CA  ILE C 307      12.315   7.805  -5.633  0.50 37.44 LIG 0.18  C 
BRANCH 12 13
ATOM     13  C   ILE C 307      11.167   8.816  -5.678  0.50 38.23 LIG 0.24  C 
ATOM     14  N   SER C 308      11.501  10.057  -5.335  0.50 38.91 LIG-0.34  N 
ATOM     15 H    SER C 308      12.263  10.257  -4.990  0.50 38.91 LIG 0.16  HD
ATOM     16 O    ILE C 307      10.025   8.479  -6.022  0.50 38.79 LIG-0.27  OA
BRANCH 14 17
ATOM     17  CA  SER C 308      10.618  11.208  -5.502  0.50 39.43 LIG 0.20  C 
BRANCH 17 18
ATOM     18  C   SER C 308       9.516  11.048  -4.452  0.50 39.77 LIG 0.24  C 
ATOM     19  N   PRO C 309       8.879  12.162  -4.048  0.50 40.03 LIG-0.34  N 
ATOM     20  CD  PRO C 309       8.833  13.471  -4.718  0.50 39.83 LIG 0.13  C 
ATOM     21  CA  PRO C 309       8.075  12.143  -2.825  0.50 40.09 LIG 0.19  C 
ATOM     22  CG  PRO C 309       8.335  14.382  -3.639  0.50 40.19 LIG 0.02  C 
ATOM     23  CB  PRO C 309       7.419  13.530  -2.815  0.50 40.09 LIG 0.04  C 
ATOM     24 O    SER C 308       9.228   9.929  -4.018  0.50 39.81 LIG-0.27  OA
BRANCH 21 25
ATOM     25  C   PRO C 309       7.025  11.033  -2.806  0.50 40.04 LIG 0.20  C 
ATOM     26 OXT  PRO C 309       6.152  10.955  -3.676  0.50 40.10 LIG-0.65  OA
ATOM     27 O    PRO C 309       7.017  10.188  -1.908  0.50 40.34 LIG-0.65  OA
ENDBRANCH 21 25
ENDBRANCH 17 18
BRANCH 17 28
ATOM     28  CB  SER C 308      10.017  11.237  -6.909  0.50 39.49 LIG 0.20  C 
BRANCH 28 29
ATOM     29 OG   SER C 308      10.743  12.106  -7.767  0.50 39.70 LIG-0.40  OA
ATOM     30 HG   SER C 308      10.952  11.696  -8.470  0.50 39.70 LIG 0.21  HD
ENDBRANCH 28 29
ENDBRANCH 17 28
ENDBRANCH 14 17
ENDBRANCH 12 13
BRANCH 12 31
ATOM     31  CB  ILE C 307      13.353   8.219  -6.705  0.50 37.20 LIG 0.01  C 
ATOM     32  CG2 ILE C 307      12.663   8.882  -7.907  0.50 36.86 LIG 0.01  C 
BRANCH 31 33
ATOM     33  CG1 ILE C 307      14.427   9.113  -6.060  0.50 35.88 LIG 0.00  C 
ATOM     34  CD1 ILE C 307      15.293   8.439  -5.024  0.50 32.01 LIG 0.01  C 
ENDBRANCH 31 33
ENDBRANCH 12 31
ENDBRANCH 9 12
ENDBRANCH 4 8
BRANCH 1 35
ATOM     35  CA  PHE C 305      10.042   3.694  -2.415  0.50 34.47 LIG 0.18  C 
BRANCH 35 36
ATOM     36  CB  PHE C 305       9.748   5.199  -2.507  0.50 34.49 LIG 0.07  C 
BRANCH 36 37
ATOM     37  CG  PHE C 305       8.619   5.690  -1.617  0.50 35.55 LIG-0.06  A 
ATOM     38  CD1 PHE C 305       7.500   4.903  -1.347  0.50 36.28 LIG 0.01  A 
ATOM     39  CE1 PHE C 305       6.475   5.375  -0.522  0.50 36.66 LIG 0.00  A 
ATOM     40  CZ  PHE C 305       6.556   6.656   0.033  0.50 36.87 LIG 0.00  A 
ATOM     41  CE2 PHE C 305       7.658   7.450  -0.230  0.50 36.76 LIG 0.00  A 
ATOM     42  CD2 PHE C 305       8.681   6.969  -1.061  0.50 36.02 LIG 0.01  A 
ENDBRANCH 36 37
ENDBRANCH 35 36
BRANCH 35 43
ATOM     43  N   PHE C 305      10.442   3.374  -1.040  0.50 33.54 LIG-0.35  N 
ATOM     44 H    PHE C 305      11.210   3.684  -0.806  0.50 33.54 LIG 0.16  HD
ATOM     45  C   ASN C 304       9.647   2.656  -0.246  0.50 33.07 LIG 0.24  C 
ATOM     46 O    ASN C 304       8.742   1.935  -0.683  0.50 33.39 LIG-0.27  OA
BRANCH 45 47
ATOM     47  CA  ASN C 304       9.902   2.775   1.263  0.50 32.40 LIG 0.18  C 
BRANCH 47 48
ATOM     48  CB  ASN C 304      10.257   1.434   1.923  0.50 32.38 LIG 0.14  C 
BRANCH 48 49
ATOM     49  CG  ASN C 304      11.748   1.337   2.337  0.50 31.77 LIG 0.22  C 
ATOM     50 OD1  ASN C 304      12.072   1.019   3.475  0.50 27.48 LIG-0.27  OA
ATOM     51  ND2 ASN C 304      12.642   1.659   1.410  0.50 32.56 LIG-0.37  N 
ATOM     52 21HD ASN C 304      13.481   1.649   1.601  0.50 32.56 LIG 0.16  HD
ATOM     53 22HD ASN C 304      12.383   1.877   0.620  0.50 32.56 LIG 0.16  HD
ENDBRANCH 48 49
ENDBRANCH 47 48
BRANCH 47 54
ATOM     54  N   ASN C 304       8.746   3.328   1.927  0.50 31.56 LIG-0.34  N 
ATOM     55  C   LEU C 303       8.887   4.124   2.976  0.50 30.83 LIG 0.26  C 
ATOM     56 O    LEU C 303       9.967   4.598   3.300  0.50 29.02 LIG-0.27  OA
ATOM     57 H    ASN C 304       7.990   3.098   1.588  0.50 31.56 LIG 0.16  HD
BRANCH 55 58
ATOM     58  CA  LEU C 303       7.606   4.426   3.763  0.50 30.56 LIG 0.40  C 
ATOM     59  N   LEU C 303       6.539   5.069   2.950  0.50 30.88 LIG 0.61  N 
BRANCH 58 60
ATOM     60  CB  LEU C 303       7.065   3.161   4.441  0.50 30.80 LIG 0.06  C 
BRANCH 60 61
ATOM     61  CG  LEU C 303       8.014   1.965   4.587  0.50 30.92 LIG-0.02  C 
ATOM     62  CD2 LEU C 303       7.609   0.825   3.635  0.50 31.43 LIG 0.01  C 
ATOM     63  CD1 LEU C 303       8.091   1.492   6.028  0.50 30.50 LIG 0.01  C 
ENDBRANCH 60 61
ENDBRANCH 58 60
ENDBRANCH 55 58
ENDBRANCH 47 54
ENDBRANCH 45 47
ENDBRANCH 35 43
ENDBRANCH 1 35
TORSDOF 21
ENDMDL
MODEL 114
USER: ADFR SOLUTION from run 180
USER: SCORE 17.554976 LL:  -5.481 LR: -12.956 RR:   0.000 FEB:  -6.691
USER: RMSD 11.861304
USER: SEED 179
USER: STATUS no improvement in best in 17 clusters for 5 generations
USER: GENES 23
USER: genes 0 Translation |==|  0.40800 0.35922 0.33407
USER: genes 1 Rotation |==|  0.76611 0.11034 0.51642 0.66455
USER: genes 2 Torsion [N]-CA--C-[N] |==|  0.85354
USER: genes 3 Torsion [C]-N--CA-[C] |==|  0.61165
USER: genes 4 Torsion [N]-CA--C-[N] |==|  0.41667
USER: genes 5 Torsion [C]-N--CA-[CB] |==|  0.86305
USER: genes 6 Torsion [N]-CA--C-[N] |==|  0.35001
USER: genes 7 Torsion [N]-CA--C-[OXT] |==|  0.40302
USER: genes 8 Torsion [N]-CA--CB-[OG] |==|  0.81408
USER: genes 9 Torsion [CA]-CB--OG-[HG] |==|  0.24317
USER: genes 10 Torsion [N]-CA--CB-[CG2] |==|  0.81514
USER: genes 11 Torsion [CA]-CB--CG1-[CD1] |==|  0.30077
USER: genes 12 Torsion [N]-C--CA-[N] |==|  0.22248
USER: genes 13 Torsion [C]-CA--CB-[CG] |==|  0.34179
USER: genes 14 Torsion [CA]-CB--CG-[CD1] |==|  0.81702
USER: genes 15 Torsion [C]-CA--N-[C] |==|  0.70416
USER: genes 16 Torsion [N]-C--CA-[N] |==|  0.29013
USER: genes 17 Torsion [C]-CA--CB-[CG] |==|  0.21239
USER: genes 18 Torsion [CA]-CB--CG-[OD1] |==|  0.32948
USER: genes 19 Torsion [C]-CA--N-[C] |==|  0.75911
USER: genes 20 Torsion [N]-C--CA-[N] |==|  0.19051
USER: genes 21 Torsion [C]-CA--CB-[CG] |==|  0.27235
USER: genes 22 Torsion [CA]-CB--CG-[CD2] |==|  0.34060
ROOT
ATOM      1  C   PHE C 305      11.046   3.452  -3.634  0.50 34.66 LIG 0.24  C 
ATOM      2 O    PHE C 305      11.875   2.705  -3.123  0.50 33.80 LIG-0.27  OA
ATOM      3  N   PRO C 306      11.195   3.947  -4.879  0.50 35.29 LIG-0.34  N 
ATOM      4  CA  PRO C 306      12.526   4.032  -5.459  0.50 35.79 LIG 0.18  C 
ATOM      5  CB  PRO C 306      12.267   3.831  -6.971  0.50 35.80 LIG 0.04  C 
ATOM      6  CG  PRO C 306      10.743   3.818  -7.134  0.50 35.25 LIG 0.02  C 
ATOM      7  CD  PRO C 306      10.174   4.363  -5.852  0.50 35.51 LIG 0.13  C 
ENDROOT
BRANCH 4 8
ATOM      8  C   PRO C 306      13.115   5.426  -5.235  0.50 36.50 LIG 0.24  C 
ATOM      9  N   ILE C 307      12.349   6.457  -5.629  0.50 37.01 LIG-0.35  N 
ATOM     10 H    ILE C 307      11.599   6.382  -6.041  0.50 37.01 LIG 0.16  HD
ATOM     11 O    PRO C 306      14.240   5.557  -4.701  0.50 36.74 LIG-0.27  OA
BRANCH 9 12
ATOM     12  CA  ILE C 307      12.780   7.830  -5.360  0.50 37.44 LIG 0.18  C 
BRANCH 12 13
ATOM     13  C   ILE C 307      11.623   8.736  -4.931  0.50 38.23 LIG 0.24  C 
ATOM     14  N   SER C 308      11.963   9.726  -4.111  0.50 38.91 LIG-0.34  N 
ATOM     15 H    SER C 308      12.739   9.783  -3.744  0.50 38.91 LIG 0.16  HD
ATOM     16 O    ILE C 307      10.469   8.544  -5.340  0.50 38.79 LIG-0.27  OA
BRANCH 14 17
ATOM     17  CA  SER C 308      11.065  10.818  -3.745  0.50 39.43 LIG 0.20  C 
BRANCH 17 18
ATOM     18  C   SER C 308      10.000  10.198  -2.837  0.50 39.77 LIG 0.24  C 
ATOM     19  N   PRO C 309       9.807  10.765  -1.632  0.50 40.03 LIG-0.34  N 
ATOM     20  CD  PRO C 309      10.213  12.107  -1.188  0.50 39.83 LIG 0.13  C 
ATOM     21  CA  PRO C 309       9.073  10.042  -0.591  0.50 40.09 LIG 0.19  C 
ATOM     22  CG  PRO C 309      10.092  12.018   0.301  0.50 40.19 LIG 0.02  C 
ATOM     23  CB  PRO C 309       8.951  11.076   0.535  0.50 40.09 LIG 0.04  C 
ATOM     24 O    SER C 308       9.344   9.227  -3.222  0.50 39.81 LIG-0.27  OA
BRANCH 21 25
ATOM     25  C   PRO C 309       7.699   9.552  -1.047  0.50 40.04 LIG 0.20  C 
ATOM     26 OXT  PRO C 309       7.229   8.484  -0.646  0.50 40.10 LIG-0.65  OA
ATOM     27 O    PRO C 309       7.026  10.213  -1.842  0.50 40.34 LIG-0.65  OA
ENDBRANCH 21 25
ENDBRANCH 17 18
BRANCH 17 28
ATOM     28  CB  SER C 308      10.418  11.434  -4.987  0.50 39.49 LIG 0.20  C 
BRANCH 28 29
ATOM     29 OG   SER C 308      11.377  12.097  -5.798  0.50 39.70 LIG-0.40  OA
ATOM     30 HG   SER C 308      11.717  11.548  -6.335  0.50 39.70 LIG 0.21  HD
ENDBRANCH 28 29
ENDBRANCH 17 28
ENDBRANCH 14 17
ENDBRANCH 12 13
BRANCH 12 31
ATOM     31  CB  ILE C 307      13.464   8.484  -6.585  0.50 37.20 LIG 0.01  C 
ATOM     32  CG2 ILE C 307      14.796   7.788  -6.904  0.50 36.86 LIG 0.01  C 
BRANCH 31 33
ATOM     33  CG1 ILE C 307      12.488   8.489  -7.775  0.50 35.88 LIG 0.00  C 
ATOM     34  CD1 ILE C 307      11.929   9.841  -8.148  0.50 32.01 LIG 0.01  C 
ENDBRANCH 31 33
ENDBRANCH 12 31
ENDBRANCH 9 12
ENDBRANCH 4 8
BRANCH 1 35
ATOM     35  CA  PHE C 305       9.771   3.817  -2.862  0.50 34.47 LIG 0.18  C 
BRANCH 35 36
ATOM     36  CB  PHE C 305      10.066   3.611  -1.369  0.50 34.49 LIG 0.07  C 
BRANCH 36 37
ATOM     37  CG  PHE C 305       9.852   4.836  -0.495  0.50 35.55 LIG-0.06  A 
ATOM     38  CD1 PHE C 305      10.641   5.978  -0.624  0.50 36.28 LIG 0.01  A 
ATOM     39  CE1 PHE C 305      10.422   7.095   0.188  0.50 36.66 LIG 0.00  A 
ATOM     40  CZ  PHE C 305       9.412   7.071   1.154  0.50 36.87 LIG 0.00  A 
ATOM     41  CE2 PHE C 305       8.624   5.943   1.297  0.50 36.76 LIG 0.00  A 
ATOM     42  CD2 PHE C 305       8.851   4.826   0.479  0.50 36.02 LIG 0.01  A 
ENDBRANCH 36 37
ENDBRANCH 35 36
BRANCH 35 43
ATOM     43  N   PHE C 305       8.586   3.030  -3.222  0.50 33.54 LIG-0.35  N 
ATOM     44 H    PHE C 305       8.590   2.220  -2.933  0.50 33.54 LIG 0.16  HD
ATOM     45  C   ASN C 304       7.602   3.568  -3.944  0.50 33.07 LIG 0.24  C 
ATOM     46 O    ASN C 304       7.759   4.581  -4.636  0.50 33.39 LIG-0.27  OA
BRANCH 45 47
ATOM     47  CA  ASN C 304       6.238   2.868  -3.866  0.50 32.40 LIG 0.18  C 
BRANCH 47 48
ATOM     48  CB  ASN C 304       5.589   2.655  -5.242  0.50 32.38 LIG 0.14  C 
BRANCH 48 49
ATOM     49  CG  ASN C 304       6.222   1.485  -6.037  0.50 31.77 LIG 0.22  C 
ATOM     50 OD1  ASN C 304       5.558   0.509  -6.366  0.50 27.48 LIG-0.27  OA
ATOM     51  ND2 ASN C 304       7.520   1.579  -6.297  0.50 32.56 LIG-0.37  N 
ATOM     52 21HD ASN C 304       7.923   0.941  -6.711  0.50 32.56 LIG 0.16  HD
ATOM     53 22HD ASN C 304       7.958   2.277  -6.053  0.50 32.56 LIG 0.16  HD
ENDBRANCH 48 49
ENDBRANCH 47 48
BRANCH 47 54
ATOM     54  N   ASN C 304       5.331   3.624  -3.036  0.50 31.56 LIG-0.34  N 
ATOM     55  C   LEU C 303       5.304   3.441  -1.725  0.50 30.83 LIG 0.26  C 
ATOM     56 O    LEU C 303       6.164   2.803  -1.134  0.50 29.02 LIG-0.27  OA
ATOM     57 H    ASN C 304       4.832   4.181  -3.460  0.50 31.56 LIG 0.16  HD
BRANCH 55 58
ATOM     58  CA  LEU C 303       4.126   4.085  -0.984  0.50 30.56 LIG 0.40  C 
ATOM     59  N   LEU C 303       2.811   3.456  -1.286  0.50 30.88 LIG 0.61  N 
BRANCH 58 60
ATOM     60  CB  LEU C 303       4.369   4.100   0.530  0.50 30.80 LIG 0.06  C 
BRANCH 60 61
ATOM     61  CG  LEU C 303       4.904   5.393   1.157  0.50 30.92 LIG-0.02  C 
ATOM     62  CD2 LEU C 303       3.955   5.901   2.258  0.50 31.43 LIG 0.01  C 
ATOM     63  CD1 LEU C 303       5.160   6.455   0.102  0.50 30.50 LIG 0.01  C 
ENDBRANCH 60 61
ENDBRANCH 58 60
ENDBRANCH 55 58
ENDBRANCH 47 54
ENDBRANCH 45 47
ENDBRANCH 35 43
ENDBRANCH 1 35
TORSDOF 21
ENDMDL
MODEL 115
USER: ADFR SOLUTION from run 51
USER: SCORE 17.636125 LL:  -5.523 LR: -12.948 RR:   0.000 FEB:  -6.683
USER: RMSD 6.712016
USER: SEED 50
USER: STATUS no improvement in best in 28 clusters for 5 generations
USER: GENES 23
USER: genes 0 Translation |==|  0.42572 0.50033 0.27142
USER: genes 1 Rotation |==|  0.71426 0.89524 0.64392 0.66482
USER: genes 2 Torsion [N]-CA--C-[N] |==|  0.19097
USER: genes 3 Torsion [C]-N--CA-[C] |==|  0.59533
USER: genes 4 Torsion [N]-CA--C-[N] |==|  0.39537
USER: genes 5 Torsion [C]-N--CA-[CB] |==|  0.79972
USER: genes 6 Torsion [N]-CA--C-[N] |==|  0.13961
USER: genes 7 Torsion [N]-CA--C-[OXT] |==|  0.39344
USER: genes 8 Torsion [N]-CA--CB-[OG] |==|  0.70174
USER: genes 9 Torsion [CA]-CB--OG-[HG] |==|  0.83662
USER: genes 10 Torsion [N]-CA--CB-[CG2] |==|  0.27612
USER: genes 11 Torsion [CA]-CB--CG1-[CD1] |==|  0.56325
USER: genes 12 Torsion [N]-C--CA-[N] |==|  0.91723
USER: genes 13 Torsion [C]-CA--CB-[CG] |==|  0.10471
USER: genes 14 Torsion [CA]-CB--CG-[CD1] |==|  0.70921
USER: genes 15 Torsion [C]-CA--N-[C] |==|  0.80725
USER: genes 16 Torsion [N]-C--CA-[N] |==|  0.40901
USER: genes 17 Torsion [C]-CA--CB-[CG] |==|  0.44841
USER: genes 18 Torsion [CA]-CB--CG-[OD1] |==|  0.04648
USER: genes 19 Torsion [C]-CA--N-[C] |==|  0.81160
USER: genes 20 Torsion [N]-C--CA-[N] |==|  0.69198
USER: genes 21 Torsion [C]-CA--CB-[CG] |==|  0.18078
USER: genes 22 Torsion [CA]-CB--CG-[CD2] |==|  0.57001
ROOT
ATOM      1  C   PHE C 305      11.498   6.839  -4.903  0.50 34.66 LIG 0.24  C 
ATOM      2 O    PHE C 305      10.398   6.955  -5.436  0.50 33.80 LIG-0.27  OA
ATOM      3  N   PRO C 306      12.360   5.860  -5.241  0.50 35.29 LIG-0.34  N 
ATOM      4  CA  PRO C 306      11.855   4.644  -5.859  0.50 35.79 LIG 0.18  C 
ATOM      5  CB  PRO C 306      13.017   4.206  -6.781  0.50 35.80 LIG 0.04  C 
ATOM      6  CG  PRO C 306      14.180   5.154  -6.464  0.50 35.25 LIG 0.02  C 
ATOM      7  CD  PRO C 306      13.829   5.838  -5.172  0.50 35.51 LIG 0.13  C 
ENDROOT
BRANCH 4 8
ATOM      8  C   PRO C 306      11.626   3.566  -4.798  0.50 36.50 LIG 0.24  C 
ATOM      9  N   ILE C 307      10.619   3.795  -3.938  0.50 37.01 LIG-0.35  N 
ATOM     10 H    ILE C 307      10.151   4.515  -3.909  0.50 37.01 LIG 0.16  HD
ATOM     11 O    PRO C 306      12.344   2.542  -4.774  0.50 36.74 LIG-0.27  OA
BRANCH 9 12
ATOM     12  CA  ILE C 307      10.255   2.774  -2.954  0.50 37.44 LIG 0.18  C 
BRANCH 12 13
ATOM     13  C   ILE C 307       8.752   2.745  -2.666  0.50 38.23 LIG 0.24  C 
ATOM     14  N   SER C 308       8.241   1.530  -2.484  0.50 38.91 LIG-0.34  N 
ATOM     15 H    SER C 308       8.683   0.809  -2.642  0.50 38.91 LIG 0.16  HD
ATOM     16 O    ILE C 307       8.087   3.789  -2.603  0.50 38.79 LIG-0.27  OA
BRANCH 14 17
ATOM     17  CA  SER C 308       6.884   1.287  -2.002  0.50 39.43 LIG 0.20  C 
BRANCH 17 18
ATOM     18  C   SER C 308       5.974   2.191  -2.835  0.50 39.77 LIG 0.24  C 
ATOM     19  N   PRO C 309       6.113   2.147  -4.173  0.50 40.03 LIG-0.34  N 
ATOM     20  CD  PRO C 309       6.762   1.103  -4.981  0.50 39.83 LIG 0.13  C 
ATOM     21  CA  PRO C 309       5.540   3.207  -5.004  0.50 40.09 LIG 0.19  C 
ATOM     22  CG  PRO C 309       6.955   1.776  -6.304  0.50 40.19 LIG 0.02  C 
ATOM     23  CB  PRO C 309       5.787   2.705  -6.433  0.50 40.09 LIG 0.04  C 
ATOM     24 O    SER C 308       5.139   2.912  -2.282  0.50 39.81 LIG-0.27  OA
BRANCH 21 25
ATOM     25  C   PRO C 309       4.051   3.441  -4.748  0.50 40.04 LIG 0.20  C 
ATOM     26 OXT  PRO C 309       3.567   4.577  -4.751  0.50 40.10 LIG-0.65  OA
ATOM     27 O    PRO C 309       3.295   2.495  -4.518  0.50 40.34 LIG-0.65  OA
ENDBRANCH 21 25
ENDBRANCH 17 18
BRANCH 17 28
ATOM     28  CB  SER C 308       6.763   1.629  -0.515  0.50 39.49 LIG 0.20  C 
BRANCH 28 29
ATOM     29 OG   SER C 308       6.660   0.456   0.281  0.50 39.70 LIG-0.40  OA
ATOM     30 HG   SER C 308       5.988   0.013   0.041  0.50 39.70 LIG 0.21  HD
ENDBRANCH 28 29
ENDBRANCH 17 28
ENDBRANCH 14 17
ENDBRANCH 12 13
BRANCH 12 31
ATOM     31  CB  ILE C 307      10.991   2.964  -1.606  0.50 37.20 LIG 0.01  C 
ATOM     32  CG2 ILE C 307      10.086   3.664  -0.582  0.50 36.86 LIG 0.01  C 
BRANCH 31 33
ATOM     33  CG1 ILE C 307      11.517   1.604  -1.113  0.50 35.88 LIG 0.00  C 
ATOM     34  CD1 ILE C 307      11.768   1.507   0.372  0.50 32.01 LIG 0.01  C 
ENDBRANCH 31 33
ENDBRANCH 12 31
ENDBRANCH 9 12
ENDBRANCH 4 8
BRANCH 1 35
ATOM     35  CA  PHE C 305      11.940   7.854  -3.841  0.50 34.47 LIG 0.18  C 
BRANCH 35 36
ATOM     36  CB  PHE C 305      12.602   9.028  -4.578  0.50 34.49 LIG 0.07  C 
BRANCH 36 37
ATOM     37  CG  PHE C 305      11.951   9.410  -5.897  0.50 35.55 LIG-0.06  A 
ATOM     38  CD1 PHE C 305      12.525   9.080  -7.124  0.50 36.28 LIG 0.01  A 
ATOM     39  CE1 PHE C 305      11.904   9.439  -8.324  0.50 36.66 LIG 0.00  A 
ATOM     40  CZ  PHE C 305      10.701  10.150  -8.305  0.50 36.87 LIG 0.00  A 
ATOM     41  CE2 PHE C 305      10.121  10.489  -7.096  0.50 36.76 LIG 0.00  A 
ATOM     42  CD2 PHE C 305      10.752  10.126  -5.895  0.50 36.02 LIG 0.01  A 
ENDBRANCH 36 37
ENDBRANCH 35 36
BRANCH 35 43
ATOM     43  N   PHE C 305      12.881   7.332  -2.843  0.50 33.54 LIG-0.35  N 
ATOM     44 H    PHE C 305      13.679   7.650  -2.899  0.50 33.54 LIG 0.16  HD
ATOM     45  C   ASN C 304      12.489   6.437  -1.936  0.50 33.07 LIG 0.24  C 
ATOM     46 O    ASN C 304      11.477   5.741  -2.080  0.50 33.39 LIG-0.27  OA
BRANCH 45 47
ATOM     47  CA  ASN C 304      13.360   6.314  -0.678  0.50 32.40 LIG 0.18  C 
BRANCH 47 48
ATOM     48  CB  ASN C 304      14.476   5.267  -0.817  0.50 32.38 LIG 0.14  C 
BRANCH 48 49
ATOM     49  CG  ASN C 304      15.611   5.448   0.222  0.50 31.77 LIG 0.22  C 
ATOM     50 OD1  ASN C 304      15.451   6.134   1.225  0.50 27.48 LIG-0.27  OA
ATOM     51  ND2 ASN C 304      16.769   4.861  -0.056  0.50 32.56 LIG-0.37  N 
ATOM     52 21HD ASN C 304      17.438   4.957   0.477  0.50 32.56 LIG 0.16  HD
ATOM     53 22HD ASN C 304      16.850   4.385  -0.767  0.50 32.56 LIG 0.16  HD
ENDBRANCH 48 49
ENDBRANCH 47 48
BRANCH 47 54
ATOM     54  N   ASN C 304      12.548   5.978   0.466  0.50 31.56 LIG-0.34  N 
ATOM     55  C   LEU C 303      11.674   6.847   0.951  0.50 30.83 LIG 0.26  C 
ATOM     56 O    LEU C 303      11.358   7.865   0.351  0.50 29.02 LIG-0.27  OA
ATOM     57 H    ASN C 304      12.682   5.191   0.787  0.50 31.56 LIG 0.16  HD
BRANCH 55 58
ATOM     58  CA  LEU C 303      11.072   6.497   2.318  0.50 30.56 LIG 0.40  C 
ATOM     59  N   LEU C 303       9.628   6.141   2.264  0.50 30.88 LIG 0.61  N 
BRANCH 58 60
ATOM     60  CB  LEU C 303      11.868   5.379   3.001  0.50 30.80 LIG 0.06  C 
BRANCH 60 61
ATOM     61  CG  LEU C 303      13.317   5.676   3.405  0.50 30.92 LIG-0.02  C 
ATOM     62  CD2 LEU C 303      14.142   4.377   3.477  0.50 31.43 LIG 0.01  C 
ATOM     63  CD1 LEU C 303      13.380   6.453   4.708  0.50 30.50 LIG 0.01  C 
ENDBRANCH 60 61
ENDBRANCH 58 60
ENDBRANCH 55 58
ENDBRANCH 47 54
ENDBRANCH 45 47
ENDBRANCH 35 43
ENDBRANCH 1 35
TORSDOF 21
ENDMDL
MODEL 116
USER: ADFR SOLUTION from run 101
USER: SCORE 18.221591 LL:  -5.824 LR: -12.942 RR:   0.000 FEB:  -6.678
USER: RMSD 11.582402
USER: SEED 100
USER: STATUS no improvement in best in 10 clusters for 5 generations
USER: GENES 23
USER: genes 0 Translation |==|  0.34538 0.79541 0.30511
USER: genes 1 Rotation |==|  0.85739 0.78273 0.29517 0.51938
USER: genes 2 Torsion [N]-CA--C-[N] |==|  0.85037
USER: genes 3 Torsion [C]-N--CA-[C] |==|  0.77778
USER: genes 4 Torsion [N]-CA--C-[N] |==|  0.26416
USER: genes 5 Torsion [C]-N--CA-[CB] |==|  0.17766
USER: genes 6 Torsion [N]-CA--C-[N] |==|  0.11234
USER: genes 7 Torsion [N]-CA--C-[OXT] |==|  0.33291
USER: genes 8 Torsion [N]-CA--CB-[OG] |==|  0.57773
USER: genes 9 Torsion [CA]-CB--OG-[HG] |==|  0.74904
USER: genes 10 Torsion [N]-CA--CB-[CG2] |==|  0.60167
USER: genes 11 Torsion [CA]-CB--CG1-[CD1] |==|  0.28949
USER: genes 12 Torsion [N]-C--CA-[N] |==|  0.94061
USER: genes 13 Torsion [C]-CA--CB-[CG] |==|  0.37178
USER: genes 14 Torsion [CA]-CB--CG-[CD1] |==|  0.40708
USER: genes 15 Torsion [C]-CA--N-[C] |==|  0.75160
USER: genes 16 Torsion [N]-C--CA-[N] |==|  0.01459
USER: genes 17 Torsion [C]-CA--CB-[CG] |==|  0.56742
USER: genes 18 Torsion [CA]-CB--CG-[OD1] |==|  0.89054
USER: genes 19 Torsion [C]-CA--N-[C] |==|  0.70772
USER: genes 20 Torsion [N]-C--CA-[N] |==|  0.50840
USER: genes 21 Torsion [C]-CA--CB-[CG] |==|  0.76762
USER: genes 22 Torsion [CA]-CB--CG-[CD2] |==|  0.62607
ROOT
ATOM      1  C   PHE C 305       9.449  13.921  -4.220  0.50 34.66 LIG 0.24  C 
ATOM      2 O    PHE C 305       9.000  15.037  -3.979  0.50 33.80 LIG-0.27  OA
ATOM      3  N   PRO C 306       8.801  12.794  -3.867  0.50 35.29 LIG-0.34  N 
ATOM      4  CA  PRO C 306       7.834  12.836  -2.781  0.50 35.79 LIG 0.18  C 
ATOM      5  CB  PRO C 306       6.802  11.757  -3.183  0.50 35.80 LIG 0.04  C 
ATOM      6  CG  PRO C 306       7.386  11.062  -4.418  0.50 35.25 LIG 0.02  C 
ATOM      7  CD  PRO C 306       8.835  11.459  -4.483  0.50 35.51 LIG 0.13  C 
ENDROOT
BRANCH 4 8
ATOM      8  C   PRO C 306       8.497  12.425  -1.465  0.50 36.50 LIG 0.24  C 
ATOM      9  N   ILE C 307       9.137  11.243  -1.473  0.50 37.01 LIG-0.35  N 
ATOM     10 H    ILE C 307       9.144  10.693  -2.134  0.50 37.01 LIG 0.16  HD
ATOM     11 O    PRO C 306       8.437  13.178  -0.467  0.50 36.74 LIG-0.27  OA
BRANCH 9 12
ATOM     12  CA  ILE C 307       9.891  10.813  -0.295  0.50 37.44 LIG 0.18  C 
BRANCH 12 13
ATOM     13  C   ILE C 307      11.271  11.468  -0.209  0.50 38.23 LIG 0.24  C 
ATOM     14  N   SER C 308      11.325  12.562   0.546  0.50 38.91 LIG-0.34  N 
ATOM     15 H    SER C 308      10.623  12.950   0.857  0.50 38.91 LIG 0.16  HD
ATOM     16 O    ILE C 307      12.250  10.988  -0.799  0.50 38.79 LIG-0.27  OA
BRANCH 14 17
ATOM     17  CA  SER C 308      12.571  13.222   0.927  0.50 39.43 LIG 0.20  C 
BRANCH 17 18
ATOM     18  C   SER C 308      12.171  14.364   1.864  0.50 39.77 LIG 0.24  C 
ATOM     19  N   PRO C 309      11.201  14.118   2.763  0.50 40.03 LIG-0.34  N 
ATOM     20  CD  PRO C 309      10.707  12.811   3.226  0.50 39.83 LIG 0.13  C 
ATOM     21  CA  PRO C 309      10.533  15.228   3.444  0.50 40.09 LIG 0.19  C 
ATOM     22  CG  PRO C 309       9.410  13.158   3.887  0.50 40.19 LIG 0.02  C 
ATOM     23  CB  PRO C 309       9.631  14.523   4.466  0.50 40.09 LIG 0.04  C 
ATOM     24 O    SER C 308      12.741  15.457   1.791  0.50 39.81 LIG-0.27  OA
BRANCH 21 25
ATOM     25  C   PRO C 309      11.502  16.190   4.130  0.50 40.04 LIG 0.20  C 
ATOM     26 OXT  PRO C 309      11.556  17.383   3.820  0.50 40.10 LIG-0.65  OA
ATOM     27 O    PRO C 309      12.270  15.791   5.009  0.50 40.34 LIG-0.65  OA
ENDBRANCH 21 25
ENDBRANCH 17 18
BRANCH 17 28
ATOM     28  CB  SER C 308      13.300  13.768  -0.303  0.50 39.49 LIG 0.20  C 
BRANCH 28 29
ATOM     29 OG   SER C 308      14.703  13.821  -0.094  0.50 39.70 LIG-0.40  OA
ATOM     30 HG   SER C 308      14.911  14.569   0.229  0.50 39.70 LIG 0.21  HD
ENDBRANCH 28 29
ENDBRANCH 17 28
ENDBRANCH 14 17
ENDBRANCH 12 13
BRANCH 12 31
ATOM     31  CB  ILE C 307      10.091   9.279  -0.251  0.50 37.20 LIG 0.01  C 
ATOM     32  CG2 ILE C 307      10.012   8.757   1.192  0.50 36.86 LIG 0.01  C 
BRANCH 31 33
ATOM     33  CG1 ILE C 307       9.078   8.603  -1.191  0.50 35.88 LIG 0.00  C 
ATOM     34  CD1 ILE C 307       9.641   8.103  -2.499  0.50 32.01 LIG 0.01  C 
ENDBRANCH 31 33
ENDBRANCH 12 31
ENDBRANCH 9 12
ENDBRANCH 4 8
BRANCH 1 35
ATOM     35  CA  PHE C 305      10.773  13.781  -4.984  0.50 34.47 LIG 0.18  C 
BRANCH 35 36
ATOM     36  CB  PHE C 305      10.469  14.007  -6.473  0.50 34.49 LIG 0.07  C 
BRANCH 36 37
ATOM     37  CG  PHE C 305      11.430  14.939  -7.192  0.50 35.55 LIG-0.06  A 
ATOM     38  CD1 PHE C 305      11.765  14.758  -8.533  0.50 36.28 LIG 0.01  A 
ATOM     39  CE1 PHE C 305      12.649  15.631  -9.174  0.50 36.66 LIG 0.00  A 
ATOM     40  CZ  PHE C 305      13.219  16.694  -8.468  0.50 36.87 LIG 0.00  A 
ATOM     41  CE2 PHE C 305      12.900  16.884  -7.135  0.50 36.76 LIG 0.00  A 
ATOM     42  CD2 PHE C 305      12.014  16.001  -6.498  0.50 36.02 LIG 0.01  A 
ENDBRANCH 36 37
ENDBRANCH 35 36
BRANCH 35 43
ATOM     43  N   PHE C 305      11.440  12.484  -4.829  0.50 33.54 LIG-0.35  N 
ATOM     44 H    PHE C 305      11.223  11.895  -5.418  0.50 33.54 LIG 0.16  HD
ATOM     45  C   ASN C 304      12.310  12.275  -3.840  0.50 33.07 LIG 0.24  C 
ATOM     46 O    ASN C 304      12.346  12.979  -2.824  0.50 33.39 LIG-0.27  OA
BRANCH 45 47
ATOM     47  CA  ASN C 304      13.289  11.108  -4.028  0.50 32.40 LIG 0.18  C 
BRANCH 47 48
ATOM     48  CB  ASN C 304      14.758  11.515  -3.835  0.50 32.38 LIG 0.14  C 
BRANCH 48 49
ATOM     49  CG  ASN C 304      15.749  10.580  -4.573  0.50 31.77 LIG 0.22  C 
ATOM     50 OD1  ASN C 304      15.570   9.368  -4.610  0.50 27.48 LIG-0.27  OA
ATOM     51  ND2 ASN C 304      16.814  11.155  -5.116  0.50 32.56 LIG-0.37  N 
ATOM     52 21HD ASN C 304      17.408  10.674  -5.511  0.50 32.56 LIG 0.16  HD
ATOM     53 22HD ASN C 304      16.910  12.009  -5.074  0.50 32.56 LIG 0.16  HD
ENDBRANCH 48 49
ENDBRANCH 47 48
BRANCH 47 54
ATOM     54  N   ASN C 304      13.136  10.529  -5.341  0.50 31.56 LIG-0.34  N 
ATOM     55  C   LEU C 303      12.526   9.364  -5.498  0.50 30.83 LIG 0.26  C 
ATOM     56 O    LEU C 303      11.886   8.833  -4.602  0.50 29.02 LIG-0.27  OA
ATOM     57 H    ASN C 304      13.466  10.996  -5.983  0.50 31.56 LIG 0.16  HD
BRANCH 55 58
ATOM     58  CA  LEU C 303      12.663   8.719  -6.883  0.50 30.56 LIG 0.40  C 
ATOM     59  N   LEU C 303      11.902   7.448  -7.031  0.50 30.88 LIG 0.61  N 
BRANCH 58 60
ATOM     60  CB  LEU C 303      12.271   9.703  -7.991  0.50 30.80 LIG 0.06  C 
BRANCH 60 61
ATOM     61  CG  LEU C 303      10.782   9.840  -8.333  0.50 30.92 LIG-0.02  C 
ATOM     62  CD2 LEU C 303      10.568   9.828  -9.858  0.50 31.43 LIG 0.01  C 
ATOM     63  CD1 LEU C 303      10.177  11.076  -7.691  0.50 30.50 LIG 0.01  C 
ENDBRANCH 60 61
ENDBRANCH 58 60
ENDBRANCH 55 58
ENDBRANCH 47 54
ENDBRANCH 45 47
ENDBRANCH 35 43
ENDBRANCH 1 35
TORSDOF 21
ENDMDL
MODEL 117
USER: ADFR SOLUTION from run 65
USER: SCORE 18.236386 LL:  -6.238 LR: -12.925 RR:   0.000 FEB:  -6.661
USER: RMSD 8.418701
USER: SEED 64
USER: STATUS no improvement in best in 18 clusters for 5 generations
USER: GENES 23
USER: genes 0 Translation |==|  0.38987 0.47894 0.27013
USER: genes 1 Rotation |==|  0.72898 0.85780 0.68581 0.68714
USER: genes 2 Torsion [N]-CA--C-[N] |==|  0.20240
USER: genes 3 Torsion [C]-N--CA-[C] |==|  0.79937
USER: genes 4 Torsion [N]-CA--C-[N] |==|  0.43046
USER: genes 5 Torsion [C]-N--CA-[CB] |==|  0.57222
USER: genes 6 Torsion [N]-CA--C-[N] |==|  0.81995
USER: genes 7 Torsion [N]-CA--C-[OXT] |==|  0.38582
USER: genes 8 Torsion [N]-CA--CB-[OG] |==|  0.98203
USER: genes 9 Torsion [CA]-CB--OG-[HG] |==|  0.90887
USER: genes 10 Torsion [N]-CA--CB-[CG2] |==|  0.71615
USER: genes 11 Torsion [CA]-CB--CG1-[CD1] |==|  0.25090
USER: genes 12 Torsion [N]-C--CA-[N] |==|  0.90596
USER: genes 13 Torsion [C]-CA--CB-[CG] |==|  0.07530
USER: genes 14 Torsion [CA]-CB--CG-[CD1] |==|  0.70187
USER: genes 15 Torsion [C]-CA--N-[C] |==|  0.83644
USER: genes 16 Torsion [N]-C--CA-[N] |==|  0.36909
USER: genes 17 Torsion [C]-CA--CB-[CG] |==|  0.86077
USER: genes 18 Torsion [CA]-CB--CG-[OD1] |==|  0.24306
USER: genes 19 Torsion [C]-CA--N-[C] |==|  0.74061
USER: genes 20 Torsion [N]-C--CA-[N] |==|  0.33869
USER: genes 21 Torsion [C]-CA--CB-[CG] |==|  0.11278
USER: genes 22 Torsion [CA]-CB--CG-[CD2] |==|  0.71483
ROOT
ATOM      1  C   PHE C 305      10.584   6.326  -4.929  0.50 34.66 LIG 0.24  C 
ATOM      2 O    PHE C 305       9.608   6.623  -5.612  0.50 33.80 LIG-0.27  OA
ATOM      3  N   PRO C 306      11.425   5.331  -5.273  0.50 35.29 LIG-0.34  N 
ATOM      4  CA  PRO C 306      10.960   4.274  -6.156  0.50 35.79 LIG 0.18  C 
ATOM      5  CB  PRO C 306      12.236   3.869  -6.930  0.50 35.80 LIG 0.04  C 
ATOM      6  CG  PRO C 306      13.384   4.646  -6.273  0.50 35.25 LIG 0.02  C 
ATOM      7  CD  PRO C 306      12.853   5.161  -4.964  0.50 35.51 LIG 0.13  C 
ENDROOT
BRANCH 4 8
ATOM      8  C   PRO C 306      10.471   3.076  -5.338  0.50 36.50 LIG 0.24  C 
ATOM      9  N   ILE C 307       9.300   3.240  -4.701  0.50 37.01 LIG-0.35  N 
ATOM     10 H    ILE C 307       8.852   3.973  -4.676  0.50 37.01 LIG 0.16  HD
ATOM     11 O    PRO C 306      11.144   2.022  -5.300  0.50 36.74 LIG-0.27  OA
BRANCH 9 12
ATOM     12  CA  ILE C 307       8.699   2.117  -3.980  0.50 37.44 LIG 0.18  C 
BRANCH 12 13
ATOM     13  C   ILE C 307       8.132   1.050  -4.920  0.50 38.23 LIG 0.24  C 
ATOM     14  N   SER C 308       8.057  -0.171  -4.399  0.50 38.91 LIG-0.34  N 
ATOM     15 H    SER C 308       8.416  -0.381  -3.645  0.50 38.91 LIG 0.16  HD
ATOM     16 O    ILE C 307       7.767   1.333  -6.070  0.50 38.79 LIG-0.27  OA
BRANCH 14 17
ATOM     17  CA  SER C 308       7.366  -1.285  -5.042  0.50 39.43 LIG 0.20  C 
BRANCH 17 18
ATOM     18  C   SER C 308       6.167  -0.671  -5.770  0.50 39.77 LIG 0.24  C 
ATOM     19  N   PRO C 309       5.213  -0.096  -5.016  0.50 40.03 LIG-0.34  N 
ATOM     20  CD  PRO C 309       5.311   0.349  -3.617  0.50 39.83 LIG 0.13  C 
ATOM     21  CA  PRO C 309       3.900   0.198  -5.594  0.50 40.09 LIG 0.19  C 
ATOM     22  CG  PRO C 309       3.878   0.524  -3.221  0.50 40.19 LIG 0.02  C 
ATOM     23  CB  PRO C 309       3.187   0.967  -4.474  0.50 40.09 LIG 0.04  C 
ATOM     24 O    SER C 308       6.107  -0.698  -7.003  0.50 39.81 LIG-0.27  OA
BRANCH 21 25
ATOM     25  C   PRO C 309       3.974   1.026  -6.877  0.50 40.04 LIG 0.20  C 
ATOM     26 OXT  PRO C 309       3.248   0.782  -7.845  0.50 40.10 LIG-0.65  OA
ATOM     27 O    PRO C 309       4.775   1.958  -6.980  0.50 40.34 LIG-0.65  OA
ENDBRANCH 21 25
ENDBRANCH 17 18
BRANCH 17 28
ATOM     28  CB  SER C 308       6.896  -2.309  -4.007  0.50 39.49 LIG 0.20  C 
BRANCH 28 29
ATOM     29 OG   SER C 308       7.378  -1.994  -2.709  0.50 39.70 LIG-0.40  OA
ATOM     30 HG   SER C 308       8.132  -1.630  -2.770  0.50 39.70 LIG 0.21  HD
ENDBRANCH 28 29
ENDBRANCH 17 28
ENDBRANCH 14 17
ENDBRANCH 12 13
BRANCH 12 31
ATOM     31  CB  ILE C 307       7.561   2.566  -3.032  0.50 37.20 LIG 0.01  C 
ATOM     32  CG2 ILE C 307       8.045   2.606  -1.575  0.50 36.86 LIG 0.01  C 
BRANCH 31 33
ATOM     33  CG1 ILE C 307       6.994   3.914  -3.514  0.50 35.88 LIG 0.00  C 
ATOM     34  CD1 ILE C 307       5.844   3.822  -4.487  0.50 32.01 LIG 0.01  C 
ENDBRANCH 31 33
ENDBRANCH 12 31
ENDBRANCH 9 12
ENDBRANCH 4 8
BRANCH 1 35
ATOM     35  CA  PHE C 305      10.895   7.126  -3.657  0.50 34.47 LIG 0.18  C 
BRANCH 35 36
ATOM     36  CB  PHE C 305      11.840   8.270  -4.056  0.50 34.49 LIG 0.07  C 
BRANCH 36 37
ATOM     37  CG  PHE C 305      11.716   8.734  -5.498  0.50 35.55 LIG-0.06  A 
ATOM     38  CD1 PHE C 305      12.692   8.444  -6.451  0.50 36.28 LIG 0.01  A 
ATOM     39  CE1 PHE C 305      12.553   8.879  -7.772  0.50 36.66 LIG 0.00  A 
ATOM     40  CZ  PHE C 305      11.434   9.626  -8.150  0.50 36.87 LIG 0.00  A 
ATOM     41  CE2 PHE C 305      10.460   9.926  -7.215  0.50 36.76 LIG 0.00  A 
ATOM     42  CD2 PHE C 305      10.607   9.488  -5.890  0.50 36.02 LIG 0.01  A 
ENDBRANCH 36 37
ENDBRANCH 35 36
BRANCH 35 43
ATOM     43  N   PHE C 305      11.520   6.351  -2.579  0.50 33.54 LIG-0.35  N 
ATOM     44 H    PHE C 305      12.289   6.642  -2.325  0.50 33.54 LIG 0.16  HD
ATOM     45  C   ASN C 304      10.909   5.286  -2.059  0.50 33.07 LIG 0.24  C 
ATOM     46 O    ASN C 304      10.005   4.682  -2.649  0.50 33.39 LIG-0.27  OA
BRANCH 45 47
ATOM     47  CA  ASN C 304      11.380   4.842  -0.668  0.50 32.40 LIG 0.18  C 
BRANCH 47 48
ATOM     48  CB  ASN C 304      12.255   3.580  -0.700  0.50 32.38 LIG 0.14  C 
BRANCH 48 49
ATOM     49  CG  ASN C 304      11.625   2.425  -1.520  0.50 31.77 LIG 0.22  C 
ATOM     50 OD1  ASN C 304      11.808   2.331  -2.729  0.50 27.48 LIG-0.27  OA
ATOM     51  ND2 ASN C 304      10.849   1.580  -0.854  0.50 32.56 LIG-0.37  N 
ATOM     52 21HD ASN C 304      10.453   0.940  -1.271  0.50 32.56 LIG 0.16  HD
ATOM     53 22HD ASN C 304      10.741   1.672  -0.006  0.50 32.56 LIG 0.16  HD
ENDBRANCH 48 49
ENDBRANCH 47 48
BRANCH 47 54
ATOM     54  N   ASN C 304      10.247   4.599   0.192  0.50 31.56 LIG-0.34  N 
ATOM     55  C   LEU C 303       9.782   5.555   0.983  0.50 30.83 LIG 0.26  C 
ATOM     56 O    LEU C 303      10.133   6.721   0.877  0.50 29.02 LIG-0.27  OA
ATOM     57 H    ASN C 304       9.917   3.806   0.142  0.50 31.56 LIG 0.16  HD
BRANCH 55 58
ATOM     58  CA  LEU C 303       8.766   5.111   2.043  0.50 30.56 LIG 0.40  C 
ATOM     59  N   LEU C 303       9.181   5.419   3.439  0.50 30.88 LIG 0.61  N 
BRANCH 58 60
ATOM     60  CB  LEU C 303       7.381   5.704   1.760  0.50 30.80 LIG 0.06  C 
BRANCH 60 61
ATOM     61  CG  LEU C 303       6.904   5.747   0.303  0.50 30.92 LIG-0.02  C 
ATOM     62  CD2 LEU C 303       7.038   7.168  -0.274  0.50 31.43 LIG 0.01  C 
ATOM     63  CD1 LEU C 303       5.487   5.218   0.168  0.50 30.50 LIG 0.01  C 
ENDBRANCH 60 61
ENDBRANCH 58 60
ENDBRANCH 55 58
ENDBRANCH 47 54
ENDBRANCH 45 47
ENDBRANCH 35 43
ENDBRANCH 1 35
TORSDOF 21
ENDMDL
MODEL 118
USER: ADFR SOLUTION from run 147
USER: SCORE 17.494314 LL:  -5.884 LR: -12.915 RR:   0.000 FEB:  -6.650
USER: RMSD 9.621350
USER: SEED 146
USER: STATUS no improvement in best in 7 clusters for 5 generations
USER: GENES 23
USER: genes 0 Translation |==|  0.43633 0.34805 0.32232
USER: genes 1 Rotation |==|  0.77646 0.31855 0.29571 0.81450
USER: genes 2 Torsion [N]-CA--C-[N] |==|  0.20822
USER: genes 3 Torsion [C]-N--CA-[C] |==|  0.85104
USER: genes 4 Torsion [N]-CA--C-[N] |==|  0.35250
USER: genes 5 Torsion [C]-N--CA-[CB] |==|  0.17967
USER: genes 6 Torsion [N]-CA--C-[N] |==|  0.83426
USER: genes 7 Torsion [N]-CA--C-[OXT] |==|  0.89359
USER: genes 8 Torsion [N]-CA--CB-[OG] |==|  0.63502
USER: genes 9 Torsion [CA]-CB--OG-[HG] |==|  0.89517
USER: genes 10 Torsion [N]-CA--CB-[CG2] |==|  0.08626
USER: genes 11 Torsion [CA]-CB--CG1-[CD1] |==|  0.34293
USER: genes 12 Torsion [N]-C--CA-[N] |==|  0.86246
USER: genes 13 Torsion [C]-CA--CB-[CG] |==|  0.51501
USER: genes 14 Torsion [CA]-CB--CG-[CD1] |==|  0.24191
USER: genes 15 Torsion [C]-CA--N-[C] |==|  0.82397
USER: genes 16 Torsion [N]-C--CA-[N] |==|  0.83889
USER: genes 17 Torsion [C]-CA--CB-[CG] |==|  0.26678
USER: genes 18 Torsion [CA]-CB--CG-[OD1] |==|  0.27736
USER: genes 19 Torsion [C]-CA--N-[C] |==|  0.80874
USER: genes 20 Torsion [N]-C--CA-[N] |==|  0.50181
USER: genes 21 Torsion [C]-CA--CB-[CG] |==|  0.81680
USER: genes 22 Torsion [CA]-CB--CG-[CD2] |==|  0.69421
ROOT
ATOM      1  C   PHE C 305      11.768   3.184  -3.872  0.50 34.66 LIG 0.24  C 
ATOM      2 O    PHE C 305      12.403   2.689  -4.799  0.50 33.80 LIG-0.27  OA
ATOM      3  N   PRO C 306      10.650   3.908  -4.073  0.50 35.29 LIG-0.34  N 
ATOM      4  CA  PRO C 306      10.431   4.543  -5.363  0.50 35.79 LIG 0.18  C 
ATOM      5  CB  PRO C 306       8.891   4.531  -5.508  0.50 35.80 LIG 0.04  C 
ATOM      6  CG  PRO C 306       8.351   4.025  -4.166  0.50 35.25 LIG 0.02  C 
ATOM      7  CD  PRO C 306       9.491   4.111  -3.190  0.50 35.51 LIG 0.13  C 
ENDROOT
BRANCH 4 8
ATOM      8  C   PRO C 306      10.918   5.993  -5.330  0.50 36.50 LIG 0.24  C 
ATOM      9  N   ILE C 307      12.250   6.165  -5.369  0.50 37.01 LIG-0.35  N 
ATOM     10 H    ILE C 307      12.829   5.530  -5.350  0.50 37.01 LIG 0.16  HD
ATOM     11 O    PRO C 306      10.095   6.934  -5.283  0.50 36.74 LIG-0.27  OA
BRANCH 9 12
ATOM     12  CA  ILE C 307      12.809   7.516  -5.448  0.50 37.44 LIG 0.18  C 
BRANCH 12 13
ATOM     13  C   ILE C 307      12.233   8.323  -6.614  0.50 38.23 LIG 0.24  C 
ATOM     14  N   SER C 308      11.731   9.508  -6.280  0.50 38.91 LIG-0.34  N 
ATOM     15 H    SER C 308      11.616   9.753  -5.463  0.50 38.91 LIG 0.16  HD
ATOM     16 O    ILE C 307      12.256   7.886  -7.774  0.50 38.79 LIG-0.27  OA
BRANCH 14 17
ATOM     17  CA  SER C 308      11.321  10.517  -7.253  0.50 39.43 LIG 0.20  C 
BRANCH 17 18
ATOM     18  C   SER C 308      10.921  11.748  -6.436  0.50 39.77 LIG 0.24  C 
ATOM     19  N   PRO C 309       9.921  11.605  -5.548  0.50 40.03 LIG-0.34  N 
ATOM     20  CD  PRO C 309       9.385  10.356  -4.983  0.50 39.83 LIG 0.13  C 
ATOM     21  CA  PRO C 309       9.259  12.787  -4.992  0.50 40.09 LIG 0.19  C 
ATOM     22  CG  PRO C 309       8.078  10.789  -4.394  0.50 40.19 LIG 0.02  C 
ATOM     23  CB  PRO C 309       8.314  12.196  -3.937  0.50 40.09 LIG 0.04  C 
ATOM     24 O    SER C 308      11.517  12.818  -6.592  0.50 39.81 LIG-0.27  OA
BRANCH 21 25
ATOM     25  C   PRO C 309      10.231  13.788  -4.367  0.50 40.04 LIG 0.20  C 
ATOM     26 OXT  PRO C 309      11.217  13.415  -3.725  0.50 40.10 LIG-0.65  OA
ATOM     27 O    PRO C 309      10.045  15.002  -4.481  0.50 40.34 LIG-0.65  OA
ENDBRANCH 21 25
ENDBRANCH 17 18
BRANCH 17 28
ATOM     28  CB  SER C 308      10.139  10.022  -8.089  0.50 39.49 LIG 0.20  C 
BRANCH 28 29
ATOM     29 OG   SER C 308      10.363  10.226  -9.477  0.50 39.70 LIG-0.40  OA
ATOM     30 HG   SER C 308      10.761  10.957  -9.592  0.50 39.70 LIG 0.21  HD
ENDBRANCH 28 29
ENDBRANCH 17 28
ENDBRANCH 14 17
ENDBRANCH 12 13
BRANCH 12 31
ATOM     31  CB  ILE C 307      14.350   7.509  -5.592  0.50 37.20 LIG 0.01  C 
ATOM     32  CG2 ILE C 307      14.823   6.262  -6.356  0.50 36.86 LIG 0.01  C 
BRANCH 31 33
ATOM     33  CG1 ILE C 307      14.810   8.824  -6.246  0.50 35.88 LIG 0.00  C 
ATOM     34  CD1 ILE C 307      15.816   9.623  -5.455  0.50 32.01 LIG 0.01  C 
ENDBRANCH 31 33
ENDBRANCH 12 31
ENDBRANCH 9 12
ENDBRANCH 4 8
BRANCH 1 35
ATOM     35  CA  PHE C 305      12.225   2.950  -2.426  0.50 34.47 LIG 0.18  C 
BRANCH 35 36
ATOM     36  CB  PHE C 305      11.236   1.962  -1.789  0.50 34.49 LIG 0.07  C 
BRANCH 36 37
ATOM     37  CG  PHE C 305      11.451   1.702  -0.306  0.50 35.55 LIG-0.06  A 
ATOM     38  CD1 PHE C 305      10.874   2.511   0.672  0.50 36.28 LIG 0.01  A 
ATOM     39  CE1 PHE C 305      11.083   2.250   2.030  0.50 36.66 LIG 0.00  A 
ATOM     40  CZ  PHE C 305      11.889   1.177   2.422  0.50 36.87 LIG 0.00  A 
ATOM     41  CE2 PHE C 305      12.471   0.369   1.462  0.50 36.76 LIG 0.00  A 
ATOM     42  CD2 PHE C 305      12.258   0.639   0.101  0.50 36.02 LIG 0.01  A 
ENDBRANCH 36 37
ENDBRANCH 35 36
BRANCH 35 43
ATOM     43  N   PHE C 305      12.287   4.158  -1.595  0.50 33.54 LIG-0.35  N 
ATOM     44 H    PHE C 305      11.746   4.163  -0.926  0.50 33.54 LIG 0.16  HD
ATOM     45  C   ASN C 304      13.130   5.148  -1.890  0.50 33.07 LIG 0.24  C 
ATOM     46 O    ASN C 304      13.628   5.288  -3.013  0.50 33.39 LIG-0.27  OA
BRANCH 45 47
ATOM     47  CA  ASN C 304      13.470   6.116  -0.748  0.50 32.40 LIG 0.18  C 
BRANCH 47 48
ATOM     48  CB  ASN C 304      14.218   5.442   0.412  0.50 32.38 LIG 0.14  C 
BRANCH 48 49
ATOM     49  CG  ASN C 304      15.756   5.608   0.320  0.50 31.77 LIG 0.22  C 
ATOM     50 OD1  ASN C 304      16.345   6.456   0.980  0.50 27.48 LIG-0.27  OA
ATOM     51  ND2 ASN C 304      16.387   4.818  -0.541  0.50 32.56 LIG-0.37  N 
ATOM     52 21HD ASN C 304      17.237   4.892  -0.649  0.50 32.56 LIG 0.16  HD
ATOM     53 22HD ASN C 304      15.946   4.232  -0.989  0.50 32.56 LIG 0.16  HD
ENDBRANCH 48 49
ENDBRANCH 47 48
BRANCH 47 54
ATOM     54  N   ASN C 304      12.269   6.728  -0.234  0.50 31.56 LIG-0.34  N 
ATOM     55  C   LEU C 303      11.586   7.594  -0.966  0.50 30.83 LIG 0.26  C 
ATOM     56 O    LEU C 303      11.800   7.757  -2.159  0.50 29.02 LIG-0.27  OA
ATOM     57 H    ASN C 304      12.051   6.485   0.562  0.50 31.56 LIG 0.16  HD
BRANCH 55 58
ATOM     58  CA  LEU C 303      10.497   8.383  -0.228  0.50 30.56 LIG 0.40  C 
ATOM     59  N   LEU C 303       9.748   9.331  -1.097  0.50 30.88 LIG 0.61  N 
BRANCH 58 60
ATOM     60  CB  LEU C 303       9.523   7.440   0.489  0.50 30.80 LIG 0.06  C 
BRANCH 60 61
ATOM     61  CG  LEU C 303       8.641   6.530  -0.375  0.50 30.92 LIG-0.02  C 
ATOM     62  CD2 LEU C 303       7.168   6.974  -0.310  0.50 31.43 LIG 0.01  C 
ATOM     63  CD1 LEU C 303       8.805   5.071   0.011  0.50 30.50 LIG 0.01  C 
ENDBRANCH 60 61
ENDBRANCH 58 60
ENDBRANCH 55 58
ENDBRANCH 47 54
ENDBRANCH 45 47
ENDBRANCH 35 43
ENDBRANCH 1 35
TORSDOF 21
ENDMDL
MODEL 119
USER: ADFR SOLUTION from run 152
USER: SCORE 17.331816 LL:  -5.976 LR: -12.907 RR:   0.000 FEB:  -6.643
USER: RMSD 11.615182
USER: SEED 151
USER: STATUS no improvement in best in 33 clusters for 5 generations
USER: GENES 23
USER: genes 0 Translation |==|  0.48791 0.74911 0.76148
USER: genes 1 Rotation |==|  0.79645 0.62289 0.21326 0.24545
USER: genes 2 Torsion [N]-CA--C-[N] |==|  0.99676
USER: genes 3 Torsion [C]-N--CA-[C] |==|  0.83202
USER: genes 4 Torsion [N]-CA--C-[N] |==|  0.90204
USER: genes 5 Torsion [C]-N--CA-[CB] |==|  0.16402
USER: genes 6 Torsion [N]-CA--C-[N] |==|  0.81299
USER: genes 7 Torsion [N]-CA--C-[OXT] |==|  0.26398
USER: genes 8 Torsion [N]-CA--CB-[OG] |==|  0.41019
USER: genes 9 Torsion [CA]-CB--OG-[HG] |==|  0.29133
USER: genes 10 Torsion [N]-CA--CB-[CG2] |==|  0.34853
USER: genes 11 Torsion [CA]-CB--CG1-[CD1] |==|  0.23810
USER: genes 12 Torsion [N]-C--CA-[N] |==|  0.08503
USER: genes 13 Torsion [C]-CA--CB-[CG] |==|  0.37318
USER: genes 14 Torsion [CA]-CB--CG-[CD1] |==|  0.99814
USER: genes 15 Torsion [C]-CA--N-[C] |==|  0.59445
USER: genes 16 Torsion [N]-C--CA-[N] |==|  0.05762
USER: genes 17 Torsion [C]-CA--CB-[CG] |==|  0.46363
USER: genes 18 Torsion [CA]-CB--CG-[OD1] |==|  0.74382
USER: genes 19 Torsion [C]-CA--N-[C] |==|  0.16677
USER: genes 20 Torsion [N]-C--CA-[N] |==|  0.79228
USER: genes 21 Torsion [C]-CA--CB-[CG] |==|  0.31738
USER: genes 22 Torsion [CA]-CB--CG-[CD2] |==|  0.24421
ROOT
ATOM      1  C   PHE C 305      13.084  12.810   5.021  0.50 34.66 LIG 0.24  C 
ATOM      2 O    PHE C 305      13.956  13.582   5.406  0.50 33.80 LIG-0.27  OA
ATOM      3  N   PRO C 306      12.268  12.164   5.877  0.50 35.29 LIG-0.34  N 
ATOM      4  CA  PRO C 306      12.691  11.961   7.253  0.50 35.79 LIG 0.18  C 
ATOM      5  CB  PRO C 306      11.360  11.988   8.041  0.50 35.80 LIG 0.04  C 
ATOM      6  CG  PRO C 306      10.251  12.037   6.984  0.50 35.25 LIG 0.02  C 
ATOM      7  CD  PRO C 306      10.896  11.671   5.675  0.50 35.51 LIG 0.13  C 
ENDROOT
BRANCH 4 8
ATOM      8  C   PRO C 306      13.337  10.584   7.412  0.50 36.50 LIG 0.24  C 
ATOM      9  N   ILE C 307      13.377   9.823   6.306  0.50 37.01 LIG-0.35  N 
ATOM     10 H    ILE C 307      13.020  10.032   5.553  0.50 37.01 LIG 0.16  HD
ATOM     11 O    PRO C 306      13.801  10.229   8.519  0.50 36.74 LIG-0.27  OA
BRANCH 9 12
ATOM     12  CA  ILE C 307      14.070   8.534   6.331  0.50 37.44 LIG 0.18  C 
BRANCH 12 13
ATOM     13  C   ILE C 307      15.557   8.671   6.668  0.50 38.23 LIG 0.24  C 
ATOM     14  N   SER C 308      16.141   9.764   6.184  0.50 38.91 LIG-0.34  N 
ATOM     15 H    SER C 308      15.757  10.288   5.621  0.50 38.91 LIG 0.16  HD
ATOM     16 O    ILE C 307      16.145   7.819   7.350  0.50 38.79 LIG-0.27  OA
BRANCH 14 17
ATOM     17  CA  SER C 308      17.487  10.192   6.552  0.50 39.43 LIG 0.20  C 
BRANCH 17 18
ATOM     18  C   SER C 308      17.757  11.466   5.748  0.50 39.77 LIG 0.24  C 
ATOM     19  N   PRO C 309      17.864  11.346   4.413  0.50 40.03 LIG-0.34  N 
ATOM     20  CD  PRO C 309      17.411  10.231   3.566  0.50 39.83 LIG 0.13  C 
ATOM     21  CA  PRO C 309      18.453  12.429   3.623  0.50 40.09 LIG 0.19  C 
ATOM     22  CG  PRO C 309      18.138  10.471   2.279  0.50 40.19 LIG 0.02  C 
ATOM     23  CB  PRO C 309      18.248  11.961   2.177  0.50 40.09 LIG 0.04  C 
ATOM     24 O    SER C 308      17.851  12.555   6.322  0.50 39.81 LIG-0.27  OA
BRANCH 21 25
ATOM     25  C   PRO C 309      17.791  13.785   3.867  0.50 40.04 LIG 0.20  C 
ATOM     26 OXT  PRO C 309      18.250  14.590   4.682  0.50 40.10 LIG-0.65  OA
ATOM     27 O    PRO C 309      16.767  14.105   3.258  0.50 40.34 LIG-0.65  OA
ENDBRANCH 21 25
ENDBRANCH 17 18
BRANCH 17 28
ATOM     28  CB  SER C 308      18.518   9.114   6.208  0.50 39.49 LIG 0.20  C 
BRANCH 28 29
ATOM     29 OG   SER C 308      19.767   9.686   5.848  0.50 39.70 LIG-0.40  OA
ATOM     30 HG   SER C 308      20.312   9.591   6.480  0.50 39.70 LIG 0.21  HD
ENDBRANCH 28 29
ENDBRANCH 17 28
ENDBRANCH 14 17
ENDBRANCH 12 13
BRANCH 12 31
ATOM     31  CB  ILE C 307      13.957   7.778   4.985  0.50 37.20 LIG 0.01  C 
ATOM     32  CG2 ILE C 307      15.347   7.403   4.450  0.50 36.86 LIG 0.01  C 
BRANCH 31 33
ATOM     33  CG1 ILE C 307      13.031   6.561   5.157  0.50 35.88 LIG 0.00  C 
ATOM     34  CD1 ILE C 307      11.557   6.839   4.987  0.50 32.01 LIG 0.01  C 
ENDBRANCH 31 33
ENDBRANCH 12 31
ENDBRANCH 9 12
ENDBRANCH 4 8
BRANCH 1 35
ATOM     35  CA  PHE C 305      12.873  12.588   3.518  0.50 34.47 LIG 0.18  C 
BRANCH 35 36
ATOM     36  CB  PHE C 305      13.348  13.858   2.796  0.50 34.49 LIG 0.07  C 
BRANCH 36 37
ATOM     37  CG  PHE C 305      14.221  13.617   1.576  0.50 35.55 LIG-0.06  A 
ATOM     38  CD1 PHE C 305      14.569  12.332   1.163  0.50 36.28 LIG 0.01  A 
ATOM     39  CE1 PHE C 305      15.371  12.136   0.035  0.50 36.66 LIG 0.00  A 
ATOM     40  CZ  PHE C 305      15.847  13.234  -0.687  0.50 36.87 LIG 0.00  A 
ATOM     41  CE2 PHE C 305      15.513  14.516  -0.287  0.50 36.76 LIG 0.00  A 
ATOM     42  CD2 PHE C 305      14.710  14.705   0.849  0.50 36.02 LIG 0.01  A 
ENDBRANCH 36 37
ENDBRANCH 35 36
BRANCH 35 43
ATOM     43  N   PHE C 305      11.487  12.311   3.123  0.50 33.54 LIG-0.35  N 
ATOM     44 H    PHE C 305      10.891  12.717   3.592  0.50 33.54 LIG 0.16  HD
ATOM     45  C   ASN C 304      11.216  11.486   2.111  0.50 33.07 LIG 0.24  C 
ATOM     46 O    ASN C 304      12.030  10.657   1.690  0.50 33.39 LIG-0.27  OA
BRANCH 45 47
ATOM     47  CA  ASN C 304       9.826  11.624   1.473  0.50 32.40 LIG 0.18  C 
BRANCH 47 48
ATOM     48  CB  ASN C 304       9.839  11.423  -0.050  0.50 32.38 LIG 0.14  C 
BRANCH 48 49
ATOM     49  CG  ASN C 304       8.421  11.240  -0.649  0.50 31.77 LIG 0.22  C 
ATOM     50 OD1  ASN C 304       7.932  10.126  -0.795  0.50 27.48 LIG-0.27  OA
ATOM     51  ND2 ASN C 304       7.794  12.344  -1.034  0.50 32.56 LIG-0.37  N 
ATOM     52 21HD ASN C 304       7.016  12.292  -1.399  0.50 32.56 LIG 0.16  HD
ATOM     53 22HD ASN C 304       8.163  13.112  -0.917  0.50 32.56 LIG 0.16  HD
ENDBRANCH 48 49
ENDBRANCH 47 48
BRANCH 47 54
ATOM     54  N   ASN C 304       9.264  12.920   1.767  0.50 31.56 LIG-0.34  N 
ATOM     55  C   LEU C 303       9.881  14.026   1.379  0.50 30.83 LIG 0.26  C 
ATOM     56 O    LEU C 303      10.815  14.014   0.590  0.50 29.02 LIG-0.27  OA
ATOM     57 H    ASN C 304       8.521  12.903   2.199  0.50 31.56 LIG 0.16  HD
BRANCH 55 58
ATOM     58  CA  LEU C 303       9.347  15.334   1.978  0.50 30.56 LIG 0.40  C 
ATOM     59  N   LEU C 303       8.053  15.778   1.391  0.50 30.88 LIG 0.61  N 
BRANCH 58 60
ATOM     60  CB  LEU C 303       9.230  15.234   3.504  0.50 30.80 LIG 0.06  C 
BRANCH 60 61
ATOM     61  CG  LEU C 303      10.142  16.130   4.352  0.50 30.92 LIG-0.02  C 
ATOM     62  CD2 LEU C 303       9.484  17.500   4.601  0.50 31.43 LIG 0.01  C 
ATOM     63  CD1 LEU C 303      11.517  16.273   3.724  0.50 30.50 LIG 0.01  C 
ENDBRANCH 60 61
ENDBRANCH 58 60
ENDBRANCH 55 58
ENDBRANCH 47 54
ENDBRANCH 45 47
ENDBRANCH 35 43
ENDBRANCH 1 35
TORSDOF 21
ENDMDL
MODEL 120
USER: ADFR SOLUTION from run 97
USER: SCORE 18.527144 LL:  -6.632 LR: -12.900 RR:   0.000 FEB:  -6.635
USER: RMSD 8.054089
USER: SEED 96
USER: STATUS no improvement in best in 12 clusters for 5 generations
USER: GENES 23
USER: genes 0 Translation |==|  0.41151 0.44718 0.22988
USER: genes 1 Rotation |==|  0.67922 0.69147 0.54524 0.92329
USER: genes 2 Torsion [N]-CA--C-[N] |==|  0.54205
USER: genes 3 Torsion [C]-N--CA-[C] |==|  0.81598
USER: genes 4 Torsion [N]-CA--C-[N] |==|  0.95492
USER: genes 5 Torsion [C]-N--CA-[CB] |==|  0.49150
USER: genes 6 Torsion [N]-CA--C-[N] |==|  0.37222
USER: genes 7 Torsion [N]-CA--C-[OXT] |==|  0.94293
USER: genes 8 Torsion [N]-CA--CB-[OG] |==|  0.97738
USER: genes 9 Torsion [CA]-CB--OG-[HG] |==|  0.85446
USER: genes 10 Torsion [N]-CA--CB-[CG2] |==|  0.64647
USER: genes 11 Torsion [CA]-CB--CG1-[CD1] |==|  0.23806
USER: genes 12 Torsion [N]-C--CA-[N] |==|  0.39263
USER: genes 13 Torsion [C]-CA--CB-[CG] |==|  0.38394
USER: genes 14 Torsion [CA]-CB--CG-[CD1] |==|  0.91214
USER: genes 15 Torsion [C]-CA--N-[C] |==|  0.67041
USER: genes 16 Torsion [N]-C--CA-[N] |==|  0.10729
USER: genes 17 Torsion [C]-CA--CB-[CG] |==|  0.48174
USER: genes 18 Torsion [CA]-CB--CG-[OD1] |==|  0.01183
USER: genes 19 Torsion [C]-CA--N-[C] |==|  0.15269
USER: genes 20 Torsion [N]-C--CA-[N] |==|  0.68076
USER: genes 21 Torsion [C]-CA--CB-[CG] |==|  0.25572
USER: genes 22 Torsion [CA]-CB--CG-[CD2] |==|  0.06015
ROOT
ATOM      1  C   PHE C 305      11.136   5.563  -5.744  0.50 34.66 LIG 0.24  C 
ATOM      2 O    PHE C 305      11.162   5.495  -6.969  0.50 33.80 LIG-0.27  OA
ATOM      3  N   PRO C 306      10.833   4.502  -4.971  0.50 35.29 LIG-0.34  N 
ATOM      4  CA  PRO C 306      10.058   3.406  -5.534  0.50 35.79 LIG 0.18  C 
ATOM      5  CB  PRO C 306      10.587   2.170  -4.770  0.50 35.80 LIG 0.04  C 
ATOM      6  CG  PRO C 306      11.525   2.718  -3.689  0.50 35.25 LIG 0.02  C 
ATOM      7  CD  PRO C 306      11.249   4.193  -3.595  0.50 35.51 LIG 0.13  C 
ENDROOT
BRANCH 4 8
ATOM      8  C   PRO C 306       8.573   3.590  -5.218  0.50 36.50 LIG 0.24  C 
ATOM      9  N   ILE C 307       7.796   2.509  -5.399  0.50 37.01 LIG-0.35  N 
ATOM     10 H    ILE C 307       8.063   1.761  -5.728  0.50 37.01 LIG 0.16  HD
ATOM     11 O    PRO C 306       8.147   4.693  -4.806  0.50 36.74 LIG-0.27  OA
BRANCH 9 12
ATOM     12  CA  ILE C 307       6.382   2.556  -5.024  0.50 37.44 LIG 0.18  C 
BRANCH 12 13
ATOM     13  C   ILE C 307       6.178   2.698  -3.514  0.50 38.23 LIG 0.24  C 
ATOM     14  N   SER C 308       7.249   2.419  -2.776  0.50 38.91 LIG-0.34  N 
ATOM     15 H    SER C 308       7.961   2.063  -3.102  0.50 38.91 LIG 0.16  HD
ATOM     16 O    ILE C 307       5.090   3.058  -3.041  0.50 38.79 LIG-0.27  OA
BRANCH 14 17
ATOM     17  CA  SER C 308       7.336   2.684  -1.343  0.50 39.43 LIG 0.20  C 
BRANCH 17 18
ATOM     18  C   SER C 308       7.227   4.203  -1.189  0.50 39.77 LIG 0.24  C 
ATOM     19  N   PRO C 309       6.398   4.671  -0.239  0.50 40.03 LIG-0.34  N 
ATOM     20  CD  PRO C 309       5.843   3.948   0.916  0.50 39.83 LIG 0.13  C 
ATOM     21  CA  PRO C 309       5.980   6.075  -0.259  0.50 40.09 LIG 0.19  C 
ATOM     22  CG  PRO C 309       4.721   4.833   1.358  0.50 40.19 LIG 0.02  C 
ATOM     23  CB  PRO C 309       5.186   6.223   1.046  0.50 40.09 LIG 0.04  C 
ATOM     24 O    SER C 308       7.897   4.950  -1.908  0.50 39.81 LIG-0.27  OA
BRANCH 21 25
ATOM     25  C   PRO C 309       7.152   7.055  -0.309  0.50 40.04 LIG 0.20  C 
ATOM     26 OXT  PRO C 309       8.288   6.721   0.039  0.50 40.10 LIG-0.65  OA
ATOM     27 O    PRO C 309       6.986   8.216  -0.689  0.50 40.34 LIG-0.65  OA
ENDBRANCH 21 25
ENDBRANCH 17 18
BRANCH 17 28
ATOM     28  CB  SER C 308       8.665   2.182  -0.773  0.50 39.49 LIG 0.20  C 
BRANCH 28 29
ATOM     29 OG   SER C 308       9.390   1.427  -1.734  0.50 39.70 LIG-0.40  OA
ATOM     30 HG   SER C 308       8.896   0.824  -2.047  0.50 39.70 LIG 0.21  HD
ENDBRANCH 28 29
ENDBRANCH 17 28
ENDBRANCH 14 17
ENDBRANCH 12 13
BRANCH 12 31
ATOM     31  CB  ILE C 307       5.607   1.299  -5.489  0.50 37.20 LIG 0.01  C 
ATOM     32  CG2 ILE C 307       4.359   1.692  -6.294  0.50 36.86 LIG 0.01  C 
BRANCH 31 33
ATOM     33  CG1 ILE C 307       6.556   0.371  -6.268  0.50 35.88 LIG 0.00  C 
ATOM     34  CD1 ILE C 307       7.362  -0.586  -5.424  0.50 32.01 LIG 0.01  C 
ENDBRANCH 31 33
ENDBRANCH 12 31
ENDBRANCH 9 12
ENDBRANCH 4 8
BRANCH 1 35
ATOM     35  CA  PHE C 305      11.494   6.882  -5.047  0.50 34.47 LIG 0.18  C 
BRANCH 35 36
ATOM     36  CB  PHE C 305      10.225   7.749  -5.026  0.50 34.49 LIG 0.07  C 
BRANCH 36 37
ATOM     37  CG  PHE C 305       9.975   8.492  -3.725  0.50 35.55 LIG-0.06  A 
ATOM     38  CD1 PHE C 305      10.368   7.971  -2.493  0.50 36.28 LIG 0.01  A 
ATOM     39  CE1 PHE C 305      10.130   8.676  -1.309  0.50 36.66 LIG 0.00  A 
ATOM     40  CZ  PHE C 305       9.478   9.912  -1.348  0.50 36.87 LIG 0.00  A 
ATOM     41  CE2 PHE C 305       9.077  10.439  -2.563  0.50 36.76 LIG 0.00  A 
ATOM     42  CD2 PHE C 305       9.318   9.724  -3.746  0.50 36.02 LIG 0.01  A 
ENDBRANCH 36 37
ENDBRANCH 35 36
BRANCH 35 43
ATOM     43  N   PHE C 305      12.575   7.643  -5.684  0.50 33.54 LIG-0.35  N 
ATOM     44 H    PHE C 305      12.412   7.894  -6.491  0.50 33.54 LIG 0.16  HD
ATOM     45  C   ASN C 304      13.707   7.903  -5.029  0.50 33.07 LIG 0.24  C 
ATOM     46 O    ASN C 304      14.067   7.256  -4.039  0.50 33.39 LIG-0.27  OA
BRANCH 45 47
ATOM     47  CA  ASN C 304      14.551   9.068  -5.562  0.50 32.40 LIG 0.18  C 
BRANCH 47 48
ATOM     48  CB  ASN C 304      15.555   9.608  -4.532  0.50 32.38 LIG 0.14  C 
BRANCH 48 49
ATOM     49  CG  ASN C 304      16.515  10.672  -5.119  0.50 31.77 LIG 0.22  C 
ATOM     50 OD1  ASN C 304      16.392  11.072  -6.272  0.50 27.48 LIG-0.27  OA
ATOM     51  ND2 ASN C 304      17.495  11.088  -4.327  0.50 32.56 LIG-0.37  N 
ATOM     52 21HD ASN C 304      18.071  11.657  -4.618  0.50 32.56 LIG 0.16  HD
ATOM     53 22HD ASN C 304      17.554  10.789  -3.523  0.50 32.56 LIG 0.16  HD
ENDBRANCH 48 49
ENDBRANCH 47 48
BRANCH 47 54
ATOM     54  N   ASN C 304      13.699  10.151  -5.992  0.50 31.56 LIG-0.34  N 
ATOM     55  C   LEU C 303      12.808  10.677  -5.166  0.50 30.83 LIG 0.26  C 
ATOM     56 O    LEU C 303      12.801  10.435  -3.967  0.50 29.02 LIG-0.27  OA
ATOM     57 H    ASN C 304      13.823  10.409  -6.803  0.50 31.56 LIG 0.16  HD
BRANCH 55 58
ATOM     58  CA  LEU C 303      11.779  11.620  -5.803  0.50 30.56 LIG 0.40  C 
ATOM     59  N   LEU C 303      11.887  13.029  -5.337  0.50 30.88 LIG 0.61  N 
BRANCH 58 60
ATOM     60  CB  LEU C 303      11.854  11.562  -7.334  0.50 30.80 LIG 0.06  C 
BRANCH 60 61
ATOM     61  CG  LEU C 303      10.939  10.567  -8.059  0.50 30.92 LIG-0.02  C 
ATOM     62  CD2 LEU C 303       9.740  10.182  -7.173  0.50 31.43 LIG 0.01  C 
ATOM     63  CD1 LEU C 303      11.710   9.343  -8.523  0.50 30.50 LIG 0.01  C 
ENDBRANCH 60 61
ENDBRANCH 58 60
ENDBRANCH 55 58
ENDBRANCH 47 54
ENDBRANCH 45 47
ENDBRANCH 35 43
ENDBRANCH 1 35
TORSDOF 21
ENDMDL
MODEL 121
USER: ADFR SOLUTION from run 123
USER: SCORE 16.312337 LL:  -5.269 LR: -12.896 RR:   0.000 FEB:  -6.632
USER: RMSD 11.735088
USER: SEED 122
USER: STATUS no improvement in best in 9 clusters for 5 generations
USER: GENES 23
USER: genes 0 Translation |==|  0.45349 0.83143 0.74914
USER: genes 1 Rotation |==|  0.41549 0.28390 0.87902 0.72914
USER: genes 2 Torsion [N]-CA--C-[N] |==|  0.52230
USER: genes 3 Torsion [C]-N--CA-[C] |==|  0.69474
USER: genes 4 Torsion [N]-CA--C-[N] |==|  0.02173
USER: genes 5 Torsion [C]-N--CA-[CB] |==|  0.50002
USER: genes 6 Torsion [N]-CA--C-[N] |==|  0.83452
USER: genes 7 Torsion [N]-CA--C-[OXT] |==|  0.92638
USER: genes 8 Torsion [N]-CA--CB-[OG] |==|  0.99076
USER: genes 9 Torsion [CA]-CB--OG-[HG] |==|  0.49188
USER: genes 10 Torsion [N]-CA--CB-[CG2] |==|  0.78391
USER: genes 11 Torsion [CA]-CB--CG1-[CD1] |==|  0.21934
USER: genes 12 Torsion [N]-C--CA-[N] |==|  0.89320
USER: genes 13 Torsion [C]-CA--CB-[CG] |==|  0.29386
USER: genes 14 Torsion [CA]-CB--CG-[CD1] |==|  0.83657
USER: genes 15 Torsion [C]-CA--N-[C] |==|  0.70837
USER: genes 16 Torsion [N]-C--CA-[N] |==|  0.22033
USER: genes 17 Torsion [C]-CA--CB-[CG] |==|  0.55105
USER: genes 18 Torsion [CA]-CB--CG-[OD1] |==|  0.88431
USER: genes 19 Torsion [C]-CA--N-[C] |==|  0.75921
USER: genes 20 Torsion [N]-C--CA-[N] |==|  0.79322
USER: genes 21 Torsion [C]-CA--CB-[CG] |==|  0.28809
USER: genes 22 Torsion [CA]-CB--CG-[CD2] |==|  0.26426
ROOT
ATOM      1  C   PHE C 305      12.206  14.785   4.771  0.50 34.66 LIG 0.24  C 
ATOM      2 O    PHE C 305      12.641  15.806   5.297  0.50 33.80 LIG-0.27  OA
ATOM      3  N   PRO C 306      12.487  13.556   5.247  0.50 35.29 LIG-0.34  N 
ATOM      4  CA  PRO C 306      13.678  13.359   6.058  0.50 35.79 LIG 0.18  C 
ATOM      5  CB  PRO C 306      13.268  12.219   7.019  0.50 35.80 LIG 0.04  C 
ATOM      6  CG  PRO C 306      11.892  11.743   6.537  0.50 35.25 LIG 0.02  C 
ATOM      7  CD  PRO C 306      11.705  12.314   5.159  0.50 35.51 LIG 0.13  C 
ENDROOT
BRANCH 4 8
ATOM      8  C   PRO C 306      14.841  12.882   5.186  0.50 36.50 LIG 0.24  C 
ATOM      9  N   ILE C 307      15.950  12.504   5.843  0.50 37.01 LIG-0.35  N 
ATOM     10 H    ILE C 307      16.065  12.568   6.692  0.50 37.01 LIG 0.16  HD
ATOM     11 O    PRO C 306      14.723  12.849   3.940  0.50 36.74 LIG-0.27  OA
BRANCH 9 12
ATOM     12  CA  ILE C 307      17.077  11.933   5.103  0.50 37.44 LIG 0.18  C 
BRANCH 12 13
ATOM     13  C   ILE C 307      17.265  10.439   5.376  0.50 38.23 LIG 0.24  C 
ATOM     14  N   SER C 308      16.298   9.877   6.095  0.50 38.91 LIG-0.34  N 
ATOM     15 H    SER C 308      15.682  10.332   6.487  0.50 38.91 LIG 0.16  HD
ATOM     16 O    ILE C 307      18.248   9.823   4.941  0.50 38.79 LIG-0.27  OA
BRANCH 14 17
ATOM     17  CA  SER C 308      16.174   8.436   6.298  0.50 39.43 LIG 0.20  C 
BRANCH 17 18
ATOM     18  C   SER C 308      16.011   7.828   4.902  0.50 39.77 LIG 0.24  C 
ATOM     19  N   PRO C 309      14.959   8.233   4.169  0.50 40.03 LIG-0.34  N 
ATOM     20  CD  PRO C 309      14.132   9.435   4.359  0.50 39.83 LIG 0.13  C 
ATOM     21  CA  PRO C 309      14.545   7.463   2.994  0.50 40.09 LIG 0.19  C 
ATOM     22  CG  PRO C 309      12.924   9.146   3.525  0.50 40.19 LIG 0.02  C 
ATOM     23  CB  PRO C 309      13.438   8.330   2.379  0.50 40.09 LIG 0.04  C 
ATOM     24 O    SER C 308      16.835   7.012   4.480  0.50 39.81 LIG-0.27  OA
BRANCH 21 25
ATOM     25  C   PRO C 309      15.678   7.220   1.998  0.50 40.04 LIG 0.20  C 
ATOM     26 OXT  PRO C 309      16.638   7.991   1.913  0.50 40.10 LIG-0.65  OA
ATOM     27 O    PRO C 309      15.654   6.248   1.240  0.50 40.34 LIG-0.65  OA
ENDBRANCH 21 25
ENDBRANCH 17 18
BRANCH 17 28
ATOM     28  CB  SER C 308      14.959   8.108   7.169  0.50 39.49 LIG 0.20  C 
BRANCH 28 29
ATOM     29 OG   SER C 308      14.309   9.289   7.619  0.50 39.70 LIG-0.40  OA
ATOM     30 HG   SER C 308      13.625   9.082   8.061  0.50 39.70 LIG 0.21  HD
ENDBRANCH 28 29
ENDBRANCH 17 28
ENDBRANCH 14 17
ENDBRANCH 12 13
BRANCH 12 31
ATOM     31  CB  ILE C 307      18.414  12.645   5.424  0.50 37.20 LIG 0.01  C 
ATOM     32  CG2 ILE C 307      18.512  13.987   4.682  0.50 36.86 LIG 0.01  C 
BRANCH 31 33
ATOM     33  CG1 ILE C 307      18.564  12.789   6.949  0.50 35.88 LIG 0.00  C 
ATOM     34  CD1 ILE C 307      19.017  11.546   7.675  0.50 32.01 LIG 0.01  C 
ENDBRANCH 31 33
ENDBRANCH 12 31
ENDBRANCH 9 12
ENDBRANCH 4 8
BRANCH 1 35
ATOM     35  CA  PHE C 305      11.277  14.892   3.555  0.50 34.47 LIG 0.18  C 
BRANCH 35 36
ATOM     36  CB  PHE C 305       9.833  14.816   4.073  0.50 34.49 LIG 0.07  C 
BRANCH 36 37
ATOM     37  CG  PHE C 305       9.078  16.135   4.072  0.50 35.55 LIG-0.06  A 
ATOM     38  CD1 PHE C 305       9.535  17.244   4.784  0.50 36.28 LIG 0.01  A 
ATOM     39  CE1 PHE C 305       8.824  18.448   4.764  0.50 36.66 LIG 0.00  A 
ATOM     40  CZ  PHE C 305       7.634  18.548   4.038  0.50 36.87 LIG 0.00  A 
ATOM     41  CE2 PHE C 305       7.167  17.455   3.331  0.50 36.76 LIG 0.00  A 
ATOM     42  CD2 PHE C 305       7.884  16.249   3.357  0.50 36.02 LIG 0.01  A 
ENDBRANCH 36 37
ENDBRANCH 35 36
BRANCH 35 43
ATOM     43  N   PHE C 305      11.470  13.851   2.538  0.50 33.54 LIG-0.35  N 
ATOM     44 H    PHE C 305      11.156  13.079   2.750  0.50 33.54 LIG 0.16  HD
ATOM     45  C   ASN C 304      12.088  14.124   1.389  0.50 33.07 LIG 0.24  C 
ATOM     46 O    ASN C 304      12.827  15.105   1.246  0.50 33.39 LIG-0.27  OA
BRANCH 45 47
ATOM     47  CA  ASN C 304      11.828  13.154   0.228  0.50 32.40 LIG 0.18  C 
BRANCH 47 48
ATOM     48  CB  ASN C 304      12.920  13.197  -0.851  0.50 32.38 LIG 0.14  C 
BRANCH 48 49
ATOM     49  CG  ASN C 304      12.464  12.590  -2.202  0.50 31.77 LIG 0.22  C 
ATOM     50 OD1  ASN C 304      11.800  11.560  -2.243  0.50 27.48 LIG-0.27  OA
ATOM     51  ND2 ASN C 304      12.867  13.216  -3.300  0.50 32.56 LIG-0.37  N 
ATOM     52 21HD ASN C 304      12.664  12.901  -4.074  0.50 32.56 LIG 0.16  HD
ATOM     53 22HD ASN C 304      13.332  13.937  -3.238  0.50 32.56 LIG 0.16  HD
ENDBRANCH 48 49
ENDBRANCH 47 48
BRANCH 47 54
ATOM     54  N   ASN C 304      10.554  13.438  -0.388  0.50 31.56 LIG-0.34  N 
ATOM     55  C   LEU C 303       9.441  12.897   0.083  0.50 30.83 LIG 0.26  C 
ATOM     56 O    LEU C 303       9.397  12.322   1.161  0.50 29.02 LIG-0.27  OA
ATOM     57 H    ASN C 304      10.589  13.970  -1.063  0.50 31.56 LIG 0.16  HD
BRANCH 55 58
ATOM     58  CA  LEU C 303       8.199  13.043  -0.805  0.50 30.56 LIG 0.40  C 
ATOM     59  N   LEU C 303       7.615  14.412  -0.802  0.50 30.88 LIG 0.61  N 
BRANCH 58 60
ATOM     60  CB  LEU C 303       8.494  12.596  -2.242  0.50 30.80 LIG 0.06  C 
BRANCH 60 61
ATOM     61  CG  LEU C 303       7.966  11.228  -2.690  0.50 30.92 LIG-0.02  C 
ATOM     62  CD2 LEU C 303       6.611  11.372  -3.407  0.50 31.43 LIG 0.01  C 
ATOM     63  CD1 LEU C 303       7.885  10.258  -1.525  0.50 30.50 LIG 0.01  C 
ENDBRANCH 60 61
ENDBRANCH 58 60
ENDBRANCH 55 58
ENDBRANCH 47 54
ENDBRANCH 45 47
ENDBRANCH 35 43
ENDBRANCH 1 35
TORSDOF 21
ENDMDL
MODEL 122
USER: ADFR SOLUTION from run 20
USER: SCORE 18.644994 LL:  -6.602 LR: -12.898 RR:   0.000 FEB:  -6.633
USER: RMSD 7.413036
USER: SEED 19
USER: STATUS no improvement in best in 21 clusters for 5 generations
USER: GENES 23
USER: genes 0 Translation |==|  0.37859 0.46288 0.26522
USER: genes 1 Rotation |==|  0.65300 0.94216 0.51783 0.67541
USER: genes 2 Torsion [N]-CA--C-[N] |==|  0.11340
USER: genes 3 Torsion [C]-N--CA-[C] |==|  0.80377
USER: genes 4 Torsion [N]-CA--C-[N] |==|  0.91287
USER: genes 5 Torsion [C]-N--CA-[CB] |==|  0.15941
USER: genes 6 Torsion [N]-CA--C-[N] |==|  0.17222
USER: genes 7 Torsion [N]-CA--C-[OXT] |==|  0.84277
USER: genes 8 Torsion [N]-CA--CB-[OG] |==|  0.72657
USER: genes 9 Torsion [CA]-CB--OG-[HG] |==|  0.22242
USER: genes 10 Torsion [N]-CA--CB-[CG2] |==|  0.83517
USER: genes 11 Torsion [CA]-CB--CG1-[CD1] |==|  0.65461
USER: genes 12 Torsion [N]-C--CA-[N] |==|  0.11032
USER: genes 13 Torsion [C]-CA--CB-[CG] |==|  0.38459
USER: genes 14 Torsion [CA]-CB--CG-[CD1] |==|  0.02354
USER: genes 15 Torsion [C]-CA--N-[C] |==|  0.63817
USER: genes 16 Torsion [N]-C--CA-[N] |==|  0.10652
USER: genes 17 Torsion [C]-CA--CB-[CG] |==|  0.45104
USER: genes 18 Torsion [CA]-CB--CG-[OD1] |==|  0.08036
USER: genes 19 Torsion [C]-CA--N-[C] |==|  0.15221
USER: genes 20 Torsion [N]-C--CA-[N] |==|  0.09538
USER: genes 21 Torsion [C]-CA--CB-[CG] |==|  0.26456
USER: genes 22 Torsion [CA]-CB--CG-[CD2] |==|  0.10390
ROOT
ATOM      1  C   PHE C 305      10.296   5.940  -5.028  0.50 34.66 LIG 0.24  C 
ATOM      2 O    PHE C 305       9.128   5.705  -5.321  0.50 33.80 LIG-0.27  OA
ATOM      3  N   PRO C 306      11.231   4.971  -4.968  0.50 35.29 LIG-0.34  N 
ATOM      4  CA  PRO C 306      10.819   3.593  -4.755  0.50 35.79 LIG 0.18  C 
ATOM      5  CB  PRO C 306      11.890   2.780  -5.518  0.50 35.80 LIG 0.04  C 
ATOM      6  CG  PRO C 306      12.942   3.799  -5.971  0.50 35.25 LIG 0.02  C 
ATOM      7  CD  PRO C 306      12.683   5.053  -5.183  0.50 35.51 LIG 0.13  C 
ENDROOT
BRANCH 4 8
ATOM      8  C   PRO C 306      10.892   3.242  -3.267  0.50 36.50 LIG 0.24  C 
ATOM      9  N   ILE C 307      10.465   4.192  -2.418  0.50 37.01 LIG-0.35  N 
ATOM     10 H    ILE C 307      10.218   4.982  -2.649  0.50 37.01 LIG 0.16  HD
ATOM     11 O    PRO C 306      11.318   2.123  -2.904  0.50 36.74 LIG-0.27  OA
BRANCH 9 12
ATOM     12  CA  ILE C 307      10.398   3.911  -0.984  0.50 37.44 LIG 0.18  C 
BRANCH 12 13
ATOM     13  C   ILE C 307       9.278   2.930  -0.628  0.50 38.23 LIG 0.24  C 
ATOM     14  N   SER C 308       8.209   2.992  -1.417  0.50 38.91 LIG-0.34  N 
ATOM     15 H    SER C 308       8.093   3.615  -1.999  0.50 38.91 LIG 0.16  HD
ATOM     16 O    ILE C 307       9.389   2.142   0.322  0.50 38.79 LIG-0.27  OA
BRANCH 14 17
ATOM     17  CA  SER C 308       7.121   2.019  -1.385  0.50 39.43 LIG 0.20  C 
BRANCH 17 18
ATOM     18  C   SER C 308       6.086   2.512  -2.398  0.50 39.77 LIG 0.24  C 
ATOM     19  N   PRO C 309       6.469   2.595  -3.685  0.50 40.03 LIG-0.34  N 
ATOM     20  CD  PRO C 309       7.623   1.948  -4.329  0.50 39.83 LIG 0.13  C 
ATOM     21  CA  PRO C 309       5.672   3.368  -4.639  0.50 40.09 LIG 0.19  C 
ATOM     22  CG  PRO C 309       7.758   2.704  -5.613  0.50 40.19 LIG 0.02  C 
ATOM     23  CB  PRO C 309       6.355   3.081  -5.982  0.50 40.09 LIG 0.04  C 
ATOM     24 O    SER C 308       4.944   2.802  -2.030  0.50 39.81 LIG-0.27  OA
BRANCH 21 25
ATOM     25  C   PRO C 309       4.199   2.961  -4.668  0.50 40.04 LIG 0.20  C 
ATOM     26 OXT  PRO C 309       3.855   1.799  -4.900  0.50 40.10 LIG-0.65  OA
ATOM     27 O    PRO C 309       3.311   3.794  -4.472  0.50 40.34 LIG-0.65  OA
ENDBRANCH 21 25
ENDBRANCH 17 18
BRANCH 17 28
ATOM     28  CB  SER C 308       6.504   1.934   0.013  0.50 39.49 LIG 0.20  C 
BRANCH 28 29
ATOM     29 OG   SER C 308       7.021   0.831   0.743  0.50 39.70 LIG-0.40  OA
ATOM     30 HG   SER C 308       7.772   1.032   1.060  0.50 39.70 LIG 0.21  HD
ENDBRANCH 28 29
ENDBRANCH 17 28
ENDBRANCH 14 17
ENDBRANCH 12 13
BRANCH 12 31
ATOM     31  CB  ILE C 307      10.189   5.193  -0.141  0.50 37.20 LIG 0.01  C 
ATOM     32  CG2 ILE C 307      11.335   6.191  -0.370  0.50 36.86 LIG 0.01  C 
BRANCH 31 33
ATOM     33  CG1 ILE C 307       8.803   5.788  -0.448  0.50 35.88 LIG 0.00  C 
ATOM     34  CD1 ILE C 307       8.803   7.226  -0.908  0.50 32.01 LIG 0.01  C 
ENDBRANCH 31 33
ENDBRANCH 12 31
ENDBRANCH 9 12
ENDBRANCH 4 8
BRANCH 1 35
ATOM     35  CA  PHE C 305      10.737   7.384  -4.756  0.50 34.47 LIG 0.18  C 
BRANCH 35 36
ATOM     36  CB  PHE C 305       9.662   8.310  -5.345  0.50 34.49 LIG 0.07  C 
BRANCH 36 37
ATOM     37  CG  PHE C 305       9.299   9.507  -4.481  0.50 35.55 LIG-0.06  A 
ATOM     38  CD1 PHE C 305      10.023   9.832  -3.335  0.50 36.28 LIG 0.01  A 
ATOM     39  CE1 PHE C 305       9.672  10.940  -2.558  0.50 36.66 LIG 0.00  A 
ATOM     40  CZ  PHE C 305       8.577  11.731  -2.919  0.50 36.87 LIG 0.00  A 
ATOM     41  CE2 PHE C 305       7.846  11.417  -4.051  0.50 36.76 LIG 0.00  A 
ATOM     42  CD2 PHE C 305       8.203  10.302  -4.824  0.50 36.02 LIG 0.01  A 
ENDBRANCH 36 37
ENDBRANCH 35 36
BRANCH 35 43
ATOM     43  N   PHE C 305      12.039   7.750  -5.327  0.50 33.54 LIG-0.35  N 
ATOM     44 H    PHE C 305      12.136   7.551  -6.158  0.50 33.54 LIG 0.16  HD
ATOM     45  C   ASN C 304      12.971   8.343  -4.580  0.50 33.07 LIG 0.24  C 
ATOM     46 O    ASN C 304      12.960   8.302  -3.344  0.50 33.39 LIG-0.27  OA
BRANCH 45 47
ATOM     47  CA  ASN C 304      14.069   9.102  -5.337  0.50 32.40 LIG 0.18  C 
BRANCH 47 48
ATOM     48  CB  ASN C 304      14.806  10.128  -4.462  0.50 32.38 LIG 0.14  C 
BRANCH 48 49
ATOM     49  CG  ASN C 304      16.163  10.574  -5.063  0.50 31.77 LIG 0.22  C 
ATOM     50 OD1  ASN C 304      16.350  10.581  -6.274  0.50 27.48 LIG-0.27  OA
ATOM     51  ND2 ASN C 304      17.115  10.900  -4.198  0.50 32.56 LIG-0.37  N 
ATOM     52 21HD ASN C 304      17.895  11.126  -4.482  0.50 32.56 LIG 0.16  HD
ATOM     53 22HD ASN C 304      16.953  10.886  -3.353  0.50 32.56 LIG 0.16  HD
ENDBRANCH 48 49
ENDBRANCH 47 48
BRANCH 47 54
ATOM     54  N   ASN C 304      13.513   9.783  -6.481  0.50 31.56 LIG-0.34  N 
ATOM     55  C   LEU C 303      12.498  10.622  -6.340  0.50 30.83 LIG 0.26  C 
ATOM     56 O    LEU C 303      12.126  11.024  -5.247  0.50 29.02 LIG-0.27  OA
ATOM     57 H    ASN C 304      13.890   9.597  -7.232  0.50 31.56 LIG 0.16  HD
BRANCH 55 58
ATOM     58  CA  LEU C 303      11.815  11.069  -7.639  0.50 30.56 LIG 0.40  C 
ATOM     59  N   LEU C 303      11.778  10.017  -8.691  0.50 30.88 LIG 0.61  N 
BRANCH 58 60
ATOM     60  CB  LEU C 303      10.400  11.593  -7.365  0.50 30.80 LIG 0.06  C 
BRANCH 60 61
ATOM     61  CG  LEU C 303      10.218  13.106  -7.189  0.50 30.92 LIG-0.02  C 
ATOM     62  CD2 LEU C 303      11.139  13.883  -8.147  0.50 31.43 LIG 0.01  C 
ATOM     63  CD1 LEU C 303      10.429  13.524  -5.744  0.50 30.50 LIG 0.01  C 
ENDBRANCH 60 61
ENDBRANCH 58 60
ENDBRANCH 55 58
ENDBRANCH 47 54
ENDBRANCH 45 47
ENDBRANCH 35 43
ENDBRANCH 1 35
TORSDOF 21
ENDMDL
MODEL 123
USER: ADFR SOLUTION from run 87
USER: SCORE 16.863759 LL:  -4.902 LR: -12.892 RR:   0.000 FEB:  -6.628
USER: RMSD 6.821816
USER: SEED 86
USER: STATUS searching
USER: GENES 23
USER: genes 0 Translation |==|  0.45144 0.50334 0.21247
USER: genes 1 Rotation |==|  0.77613 0.74659 0.56147 0.83040
USER: genes 2 Torsion [N]-CA--C-[N] |==|  0.61882
USER: genes 3 Torsion [C]-N--CA-[C] |==|  0.81980
USER: genes 4 Torsion [N]-CA--C-[N] |==|  0.94833
USER: genes 5 Torsion [C]-N--CA-[CB] |==|  0.52222
USER: genes 6 Torsion [N]-CA--C-[N] |==|  0.42186
USER: genes 7 Torsion [N]-CA--C-[OXT] |==|  0.34560
USER: genes 8 Torsion [N]-CA--CB-[OG] |==|  0.82938
USER: genes 9 Torsion [CA]-CB--OG-[HG] |==|  0.58290
USER: genes 10 Torsion [N]-CA--CB-[CG2] |==|  0.81422
USER: genes 11 Torsion [CA]-CB--CG1-[CD1] |==|  0.51805
USER: genes 12 Torsion [N]-C--CA-[N] |==|  0.07770
USER: genes 13 Torsion [C]-CA--CB-[CG] |==|  0.23384
USER: genes 14 Torsion [CA]-CB--CG-[CD1] |==|  0.71644
USER: genes 15 Torsion [C]-CA--N-[C] |==|  0.70450
USER: genes 16 Torsion [N]-C--CA-[N] |==|  0.28367
USER: genes 17 Torsion [C]-CA--CB-[CG] |==|  0.54158
USER: genes 18 Torsion [CA]-CB--CG-[OD1] |==|  0.26918
USER: genes 19 Torsion [C]-CA--N-[C] |==|  0.63527
USER: genes 20 Torsion [N]-C--CA-[N] |==|  0.77955
USER: genes 21 Torsion [C]-CA--CB-[CG] |==|  0.29148
USER: genes 22 Torsion [CA]-CB--CG-[CD2] |==|  0.89816
ROOT
ATOM      1  C   PHE C 305      12.154   6.911  -6.097  0.50 34.66 LIG 0.24  C 
ATOM      2 O    PHE C 305      11.770   7.396  -7.157  0.50 33.80 LIG-0.27  OA
ATOM      3  N   PRO C 306      12.059   5.593  -5.833  0.50 35.29 LIG-0.34  N 
ATOM      4  CA  PRO C 306      11.077   4.790  -6.545  0.50 35.79 LIG 0.18  C 
ATOM      5  CB  PRO C 306      11.751   3.402  -6.634  0.50 35.80 LIG 0.04  C 
ATOM      6  CG  PRO C 306      13.026   3.503  -5.789  0.50 35.25 LIG 0.02  C 
ATOM      7  CD  PRO C 306      12.887   4.749  -4.959  0.50 35.51 LIG 0.13  C 
ENDROOT
BRANCH 4 8
ATOM      8  C   PRO C 306       9.793   4.670  -5.721  0.50 36.50 LIG 0.24  C 
ATOM      9  N   ILE C 307       9.231   3.450  -5.686  0.50 37.01 LIG-0.35  N 
ATOM     10 H    ILE C 307       9.506   2.769  -6.132  0.50 37.01 LIG 0.16  HD
ATOM     11 O    PRO C 306       9.333   5.667  -5.120  0.50 36.74 LIG-0.27  OA
BRANCH 9 12
ATOM     12  CA  ILE C 307       8.061   3.210  -4.840  0.50 37.44 LIG 0.18  C 
BRANCH 12 13
ATOM     13  C   ILE C 307       8.373   3.359  -3.349  0.50 38.23 LIG 0.24  C 
ATOM     14  N   SER C 308       9.664   3.290  -3.038  0.50 38.91 LIG-0.34  N 
ATOM     15 H    SER C 308      10.268   3.051  -3.602  0.50 38.91 LIG 0.16  HD
ATOM     16 O    ILE C 307       7.472   3.541  -2.517  0.50 38.79 LIG-0.27  OA
BRANCH 14 17
ATOM     17  CA  SER C 308      10.197   3.606  -1.715  0.50 39.43 LIG 0.20  C 
BRANCH 17 18
ATOM     18  C   SER C 308       9.651   4.993  -1.365  0.50 39.77 LIG 0.24  C 
ATOM     19  N   PRO C 309       9.485   5.282  -0.062  0.50 40.03 LIG-0.34  N 
ATOM     20  CD  PRO C 309      10.080   4.601   1.100  0.50 39.83 LIG 0.13  C 
ATOM     21  CA  PRO C 309       8.662   6.426   0.337  0.50 40.09 LIG 0.19  C 
ATOM     22  CG  PRO C 309       9.244   5.092   2.240  0.50 40.19 LIG 0.02  C 
ATOM     23  CB  PRO C 309       8.859   6.488   1.857  0.50 40.09 LIG 0.04  C 
ATOM     24 O    SER C 308       9.395   5.805  -2.258  0.50 39.81 LIG-0.27  OA
BRANCH 21 25
ATOM     25  C   PRO C 309       9.080   7.736  -0.331  0.50 40.04 LIG 0.20  C 
ATOM     26 OXT  PRO C 309       8.278   8.412  -0.982  0.50 40.10 LIG-0.65  OA
ATOM     27 O    PRO C 309      10.240   8.145  -0.245  0.50 40.34 LIG-0.65  OA
ENDBRANCH 21 25
ENDBRANCH 17 18
BRANCH 17 28
ATOM     28  CB  SER C 308      11.727   3.621  -1.730  0.50 39.49 LIG 0.20  C 
BRANCH 28 29
ATOM     29 OG   SER C 308      12.255   2.352  -2.086  0.50 39.70 LIG-0.40  OA
ATOM     30 HG   SER C 308      13.001   2.245  -1.716  0.50 39.70 LIG 0.21  HD
ENDBRANCH 28 29
ENDBRANCH 17 28
ENDBRANCH 14 17
ENDBRANCH 12 13
BRANCH 12 31
ATOM     31  CB  ILE C 307       7.455   1.802  -5.058  0.50 37.20 LIG 0.01  C 
ATOM     32  CG2 ILE C 307       6.854   1.677  -6.466  0.50 36.86 LIG 0.01  C 
BRANCH 31 33
ATOM     33  CG1 ILE C 307       8.522   0.733  -4.763  0.50 35.88 LIG 0.00  C 
ATOM     34  CD1 ILE C 307       8.122  -0.687  -5.080  0.50 32.01 LIG 0.01  C 
ENDBRANCH 31 33
ENDBRANCH 12 31
ENDBRANCH 9 12
ENDBRANCH 4 8
BRANCH 1 35
ATOM     35  CA  PHE C 305      12.802   7.813  -5.038  0.50 34.47 LIG 0.18  C 
BRANCH 35 36
ATOM     36  CB  PHE C 305      13.488   8.970  -5.781  0.50 34.49 LIG 0.07  C 
BRANCH 36 37
ATOM     37  CG  PHE C 305      12.580  10.137  -6.133  0.50 35.55 LIG-0.06  A 
ATOM     38  CD1 PHE C 305      12.081  10.317  -7.423  0.50 36.28 LIG 0.01  A 
ATOM     39  CE1 PHE C 305      11.244  11.396  -7.722  0.50 36.66 LIG 0.00  A 
ATOM     40  CZ  PHE C 305      10.908  12.319  -6.727  0.50 36.87 LIG 0.00  A 
ATOM     41  CE2 PHE C 305      11.399  12.156  -5.444  0.50 36.76 LIG 0.00  A 
ATOM     42  CD2 PHE C 305      12.241  11.071  -5.153  0.50 36.02 LIG 0.01  A 
ENDBRANCH 36 37
ENDBRANCH 35 36
BRANCH 35 43
ATOM     43  N   PHE C 305      13.792   7.147  -4.184  0.50 33.54 LIG-0.35  N 
ATOM     44 H    PHE C 305      14.543   6.976  -4.568  0.50 33.54 LIG 0.16  HD
ATOM     45  C   ASN C 304      13.511   6.849  -2.915  0.50 33.07 LIG 0.24  C 
ATOM     46 O    ASN C 304      12.352   6.773  -2.490  0.50 33.39 LIG-0.27  OA
BRANCH 45 47
ATOM     47  CA  ASN C 304      14.710   6.610  -1.988  0.50 32.40 LIG 0.18  C 
BRANCH 47 48
ATOM     48  CB  ASN C 304      14.537   5.382  -1.082  0.50 32.38 LIG 0.14  C 
BRANCH 48 49
ATOM     49  CG  ASN C 304      15.550   5.346   0.091  0.50 31.77 LIG 0.22  C 
ATOM     50 OD1  ASN C 304      15.245   5.755   1.206  0.50 27.48 LIG-0.27  OA
ATOM     51  ND2 ASN C 304      16.766   4.894  -0.189  0.50 32.56 LIG-0.37  N 
ATOM     52 21HD ASN C 304      17.371   4.883   0.422  0.50 32.56 LIG 0.16  HD
ATOM     53 22HD ASN C 304      16.948   4.614  -0.981  0.50 32.56 LIG 0.16  HD
ENDBRANCH 48 49
ENDBRANCH 47 48
BRANCH 47 54
ATOM     54  N   ASN C 304      14.945   7.769  -1.161  0.50 31.56 LIG-0.34  N 
ATOM     55  C   LEU C 303      16.161   8.280  -1.046  0.50 30.83 LIG 0.26  C 
ATOM     56 O    LEU C 303      17.084   7.949  -1.777  0.50 29.02 LIG-0.27  OA
ATOM     57 H    ASN C 304      14.247   8.080  -0.767  0.50 31.56 LIG 0.16  HD
BRANCH 55 58
ATOM     58  CA  LEU C 303      16.345   9.325   0.061  0.50 30.56 LIG 0.40  C 
ATOM     59  N   LEU C 303      15.848  10.680  -0.303  0.50 30.88 LIG 0.61  N 
BRANCH 58 60
ATOM     60  CB  LEU C 303      15.699   8.859   1.372  0.50 30.80 LIG 0.06  C 
BRANCH 60 61
ATOM     61  CG  LEU C 303      16.624   8.366   2.491  0.50 30.92 LIG-0.02  C 
ATOM     62  CD2 LEU C 303      17.821   7.591   1.910  0.50 31.43 LIG 0.01  C 
ATOM     63  CD1 LEU C 303      15.864   7.541   3.514  0.50 30.50 LIG 0.01  C 
ENDBRANCH 60 61
ENDBRANCH 58 60
ENDBRANCH 55 58
ENDBRANCH 47 54
ENDBRANCH 45 47
ENDBRANCH 35 43
ENDBRANCH 1 35
TORSDOF 21
ENDMDL
MODEL 124
USER: ADFR SOLUTION from run 123
USER: SCORE 16.536859 LL:  -5.375 LR: -12.889 RR:   0.000 FEB:  -6.624
USER: RMSD 9.691637
USER: SEED 122
USER: STATUS no improvement in best in 9 clusters for 5 generations
USER: GENES 23
USER: genes 0 Translation |==|  0.28899 0.65844 0.28833
USER: genes 1 Rotation |==|  0.60195 0.92695 0.71620 0.60283
USER: genes 2 Torsion [N]-CA--C-[N] |==|  0.51879
USER: genes 3 Torsion [C]-N--CA-[C] |==|  0.70010
USER: genes 4 Torsion [N]-CA--C-[N] |==|  0.00090
USER: genes 5 Torsion [C]-N--CA-[CB] |==|  0.52241
USER: genes 6 Torsion [N]-CA--C-[N] |==|  0.83112
USER: genes 7 Torsion [N]-CA--C-[OXT] |==|  0.89146
USER: genes 8 Torsion [N]-CA--CB-[OG] |==|  0.96599
USER: genes 9 Torsion [CA]-CB--OG-[HG] |==|  0.48146
USER: genes 10 Torsion [N]-CA--CB-[CG2] |==|  0.77572
USER: genes 11 Torsion [CA]-CB--CG1-[CD1] |==|  0.22829
USER: genes 12 Torsion [N]-C--CA-[N] |==|  0.89394
USER: genes 13 Torsion [C]-CA--CB-[CG] |==|  0.32356
USER: genes 14 Torsion [CA]-CB--CG-[CD1] |==|  0.80023
USER: genes 15 Torsion [C]-CA--N-[C] |==|  0.70662
USER: genes 16 Torsion [N]-C--CA-[N] |==|  0.22040
USER: genes 17 Torsion [C]-CA--CB-[CG] |==|  0.55032
USER: genes 18 Torsion [CA]-CB--CG-[OD1] |==|  0.88456
USER: genes 19 Torsion [C]-CA--N-[C] |==|  0.75863
USER: genes 20 Torsion [N]-C--CA-[N] |==|  0.79276
USER: genes 21 Torsion [C]-CA--CB-[CG] |==|  0.28815
USER: genes 22 Torsion [CA]-CB--CG-[CD2] |==|  0.26438
ROOT
ATOM      1  C   PHE C 305       8.011  10.634  -4.560  0.50 34.66 LIG 0.24  C 
ATOM      2 O    PHE C 305       7.015  10.205  -5.135  0.50 33.80 LIG-0.27  OA
ATOM      3  N   PRO C 306       9.260  10.352  -4.981  0.50 35.29 LIG-0.34  N 
ATOM      4  CA  PRO C 306       9.492   9.166  -5.790  0.50 35.79 LIG 0.18  C 
ATOM      5  CB  PRO C 306      10.676   9.579  -6.695  0.50 35.80 LIG 0.04  C 
ATOM      6  CG  PRO C 306      11.132  10.950  -6.183  0.50 35.25 LIG 0.02  C 
ATOM      7  CD  PRO C 306      10.499  11.130  -4.831  0.50 35.51 LIG 0.13  C 
ENDROOT
BRANCH 4 8
ATOM      8  C   PRO C 306       9.925   7.996  -4.904  0.50 36.50 LIG 0.24  C 
ATOM      9  N   ILE C 307      10.305   6.881  -5.550  0.50 37.01 LIG-0.35  N 
ATOM     10 H    ILE C 307      10.264   6.767  -6.401  0.50 37.01 LIG 0.16  HD
ATOM     11 O    PRO C 306       9.923   8.114  -3.659  0.50 36.74 LIG-0.27  OA
BRANCH 9 12
ATOM     12  CA  ILE C 307      10.836   5.746  -4.794  0.50 37.44 LIG 0.18  C 
BRANCH 12 13
ATOM     13  C   ILE C 307      12.344   5.563  -4.988  0.50 38.23 LIG 0.24  C 
ATOM     14  N   SER C 308      12.916   6.455  -5.792  0.50 38.91 LIG-0.34  N 
ATOM     15 H    SER C 308      12.465   7.010  -6.269  0.50 38.91 LIG 0.16  HD
ATOM     16 O    ILE C 307      12.961   4.652  -4.418  0.50 38.79 LIG-0.27  OA
BRANCH 14 17
ATOM     17  CA  SER C 308      14.361   6.590  -5.953  0.50 39.43 LIG 0.20  C 
BRANCH 17 18
ATOM     18  C   SER C 308      14.930   6.722  -4.538  0.50 39.77 LIG 0.24  C 
ATOM     19  N   PRO C 309      14.521   7.769  -3.801  0.50 40.03 LIG-0.34  N 
ATOM     20  CD  PRO C 309      13.337   8.617  -4.012  0.50 39.83 LIG 0.13  C 
ATOM     21  CA  PRO C 309      15.262   8.154  -2.598  0.50 40.09 LIG 0.19  C 
ATOM     22  CG  PRO C 309      13.620   9.809  -3.152  0.50 40.19 LIG 0.02  C 
ATOM     23  CB  PRO C 309      14.395   9.265  -1.991  0.50 40.09 LIG 0.04  C 
ATOM     24 O    SER C 308      15.721   5.879  -4.105  0.50 39.81 LIG-0.27  OA
BRANCH 21 25
ATOM     25  C   PRO C 309      15.459   7.002  -1.613  0.50 40.04 LIG 0.20  C 
ATOM     26 OXT  PRO C 309      14.567   6.176  -1.400  0.50 40.10 LIG-0.65  OA
ATOM     27 O    PRO C 309      16.517   6.878  -0.992  0.50 40.34 LIG-0.65  OA
ENDBRANCH 21 25
ENDBRANCH 17 18
BRANCH 17 28
ATOM     28  CB  SER C 308      14.706   7.826  -6.787  0.50 39.49 LIG 0.20  C 
BRANCH 28 29
ATOM     29 OG   SER C 308      13.554   8.363  -7.420  0.50 39.70 LIG-0.40  OA
ATOM     30 HG   SER C 308      13.752   9.088  -7.795  0.50 39.70 LIG 0.21  HD
ENDBRANCH 28 29
ENDBRANCH 17 28
ENDBRANCH 14 17
ENDBRANCH 12 13
BRANCH 12 31
ATOM     31  CB  ILE C 307      10.146   4.412  -5.171  0.50 37.20 LIG 0.01  C 
ATOM     32  CG2 ILE C 307       8.799   4.269  -4.448  0.50 36.86 LIG 0.01  C 
BRANCH 31 33
ATOM     33  CG1 ILE C 307      10.021   4.314  -6.702  0.50 35.88 LIG 0.00  C 
ATOM     34  CD1 ILE C 307      11.255   3.832  -7.424  0.50 32.01 LIG 0.01  C 
ENDBRANCH 31 33
ENDBRANCH 12 31
ENDBRANCH 9 12
ENDBRANCH 4 8
BRANCH 1 35
ATOM     35  CA  PHE C 305       7.851  11.555  -3.344  0.50 34.47 LIG 0.18  C 
BRANCH 35 36
ATOM     36  CB  PHE C 305       7.948  13.002  -3.850  0.50 34.49 LIG 0.07  C 
BRANCH 36 37
ATOM     37  CG  PHE C 305       6.690  13.835  -3.665  0.50 35.55 LIG-0.06  A 
ATOM     38  CD1 PHE C 305       5.546  13.619  -4.433  0.50 36.28 LIG 0.01  A 
ATOM     39  CE1 PHE C 305       4.400  14.396  -4.242  0.50 36.66 LIG 0.00  A 
ATOM     40  CZ  PHE C 305       4.393  15.411  -3.281  0.50 36.87 LIG 0.00  A 
ATOM     41  CE2 PHE C 305       5.522  15.640  -2.514  0.50 36.76 LIG 0.00  A 
ATOM     42  CD2 PHE C 305       6.670  14.857  -2.714  0.50 36.02 LIG 0.01  A 
ENDBRANCH 36 37
ENDBRANCH 35 36
BRANCH 35 43
ATOM     43  N   PHE C 305       8.848  11.357  -2.285  0.50 33.54 LIG-0.35  N 
ATOM     44 H    PHE C 305       9.630  11.665  -2.465  0.50 33.54 LIG 0.16  HD
ATOM     45  C   ASN C 304       8.523  10.743  -1.147  0.50 33.07 LIG 0.24  C 
ATOM     46 O    ASN C 304       7.532  10.010  -1.044  0.50 33.39 LIG-0.27  OA
BRANCH 45 47
ATOM     47  CA  ASN C 304       9.445  10.998   0.053  0.50 32.40 LIG 0.18  C 
BRANCH 47 48
ATOM     48  CB  ASN C 304       9.350   9.908   1.131  0.50 32.38 LIG 0.14  C 
BRANCH 48 49
ATOM     49  CG  ASN C 304       9.910  10.360   2.503  0.50 31.77 LIG 0.22  C 
ATOM     50 OD1  ASN C 304      10.943  11.015   2.583  0.50 27.48 LIG-0.27  OA
ATOM     51  ND2 ASN C 304       9.239   9.963   3.577  0.50 32.56 LIG-0.37  N 
ATOM     52 21HD ASN C 304       9.527  10.164   4.362  0.50 32.56 LIG 0.16  HD
ATOM     53 22HD ASN C 304       8.517   9.504   3.488  0.50 32.56 LIG 0.16  HD
ENDBRANCH 48 49
ENDBRANCH 47 48
BRANCH 47 54
ATOM     54  N   ASN C 304       9.145  12.274   0.655  0.50 31.56 LIG-0.34  N 
ATOM     55  C   LEU C 303       9.714  13.383   0.208  0.50 30.83 LIG 0.26  C 
ATOM     56 O    LEU C 303      10.338  13.422  -0.843  0.50 29.02 LIG-0.27  OA
ATOM     57 H    ASN C 304       8.583  12.244   1.306  0.50 31.56 LIG 0.16  HD
BRANCH 55 58
ATOM     58  CA  LEU C 303       9.540  14.627   1.088  0.50 30.56 LIG 0.40  C 
ATOM     59  N   LEU C 303       8.178  15.224   1.021  0.50 30.88 LIG 0.61  N 
BRANCH 58 60
ATOM     60  CB  LEU C 303       9.915  14.328   2.545  0.50 30.80 LIG 0.06  C 
BRANCH 60 61
ATOM     61  CG  LEU C 303      11.266  14.843   3.057  0.50 30.92 LIG-0.02  C 
ATOM     62  CD2 LEU C 303      11.100  16.199   3.767  0.50 31.43 LIG 0.01  C 
ATOM     63  CD1 LEU C 303      12.290  14.917   1.938  0.50 30.50 LIG 0.01  C 
ENDBRANCH 60 61
ENDBRANCH 58 60
ENDBRANCH 55 58
ENDBRANCH 47 54
ENDBRANCH 45 47
ENDBRANCH 35 43
ENDBRANCH 1 35
TORSDOF 21
ENDMDL
MODEL 125
USER: ADFR SOLUTION from run 53
USER: SCORE 18.525830 LL:  -6.372 LR: -12.881 RR:   0.000 FEB:  -6.616
USER: RMSD 9.058713
USER: SEED 52
USER: STATUS no improvement in best in 30 clusters for 5 generations
USER: GENES 23
USER: genes 0 Translation |==|  0.38238 0.47520 0.28772
USER: genes 1 Rotation |==|  0.65244 0.96615 0.53931 0.58902
USER: genes 2 Torsion [N]-CA--C-[N] |==|  0.00082
USER: genes 3 Torsion [C]-N--CA-[C] |==|  0.84401
USER: genes 4 Torsion [N]-CA--C-[N] |==|  0.38717
USER: genes 5 Torsion [C]-N--CA-[CB] |==|  0.53436
USER: genes 6 Torsion [N]-CA--C-[N] |==|  0.29645
USER: genes 7 Torsion [N]-CA--C-[OXT] |==|  0.81080
USER: genes 8 Torsion [N]-CA--CB-[OG] |==|  0.96692
USER: genes 9 Torsion [CA]-CB--OG-[HG] |==|  0.14906
USER: genes 10 Torsion [N]-CA--CB-[CG2] |==|  0.43159
USER: genes 11 Torsion [CA]-CB--CG1-[CD1] |==|  0.64732
USER: genes 12 Torsion [N]-C--CA-[N] |==|  0.39956
USER: genes 13 Torsion [C]-CA--CB-[CG] |==|  0.81577
USER: genes 14 Torsion [CA]-CB--CG-[CD1] |==|  0.23947
USER: genes 15 Torsion [C]-CA--N-[C] |==|  0.76442
USER: genes 16 Torsion [N]-C--CA-[N] |==|  0.03559
USER: genes 17 Torsion [C]-CA--CB-[CG] |==|  0.91824
USER: genes 18 Torsion [CA]-CB--CG-[OD1] |==|  0.85244
USER: genes 19 Torsion [C]-CA--N-[C] |==|  0.71111
USER: genes 20 Torsion [N]-C--CA-[N] |==|  0.69291
USER: genes 21 Torsion [C]-CA--CB-[CG] |==|  0.21598
USER: genes 22 Torsion [CA]-CB--CG-[CD2] |==|  0.03315
ROOT
ATOM      1  C   PHE C 305      10.393   6.236  -4.573  0.50 34.66 LIG 0.24  C 
ATOM      2 O    PHE C 305       9.203   5.935  -4.538  0.50 33.80 LIG-0.27  OA
ATOM      3  N   PRO C 306      11.341   5.369  -4.978  0.50 35.29 LIG-0.34  N 
ATOM      4  CA  PRO C 306      11.079   3.940  -4.911  0.50 35.79 LIG 0.18  C 
ATOM      5  CB  PRO C 306      11.892   3.374  -6.099  0.50 35.80 LIG 0.04  C 
ATOM      6  CG  PRO C 306      12.701   4.553  -6.649  0.50 35.25 LIG 0.02  C 
ATOM      7  CD  PRO C 306      12.648   5.630  -5.601  0.50 35.51 LIG 0.13  C 
ENDROOT
BRANCH 4 8
ATOM      8  C   PRO C 306      11.632   3.360  -3.607  0.50 36.50 LIG 0.24  C 
ATOM      9  N   ILE C 307      12.232   4.236  -2.784  0.50 37.01 LIG-0.35  N 
ATOM     10 H    ILE C 307      12.373   5.065  -2.965  0.50 37.01 LIG 0.16  HD
ATOM     11 O    PRO C 306      11.503   2.142  -3.353  0.50 36.74 LIG-0.27  OA
BRANCH 9 12
ATOM     12  CA  ILE C 307      12.698   3.798  -1.467  0.50 37.44 LIG 0.18  C 
BRANCH 12 13
ATOM     13  C   ILE C 307      11.583   3.174  -0.625  0.50 38.23 LIG 0.24  C 
ATOM     14  N   SER C 308      11.941   2.098   0.068  0.50 38.91 LIG-0.34  N 
ATOM     15 H    SER C 308      12.697   1.702  -0.041  0.50 38.91 LIG 0.16  HD
ATOM     16 O    ILE C 307      10.443   3.662  -0.602  0.50 38.79 LIG-0.27  OA
BRANCH 14 17
ATOM     17  CA  SER C 308      11.100   1.472   1.084  0.50 39.43 LIG 0.20  C 
BRANCH 17 18
ATOM     18  C   SER C 308      10.601   2.612   1.976  0.50 39.77 LIG 0.24  C 
ATOM     19  N   PRO C 309       9.312   2.977   1.852  0.50 40.03 LIG-0.34  N 
ATOM     20  CD  PRO C 309       8.210   2.215   1.243  0.50 39.83 LIG 0.13  C 
ATOM     21  CA  PRO C 309       8.856   4.255   2.401  0.50 40.09 LIG 0.19  C 
ATOM     22  CG  PRO C 309       7.153   3.255   1.044  0.50 40.19 LIG 0.02  C 
ATOM     23  CB  PRO C 309       7.338   4.209   2.185  0.50 40.09 LIG 0.04  C 
ATOM     24 O    SER C 308      11.364   3.150   2.783  0.50 39.81 LIG-0.27  OA
BRANCH 21 25
ATOM     25  C   PRO C 309       9.200   4.438   3.879  0.50 40.04 LIG 0.20  C 
ATOM     26 OXT  PRO C 309       8.666   3.752   4.755  0.50 40.10 LIG-0.65  OA
ATOM     27 O    PRO C 309      10.017   5.290   4.236  0.50 40.34 LIG-0.65  OA
ENDBRANCH 21 25
ENDBRANCH 17 18
BRANCH 17 28
ATOM     28  CB  SER C 308      11.897   0.458   1.908  0.50 39.49 LIG 0.20  C 
BRANCH 28 29
ATOM     29 OG   SER C 308      13.157   0.183   1.313  0.50 39.70 LIG-0.40  OA
ATOM     30 HG   SER C 308      13.569   0.903   1.181  0.50 39.70 LIG 0.21  HD
ENDBRANCH 28 29
ENDBRANCH 17 28
ENDBRANCH 14 17
ENDBRANCH 12 13
BRANCH 12 31
ATOM     31  CB  ILE C 307      13.319   4.955  -0.647  0.50 37.20 LIG 0.01  C 
ATOM     32  CG2 ILE C 307      13.235   4.665   0.859  0.50 36.86 LIG 0.01  C 
BRANCH 31 33
ATOM     33  CG1 ILE C 307      14.757   5.212  -1.130  0.50 35.88 LIG 0.00  C 
ATOM     34  CD1 ILE C 307      15.814   5.204  -0.053  0.50 32.01 LIG 0.01  C 
ENDBRANCH 31 33
ENDBRANCH 12 31
ENDBRANCH 9 12
ENDBRANCH 4 8
BRANCH 1 35
ATOM     35  CA  PHE C 305      10.832   7.653  -4.183  0.50 34.47 LIG 0.18  C 
BRANCH 35 36
ATOM     36  CB  PHE C 305      11.029   7.668  -2.659  0.50 34.49 LIG 0.07  C 
BRANCH 36 37
ATOM     37  CG  PHE C 305       9.761   7.473  -1.844  0.50 35.55 LIG-0.06  A 
ATOM     38  CD1 PHE C 305       9.279   6.203  -1.527  0.50 36.28 LIG 0.01  A 
ATOM     39  CE1 PHE C 305       8.112   6.049  -0.772  0.50 36.66 LIG 0.00  A 
ATOM     40  CZ  PHE C 305       7.404   7.174  -0.338  0.50 36.87 LIG 0.00  A 
ATOM     41  CE2 PHE C 305       7.868   8.440  -0.649  0.50 36.76 LIG 0.00  A 
ATOM     42  CD2 PHE C 305       9.039   8.586  -1.409  0.50 36.02 LIG 0.01  A 
ENDBRANCH 36 37
ENDBRANCH 35 36
BRANCH 35 43
ATOM     43  N   PHE C 305       9.886   8.714  -4.547  0.50 33.54 LIG-0.35  N 
ATOM     44 H    PHE C 305       9.343   8.943  -3.920  0.50 33.54 LIG 0.16  HD
ATOM     45  C   ASN C 304       9.901   9.255  -5.766  0.50 33.07 LIG 0.24  C 
ATOM     46 O    ASN C 304      10.422   8.694  -6.737  0.50 33.39 LIG-0.27  OA
BRANCH 45 47
ATOM     47  CA  ASN C 304       9.241  10.633  -5.909  0.50 32.40 LIG 0.18  C 
BRANCH 47 48
ATOM     48  CB  ASN C 304      10.080  11.622  -6.732  0.50 32.38 LIG 0.14  C 
BRANCH 48 49
ATOM     49  CG  ASN C 304      11.603  11.356  -6.631  0.50 31.77 LIG 0.22  C 
ATOM     50 OD1  ASN C 304      12.163  11.273  -5.544  0.50 27.48 LIG-0.27  OA
ATOM     51  ND2 ASN C 304      12.267  11.270  -7.777  0.50 32.56 LIG-0.37  N 
ATOM     52 21HD ASN C 304      13.119  11.152  -7.773  0.50 32.56 LIG 0.16  HD
ATOM     53 22HD ASN C 304      11.845  11.331  -8.524  0.50 32.56 LIG 0.16  HD
ENDBRANCH 48 49
ENDBRANCH 47 48
BRANCH 47 54
ATOM     54  N   ASN C 304       8.989  11.207  -4.609  0.50 31.56 LIG-0.34  N 
ATOM     55  C   LEU C 303       7.764  11.223  -4.104  0.50 30.83 LIG 0.26  C 
ATOM     56 O    LEU C 303       6.845  10.581  -4.593  0.50 29.02 LIG-0.27  OA
ATOM     57 H    ASN C 304       9.683  11.524  -4.213  0.50 31.56 LIG 0.16  HD
BRANCH 55 58
ATOM     58  CA  LEU C 303       7.566  12.094  -2.858  0.50 30.56 LIG 0.40  C 
ATOM     59  N   LEU C 303       7.320  11.315  -1.614  0.50 30.88 LIG 0.61  N 
BRANCH 58 60
ATOM     60  CB  LEU C 303       8.749  13.049  -2.659  0.50 30.80 LIG 0.06  C 
BRANCH 60 61
ATOM     61  CG  LEU C 303       8.813  14.303  -3.540  0.50 30.92 LIG-0.02  C 
ATOM     62  CD2 LEU C 303       7.482  14.518  -4.283  0.50 31.43 LIG 0.01  C 
ATOM     63  CD1 LEU C 303       9.989  14.247  -4.499  0.50 30.50 LIG 0.01  C 
ENDBRANCH 60 61
ENDBRANCH 58 60
ENDBRANCH 55 58
ENDBRANCH 47 54
ENDBRANCH 45 47
ENDBRANCH 35 43
ENDBRANCH 1 35
TORSDOF 21
ENDMDL
MODEL 126
USER: ADFR SOLUTION from run 92
USER: SCORE 17.139375 LL:  -5.611 LR: -12.865 RR:   0.000 FEB:  -6.600
USER: RMSD 11.935969
USER: SEED 91
USER: STATUS no improvement in best in 18 clusters for 5 generations
USER: GENES 23
USER: genes 0 Translation |==|  0.59519 0.47814 0.48899
USER: genes 1 Rotation |==|  0.17728 0.86234 0.51849 0.61923
USER: genes 2 Torsion [N]-CA--C-[N] |==|  0.51335
USER: genes 3 Torsion [C]-N--CA-[C] |==|  0.78796
USER: genes 4 Torsion [N]-CA--C-[N] |==|  0.45462
USER: genes 5 Torsion [C]-N--CA-[CB] |==|  0.81667
USER: genes 6 Torsion [N]-CA--C-[N] |==|  0.20985
USER: genes 7 Torsion [N]-CA--C-[OXT] |==|  0.34791
USER: genes 8 Torsion [N]-CA--CB-[OG] |==|  0.74898
USER: genes 9 Torsion [CA]-CB--OG-[HG] |==|  0.03001
USER: genes 10 Torsion [N]-CA--CB-[CG2] |==|  0.25898
USER: genes 11 Torsion [CA]-CB--CG1-[CD1] |==|  0.66361
USER: genes 12 Torsion [N]-C--CA-[N] |==|  0.30730
USER: genes 13 Torsion [C]-CA--CB-[CG] |==|  0.15520
USER: genes 14 Torsion [CA]-CB--CG-[CD1] |==|  0.67591
USER: genes 15 Torsion [C]-CA--N-[C] |==|  0.78387
USER: genes 16 Torsion [N]-C--CA-[N] |==|  0.09827
USER: genes 17 Torsion [C]-CA--CB-[CG] |==|  0.27943
USER: genes 18 Torsion [CA]-CB--CG-[OD1] |==|  0.61392
USER: genes 19 Torsion [C]-CA--N-[C] |==|  0.61331
USER: genes 20 Torsion [N]-C--CA-[N] |==|  0.33634
USER: genes 21 Torsion [C]-CA--CB-[CG] |==|  0.24475
USER: genes 22 Torsion [CA]-CB--CG-[CD2] |==|  0.02354
ROOT
ATOM      1  C   PHE C 305      15.819   6.306  -0.497  0.50 34.66 LIG 0.24  C 
ATOM      2 O    PHE C 305      16.469   5.338  -0.114  0.50 33.80 LIG-0.27  OA
ATOM      3  N   PRO C 306      16.360   7.536  -0.606  0.50 35.29 LIG-0.34  N 
ATOM      4  CA  PRO C 306      17.542   7.869   0.173  0.50 35.79 LIG 0.18  C 
ATOM      5  CB  PRO C 306      18.290   8.877  -0.730  0.50 35.80 LIG 0.04  C 
ATOM      6  CG  PRO C 306      17.349   9.161  -1.906  0.50 35.25 LIG 0.02  C 
ATOM      7  CD  PRO C 306      15.995   8.646  -1.500  0.50 35.51 LIG 0.13  C 
ENDROOT
BRANCH 4 8
ATOM      8  C   PRO C 306      17.140   8.567   1.474  0.50 36.50 LIG 0.24  C 
ATOM      9  N   ILE C 307      18.152   9.015   2.236  0.50 37.01 LIG-0.35  N 
ATOM     10 H    ILE C 307      18.985   8.885   2.072  0.50 37.01 LIG 0.16  HD
ATOM     11 O    PRO C 306      15.931   8.704   1.769  0.50 36.74 LIG-0.27  OA
BRANCH 9 12
ATOM     12  CA  ILE C 307      17.866   9.789   3.445  0.50 37.44 LIG 0.18  C 
BRANCH 12 13
ATOM     13  C   ILE C 307      17.462  11.233   3.139  0.50 38.23 LIG 0.24  C 
ATOM     14  N   SER C 308      16.871  11.873   4.144  0.50 38.91 LIG-0.34  N 
ATOM     15 H    SER C 308      16.617  11.478   4.865  0.50 38.91 LIG 0.16  HD
ATOM     16 O    ILE C 307      17.688  11.745   2.033  0.50 38.79 LIG-0.27  OA
BRANCH 14 17
ATOM     17  CA  SER C 308      16.591  13.306   4.138  0.50 39.43 LIG 0.20  C 
BRANCH 17 18
ATOM     18  C   SER C 308      15.799  13.573   2.856  0.50 39.77 LIG 0.24  C 
ATOM     19  N   PRO C 309      14.506  13.201   2.837  0.50 40.03 LIG-0.34  N 
ATOM     20  CD  PRO C 309      13.635  12.897   3.984  0.50 39.83 LIG 0.13  C 
ATOM     21  CA  PRO C 309      13.790  13.103   1.564  0.50 40.09 LIG 0.19  C 
ATOM     22  CG  PRO C 309      12.483  12.183   3.350  0.50 40.19 LIG 0.02  C 
ATOM     23  CB  PRO C 309      12.347  12.808   1.995  0.50 40.09 LIG 0.04  C 
ATOM     24 O    SER C 308      16.340  14.124   1.893  0.50 39.81 LIG-0.27  OA
BRANCH 21 25
ATOM     25  C   PRO C 309      13.868  14.378   0.725  0.50 40.04 LIG 0.20  C 
ATOM     26 OXT  PRO C 309      14.277  14.360  -0.440  0.50 40.10 LIG-0.65  OA
ATOM     27 O    PRO C 309      13.534  15.466   1.199  0.50 40.34 LIG-0.65  OA
ENDBRANCH 21 25
ENDBRANCH 17 18
BRANCH 17 28
ATOM     28  CB  SER C 308      17.888  14.118   4.144  0.50 39.49 LIG 0.20  C 
BRANCH 28 29
ATOM     29 OG   SER C 308      18.315  14.405   5.468  0.50 39.70 LIG-0.40  OA
ATOM     30 HG   SER C 308      17.861  13.954   6.013  0.50 39.70 LIG 0.21  HD
ENDBRANCH 28 29
ENDBRANCH 17 28
ENDBRANCH 14 17
ENDBRANCH 12 13
BRANCH 12 31
ATOM     31  CB  ILE C 307      19.072   9.831   4.416  0.50 37.20 LIG 0.01  C 
ATOM     32  CG2 ILE C 307      19.933  11.077   4.165  0.50 36.86 LIG 0.01  C 
BRANCH 31 33
ATOM     33  CG1 ILE C 307      18.566   9.732   5.866  0.50 35.88 LIG 0.00  C 
ATOM     34  CD1 ILE C 307      18.934  10.889   6.761  0.50 32.01 LIG 0.01  C 
ENDBRANCH 31 33
ENDBRANCH 12 31
ENDBRANCH 9 12
ENDBRANCH 4 8
BRANCH 1 35
ATOM     35  CA  PHE C 305      14.352   6.126  -0.907  0.50 34.47 LIG 0.18  C 
BRANCH 35 36
ATOM     36  CB  PHE C 305      13.633   5.431   0.259  0.50 34.49 LIG 0.07  C 
BRANCH 36 37
ATOM     37  CG  PHE C 305      13.742   6.142   1.598  0.50 35.55 LIG-0.06  A 
ATOM     38  CD1 PHE C 305      14.382   5.559   2.691  0.50 36.28 LIG 0.01  A 
ATOM     39  CE1 PHE C 305      14.473   6.235   3.911  0.50 36.66 LIG 0.00  A 
ATOM     40  CZ  PHE C 305      13.905   7.505   4.053  0.50 36.87 LIG 0.00  A 
ATOM     41  CE2 PHE C 305      13.262   8.094   2.979  0.50 36.76 LIG 0.00  A 
ATOM     42  CD2 PHE C 305      13.174   7.408   1.758  0.50 36.02 LIG 0.01  A 
ENDBRANCH 36 37
ENDBRANCH 35 36
BRANCH 35 43
ATOM     43  N   PHE C 305      14.145   5.337  -2.127  0.50 33.54 LIG-0.35  N 
ATOM     44 H    PHE C 305      13.892   4.526  -1.992  0.50 33.54 LIG 0.16  HD
ATOM     45  C   ASN C 304      14.344   5.874  -3.331  0.50 33.07 LIG 0.24  C 
ATOM     46 O    ASN C 304      15.028   6.890  -3.503  0.50 33.39 LIG-0.27  OA
BRANCH 45 47
ATOM     47  CA  ASN C 304      13.665   5.169  -4.513  0.50 32.40 LIG 0.18  C 
BRANCH 47 48
ATOM     48  CB  ASN C 304      13.466   6.086  -5.729  0.50 32.38 LIG 0.14  C 
BRANCH 48 49
ATOM     49  CG  ASN C 304      14.530   5.869  -6.834  0.50 31.77 LIG 0.22  C 
ATOM     50 OD1  ASN C 304      15.025   6.816  -7.435  0.50 27.48 LIG-0.27  OA
ATOM     51  ND2 ASN C 304      14.839   4.610  -7.121  0.50 32.56 LIG-0.37  N 
ATOM     52 21HD ASN C 304      15.403   4.438  -7.747  0.50 32.56 LIG 0.16  HD
ATOM     53 22HD ASN C 304      14.475   3.967  -6.681  0.50 32.56 LIG 0.16  HD
ENDBRANCH 48 49
ENDBRANCH 47 48
BRANCH 47 54
ATOM     54  N   ASN C 304      12.383   4.640  -4.114  0.50 31.56 LIG-0.34  N 
ATOM     55  C   LEU C 303      11.987   3.446  -4.530  0.50 30.83 LIG 0.26  C 
ATOM     56 O    LEU C 303      12.744   2.657  -5.077  0.50 29.02 LIG-0.27  OA
ATOM     57 H    ASN C 304      11.922   5.155  -3.602  0.50 31.56 LIG 0.16  HD
BRANCH 55 58
ATOM     58  CA  LEU C 303      10.513   3.106  -4.278  0.50 30.56 LIG 0.40  C 
ATOM     59  N   LEU C 303       9.747   2.800  -5.517  0.50 30.88 LIG 0.61  N 
BRANCH 58 60
ATOM     60  CB  LEU C 303      10.377   1.955  -3.274  0.50 30.80 LIG 0.06  C 
BRANCH 60 61
ATOM     61  CG  LEU C 303      10.326   2.309  -1.782  0.50 30.92 LIG-0.02  C 
ATOM     62  CD2 LEU C 303      10.214   3.832  -1.584  0.50 31.43 LIG 0.01  C 
ATOM     63  CD1 LEU C 303      11.515   1.731  -1.035  0.50 30.50 LIG 0.01  C 
ENDBRANCH 60 61
ENDBRANCH 58 60
ENDBRANCH 55 58
ENDBRANCH 47 54
ENDBRANCH 45 47
ENDBRANCH 35 43
ENDBRANCH 1 35
TORSDOF 21
ENDMDL
MODEL 127
USER: ADFR SOLUTION from run 192
USER: SCORE 17.422721 LL:  -5.890 LR: -12.861 RR:   0.000 FEB:  -6.596
USER: RMSD 11.722271
USER: SEED 191
USER: STATUS no improvement in best in 12 clusters for 5 generations
USER: GENES 23
USER: genes 0 Translation |==|  0.46286 0.62487 0.25612
USER: genes 1 Rotation |==|  0.99224 0.41682 0.50383 0.52767
USER: genes 2 Torsion [N]-CA--C-[N] |==|  0.10222
USER: genes 3 Torsion [C]-N--CA-[C] |==|  0.64302
USER: genes 4 Torsion [N]-CA--C-[N] |==|  0.43364
USER: genes 5 Torsion [C]-N--CA-[CB] |==|  0.88208
USER: genes 6 Torsion [N]-CA--C-[N] |==|  0.39424
USER: genes 7 Torsion [N]-CA--C-[OXT] |==|  0.37239
USER: genes 8 Torsion [N]-CA--CB-[OG] |==|  0.24641
USER: genes 9 Torsion [CA]-CB--OG-[HG] |==|  0.62634
USER: genes 10 Torsion [N]-CA--CB-[CG2] |==|  0.32020
USER: genes 11 Torsion [CA]-CB--CG1-[CD1] |==|  0.24950
USER: genes 12 Torsion [N]-C--CA-[N] |==|  0.87132
USER: genes 13 Torsion [C]-CA--CB-[CG] |==|  0.53647
USER: genes 14 Torsion [CA]-CB--CG-[CD1] |==|  0.25374
USER: genes 15 Torsion [C]-CA--N-[C] |==|  0.70561
USER: genes 16 Torsion [N]-C--CA-[N] |==|  0.24576
USER: genes 17 Torsion [C]-CA--CB-[CG] |==|  0.76380
USER: genes 18 Torsion [CA]-CB--CG-[OD1] |==|  0.66622
USER: genes 19 Torsion [C]-CA--N-[C] |==|  0.65740
USER: genes 20 Torsion [N]-C--CA-[N] |==|  0.55115
USER: genes 21 Torsion [C]-CA--CB-[CG] |==|  0.22913
USER: genes 22 Torsion [CA]-CB--CG-[CD2] |==|  0.64237
ROOT
ATOM      1  C   PHE C 305      12.445   9.828  -5.213  0.50 34.66 LIG 0.24  C 
ATOM      2 O    PHE C 305      13.399  10.474  -4.790  0.50 33.80 LIG-0.27  OA
ATOM      3  N   PRO C 306      11.484  10.382  -5.978  0.50 35.29 LIG-0.34  N 
ATOM      4  CA  PRO C 306      11.265  11.819  -5.921  0.50 35.79 LIG 0.18  C 
ATOM      5  CB  PRO C 306      10.788  12.162  -7.352  0.50 35.80 LIG 0.04  C 
ATOM      6  CG  PRO C 306      10.615  10.817  -8.067  0.50 35.25 LIG 0.02  C 
ATOM      7  CD  PRO C 306      10.620   9.763  -6.994  0.50 35.51 LIG 0.13  C 
ENDROOT
BRANCH 4 8
ATOM      8  C   PRO C 306      10.145  12.145  -4.931  0.50 36.50 LIG 0.24  C 
ATOM      9  N   ILE C 307      10.097  11.380  -3.827  0.50 37.01 LIG-0.35  N 
ATOM     10 H    ILE C 307      10.603  10.702  -3.676  0.50 37.01 LIG 0.16  HD
ATOM     11 O    PRO C 306       9.350  13.083  -5.164  0.50 36.74 LIG-0.27  OA
BRANCH 9 12
ATOM     12  CA  ILE C 307       9.129  11.683  -2.772  0.50 37.44 LIG 0.18  C 
BRANCH 12 13
ATOM     13  C   ILE C 307       9.777  11.783  -1.389  0.50 38.23 LIG 0.24  C 
ATOM     14  N   SER C 308       9.102  12.514  -0.507  0.50 38.91 LIG-0.34  N 
ATOM     15 H    SER C 308       8.426  13.000  -0.723  0.50 38.91 LIG 0.16  HD
ATOM     16 O    ILE C 307      10.845  11.207  -1.134  0.50 38.79 LIG-0.27  OA
BRANCH 14 17
ATOM     17  CA  SER C 308       9.431  12.575   0.915  0.50 39.43 LIG 0.20  C 
BRANCH 17 18
ATOM     18  C   SER C 308      10.645  13.500   1.026  0.50 39.77 LIG 0.24  C 
ATOM     19  N   PRO C 309      10.695  14.332   2.081  0.50 40.03 LIG-0.34  N 
ATOM     20  CD  PRO C 309       9.937  14.245   3.340  0.50 39.83 LIG 0.13  C 
ATOM     21  CA  PRO C 309      11.622  15.466   2.078  0.50 40.09 LIG 0.19  C 
ATOM     22  CG  PRO C 309      10.108  15.610   3.929  0.50 40.19 LIG 0.02  C 
ATOM     23  CB  PRO C 309      11.472  16.047   3.490  0.50 40.09 LIG 0.04  C 
ATOM     24 O    SER C 308      11.539  13.457   0.177  0.50 39.81 LIG-0.27  OA
BRANCH 21 25
ATOM     25  C   PRO C 309      13.070  15.064   1.795  0.50 40.04 LIG 0.20  C 
ATOM     26 OXT  PRO C 309      13.767  15.690   0.991  0.50 40.10 LIG-0.65  OA
ATOM     27 O    PRO C 309      13.575  14.090   2.357  0.50 40.34 LIG-0.65  OA
ENDBRANCH 21 25
ENDBRANCH 17 18
BRANCH 17 28
ATOM     28  CB  SER C 308       9.766  11.184   1.459  0.50 39.49 LIG 0.20  C 
BRANCH 28 29
ATOM     29 OG   SER C 308      11.148  10.890   1.314  0.50 39.70 LIG-0.40  OA
ATOM     30 HG   SER C 308      11.239  10.111   1.011  0.50 39.70 LIG 0.21  HD
ENDBRANCH 28 29
ENDBRANCH 17 28
ENDBRANCH 14 17
ENDBRANCH 12 13
BRANCH 12 31
ATOM     31  CB  ILE C 307       7.998  10.628  -2.689  0.50 37.20 LIG 0.01  C 
ATOM     32  CG2 ILE C 307       8.049   9.874  -1.351  0.50 36.86 LIG 0.01  C 
BRANCH 31 33
ATOM     33  CG1 ILE C 307       6.642  11.309  -2.944  0.50 35.88 LIG 0.00  C 
ATOM     34  CD1 ILE C 307       6.202  11.356  -4.387  0.50 32.01 LIG 0.01  C 
ENDBRANCH 31 33
ENDBRANCH 12 31
ENDBRANCH 9 12
ENDBRANCH 4 8
BRANCH 1 35
ATOM     35  CA  PHE C 305      12.344   8.329  -4.903  0.50 34.47 LIG 0.18  C 
BRANCH 35 36
ATOM     36  CB  PHE C 305      12.746   7.570  -6.177  0.50 34.49 LIG 0.07  C 
BRANCH 36 37
ATOM     37  CG  PHE C 305      12.415   6.087  -6.175  0.50 35.55 LIG-0.06  A 
ATOM     38  CD1 PHE C 305      11.206   5.603  -6.674  0.50 36.28 LIG 0.01  A 
ATOM     39  CE1 PHE C 305      10.925   4.233  -6.665  0.50 36.66 LIG 0.00  A 
ATOM     40  CZ  PHE C 305      11.854   3.331  -6.139  0.50 36.87 LIG 0.00  A 
ATOM     41  CE2 PHE C 305      13.056   3.797  -5.636  0.50 36.76 LIG 0.00  A 
ATOM     42  CD2 PHE C 305      13.329   5.174  -5.647  0.50 36.02 LIG 0.01  A 
ENDBRANCH 36 37
ENDBRANCH 35 36
BRANCH 35 43
ATOM     43  N   PHE C 305      11.014   7.874  -4.482  0.50 33.54 LIG-0.35  N 
ATOM     44 H    PHE C 305      10.433   7.827  -5.115  0.50 33.54 LIG 0.16  HD
ATOM     45  C   ASN C 304      10.768   7.566  -3.208  0.50 33.07 LIG 0.24  C 
ATOM     46 O    ASN C 304      11.478   7.964  -2.277  0.50 33.39 LIG-0.27  OA
BRANCH 45 47
ATOM     47  CA  ASN C 304       9.549   6.671  -2.946  0.50 32.40 LIG 0.18  C 
BRANCH 47 48
ATOM     48  CB  ASN C 304       8.881   6.942  -1.589  0.50 32.38 LIG 0.14  C 
BRANCH 48 49
ATOM     49  CG  ASN C 304       9.544   6.168  -0.422  0.50 31.77 LIG 0.22  C 
ATOM     50 OD1  ASN C 304       8.905   5.370   0.254  0.50 27.48 LIG-0.27  OA
ATOM     51  ND2 ASN C 304      10.816   6.451  -0.169  0.50 32.56 LIG-0.37  N 
ATOM     52 21HD ASN C 304      11.219   6.068   0.488  0.50 32.56 LIG 0.16  HD
ATOM     53 22HD ASN C 304      11.237   7.016  -0.662  0.50 32.56 LIG 0.16  HD
ENDBRANCH 48 49
ENDBRANCH 47 48
BRANCH 47 54
ATOM     54  N   ASN C 304       9.924   5.279  -3.010  0.50 31.56 LIG-0.34  N 
ATOM     55  C   LEU C 303       9.315   4.454  -3.847  0.50 30.83 LIG 0.26  C 
ATOM     56 O    LEU C 303       8.577   4.850  -4.738  0.50 29.02 LIG-0.27  OA
ATOM     57 H    ASN C 304      10.555   5.049  -2.472  0.50 31.56 LIG 0.16  HD
BRANCH 55 58
ATOM     58  CA  LEU C 303       9.596   2.960  -3.637  0.50 30.56 LIG 0.40  C 
ATOM     59  N   LEU C 303       9.266   2.115  -4.817  0.50 30.88 LIG 0.61  N 
BRANCH 58 60
ATOM     60  CB  LEU C 303      11.050   2.728  -3.210  0.50 30.80 LIG 0.06  C 
BRANCH 60 61
ATOM     61  CG  LEU C 303      11.399   2.908  -1.727  0.50 30.92 LIG-0.02  C 
ATOM     62  CD2 LEU C 303      12.609   3.846  -1.560  0.50 31.43 LIG 0.01  C 
ATOM     63  CD1 LEU C 303      11.626   1.571  -1.045  0.50 30.50 LIG 0.01  C 
ENDBRANCH 60 61
ENDBRANCH 58 60
ENDBRANCH 55 58
ENDBRANCH 47 54
ENDBRANCH 45 47
ENDBRANCH 35 43
ENDBRANCH 1 35
TORSDOF 21
ENDMDL
MODEL 128
USER: ADFR SOLUTION from run 35
USER: SCORE 18.355634 LL:  -6.564 LR: -12.853 RR:   0.000 FEB:  -6.589
USER: RMSD 10.584346
USER: SEED 34
USER: STATUS no improvement in best in 11 clusters for 5 generations
USER: GENES 23
USER: genes 0 Translation |==|  0.62536 0.73139 0.75779
USER: genes 1 Rotation |==|  0.54960 0.46100 0.95022 0.70814
USER: genes 2 Torsion [N]-CA--C-[N] |==|  0.01248
USER: genes 3 Torsion [C]-N--CA-[C] |==|  0.79462
USER: genes 4 Torsion [N]-CA--C-[N] |==|  0.37758
USER: genes 5 Torsion [C]-N--CA-[CB] |==|  0.51111
USER: genes 6 Torsion [N]-CA--C-[N] |==|  0.29294
USER: genes 7 Torsion [N]-CA--C-[OXT] |==|  0.79645
USER: genes 8 Torsion [N]-CA--CB-[OG] |==|  0.99230
USER: genes 9 Torsion [CA]-CB--OG-[HG] |==|  0.11925
USER: genes 10 Torsion [N]-CA--CB-[CG2] |==|  0.95413
USER: genes 11 Torsion [CA]-CB--CG1-[CD1] |==|  0.36840
USER: genes 12 Torsion [N]-C--CA-[N] |==|  0.42384
USER: genes 13 Torsion [C]-CA--CB-[CG] |==|  0.76446
USER: genes 14 Torsion [CA]-CB--CG-[CD1] |==|  0.66653
USER: genes 15 Torsion [C]-CA--N-[C] |==|  0.74619
USER: genes 16 Torsion [N]-C--CA-[N] |==|  0.96019
USER: genes 17 Torsion [C]-CA--CB-[CG] |==|  0.05783
USER: genes 18 Torsion [CA]-CB--CG-[OD1] |==|  0.78260
USER: genes 19 Torsion [C]-CA--N-[C] |==|  0.73048
USER: genes 20 Torsion [N]-C--CA-[N] |==|  0.79067
USER: genes 21 Torsion [C]-CA--CB-[CG] |==|  0.24853
USER: genes 22 Torsion [CA]-CB--CG-[CD2] |==|  0.33723
ROOT
ATOM      1  C   PHE C 305      16.589  12.384   4.946  0.50 34.66 LIG 0.24  C 
ATOM      2 O    PHE C 305      16.756  13.573   4.689  0.50 33.80 LIG-0.27  OA
ATOM      3  N   PRO C 306      17.593  11.593   5.371  0.50 35.29 LIG-0.34  N 
ATOM      4  CA  PRO C 306      18.968  11.960   5.071  0.50 35.79 LIG 0.18  C 
ATOM      5  CB  PRO C 306      19.756  11.408   6.282  0.50 35.80 LIG 0.04  C 
ATOM      6  CG  PRO C 306      18.743  10.603   7.105  0.50 35.25 LIG 0.02  C 
ATOM      7  CD  PRO C 306      17.548  10.391   6.217  0.50 35.51 LIG 0.13  C 
ENDROOT
BRANCH 4 8
ATOM      8  C   PRO C 306      19.442  11.250   3.801  0.50 36.50 LIG 0.24  C 
ATOM      9  N   ILE C 307      18.515  10.519   3.158  0.50 37.01 LIG-0.35  N 
ATOM     10 H    ILE C 307      17.715  10.382   3.440  0.50 37.01 LIG 0.16  HD
ATOM     11 O    PRO C 306      20.624  11.377   3.411  0.50 36.74 LIG-0.27  OA
BRANCH 9 12
ATOM     12  CA  ILE C 307      18.844   9.889   1.878  0.50 37.44 LIG 0.18  C 
BRANCH 12 13
ATOM     13  C   ILE C 307      18.915  10.896   0.728  0.50 38.23 LIG 0.24  C 
ATOM     14  N   SER C 308      19.952  10.737  -0.090  0.50 38.91 LIG-0.34  N 
ATOM     15 H    SER C 308      20.603  10.201   0.080  0.50 38.91 LIG 0.16  HD
ATOM     16 O    ILE C 307      18.053  11.775   0.586  0.50 38.79 LIG-0.27  OA
BRANCH 14 17
ATOM     17  CA  SER C 308      20.102  11.451  -1.355  0.50 39.43 LIG 0.20  C 
BRANCH 17 18
ATOM     18  C   SER C 308      18.839  11.141  -2.163  0.50 39.77 LIG 0.24  C 
ATOM     19  N   PRO C 309      17.918  12.115  -2.272  0.50 40.03 LIG-0.34  N 
ATOM     20  CD  PRO C 309      18.093  13.557  -2.031  0.50 39.83 LIG 0.13  C 
ATOM     21  CA  PRO C 309      16.562  11.795  -2.720  0.50 40.09 LIG 0.19  C 
ATOM     22  CG  PRO C 309      16.685  14.051  -1.921  0.50 40.19 LIG 0.02  C 
ATOM     23  CB  PRO C 309      15.900  13.174  -2.847  0.50 40.09 LIG 0.04  C 
ATOM     24 O    SER C 308      18.699  10.038  -2.700  0.50 39.81 LIG-0.27  OA
BRANCH 21 25
ATOM     25  C   PRO C 309      16.524  11.037  -4.047  0.50 40.04 LIG 0.20  C 
ATOM     26 OXT  PRO C 309      16.769  11.600  -5.118  0.50 40.10 LIG-0.65  OA
ATOM     27 O    PRO C 309      16.234   9.839  -4.080  0.50 40.34 LIG-0.65  OA
ENDBRANCH 21 25
ENDBRANCH 17 18
BRANCH 17 28
ATOM     28  CB  SER C 308      21.348  10.977  -2.107  0.50 39.49 LIG 0.20  C 
BRANCH 28 29
ATOM     29 OG   SER C 308      22.073  10.014  -1.355  0.50 39.70 LIG-0.40  OA
ATOM     30 HG   SER C 308      21.537   9.467  -1.009  0.50 39.70 LIG 0.21  HD
ENDBRANCH 28 29
ENDBRANCH 17 28
ENDBRANCH 14 17
ENDBRANCH 12 13
BRANCH 12 31
ATOM     31  CB  ILE C 307      17.826   8.791   1.484  0.50 37.20 LIG 0.01  C 
ATOM     32  CG2 ILE C 307      16.985   8.363   2.696  0.50 36.86 LIG 0.01  C 
BRANCH 31 33
ATOM     33  CG1 ILE C 307      16.971   9.285   0.303  0.50 35.88 LIG 0.00  C 
ATOM     34  CD1 ILE C 307      16.814   8.309  -0.836  0.50 32.01 LIG 0.01  C 
ENDBRANCH 31 33
ENDBRANCH 12 31
ENDBRANCH 9 12
ENDBRANCH 4 8
BRANCH 1 35
ATOM     35  CA  PHE C 305      15.189  11.768   4.824  0.50 34.47 LIG 0.18  C 
BRANCH 35 36
ATOM     36  CB  PHE C 305      15.092  11.124   3.433  0.50 34.49 LIG 0.07  C 
BRANCH 36 37
ATOM     37  CG  PHE C 305      14.695  12.069   2.311  0.50 35.55 LIG-0.06  A 
ATOM     38  CD1 PHE C 305      13.545  11.864   1.549  0.50 36.28 LIG 0.01  A 
ATOM     39  CE1 PHE C 305      13.198  12.749   0.525  0.50 36.66 LIG 0.00  A 
ATOM     40  CZ  PHE C 305      14.013  13.850   0.244  0.50 36.87 LIG 0.00  A 
ATOM     41  CE2 PHE C 305      15.159  14.065   0.989  0.50 36.76 LIG 0.00  A 
ATOM     42  CD2 PHE C 305      15.502  13.169   2.014  0.50 36.02 LIG 0.01  A 
ENDBRANCH 36 37
ENDBRANCH 35 36
BRANCH 35 43
ATOM     43  N   PHE C 305      14.081  12.717   4.983  0.50 33.54 LIG-0.35  N 
ATOM     44 H    PHE C 305      13.828  13.101   4.255  0.50 33.54 LIG 0.16  HD
ATOM     45  C   ASN C 304      13.537  12.939   6.179  0.50 33.07 LIG 0.24  C 
ATOM     46 O    ASN C 304      14.118  12.668   7.237  0.50 33.39 LIG-0.27  OA
BRANCH 45 47
ATOM     47  CA  ASN C 304      12.127  13.547   6.185  0.50 32.40 LIG 0.18  C 
BRANCH 47 48
ATOM     48  CB  ASN C 304      11.040  12.546   6.607  0.50 32.38 LIG 0.14  C 
BRANCH 48 49
ATOM     49  CG  ASN C 304      11.600  11.344   7.409  0.50 31.77 LIG 0.22  C 
ATOM     50 OD1  ASN C 304      12.165  10.413   6.846  0.50 27.48 LIG-0.27  OA
ATOM     51  ND2 ASN C 304      11.395  11.359   8.720  0.50 32.56 LIG-0.37  N 
ATOM     52 21HD ASN C 304      11.662  10.699   9.204  0.50 32.56 LIG 0.16  HD
ATOM     53 22HD ASN C 304      10.996  12.027   9.085  0.50 32.56 LIG 0.16  HD
ENDBRANCH 48 49
ENDBRANCH 47 48
BRANCH 47 54
ATOM     54  N   ASN C 304      11.798  14.067   4.880  0.50 31.56 LIG-0.34  N 
ATOM     55  C   LEU C 303      11.953  15.354   4.608  0.50 30.83 LIG 0.26  C 
ATOM     56 O    LEU C 303      12.567  16.111   5.347  0.50 29.02 LIG-0.27  OA
ATOM     57 H    ASN C 304      11.504  13.483   4.321  0.50 31.56 LIG 0.16  HD
BRANCH 55 58
ATOM     58  CA  LEU C 303      11.319  15.842   3.300  0.50 30.56 LIG 0.40  C 
ATOM     59  N   LEU C 303      12.076  15.444   2.081  0.50 30.88 LIG 0.61  N 
BRANCH 58 60
ATOM     60  CB  LEU C 303       9.860  15.383   3.190  0.50 30.80 LIG 0.06  C 
BRANCH 60 61
ATOM     61  CG  LEU C 303       8.776  16.300   3.769  0.50 30.92 LIG-0.02  C 
ATOM     62  CD2 LEU C 303       7.764  16.706   2.681  0.50 31.43 LIG 0.01  C 
ATOM     63  CD1 LEU C 303       9.383  17.513   4.452  0.50 30.50 LIG 0.01  C 
ENDBRANCH 60 61
ENDBRANCH 58 60
ENDBRANCH 55 58
ENDBRANCH 47 54
ENDBRANCH 45 47
ENDBRANCH 35 43
ENDBRANCH 1 35
TORSDOF 21
ENDMDL
MODEL 129
USER: ADFR SOLUTION from run 77
USER: SCORE 16.925041 LL:  -5.424 LR: -12.850 RR:   0.000 FEB:  -6.586
USER: RMSD 7.817122
USER: SEED 76
USER: STATUS no improvement in best in 43 clusters for 5 generations
USER: GENES 23
USER: genes 0 Translation |==|  0.37428 0.48188 0.26475
USER: genes 1 Rotation |==|  0.62208 0.89164 0.70282 0.70144
USER: genes 2 Torsion [N]-CA--C-[N] |==|  0.12370
USER: genes 3 Torsion [C]-N--CA-[C] |==|  0.65673
USER: genes 4 Torsion [N]-CA--C-[N] |==|  0.92181
USER: genes 5 Torsion [C]-N--CA-[CB] |==|  0.53386
USER: genes 6 Torsion [N]-CA--C-[N] |==|  0.28337
USER: genes 7 Torsion [N]-CA--C-[OXT] |==|  0.87783
USER: genes 8 Torsion [N]-CA--CB-[OG] |==|  0.33470
USER: genes 9 Torsion [CA]-CB--OG-[HG] |==|  0.44664
USER: genes 10 Torsion [N]-CA--CB-[CG2] |==|  0.38248
USER: genes 11 Torsion [CA]-CB--CG1-[CD1] |==|  0.63226
USER: genes 12 Torsion [N]-C--CA-[N] |==|  0.85556
USER: genes 13 Torsion [C]-CA--CB-[CG] |==|  0.12155
USER: genes 14 Torsion [CA]-CB--CG-[CD1] |==|  0.17880
USER: genes 15 Torsion [C]-CA--N-[C] |==|  0.79079
USER: genes 16 Torsion [N]-C--CA-[N] |==|  0.12386
USER: genes 17 Torsion [C]-CA--CB-[CG] |==|  0.46035
USER: genes 18 Torsion [CA]-CB--CG-[OD1] |==|  0.76266
USER: genes 19 Torsion [C]-CA--N-[C] |==|  0.16169
USER: genes 20 Torsion [N]-C--CA-[N] |==|  0.96004
USER: genes 21 Torsion [C]-CA--CB-[CG] |==|  0.27180
USER: genes 22 Torsion [CA]-CB--CG-[CD2] |==|  0.70972
ROOT
ATOM      1  C   PHE C 305      10.186   6.396  -5.038  0.50 34.66 LIG 0.24  C 
ATOM      2 O    PHE C 305       9.335   6.196  -5.899  0.50 33.80 LIG-0.27  OA
ATOM      3  N   PRO C 306      11.372   5.756  -5.036  0.50 35.29 LIG-0.34  N 
ATOM      4  CA  PRO C 306      11.497   4.482  -5.726  0.50 35.79 LIG 0.18  C 
ATOM      5  CB  PRO C 306      12.968   4.481  -6.206  0.50 35.80 LIG 0.04  C 
ATOM      6  CG  PRO C 306      13.610   5.724  -5.579  0.50 35.25 LIG 0.02  C 
ATOM      7  CD  PRO C 306      12.672   6.189  -4.501  0.50 35.51 LIG 0.13  C 
ENDROOT
BRANCH 4 8
ATOM      8  C   PRO C 306      11.292   3.326  -4.745  0.50 36.50 LIG 0.24  C 
ATOM      9  N   ILE C 307      10.260   3.454  -3.895  0.50 37.01 LIG-0.35  N 
ATOM     10 H    ILE C 307       9.761   4.151  -3.829  0.50 37.01 LIG 0.16  HD
ATOM     11 O    PRO C 306      12.053   2.332  -4.774  0.50 36.74 LIG-0.27  OA
BRANCH 9 12
ATOM     12  CA  ILE C 307       9.919   2.355  -2.991  0.50 37.44 LIG 0.18  C 
BRANCH 12 13
ATOM     13  C   ILE C 307       8.469   1.892  -3.148  0.50 38.23 LIG 0.24  C 
ATOM     14  N   SER C 308       7.625   2.831  -3.567  0.50 38.91 LIG-0.34  N 
ATOM     15 H    SER C 308       7.841   3.662  -3.622  0.50 38.91 LIG 0.16  HD
ATOM     16 O    ILE C 307       8.135   0.723  -2.906  0.50 38.79 LIG-0.27  OA
BRANCH 14 17
ATOM     17  CA  SER C 308       6.250   2.559  -3.975  0.50 39.43 LIG 0.20  C 
BRANCH 17 18
ATOM     18  C   SER C 308       6.324   1.365  -4.930  0.50 39.77 LIG 0.24  C 
ATOM     19  N   PRO C 309       5.983   0.159  -4.442  0.50 40.03 LIG-0.34  N 
ATOM     20  CD  PRO C 309       5.208  -0.139  -3.226  0.50 39.83 LIG 0.13  C 
ATOM     21  CA  PRO C 309       6.351  -1.057  -5.170  0.50 40.09 LIG 0.19  C 
ATOM     22  CG  PRO C 309       5.491  -1.591  -2.998  0.50 40.19 LIG 0.02  C 
ATOM     23  CB  PRO C 309       5.657  -2.168  -4.370  0.50 40.09 LIG 0.04  C 
ATOM     24 O    SER C 308       6.669   1.528  -6.104  0.50 39.81 LIG-0.27  OA
BRANCH 21 25
ATOM     25  C   PRO C 309       5.892  -1.053  -6.628  0.50 40.04 LIG 0.20  C 
ATOM     26 OXT  PRO C 309       4.761  -0.675  -6.947  0.50 40.10 LIG-0.65  OA
ATOM     27 O    PRO C 309       6.642  -1.443  -7.525  0.50 40.34 LIG-0.65  OA
ENDBRANCH 21 25
ENDBRANCH 17 18
BRANCH 17 28
ATOM     28  CB  SER C 308       5.638   3.772  -4.680  0.50 39.49 LIG 0.20  C 
BRANCH 28 29
ATOM     29 OG   SER C 308       5.232   3.453  -6.004  0.50 39.70 LIG-0.40  OA
ATOM     30 HG   SER C 308       4.679   4.025  -6.273  0.50 39.70 LIG 0.21  HD
ENDBRANCH 28 29
ENDBRANCH 17 28
ENDBRANCH 14 17
ENDBRANCH 12 13
BRANCH 12 31
ATOM     31  CB  ILE C 307      10.140   2.724  -1.504  0.50 37.20 LIG 0.01  C 
ATOM     32  CG2 ILE C 307       8.980   2.214  -0.635  0.50 36.86 LIG 0.01  C 
BRANCH 31 33
ATOM     33  CG1 ILE C 307      11.512   2.200  -1.043  0.50 35.88 LIG 0.00  C 
ATOM     34  CD1 ILE C 307      11.513   1.454   0.269  0.50 32.01 LIG 0.01  C 
ENDBRANCH 31 33
ENDBRANCH 12 31
ENDBRANCH 9 12
ENDBRANCH 4 8
BRANCH 1 35
ATOM     35  CA  PHE C 305       9.927   7.435  -3.939  0.50 34.47 LIG 0.18  C 
BRANCH 35 36
ATOM     36  CB  PHE C 305      10.853   8.630  -4.211  0.50 34.49 LIG 0.07  C 
BRANCH 36 37
ATOM     37  CG  PHE C 305      10.929   9.068  -5.664  0.50 35.55 LIG-0.06  A 
ATOM     38  CD1 PHE C 305       9.820   9.578  -6.337  0.50 36.28 LIG 0.01  A 
ATOM     39  CE1 PHE C 305       9.916   9.978  -7.673  0.50 36.66 LIG 0.00  A 
ATOM     40  CZ  PHE C 305      11.130   9.857  -8.356  0.50 36.87 LIG 0.00  A 
ATOM     41  CE2 PHE C 305      12.238   9.348  -7.703  0.50 36.76 LIG 0.00  A 
ATOM     42  CD2 PHE C 305      12.133   8.946  -6.362  0.50 36.02 LIG 0.01  A 
ENDBRANCH 36 37
ENDBRANCH 35 36
BRANCH 35 43
ATOM     43  N   PHE C 305      10.161   6.957  -2.571  0.50 33.54 LIG-0.35  N 
ATOM     44 H    PHE C 305      10.886   7.244  -2.209  0.50 33.54 LIG 0.16  HD
ATOM     45  C   ASN C 304       9.291   6.143  -1.973  0.50 33.07 LIG 0.24  C 
ATOM     46 O    ASN C 304       8.464   5.471  -2.602  0.50 33.39 LIG-0.27  OA
BRANCH 45 47
ATOM     47  CA  ASN C 304       9.355   6.084  -0.441  0.50 32.40 LIG 0.18  C 
BRANCH 47 48
ATOM     48  CB  ASN C 304       8.136   5.391   0.188  0.50 32.38 LIG 0.14  C 
BRANCH 48 49
ATOM     49  CG  ASN C 304       8.352   5.017   1.677  0.50 31.77 LIG 0.22  C 
ATOM     50 OD1  ASN C 304       8.896   3.966   1.995  0.50 27.48 LIG-0.27  OA
ATOM     51  ND2 ASN C 304       7.877   5.869   2.577  0.50 32.56 LIG-0.37  N 
ATOM     52 21HD ASN C 304       7.946   5.691   3.416  0.50 32.56 LIG 0.16  HD
ATOM     53 22HD ASN C 304       7.500   6.599   2.322  0.50 32.56 LIG 0.16  HD
ENDBRANCH 48 49
ENDBRANCH 47 48
BRANCH 47 54
ATOM     54  N   ASN C 304       9.469   7.413   0.110  0.50 31.56 LIG-0.34  N 
ATOM     55  C   LEU C 303       8.548   8.330  -0.145  0.50 30.83 LIG 0.26  C 
ATOM     56 O    LEU C 303       7.474   8.056  -0.661  0.50 29.02 LIG-0.27  OA
ATOM     57 H    ASN C 304      10.165   7.544   0.598  0.50 31.56 LIG 0.16  HD
BRANCH 55 58
ATOM     58  CA  LEU C 303       8.906   9.767   0.255  0.50 30.56 LIG 0.40  C 
ATOM     59  N   LEU C 303      10.080   9.861   1.165  0.50 30.88 LIG 0.61  N 
BRANCH 58 60
ATOM     60  CB  LEU C 303       9.125  10.645  -0.983  0.50 30.80 LIG 0.06  C 
BRANCH 60 61
ATOM     61  CG  LEU C 303       7.960  11.525  -1.452  0.50 30.92 LIG-0.02  C 
ATOM     62  CD2 LEU C 303       7.292  10.928  -2.704  0.50 31.43 LIG 0.01  C 
ATOM     63  CD1 LEU C 303       8.407  12.958  -1.682  0.50 30.50 LIG 0.01  C 
ENDBRANCH 60 61
ENDBRANCH 58 60
ENDBRANCH 55 58
ENDBRANCH 47 54
ENDBRANCH 45 47
ENDBRANCH 35 43
ENDBRANCH 1 35
TORSDOF 21
ENDMDL
MODEL 130
USER: ADFR SOLUTION from run 155
USER: SCORE 17.649878 LL:  -5.825 LR: -12.838 RR:   0.000 FEB:  -6.574
USER: RMSD 9.064251
USER: SEED 154
USER: STATUS no improvement in best in 60 clusters for 5 generations
USER: GENES 23
USER: genes 0 Translation |==|  0.28974 0.68874 0.43526
USER: genes 1 Rotation |==|  0.32216 0.20689 0.28728 0.79532
USER: genes 2 Torsion [N]-CA--C-[N] |==|  0.02700
USER: genes 3 Torsion [C]-N--CA-[C] |==|  0.63914
USER: genes 4 Torsion [N]-CA--C-[N] |==|  0.30683
USER: genes 5 Torsion [C]-N--CA-[CB] |==|  0.53333
USER: genes 6 Torsion [N]-CA--C-[N] |==|  0.34109
USER: genes 7 Torsion [N]-CA--C-[OXT] |==|  0.89533
USER: genes 8 Torsion [N]-CA--CB-[OG] |==|  0.89465
USER: genes 9 Torsion [CA]-CB--OG-[HG] |==|  0.60152
USER: genes 10 Torsion [N]-CA--CB-[CG2] |==|  0.08731
USER: genes 11 Torsion [CA]-CB--CG1-[CD1] |==|  0.37934
USER: genes 12 Torsion [N]-C--CA-[N] |==|  0.35952
USER: genes 13 Torsion [C]-CA--CB-[CG] |==|  0.86441
USER: genes 14 Torsion [CA]-CB--CG-[CD1] |==|  0.33244
USER: genes 15 Torsion [C]-CA--N-[C] |==|  0.72887
USER: genes 16 Torsion [N]-C--CA-[N] |==|  0.00567
USER: genes 17 Torsion [C]-CA--CB-[CG] |==|  0.44497
USER: genes 18 Torsion [CA]-CB--CG-[OD1] |==|  0.13852
USER: genes 19 Torsion [C]-CA--N-[C] |==|  0.70370
USER: genes 20 Torsion [N]-C--CA-[N] |==|  0.86081
USER: genes 21 Torsion [C]-CA--CB-[CG] |==|  0.31109
USER: genes 22 Torsion [CA]-CB--CG-[CD2] |==|  0.77793
ROOT
ATOM      1  C   PHE C 305       8.030  11.361  -1.585  0.50 34.66 LIG 0.24  C 
ATOM      2 O    PHE C 305       7.384  10.509  -0.983  0.50 33.80 LIG-0.27  OA
ATOM      3  N   PRO C 306       7.549  11.991  -2.674  0.50 35.29 LIG-0.34  N 
ATOM      4  CA  PRO C 306       6.498  11.361  -3.459  0.50 35.79 LIG 0.18  C 
ATOM      5  CB  PRO C 306       5.696  12.564  -4.008  0.50 35.80 LIG 0.04  C 
ATOM      6  CG  PRO C 306       6.491  13.812  -3.608  0.50 35.25 LIG 0.02  C 
ATOM      7  CD  PRO C 306       7.855  13.332  -3.195  0.50 35.51 LIG 0.13  C 
ENDROOT
BRANCH 4 8
ATOM      8  C   PRO C 306       7.104  10.588  -4.632  0.50 36.50 LIG 0.24  C 
ATOM      9  N   ILE C 307       8.441  10.452  -4.617  0.50 37.01 LIG-0.35  N 
ATOM     10 H    ILE C 307       8.965  10.813  -4.039  0.50 37.01 LIG 0.16  HD
ATOM     11 O    PRO C 306       6.365  10.115  -5.524  0.50 36.74 LIG-0.27  OA
BRANCH 9 12
ATOM     12  CA  ILE C 307       9.102   9.639  -5.638  0.50 37.44 LIG 0.18  C 
BRANCH 12 13
ATOM     13  C   ILE C 307      10.077   8.621  -5.040  0.50 38.23 LIG 0.24  C 
ATOM     14  N   SER C 308       9.694   7.352  -5.144  0.50 38.91 LIG-0.34  N 
ATOM     15 H    SER C 308       8.907   7.121  -5.406  0.50 38.91 LIG 0.16  HD
ATOM     16 O    ILE C 307      11.141   8.980  -4.515  0.50 38.79 LIG-0.27  OA
BRANCH 14 17
ATOM     17  CA  SER C 308      10.556   6.217  -4.828  0.50 39.43 LIG 0.20  C 
BRANCH 17 18
ATOM     18  C   SER C 308      11.884   6.488  -5.539  0.50 39.77 LIG 0.24  C 
ATOM     19  N   PRO C 309      12.996   6.526  -4.783  0.50 40.03 LIG-0.34  N 
ATOM     20  CD  PRO C 309      13.184   5.996  -3.423  0.50 39.83 LIG 0.13  C 
ATOM     21  CA  PRO C 309      14.227   7.110  -5.319  0.50 40.09 LIG 0.19  C 
ATOM     22  CG  PRO C 309      14.445   6.666  -2.974  0.50 40.19 LIG 0.02  C 
ATOM     23  CB  PRO C 309      15.260   6.819  -4.222  0.50 40.09 LIG 0.04  C 
ATOM     24 O    SER C 308      11.913   6.647  -6.763  0.50 39.81 LIG-0.27  OA
BRANCH 21 25
ATOM     25  C   PRO C 309      14.653   6.506  -6.656  0.50 40.04 LIG 0.20  C 
ATOM     26 OXT  PRO C 309      14.517   5.302  -6.892  0.50 40.10 LIG-0.65  OA
ATOM     27 O    PRO C 309      15.160   7.210  -7.533  0.50 40.34 LIG-0.65  OA
ENDBRANCH 21 25
ENDBRANCH 17 18
BRANCH 17 28
ATOM     28  CB  SER C 308       9.941   4.907  -5.323  0.50 39.49 LIG 0.20  C 
BRANCH 28 29
ATOM     29 OG   SER C 308       8.531   4.897  -5.151  0.50 39.70 LIG-0.40  OA
ATOM     30 HG   SER C 308       8.280   4.124  -4.939  0.50 39.70 LIG 0.21  HD
ENDBRANCH 28 29
ENDBRANCH 17 28
ENDBRANCH 14 17
ENDBRANCH 12 13
BRANCH 12 31
ATOM     31  CB  ILE C 307       9.884  10.499  -6.661  0.50 37.20 LIG 0.01  C 
ATOM     32  CG2 ILE C 307      10.428  11.775  -6.001  0.50 36.86 LIG 0.01  C 
BRANCH 31 33
ATOM     33  CG1 ILE C 307      10.985   9.644  -7.314  0.50 35.88 LIG 0.00  C 
ATOM     34  CD1 ILE C 307      11.130   9.805  -8.807  0.50 32.01 LIG 0.01  C 
ENDBRANCH 31 33
ENDBRANCH 12 31
ENDBRANCH 9 12
ENDBRANCH 4 8
BRANCH 1 35
ATOM     35  CA  PHE C 305       9.419  11.765  -1.074  0.50 34.47 LIG 0.18  C 
BRANCH 35 36
ATOM     36  CB  PHE C 305      10.373  10.597  -1.371  0.50 34.49 LIG 0.07  C 
BRANCH 36 37
ATOM     37  CG  PHE C 305       9.870   9.229  -0.943  0.50 35.55 LIG-0.06  A 
ATOM     38  CD1 PHE C 305       9.678   8.196  -1.859  0.50 36.28 LIG 0.01  A 
ATOM     39  CE1 PHE C 305       9.217   6.944  -1.440  0.50 36.66 LIG 0.00  A 
ATOM     40  CZ  PHE C 305       8.929   6.719  -0.090  0.50 36.87 LIG 0.00  A 
ATOM     41  CE2 PHE C 305       9.110   7.736   0.830  0.50 36.76 LIG 0.00  A 
ATOM     42  CD2 PHE C 305       9.571   8.991   0.400  0.50 36.02 LIG 0.01  A 
ENDBRANCH 36 37
ENDBRANCH 35 36
BRANCH 35 43
ATOM     43  N   PHE C 305       9.484  12.075   0.358  0.50 33.54 LIG-0.35  N 
ATOM     44 H    PHE C 305       9.559  11.389   0.872  0.50 33.54 LIG 0.16  HD
ATOM     45  C   ASN C 304       9.429  13.335   0.789  0.50 33.07 LIG 0.24  C 
ATOM     46 O    ASN C 304       8.977  14.256   0.098  0.50 33.39 LIG-0.27  OA
BRANCH 45 47
ATOM     47  CA  ASN C 304       9.972  13.599   2.200  0.50 32.40 LIG 0.18  C 
BRANCH 47 48
ATOM     48  CB  ASN C 304      11.071  14.672   2.234  0.50 32.38 LIG 0.14  C 
BRANCH 48 49
ATOM     49  CG  ASN C 304      11.275  15.287   3.641  0.50 31.77 LIG 0.22  C 
ATOM     50 OD1  ASN C 304      11.416  14.578   4.630  0.50 27.48 LIG-0.27  OA
ATOM     51  ND2 ASN C 304      11.243  16.612   3.719  0.50 32.56 LIG-0.37  N 
ATOM     52 21HD ASN C 304      11.322  16.999   4.483  0.50 32.56 LIG 0.16  HD
ATOM     53 22HD ASN C 304      11.142  17.082   3.006  0.50 32.56 LIG 0.16  HD
ENDBRANCH 48 49
ENDBRANCH 47 48
BRANCH 47 54
ATOM     54  N   ASN C 304      10.493  12.382   2.774  0.50 31.56 LIG-0.34  N 
ATOM     55  C   LEU C 303       9.833  11.752   3.734  0.50 30.83 LIG 0.26  C 
ATOM     56 O    LEU C 303       8.680  12.032   4.030  0.50 29.02 LIG-0.27  OA
ATOM     57 H    ASN C 304      11.242  12.118   2.444  0.50 31.56 LIG 0.16  HD
BRANCH 55 58
ATOM     58  CA  LEU C 303      10.603  10.638   4.455  0.50 30.56 LIG 0.40  C 
ATOM     59  N   LEU C 303      11.248   9.662   3.535  0.50 30.88 LIG 0.61  N 
BRANCH 58 60
ATOM     60  CB  LEU C 303      11.642  11.222   5.420  0.50 30.80 LIG 0.06  C 
BRANCH 60 61
ATOM     61  CG  LEU C 303      11.411  11.028   6.924  0.50 30.92 LIG-0.02  C 
ATOM     62  CD2 LEU C 303      10.390  12.051   7.456  0.50 31.43 LIG 0.01  C 
ATOM     63  CD1 LEU C 303      12.717  11.084   7.696  0.50 30.50 LIG 0.01  C 
ENDBRANCH 60 61
ENDBRANCH 58 60
ENDBRANCH 55 58
ENDBRANCH 47 54
ENDBRANCH 45 47
ENDBRANCH 35 43
ENDBRANCH 1 35
TORSDOF 21
ENDMDL
MODEL 131
USER: ADFR SOLUTION from run 158
USER: SCORE 18.612542 LL:  -7.398 LR: -12.830 RR:   0.000 FEB:  -6.566
USER: RMSD 9.663582
USER: SEED 157
USER: STATUS no improvement in best in 7 clusters for 5 generations
USER: GENES 23
USER: genes 0 Translation |==|  0.47785 0.57718 0.17267
USER: genes 1 Rotation |==|  0.82545 0.51876 0.24551 0.78101
USER: genes 2 Torsion [N]-CA--C-[N] |==|  0.44002
USER: genes 3 Torsion [C]-N--CA-[C] |==|  0.81959
USER: genes 4 Torsion [N]-CA--C-[N] |==|  0.87128
USER: genes 5 Torsion [C]-N--CA-[CB] |==|  0.45014
USER: genes 6 Torsion [N]-CA--C-[N] |==|  0.28864
USER: genes 7 Torsion [N]-CA--C-[OXT] |==|  0.42401
USER: genes 8 Torsion [N]-CA--CB-[OG] |==|  0.34347
USER: genes 9 Torsion [CA]-CB--OG-[HG] |==|  0.21241
USER: genes 10 Torsion [N]-CA--CB-[CG2] |==|  0.54848
USER: genes 11 Torsion [CA]-CB--CG1-[CD1] |==|  0.60652
USER: genes 12 Torsion [N]-C--CA-[N] |==|  0.94248
USER: genes 13 Torsion [C]-CA--CB-[CG] |==|  0.77836
USER: genes 14 Torsion [CA]-CB--CG-[CD1] |==|  0.26582
USER: genes 15 Torsion [C]-CA--N-[C] |==|  0.79277
USER: genes 16 Torsion [N]-C--CA-[N] |==|  0.91977
USER: genes 17 Torsion [C]-CA--CB-[CG] |==|  0.95340
USER: genes 18 Torsion [CA]-CB--CG-[OD1] |==|  0.76724
USER: genes 19 Torsion [C]-CA--N-[C] |==|  0.80094
USER: genes 20 Torsion [N]-C--CA-[N] |==|  0.60154
USER: genes 21 Torsion [C]-CA--CB-[CG] |==|  0.22501
USER: genes 22 Torsion [CA]-CB--CG-[CD2] |==|  0.62369
ROOT
ATOM      1  C   PHE C 305      12.827   8.683  -6.902  0.50 34.66 LIG 0.24  C 
ATOM      2 O    PHE C 305      12.928   9.016  -8.079  0.50 33.80 LIG-0.27  OA
ATOM      3  N   PRO C 306      11.680   8.830  -6.210  0.50 35.29 LIG-0.34  N 
ATOM      4  CA  PRO C 306      10.702   9.814  -6.648  0.50 35.79 LIG 0.18  C 
ATOM      5  CB  PRO C 306       9.353   9.183  -6.231  0.50 35.80 LIG 0.04  C 
ATOM      6  CG  PRO C 306       9.712   7.934  -5.417  0.50 35.25 LIG 0.02  C 
ATOM      7  CD  PRO C 306      11.169   8.060  -5.067  0.50 35.51 LIG 0.13  C 
ENDROOT
BRANCH 4 8
ATOM      8  C   PRO C 306      10.895  11.128  -5.887  0.50 36.50 LIG 0.24  C 
ATOM      9  N   ILE C 307      10.393  12.226  -6.476  0.50 37.01 LIG-0.35  N 
ATOM     10 H    ILE C 307      10.035  12.244  -7.258  0.50 37.01 LIG 0.16  HD
ATOM     11 O    PRO C 306      11.479  11.136  -4.780  0.50 36.74 LIG-0.27  OA
BRANCH 9 12
ATOM     12  CA  ILE C 307      10.434  13.512  -5.778  0.50 37.44 LIG 0.18  C 
BRANCH 12 13
ATOM     13  C   ILE C 307       9.574  13.522  -4.512  0.50 38.23 LIG 0.24  C 
ATOM     14  N   SER C 308       8.355  13.010  -4.660  0.50 38.91 LIG-0.34  N 
ATOM     15 H    SER C 308       8.023  12.808  -5.428  0.50 38.91 LIG 0.16  HD
ATOM     16 O    ILE C 307      10.009  13.969  -3.441  0.50 38.79 LIG-0.27  OA
BRANCH 14 17
ATOM     17  CA  SER C 308       7.451  12.737  -3.547  0.50 39.43 LIG 0.20  C 
BRANCH 17 18
ATOM     18  C   SER C 308       7.945  11.433  -2.915  0.50 39.77 LIG 0.24  C 
ATOM     19  N   PRO C 309       8.624  11.523  -1.758  0.50 40.03 LIG-0.34  N 
ATOM     20  CD  PRO C 309       8.662  12.654  -0.816  0.50 39.83 LIG 0.13  C 
ATOM     21  CA  PRO C 309       9.413  10.386  -1.280  0.50 40.09 LIG 0.19  C 
ATOM     22  CG  PRO C 309       9.850  12.339   0.037  0.50 40.19 LIG 0.02  C 
ATOM     23  CB  PRO C 309       9.884  10.843   0.107  0.50 40.09 LIG 0.04  C 
ATOM     24 O    SER C 308       7.704  10.350  -3.456  0.50 39.81 LIG-0.27  OA
BRANCH 21 25
ATOM     25  C   PRO C 309       8.613   9.087  -1.194  0.50 40.04 LIG 0.20  C 
ATOM     26 OXT  PRO C 309       9.159   7.985  -1.303  0.50 40.10 LIG-0.65  OA
ATOM     27 O    PRO C 309       7.392   9.108  -1.023  0.50 40.34 LIG-0.65  OA
ENDBRANCH 21 25
ENDBRANCH 17 18
BRANCH 17 28
ATOM     28  CB  SER C 308       6.010  12.582  -4.037  0.50 39.49 LIG 0.20  C 
BRANCH 28 29
ATOM     29 OG   SER C 308       5.461  11.331  -3.649  0.50 39.70 LIG-0.40  OA
ATOM     30 HG   SER C 308       5.256  11.355  -2.835  0.50 39.70 LIG 0.21  HD
ENDBRANCH 28 29
ENDBRANCH 17 28
ENDBRANCH 14 17
ENDBRANCH 12 13
BRANCH 12 31
ATOM     31  CB  ILE C 307       9.969  14.684  -6.675  0.50 37.20 LIG 0.01  C 
ATOM     32  CG2 ILE C 307      10.421  16.032  -6.093  0.50 36.86 LIG 0.01  C 
BRANCH 31 33
ATOM     33  CG1 ILE C 307      10.464  14.456  -8.115  0.50 35.88 LIG 0.00  C 
ATOM     34  CD1 ILE C 307      10.923  15.694  -8.846  0.50 32.01 LIG 0.01  C 
ENDBRANCH 31 33
ENDBRANCH 12 31
ENDBRANCH 9 12
ENDBRANCH 4 8
BRANCH 1 35
ATOM     35  CA  PHE C 305      14.023   8.041  -6.187  0.50 34.47 LIG 0.18  C 
BRANCH 35 36
ATOM     36  CB  PHE C 305      14.090   6.573  -6.636  0.50 34.49 LIG 0.07  C 
BRANCH 36 37
ATOM     37  CG  PHE C 305      13.117   5.640  -5.935  0.50 35.55 LIG-0.06  A 
ATOM     38  CD1 PHE C 305      11.880   5.316  -6.491  0.50 36.28 LIG 0.01  A 
ATOM     39  CE1 PHE C 305      11.002   4.452  -5.828  0.50 36.66 LIG 0.00  A 
ATOM     40  CZ  PHE C 305      11.354   3.912  -4.588  0.50 36.87 LIG 0.00  A 
ATOM     41  CE2 PHE C 305      12.576   4.228  -4.022  0.50 36.76 LIG 0.00  A 
ATOM     42  CD2 PHE C 305      13.450   5.098  -4.692  0.50 36.02 LIG 0.01  A 
ENDBRANCH 36 37
ENDBRANCH 35 36
BRANCH 35 43
ATOM     43  N   PHE C 305      13.961   8.084  -4.722  0.50 33.54 LIG-0.35  N 
ATOM     44 H    PHE C 305      13.770   7.333  -4.347  0.50 33.54 LIG 0.16  HD
ATOM     45  C   ASN C 304      14.191   9.219  -4.061  0.50 33.07 LIG 0.24  C 
ATOM     46 O    ASN C 304      14.113  10.330  -4.597  0.50 33.39 LIG-0.27  OA
BRANCH 45 47
ATOM     47  CA  ASN C 304      14.574   9.080  -2.581  0.50 32.40 LIG 0.18  C 
BRANCH 47 48
ATOM     48  CB  ASN C 304      16.093   9.040  -2.352  0.50 32.38 LIG 0.14  C 
BRANCH 48 49
ATOM     49  CG  ASN C 304      16.893   8.733  -3.643  0.50 31.77 LIG 0.22  C 
ATOM     50 OD1  ASN C 304      17.066   7.581  -4.024  0.50 27.48 LIG-0.27  OA
ATOM     51  ND2 ASN C 304      17.414   9.775  -4.279  0.50 32.56 LIG-0.37  N 
ATOM     52 21HD ASN C 304      17.891   9.653  -4.985  0.50 32.56 LIG 0.16  HD
ATOM     53 22HD ASN C 304      17.274  10.571  -3.987  0.50 32.56 LIG 0.16  HD
ENDBRANCH 48 49
ENDBRANCH 47 48
BRANCH 47 54
ATOM     54  N   ASN C 304      13.988   7.888  -2.019  0.50 31.56 LIG-0.34  N 
ATOM     55  C   LEU C 303      12.684   7.819  -1.792  0.50 30.83 LIG 0.26  C 
ATOM     56 O    LEU C 303      11.898   8.646  -2.231  0.50 29.02 LIG-0.27  OA
ATOM     57 H    ASN C 304      14.545   7.254  -1.853  0.50 31.56 LIG 0.16  HD
BRANCH 55 58
ATOM     58  CA  LEU C 303      12.215   6.628  -0.947  0.50 30.56 LIG 0.40  C 
ATOM     59  N   LEU C 303      10.903   6.069  -1.374  0.50 30.88 LIG 0.61  N 
BRANCH 58 60
ATOM     60  CB  LEU C 303      13.277   5.522  -0.915  0.50 30.80 LIG 0.06  C 
BRANCH 60 61
ATOM     61  CG  LEU C 303      14.446   5.680   0.065  0.50 30.92 LIG-0.02  C 
ATOM     62  CD2 LEU C 303      15.782   5.331  -0.617  0.50 31.43 LIG 0.01  C 
ATOM     63  CD1 LEU C 303      14.227   4.862   1.325  0.50 30.50 LIG 0.01  C 
ENDBRANCH 60 61
ENDBRANCH 58 60
ENDBRANCH 55 58
ENDBRANCH 47 54
ENDBRANCH 45 47
ENDBRANCH 35 43
ENDBRANCH 1 35
TORSDOF 21
ENDMDL
MODEL 132
USER: ADFR SOLUTION from run 130
USER: SCORE 16.543865 LL:  -4.953 LR: -12.827 RR:   0.000 FEB:  -6.563
USER: RMSD 12.604276
USER: SEED 129
USER: STATUS no improvement in best in 16 clusters for 5 generations
USER: GENES 23
USER: genes 0 Translation |==|  0.50643 0.49210 0.45947
USER: genes 1 Rotation |==|  0.63615 0.67572 0.05214 0.50296
USER: genes 2 Torsion [N]-CA--C-[N] |==|  0.28286
USER: genes 3 Torsion [C]-N--CA-[C] |==|  0.79330
USER: genes 4 Torsion [N]-CA--C-[N] |==|  0.52964
USER: genes 5 Torsion [C]-N--CA-[CB] |==|  0.56667
USER: genes 6 Torsion [N]-CA--C-[N] |==|  0.34737
USER: genes 7 Torsion [N]-CA--C-[OXT] |==|  0.38457
USER: genes 8 Torsion [N]-CA--CB-[OG] |==|  0.94899
USER: genes 9 Torsion [CA]-CB--OG-[HG] |==|  0.78888
USER: genes 10 Torsion [N]-CA--CB-[CG2] |==|  0.60001
USER: genes 11 Torsion [CA]-CB--CG1-[CD1] |==|  0.39755
USER: genes 12 Torsion [N]-C--CA-[N] |==|  0.42147
USER: genes 13 Torsion [C]-CA--CB-[CG] |==|  0.69568
USER: genes 14 Torsion [CA]-CB--CG-[CD1] |==|  0.75111
USER: genes 15 Torsion [C]-CA--N-[C] |==|  0.69934
USER: genes 16 Torsion [N]-C--CA-[N] |==|  0.49905
USER: genes 17 Torsion [C]-CA--CB-[CG] |==|  0.22571
USER: genes 18 Torsion [CA]-CB--CG-[OD1] |==|  0.16569
USER: genes 19 Torsion [C]-CA--N-[C] |==|  0.76717
USER: genes 20 Torsion [N]-C--CA-[N] |==|  0.61039
USER: genes 21 Torsion [C]-CA--CB-[CG] |==|  0.28742
USER: genes 22 Torsion [CA]-CB--CG-[CD2] |==|  0.52968
ROOT
ATOM      1  C   PHE C 305      13.556   6.641  -1.095  0.50 34.66 LIG 0.24  C 
ATOM      2 O    PHE C 305      13.019   7.741  -1.192  0.50 33.80 LIG-0.27  OA
ATOM      3  N   PRO C 306      14.107   6.211   0.057  0.50 35.29 LIG-0.34  N 
ATOM      4  CA  PRO C 306      14.530   7.182   1.054  0.50 35.79 LIG 0.18  C 
ATOM      5  CB  PRO C 306      14.316   6.435   2.391  0.50 35.80 LIG 0.04  C 
ATOM      6  CG  PRO C 306      13.936   4.999   2.009  0.50 35.25 LIG 0.02  C 
ATOM      7  CD  PRO C 306      14.289   4.839   0.556  0.50 35.51 LIG 0.13  C 
ENDROOT
BRANCH 4 8
ATOM      8  C   PRO C 306      16.019   7.495   0.891  0.50 36.50 LIG 0.24  C 
ATOM      9  N   ILE C 307      16.311   8.653   0.275  0.50 37.01 LIG-0.35  N 
ATOM     10 H    ILE C 307      15.732   9.183  -0.075  0.50 37.01 LIG 0.16  HD
ATOM     11 O    PRO C 306      16.882   6.702   1.329  0.50 36.74 LIG-0.27  OA
BRANCH 9 12
ATOM     12  CA  ILE C 307      17.703   9.091   0.166  0.50 37.44 LIG 0.18  C 
BRANCH 12 13
ATOM     13  C   ILE C 307      18.261   9.613   1.492  0.50 38.23 LIG 0.24  C 
ATOM     14  N   SER C 308      19.438  10.226   1.401  0.50 38.91 LIG-0.34  N 
ATOM     15 H    SER C 308      19.914  10.219   0.684  0.50 38.91 LIG 0.16  HD
ATOM     16 O    ILE C 307      17.637   9.473   2.554  0.50 38.79 LIG-0.27  OA
BRANCH 14 17
ATOM     17  CA  SER C 308      20.050  10.972   2.497  0.50 39.43 LIG 0.20  C 
BRANCH 17 18
ATOM     18  C   SER C 308      18.896  11.654   3.235  0.50 39.77 LIG 0.24  C 
ATOM     19  N   PRO C 309      18.785  11.427   4.556  0.50 40.03 LIG-0.34  N 
ATOM     20  CD  PRO C 309      19.810  10.905   5.474  0.50 39.83 LIG 0.13  C 
ATOM     21  CA  PRO C 309      17.539  11.752   5.254  0.50 40.09 LIG 0.19  C 
ATOM     22  CG  PRO C 309      19.011  10.507   6.676  0.50 40.19 LIG 0.02  C 
ATOM     23  CB  PRO C 309      17.882  11.490   6.726  0.50 40.09 LIG 0.04  C 
ATOM     24 O    SER C 308      18.119  12.395   2.625  0.50 39.81 LIG-0.27  OA
BRANCH 21 25
ATOM     25  C   PRO C 309      17.082  13.195   5.039  0.50 40.04 LIG 0.20  C 
ATOM     26 OXT  PRO C 309      15.896  13.474   4.845  0.50 40.10 LIG-0.65  OA
ATOM     27 O    PRO C 309      17.897  14.121   5.043  0.50 40.34 LIG-0.65  OA
ENDBRANCH 21 25
ENDBRANCH 17 18
BRANCH 17 28
ATOM     28  CB  SER C 308      21.037  12.013   1.966  0.50 39.49 LIG 0.20  C 
BRANCH 28 29
ATOM     29 OG   SER C 308      21.426  11.727   0.631  0.50 39.70 LIG-0.40  OA
ATOM     30 HG   SER C 308      21.977  11.093   0.629  0.50 39.70 LIG 0.21  HD
ENDBRANCH 28 29
ENDBRANCH 17 28
ENDBRANCH 14 17
ENDBRANCH 12 13
BRANCH 12 31
ATOM     31  CB  ILE C 307      17.891  10.201  -0.896  0.50 37.20 LIG 0.01  C 
ATOM     32  CG2 ILE C 307      19.232  10.038  -1.627  0.50 36.86 LIG 0.01  C 
BRANCH 31 33
ATOM     33  CG1 ILE C 307      16.684  10.206  -1.851  0.50 35.88 LIG 0.00  C 
ATOM     34  CD1 ILE C 307      16.234  11.568  -2.319  0.50 32.01 LIG 0.01  C 
ENDBRANCH 31 33
ENDBRANCH 12 31
ENDBRANCH 9 12
ENDBRANCH 4 8
BRANCH 1 35
ATOM     35  CA  PHE C 305      13.576   5.694  -2.301  0.50 34.47 LIG 0.18  C 
BRANCH 35 36
ATOM     36  CB  PHE C 305      14.908   5.915  -3.034  0.50 34.49 LIG 0.07  C 
BRANCH 36 37
ATOM     37  CG  PHE C 305      14.795   6.607  -4.382  0.50 35.55 LIG-0.06  A 
ATOM     38  CD1 PHE C 305      14.614   5.889  -5.564  0.50 36.28 LIG 0.01  A 
ATOM     39  CE1 PHE C 305      14.508   6.548  -6.792  0.50 36.66 LIG 0.00  A 
ATOM     40  CZ  PHE C 305      14.597   7.942  -6.850  0.50 36.87 LIG 0.00  A 
ATOM     41  CE2 PHE C 305      14.781   8.667  -5.686  0.50 36.76 LIG 0.00  A 
ATOM     42  CD2 PHE C 305      14.889   7.998  -4.457  0.50 36.02 LIG 0.01  A 
ENDBRANCH 36 37
ENDBRANCH 35 36
BRANCH 35 43
ATOM     43  N   PHE C 305      12.476   5.884  -3.254  0.50 33.54 LIG-0.35  N 
ATOM     44 H    PHE C 305      12.529   6.601  -3.726  0.50 33.54 LIG 0.16  HD
ATOM     45  C   ASN C 304      11.491   4.991  -3.348  0.50 33.07 LIG 0.24  C 
ATOM     46 O    ASN C 304      11.240   4.178  -2.450  0.50 33.39 LIG-0.27  OA
BRANCH 45 47
ATOM     47  CA  ASN C 304      10.675   5.010  -4.648  0.50 32.40 LIG 0.18  C 
BRANCH 47 48
ATOM     48  CB  ASN C 304      10.011   6.368  -4.924  0.50 32.38 LIG 0.14  C 
BRANCH 48 49
ATOM     49  CG  ASN C 304      10.978   7.397  -5.562  0.50 31.77 LIG 0.22  C 
ATOM     50 OD1  ASN C 304      11.524   7.175  -6.637  0.50 27.48 LIG-0.27  OA
ATOM     51  ND2 ASN C 304      11.214   8.501  -4.863  0.50 32.56 LIG-0.37  N 
ATOM     52 21HD ASN C 304      11.766   9.089  -5.162  0.50 32.56 LIG 0.16  HD
ATOM     53 22HD ASN C 304      10.815   8.628  -4.112  0.50 32.56 LIG 0.16  HD
ENDBRANCH 48 49
ENDBRANCH 47 48
BRANCH 47 54
ATOM     54  N   ASN C 304       9.654   3.991  -4.616  0.50 31.56 LIG-0.34  N 
ATOM     55  C   LEU C 303       9.936   2.742  -4.953  0.50 30.83 LIG 0.26  C 
ATOM     56 O    LEU C 303      11.084   2.344  -5.096  0.50 29.02 LIG-0.27  OA
ATOM     57 H    ASN C 304       8.877   4.265  -4.367  0.50 31.56 LIG 0.16  HD
BRANCH 55 58
ATOM     58  CA  LEU C 303       8.731   1.814  -5.149  0.50 30.56 LIG 0.40  C 
ATOM     59  N   LEU C 303       8.938   0.440  -4.615  0.50 30.88 LIG 0.61  N 
BRANCH 58 60
ATOM     60  CB  LEU C 303       7.459   2.428  -4.550  0.50 30.80 LIG 0.06  C 
BRANCH 60 61
ATOM     61  CG  LEU C 303       6.439   3.044  -5.515  0.50 30.92 LIG-0.02  C 
ATOM     62  CD2 LEU C 303       5.369   3.840  -4.744  0.50 31.43 LIG 0.01  C 
ATOM     63  CD1 LEU C 303       5.816   1.988  -6.411  0.50 30.50 LIG 0.01  C 
ENDBRANCH 60 61
ENDBRANCH 58 60
ENDBRANCH 55 58
ENDBRANCH 47 54
ENDBRANCH 45 47
ENDBRANCH 35 43
ENDBRANCH 1 35
TORSDOF 21
ENDMDL
MODEL 133
USER: ADFR SOLUTION from run 20
USER: SCORE 18.823949 LL:  -7.405 LR: -12.832 RR:   0.000 FEB:  -6.567
USER: RMSD 8.406337
USER: SEED 19
USER: STATUS no improvement in best in 21 clusters for 5 generations
USER: GENES 23
USER: genes 0 Translation |==|  0.37809 0.48098 0.30297
USER: genes 1 Rotation |==|  0.63785 0.97935 0.47235 0.52129
USER: genes 2 Torsion [N]-CA--C-[N] |==|  0.99878
USER: genes 3 Torsion [C]-N--CA-[C] |==|  0.76667
USER: genes 4 Torsion [N]-CA--C-[N] |==|  0.93990
USER: genes 5 Torsion [C]-N--CA-[CB] |==|  0.13901
USER: genes 6 Torsion [N]-CA--C-[N] |==|  0.81140
USER: genes 7 Torsion [N]-CA--C-[OXT] |==|  0.43753
USER: genes 8 Torsion [N]-CA--CB-[OG] |==|  0.73005
USER: genes 9 Torsion [CA]-CB--OG-[HG] |==|  0.17506
USER: genes 10 Torsion [N]-CA--CB-[CG2] |==|  0.96371
USER: genes 11 Torsion [CA]-CB--CG1-[CD1] |==|  0.36207
USER: genes 12 Torsion [N]-C--CA-[N] |==|  0.99962
USER: genes 13 Torsion [C]-CA--CB-[CG] |==|  0.38193
USER: genes 14 Torsion [CA]-CB--CG-[CD1] |==|  0.55916
USER: genes 15 Torsion [C]-CA--N-[C] |==|  0.65831
USER: genes 16 Torsion [N]-C--CA-[N] |==|  0.10930
USER: genes 17 Torsion [C]-CA--CB-[CG] |==|  0.46063
USER: genes 18 Torsion [CA]-CB--CG-[OD1] |==|  0.06161
USER: genes 19 Torsion [C]-CA--N-[C] |==|  0.15734
USER: genes 20 Torsion [N]-C--CA-[N] |==|  0.08869
USER: genes 21 Torsion [C]-CA--CB-[CG] |==|  0.26466
USER: genes 22 Torsion [CA]-CB--CG-[CD2] |==|  0.09898
ROOT
ATOM      1  C   PHE C 305      10.283   6.375  -4.264  0.50 34.66 LIG 0.24  C 
ATOM      2 O    PHE C 305       9.197   6.071  -3.780  0.50 33.80 LIG-0.27  OA
ATOM      3  N   PRO C 306      11.107   5.459  -4.810  0.50 35.29 LIG-0.34  N 
ATOM      4  CA  PRO C 306      10.989   4.064  -4.416  0.50 35.79 LIG 0.18  C 
ATOM      5  CB  PRO C 306      11.405   3.298  -5.693  0.50 35.80 LIG 0.04  C 
ATOM      6  CG  PRO C 306      11.899   4.365  -6.676  0.50 35.25 LIG 0.02  C 
ATOM      7  CD  PRO C 306      12.114   5.617  -5.872  0.50 35.51 LIG 0.13  C 
ENDROOT
BRANCH 4 8
ATOM      8  C   PRO C 306      11.981   3.744  -3.296  0.50 36.50 LIG 0.24  C 
ATOM      9  N   ILE C 307      12.762   4.761  -2.895  0.50 37.01 LIG-0.35  N 
ATOM     10 H    ILE C 307      12.780   5.540  -3.259  0.50 37.01 LIG 0.16  HD
ATOM     11 O    PRO C 306      12.023   2.596  -2.800  0.50 36.74 LIG-0.27  OA
BRANCH 9 12
ATOM     12  CA  ILE C 307      13.667   4.582  -1.759  0.50 37.44 LIG 0.18  C 
BRANCH 12 13
ATOM     13  C   ILE C 307      12.973   4.803  -0.413  0.50 38.23 LIG 0.24  C 
ATOM     14  N   SER C 308      11.862   5.532  -0.470  0.50 38.91 LIG-0.34  N 
ATOM     15 H    SER C 308      11.617   5.956  -1.177  0.50 38.91 LIG 0.16  HD
ATOM     16 O    ILE C 307      13.428   4.320   0.633  0.50 38.79 LIG-0.27  OA
BRANCH 14 17
ATOM     17  CA  SER C 308      10.942   5.693   0.652  0.50 39.43 LIG 0.20  C 
BRANCH 17 18
ATOM     18  C   SER C 308       9.962   6.793   0.236  0.50 39.77 LIG 0.24  C 
ATOM     19  N   PRO C 309      10.448   8.042   0.114  0.50 40.03 LIG-0.34  N 
ATOM     20  CD  PRO C 309      11.853   8.457  -0.026  0.50 39.83 LIG 0.13  C 
ATOM     21  CA  PRO C 309       9.532   9.183   0.063  0.50 40.09 LIG 0.19  C 
ATOM     22  CG  PRO C 309      11.801   9.921   0.277  0.50 40.19 LIG 0.02  C 
ATOM     23  CB  PRO C 309      10.463  10.368  -0.227  0.50 40.09 LIG 0.04  C 
ATOM     24 O    SER C 308       8.780   6.520   0.010  0.50 39.81 LIG-0.27  OA
BRANCH 21 25
ATOM     25  C   PRO C 309       8.455   9.048  -1.014  0.50 40.04 LIG 0.20  C 
ATOM     26 OXT  PRO C 309       7.392   9.671  -0.944  0.50 40.10 LIG-0.65  OA
ATOM     27 O    PRO C 309       8.619   8.298  -1.978  0.50 40.34 LIG-0.65  OA
ENDBRANCH 21 25
ENDBRANCH 17 18
BRANCH 17 28
ATOM     28  CB  SER C 308      11.693   6.097   1.923  0.50 39.49 LIG 0.20  C 
BRANCH 28 29
ATOM     29 OG   SER C 308      11.961   4.972   2.747  0.50 39.70 LIG-0.40  OA
ATOM     30 HG   SER C 308      12.466   4.439   2.339  0.50 39.70 LIG 0.21  HD
ENDBRANCH 28 29
ENDBRANCH 17 28
ENDBRANCH 14 17
ENDBRANCH 12 13
BRANCH 12 31
ATOM     31  CB  ILE C 307      14.889   5.532  -1.824  0.50 37.20 LIG 0.01  C 
ATOM     32  CG2 ILE C 307      15.005   6.181  -3.211  0.50 36.86 LIG 0.01  C 
BRANCH 31 33
ATOM     33  CG1 ILE C 307      14.798   6.561  -0.683  0.50 35.88 LIG 0.00  C 
ATOM     34  CD1 ILE C 307      16.048   6.718   0.148  0.50 32.01 LIG 0.01  C 
ENDBRANCH 31 33
ENDBRANCH 12 31
ENDBRANCH 9 12
ENDBRANCH 4 8
BRANCH 1 35
ATOM     35  CA  PHE C 305      10.720   7.845  -4.292  0.50 34.47 LIG 0.18  C 
BRANCH 35 36
ATOM     36  CB  PHE C 305       9.642   8.628  -5.057  0.50 34.49 LIG 0.07  C 
BRANCH 36 37
ATOM     37  CG  PHE C 305       9.259   9.964  -4.443  0.50 35.55 LIG-0.06  A 
ATOM     38  CD1 PHE C 305       8.043  10.584  -4.729  0.50 36.28 LIG 0.01  A 
ATOM     39  CE1 PHE C 305       7.712  11.812  -4.148  0.50 36.66 LIG 0.00  A 
ATOM     40  CZ  PHE C 305       8.608  12.441  -3.280  0.50 36.87 LIG 0.00  A 
ATOM     41  CE2 PHE C 305       9.821  11.841  -2.991  0.50 36.76 LIG 0.00  A 
ATOM     42  CD2 PHE C 305      10.147  10.609  -3.580  0.50 36.02 LIG 0.01  A 
ENDBRANCH 36 37
ENDBRANCH 35 36
BRANCH 35 43
ATOM     43  N   PHE C 305      12.020   8.090  -4.926  0.50 33.54 LIG-0.35  N 
ATOM     44 H    PHE C 305      12.084   7.811  -5.737  0.50 33.54 LIG 0.16  HD
ATOM     45  C   ASN C 304      13.001   8.703  -4.260  0.50 33.07 LIG 0.24  C 
ATOM     46 O    ASN C 304      13.024   8.776  -3.026  0.50 33.39 LIG-0.27  OA
BRANCH 45 47
ATOM     47  CA  ASN C 304      14.112   9.333  -5.111  0.50 32.40 LIG 0.18  C 
BRANCH 47 48
ATOM     48  CB  ASN C 304      14.938  10.379  -4.346  0.50 32.38 LIG 0.14  C 
BRANCH 48 49
ATOM     49  CG  ASN C 304      16.256  10.757  -5.068  0.50 31.77 LIG 0.22  C 
ATOM     50 OD1  ASN C 304      16.392  10.585  -6.274  0.50 27.48 LIG-0.27  OA
ATOM     51  ND2 ASN C 304      17.234  11.230  -4.306  0.50 32.56 LIG-0.37  N 
ATOM     52 21HD ASN C 304      17.995  11.427  -4.656  0.50 32.56 LIG 0.16  HD
ATOM     53 22HD ASN C 304      17.107  11.340  -3.463  0.50 32.56 LIG 0.16  HD
ENDBRANCH 48 49
ENDBRANCH 47 48
BRANCH 47 54
ATOM     54  N   ASN C 304      13.554   9.952  -6.289  0.50 31.56 LIG-0.34  N 
ATOM     55  C   LEU C 303      12.620  10.885  -6.182  0.50 30.83 LIG 0.26  C 
ATOM     56 O    LEU C 303      12.340  11.415  -5.116  0.50 29.02 LIG-0.27  OA
ATOM     57 H    ASN C 304      13.875   9.667  -7.034  0.50 31.56 LIG 0.16  HD
BRANCH 55 58
ATOM     58  CA  LEU C 303      11.908  11.270  -7.486  0.50 30.56 LIG 0.40  C 
ATOM     59  N   LEU C 303      11.781  10.148  -8.455  0.50 30.88 LIG 0.61  N 
BRANCH 58 60
ATOM     60  CB  LEU C 303      10.531  11.883  -7.201  0.50 30.80 LIG 0.06  C 
BRANCH 60 61
ATOM     61  CG  LEU C 303      10.428  13.411  -7.133  0.50 30.92 LIG-0.02  C 
ATOM     62  CD2 LEU C 303      11.378  14.070  -8.149  0.50 31.43 LIG 0.01  C 
ATOM     63  CD1 LEU C 303      10.672  13.920  -5.723  0.50 30.50 LIG 0.01  C 
ENDBRANCH 60 61
ENDBRANCH 58 60
ENDBRANCH 55 58
ENDBRANCH 47 54
ENDBRANCH 45 47
ENDBRANCH 35 43
ENDBRANCH 1 35
TORSDOF 21
ENDMDL
MODEL 134
USER: ADFR SOLUTION from run 127
USER: SCORE 17.586120 LL:  -5.493 LR: -12.816 RR:   0.000 FEB:  -6.551
USER: RMSD 7.891308
USER: SEED 126
USER: STATUS no improvement in best in 12 clusters for 5 generations
USER: GENES 23
USER: genes 0 Translation |==|  0.37298 0.46100 0.27357
USER: genes 1 Rotation |==|  0.67304 0.93705 0.52412 0.66870
USER: genes 2 Torsion [N]-CA--C-[N] |==|  0.22346
USER: genes 3 Torsion [C]-N--CA-[C] |==|  0.71667
USER: genes 4 Torsion [N]-CA--C-[N] |==|  0.95611
USER: genes 5 Torsion [C]-N--CA-[CB] |==|  0.16045
USER: genes 6 Torsion [N]-CA--C-[N] |==|  0.11916
USER: genes 7 Torsion [N]-CA--C-[OXT] |==|  0.29254
USER: genes 8 Torsion [N]-CA--CB-[OG] |==|  0.74569
USER: genes 9 Torsion [CA]-CB--OG-[HG] |==|  0.16924
USER: genes 10 Torsion [N]-CA--CB-[CG2] |==|  0.60118
USER: genes 11 Torsion [CA]-CB--CG1-[CD1] |==|  0.27450
USER: genes 12 Torsion [N]-C--CA-[N] |==|  0.51902
USER: genes 13 Torsion [C]-CA--CB-[CG] |==|  0.29861
USER: genes 14 Torsion [CA]-CB--CG-[CD1] |==|  0.59891
USER: genes 15 Torsion [C]-CA--N-[C] |==|  0.63373
USER: genes 16 Torsion [N]-C--CA-[N] |==|  0.45162
USER: genes 17 Torsion [C]-CA--CB-[CG] |==|  0.40564
USER: genes 18 Torsion [CA]-CB--CG-[OD1] |==|  0.47266
USER: genes 19 Torsion [C]-CA--N-[C] |==|  0.60917
USER: genes 20 Torsion [N]-C--CA-[N] |==|  0.70127
USER: genes 21 Torsion [C]-CA--CB-[CG] |==|  0.76421
USER: genes 22 Torsion [CA]-CB--CG-[CD2] |==|  0.71918
ROOT
ATOM      1  C   PHE C 305      10.153   5.895  -4.859  0.50 34.66 LIG 0.24  C 
ATOM      2 O    PHE C 305       8.968   5.756  -5.149  0.50 33.80 LIG-0.27  OA
ATOM      3  N   PRO C 306      11.020   4.864  -4.869  0.50 35.29 LIG-0.34  N 
ATOM      4  CA  PRO C 306      10.518   3.506  -4.731  0.50 35.79 LIG 0.18  C 
ATOM      5  CB  PRO C 306      11.524   2.670  -5.556  0.50 35.80 LIG 0.04  C 
ATOM      6  CG  PRO C 306      12.638   3.641  -5.962  0.50 35.25 LIG 0.02  C 
ATOM      7  CD  PRO C 306      12.473   4.861  -5.099  0.50 35.51 LIG 0.13  C 
ENDROOT
BRANCH 4 8
ATOM      8  C   PRO C 306      10.583   3.063  -3.268  0.50 36.50 LIG 0.24  C 
ATOM      9  N   ILE C 307       9.585   3.496  -2.480  0.50 37.01 LIG-0.35  N 
ATOM     10 H    ILE C 307       8.965   4.038  -2.725  0.50 37.01 LIG 0.16  HD
ATOM     11 O    PRO C 306      11.517   2.331  -2.871  0.50 36.74 LIG-0.27  OA
BRANCH 9 12
ATOM     12  CA  ILE C 307       9.501   3.039  -1.092  0.50 37.44 LIG 0.18  C 
BRANCH 12 13
ATOM     13  C   ILE C 307       8.447   1.947  -0.894  0.50 38.23 LIG 0.24  C 
ATOM     14  N   SER C 308       7.574   1.826  -1.890  0.50 38.91 LIG-0.34  N 
ATOM     15 H    SER C 308       7.518   2.394  -2.534  0.50 38.91 LIG 0.16  HD
ATOM     16 O    ILE C 307       8.436   1.237   0.122  0.50 38.79 LIG-0.27  OA
BRANCH 14 17
ATOM     17  CA  SER C 308       6.619   0.727  -2.001  0.50 39.43 LIG 0.20  C 
BRANCH 17 18
ATOM     18  C   SER C 308       5.785   1.019  -3.250  0.50 39.77 LIG 0.24  C 
ATOM     19  N   PRO C 309       6.438   1.454  -4.343  0.50 40.03 LIG-0.34  N 
ATOM     20  CD  PRO C 309       7.877   1.356  -4.637  0.50 39.83 LIG 0.13  C 
ATOM     21  CA  PRO C 309       5.695   2.074  -5.442  0.50 40.09 LIG 0.19  C 
ATOM     22  CG  PRO C 309       8.057   2.331  -5.758  0.50 40.19 LIG 0.02  C 
ATOM     23  CB  PRO C 309       6.768   2.277  -6.520  0.50 40.09 LIG 0.04  C 
ATOM     24 O    SER C 308       4.564   0.840  -3.239  0.50 39.81 LIG-0.27  OA
BRANCH 21 25
ATOM     25  C   PRO C 309       4.545   1.211  -5.960  0.50 40.04 LIG 0.20  C 
ATOM     26 OXT  PRO C 309       3.370   1.478  -5.696  0.50 40.10 LIG-0.65  OA
ATOM     27 O    PRO C 309       4.767   0.213  -6.649  0.50 40.34 LIG-0.65  OA
ENDBRANCH 21 25
ENDBRANCH 17 18
BRANCH 17 28
ATOM     28  CB  SER C 308       5.722   0.654  -0.763  0.50 39.49 LIG 0.20  C 
BRANCH 28 29
ATOM     29 OG   SER C 308       6.267  -0.210   0.224  0.50 39.70 LIG-0.40  OA
ATOM     30 HG   SER C 308       7.016   0.081   0.468  0.50 39.70 LIG 0.21  HD
ENDBRANCH 28 29
ENDBRANCH 17 28
ENDBRANCH 14 17
ENDBRANCH 12 13
BRANCH 12 31
ATOM     31  CB  ILE C 307       9.179   4.191  -0.110  0.50 37.20 LIG 0.01  C 
ATOM     32  CG2 ILE C 307       9.926   4.004   1.219  0.50 36.86 LIG 0.01  C 
BRANCH 31 33
ATOM     33  CG1 ILE C 307       9.483   5.540  -0.786  0.50 35.88 LIG 0.00  C 
ATOM     34  CD1 ILE C 307       8.290   6.257  -1.368  0.50 32.01 LIG 0.01  C 
ENDBRANCH 31 33
ENDBRANCH 12 31
ENDBRANCH 9 12
ENDBRANCH 4 8
BRANCH 1 35
ATOM     35  CA  PHE C 305      10.693   7.287  -4.509  0.50 34.47 LIG 0.18  C 
BRANCH 35 36
ATOM     36  CB  PHE C 305      11.460   7.161  -3.184  0.50 34.49 LIG 0.07  C 
BRANCH 36 37
ATOM     37  CG  PHE C 305      12.973   7.251  -3.304  0.50 35.55 LIG-0.06  A 
ATOM     38  CD1 PHE C 305      13.821   6.497  -2.495  0.50 36.28 LIG 0.01  A 
ATOM     39  CE1 PHE C 305      15.210   6.594  -2.627  0.50 36.66 LIG 0.00  A 
ATOM     40  CZ  PHE C 305      15.765   7.465  -3.569  0.50 36.87 LIG 0.00  A 
ATOM     41  CE2 PHE C 305      14.935   8.224  -4.376  0.50 36.76 LIG 0.00  A 
ATOM     42  CD2 PHE C 305      13.543   8.122  -4.235  0.50 36.02 LIG 0.01  A 
ENDBRANCH 36 37
ENDBRANCH 35 36
BRANCH 35 43
ATOM     43  N   PHE C 305       9.669   8.328  -4.364  0.50 33.54 LIG-0.35  N 
ATOM     44 H    PHE C 305       9.000   8.109  -3.869  0.50 33.54 LIG 0.16  HD
ATOM     45  C   ASN C 304       9.803   9.509  -4.969  0.50 33.07 LIG 0.24  C 
ATOM     46 O    ASN C 304      10.559   9.682  -5.933  0.50 33.39 LIG-0.27  OA
BRANCH 45 47
ATOM     47  CA  ASN C 304       8.971  10.665  -4.399  0.50 32.40 LIG 0.18  C 
BRANCH 47 48
ATOM     48  CB  ASN C 304       7.483  10.581  -4.774  0.50 32.38 LIG 0.14  C 
BRANCH 48 49
ATOM     49  CG  ASN C 304       6.546  11.119  -3.663  0.50 31.77 LIG 0.22  C 
ATOM     50 OD1  ASN C 304       5.350  11.289  -3.868  0.50 27.48 LIG-0.27  OA
ATOM     51  ND2 ASN C 304       7.116  11.424  -2.504  0.50 32.56 LIG-0.37  N 
ATOM     52 21HD ASN C 304       6.642  11.754  -1.866  0.50 32.56 LIG 0.16  HD
ATOM     53 22HD ASN C 304       7.958  11.293  -2.391  0.50 32.56 LIG 0.16  HD
ENDBRANCH 48 49
ENDBRANCH 47 48
BRANCH 47 54
ATOM     54  N   ASN C 304       9.493  11.932  -4.853  0.50 31.56 LIG-0.34  N 
ATOM     55  C   LEU C 303       9.542  12.973  -4.035  0.50 30.83 LIG 0.26  C 
ATOM     56 O    LEU C 303       9.358  12.871  -2.831  0.50 29.02 LIG-0.27  OA
ATOM     57 H    ASN C 304       9.758  11.942  -5.671  0.50 31.56 LIG 0.16  HD
BRANCH 55 58
ATOM     58  CA  LEU C 303       9.851  14.325  -4.692  0.50 30.56 LIG 0.40  C 
ATOM     59  N   LEU C 303      11.218  14.835  -4.401  0.50 30.88 LIG 0.61  N 
BRANCH 58 60
ATOM     60  CB  LEU C 303       9.619  14.267  -6.207  0.50 30.80 LIG 0.06  C 
BRANCH 60 61
ATOM     61  CG  LEU C 303      10.761  13.742  -7.087  0.50 30.92 LIG-0.02  C 
ATOM     62  CD2 LEU C 303      11.517  14.906  -7.753  0.50 31.43 LIG 0.01  C 
ATOM     63  CD1 LEU C 303      10.256  12.741  -8.110  0.50 30.50 LIG 0.01  C 
ENDBRANCH 60 61
ENDBRANCH 58 60
ENDBRANCH 55 58
ENDBRANCH 47 54
ENDBRANCH 45 47
ENDBRANCH 35 43
ENDBRANCH 1 35
TORSDOF 21
ENDMDL
MODEL 135
USER: ADFR SOLUTION from run 110
USER: SCORE 18.419717 LL:  -6.422 LR: -12.821 RR:   0.000 FEB:  -6.557
USER: RMSD 12.231196
USER: SEED 109
USER: STATUS no improvement in best in 25 clusters for 5 generations
USER: GENES 23
USER: genes 0 Translation |==|  0.41410 0.55917 0.25133
USER: genes 1 Rotation |==|  0.87622 0.21308 0.41479 0.63738
USER: genes 2 Torsion [N]-CA--C-[N] |==|  0.71423
USER: genes 3 Torsion [C]-N--CA-[C] |==|  0.77805
USER: genes 4 Torsion [N]-CA--C-[N] |==|  0.92231
USER: genes 5 Torsion [C]-N--CA-[CB] |==|  0.52877
USER: genes 6 Torsion [N]-CA--C-[N] |==|  0.31702
USER: genes 7 Torsion [N]-CA--C-[OXT] |==|  0.31982
USER: genes 8 Torsion [N]-CA--CB-[OG] |==|  0.55672
USER: genes 9 Torsion [CA]-CB--OG-[HG] |==|  0.94700
USER: genes 10 Torsion [N]-CA--CB-[CG2] |==|  0.79557
USER: genes 11 Torsion [CA]-CB--CG1-[CD1] |==|  0.72013
USER: genes 12 Torsion [N]-C--CA-[N] |==|  0.41998
USER: genes 13 Torsion [C]-CA--CB-[CG] |==|  0.52338
USER: genes 14 Torsion [CA]-CB--CG-[CD1] |==|  0.20845
USER: genes 15 Torsion [C]-CA--N-[C] |==|  0.68529
USER: genes 16 Torsion [N]-C--CA-[N] |==|  0.38535
USER: genes 17 Torsion [C]-CA--CB-[CG] |==|  0.99524
USER: genes 18 Torsion [CA]-CB--CG-[OD1] |==|  0.24733
USER: genes 19 Torsion [C]-CA--N-[C] |==|  0.84753
USER: genes 20 Torsion [N]-C--CA-[N] |==|  0.46457
USER: genes 21 Torsion [C]-CA--CB-[CG] |==|  0.90585
USER: genes 22 Torsion [CA]-CB--CG-[CD2] |==|  0.64161
ROOT
ATOM      1  C   PHE C 305      11.201   8.251  -5.310  0.50 34.66 LIG 0.24  C 
ATOM      2 O    PHE C 305      12.358   7.852  -5.409  0.50 33.80 LIG-0.27  OA
ATOM      3  N   PRO C 306      10.705   9.219  -6.105  0.50 35.29 LIG-0.34  N 
ATOM      4  CA  PRO C 306      11.615  10.154  -6.747  0.50 35.79 LIG 0.18  C 
ATOM      5  CB  PRO C 306      10.895  10.497  -8.072  0.50 35.80 LIG 0.04  C 
ATOM      6  CG  PRO C 306       9.517   9.831  -7.981  0.50 35.25 LIG 0.02  C 
ATOM      7  CD  PRO C 306       9.320   9.459  -6.537  0.50 35.51 LIG 0.13  C 
ENDROOT
BRANCH 4 8
ATOM      8  C   PRO C 306      11.747  11.426  -5.908  0.50 36.50 LIG 0.24  C 
ATOM      9  N   ILE C 307      11.065  12.495  -6.351  0.50 37.01 LIG-0.35  N 
ATOM     10 H    ILE C 307      10.621  12.525  -7.086  0.50 37.01 LIG 0.16  HD
ATOM     11 O    PRO C 306      12.448  11.428  -4.871  0.50 36.74 LIG-0.27  OA
BRANCH 9 12
ATOM     12  CA  ILE C 307      11.043  13.726  -5.560  0.50 37.44 LIG 0.18  C 
BRANCH 12 13
ATOM     13  C   ILE C 307      10.043  13.666  -4.403  0.50 38.23 LIG 0.24  C 
ATOM     14  N   SER C 308       9.001  12.864  -4.607  0.50 38.91 LIG-0.34  N 
ATOM     15 H    SER C 308       8.828  12.508  -5.371  0.50 38.91 LIG 0.16  HD
ATOM     16 O    ILE C 307      10.219  14.316  -3.363  0.50 38.79 LIG-0.27  OA
BRANCH 14 17
ATOM     17  CA  SER C 308       8.041  12.503  -3.567  0.50 39.43 LIG 0.20  C 
BRANCH 17 18
ATOM     18  C   SER C 308       8.875  12.043  -2.369  0.50 39.77 LIG 0.24  C 
ATOM     19  N   PRO C 309       8.827  12.795  -1.255  0.50 40.03 LIG-0.34  N 
ATOM     20  CD  PRO C 309       7.820  13.803  -0.886  0.50 39.83 LIG 0.13  C 
ATOM     21  CA  PRO C 309       9.838  12.623  -0.210  0.50 40.09 LIG 0.19  C 
ATOM     22  CG  PRO C 309       8.490  14.557   0.220  0.50 40.19 LIG 0.02  C 
ATOM     23  CB  PRO C 309       9.339  13.538   0.916  0.50 40.09 LIG 0.04  C 
ATOM     24 O    SER C 308       9.545  11.009  -2.438  0.50 39.81 LIG-0.27  OA
BRANCH 21 25
ATOM     25  C   PRO C 309       9.976  11.178   0.269  0.50 40.04 LIG 0.20  C 
ATOM     26 OXT  PRO C 309      11.015  10.536   0.091  0.50 40.10 LIG-0.65  OA
ATOM     27 O    PRO C 309       9.041  10.611   0.837  0.50 40.34 LIG-0.65  OA
ENDBRANCH 21 25
ENDBRANCH 17 18
BRANCH 17 28
ATOM     28  CB  SER C 308       7.118  11.379  -4.041  0.50 39.49 LIG 0.20  C 
BRANCH 28 29
ATOM     29 OG   SER C 308       5.923  11.331  -3.274  0.50 39.70 LIG-0.40  OA
ATOM     30 HG   SER C 308       6.038  11.739  -2.549  0.50 39.70 LIG 0.21  HD
ENDBRANCH 28 29
ENDBRANCH 17 28
ENDBRANCH 14 17
ENDBRANCH 12 13
BRANCH 12 31
ATOM     31  CB  ILE C 307      10.703  14.971  -6.415  0.50 37.20 LIG 0.01  C 
ATOM     32  CG2 ILE C 307      11.891  15.366  -7.305  0.50 36.86 LIG 0.01  C 
BRANCH 31 33
ATOM     33  CG1 ILE C 307       9.415  14.706  -7.215  0.50 35.88 LIG 0.00  C 
ATOM     34  CD1 ILE C 307       9.616  14.333  -8.663  0.50 32.01 LIG 0.01  C 
ENDBRANCH 31 33
ENDBRANCH 12 31
ENDBRANCH 9 12
ENDBRANCH 4 8
BRANCH 1 35
ATOM     35  CA  PHE C 305      10.262   7.613  -4.278  0.50 34.47 LIG 0.18  C 
BRANCH 35 36
ATOM     36  CB  PHE C 305      10.333   8.469  -3.004  0.50 34.49 LIG 0.07  C 
BRANCH 36 37
ATOM     37  CG  PHE C 305       9.622   7.884  -1.795  0.50 35.55 LIG-0.06  A 
ATOM     38  CD1 PHE C 305      10.158   6.820  -1.069  0.50 36.28 LIG 0.01  A 
ATOM     39  CE1 PHE C 305       9.486   6.302   0.042  0.50 36.66 LIG 0.00  A 
ATOM     40  CZ  PHE C 305       8.255   6.839   0.430  0.50 36.87 LIG 0.00  A 
ATOM     41  CE2 PHE C 305       7.708   7.891  -0.283  0.50 36.76 LIG 0.00  A 
ATOM     42  CD2 PHE C 305       8.388   8.404  -1.398  0.50 36.02 LIG 0.01  A 
ENDBRANCH 36 37
ENDBRANCH 35 36
BRANCH 35 43
ATOM     43  N   PHE C 305      10.579   6.223  -3.931  0.50 33.54 LIG-0.35  N 
ATOM     44 H    PHE C 305      11.322   6.117  -3.512  0.50 33.54 LIG 0.16  HD
ATOM     45  C   ASN C 304       9.751   5.231  -4.260  0.50 33.07 LIG 0.24  C 
ATOM     46 O    ASN C 304       8.894   5.343  -5.145  0.50 33.39 LIG-0.27  OA
BRANCH 45 47
ATOM     47  CA  ASN C 304       9.904   3.924  -3.469  0.50 32.40 LIG 0.18  C 
BRANCH 47 48
ATOM     48  CB  ASN C 304      10.723   2.860  -4.216  0.50 32.38 LIG 0.14  C 
BRANCH 48 49
ATOM     49  CG  ASN C 304      11.179   3.321  -5.623  0.50 31.77 LIG 0.22  C 
ATOM     50 OD1  ASN C 304      12.240   3.914  -5.784  0.50 27.48 LIG-0.27  OA
ATOM     51  ND2 ASN C 304      10.343   3.081  -6.625  0.50 32.56 LIG-0.37  N 
ATOM     52 21HD ASN C 304      10.539   3.345  -7.421  0.50 32.56 LIG 0.16  HD
ATOM     53 22HD ASN C 304       9.606   2.663  -6.480  0.50 32.56 LIG 0.16  HD
ENDBRANCH 48 49
ENDBRANCH 47 48
BRANCH 47 54
ATOM     54  N   ASN C 304       8.609   3.375  -3.149  0.50 31.56 LIG-0.34  N 
ATOM     55  C   LEU C 303       7.707   4.103  -2.507  0.50 30.83 LIG 0.26  C 
ATOM     56 O    LEU C 303       7.832   5.309  -2.347  0.50 29.02 LIG-0.27  OA
ATOM     57 H    ASN C 304       8.487   2.563  -3.405  0.50 31.56 LIG 0.16  HD
BRANCH 55 58
ATOM     58  CA  LEU C 303       6.486   3.340  -1.979  0.50 30.56 LIG 0.40  C 
ATOM     59  N   LEU C 303       5.659   4.122  -1.020  0.50 30.88 LIG 0.61  N 
BRANCH 58 60
ATOM     60  CB  LEU C 303       5.615   2.828  -3.133  0.50 30.80 LIG 0.06  C 
BRANCH 60 61
ATOM     61  CG  LEU C 303       5.527   3.687  -4.400  0.50 30.92 LIG-0.02  C 
ATOM     62  CD2 LEU C 303       4.058   3.922  -4.801  0.50 31.43 LIG 0.01  C 
ATOM     63  CD1 LEU C 303       6.329   3.081  -5.537  0.50 30.50 LIG 0.01  C 
ENDBRANCH 60 61
ENDBRANCH 58 60
ENDBRANCH 55 58
ENDBRANCH 47 54
ENDBRANCH 45 47
ENDBRANCH 35 43
ENDBRANCH 1 35
TORSDOF 21
ENDMDL
MODEL 136
USER: ADFR SOLUTION from run 166
USER: SCORE 16.966619 LL:  -5.587 LR: -12.818 RR:   0.000 FEB:  -6.553
USER: RMSD 12.522819
USER: SEED 165
USER: STATUS no improvement in best in 51 clusters for 5 generations
USER: GENES 23
USER: genes 0 Translation |==|  0.44704 0.83443 0.59707
USER: genes 1 Rotation |==|  0.12109 0.50316 0.81971 0.56488
USER: genes 2 Torsion [N]-CA--C-[N] |==|  0.99878
USER: genes 3 Torsion [C]-N--CA-[C] |==|  0.63741
USER: genes 4 Torsion [N]-CA--C-[N] |==|  0.32222
USER: genes 5 Torsion [C]-N--CA-[CB] |==|  0.53397
USER: genes 6 Torsion [N]-CA--C-[N] |==|  0.34484
USER: genes 7 Torsion [N]-CA--C-[OXT] |==|  0.35947
USER: genes 8 Torsion [N]-CA--CB-[OG] |==|  0.84601
USER: genes 9 Torsion [CA]-CB--OG-[HG] |==|  0.10692
USER: genes 10 Torsion [N]-CA--CB-[CG2] |==|  0.08717
USER: genes 11 Torsion [CA]-CB--CG1-[CD1] |==|  0.48000
USER: genes 12 Torsion [N]-C--CA-[N] |==|  0.16448
USER: genes 13 Torsion [C]-CA--CB-[CG] |==|  0.58549
USER: genes 14 Torsion [CA]-CB--CG-[CD1] |==|  0.82769
USER: genes 15 Torsion [C]-CA--N-[C] |==|  0.67483
USER: genes 16 Torsion [N]-C--CA-[N] |==|  0.05972
USER: genes 17 Torsion [C]-CA--CB-[CG] |==|  0.56494
USER: genes 18 Torsion [CA]-CB--CG-[OD1] |==|  0.81479
USER: genes 19 Torsion [C]-CA--N-[C] |==|  0.70470
USER: genes 20 Torsion [N]-C--CA-[N] |==|  0.08442
USER: genes 21 Torsion [C]-CA--CB-[CG] |==|  0.86649
USER: genes 22 Torsion [CA]-CB--CG-[CD2] |==|  0.81550
ROOT
ATOM      1  C   PHE C 305      12.042  14.857   1.692  0.50 34.66 LIG 0.24  C 
ATOM      2 O    PHE C 305      12.802  15.712   1.247  0.50 33.80 LIG-0.27  OA
ATOM      3  N   PRO C 306      11.210  15.103   2.723  0.50 35.29 LIG-0.34  N 
ATOM      4  CA  PRO C 306      11.518  16.181   3.649  0.50 35.79 LIG 0.18  C 
ATOM      5  CB  PRO C 306      10.123  16.676   4.096  0.50 35.80 LIG 0.04  C 
ATOM      6  CG  PRO C 306       9.118  15.691   3.489  0.50 35.25 LIG 0.02  C 
ATOM      7  CD  PRO C 306       9.912  14.492   3.048  0.50 35.51 LIG 0.13  C 
ENDROOT
BRANCH 4 8
ATOM      8  C   PRO C 306      12.267  15.634   4.867  0.50 36.50 LIG 0.24  C 
ATOM      9  N   ILE C 307      12.491  14.309   4.872  0.50 37.01 LIG-0.35  N 
ATOM     10 H    ILE C 307      12.196  13.759   4.282  0.50 37.01 LIG 0.16  HD
ATOM     11 O    PRO C 306      12.643  16.408   5.776  0.50 36.74 LIG-0.27  OA
BRANCH 9 12
ATOM     12  CA  ILE C 307      13.290  13.709   5.941  0.50 37.44 LIG 0.18  C 
BRANCH 12 13
ATOM     13  C   ILE C 307      14.390  12.788   5.407  0.50 38.23 LIG 0.24  C 
ATOM     14  N   SER C 308      15.631  13.189   5.667  0.50 38.91 LIG-0.34  N 
ATOM     15 H    SER C 308      15.812  13.964   5.993  0.50 38.91 LIG 0.16  HD
ATOM     16 O    ILE C 307      14.116  11.747   4.791  0.50 38.79 LIG-0.27  OA
BRANCH 14 17
ATOM     17  CA  SER C 308      16.814  12.367   5.431  0.50 39.43 LIG 0.20  C 
BRANCH 17 18
ATOM     18  C   SER C 308      16.499  10.996   6.034  0.50 39.77 LIG 0.24  C 
ATOM     19  N   PRO C 309      16.598   9.925   5.225  0.50 40.03 LIG-0.34  N 
ATOM     20  CD  PRO C 309      17.306   9.825   3.939  0.50 39.83 LIG 0.13  C 
ATOM     21  CA  PRO C 309      15.992   8.651   5.618  0.50 40.09 LIG 0.19  C 
ATOM     22  CG  PRO C 309      16.745   8.572   3.344  0.50 40.19 LIG 0.02  C 
ATOM     23  CB  PRO C 309      16.459   7.687   4.519  0.50 40.09 LIG 0.04  C 
ATOM     24 O    SER C 308      16.184  10.897   7.223  0.50 39.81 LIG-0.27  OA
BRANCH 21 25
ATOM     25  C   PRO C 309      16.433   8.171   7.000  0.50 40.04 LIG 0.20  C 
ATOM     26 OXT  PRO C 309      15.612   7.826   7.855  0.50 40.10 LIG-0.65  OA
ATOM     27 O    PRO C 309      17.628   8.128   7.302  0.50 40.34 LIG-0.65  OA
ENDBRANCH 21 25
ENDBRANCH 17 18
BRANCH 17 28
ATOM     28  CB  SER C 308      18.047  12.976   6.101  0.50 39.49 LIG 0.20  C 
BRANCH 28 29
ATOM     29 OG   SER C 308      18.259  14.316   5.679  0.50 39.70 LIG-0.40  OA
ATOM     30 HG   SER C 308      17.519  14.706   5.602  0.50 39.70 LIG 0.21  HD
ENDBRANCH 28 29
ENDBRANCH 17 28
ENDBRANCH 14 17
ENDBRANCH 12 13
BRANCH 12 31
ATOM     31  CB  ILE C 307      12.428  12.891   6.933  0.50 37.20 LIG 0.01  C 
ATOM     32  CG2 ILE C 307      11.218  12.267   6.222  0.50 36.86 LIG 0.01  C 
BRANCH 31 33
ATOM     33  CG1 ILE C 307      13.312  11.849   7.642  0.50 35.88 LIG 0.00  C 
ATOM     34  CD1 ILE C 307      12.646  11.089   8.763  0.50 32.01 LIG 0.01  C 
ENDBRANCH 31 33
ENDBRANCH 12 31
ENDBRANCH 9 12
ENDBRANCH 4 8
BRANCH 1 35
ATOM     35  CA  PHE C 305      11.992  13.469   1.041  0.50 34.47 LIG 0.18  C 
BRANCH 35 36
ATOM     36  CB  PHE C 305      13.034  13.455  -0.088  0.50 34.49 LIG 0.07  C 
BRANCH 36 37
ATOM     37  CG  PHE C 305      12.691  12.560  -1.268  0.50 35.55 LIG-0.06  A 
ATOM     38  CD1 PHE C 305      12.544  11.181  -1.126  0.50 36.28 LIG 0.01  A 
ATOM     39  CE1 PHE C 305      12.225  10.379  -2.226  0.50 36.66 LIG 0.00  A 
ATOM     40  CZ  PHE C 305      12.064  10.954  -3.490  0.50 36.87 LIG 0.00  A 
ATOM     41  CE2 PHE C 305      12.212  12.321  -3.647  0.50 36.76 LIG 0.00  A 
ATOM     42  CD2 PHE C 305      12.534  13.119  -2.538  0.50 36.02 LIG 0.01  A 
ENDBRANCH 36 37
ENDBRANCH 35 36
BRANCH 35 43
ATOM     43  N   PHE C 305      10.687  13.094   0.485  0.50 33.54 LIG-0.35  N 
ATOM     44 H    PHE C 305      10.413  13.594  -0.159  0.50 33.54 LIG 0.16  HD
ATOM     45  C   ASN C 304      10.011  12.051   0.970  0.50 33.07 LIG 0.24  C 
ATOM     46 O    ASN C 304      10.233  11.575   2.089  0.50 33.39 LIG-0.27  OA
BRANCH 45 47
ATOM     47  CA  ASN C 304       8.935  11.452   0.055  0.50 32.40 LIG 0.18  C 
BRANCH 47 48
ATOM     48  CB  ASN C 304       8.831   9.923   0.165  0.50 32.38 LIG 0.14  C 
BRANCH 48 49
ATOM     49  CG  ASN C 304       8.211   9.265  -1.093  0.50 31.77 LIG 0.22  C 
ATOM     50 OD1  ASN C 304       7.040   9.456  -1.399  0.50 27.48 LIG-0.27  OA
ATOM     51  ND2 ASN C 304       9.000   8.455  -1.788  0.50 32.56 LIG-0.37  N 
ATOM     52 21HD ASN C 304       8.693   8.042  -2.478  0.50 32.56 LIG 0.16  HD
ATOM     53 22HD ASN C 304       9.819   8.341  -1.548  0.50 32.56 LIG 0.16  HD
ENDBRANCH 48 49
ENDBRANCH 47 48
BRANCH 47 54
ATOM     54  N   ASN C 304       9.192  11.802  -1.321  0.50 31.56 LIG-0.34  N 
ATOM     55  C   LEU C 303       8.448  12.709  -1.937  0.50 30.83 LIG 0.26  C 
ATOM     56 O    LEU C 303       7.668  13.435  -1.338  0.50 29.02 LIG-0.27  OA
ATOM     57 H    ASN C 304       9.848  11.382  -1.685  0.50 31.56 LIG 0.16  HD
BRANCH 55 58
ATOM     58  CA  LEU C 303       8.628  12.800  -3.458  0.50 30.56 LIG 0.40  C 
ATOM     59  N   LEU C 303       9.000  11.508  -4.097  0.50 30.88 LIG 0.61  N 
BRANCH 58 60
ATOM     60  CB  LEU C 303       7.376  13.380  -4.127  0.50 30.80 LIG 0.06  C 
BRANCH 60 61
ATOM     61  CG  LEU C 303       6.015  12.795  -3.729  0.50 30.92 LIG-0.02  C 
ATOM     62  CD2 LEU C 303       5.893  11.331  -4.190  0.50 31.43 LIG 0.01  C 
ATOM     63  CD1 LEU C 303       4.872  13.646  -4.254  0.50 30.50 LIG 0.01  C 
ENDBRANCH 60 61
ENDBRANCH 58 60
ENDBRANCH 55 58
ENDBRANCH 47 54
ENDBRANCH 45 47
ENDBRANCH 35 43
ENDBRANCH 1 35
TORSDOF 21
ENDMDL
MODEL 137
USER: ADFR SOLUTION from run 77
USER: SCORE 17.425167 LL:  -6.090 LR: -12.805 RR:   0.000 FEB:  -6.541
USER: RMSD 8.593949
USER: SEED 76
USER: STATUS no improvement in best in 43 clusters for 5 generations
USER: GENES 23
USER: genes 0 Translation |==|  0.37785 0.47421 0.25938
USER: genes 1 Rotation |==|  0.66425 0.90173 0.66529 0.68524
USER: genes 2 Torsion [N]-CA--C-[N] |==|  0.15371
USER: genes 3 Torsion [C]-N--CA-[C] |==|  0.64186
USER: genes 4 Torsion [N]-CA--C-[N] |==|  0.97413
USER: genes 5 Torsion [C]-N--CA-[CB] |==|  0.47880
USER: genes 6 Torsion [N]-CA--C-[N] |==|  0.34445
USER: genes 7 Torsion [N]-CA--C-[OXT] |==|  0.78508
USER: genes 8 Torsion [N]-CA--CB-[OG] |==|  0.44281
USER: genes 9 Torsion [CA]-CB--OG-[HG] |==|  0.56185
USER: genes 10 Torsion [N]-CA--CB-[CG2] |==|  0.29104
USER: genes 11 Torsion [CA]-CB--CG1-[CD1] |==|  0.46238
USER: genes 12 Torsion [N]-C--CA-[N] |==|  0.39108
USER: genes 13 Torsion [C]-CA--CB-[CG] |==|  0.27570
USER: genes 14 Torsion [CA]-CB--CG-[CD1] |==|  0.45838
USER: genes 15 Torsion [C]-CA--N-[C] |==|  0.85000
USER: genes 16 Torsion [N]-C--CA-[N] |==|  0.98668
USER: genes 17 Torsion [C]-CA--CB-[CG] |==|  0.26295
USER: genes 18 Torsion [CA]-CB--CG-[OD1] |==|  0.33740
USER: genes 19 Torsion [C]-CA--N-[C] |==|  0.78068
USER: genes 20 Torsion [N]-C--CA-[N] |==|  0.40236
USER: genes 21 Torsion [C]-CA--CB-[CG] |==|  0.12741
USER: genes 22 Torsion [CA]-CB--CG-[CD2] |==|  0.56027
ROOT
ATOM      1  C   PHE C 305      10.277   6.212  -5.147  0.50 34.66 LIG 0.24  C 
ATOM      2 O    PHE C 305       9.269   6.119  -5.840  0.50 33.80 LIG-0.27  OA
ATOM      3  N   PRO C 306      11.334   5.391  -5.303  0.50 35.29 LIG-0.34  N 
ATOM      4  CA  PRO C 306      11.144   4.089  -5.922  0.50 35.79 LIG 0.18  C 
ATOM      5  CB  PRO C 306      12.490   3.837  -6.639  0.50 35.80 LIG 0.04  C 
ATOM      6  CG  PRO C 306      13.413   4.982  -6.208  0.50 35.25 LIG 0.02  C 
ATOM      7  CD  PRO C 306      12.758   5.630  -5.020  0.50 35.51 LIG 0.13  C 
ENDROOT
BRANCH 4 8
ATOM      8  C   PRO C 306      10.941   3.017  -4.849  0.50 36.50 LIG 0.24  C 
ATOM      9  N   ILE C 307       9.945   3.241  -3.976  0.50 37.01 LIG-0.35  N 
ATOM     10 H    ILE C 307       9.468   3.956  -3.947  0.50 37.01 LIG 0.16  HD
ATOM     11 O    PRO C 306      11.671   2.001  -4.827  0.50 36.74 LIG-0.27  OA
BRANCH 9 12
ATOM     12  CA  ILE C 307       9.605   2.224  -2.980  0.50 37.44 LIG 0.18  C 
BRANCH 12 13
ATOM     13  C   ILE C 307       8.111   1.892  -2.964  0.50 38.23 LIG 0.24  C 
ATOM     14  N   SER C 308       7.351   2.700  -3.698  0.50 38.91 LIG-0.34  N 
ATOM     15 H    SER C 308       7.646   3.427  -4.050  0.50 38.91 LIG 0.16  HD
ATOM     16 O    ILE C 307       7.671   0.931  -2.316  0.50 38.79 LIG-0.27  OA
BRANCH 14 17
ATOM     17  CA  SER C 308       5.942   2.445  -3.985  0.50 39.43 LIG 0.20  C 
BRANCH 17 18
ATOM     18  C   SER C 308       5.914   1.213  -4.892  0.50 39.77 LIG 0.24  C 
ATOM     19  N   PRO C 309       5.180   0.161  -4.487  0.50 40.03 LIG-0.34  N 
ATOM     20  CD  PRO C 309       4.111   0.140  -3.476  0.50 39.83 LIG 0.13  C 
ATOM     21  CA  PRO C 309       5.375  -1.151  -5.106  0.50 40.09 LIG 0.19  C 
ATOM     22  CG  PRO C 309       3.957  -1.319  -3.182  0.50 40.19 LIG 0.02  C 
ATOM     23  CB  PRO C 309       4.264  -2.004  -4.478  0.50 40.09 LIG 0.04  C 
ATOM     24 O    SER C 308       6.536   1.211  -5.959  0.50 39.81 LIG-0.27  OA
BRANCH 21 25
ATOM     25  C   PRO C 309       5.259  -1.126  -6.630  0.50 40.04 LIG 0.20  C 
ATOM     26 OXT  PRO C 309       4.162  -1.072  -7.193  0.50 40.10 LIG-0.65  OA
ATOM     27 O    PRO C 309       6.267  -1.171  -7.339  0.50 40.34 LIG-0.65  OA
ENDBRANCH 21 25
ENDBRANCH 17 18
BRANCH 17 28
ATOM     28  CB  SER C 308       5.302   3.644  -4.691  0.50 39.49 LIG 0.20  C 
BRANCH 28 29
ATOM     29 OG   SER C 308       4.121   3.268  -5.384  0.50 39.70 LIG-0.40  OA
ATOM     30 HG   SER C 308       3.960   3.828  -5.989  0.50 39.70 LIG 0.21  HD
ENDBRANCH 28 29
ENDBRANCH 17 28
ENDBRANCH 14 17
ENDBRANCH 12 13
BRANCH 12 31
ATOM     31  CB  ILE C 307      10.012   2.644  -1.547  0.50 37.20 LIG 0.01  C 
ATOM     32  CG2 ILE C 307       8.781   3.068  -0.730  0.50 36.86 LIG 0.01  C 
BRANCH 31 33
ATOM     33  CG1 ILE C 307      10.809   1.506  -0.886  0.50 35.88 LIG 0.00  C 
ATOM     34  CD1 ILE C 307      11.543   1.878   0.380  0.50 32.01 LIG 0.01  C 
ENDBRANCH 31 33
ENDBRANCH 12 31
ENDBRANCH 9 12
ENDBRANCH 4 8
BRANCH 1 35
ATOM     35  CA  PHE C 305      10.374   7.318  -4.088  0.50 34.47 LIG 0.18  C 
BRANCH 35 36
ATOM     36  CB  PHE C 305       9.657   6.809  -2.827  0.50 34.49 LIG 0.07  C 
BRANCH 36 37
ATOM     37  CG  PHE C 305      10.571   6.254  -1.747  0.50 35.55 LIG-0.06  A 
ATOM     38  CD1 PHE C 305      10.124   6.041  -0.444  0.50 36.28 LIG 0.01  A 
ATOM     39  CE1 PHE C 305      10.983   5.526   0.532  0.50 36.66 LIG 0.00  A 
ATOM     40  CZ  PHE C 305      12.311   5.231   0.211  0.50 36.87 LIG 0.00  A 
ATOM     41  CE2 PHE C 305      12.770   5.441  -1.077  0.50 36.76 LIG 0.00  A 
ATOM     42  CD2 PHE C 305      11.903   5.961  -2.050  0.50 36.02 LIG 0.01  A 
ENDBRANCH 36 37
ENDBRANCH 35 36
BRANCH 35 43
ATOM     43  N   PHE C 305       9.782   8.602  -4.481  0.50 33.54 LIG-0.35  N 
ATOM     44 H    PHE C 305       9.200   8.914  -3.930  0.50 33.54 LIG 0.16  HD
ATOM     45  C   ASN C 304      10.148   9.206  -5.612  0.50 33.07 LIG 0.24  C 
ATOM     46 O    ASN C 304      10.698   8.603  -6.542  0.50 33.39 LIG-0.27  OA
BRANCH 45 47
ATOM     47  CA  ASN C 304       9.861  10.710  -5.706  0.50 32.40 LIG 0.18  C 
BRANCH 47 48
ATOM     48  CB  ASN C 304      11.133  11.560  -5.843  0.50 32.38 LIG 0.14  C 
BRANCH 48 49
ATOM     49  CG  ASN C 304      11.488  11.888  -7.316  0.50 31.77 LIG 0.22  C 
ATOM     50 OD1  ASN C 304      11.580  13.047  -7.704  0.50 27.48 LIG-0.27  OA
ATOM     51  ND2 ASN C 304      11.639  10.854  -8.134  0.50 32.56 LIG-0.37  N 
ATOM     52 21HD ASN C 304      11.807  10.986  -8.967  0.50 32.56 LIG 0.16  HD
ATOM     53 22HD ASN C 304      11.568  10.052  -7.830  0.50 32.56 LIG 0.16  HD
ENDBRANCH 48 49
ENDBRANCH 47 48
BRANCH 47 54
ATOM     54  N   ASN C 304       9.128  11.156  -4.546  0.50 31.56 LIG-0.34  N 
ATOM     55  C   LEU C 303       7.824  10.944  -4.449  0.50 30.83 LIG 0.26  C 
ATOM     56 O    LEU C 303       7.223  10.195  -5.206  0.50 29.02 LIG-0.27  OA
ATOM     57 H    ASN C 304       9.602  11.555  -3.949  0.50 31.56 LIG 0.16  HD
BRANCH 55 58
ATOM     58  CA  LEU C 303       7.107  11.695  -3.320  0.50 30.56 LIG 0.40  C 
ATOM     59  N   LEU C 303       5.726  12.129  -3.669  0.50 30.88 LIG 0.61  N 
BRANCH 58 60
ATOM     60  CB  LEU C 303       7.089  10.864  -2.030  0.50 30.80 LIG 0.06  C 
BRANCH 60 61
ATOM     61  CG  LEU C 303       8.395  10.186  -1.598  0.50 30.92 LIG-0.02  C 
ATOM     62  CD2 LEU C 303       8.111   9.004  -0.652  0.50 31.43 LIG 0.01  C 
ATOM     63  CD1 LEU C 303       9.358  11.183  -0.978  0.50 30.50 LIG 0.01  C 
ENDBRANCH 60 61
ENDBRANCH 58 60
ENDBRANCH 55 58
ENDBRANCH 47 54
ENDBRANCH 45 47
ENDBRANCH 35 43
ENDBRANCH 1 35
TORSDOF 21
ENDMDL
MODEL 138
USER: ADFR SOLUTION from run 101
USER: SCORE 17.613141 LL:  -6.112 LR: -12.807 RR:   0.000 FEB:  -6.542
USER: RMSD 11.656605
USER: SEED 100
USER: STATUS no improvement in best in 10 clusters for 5 generations
USER: GENES 23
USER: genes 0 Translation |==|  0.34129 0.79935 0.29401
USER: genes 1 Rotation |==|  0.83996 0.77052 0.27350 0.59973
USER: genes 2 Torsion [N]-CA--C-[N] |==|  0.86062
USER: genes 3 Torsion [C]-N--CA-[C] |==|  0.83548
USER: genes 4 Torsion [N]-CA--C-[N] |==|  0.36681
USER: genes 5 Torsion [C]-N--CA-[CB] |==|  0.53894
USER: genes 6 Torsion [N]-CA--C-[N] |==|  0.83387
USER: genes 7 Torsion [N]-CA--C-[OXT] |==|  0.36954
USER: genes 8 Torsion [N]-CA--CB-[OG] |==|  0.55964
USER: genes 9 Torsion [CA]-CB--OG-[HG] |==|  0.15283
USER: genes 10 Torsion [N]-CA--CB-[CG2] |==|  0.80005
USER: genes 11 Torsion [CA]-CB--CG1-[CD1] |==|  0.42464
USER: genes 12 Torsion [N]-C--CA-[N] |==|  0.97802
USER: genes 13 Torsion [C]-CA--CB-[CG] |==|  0.35257
USER: genes 14 Torsion [CA]-CB--CG-[CD1] |==|  0.43594
USER: genes 15 Torsion [C]-CA--N-[C] |==|  0.70243
USER: genes 16 Torsion [N]-C--CA-[N] |==|  0.06582
USER: genes 17 Torsion [C]-CA--CB-[CG] |==|  0.59358
USER: genes 18 Torsion [CA]-CB--CG-[OD1] |==|  0.88540
USER: genes 19 Torsion [C]-CA--N-[C] |==|  0.69577
USER: genes 20 Torsion [N]-C--CA-[N] |==|  0.41021
USER: genes 21 Torsion [C]-CA--CB-[CG] |==|  0.98784
USER: genes 22 Torsion [CA]-CB--CG-[CD2] |==|  0.76941
ROOT
ATOM      1  C   PHE C 305       9.345  14.015  -4.445  0.50 34.66 LIG 0.24  C 
ATOM      2 O    PHE C 305       8.744  15.076  -4.587  0.50 33.80 LIG-0.27  OA
ATOM      3  N   PRO C 306       8.797  12.958  -3.814  0.50 35.29 LIG-0.34  N 
ATOM      4  CA  PRO C 306       7.717  13.174  -2.864  0.50 35.79 LIG 0.18  C 
ATOM      5  CB  PRO C 306       6.869  11.887  -2.994  0.50 35.80 LIG 0.04  C 
ATOM      6  CG  PRO C 306       7.664  10.955  -3.914  0.50 35.25 LIG 0.02  C 
ATOM      7  CD  PRO C 306       9.055  11.521  -3.993  0.50 35.51 LIG 0.13  C 
ENDROOT
BRANCH 4 8
ATOM      8  C   PRO C 306       8.272  13.264  -1.441  0.50 36.50 LIG 0.24  C 
ATOM      9  N   ILE C 307       9.104  12.276  -1.072  0.50 37.01 LIG-0.35  N 
ATOM     10 H    ILE C 307       9.290  11.586  -1.550  0.50 37.01 LIG 0.16  HD
ATOM     11 O    PRO C 306       7.958  14.223  -0.701  0.50 36.74 LIG-0.27  OA
BRANCH 9 12
ATOM     12  CA  ILE C 307       9.769  12.331   0.231  0.50 37.44 LIG 0.18  C 
BRANCH 12 13
ATOM     13  C   ILE C 307      10.640  13.578   0.395  0.50 38.23 LIG 0.24  C 
ATOM     14  N   SER C 308      10.463  14.237   1.537  0.50 38.91 LIG-0.34  N 
ATOM     15 H    SER C 308       9.825  14.059   2.085  0.50 38.91 LIG 0.16  HD
ATOM     16 O    ILE C 307      11.447  13.920  -0.481  0.50 38.79 LIG-0.27  OA
BRANCH 14 17
ATOM     17  CA  SER C 308      11.326  15.326   1.985  0.50 39.43 LIG 0.20  C 
BRANCH 17 18
ATOM     18  C   SER C 308      12.762  14.841   1.767  0.50 39.77 LIG 0.24  C 
ATOM     19  N   PRO C 309      13.144  13.726   2.414  0.50 40.03 LIG-0.34  N 
ATOM     20  CD  PRO C 309      12.289  12.696   3.026  0.50 39.83 LIG 0.13  C 
ATOM     21  CA  PRO C 309      14.566  13.399   2.533  0.50 40.09 LIG 0.19  C 
ATOM     22  CG  PRO C 309      13.241  11.951   3.908  0.50 40.19 LIG 0.02  C 
ATOM     23  CB  PRO C 309      14.554  12.011   3.188  0.50 40.09 LIG 0.04  C 
ATOM     24 O    SER C 308      13.517  15.456   1.008  0.50 39.81 LIG-0.27  OA
BRANCH 21 25
ATOM     25  C   PRO C 309      15.297  13.372   1.191  0.50 40.04 LIG 0.20  C 
ATOM     26 OXT  PRO C 309      16.382  13.939   1.036  0.50 40.10 LIG-0.65  OA
ATOM     27 O    PRO C 309      14.809  12.790   0.219  0.50 40.34 LIG-0.65  OA
ENDBRANCH 21 25
ENDBRANCH 17 18
BRANCH 17 28
ATOM     28  CB  SER C 308      11.087  15.642   3.463  0.50 39.49 LIG 0.20  C 
BRANCH 28 29
ATOM     29 OG   SER C 308      11.517  16.956   3.789  0.50 39.70 LIG-0.40  OA
ATOM     30 HG   SER C 308      11.143  17.509   3.279  0.50 39.70 LIG 0.21  HD
ENDBRANCH 28 29
ENDBRANCH 17 28
ENDBRANCH 14 17
ENDBRANCH 12 13
BRANCH 12 31
ATOM     31  CB  ILE C 307      10.662  11.093   0.489  0.50 37.20 LIG 0.01  C 
ATOM     32  CG2 ILE C 307       9.805   9.845   0.752  0.50 36.86 LIG 0.01  C 
BRANCH 31 33
ATOM     33  CG1 ILE C 307      11.641  10.913  -0.684  0.50 35.88 LIG 0.00  C 
ATOM     34  CD1 ILE C 307      12.938  10.219  -0.345  0.50 32.01 LIG 0.01  C 
ENDBRANCH 31 33
ENDBRANCH 12 31
ENDBRANCH 9 12
ENDBRANCH 4 8
BRANCH 1 35
ATOM     35  CA  PHE C 305      10.752  13.853  -5.033  0.50 34.47 LIG 0.18  C 
BRANCH 35 36
ATOM     36  CB  PHE C 305      10.622  13.932  -6.562  0.50 34.49 LIG 0.07  C 
BRANCH 36 37
ATOM     37  CG  PHE C 305      11.528  14.950  -7.234  0.50 35.55 LIG-0.06  A 
ATOM     38  CD1 PHE C 305      11.890  14.839  -8.576  0.50 36.28 LIG 0.01  A 
ATOM     39  CE1 PHE C 305      12.722  15.791  -9.174  0.50 36.66 LIG 0.00  A 
ATOM     40  CZ  PHE C 305      13.213  16.863  -8.422  0.50 36.87 LIG 0.00  A 
ATOM     41  CE2 PHE C 305      12.866  16.983  -7.088  0.50 36.76 LIG 0.00  A 
ATOM     42  CD2 PHE C 305      12.032  16.022  -6.496  0.50 36.02 LIG 0.01  A 
ENDBRANCH 36 37
ENDBRANCH 35 36
BRANCH 35 43
ATOM     43  N   PHE C 305      11.428  12.599  -4.681  0.50 33.54 LIG-0.35  N 
ATOM     44 H    PHE C 305      11.120  11.900  -5.077  0.50 33.54 LIG 0.16  HD
ATOM     45  C   ASN C 304      12.437  12.588  -3.809  0.50 33.07 LIG 0.24  C 
ATOM     46 O    ASN C 304      12.632  13.504  -3.002  0.50 33.39 LIG-0.27  OA
BRANCH 45 47
ATOM     47  CA  ASN C 304      13.369  11.369  -3.862  0.50 32.40 LIG 0.18  C 
BRANCH 47 48
ATOM     48  CB  ASN C 304      14.831  11.713  -3.536  0.50 32.38 LIG 0.14  C 
BRANCH 48 49
ATOM     49  CG  ASN C 304      15.847  10.849  -4.326  0.50 31.77 LIG 0.22  C 
ATOM     50 OD1  ASN C 304      15.666   9.649  -4.493  0.50 27.48 LIG-0.27  OA
ATOM     51  ND2 ASN C 304      16.935  11.469  -4.766  0.50 32.56 LIG-0.37  N 
ATOM     52 21HD ASN C 304      17.543  11.025  -5.184  0.50 32.56 LIG 0.16  HD
ATOM     53 22HD ASN C 304      17.033  12.313  -4.633  0.50 32.56 LIG 0.16  HD
ENDBRANCH 48 49
ENDBRANCH 47 48
BRANCH 47 54
ATOM     54  N   ASN C 304      13.316  10.751  -5.164  0.50 31.56 LIG-0.34  N 
ATOM     55  C   LEU C 303      12.738   9.570  -5.327  0.50 30.83 LIG 0.26  C 
ATOM     56 O    LEU C 303      12.049   9.051  -4.461  0.50 29.02 LIG-0.27  OA
ATOM     57 H    ASN C 304      13.681  11.206  -5.796  0.50 31.56 LIG 0.16  HD
BRANCH 55 58
ATOM     58  CA  LEU C 303      12.981   8.888  -6.680  0.50 30.56 LIG 0.40  C 
ATOM     59  N   LEU C 303      13.022   7.402  -6.605  0.50 30.88 LIG 0.61  N 
BRANCH 58 60
ATOM     60  CB  LEU C 303      11.944   9.337  -7.717  0.50 30.80 LIG 0.06  C 
BRANCH 60 61
ATOM     61  CG  LEU C 303      10.817  10.265  -7.248  0.50 30.92 LIG-0.02  C 
ATOM     62  CD2 LEU C 303       9.675   9.456  -6.605  0.50 31.43 LIG 0.01  C 
ATOM     63  CD1 LEU C 303      10.315  11.143  -8.380  0.50 30.50 LIG 0.01  C 
ENDBRANCH 60 61
ENDBRANCH 58 60
ENDBRANCH 55 58
ENDBRANCH 47 54
ENDBRANCH 45 47
ENDBRANCH 35 43
ENDBRANCH 1 35
TORSDOF 21
ENDMDL
MODEL 139
USER: ADFR SOLUTION from run 142
USER: SCORE 17.353112 LL:  -6.578 LR: -12.785 RR:   0.000 FEB:  -6.521
USER: RMSD 5.260610
USER: SEED 141
USER: STATUS no improvement in best in 31 clusters for 5 generations
USER: GENES 23
USER: genes 0 Translation |==|  0.62938 0.50710 0.50999
USER: genes 1 Rotation |==|  0.46640 0.33318 0.49894 0.97015
USER: genes 2 Torsion [N]-CA--C-[N] |==|  0.66971
USER: genes 3 Torsion [C]-N--CA-[C] |==|  0.66592
USER: genes 4 Torsion [N]-CA--C-[N] |==|  0.97621
USER: genes 5 Torsion [C]-N--CA-[CB] |==|  0.47246
USER: genes 6 Torsion [N]-CA--C-[N] |==|  0.28436
USER: genes 7 Torsion [N]-CA--C-[OXT] |==|  0.35181
USER: genes 8 Torsion [N]-CA--CB-[OG] |==|  0.09733
USER: genes 9 Torsion [CA]-CB--OG-[HG] |==|  0.11931
USER: genes 10 Torsion [N]-CA--CB-[CG2] |==|  0.21330
USER: genes 11 Torsion [CA]-CB--CG1-[CD1] |==|  0.08484
USER: genes 12 Torsion [N]-C--CA-[N] |==|  0.35977
USER: genes 13 Torsion [C]-CA--CB-[CG] |==|  0.23911
USER: genes 14 Torsion [CA]-CB--CG-[CD1] |==|  0.91734
USER: genes 15 Torsion [C]-CA--N-[C] |==|  0.80468
USER: genes 16 Torsion [N]-C--CA-[N] |==|  0.14393
USER: genes 17 Torsion [C]-CA--CB-[CG] |==|  0.36290
USER: genes 18 Torsion [CA]-CB--CG-[OD1] |==|  0.15336
USER: genes 19 Torsion [C]-CA--N-[C] |==|  0.62343
USER: genes 20 Torsion [N]-C--CA-[N] |==|  0.40170
USER: genes 21 Torsion [C]-CA--CB-[CG] |==|  0.00422
USER: genes 22 Torsion [CA]-CB--CG-[CD2] |==|  0.75790
ROOT
ATOM      1  C   PHE C 305      16.691   7.001  -0.072  0.50 34.66 LIG 0.24  C 
ATOM      2 O    PHE C 305      17.506   6.100   0.099  0.50 33.80 LIG-0.27  OA
ATOM      3  N   PRO C 306      15.371   6.762  -0.196  0.50 35.29 LIG-0.34  N 
ATOM      4  CA  PRO C 306      14.920   5.448  -0.627  0.50 35.79 LIG 0.18  C 
ATOM      5  CB  PRO C 306      13.561   5.285   0.094  0.50 35.80 LIG 0.04  C 
ATOM      6  CG  PRO C 306      13.278   6.638   0.759  0.50 35.25 LIG 0.02  C 
ATOM      7  CD  PRO C 306      14.226   7.624   0.134  0.50 35.51 LIG 0.13  C 
ENDROOT
BRANCH 4 8
ATOM      8  C   PRO C 306      14.686   5.438  -2.139  0.50 36.50 LIG 0.24  C 
ATOM      9  N   ILE C 307      13.432   5.168  -2.537  0.50 37.01 LIG-0.35  N 
ATOM     10 H    ILE C 307      12.787   4.948  -2.014  0.50 37.01 LIG 0.16  HD
ATOM     11 O    PRO C 306      15.629   5.683  -2.924  0.50 36.74 LIG-0.27  OA
BRANCH 9 12
ATOM     12  CA  ILE C 307      13.087   5.239  -3.958  0.50 37.44 LIG 0.18  C 
BRANCH 12 13
ATOM     13  C   ILE C 307      11.982   6.259  -4.245  0.50 38.23 LIG 0.24  C 
ATOM     14  N   SER C 308      11.402   6.773  -3.164  0.50 38.91 LIG-0.34  N 
ATOM     15 H    SER C 308      11.537   6.468  -2.371  0.50 38.91 LIG 0.16  HD
ATOM     16 O    ILE C 307      11.680   6.572  -5.405  0.50 38.79 LIG-0.27  OA
BRANCH 14 17
ATOM     17  CA  SER C 308      10.476   7.901  -3.202  0.50 39.43 LIG 0.20  C 
BRANCH 17 18
ATOM     18  C   SER C 308      11.321   9.126  -3.559  0.50 39.77 LIG 0.24  C 
ATOM     19  N   PRO C 309      11.261   9.572  -4.827  0.50 40.03 LIG-0.34  N 
ATOM     20  CD  PRO C 309      10.235   9.281  -5.841  0.50 39.83 LIG 0.13  C 
ATOM     21  CA  PRO C 309      12.278  10.499  -5.327  0.50 40.09 LIG 0.19  C 
ATOM     22  CG  PRO C 309      10.893   9.709  -7.115  0.50 40.19 LIG 0.02  C 
ATOM     23  CB  PRO C 309      11.764  10.864  -6.725  0.50 40.09 LIG 0.04  C 
ATOM     24 O    SER C 308      12.012   9.678  -2.698  0.50 39.81 LIG-0.27  OA
BRANCH 21 25
ATOM     25  C   PRO C 309      12.446  11.743  -4.455  0.50 40.04 LIG 0.20  C 
ATOM     26 OXT  PRO C 309      13.550  12.082  -4.019  0.50 40.10 LIG-0.65  OA
ATOM     27 O    PRO C 309      11.472  12.437  -4.153  0.50 40.34 LIG-0.65  OA
ENDBRANCH 21 25
ENDBRANCH 17 18
BRANCH 17 28
ATOM     28  CB  SER C 308       9.796   8.097  -1.845  0.50 39.49 LIG 0.20  C 
BRANCH 28 29
ATOM     29 OG   SER C 308      10.676   7.788  -0.774  0.50 39.70 LIG-0.40  OA
ATOM     30 HG   SER C 308      11.435   8.109  -0.933  0.50 39.70 LIG 0.21  HD
ENDBRANCH 28 29
ENDBRANCH 17 28
ENDBRANCH 14 17
ENDBRANCH 12 13
BRANCH 12 31
ATOM     31  CB  ILE C 307      12.626   3.872  -4.521  0.50 37.20 LIG 0.01  C 
ATOM     32  CG2 ILE C 307      11.186   3.559  -4.089  0.50 36.86 LIG 0.01  C 
BRANCH 31 33
ATOM     33  CG1 ILE C 307      12.811   3.859  -6.049  0.50 35.88 LIG 0.00  C 
ATOM     34  CD1 ILE C 307      13.951   4.700  -6.570  0.50 32.01 LIG 0.01  C 
ENDBRANCH 31 33
ENDBRANCH 12 31
ENDBRANCH 9 12
ENDBRANCH 4 8
BRANCH 1 35
ATOM     35  CA  PHE C 305      17.166   8.460  -0.109  0.50 34.47 LIG 0.18  C 
BRANCH 35 36
ATOM     36  CB  PHE C 305      17.912   8.664  -1.436  0.50 34.49 LIG 0.07  C 
BRANCH 36 37
ATOM     37  CG  PHE C 305      17.031   9.028  -2.621  0.50 35.55 LIG-0.06  A 
ATOM     38  CD1 PHE C 305      15.708   8.597  -2.713  0.50 36.28 LIG 0.01  A 
ATOM     39  CE1 PHE C 305      14.917   8.947  -3.811  0.50 36.66 LIG 0.00  A 
ATOM     40  CZ  PHE C 305      15.452   9.727  -4.840  0.50 36.87 LIG 0.00  A 
ATOM     41  CE2 PHE C 305      16.764  10.158  -4.765  0.50 36.76 LIG 0.00  A 
ATOM     42  CD2 PHE C 305      17.553   9.800  -3.660  0.50 36.02 LIG 0.01  A 
ENDBRANCH 36 37
ENDBRANCH 35 36
BRANCH 35 43
ATOM     43  N   PHE C 305      18.050   8.849   0.995  0.50 33.54 LIG-0.35  N 
ATOM     44 H    PHE C 305      18.869   8.988   0.769  0.50 33.54 LIG 0.16  HD
ATOM     45  C   ASN C 304      17.582   8.968   2.237  0.50 33.07 LIG 0.24  C 
ATOM     46 O    ASN C 304      16.527   8.439   2.606  0.50 33.39 LIG-0.27  OA
BRANCH 45 47
ATOM     47  CA  ASN C 304      18.420   9.816   3.204  0.50 32.40 LIG 0.18  C 
BRANCH 47 48
ATOM     48  CB  ASN C 304      17.742  10.025   4.567  0.50 32.38 LIG 0.14  C 
BRANCH 48 49
ATOM     49  CG  ASN C 304      18.677   9.715   5.763  0.50 31.77 LIG 0.22  C 
ATOM     50 OD1  ASN C 304      19.765  10.267   5.880  0.50 27.48 LIG-0.27  OA
ATOM     51  ND2 ASN C 304      18.256   8.793   6.620  0.50 32.56 LIG-0.37  N 
ATOM     52 21HD ASN C 304      18.753   8.565   7.285  0.50 32.56 LIG 0.16  HD
ATOM     53 22HD ASN C 304      17.487   8.423   6.512  0.50 32.56 LIG 0.16  HD
ENDBRANCH 48 49
ENDBRANCH 47 48
BRANCH 47 54
ATOM     54  N   ASN C 304      18.705  11.106   2.624  0.50 31.56 LIG-0.34  N 
ATOM     55  C   LEU C 303      19.921  11.626   2.699  0.50 30.83 LIG 0.26  C 
ATOM     56 O    LEU C 303      20.892  10.974   3.057  0.50 29.02 LIG-0.27  OA
ATOM     57 H    ASN C 304      18.036  11.487   2.242  0.50 31.56 LIG 0.16  HD
BRANCH 55 58
ATOM     58  CA  LEU C 303      20.043  13.102   2.300  0.50 30.56 LIG 0.40  C 
ATOM     59  N   LEU C 303      21.044  13.859   3.100  0.50 30.88 LIG 0.61  N 
BRANCH 58 60
ATOM     60  CB  LEU C 303      20.345  13.245   0.803  0.50 30.80 LIG 0.06  C 
BRANCH 60 61
ATOM     61  CG  LEU C 303      20.437  11.964  -0.035  0.50 30.92 LIG-0.02  C 
ATOM     62  CD2 LEU C 303      21.865  11.389   0.001  0.50 31.43 LIG 0.01  C 
ATOM     63  CD1 LEU C 303      19.961  12.198  -1.458  0.50 30.50 LIG 0.01  C 
ENDBRANCH 60 61
ENDBRANCH 58 60
ENDBRANCH 55 58
ENDBRANCH 47 54
ENDBRANCH 45 47
ENDBRANCH 35 43
ENDBRANCH 1 35
TORSDOF 21
ENDMDL
MODEL 140
USER: ADFR SOLUTION from run 146
USER: SCORE 18.158650 LL:  -7.495 LR: -12.795 RR:   0.000 FEB:  -6.531
USER: RMSD 10.234296
USER: SEED 145
USER: STATUS no improvement in best in 7 clusters for 5 generations
USER: GENES 23
USER: genes 0 Translation |==|  0.31011 0.63852 0.25279
USER: genes 1 Rotation |==|  0.54480 0.93816 0.73055 0.55347
USER: genes 2 Torsion [N]-CA--C-[N] |==|  0.49480
USER: genes 3 Torsion [C]-N--CA-[C] |==|  0.77108
USER: genes 4 Torsion [N]-CA--C-[N] |==|  0.09248
USER: genes 5 Torsion [C]-N--CA-[CB] |==|  0.48336
USER: genes 6 Torsion [N]-CA--C-[N] |==|  0.53284
USER: genes 7 Torsion [N]-CA--C-[OXT] |==|  0.33668
USER: genes 8 Torsion [N]-CA--CB-[OG] |==|  0.97729
USER: genes 9 Torsion [CA]-CB--OG-[HG] |==|  0.70597
USER: genes 10 Torsion [N]-CA--CB-[CG2] |==|  0.55666
USER: genes 11 Torsion [CA]-CB--CG1-[CD1] |==|  0.81295
USER: genes 12 Torsion [N]-C--CA-[N] |==|  0.83759
USER: genes 13 Torsion [C]-CA--CB-[CG] |==|  0.34695
USER: genes 14 Torsion [CA]-CB--CG-[CD1] |==|  0.90255
USER: genes 15 Torsion [C]-CA--N-[C] |==|  0.65643
USER: genes 16 Torsion [N]-C--CA-[N] |==|  0.91588
USER: genes 17 Torsion [C]-CA--CB-[CG] |==|  0.92175
USER: genes 18 Torsion [CA]-CB--CG-[OD1] |==|  0.72326
USER: genes 19 Torsion [C]-CA--N-[C] |==|  0.82526
USER: genes 20 Torsion [N]-C--CA-[N] |==|  0.44797
USER: genes 21 Torsion [C]-CA--CB-[CG] |==|  0.21862
USER: genes 22 Torsion [CA]-CB--CG-[CD2] |==|  0.68764
ROOT
ATOM      1  C   PHE C 305       8.550  10.155  -5.280  0.50 34.66 LIG 0.24  C 
ATOM      2 O    PHE C 305       7.688   9.456  -5.805  0.50 33.80 LIG-0.27  OA
ATOM      3  N   PRO C 306       9.793  10.265  -5.787  0.50 35.29 LIG-0.34  N 
ATOM      4  CA  PRO C 306      10.309   9.212  -6.648  0.50 35.79 LIG 0.18  C 
ATOM      5  CB  PRO C 306      11.251   9.971  -7.612  0.50 35.80 LIG 0.04  C 
ATOM      6  CG  PRO C 306      11.314  11.409  -7.085  0.50 35.25 LIG 0.02  C 
ATOM      7  CD  PRO C 306      10.752  11.376  -5.690  0.50 35.51 LIG 0.13  C 
ENDROOT
BRANCH 4 8
ATOM      8  C   PRO C 306      11.131   8.214  -5.830  0.50 36.50 LIG 0.24  C 
ATOM      9  N   ILE C 307      11.632   7.169  -6.511  0.50 37.01 LIG-0.35  N 
ATOM     10 H    ILE C 307      11.473   7.000  -7.338  0.50 37.01 LIG 0.16  HD
ATOM     11 O    PRO C 306      11.315   8.401  -4.606  0.50 36.74 LIG-0.27  OA
BRANCH 9 12
ATOM     12  CA  ILE C 307      12.518   6.218  -5.838  0.50 37.44 LIG 0.18  C 
BRANCH 12 13
ATOM     13  C   ILE C 307      13.968   6.705  -5.780  0.50 38.23 LIG 0.24  C 
ATOM     14  N   SER C 308      14.111   8.022  -5.665  0.50 38.91 LIG-0.34  N 
ATOM     15 H    SER C 308      13.455   8.572  -5.747  0.50 38.91 LIG 0.16  HD
ATOM     16 O    ILE C 307      14.917   5.909  -5.829  0.50 38.79 LIG-0.27  OA
BRANCH 14 17
ATOM     17  CA  SER C 308      15.387   8.677  -5.390  0.50 39.43 LIG 0.20  C 
BRANCH 17 18
ATOM     18  C   SER C 308      15.785   8.243  -3.978  0.50 39.77 LIG 0.24  C 
ATOM     19  N   PRO C 309      16.803   8.899  -3.392  0.50 40.03 LIG-0.34  N 
ATOM     20  CD  PRO C 309      17.366  10.208  -3.758  0.50 39.83 LIG 0.13  C 
ATOM     21  CA  PRO C 309      17.459   8.331  -2.212  0.50 40.09 LIG 0.19  C 
ATOM     22  CG  PRO C 309      18.677  10.223  -3.036  0.50 40.19 LIG 0.02  C 
ATOM     23  CB  PRO C 309      18.431   9.438  -1.783  0.50 40.09 LIG 0.04  C 
ATOM     24 O    SER C 308      15.172   7.334  -3.410  0.50 39.81 LIG-0.27  OA
BRANCH 21 25
ATOM     25  C   PRO C 309      16.485   7.982  -1.086  0.50 40.04 LIG 0.20  C 
ATOM     26 OXT  PRO C 309      16.391   6.831  -0.649  0.50 40.10 LIG-0.65  OA
ATOM     27 O    PRO C 309      15.756   8.845  -0.593  0.50 40.34 LIG-0.65  OA
ENDBRANCH 21 25
ENDBRANCH 17 18
BRANCH 17 28
ATOM     28  CB  SER C 308      15.248  10.199  -5.464  0.50 39.49 LIG 0.20  C 
BRANCH 28 29
ATOM     29 OG   SER C 308      13.973  10.581  -5.960  0.50 39.70 LIG-0.40  OA
ATOM     30 HG   SER C 308      14.050  10.855  -6.750  0.50 39.70 LIG 0.21  HD
ENDBRANCH 28 29
ENDBRANCH 17 28
ENDBRANCH 14 17
ENDBRANCH 12 13
BRANCH 12 31
ATOM     31  CB  ILE C 307      12.513   4.826  -6.517  0.50 37.20 LIG 0.01  C 
ATOM     32  CG2 ILE C 307      13.017   3.744  -5.551  0.50 36.86 LIG 0.01  C 
BRANCH 31 33
ATOM     33  CG1 ILE C 307      11.108   4.531  -7.071  0.50 35.88 LIG 0.00  C 
ATOM     34  CD1 ILE C 307      10.030   4.339  -6.032  0.50 32.01 LIG 0.01  C 
ENDBRANCH 31 33
ENDBRANCH 12 31
ENDBRANCH 9 12
ENDBRANCH 4 8
BRANCH 1 35
ATOM     35  CA  PHE C 305       8.209  10.971  -4.027  0.50 34.47 LIG 0.18  C 
BRANCH 35 36
ATOM     36  CB  PHE C 305       8.339  12.457  -4.398  0.50 34.49 LIG 0.07  C 
BRANCH 36 37
ATOM     37  CG  PHE C 305       7.103  13.299  -4.127  0.50 35.55 LIG-0.06  A 
ATOM     38  CD1 PHE C 305       5.816  12.787  -4.283  0.50 36.28 LIG 0.01  A 
ATOM     39  CE1 PHE C 305       4.694  13.580  -4.025  0.50 36.66 LIG 0.00  A 
ATOM     40  CZ  PHE C 305       4.853  14.908  -3.618  0.50 36.87 LIG 0.00  A 
ATOM     41  CE2 PHE C 305       6.125  15.431  -3.463  0.50 36.76 LIG 0.00  A 
ATOM     42  CD2 PHE C 305       7.246  14.629  -3.727  0.50 36.02 LIG 0.01  A 
ENDBRANCH 36 37
ENDBRANCH 35 36
BRANCH 35 43
ATOM     43  N   PHE C 305       9.060  10.699  -2.863  0.50 33.54 LIG-0.35  N 
ATOM     44 H    PHE C 305       9.902  10.807  -2.999  0.50 33.54 LIG 0.16  HD
ATOM     45  C   ASN C 304       8.528  10.316  -1.701  0.50 33.07 LIG 0.24  C 
ATOM     46 O    ASN C 304       7.393   9.833  -1.615  0.50 33.39 LIG-0.27  OA
BRANCH 45 47
ATOM     47  CA  ASN C 304       9.399  10.517  -0.454  0.50 32.40 LIG 0.18  C 
BRANCH 47 48
ATOM     48  CB  ASN C 304       9.160  11.868   0.238  0.50 32.38 LIG 0.14  C 
BRANCH 48 49
ATOM     49  CG  ASN C 304       8.687  12.975  -0.738  0.50 31.77 LIG 0.22  C 
ATOM     50 OD1  ASN C 304       9.470  13.807  -1.182  0.50 27.48 LIG-0.27  OA
ATOM     51  ND2 ASN C 304       7.392  12.997  -1.025  0.50 32.56 LIG-0.37  N 
ATOM     52 21HD ASN C 304       7.076  13.610  -1.540  0.50 32.56 LIG 0.16  HD
ATOM     53 22HD ASN C 304       6.868  12.399  -0.698  0.50 32.56 LIG 0.16  HD
ENDBRANCH 48 49
ENDBRANCH 47 48
BRANCH 47 54
ATOM     54  N   ASN C 304      10.797  10.409  -0.793  0.50 31.56 LIG-0.34  N 
ATOM     55  C   LEU C 303      11.291   9.275  -1.265  0.50 30.83 LIG 0.26  C 
ATOM     56 O    LEU C 303      10.579   8.352  -1.634  0.50 29.02 LIG-0.27  OA
ATOM     57 H    ASN C 304      11.257  11.124  -0.665  0.50 31.56 LIG 0.16  HD
BRANCH 55 58
ATOM     58  CA  LEU C 303      12.821   9.187  -1.329  0.50 30.56 LIG 0.40  C 
ATOM     59  N   LEU C 303      13.340   7.796  -1.434  0.50 30.88 LIG 0.61  N 
BRANCH 58 60
ATOM     60  CB  LEU C 303      13.375  10.045  -2.473  0.50 30.80 LIG 0.06  C 
BRANCH 60 61
ATOM     61  CG  LEU C 303      13.480  11.559  -2.247  0.50 30.92 LIG-0.02  C 
ATOM     62  CD2 LEU C 303      12.491  12.317  -3.152  0.50 31.43 LIG 0.01  C 
ATOM     63  CD1 LEU C 303      14.905  12.049  -2.438  0.50 30.50 LIG 0.01  C 
ENDBRANCH 60 61
ENDBRANCH 58 60
ENDBRANCH 55 58
ENDBRANCH 47 54
ENDBRANCH 45 47
ENDBRANCH 35 43
ENDBRANCH 1 35
TORSDOF 21
ENDMDL
MODEL 141
USER: ADFR SOLUTION from run 130
USER: SCORE 18.431617 LL:  -6.484 LR: -12.793 RR:   0.000 FEB:  -6.529
USER: RMSD 7.112300
USER: SEED 129
USER: STATUS no improvement in best in 16 clusters for 5 generations
USER: GENES 23
USER: genes 0 Translation |==|  0.43798 0.52453 0.22447
USER: genes 1 Rotation |==|  0.61059 0.79178 0.75718 0.79410
USER: genes 2 Torsion [N]-CA--C-[N] |==|  0.09758
USER: genes 3 Torsion [C]-N--CA-[C] |==|  0.59370
USER: genes 4 Torsion [N]-CA--C-[N] |==|  0.41040
USER: genes 5 Torsion [C]-N--CA-[CB] |==|  0.50556
USER: genes 6 Torsion [N]-CA--C-[N] |==|  0.45105
USER: genes 7 Torsion [N]-CA--C-[OXT] |==|  0.38461
USER: genes 8 Torsion [N]-CA--CB-[OG] |==|  0.91617
USER: genes 9 Torsion [CA]-CB--OG-[HG] |==|  0.11874
USER: genes 10 Torsion [N]-CA--CB-[CG2] |==|  0.87086
USER: genes 11 Torsion [CA]-CB--CG1-[CD1] |==|  0.51845
USER: genes 12 Torsion [N]-C--CA-[N] |==|  0.95342
USER: genes 13 Torsion [C]-CA--CB-[CG] |==|  0.82902
USER: genes 14 Torsion [CA]-CB--CG-[CD1] |==|  0.75419
USER: genes 15 Torsion [C]-CA--N-[C] |==|  0.70798
USER: genes 16 Torsion [N]-C--CA-[N] |==|  0.91651
USER: genes 17 Torsion [C]-CA--CB-[CG] |==|  0.19039
USER: genes 18 Torsion [CA]-CB--CG-[OD1] |==|  0.61577
USER: genes 19 Torsion [C]-CA--N-[C] |==|  0.82689
USER: genes 20 Torsion [N]-C--CA-[N] |==|  0.45754
USER: genes 21 Torsion [C]-CA--CB-[CG] |==|  0.56574
USER: genes 22 Torsion [CA]-CB--CG-[CD2] |==|  0.82266
ROOT
ATOM      1  C   PHE C 305      11.810   7.420  -5.854  0.50 34.66 LIG 0.24  C 
ATOM      2 O    PHE C 305      11.514   7.533  -7.039  0.50 33.80 LIG-0.27  OA
ATOM      3  N   PRO C 306      12.786   6.590  -5.433  0.50 35.29 LIG-0.34  N 
ATOM      4  CA  PRO C 306      13.171   5.460  -6.264  0.50 35.79 LIG 0.18  C 
ATOM      5  CB  PRO C 306      14.675   5.286  -5.951  0.50 35.80 LIG 0.04  C 
ATOM      6  CG  PRO C 306      14.978   6.260  -4.807  0.50 35.25 LIG 0.02  C 
ATOM      7  CD  PRO C 306      13.648   6.681  -4.245  0.50 35.51 LIG 0.13  C 
ENDROOT
BRANCH 4 8
ATOM      8  C   PRO C 306      12.421   4.200  -5.826  0.50 36.50 LIG 0.24  C 
ATOM      9  N   ILE C 307      11.162   4.387  -5.396  0.50 37.01 LIG-0.35  N 
ATOM     10 H    ILE C 307      10.784   5.153  -5.297  0.50 37.01 LIG 0.16  HD
ATOM     11 O    PRO C 306      12.976   3.081  -5.892  0.50 36.74 LIG-0.27  OA
BRANCH 9 12
ATOM     12  CA  ILE C 307      10.329   3.232  -5.056  0.50 37.44 LIG 0.18  C 
BRANCH 12 13
ATOM     13  C   ILE C 307       8.850   3.457  -5.382  0.50 38.23 LIG 0.24  C 
ATOM     14  N   SER C 308       8.185   2.363  -5.744  0.50 38.91 LIG-0.34  N 
ATOM     15 H    SER C 308       8.574   1.614  -5.909  0.50 38.91 LIG 0.16  HD
ATOM     16 O    ILE C 307       8.335   4.581  -5.297  0.50 38.79 LIG-0.27  OA
BRANCH 14 17
ATOM     17  CA  SER C 308       6.734   2.313  -5.900  0.50 39.43 LIG 0.20  C 
BRANCH 17 18
ATOM     18  C   SER C 308       6.152   2.724  -4.545  0.50 39.77 LIG 0.24  C 
ATOM     19  N   PRO C 309       4.864   3.108  -4.516  0.50 40.03 LIG-0.34  N 
ATOM     20  CD  PRO C 309       3.821   2.858  -5.524  0.50 39.83 LIG 0.13  C 
ATOM     21  CA  PRO C 309       4.341   3.831  -3.354  0.50 40.09 LIG 0.19  C 
ATOM     22  CG  PRO C 309       2.749   3.832  -5.146  0.50 40.19 LIG 0.02  C 
ATOM     23  CB  PRO C 309       2.840   3.938  -3.654  0.50 40.09 LIG 0.04  C 
ATOM     24 O    SER C 308       6.851   2.681  -3.529  0.50 39.81 LIG-0.27  OA
BRANCH 21 25
ATOM     25  C   PRO C 309       4.592   3.112  -2.029  0.50 40.04 LIG 0.20  C 
ATOM     26 OXT  PRO C 309       4.944   3.727  -1.019  0.50 40.10 LIG-0.65  OA
ATOM     27 O    PRO C 309       4.459   1.890  -1.940  0.50 40.34 LIG-0.65  OA
ENDBRANCH 21 25
ENDBRANCH 17 18
BRANCH 17 28
ATOM     28  CB  SER C 308       6.273   0.903  -6.275  0.50 39.49 LIG 0.20  C 
BRANCH 28 29
ATOM     29 OG   SER C 308       7.265   0.214  -7.023  0.50 39.70 LIG-0.40  OA
ATOM     30 HG   SER C 308       8.020   0.352  -6.683  0.50 39.70 LIG 0.21  HD
ENDBRANCH 28 29
ENDBRANCH 17 28
ENDBRANCH 14 17
ENDBRANCH 12 13
BRANCH 12 31
ATOM     31  CB  ILE C 307      10.430   2.852  -3.558  0.50 37.20 LIG 0.01  C 
ATOM     32  CG2 ILE C 307      11.896   2.824  -3.099  0.50 36.86 LIG 0.01  C 
BRANCH 31 33
ATOM     33  CG1 ILE C 307       9.558   3.809  -2.726  0.50 35.88 LIG 0.00  C 
ATOM     34  CD1 ILE C 307       9.679   3.660  -1.229  0.50 32.01 LIG 0.01  C 
ENDBRANCH 31 33
ENDBRANCH 12 31
ENDBRANCH 9 12
ENDBRANCH 4 8
BRANCH 1 35
ATOM     35  CA  PHE C 305      11.086   8.271  -4.803  0.50 34.47 LIG 0.18  C 
BRANCH 35 36
ATOM     36  CB  PHE C 305      11.621   9.706  -4.928  0.50 34.49 LIG 0.07  C 
BRANCH 36 37
ATOM     37  CG  PHE C 305      13.110   9.863  -4.664  0.50 35.55 LIG-0.06  A 
ATOM     38  CD1 PHE C 305      13.609  10.092  -3.382  0.50 36.28 LIG 0.01  A 
ATOM     39  CE1 PHE C 305      14.983  10.230  -3.163  0.50 36.66 LIG 0.00  A 
ATOM     40  CZ  PHE C 305      15.875  10.153  -4.237  0.50 36.87 LIG 0.00  A 
ATOM     41  CE2 PHE C 305      15.394   9.930  -5.515  0.50 36.76 LIG 0.00  A 
ATOM     42  CD2 PHE C 305      14.013   9.795  -5.727  0.50 36.02 LIG 0.01  A 
ENDBRANCH 36 37
ENDBRANCH 35 36
BRANCH 35 43
ATOM     43  N   PHE C 305      11.261   7.821  -3.417  0.50 33.54 LIG-0.35  N 
ATOM     44 H    PHE C 305      12.031   7.996  -3.076  0.50 33.54 LIG 0.16  HD
ATOM     45  C   ASN C 304      10.277   7.195  -2.772  0.50 33.07 LIG 0.24  C 
ATOM     46 O    ASN C 304       9.336   6.647  -3.361  0.50 33.39 LIG-0.27  OA
BRANCH 45 47
ATOM     47  CA  ASN C 304      10.358   7.193  -1.239  0.50 32.40 LIG 0.18  C 
BRANCH 47 48
ATOM     48  CB  ASN C 304       9.607   8.367  -0.594  0.50 32.38 LIG 0.14  C 
BRANCH 48 49
ATOM     49  CG  ASN C 304       8.069   8.265  -0.753  0.50 31.77 LIG 0.22  C 
ATOM     50 OD1  ASN C 304       7.392   9.250  -1.026  0.50 27.48 LIG-0.27  OA
ATOM     51  ND2 ASN C 304       7.528   7.073  -0.536  0.50 32.56 LIG-0.37  N 
ATOM     52 21HD ASN C 304       6.675   6.973  -0.583  0.50 32.56 LIG 0.16  HD
ATOM     53 22HD ASN C 304       8.030   6.401  -0.347  0.50 32.56 LIG 0.16  HD
ENDBRANCH 48 49
ENDBRANCH 47 48
BRANCH 47 54
ATOM     54  N   ASN C 304      11.735   7.229  -0.809  0.50 31.56 LIG-0.34  N 
ATOM     55  C   LEU C 303      12.564   6.242  -1.115  0.50 30.83 LIG 0.26  C 
ATOM     56 O    LEU C 303      12.282   5.380  -1.935  0.50 29.02 LIG-0.27  OA
ATOM     57 H    ASN C 304      11.954   7.925  -0.353  0.50 31.56 LIG 0.16  HD
BRANCH 55 58
ATOM     58  CA  LEU C 303      13.910   6.248  -0.381  0.50 30.56 LIG 0.40  C 
ATOM     59  N   LEU C 303      14.650   4.960  -0.474  0.50 30.88 LIG 0.61  N 
BRANCH 58 60
ATOM     60  CB  LEU C 303      14.796   7.403  -0.864  0.50 30.80 LIG 0.06  C 
BRANCH 60 61
ATOM     61  CG  LEU C 303      16.313   7.265  -0.686  0.50 30.92 LIG-0.02  C 
ATOM     62  CD2 LEU C 303      16.685   7.198   0.807  0.50 31.43 LIG 0.01  C 
ATOM     63  CD1 LEU C 303      17.058   8.379  -1.401  0.50 30.50 LIG 0.01  C 
ENDBRANCH 60 61
ENDBRANCH 58 60
ENDBRANCH 55 58
ENDBRANCH 47 54
ENDBRANCH 45 47
ENDBRANCH 35 43
ENDBRANCH 1 35
TORSDOF 21
ENDMDL
MODEL 142
USER: ADFR SOLUTION from run 43
USER: SCORE 17.581487 LL:  -6.737 LR: -12.785 RR:   0.000 FEB:  -6.521
USER: RMSD 6.104267
USER: SEED 42
USER: STATUS no improvement in best in 22 clusters for 5 generations
USER: GENES 23
USER: genes 0 Translation |==|  0.59471 0.50241 0.53521
USER: genes 1 Rotation |==|  0.68437 0.23169 0.50012 0.87950
USER: genes 2 Torsion [N]-CA--C-[N] |==|  0.93681
USER: genes 3 Torsion [C]-N--CA-[C] |==|  0.18953
USER: genes 4 Torsion [N]-CA--C-[N] |==|  0.05152
USER: genes 5 Torsion [C]-N--CA-[CB] |==|  0.19010
USER: genes 6 Torsion [N]-CA--C-[N] |==|  0.79449
USER: genes 7 Torsion [N]-CA--C-[OXT] |==|  0.35679
USER: genes 8 Torsion [N]-CA--CB-[OG] |==|  0.97178
USER: genes 9 Torsion [CA]-CB--OG-[HG] |==|  0.72888
USER: genes 10 Torsion [N]-CA--CB-[CG2] |==|  0.53495
USER: genes 11 Torsion [CA]-CB--CG1-[CD1] |==|  0.32709
USER: genes 12 Torsion [N]-C--CA-[N] |==|  0.48333
USER: genes 13 Torsion [C]-CA--CB-[CG] |==|  0.50343
USER: genes 14 Torsion [CA]-CB--CG-[CD1] |==|  0.87313
USER: genes 15 Torsion [C]-CA--N-[C] |==|  0.63765
USER: genes 16 Torsion [N]-C--CA-[N] |==|  0.14773
USER: genes 17 Torsion [C]-CA--CB-[CG] |==|  0.83101
USER: genes 18 Torsion [CA]-CB--CG-[OD1] |==|  0.85582
USER: genes 19 Torsion [C]-CA--N-[C] |==|  0.55475
USER: genes 20 Torsion [N]-C--CA-[N] |==|  0.47596
USER: genes 21 Torsion [C]-CA--CB-[CG] |==|  0.88750
USER: genes 22 Torsion [CA]-CB--CG-[CD2] |==|  0.63102
ROOT
ATOM      1  C   PHE C 305      15.807   6.889   0.439  0.50 34.66 LIG 0.24  C 
ATOM      2 O    PHE C 305      16.855   6.251   0.448  0.50 33.80 LIG-0.27  OA
ATOM      3  N   PRO C 306      14.876   6.728  -0.522  0.50 35.29 LIG-0.34  N 
ATOM      4  CA  PRO C 306      15.269   6.191  -1.815  0.50 35.79 LIG 0.18  C 
ATOM      5  CB  PRO C 306      14.008   5.425  -2.279  0.50 35.80 LIG 0.04  C 
ATOM      6  CG  PRO C 306      12.921   5.748  -1.248  0.50 35.25 LIG 0.02  C 
ATOM      7  CD  PRO C 306      13.420   6.929  -0.462  0.50 35.51 LIG 0.13  C 
ENDROOT
BRANCH 4 8
ATOM      8  C   PRO C 306      15.551   7.329  -2.798  0.50 36.50 LIG 0.24  C 
ATOM      9  N   ILE C 307      14.967   8.506  -2.516  0.50 37.01 LIG-0.35  N 
ATOM     10 H    ILE C 307      14.413   8.638  -1.872  0.50 37.01 LIG 0.16  HD
ATOM     11 O    PRO C 306      16.297   7.140  -3.785  0.50 36.74 LIG-0.27  OA
BRANCH 9 12
ATOM     12  CA  ILE C 307      15.261   9.681  -3.338  0.50 37.44 LIG 0.18  C 
BRANCH 12 13
ATOM     13  C   ILE C 307      14.705   9.561  -4.758  0.50 38.23 LIG 0.24  C 
ATOM     14  N   SER C 308      13.751   8.647  -4.909  0.50 38.91 LIG-0.34  N 
ATOM     15 H    SER C 308      13.548   8.077  -4.298  0.50 38.91 LIG 0.16  HD
ATOM     16 O    ILE C 307      15.123  10.281  -5.677  0.50 38.79 LIG-0.27  OA
BRANCH 14 17
ATOM     17  CA  SER C 308      12.947   8.508  -6.121  0.50 39.43 LIG 0.20  C 
BRANCH 17 18
ATOM     18  C   SER C 308      11.851   7.494  -5.783  0.50 39.77 LIG 0.24  C 
ATOM     19  N   PRO C 309      12.209   6.201  -5.695  0.50 40.03 LIG-0.34  N 
ATOM     20  CD  PRO C 309      13.561   5.645  -5.525  0.50 39.83 LIG 0.13  C 
ATOM     21  CA  PRO C 309      11.186   5.154  -5.721  0.50 40.09 LIG 0.19  C 
ATOM     22  CG  PRO C 309      13.380   4.205  -5.888  0.50 40.19 LIG 0.02  C 
ATOM     23  CB  PRO C 309      11.987   3.874  -5.449  0.50 40.09 LIG 0.04  C 
ATOM     24 O    SER C 308      10.693   7.873  -5.586  0.50 39.81 LIG-0.27  OA
BRANCH 21 25
ATOM     25  C   PRO C 309      10.087   5.354  -4.677  0.50 40.04 LIG 0.20  C 
ATOM     26 OXT  PRO C 309       8.893   5.331  -4.986  0.50 40.10 LIG-0.65  OA
ATOM     27 O    PRO C 309      10.371   5.556  -3.495  0.50 40.34 LIG-0.65  OA
ENDBRANCH 21 25
ENDBRANCH 17 18
BRANCH 17 28
ATOM     28  CB  SER C 308      13.800   8.006  -7.289  0.50 39.49 LIG 0.20  C 
BRANCH 28 29
ATOM     29 OG   SER C 308      15.183   8.025  -6.968  0.50 39.70 LIG-0.40  OA
ATOM     30 HG   SER C 308      15.533   8.724  -7.275  0.50 39.70 LIG 0.21  HD
ENDBRANCH 28 29
ENDBRANCH 17 28
ENDBRANCH 14 17
ENDBRANCH 12 13
BRANCH 12 31
ATOM     31  CB  ILE C 307      16.780   9.959  -3.446  0.50 37.20 LIG 0.01  C 
ATOM     32  CG2 ILE C 307      17.042  11.351  -4.040  0.50 36.86 LIG 0.01  C 
BRANCH 31 33
ATOM     33  CG1 ILE C 307      17.438   9.759  -2.069  0.50 35.88 LIG 0.00  C 
ATOM     34  CD1 ILE C 307      18.473   8.663  -1.998  0.50 32.01 LIG 0.01  C 
ENDBRANCH 31 33
ENDBRANCH 12 31
ENDBRANCH 9 12
ENDBRANCH 4 8
BRANCH 1 35
ATOM     35  CA  PHE C 305      15.509   7.880   1.572  0.50 34.47 LIG 0.18  C 
BRANCH 35 36
ATOM     36  CB  PHE C 305      15.430   9.280   0.946  0.50 34.49 LIG 0.07  C 
BRANCH 36 37
ATOM     37  CG  PHE C 305      15.168  10.411   1.928  0.50 35.55 LIG-0.06  A 
ATOM     38  CD1 PHE C 305      14.187  10.315   2.914  0.50 36.28 LIG 0.01  A 
ATOM     39  CE1 PHE C 305      13.968  11.367   3.809  0.50 36.66 LIG 0.00  A 
ATOM     40  CZ  PHE C 305      14.725  12.538   3.713  0.50 36.87 LIG 0.00  A 
ATOM     41  CE2 PHE C 305      15.698  12.649   2.737  0.50 36.76 LIG 0.00  A 
ATOM     42  CD2 PHE C 305      15.911  11.590   1.841  0.50 36.02 LIG 0.01  A 
ENDBRANCH 36 37
ENDBRANCH 35 36
BRANCH 35 43
ATOM     43  N   PHE C 305      16.504   7.900   2.651  0.50 33.54 LIG-0.35  N 
ATOM     44 H    PHE C 305      17.320   7.969   2.387  0.50 33.54 LIG 0.16  HD
ATOM     45  C   ASN C 304      16.129   7.816   3.928  0.50 33.07 LIG 0.24  C 
ATOM     46 O    ASN C 304      15.028   7.371   4.271  0.50 33.39 LIG-0.27  OA
BRANCH 45 47
ATOM     47  CA  ASN C 304      17.140   8.315   4.969  0.50 32.40 LIG 0.18  C 
BRANCH 47 48
ATOM     48  CB  ASN C 304      16.591   8.290   6.404  0.50 32.38 LIG 0.14  C 
BRANCH 48 49
ATOM     49  CG  ASN C 304      15.344   9.191   6.592  0.50 31.77 LIG 0.22  C 
ATOM     50 OD1  ASN C 304      15.351  10.366   6.244  0.50 27.48 LIG-0.27  OA
ATOM     51  ND2 ASN C 304      14.296   8.635   7.187  0.50 32.56 LIG-0.37  N 
ATOM     52 21HD ASN C 304      13.590   9.103   7.340  0.50 32.56 LIG 0.16  HD
ATOM     53 22HD ASN C 304      14.322   7.807   7.419  0.50 32.56 LIG 0.16  HD
ENDBRANCH 48 49
ENDBRANCH 47 48
BRANCH 47 54
ATOM     54  N   ASN C 304      17.562   9.659   4.656  0.50 31.56 LIG-0.34  N 
ATOM     55  C   LEU C 303      18.684  10.149   5.161  0.50 30.83 LIG 0.26  C 
ATOM     56 O    LEU C 303      19.512   9.446   5.724  0.50 29.02 LIG-0.27  OA
ATOM     57 H    ASN C 304      17.034  10.092   4.133  0.50 31.56 LIG 0.16  HD
BRANCH 55 58
ATOM     58  CA  LEU C 303      18.891  11.659   4.991  0.50 30.56 LIG 0.40  C 
ATOM     59  N   LEU C 303      20.058  12.194   5.745  0.50 30.88 LIG 0.61  N 
BRANCH 58 60
ATOM     60  CB  LEU C 303      19.002  12.036   3.508  0.50 30.80 LIG 0.06  C 
BRANCH 60 61
ATOM     61  CG  LEU C 303      19.806  11.107   2.591  0.50 30.92 LIG-0.02  C 
ATOM     62  CD2 LEU C 303      20.776  11.914   1.709  0.50 31.43 LIG 0.01  C 
ATOM     63  CD1 LEU C 303      18.892  10.225   1.758  0.50 30.50 LIG 0.01  C 
ENDBRANCH 60 61
ENDBRANCH 58 60
ENDBRANCH 55 58
ENDBRANCH 47 54
ENDBRANCH 45 47
ENDBRANCH 35 43
ENDBRANCH 1 35
TORSDOF 21
ENDMDL
MODEL 143
USER: ADFR SOLUTION from run 100
USER: SCORE 18.219787 LL:  -6.769 LR: -12.779 RR:   0.000 FEB:  -6.515
USER: RMSD 6.749216
USER: SEED 99
USER: STATUS no improvement in best in 28 clusters for 5 generations
USER: GENES 23
USER: genes 0 Translation |==|  0.56759 0.59873 0.35374
USER: genes 1 Rotation |==|  0.31442 0.67750 0.78137 0.82385
USER: genes 2 Torsion [N]-CA--C-[N] |==|  0.99955
USER: genes 3 Torsion [C]-N--CA-[C] |==|  0.64649
USER: genes 4 Torsion [N]-CA--C-[N] |==|  0.55948
USER: genes 5 Torsion [C]-N--CA-[CB] |==|  0.53889
USER: genes 6 Torsion [N]-CA--C-[N] |==|  0.32828
USER: genes 7 Torsion [N]-CA--C-[OXT] |==|  0.38713
USER: genes 8 Torsion [N]-CA--CB-[OG] |==|  0.90575
USER: genes 9 Torsion [CA]-CB--OG-[HG] |==|  0.94675
USER: genes 10 Torsion [N]-CA--CB-[CG2] |==|  0.66056
USER: genes 11 Torsion [CA]-CB--CG1-[CD1] |==|  0.34492
USER: genes 12 Torsion [N]-C--CA-[N] |==|  0.01693
USER: genes 13 Torsion [C]-CA--CB-[CG] |==|  0.40512
USER: genes 14 Torsion [CA]-CB--CG-[CD1] |==|  0.33487
USER: genes 15 Torsion [C]-CA--N-[C] |==|  0.65856
USER: genes 16 Torsion [N]-C--CA-[N] |==|  0.99361
USER: genes 17 Torsion [C]-CA--CB-[CG] |==|  0.46228
USER: genes 18 Torsion [CA]-CB--CG-[OD1] |==|  0.80300
USER: genes 19 Torsion [C]-CA--N-[C] |==|  0.74790
USER: genes 20 Torsion [N]-C--CA-[N] |==|  0.40130
USER: genes 21 Torsion [C]-CA--CB-[CG] |==|  0.08375
USER: genes 22 Torsion [CA]-CB--CG-[CD2] |==|  0.53409
ROOT
ATOM      1  C   PHE C 305      15.116   9.200  -3.236  0.50 34.66 LIG 0.24  C 
ATOM      2 O    PHE C 305      16.044   9.013  -4.016  0.50 33.80 LIG-0.27  OA
ATOM      3  N   PRO C 306      15.301   9.274  -1.903  0.50 35.29 LIG-0.34  N 
ATOM      4  CA  PRO C 306      16.475   8.654  -1.310  0.50 35.79 LIG 0.18  C 
ATOM      5  CB  PRO C 306      16.780   9.560  -0.094  0.50 35.80 LIG 0.04  C 
ATOM      6  CG  PRO C 306      15.611  10.549  -0.010  0.50 35.25 LIG 0.02  C 
ATOM      7  CD  PRO C 306      14.521   9.994  -0.885  0.50 35.51 LIG 0.13  C 
ENDROOT
BRANCH 4 8
ATOM      8  C   PRO C 306      16.137   7.247  -0.811  0.50 36.50 LIG 0.24  C 
ATOM      9  N   ILE C 307      14.868   6.848  -0.997  0.50 37.01 LIG-0.35  N 
ATOM     10 H    ILE C 307      14.239   7.341  -1.314  0.50 37.01 LIG 0.16  HD
ATOM     11 O    PRO C 306      17.020   6.537  -0.279  0.50 36.74 LIG-0.27  OA
BRANCH 9 12
ATOM     12  CA  ILE C 307      14.475   5.482  -0.651  0.50 37.44 LIG 0.18  C 
BRANCH 12 13
ATOM     13  C   ILE C 307      13.775   4.760  -1.805  0.50 38.23 LIG 0.24  C 
ATOM     14  N   SER C 308      13.017   3.729  -1.442  0.50 38.91 LIG-0.34  N 
ATOM     15 H    SER C 308      13.017   3.407  -0.644  0.50 38.91 LIG 0.16  HD
ATOM     16 O    ILE C 307      13.914   5.134  -2.978  0.50 38.79 LIG-0.27  OA
BRANCH 14 17
ATOM     17  CA  SER C 308      12.109   3.033  -2.349  0.50 39.43 LIG 0.20  C 
BRANCH 17 18
ATOM     18  C   SER C 308      11.345   4.127  -3.099  0.50 39.77 LIG 0.24  C 
ATOM     19  N   PRO C 309      11.493   4.182  -4.435  0.50 40.03 LIG-0.34  N 
ATOM     20  CD  PRO C 309      11.998   3.131  -5.333  0.50 39.83 LIG 0.13  C 
ATOM     21  CA  PRO C 309      11.086   5.381  -5.169  0.50 40.09 LIG 0.19  C 
ATOM     22  CG  PRO C 309      12.300   3.883  -6.592  0.50 40.19 LIG 0.02  C 
ATOM     23  CB  PRO C 309      11.276   4.976  -6.637  0.50 40.09 LIG 0.04  C 
ATOM     24 O    SER C 308      10.614   4.908  -2.484  0.50 39.81 LIG-0.27  OA
BRANCH 21 25
ATOM     25  C   PRO C 309       9.642   5.800  -4.892  0.50 40.04 LIG 0.20  C 
ATOM     26 OXT  PRO C 309       9.330   6.987  -4.753  0.50 40.10 LIG-0.65  OA
ATOM     27 O    PRO C 309       8.750   4.956  -4.788  0.50 40.34 LIG-0.65  OA
ENDBRANCH 21 25
ENDBRANCH 17 18
BRANCH 17 28
ATOM     28  CB  SER C 308      11.140   2.138  -1.573  0.50 39.49 LIG 0.20  C 
BRANCH 28 29
ATOM     29 OG   SER C 308      11.753   1.589  -0.416  0.50 39.70 LIG-0.40  OA
ATOM     30 HG   SER C 308      12.588   1.631  -0.494  0.50 39.70 LIG 0.21  HD
ENDBRANCH 28 29
ENDBRANCH 17 28
ENDBRANCH 14 17
ENDBRANCH 12 13
BRANCH 12 31
ATOM     31  CB  ILE C 307      13.533   5.433   0.577  0.50 37.20 LIG 0.01  C 
ATOM     32  CG2 ILE C 307      14.132   4.563   1.693  0.50 36.86 LIG 0.01  C 
BRANCH 31 33
ATOM     33  CG1 ILE C 307      13.217   6.867   1.038  0.50 35.88 LIG 0.00  C 
ATOM     34  CD1 ILE C 307      11.750   7.216   1.110  0.50 32.01 LIG 0.01  C 
ENDBRANCH 31 33
ENDBRANCH 12 31
ENDBRANCH 9 12
ENDBRANCH 4 8
BRANCH 1 35
ATOM     35  CA  PHE C 305      13.694   9.400  -3.777  0.50 34.47 LIG 0.18  C 
BRANCH 35 36
ATOM     36  CB  PHE C 305      13.764  10.492  -4.856  0.50 34.49 LIG 0.07  C 
BRANCH 36 37
ATOM     37  CG  PHE C 305      12.800  10.312  -6.017  0.50 35.55 LIG-0.06  A 
ATOM     38  CD1 PHE C 305      11.838  11.271  -6.329  0.50 36.28 LIG 0.01  A 
ATOM     39  CE1 PHE C 305      10.964  11.085  -7.405  0.50 36.66 LIG 0.00  A 
ATOM     40  CZ  PHE C 305      11.040   9.921  -8.175  0.50 36.87 LIG 0.00  A 
ATOM     41  CE2 PHE C 305      11.986   8.958  -7.875  0.50 36.76 LIG 0.00  A 
ATOM     42  CD2 PHE C 305      12.858   9.152  -6.791  0.50 36.02 LIG 0.01  A 
ENDBRANCH 36 37
ENDBRANCH 35 36
BRANCH 35 43
ATOM     43  N   PHE C 305      12.700   9.792  -2.771  0.50 33.54 LIG-0.35  N 
ATOM     44 H    PHE C 305      12.889  10.512  -2.340  0.50 33.54 LIG 0.16  HD
ATOM     45  C   ASN C 304      11.603   9.062  -2.573  0.50 33.07 LIG 0.24  C 
ATOM     46 O    ASN C 304      11.515   7.880  -2.928  0.50 33.39 LIG-0.27  OA
BRANCH 45 47
ATOM     47  CA  ASN C 304      10.429   9.769  -1.882  0.50 32.40 LIG 0.18  C 
BRANCH 47 48
ATOM     48  CB  ASN C 304       9.156   9.806  -2.743  0.50 32.38 LIG 0.14  C 
BRANCH 48 49
ATOM     49  CG  ASN C 304       7.893  10.209  -1.941  0.50 31.77 LIG 0.22  C 
ATOM     50 OD1  ASN C 304       7.394   9.451  -1.117  0.50 27.48 LIG-0.27  OA
ATOM     51  ND2 ASN C 304       7.362  11.391  -2.227  0.50 32.56 LIG-0.37  N 
ATOM     52 21HD ASN C 304       6.643  11.647  -1.829  0.50 32.56 LIG 0.16  HD
ATOM     53 22HD ASN C 304       7.736  11.901  -2.809  0.50 32.56 LIG 0.16  HD
ENDBRANCH 48 49
ENDBRANCH 47 48
BRANCH 47 54
ATOM     54  N   ASN C 304      10.791  11.120  -1.531  0.50 31.56 LIG-0.34  N 
ATOM     55  C   LEU C 303      11.323  11.390  -0.348  0.50 30.83 LIG 0.26  C 
ATOM     56 O    LEU C 303      11.726  10.515   0.405  0.50 29.02 LIG-0.27  OA
ATOM     57 H    ASN C 304      10.635  11.707  -2.139  0.50 31.56 LIG 0.16  HD
BRANCH 55 58
ATOM     58  CA  LEU C 303      11.411  12.876   0.022  0.50 30.56 LIG 0.40  C 
ATOM     59  N   LEU C 303      11.192  13.148   1.469  0.50 30.88 LIG 0.61  N 
BRANCH 58 60
ATOM     60  CB  LEU C 303      12.746  13.479  -0.434  0.50 30.80 LIG 0.06  C 
BRANCH 60 61
ATOM     61  CG  LEU C 303      13.410  12.887  -1.682  0.50 30.92 LIG-0.02  C 
ATOM     62  CD2 LEU C 303      14.860  13.388  -1.820  0.50 31.43 LIG 0.01  C 
ATOM     63  CD1 LEU C 303      12.596  13.174  -2.932  0.50 30.50 LIG 0.01  C 
ENDBRANCH 60 61
ENDBRANCH 58 60
ENDBRANCH 55 58
ENDBRANCH 47 54
ENDBRANCH 45 47
ENDBRANCH 35 43
ENDBRANCH 1 35
TORSDOF 21
ENDMDL
MODEL 144
USER: ADFR SOLUTION from run 142
USER: SCORE 16.892079 LL:  -6.148 LR: -12.779 RR:   0.000 FEB:  -6.515
USER: RMSD 5.720789
USER: SEED 141
USER: STATUS no improvement in best in 31 clusters for 5 generations
USER: GENES 23
USER: genes 0 Translation |==|  0.59114 0.50403 0.52625
USER: genes 1 Rotation |==|  0.51733 0.26237 0.46724 0.93836
USER: genes 2 Torsion [N]-CA--C-[N] |==|  0.71256
USER: genes 3 Torsion [C]-N--CA-[C] |==|  0.62669
USER: genes 4 Torsion [N]-CA--C-[N] |==|  0.94188
USER: genes 5 Torsion [C]-N--CA-[CB] |==|  0.22775
USER: genes 6 Torsion [N]-CA--C-[N] |==|  0.47007
USER: genes 7 Torsion [N]-CA--C-[OXT] |==|  0.31305
USER: genes 8 Torsion [N]-CA--CB-[OG] |==|  0.75241
USER: genes 9 Torsion [CA]-CB--OG-[HG] |==|  0.21189
USER: genes 10 Torsion [N]-CA--CB-[CG2] |==|  0.67991
USER: genes 11 Torsion [CA]-CB--CG1-[CD1] |==|  0.40612
USER: genes 12 Torsion [N]-C--CA-[N] |==|  0.37498
USER: genes 13 Torsion [C]-CA--CB-[CG] |==|  0.19218
USER: genes 14 Torsion [CA]-CB--CG-[CD1] |==|  0.10659
USER: genes 15 Torsion [C]-CA--N-[C] |==|  0.83101
USER: genes 16 Torsion [N]-C--CA-[N] |==|  0.05417
USER: genes 17 Torsion [C]-CA--CB-[CG] |==|  0.35946
USER: genes 18 Torsion [CA]-CB--CG-[OD1] |==|  0.06247
USER: genes 19 Torsion [C]-CA--N-[C] |==|  0.57949
USER: genes 20 Torsion [N]-C--CA-[N] |==|  0.43615
USER: genes 21 Torsion [C]-CA--CB-[CG] |==|  0.25815
USER: genes 22 Torsion [CA]-CB--CG-[CD2] |==|  0.04155
ROOT
ATOM      1  C   PHE C 305      15.716   6.928   0.258  0.50 34.66 LIG 0.24  C 
ATOM      2 O    PHE C 305      16.439   5.957   0.463  0.50 33.80 LIG-0.27  OA
ATOM      3  N   PRO C 306      14.503   6.811  -0.318  0.50 35.29 LIG-0.34  N 
ATOM      4  CA  PRO C 306      14.216   5.654  -1.151  0.50 35.79 LIG 0.18  C 
ATOM      5  CB  PRO C 306      12.700   5.432  -0.940  0.50 35.80 LIG 0.04  C 
ATOM      6  CG  PRO C 306      12.217   6.625  -0.108  0.50 35.25 LIG 0.02  C 
ATOM      7  CD  PRO C 306      13.309   7.657  -0.171  0.50 35.51 LIG 0.13  C 
ENDROOT
BRANCH 4 8
ATOM      8  C   PRO C 306      14.471   5.985  -2.623  0.50 36.50 LIG 0.24  C 
ATOM      9  N   ILE C 307      13.379   6.208  -3.373  0.50 37.01 LIG-0.35  N 
ATOM     10 H    ILE C 307      12.569   6.121  -3.099  0.50 37.01 LIG 0.16  HD
ATOM     11 O    PRO C 306      15.642   6.047  -3.062  0.50 36.74 LIG-0.27  OA
BRANCH 9 12
ATOM     12  CA  ILE C 307      13.524   6.635  -4.765  0.50 37.44 LIG 0.18  C 
BRANCH 12 13
ATOM     13  C   ILE C 307      12.594   7.796  -5.125  0.50 38.23 LIG 0.24  C 
ATOM     14  N   SER C 308      11.543   7.940  -4.323  0.50 38.91 LIG-0.34  N 
ATOM     15 H    SER C 308      11.325   7.356  -3.729  0.50 38.91 LIG 0.16  HD
ATOM     16 O    ILE C 307      12.832   8.538  -6.089  0.50 38.79 LIG-0.27  OA
BRANCH 14 17
ATOM     17  CA  SER C 308      10.648   9.093  -4.360  0.50 39.43 LIG 0.20  C 
BRANCH 17 18
ATOM     18  C   SER C 308       9.967   9.140  -2.990  0.50 39.77 LIG 0.24  C 
ATOM     19  N   PRO C 309       9.257  10.241  -2.688  0.50 40.03 LIG-0.34  N 
ATOM     20  CD  PRO C 309       8.736  11.263  -3.610  0.50 39.83 LIG 0.13  C 
ATOM     21  CA  PRO C 309       8.875  10.510  -1.300  0.50 40.09 LIG 0.19  C 
ATOM     22  CG  PRO C 309       8.399  12.399  -2.696  0.50 40.19 LIG 0.02  C 
ATOM     23  CB  PRO C 309       7.972  11.745  -1.417  0.50 40.09 LIG 0.04  C 
ATOM     24 O    SER C 308      10.066   8.185  -2.213  0.50 39.81 LIG-0.27  OA
BRANCH 21 25
ATOM     25  C   PRO C 309       8.139   9.346  -0.637  0.50 40.04 LIG 0.20  C 
ATOM     26 OXT  PRO C 309       8.645   8.707   0.289  0.50 40.10 LIG-0.65  OA
ATOM     27 O    PRO C 309       7.018   9.007  -1.024  0.50 40.34 LIG-0.65  OA
ENDBRANCH 21 25
ENDBRANCH 17 18
BRANCH 17 28
ATOM     28  CB  SER C 308       9.605   8.941  -5.470  0.50 39.49 LIG 0.20  C 
BRANCH 28 29
ATOM     29 OG   SER C 308      10.074   9.477  -6.699  0.50 39.70 LIG-0.40  OA
ATOM     30 HG   SER C 308      10.626   8.946  -7.045  0.50 39.70 LIG 0.21  HD
ENDBRANCH 28 29
ENDBRANCH 17 28
ENDBRANCH 14 17
ENDBRANCH 12 13
BRANCH 12 31
ATOM     31  CB  ILE C 307      13.254   5.485  -5.765  0.50 37.20 LIG 0.01  C 
ATOM     32  CG2 ILE C 307      14.525   5.135  -6.554  0.50 36.86 LIG 0.01  C 
BRANCH 31 33
ATOM     33  CG1 ILE C 307      12.662   4.280  -5.013  0.50 35.88 LIG 0.00  C 
ATOM     34  CD1 ILE C 307      11.658   3.462  -5.788  0.50 32.01 LIG 0.01  C 
ENDBRANCH 31 33
ENDBRANCH 12 31
ENDBRANCH 9 12
ENDBRANCH 4 8
BRANCH 1 35
ATOM     35  CA  PHE C 305      16.173   8.324   0.698  0.50 34.47 LIG 0.18  C 
BRANCH 35 36
ATOM     36  CB  PHE C 305      17.199   8.817  -0.333  0.50 34.49 LIG 0.07  C 
BRANCH 36 37
ATOM     37  CG  PHE C 305      16.631   9.134  -1.707  0.50 35.55 LIG-0.06  A 
ATOM     38  CD1 PHE C 305      15.387   9.743  -1.865  0.50 36.28 LIG 0.01  A 
ATOM     39  CE1 PHE C 305      14.887  10.028  -3.139  0.50 36.66 LIG 0.00  A 
ATOM     40  CZ  PHE C 305      15.628   9.690  -4.275  0.50 36.87 LIG 0.00  A 
ATOM     41  CE2 PHE C 305      16.862   9.080  -4.134  0.50 36.76 LIG 0.00  A 
ATOM     42  CD2 PHE C 305      17.356   8.796  -2.851  0.50 36.02 LIG 0.01  A 
ENDBRANCH 36 37
ENDBRANCH 35 36
BRANCH 35 43
ATOM     43  N   PHE C 305      16.779   8.383   2.033  0.50 33.54 LIG-0.35  N 
ATOM     44 H    PHE C 305      17.594   8.658   2.047  0.50 33.54 LIG 0.16  HD
ATOM     45  C   ASN C 304      16.086   8.028   3.115  0.50 33.07 LIG 0.24  C 
ATOM     46 O    ASN C 304      15.074   7.319   3.056  0.50 33.39 LIG-0.27  OA
BRANCH 45 47
ATOM     47  CA  ASN C 304      16.602   8.559   4.460  0.50 32.40 LIG 0.18  C 
BRANCH 47 48
ATOM     48  CB  ASN C 304      15.474   8.961   5.423  0.50 32.38 LIG 0.14  C 
BRANCH 48 49
ATOM     49  CG  ASN C 304      15.629   8.336   6.833  0.50 31.77 LIG 0.22  C 
ATOM     50 OD1  ASN C 304      16.719   7.956   7.243  0.50 27.48 LIG-0.27  OA
ATOM     51  ND2 ASN C 304      14.517   8.195   7.544  0.50 32.56 LIG-0.37  N 
ATOM     52 21HD ASN C 304      14.547   7.826   8.321  0.50 32.56 LIG 0.16  HD
ATOM     53 22HD ASN C 304      13.767   8.472   7.228  0.50 32.56 LIG 0.16  HD
ENDBRANCH 48 49
ENDBRANCH 47 48
BRANCH 47 54
ATOM     54  N   ASN C 304      17.465   9.697   4.254  0.50 31.56 LIG-0.34  N 
ATOM     55  C   LEU C 303      18.436   9.971   5.112  0.50 30.83 LIG 0.26  C 
ATOM     56 O    LEU C 303      18.787   9.184   5.979  0.50 29.02 LIG-0.27  OA
ATOM     57 H    ASN C 304      17.293  10.159   3.549  0.50 31.56 LIG 0.16  HD
BRANCH 55 58
ATOM     58  CA  LEU C 303      19.104  11.342   4.949  0.50 30.56 LIG 0.40  C 
ATOM     59  N   LEU C 303      19.767  11.838   6.186  0.50 30.88 LIG 0.61  N 
BRANCH 58 60
ATOM     60  CB  LEU C 303      20.099  11.335   3.782  0.50 30.80 LIG 0.06  C 
BRANCH 60 61
ATOM     61  CG  LEU C 303      19.591  11.780   2.405  0.50 30.92 LIG-0.02  C 
ATOM     62  CD2 LEU C 303      18.240  12.509   2.529  0.50 31.43 LIG 0.01  C 
ATOM     63  CD1 LEU C 303      19.510  10.610   1.440  0.50 30.50 LIG 0.01  C 
ENDBRANCH 60 61
ENDBRANCH 58 60
ENDBRANCH 55 58
ENDBRANCH 47 54
ENDBRANCH 45 47
ENDBRANCH 35 43
ENDBRANCH 1 35
TORSDOF 21
ENDMDL
MODEL 145
USER: ADFR SOLUTION from run 52
USER: SCORE 17.348511 LL:  -6.131 LR: -12.778 RR:   0.000 FEB:  -6.514
USER: RMSD 8.645059
USER: SEED 51
USER: STATUS no improvement in best in 54 clusters for 5 generations
USER: GENES 23
USER: genes 0 Translation |==|  0.29024 0.66467 0.43926
USER: genes 1 Rotation |==|  0.39872 0.19989 0.24619 0.79199
USER: genes 2 Torsion [N]-CA--C-[N] |==|  0.90290
USER: genes 3 Torsion [C]-N--CA-[C] |==|  0.81732
USER: genes 4 Torsion [N]-CA--C-[N] |==|  0.43494
USER: genes 5 Torsion [C]-N--CA-[CB] |==|  0.85000
USER: genes 6 Torsion [N]-CA--C-[N] |==|  0.48933
USER: genes 7 Torsion [N]-CA--C-[OXT] |==|  0.77646
USER: genes 8 Torsion [N]-CA--CB-[OG] |==|  0.72412
USER: genes 9 Torsion [CA]-CB--OG-[HG] |==|  0.13281
USER: genes 10 Torsion [N]-CA--CB-[CG2] |==|  0.85543
USER: genes 11 Torsion [CA]-CB--CG1-[CD1] |==|  0.78291
USER: genes 12 Torsion [N]-C--CA-[N] |==|  0.23345
USER: genes 13 Torsion [C]-CA--CB-[CG] |==|  0.21710
USER: genes 14 Torsion [CA]-CB--CG-[CD1] |==|  0.69247
USER: genes 15 Torsion [C]-CA--N-[C] |==|  0.62134
USER: genes 16 Torsion [N]-C--CA-[N] |==|  0.24688
USER: genes 17 Torsion [C]-CA--CB-[CG] |==|  0.75686
USER: genes 18 Torsion [CA]-CB--CG-[OD1] |==|  0.65221
USER: genes 19 Torsion [C]-CA--N-[C] |==|  0.76364
USER: genes 20 Torsion [N]-C--CA-[N] |==|  0.73851
USER: genes 21 Torsion [C]-CA--CB-[CG] |==|  0.45053
USER: genes 22 Torsion [CA]-CB--CG-[CD2] |==|  0.83654
ROOT
ATOM      1  C   PHE C 305       8.043  10.783  -1.504  0.50 34.66 LIG 0.24  C 
ATOM      2 O    PHE C 305       7.391   9.766  -1.290  0.50 33.80 LIG-0.27  OA
ATOM      3  N   PRO C 306       7.719  11.651  -2.482  0.50 35.29 LIG-0.34  N 
ATOM      4  CA  PRO C 306       6.924  11.193  -3.610  0.50 35.79 LIG 0.18  C 
ATOM      5  CB  PRO C 306       6.115  12.450  -4.008  0.50 35.80 LIG 0.04  C 
ATOM      6  CG  PRO C 306       6.669  13.591  -3.146  0.50 35.25 LIG 0.02  C 
ATOM      7  CD  PRO C 306       7.969  13.098  -2.574  0.50 35.51 LIG 0.13  C 
ENDROOT
BRANCH 4 8
ATOM      8  C   PRO C 306       7.834  10.796  -4.774  0.50 36.50 LIG 0.24  C 
ATOM      9  N   ILE C 307       8.950  11.529  -4.923  0.50 37.01 LIG-0.35  N 
ATOM     10 H    ILE C 307       9.148  12.223  -4.456  0.50 37.01 LIG 0.16  HD
ATOM     11 O    PRO C 306       7.529   9.833  -5.512  0.50 36.74 LIG-0.27  OA
BRANCH 9 12
ATOM     12  CA  ILE C 307       9.935  11.160  -5.941  0.50 37.44 LIG 0.18  C 
BRANCH 12 13
ATOM     13  C   ILE C 307      10.604   9.814  -5.651  0.50 38.23 LIG 0.24  C 
ATOM     14  N   SER C 308      11.111   9.201  -6.717  0.50 38.91 LIG-0.34  N 
ATOM     15 H    SER C 308      10.966   9.467  -7.522  0.50 38.91 LIG 0.16  HD
ATOM     16 O    ILE C 307      10.664   9.358  -4.500  0.50 38.79 LIG-0.27  OA
BRANCH 14 17
ATOM     17  CA  SER C 308      11.964   8.018  -6.641  0.50 39.43 LIG 0.20  C 
BRANCH 17 18
ATOM     18  C   SER C 308      11.080   6.899  -6.085  0.50 39.77 LIG 0.24  C 
ATOM     19  N   PRO C 309      11.619   5.671  -5.993  0.50 40.03 LIG-0.34  N 
ATOM     20  CD  PRO C 309      13.045   5.304  -6.013  0.50 39.83 LIG 0.13  C 
ATOM     21  CA  PRO C 309      10.756   4.503  -5.805  0.50 40.09 LIG 0.19  C 
ATOM     22  CG  PRO C 309      13.008   3.831  -6.274  0.50 40.19 LIG 0.02  C 
ATOM     23  CB  PRO C 309      11.756   3.356  -5.603  0.50 40.09 LIG 0.04  C 
ATOM     24 O    SER C 308       9.924   7.141  -5.725  0.50 39.81 LIG-0.27  OA
BRANCH 21 25
ATOM     25  C   PRO C 309       9.812   4.633  -4.611  0.50 40.04 LIG 0.20  C 
ATOM     26 OXT  PRO C 309      10.196   4.414  -3.458  0.50 40.10 LIG-0.65  OA
ATOM     27 O    PRO C 309       8.631   4.950  -4.773  0.50 40.34 LIG-0.65  OA
ENDBRANCH 21 25
ENDBRANCH 17 18
BRANCH 17 28
ATOM     28  CB  SER C 308      13.160   8.263  -5.719  0.50 39.49 LIG 0.20  C 
BRANCH 28 29
ATOM     29 OG   SER C 308      14.330   8.582  -6.459  0.50 39.70 LIG-0.40  OA
ATOM     30 HG   SER C 308      14.148   9.170  -7.031  0.50 39.70 LIG 0.21  HD
ENDBRANCH 28 29
ENDBRANCH 17 28
ENDBRANCH 14 17
ENDBRANCH 12 13
BRANCH 12 31
ATOM     31  CB  ILE C 307      11.051  12.221  -6.093  0.50 37.20 LIG 0.01  C 
ATOM     32  CG2 ILE C 307      10.453  13.619  -6.305  0.50 36.86 LIG 0.01  C 
BRANCH 31 33
ATOM     33  CG1 ILE C 307      11.995  12.149  -4.879  0.50 35.88 LIG 0.00  C 
ATOM     34  CD1 ILE C 307      11.480  12.801  -3.619  0.50 32.01 LIG 0.01  C 
ENDBRANCH 31 33
ENDBRANCH 12 31
ENDBRANCH 9 12
ENDBRANCH 4 8
BRANCH 1 35
ATOM     35  CA  PHE C 305       9.248  11.116  -0.615  0.50 34.47 LIG 0.18  C 
BRANCH 35 36
ATOM     36  CB  PHE C 305       9.789   9.789  -0.061  0.50 34.49 LIG 0.07  C 
BRANCH 36 37
ATOM     37  CG  PHE C 305      10.631   8.981  -1.035  0.50 35.55 LIG-0.06  A 
ATOM     38  CD1 PHE C 305      10.182   7.774  -1.570  0.50 36.28 LIG 0.01  A 
ATOM     39  CE1 PHE C 305      10.973   7.050  -2.467  0.50 36.66 LIG 0.00  A 
ATOM     40  CZ  PHE C 305      12.237   7.525  -2.827  0.50 36.87 LIG 0.00  A 
ATOM     41  CE2 PHE C 305      12.699   8.719  -2.301  0.50 36.76 LIG 0.00  A 
ATOM     42  CD2 PHE C 305      11.899   9.438  -1.400  0.50 36.02 LIG 0.01  A 
ENDBRANCH 36 37
ENDBRANCH 35 36
BRANCH 35 43
ATOM     43  N   PHE C 305       8.957  12.013   0.509  0.50 33.54 LIG-0.35  N 
ATOM     44 H    PHE C 305       8.233  11.832   0.936  0.50 33.54 LIG 0.16  HD
ATOM     45  C   ASN C 304       9.778  13.019   0.811  0.50 33.07 LIG 0.24  C 
ATOM     46 O    ASN C 304      10.596  13.478   0.005  0.50 33.39 LIG-0.27  OA
BRANCH 45 47
ATOM     47  CA  ASN C 304       9.667  13.586   2.234  0.50 32.40 LIG 0.18  C 
BRANCH 47 48
ATOM     48  CB  ASN C 304       9.998  15.084   2.314  0.50 32.38 LIG 0.14  C 
BRANCH 48 49
ATOM     49  CG  ASN C 304      11.509  15.362   2.518  0.50 31.77 LIG 0.22  C 
ATOM     50 OD1  ASN C 304      11.909  16.048   3.451  0.50 27.48 LIG-0.27  OA
ATOM     51  ND2 ASN C 304      12.332  14.857   1.607  0.50 32.56 LIG-0.37  N 
ATOM     52 21HD ASN C 304      13.177  15.009   1.660  0.50 32.56 LIG 0.16  HD
ATOM     53 22HD ASN C 304      12.021  14.378   0.964  0.50 32.56 LIG 0.16  HD
ENDBRANCH 48 49
ENDBRANCH 47 48
BRANCH 47 54
ATOM     54  N   ASN C 304      10.541  12.868   3.130  0.50 31.56 LIG-0.34  N 
ATOM     55  C   LEU C 303      10.143  11.742   3.703  0.50 30.83 LIG 0.26  C 
ATOM     56 O    LEU C 303       9.133  11.149   3.351  0.50 29.02 LIG-0.27  OA
ATOM     57 H    ASN C 304      11.313  13.229   3.250  0.50 31.56 LIG 0.16  HD
BRANCH 55 58
ATOM     58  CA  LEU C 303      11.033  11.218   4.837  0.50 30.56 LIG 0.40  C 
ATOM     59  N   LEU C 303      12.047  10.222   4.393  0.50 30.88 LIG 0.61  N 
BRANCH 58 60
ATOM     60  CB  LEU C 303      11.716  12.372   5.580  0.50 30.80 LIG 0.06  C 
BRANCH 60 61
ATOM     61  CG  LEU C 303      12.295  12.086   6.971  0.50 30.92 LIG-0.02  C 
ATOM     62  CD2 LEU C 303      11.198  11.583   7.927  0.50 31.43 LIG 0.01  C 
ATOM     63  CD1 LEU C 303      13.016  13.299   7.531  0.50 30.50 LIG 0.01  C 
ENDBRANCH 60 61
ENDBRANCH 58 60
ENDBRANCH 55 58
ENDBRANCH 47 54
ENDBRANCH 45 47
ENDBRANCH 35 43
ENDBRANCH 1 35
TORSDOF 21
ENDMDL
MODEL 146
USER: ADFR SOLUTION from run 147
USER: SCORE 19.186331 LL:  -7.321 LR: -12.779 RR:   0.000 FEB:  -6.514
USER: RMSD 10.780815
USER: SEED 146
USER: STATUS no improvement in best in 7 clusters for 5 generations
USER: GENES 23
USER: genes 0 Translation |==|  0.52910 0.44992 0.35412
USER: genes 1 Rotation |==|  0.77228 0.20997 0.55643 0.79759
USER: genes 2 Torsion [N]-CA--C-[N] |==|  0.01819
USER: genes 3 Torsion [C]-N--CA-[C] |==|  0.76111
USER: genes 4 Torsion [N]-CA--C-[N] |==|  0.91569
USER: genes 5 Torsion [C]-N--CA-[CB] |==|  0.17355
USER: genes 6 Torsion [N]-CA--C-[N] |==|  0.84250
USER: genes 7 Torsion [N]-CA--C-[OXT] |==|  0.92084
USER: genes 8 Torsion [N]-CA--CB-[OG] |==|  0.77541
USER: genes 9 Torsion [CA]-CB--OG-[HG] |==|  0.94169
USER: genes 10 Torsion [N]-CA--CB-[CG2] |==|  0.32138
USER: genes 11 Torsion [CA]-CB--CG1-[CD1] |==|  0.12751
USER: genes 12 Torsion [N]-C--CA-[N] |==|  0.02738
USER: genes 13 Torsion [C]-CA--CB-[CG] |==|  0.39952
USER: genes 14 Torsion [CA]-CB--CG-[CD1] |==|  0.11566
USER: genes 15 Torsion [C]-CA--N-[C] |==|  0.68530
USER: genes 16 Torsion [N]-C--CA-[N] |==|  0.98722
USER: genes 17 Torsion [C]-CA--CB-[CG] |==|  0.27464
USER: genes 18 Torsion [CA]-CB--CG-[OD1] |==|  0.31941
USER: genes 19 Torsion [C]-CA--N-[C] |==|  0.75586
USER: genes 20 Torsion [N]-C--CA-[N] |==|  0.43910
USER: genes 21 Torsion [C]-CA--CB-[CG] |==|  0.90611
USER: genes 22 Torsion [CA]-CB--CG-[CD2] |==|  0.72860
ROOT
ATOM      1  C   PHE C 305      14.134   5.629  -3.228  0.50 34.66 LIG 0.24  C 
ATOM      2 O    PHE C 305      15.298   5.331  -2.976  0.50 33.80 LIG-0.27  OA
ATOM      3  N   PRO C 306      13.619   5.527  -4.469  0.50 35.29 LIG-0.34  N 
ATOM      4  CA  PRO C 306      14.511   5.547  -5.617  0.50 35.79 LIG 0.18  C 
ATOM      5  CB  PRO C 306      13.784   4.650  -6.647  0.50 35.80 LIG 0.04  C 
ATOM      6  CG  PRO C 306      12.420   4.328  -6.028  0.50 35.25 LIG 0.02  C 
ATOM      7  CD  PRO C 306      12.229   5.295  -4.892  0.50 35.51 LIG 0.13  C 
ENDROOT
BRANCH 4 8
ATOM      8  C   PRO C 306      14.619   6.966  -6.180  0.50 36.50 LIG 0.24  C 
ATOM      9  N   ILE C 307      14.014   7.928  -5.465  0.50 37.01 LIG-0.35  N 
ATOM     10 H    ILE C 307      13.533   7.792  -4.765  0.50 37.01 LIG 0.16  HD
ATOM     11 O    PRO C 306      15.253   7.178  -7.239  0.50 36.74 LIG-0.27  OA
BRANCH 9 12
ATOM     12  CA  ILE C 307      14.151   9.329  -5.865  0.50 37.44 LIG 0.18  C 
BRANCH 12 13
ATOM     13  C   ILE C 307      15.409   9.985  -5.292  0.50 38.23 LIG 0.24  C 
ATOM     14  N   SER C 308      15.806   9.502  -4.118  0.50 38.91 LIG-0.34  N 
ATOM     15 H    SER C 308      15.329   8.958  -3.651  0.50 38.91 LIG 0.16  HD
ATOM     16 O    ILE C 307      16.000  10.888  -5.901  0.50 38.79 LIG-0.27  OA
BRANCH 14 17
ATOM     17  CA  SER C 308      17.083   9.837  -3.494  0.50 39.43 LIG 0.20  C 
BRANCH 17 18
ATOM     18  C   SER C 308      17.146   9.019  -2.202  0.50 39.77 LIG 0.24  C 
ATOM     19  N   PRO C 309      16.146   9.178  -1.318  0.50 40.03 LIG-0.34  N 
ATOM     20  CD  PRO C 309      14.813   9.755  -1.553  0.50 39.83 LIG 0.13  C 
ATOM     21  CA  PRO C 309      16.304   8.709   0.061  0.50 40.09 LIG 0.19  C 
ATOM     22  CG  PRO C 309      14.315  10.026  -0.168  0.50 40.19 LIG 0.02  C 
ATOM     23  CB  PRO C 309      14.916   8.941   0.672  0.50 40.09 LIG 0.04  C 
ATOM     24 O    SER C 308      18.080   8.235  -2.007  0.50 39.81 LIG-0.27  OA
BRANCH 21 25
ATOM     25  C   PRO C 309      16.715   7.241   0.158  0.50 40.04 LIG 0.20  C 
ATOM     26 OXT  PRO C 309      16.404   6.425  -0.714  0.50 40.10 LIG-0.65  OA
ATOM     27 O    PRO C 309      17.362   6.830   1.124  0.50 40.34 LIG-0.65  OA
ENDBRANCH 21 25
ENDBRANCH 17 18
BRANCH 17 28
ATOM     28  CB  SER C 308      17.165  11.334  -3.185  0.50 39.49 LIG 0.20  C 
BRANCH 28 29
ATOM     29 OG   SER C 308      17.519  12.083  -4.338  0.50 39.70 LIG-0.40  OA
ATOM     30 HG   SER C 308      17.893  11.580  -4.896  0.50 39.70 LIG 0.21  HD
ENDBRANCH 28 29
ENDBRANCH 17 28
ENDBRANCH 14 17
ENDBRANCH 12 13
BRANCH 12 31
ATOM     31  CB  ILE C 307      12.934  10.186  -5.437  0.50 37.20 LIG 0.01  C 
ATOM     32  CG2 ILE C 307      13.350  11.256  -4.416  0.50 36.86 LIG 0.01  C 
BRANCH 31 33
ATOM     33  CG1 ILE C 307      12.259  10.778  -6.687  0.50 35.88 LIG 0.00  C 
ATOM     34  CD1 ILE C 307      12.042   9.811  -7.825  0.50 32.01 LIG 0.01  C 
ENDBRANCH 31 33
ENDBRANCH 12 31
ENDBRANCH 9 12
ENDBRANCH 4 8
BRANCH 1 35
ATOM     35  CA  PHE C 305      13.207   6.099  -2.099  0.50 34.47 LIG 0.18  C 
BRANCH 35 36
ATOM     36  CB  PHE C 305      13.372   5.113  -0.932  0.50 34.49 LIG 0.07  C 
BRANCH 36 37
ATOM     37  CG  PHE C 305      13.300   5.737   0.452  0.50 35.55 LIG-0.06  A 
ATOM     38  CD1 PHE C 305      12.362   6.720   0.768  0.50 36.28 LIG 0.01  A 
ATOM     39  CE1 PHE C 305      12.313   7.276   2.049  0.50 36.66 LIG 0.00  A 
ATOM     40  CZ  PHE C 305      13.219   6.860   3.029  0.50 36.87 LIG 0.00  A 
ATOM     41  CE2 PHE C 305      14.158   5.890   2.729  0.50 36.76 LIG 0.00  A 
ATOM     42  CD2 PHE C 305      14.202   5.338   1.440  0.50 36.02 LIG 0.01  A 
ENDBRANCH 36 37
ENDBRANCH 35 36
BRANCH 35 43
ATOM     43  N   PHE C 305      11.786   6.172  -2.458  0.50 33.54 LIG-0.35  N 
ATOM     44 H    PHE C 305      11.416   5.413  -2.621  0.50 33.54 LIG 0.16  HD
ATOM     45  C   ASN C 304      11.155   7.345  -2.515  0.50 33.07 LIG 0.24  C 
ATOM     46 O    ASN C 304      11.756   8.421  -2.629  0.50 33.39 LIG-0.27  OA
BRANCH 45 47
ATOM     47  CA  ASN C 304       9.624   7.301  -2.422  0.50 32.40 LIG 0.18  C 
BRANCH 47 48
ATOM     48  CB  ASN C 304       9.073   8.036  -1.190  0.50 32.38 LIG 0.14  C 
BRANCH 48 49
ATOM     49  CG  ASN C 304       8.571   9.466  -1.511  0.50 31.77 LIG 0.22  C 
ATOM     50 OD1  ASN C 304       7.387   9.764  -1.399  0.50 27.48 LIG-0.27  OA
ATOM     51  ND2 ASN C 304       9.478  10.328  -1.952  0.50 32.56 LIG-0.37  N 
ATOM     52 21HD ASN C 304       9.243  11.126  -2.172  0.50 32.56 LIG 0.16  HD
ATOM     53 22HD ASN C 304      10.302  10.089  -2.019  0.50 32.56 LIG 0.16  HD
ENDBRANCH 48 49
ENDBRANCH 47 48
BRANCH 47 54
ATOM     54  N   ASN C 304       9.161   5.935  -2.393  0.50 31.56 LIG-0.34  N 
ATOM     55  C   LEU C 303       8.914   5.283  -3.519  0.50 30.83 LIG 0.26  C 
ATOM     56 O    LEU C 303       9.259   5.708  -4.613  0.50 29.02 LIG-0.27  OA
ATOM     57 H    ASN C 304       9.065   5.601  -1.606  0.50 31.56 LIG 0.16  HD
BRANCH 55 58
ATOM     58  CA  LEU C 303       8.171   3.949  -3.370  0.50 30.56 LIG 0.40  C 
ATOM     59  N   LEU C 303       7.471   3.511  -4.608  0.50 30.88 LIG 0.61  N 
BRANCH 58 60
ATOM     60  CB  LEU C 303       9.114   2.845  -2.877  0.50 30.80 LIG 0.06  C 
BRANCH 60 61
ATOM     61  CG  LEU C 303      10.576   2.892  -3.338  0.50 30.92 LIG-0.02  C 
ATOM     62  CD2 LEU C 303      10.801   1.956  -4.540  0.50 31.43 LIG 0.01  C 
ATOM     63  CD1 LEU C 303      11.527   2.580  -2.196  0.50 30.50 LIG 0.01  C 
ENDBRANCH 60 61
ENDBRANCH 58 60
ENDBRANCH 55 58
ENDBRANCH 47 54
ENDBRANCH 45 47
ENDBRANCH 35 43
ENDBRANCH 1 35
TORSDOF 21
ENDMDL
MODEL 147
USER: ADFR SOLUTION from run 191
USER: SCORE 17.380644 LL:  -5.573 LR: -12.755 RR:   0.000 FEB:  -6.491
USER: RMSD 8.444537
USER: SEED 190
USER: STATUS no improvement in best in 24 clusters for 5 generations
USER: GENES 23
USER: genes 0 Translation |==|  0.43424 0.51205 0.22079
USER: genes 1 Rotation |==|  0.57868 0.79381 0.75585 0.80336
USER: genes 2 Torsion [N]-CA--C-[N] |==|  0.07419
USER: genes 3 Torsion [C]-N--CA-[C] |==|  0.56866
USER: genes 4 Torsion [N]-CA--C-[N] |==|  0.41578
USER: genes 5 Torsion [C]-N--CA-[CB] |==|  0.12371
USER: genes 6 Torsion [N]-CA--C-[N] |==|  0.15982
USER: genes 7 Torsion [N]-CA--C-[OXT] |==|  0.86090
USER: genes 8 Torsion [N]-CA--CB-[OG] |==|  0.66074
USER: genes 9 Torsion [CA]-CB--OG-[HG] |==|  0.19886
USER: genes 10 Torsion [N]-CA--CB-[CG2] |==|  0.97748
USER: genes 11 Torsion [CA]-CB--CG1-[CD1] |==|  0.43329
USER: genes 12 Torsion [N]-C--CA-[N] |==|  0.44888
USER: genes 13 Torsion [C]-CA--CB-[CG] |==|  0.37332
USER: genes 14 Torsion [CA]-CB--CG-[CD1] |==|  0.56803
USER: genes 15 Torsion [C]-CA--N-[C] |==|  0.84444
USER: genes 16 Torsion [N]-C--CA-[N] |==|  0.12606
USER: genes 17 Torsion [C]-CA--CB-[CG] |==|  0.50510
USER: genes 18 Torsion [CA]-CB--CG-[OD1] |==|  0.20746
USER: genes 19 Torsion [C]-CA--N-[C] |==|  0.16542
USER: genes 20 Torsion [N]-C--CA-[N] |==|  0.59633
USER: genes 21 Torsion [C]-CA--CB-[CG] |==|  0.29423
USER: genes 22 Torsion [CA]-CB--CG-[CD2] |==|  0.03725
ROOT
ATOM      1  C   PHE C 305      11.715   7.120  -5.928  0.50 34.66 LIG 0.24  C 
ATOM      2 O    PHE C 305      11.513   7.111  -7.139  0.50 33.80 LIG-0.27  OA
ATOM      3  N   PRO C 306      12.692   6.388  -5.357  0.50 35.29 LIG-0.34  N 
ATOM      4  CA  PRO C 306      13.202   5.214  -6.047  0.50 35.79 LIG 0.18  C 
ATOM      5  CB  PRO C 306      14.682   5.155  -5.602  0.50 35.80 LIG 0.04  C 
ATOM      6  CG  PRO C 306      14.838   6.242  -4.533  0.50 35.25 LIG 0.02  C 
ATOM      7  CD  PRO C 306      13.447   6.633  -4.119  0.50 35.51 LIG 0.13  C 
ENDROOT
BRANCH 4 8
ATOM      8  C   PRO C 306      12.482   3.956  -5.555  0.50 36.50 LIG 0.24  C 
ATOM      9  N   ILE C 307      11.239   4.140  -5.078  0.50 37.01 LIG-0.35  N 
ATOM     10 H    ILE C 307      10.859   4.904  -4.980  0.50 37.01 LIG 0.16  HD
ATOM     11 O    PRO C 306      13.046   2.841  -5.620  0.50 36.74 LIG-0.27  OA
BRANCH 9 12
ATOM     12  CA  ILE C 307      10.432   2.985  -4.683  0.50 37.44 LIG 0.18  C 
BRANCH 12 13
ATOM     13  C   ILE C 307       8.929   3.268  -4.747  0.50 38.23 LIG 0.24  C 
ATOM     14  N   SER C 308       8.173   2.210  -5.026  0.50 38.91 LIG-0.34  N 
ATOM     15 H    SER C 308       8.499   1.456  -5.279  0.50 38.91 LIG 0.16  HD
ATOM     16 O    ILE C 307       8.478   4.404  -4.541  0.50 38.79 LIG-0.27  OA
BRANCH 14 17
ATOM     17  CA  SER C 308       6.715   2.211  -4.936  0.50 39.43 LIG 0.20  C 
BRANCH 17 18
ATOM     18  C   SER C 308       6.247   0.972  -5.702  0.50 39.77 LIG 0.24  C 
ATOM     19  N   PRO C 309       6.718  -0.222  -5.298  0.50 40.03 LIG-0.34  N 
ATOM     20  CD  PRO C 309       7.340  -0.559  -4.008  0.50 39.83 LIG 0.13  C 
ATOM     21  CA  PRO C 309       6.599  -1.391  -6.171  0.50 40.09 LIG 0.19  C 
ATOM     22  CG  PRO C 309       7.998  -1.874  -4.286  0.50 40.19 LIG 0.02  C 
ATOM     23  CB  PRO C 309       7.107  -2.540  -5.291  0.50 40.09 LIG 0.04  C 
ATOM     24 O    SER C 308       5.454   1.084  -6.641  0.50 39.81 LIG-0.27  OA
BRANCH 21 25
ATOM     25  C   PRO C 309       5.170  -1.648  -6.649  0.50 40.04 LIG 0.20  C 
ATOM     26 OXT  PRO C 309       4.223  -1.686  -5.859  0.50 40.10 LIG-0.65  OA
ATOM     27 O    PRO C 309       4.930  -1.838  -7.843  0.50 40.34 LIG-0.65  OA
ENDBRANCH 21 25
ENDBRANCH 17 18
BRANCH 17 28
ATOM     28  CB  SER C 308       6.129   3.480  -5.560  0.50 39.49 LIG 0.20  C 
BRANCH 28 29
ATOM     29 OG   SER C 308       5.343   4.203  -4.625  0.50 39.70 LIG-0.40  OA
ATOM     30 HG   SER C 308       5.845   4.559  -4.053  0.50 39.70 LIG 0.21  HD
ENDBRANCH 28 29
ENDBRANCH 17 28
ENDBRANCH 14 17
ENDBRANCH 12 13
BRANCH 12 31
ATOM     31  CB  ILE C 307      10.761   2.499  -3.251  0.50 37.20 LIG 0.01  C 
ATOM     32  CG2 ILE C 307      11.991   3.231  -2.693  0.50 36.86 LIG 0.01  C 
BRANCH 31 33
ATOM     33  CG1 ILE C 307       9.516   2.650  -2.359  0.50 35.88 LIG 0.00  C 
ATOM     34  CD1 ILE C 307       9.467   1.742  -1.154  0.50 32.01 LIG 0.01  C 
ENDBRANCH 31 33
ENDBRANCH 12 31
ENDBRANCH 9 12
ENDBRANCH 4 8
BRANCH 1 35
ATOM     35  CA  PHE C 305      10.864   8.018  -5.021  0.50 34.47 LIG 0.18  C 
BRANCH 35 36
ATOM     36  CB  PHE C 305       9.857   7.112  -4.295  0.50 34.49 LIG 0.07  C 
BRANCH 36 37
ATOM     37  CG  PHE C 305       9.716   7.371  -2.804  0.50 35.55 LIG-0.06  A 
ATOM     38  CD1 PHE C 305       9.272   6.384  -1.925  0.50 36.28 LIG 0.01  A 
ATOM     39  CE1 PHE C 305       9.154   6.645  -0.557  0.50 36.66 LIG 0.00  A 
ATOM     40  CZ  PHE C 305       9.470   7.911  -0.055  0.50 36.87 LIG 0.00  A 
ATOM     41  CE2 PHE C 305       9.907   8.902  -0.916  0.50 36.76 LIG 0.00  A 
ATOM     42  CD2 PHE C 305      10.021   8.632  -2.289  0.50 36.02 LIG 0.01  A 
ENDBRANCH 36 37
ENDBRANCH 35 36
BRANCH 35 43
ATOM     43  N   PHE C 305      10.128   9.079  -5.718  0.50 33.54 LIG-0.35  N 
ATOM     44 H    PHE C 305       9.278   9.074  -5.585  0.50 33.54 LIG 0.16  HD
ATOM     45  C   ASN C 304      10.765   9.961  -6.488  0.50 33.07 LIG 0.24  C 
ATOM     46 O    ASN C 304      11.895   9.752  -6.946  0.50 33.39 LIG-0.27  OA
BRANCH 45 47
ATOM     47  CA  ASN C 304      10.025  11.274  -6.776  0.50 32.40 LIG 0.18  C 
BRANCH 47 48
ATOM     48  CB  ASN C 304      10.926  12.349  -7.404  0.50 32.38 LIG 0.14  C 
BRANCH 48 49
ATOM     49  CG  ASN C 304      10.189  13.689  -7.652  0.50 31.77 LIG 0.22  C 
ATOM     50 OD1  ASN C 304       9.918  14.447  -6.727  0.50 27.48 LIG-0.27  OA
ATOM     51  ND2 ASN C 304       9.830  13.945  -8.904  0.50 32.56 LIG-0.37  N 
ATOM     52 21HD ASN C 304       9.392  14.663  -9.088  0.50 32.56 LIG 0.16  HD
ATOM     53 22HD ASN C 304      10.035  13.394  -9.531  0.50 32.56 LIG 0.16  HD
ENDBRANCH 48 49
ENDBRANCH 47 48
BRANCH 47 54
ATOM     54  N   ASN C 304       9.447  11.802  -5.565  0.50 31.56 LIG-0.34  N 
ATOM     55  C   LEU C 303      10.213  12.103  -4.527  0.50 30.83 LIG 0.26  C 
ATOM     56 O    LEU C 303      11.432  12.157  -4.605  0.50 29.02 LIG-0.27  OA
ATOM     57 H    ASN C 304       8.592  11.897  -5.583  0.50 31.56 LIG 0.16  HD
BRANCH 55 58
ATOM     58  CA  LEU C 303       9.476  12.390  -3.212  0.50 30.56 LIG 0.40  C 
ATOM     59  N   LEU C 303      10.125  13.434  -2.375  0.50 30.88 LIG 0.61  N 
BRANCH 58 60
ATOM     60  CB  LEU C 303       8.009  12.756  -3.472  0.50 30.80 LIG 0.06  C 
BRANCH 60 61
ATOM     61  CG  LEU C 303       6.940  11.709  -3.138  0.50 30.92 LIG-0.02  C 
ATOM     62  CD2 LEU C 303       7.532  10.575  -2.281  0.50 31.43 LIG 0.01  C 
ATOM     63  CD1 LEU C 303       6.277  11.175  -4.395  0.50 30.50 LIG 0.01  C 
ENDBRANCH 60 61
ENDBRANCH 58 60
ENDBRANCH 55 58
ENDBRANCH 47 54
ENDBRANCH 45 47
ENDBRANCH 35 43
ENDBRANCH 1 35
TORSDOF 21
ENDMDL
MODEL 148
USER: ADFR SOLUTION from run 90
USER: SCORE 17.217779 LL:  -6.216 LR: -12.754 RR:   0.000 FEB:  -6.489
USER: RMSD 9.567628
USER: SEED 89
USER: STATUS no improvement in best in 5 clusters for 5 generations
USER: GENES 23
USER: genes 0 Translation |==|  0.44582 0.60813 0.15406
USER: genes 1 Rotation |==|  0.51562 0.83593 0.68262 0.82181
USER: genes 2 Torsion [N]-CA--C-[N] |==|  0.15652
USER: genes 3 Torsion [C]-N--CA-[C] |==|  0.14548
USER: genes 4 Torsion [N]-CA--C-[N] |==|  0.62681
USER: genes 5 Torsion [C]-N--CA-[CB] |==|  0.51111
USER: genes 6 Torsion [N]-CA--C-[N] |==|  0.27637
USER: genes 7 Torsion [N]-CA--C-[OXT] |==|  0.41199
USER: genes 8 Torsion [N]-CA--CB-[OG] |==|  0.14501
USER: genes 9 Torsion [CA]-CB--OG-[HG] |==|  0.28618
USER: genes 10 Torsion [N]-CA--CB-[CG2] |==|  0.59191
USER: genes 11 Torsion [CA]-CB--CG1-[CD1] |==|  0.29850
USER: genes 12 Torsion [N]-C--CA-[N] |==|  0.92866
USER: genes 13 Torsion [C]-CA--CB-[CG] |==|  0.45304
USER: genes 14 Torsion [CA]-CB--CG-[CD1] |==|  0.81116
USER: genes 15 Torsion [C]-CA--N-[C] |==|  0.78920
USER: genes 16 Torsion [N]-C--CA-[N] |==|  0.20834
USER: genes 17 Torsion [C]-CA--CB-[CG] |==|  0.56671
USER: genes 18 Torsion [CA]-CB--CG-[OD1] |==|  0.28826
USER: genes 19 Torsion [C]-CA--N-[C] |==|  0.75330
USER: genes 20 Torsion [N]-C--CA-[N] |==|  0.65385
USER: genes 21 Torsion [C]-CA--CB-[CG] |==|  0.77236
USER: genes 22 Torsion [CA]-CB--CG-[CD2] |==|  0.70677
ROOT
ATOM      1  C   PHE C 305      12.010   9.426  -7.279  0.50 34.66 LIG 0.24  C 
ATOM      2 O    PHE C 305      11.826   8.924  -8.384  0.50 33.80 LIG-0.27  OA
ATOM      3  N   PRO C 306      12.945   8.963  -6.426  0.50 35.29 LIG-0.34  N 
ATOM      4  CA  PRO C 306      13.411   7.591  -6.553  0.50 35.79 LIG 0.18  C 
ATOM      5  CB  PRO C 306      14.880   7.670  -6.076  0.50 35.80 LIG 0.04  C 
ATOM      6  CG  PRO C 306      15.070   9.096  -5.546  0.50 35.25 LIG 0.02  C 
ATOM      7  CD  PRO C 306      13.691   9.672  -5.376  0.50 35.51 LIG 0.13  C 
ENDROOT
BRANCH 4 8
ATOM      8  C   PRO C 306      12.629   6.676  -5.609  0.50 36.50 LIG 0.24  C 
ATOM      9  N   ILE C 307      11.293   6.686  -5.755  0.50 37.01 LIG-0.35  N 
ATOM     10 H    ILE C 307      10.861   7.203  -6.289  0.50 37.01 LIG 0.16  HD
ATOM     11 O    PRO C 306      13.233   5.966  -4.774  0.50 36.74 LIG-0.27  OA
BRANCH 9 12
ATOM     12  CA  ILE C 307      10.467   5.766  -4.972  0.50 37.44 LIG 0.18  C 
BRANCH 12 13
ATOM     13  C   ILE C 307      10.760   5.844  -3.471  0.50 38.23 LIG 0.24  C 
ATOM     14  N   SER C 308      10.885   4.668  -2.864  0.50 38.91 LIG-0.34  N 
ATOM     15 H    SER C 308      10.690   3.922  -3.246  0.50 38.91 LIG 0.16  HD
ATOM     16 O    ILE C 307      10.878   6.935  -2.893  0.50 38.79 LIG-0.27  OA
BRANCH 14 17
ATOM     17  CA  SER C 308      11.362   4.511  -1.493  0.50 39.43 LIG 0.20  C 
BRANCH 17 18
ATOM     18  C   SER C 308      12.732   5.191  -1.445  0.50 39.77 LIG 0.24  C 
ATOM     19  N   PRO C 309      12.789   6.436  -0.940  0.50 40.03 LIG-0.34  N 
ATOM     20  CD  PRO C 309      11.793   7.117  -0.097  0.50 39.83 LIG 0.13  C 
ATOM     21  CA  PRO C 309      13.971   7.269  -1.173  0.50 40.09 LIG 0.19  C 
ATOM     22  CG  PRO C 309      12.205   8.553  -0.186  0.50 40.19 LIG 0.02  C 
ATOM     23  CB  PRO C 309      13.696   8.514  -0.320  0.50 40.09 LIG 0.04  C 
ATOM     24 O    SER C 308      13.737   4.594  -1.845  0.50 39.81 LIG-0.27  OA
BRANCH 21 25
ATOM     25  C   PRO C 309      15.279   6.593  -0.764  0.50 40.04 LIG 0.20  C 
ATOM     26 OXT  PRO C 309      16.336   6.822  -1.358  0.50 40.10 LIG-0.65  OA
ATOM     27 O    PRO C 309      15.308   5.788   0.169  0.50 40.34 LIG-0.65  OA
ENDBRANCH 21 25
ENDBRANCH 17 18
BRANCH 17 28
ATOM     28  CB  SER C 308      11.485   3.031  -1.122  0.50 39.49 LIG 0.20  C 
BRANCH 28 29
ATOM     29 OG   SER C 308      12.255   2.318  -2.080  0.50 39.70 LIG-0.40  OA
ATOM     30 HG   SER C 308      13.025   2.181  -1.774  0.50 39.70 LIG 0.21  HD
ENDBRANCH 28 29
ENDBRANCH 17 28
ENDBRANCH 14 17
ENDBRANCH 12 13
BRANCH 12 31
ATOM     31  CB  ILE C 307      10.644   4.293  -5.412  0.50 37.20 LIG 0.01  C 
ATOM     32  CG2 ILE C 307       9.332   3.511  -5.247  0.50 36.86 LIG 0.01  C 
BRANCH 31 33
ATOM     33  CG1 ILE C 307      11.193   4.250  -6.850  0.50 35.88 LIG 0.00  C 
ATOM     34  CD1 ILE C 307      12.637   3.831  -6.980  0.50 32.01 LIG 0.01  C 
ENDBRANCH 31 33
ENDBRANCH 12 31
ENDBRANCH 9 12
ENDBRANCH 4 8
BRANCH 1 35
ATOM     35  CA  PHE C 305      11.187  10.648  -6.852  0.50 34.47 LIG 0.18  C 
BRANCH 35 36
ATOM     36  CB  PHE C 305      11.864  11.889  -7.451  0.50 34.49 LIG 0.07  C 
BRANCH 36 37
ATOM     37  CG  PHE C 305      11.001  13.140  -7.486  0.50 35.55 LIG-0.06  A 
ATOM     38  CD1 PHE C 305       9.882  13.238  -8.313  0.50 36.28 LIG 0.01  A 
ATOM     39  CE1 PHE C 305       9.101  14.398  -8.325  0.50 36.66 LIG 0.00  A 
ATOM     40  CZ  PHE C 305       9.445  15.482  -7.513  0.50 36.87 LIG 0.00  A 
ATOM     41  CE2 PHE C 305      10.554  15.401  -6.691  0.50 36.76 LIG 0.00  A 
ATOM     42  CD2 PHE C 305      11.335  14.234  -6.686  0.50 36.02 LIG 0.01  A 
ENDBRANCH 36 37
ENDBRANCH 35 36
BRANCH 35 43
ATOM     43  N   PHE C 305      11.063  10.831  -5.401  0.50 33.54 LIG-0.35  N 
ATOM     44 H    PHE C 305      11.556  11.456  -5.074  0.50 33.54 LIG 0.16  HD
ATOM     45  C   ASN C 304      10.240  10.067  -4.682  0.50 33.07 LIG 0.24  C 
ATOM     46 O    ASN C 304       9.821   8.976  -5.086  0.50 33.39 LIG-0.27  OA
BRANCH 45 47
ATOM     47  CA  ASN C 304       9.818  10.619  -3.314  0.50 32.40 LIG 0.18  C 
BRANCH 47 48
ATOM     48  CB  ASN C 304       9.234   9.545  -2.384  0.50 32.38 LIG 0.14  C 
BRANCH 48 49
ATOM     49  CG  ASN C 304       8.294  10.128  -1.298  0.50 31.77 LIG 0.22  C 
ATOM     50 OD1  ASN C 304       7.076  10.026  -1.390  0.50 27.48 LIG-0.27  OA
ATOM     51  ND2 ASN C 304       8.877  10.776  -0.297  0.50 32.56 LIG-0.37  N 
ATOM     52 21HD ASN C 304       8.396  11.143   0.315  0.50 32.56 LIG 0.16  HD
ATOM     53 22HD ASN C 304       9.734  10.830  -0.260  0.50 32.56 LIG 0.16  HD
ENDBRANCH 48 49
ENDBRANCH 47 48
BRANCH 47 54
ATOM     54  N   ASN C 304       8.846  11.673  -3.474  0.50 31.56 LIG-0.34  N 
ATOM     55  C   LEU C 303       9.233  12.931  -3.623  0.50 30.83 LIG 0.26  C 
ATOM     56 O    LEU C 303      10.396  13.238  -3.844  0.50 29.02 LIG-0.27  OA
ATOM     57 H    ASN C 304       8.026  11.415  -3.464  0.50 31.56 LIG 0.16  HD
BRANCH 55 58
ATOM     58  CA  LEU C 303       8.129  13.989  -3.507  0.50 30.56 LIG 0.40  C 
ATOM     59  N   LEU C 303       8.031  14.888  -4.689  0.50 30.88 LIG 0.61  N 
BRANCH 58 60
ATOM     60  CB  LEU C 303       6.769  13.338  -3.224  0.50 30.80 LIG 0.06  C 
BRANCH 60 61
ATOM     61  CG  LEU C 303       5.987  12.768  -4.414  0.50 30.92 LIG-0.02  C 
ATOM     62  CD2 LEU C 303       4.801  13.680  -4.776  0.50 31.43 LIG 0.01  C 
ATOM     63  CD1 LEU C 303       5.538  11.342  -4.150  0.50 30.50 LIG 0.01  C 
ENDBRANCH 60 61
ENDBRANCH 58 60
ENDBRANCH 55 58
ENDBRANCH 47 54
ENDBRANCH 45 47
ENDBRANCH 35 43
ENDBRANCH 1 35
TORSDOF 21
ENDMDL
MODEL 149
USER: ADFR SOLUTION from run 98
USER: SCORE 18.291130 LL:  -6.897 LR: -12.751 RR:   0.000 FEB:  -6.487
USER: RMSD 11.290010
USER: SEED 97
USER: STATUS no improvement in best in 13 clusters for 5 generations
USER: GENES 23
USER: genes 0 Translation |==|  0.50956 0.53926 0.70099
USER: genes 1 Rotation |==|  0.52915 0.07932 0.50054 0.76866
USER: genes 2 Torsion [N]-CA--C-[N] |==|  0.01640
USER: genes 3 Torsion [C]-N--CA-[C] |==|  0.62876
USER: genes 4 Torsion [N]-CA--C-[N] |==|  0.55988
USER: genes 5 Torsion [C]-N--CA-[CB] |==|  0.53919
USER: genes 6 Torsion [N]-CA--C-[N] |==|  0.31933
USER: genes 7 Torsion [N]-CA--C-[OXT] |==|  0.35222
USER: genes 8 Torsion [N]-CA--CB-[OG] |==|  0.88093
USER: genes 9 Torsion [CA]-CB--OG-[HG] |==|  0.98566
USER: genes 10 Torsion [N]-CA--CB-[CG2] |==|  0.74649
USER: genes 11 Torsion [CA]-CB--CG1-[CD1] |==|  0.30591
USER: genes 12 Torsion [N]-C--CA-[N] |==|  0.00528
USER: genes 13 Torsion [C]-CA--CB-[CG] |==|  0.40028
USER: genes 14 Torsion [CA]-CB--CG-[CD1] |==|  0.35044
USER: genes 15 Torsion [C]-CA--N-[C] |==|  0.65765
USER: genes 16 Torsion [N]-C--CA-[N] |==|  0.98498
USER: genes 17 Torsion [C]-CA--CB-[CG] |==|  0.46971
USER: genes 18 Torsion [CA]-CB--CG-[OD1] |==|  0.81334
USER: genes 19 Torsion [C]-CA--N-[C] |==|  0.76597
USER: genes 20 Torsion [N]-C--CA-[N] |==|  0.50951
USER: genes 21 Torsion [C]-CA--CB-[CG] |==|  0.94676
USER: genes 22 Torsion [CA]-CB--CG-[CD2] |==|  0.69737
ROOT
ATOM      1  C   PHE C 305      13.636   7.773   3.796  0.50 34.66 LIG 0.24  C 
ATOM      2 O    PHE C 305      13.878   6.868   4.589  0.50 33.80 LIG-0.27  OA
ATOM      3  N   PRO C 306      13.493   7.552   2.475  0.50 35.29 LIG-0.34  N 
ATOM      4  CA  PRO C 306      14.095   6.370   1.878  0.50 35.79 LIG 0.18  C 
ATOM      5  CB  PRO C 306      13.128   6.024   0.722  0.50 35.80 LIG 0.04  C 
ATOM      6  CG  PRO C 306      12.121   7.178   0.662  0.50 35.25 LIG 0.02  C 
ATOM      7  CD  PRO C 306      12.709   8.297   1.477  0.50 35.51 LIG 0.13  C 
ENDROOT
BRANCH 4 8
ATOM      8  C   PRO C 306      15.468   6.711   1.295  0.50 36.50 LIG 0.24  C 
ATOM      9  N   ILE C 307      15.915   7.955   1.537  0.50 37.01 LIG-0.35  N 
ATOM     10 H    ILE C 307      15.466   8.570   1.935  0.50 37.01 LIG 0.16  HD
ATOM     11 O    PRO C 306      16.110   5.852   0.650  0.50 36.74 LIG-0.27  OA
BRANCH 9 12
ATOM     12  CA  ILE C 307      17.262   8.341   1.112  0.50 37.44 LIG 0.18  C 
BRANCH 12 13
ATOM     13  C   ILE C 307      18.035   9.080   2.207  0.50 38.23 LIG 0.24  C 
ATOM     14  N   SER C 308      19.042   9.831   1.770  0.50 38.91 LIG-0.34  N 
ATOM     15 H    SER C 308      19.324   9.808   0.957  0.50 38.91 LIG 0.16  HD
ATOM     16 O    ILE C 307      17.719   8.976   3.401  0.50 38.79 LIG-0.27  OA
BRANCH 14 17
ATOM     17  CA  SER C 308      19.775  10.771   2.613  0.50 39.43 LIG 0.20  C 
BRANCH 17 18
ATOM     18  C   SER C 308      18.715  11.551   3.393  0.50 39.77 LIG 0.24  C 
ATOM     19  N   PRO C 309      18.686  11.392   4.729  0.50 40.03 LIG-0.34  N 
ATOM     20  CD  PRO C 309      19.746  10.857   5.599  0.50 39.83 LIG 0.13  C 
ATOM     21  CA  PRO C 309      17.512  11.818   5.493  0.50 40.09 LIG 0.19  C 
ATOM     22  CG  PRO C 309      19.015  10.560   6.871  0.50 40.19 LIG 0.02  C 
ATOM     23  CB  PRO C 309      17.945  11.606   6.949  0.50 40.09 LIG 0.04  C 
ATOM     24 O    SER C 308      17.936  12.304   2.802  0.50 39.81 LIG-0.27  OA
BRANCH 21 25
ATOM     25  C   PRO C 309      17.118  13.273   5.238  0.50 40.04 LIG 0.20  C 
ATOM     26 OXT  PRO C 309      15.970  13.580   4.903  0.50 40.10 LIG-0.65  OA
ATOM     27 O    PRO C 309      17.946  14.179   5.350  0.50 40.34 LIG-0.65  OA
ENDBRANCH 21 25
ENDBRANCH 17 18
BRANCH 17 28
ATOM     28  CB  SER C 308      20.622  11.722   1.763  0.50 39.49 LIG 0.20  C 
BRANCH 28 29
ATOM     29 OG   SER C 308      21.283  11.031   0.713  0.50 39.70 LIG-0.40  OA
ATOM     30 HG   SER C 308      21.144  10.206   0.789  0.50 39.70 LIG 0.21  HD
ENDBRANCH 28 29
ENDBRANCH 17 28
ENDBRANCH 14 17
ENDBRANCH 12 13
BRANCH 12 31
ATOM     31  CB  ILE C 307      17.247   9.241  -0.147  0.50 37.20 LIG 0.01  C 
ATOM     32  CG2 ILE C 307      17.344   8.396  -1.426  0.50 36.86 LIG 0.01  C 
BRANCH 31 33
ATOM     33  CG1 ILE C 307      16.001  10.144  -0.116  0.50 35.88 LIG 0.00  C 
ATOM     34  CD1 ILE C 307      16.269  11.611   0.120  0.50 32.01 LIG 0.01  C 
ENDBRANCH 31 33
ENDBRANCH 12 31
ENDBRANCH 9 12
ENDBRANCH 4 8
BRANCH 1 35
ATOM     35  CA  PHE C 305      13.448   9.206   4.311  0.50 34.47 LIG 0.18  C 
BRANCH 35 36
ATOM     36  CB  PHE C 305      12.340   9.168   5.375  0.50 34.49 LIG 0.07  C 
BRANCH 36 37
ATOM     37  CG  PHE C 305      12.538  10.119   6.544  0.50 35.55 LIG-0.06  A 
ATOM     38  CD1 PHE C 305      11.557  11.037   6.920  0.50 36.28 LIG 0.01  A 
ATOM     39  CE1 PHE C 305      11.761  11.899   8.001  0.50 36.66 LIG 0.00  A 
ATOM     40  CZ  PHE C 305      12.964  11.859   8.713  0.50 36.87 LIG 0.00  A 
ATOM     41  CE2 PHE C 305      13.948  10.958   8.349  0.50 36.76 LIG 0.00  A 
ATOM     42  CD2 PHE C 305      13.737  10.097   7.260  0.50 36.02 LIG 0.01  A 
ENDBRANCH 36 37
ENDBRANCH 35 36
BRANCH 35 43
ATOM     43  N   PHE C 305      13.082  10.188   3.284  0.50 33.54 LIG-0.35  N 
ATOM     44 H    PHE C 305      12.368   9.999   2.843  0.50 33.54 LIG 0.16  HD
ATOM     45  C   ASN C 304      13.827  11.276   3.082  0.50 33.07 LIG 0.24  C 
ATOM     46 O    ASN C 304      15.003  11.358   3.456  0.50 33.39 LIG-0.27  OA
BRANCH 45 47
ATOM     47  CA  ASN C 304      13.143  12.446   2.361  0.50 32.40 LIG 0.18  C 
BRANCH 47 48
ATOM     48  CB  ASN C 304      13.034  13.709   3.229  0.50 32.38 LIG 0.14  C 
BRANCH 48 49
ATOM     49  CG  ASN C 304      12.595  14.960   2.428  0.50 31.77 LIG 0.22  C 
ATOM     50 OD1  ASN C 304      13.322  15.456   1.576  0.50 27.48 LIG-0.27  OA
ATOM     51  ND2 ASN C 304      11.418  15.484   2.746  0.50 32.56 LIG-0.37  N 
ATOM     52 21HD ASN C 304      11.143  16.197   2.350  0.50 32.56 LIG 0.16  HD
ATOM     53 22HD ASN C 304      10.930  15.112   3.349  0.50 32.56 LIG 0.16  HD
ENDBRANCH 48 49
ENDBRANCH 47 48
BRANCH 47 54
ATOM     54  N   ASN C 304      11.820  12.065   1.927  0.50 31.56 LIG-0.34  N 
ATOM     55  C   LEU C 303      11.644  11.425   0.781  0.50 30.83 LIG 0.26  C 
ATOM     56 O    LEU C 303      12.574  10.942   0.150  0.50 29.02 LIG-0.27  OA
ATOM     57 H    ASN C 304      11.185  12.286   2.464  0.50 31.56 LIG 0.16  HD
BRANCH 55 58
ATOM     58  CA  LEU C 303      10.195  11.318   0.291  0.50 30.56 LIG 0.40  C 
ATOM     59  N   LEU C 303      10.041  10.522  -0.958  0.50 30.88 LIG 0.61  N 
BRANCH 58 60
ATOM     60  CB  LEU C 303       9.281  10.762   1.389  0.50 30.80 LIG 0.06  C 
BRANCH 60 61
ATOM     61  CG  LEU C 303       9.937  10.005   2.551  0.50 30.92 LIG-0.02  C 
ATOM     62  CD2 LEU C 303       9.629   8.498   2.465  0.50 31.43 LIG 0.01  C 
ATOM     63  CD1 LEU C 303       9.527  10.586   3.892  0.50 30.50 LIG 0.01  C 
ENDBRANCH 60 61
ENDBRANCH 58 60
ENDBRANCH 55 58
ENDBRANCH 47 54
ENDBRANCH 45 47
ENDBRANCH 35 43
ENDBRANCH 1 35
TORSDOF 21
ENDMDL
MODEL 150
USER: ADFR SOLUTION from run 111
USER: SCORE 17.282424 LL:  -6.108 LR: -12.740 RR:   0.000 FEB:  -6.475
USER: RMSD 11.474918
USER: SEED 110
USER: STATUS no improvement in best in 18 clusters for 5 generations
USER: GENES 23
USER: genes 0 Translation |==|  0.32048 0.68752 0.43028
USER: genes 1 Rotation |==|  0.54901 0.15869 0.85983 0.54035
USER: genes 2 Torsion [N]-CA--C-[N] |==|  0.56362
USER: genes 3 Torsion [C]-N--CA-[C] |==|  0.80659
USER: genes 4 Torsion [N]-CA--C-[N] |==|  0.92868
USER: genes 5 Torsion [C]-N--CA-[CB] |==|  0.18403
USER: genes 6 Torsion [N]-CA--C-[N] |==|  0.45066
USER: genes 7 Torsion [N]-CA--C-[OXT] |==|  0.90760
USER: genes 8 Torsion [N]-CA--CB-[OG] |==|  0.61974
USER: genes 9 Torsion [CA]-CB--OG-[HG] |==|  0.48567
USER: genes 10 Torsion [N]-CA--CB-[CG2] |==|  0.34502
USER: genes 11 Torsion [CA]-CB--CG1-[CD1] |==|  0.08862
USER: genes 12 Torsion [N]-C--CA-[N] |==|  0.49444
USER: genes 13 Torsion [C]-CA--CB-[CG] |==|  0.28486
USER: genes 14 Torsion [CA]-CB--CG-[CD1] |==|  0.59180
USER: genes 15 Torsion [C]-CA--N-[C] |==|  0.53647
USER: genes 16 Torsion [N]-C--CA-[N] |==|  0.03579
USER: genes 17 Torsion [C]-CA--CB-[CG] |==|  0.51061
USER: genes 18 Torsion [CA]-CB--CG-[OD1] |==|  0.22053
USER: genes 19 Torsion [C]-CA--N-[C] |==|  0.18038
USER: genes 20 Torsion [N]-C--CA-[N] |==|  0.78657
USER: genes 21 Torsion [C]-CA--CB-[CG] |==|  0.46561
USER: genes 22 Torsion [CA]-CB--CG-[CD2] |==|  0.65930
ROOT
ATOM      1  C   PHE C 305       8.814  11.331  -1.686  0.50 34.66 LIG 0.24  C 
ATOM      2 O    PHE C 305       8.336  11.861  -0.687  0.50 33.80 LIG-0.27  OA
ATOM      3  N   PRO C 306       9.986  10.666  -1.655  0.50 35.29 LIG-0.34  N 
ATOM      4  CA  PRO C 306      10.950  10.963  -0.607  0.50 35.79 LIG 0.18  C 
ATOM      5  CB  PRO C 306      11.662   9.609  -0.386  0.50 35.80 LIG 0.04  C 
ATOM      6  CG  PRO C 306      11.134   8.677  -1.482  0.50 35.25 LIG 0.02  C 
ATOM      7  CD  PRO C 306      10.457   9.556  -2.497  0.50 35.51 LIG 0.13  C 
ENDROOT
BRANCH 4 8
ATOM      8  C   PRO C 306      11.971  11.990  -1.103  0.50 36.50 LIG 0.24  C 
ATOM      9  N   ILE C 307      13.150  12.001  -0.459  0.50 37.01 LIG-0.35  N 
ATOM     10 H    ILE C 307      13.338  11.524   0.231  0.50 37.01 LIG 0.16  HD
ATOM     11 O    PRO C 306      11.692  12.745  -2.060  0.50 36.74 LIG-0.27  OA
BRANCH 9 12
ATOM     12  CA  ILE C 307      14.228  12.873  -0.928  0.50 37.44 LIG 0.18  C 
BRANCH 12 13
ATOM     13  C   ILE C 307      14.812  12.419  -2.267  0.50 38.23 LIG 0.24  C 
ATOM     14  N   SER C 308      14.680  11.121  -2.523  0.50 38.91 LIG-0.34  N 
ATOM     15 H    SER C 308      14.408  10.554  -1.936  0.50 38.91 LIG 0.16  HD
ATOM     16 O    ILE C 307      15.353  13.223  -3.041  0.50 38.79 LIG-0.27  OA
BRANCH 14 17
ATOM     17  CA  SER C 308      14.980  10.516  -3.818  0.50 39.43 LIG 0.20  C 
BRANCH 17 18
ATOM     18  C   SER C 308      14.541   9.054  -3.710  0.50 39.77 LIG 0.24  C 
ATOM     19  N   PRO C 309      14.367   8.373  -4.857  0.50 40.03 LIG-0.34  N 
ATOM     20  CD  PRO C 309      14.875   8.710  -6.196  0.50 39.83 LIG 0.13  C 
ATOM     21  CA  PRO C 309      13.631   7.107  -4.853  0.50 40.09 LIG 0.19  C 
ATOM     22  CG  PRO C 309      14.054   7.840  -7.095  0.50 40.19 LIG 0.02  C 
ATOM     23  CB  PRO C 309      13.794   6.602  -6.293  0.50 40.09 LIG 0.04  C 
ATOM     24 O    SER C 308      14.376   8.534  -2.603  0.50 39.81 LIG-0.27  OA
BRANCH 21 25
ATOM     25  C   PRO C 309      14.172   6.093  -3.845  0.50 40.04 LIG 0.20  C 
ATOM     26 OXT  PRO C 309      15.374   6.033  -3.573  0.50 40.10 LIG-0.65  OA
ATOM     27 O    PRO C 309      13.415   5.297  -3.284  0.50 40.34 LIG-0.65  OA
ENDBRANCH 21 25
ENDBRANCH 17 18
BRANCH 17 28
ATOM     28  CB  SER C 308      16.475  10.605  -4.131  0.50 39.49 LIG 0.20  C 
BRANCH 28 29
ATOM     29 OG   SER C 308      16.702  10.984  -5.481  0.50 39.70 LIG-0.40  OA
ATOM     30 HG   SER C 308      17.525  11.094  -5.607  0.50 39.70 LIG 0.21  HD
ENDBRANCH 28 29
ENDBRANCH 17 28
ENDBRANCH 14 17
ENDBRANCH 12 13
BRANCH 12 31
ATOM     31  CB  ILE C 307      15.393  12.969   0.088  0.50 37.20 LIG 0.01  C 
ATOM     32  CG2 ILE C 307      16.725  12.572  -0.567  0.50 36.86 LIG 0.01  C 
BRANCH 31 33
ATOM     33  CG1 ILE C 307      15.422  14.379   0.704  0.50 35.88 LIG 0.00  C 
ATOM     34  CD1 ILE C 307      14.078  15.051   0.847  0.50 32.01 LIG 0.01  C 
ENDBRANCH 31 33
ENDBRANCH 12 31
ENDBRANCH 9 12
ENDBRANCH 4 8
BRANCH 1 35
ATOM     35  CA  PHE C 305       8.050  11.383  -3.015  0.50 34.47 LIG 0.18  C 
BRANCH 35 36
ATOM     36  CB  PHE C 305       8.955  12.089  -4.036  0.50 34.49 LIG 0.07  C 
BRANCH 36 37
ATOM     37  CG  PHE C 305       9.652  11.168  -5.024  0.50 35.55 LIG-0.06  A 
ATOM     38  CD1 PHE C 305      10.922  11.452  -5.524  0.50 36.28 LIG 0.01  A 
ATOM     39  CE1 PHE C 305      11.544  10.587  -6.429  0.50 36.66 LIG 0.00  A 
ATOM     40  CZ  PHE C 305      10.889   9.428  -6.855  0.50 36.87 LIG 0.00  A 
ATOM     41  CE2 PHE C 305       9.626   9.135  -6.371  0.50 36.76 LIG 0.00  A 
ATOM     42  CD2 PHE C 305       9.007  10.010  -5.465  0.50 36.02 LIG 0.01  A 
ENDBRANCH 36 37
ENDBRANCH 35 36
BRANCH 35 43
ATOM     43  N   PHE C 305       6.763  12.085  -2.959  0.50 33.54 LIG-0.35  N 
ATOM     44 H    PHE C 305       6.637  12.551  -2.247  0.50 33.54 LIG 0.16  HD
ATOM     45  C   ASN C 304       5.884  11.983  -3.958  0.50 33.07 LIG 0.24  C 
ATOM     46 O    ASN C 304       5.916  11.062  -4.782  0.50 33.39 LIG-0.27  OA
BRANCH 45 47
ATOM     47  CA  ASN C 304       4.821  13.086  -4.045  0.50 32.40 LIG 0.18  C 
BRANCH 47 48
ATOM     48  CB  ASN C 304       4.615  13.615  -5.473  0.50 32.38 LIG 0.14  C 
BRANCH 48 49
ATOM     49  CG  ASN C 304       3.610  14.792  -5.545  0.50 31.77 LIG 0.22  C 
ATOM     50 OD1  ASN C 304       3.945  15.933  -5.248  0.50 27.48 LIG-0.27  OA
ATOM     51  ND2 ASN C 304       2.367  14.489  -5.900  0.50 32.56 LIG-0.37  N 
ATOM     52 21HD ASN C 304       1.765  15.104  -5.926  0.50 32.56 LIG 0.16  HD
ATOM     53 22HD ASN C 304       2.163  13.679  -6.103  0.50 32.56 LIG 0.16  HD
ENDBRANCH 48 49
ENDBRANCH 47 48
BRANCH 47 54
ATOM     54  N   ASN C 304       5.171  14.192  -3.187  0.50 31.56 LIG-0.34  N 
ATOM     55  C   LEU C 303       6.254  14.915  -3.426  0.50 30.83 LIG 0.26  C 
ATOM     56 O    LEU C 303       6.880  14.832  -4.473  0.50 29.02 LIG-0.27  OA
ATOM     57 H    ASN C 304       4.629  14.328  -2.533  0.50 31.56 LIG 0.16  HD
BRANCH 55 58
ATOM     58  CA  LEU C 303       6.677  15.876  -2.307  0.50 30.56 LIG 0.40  C 
ATOM     59  N   LEU C 303       5.849  17.110  -2.230  0.50 30.88 LIG 0.61  N 
BRANCH 58 60
ATOM     60  CB  LEU C 303       6.695  15.165  -0.948  0.50 30.80 LIG 0.06  C 
BRANCH 60 61
ATOM     61  CG  LEU C 303       7.367  15.885   0.227  0.50 30.92 LIG-0.02  C 
ATOM     62  CD2 LEU C 303       8.494  15.023   0.825  0.50 31.43 LIG 0.01  C 
ATOM     63  CD1 LEU C 303       6.352  16.291   1.281  0.50 30.50 LIG 0.01  C 
ENDBRANCH 60 61
ENDBRANCH 58 60
ENDBRANCH 55 58
ENDBRANCH 47 54
ENDBRANCH 45 47
ENDBRANCH 35 43
ENDBRANCH 1 35
TORSDOF 21
ENDMDL
MODEL 151
USER: ADFR SOLUTION from run 51
USER: SCORE 17.297803 LL:  -5.885 LR: -12.733 RR:   0.000 FEB:  -6.469
USER: RMSD 6.452590
USER: SEED 50
USER: STATUS no improvement in best in 28 clusters for 5 generations
USER: GENES 23
USER: genes 0 Translation |==|  0.39232 0.47726 0.28841
USER: genes 1 Rotation |==|  0.73680 0.89654 0.64360 0.62674
USER: genes 2 Torsion [N]-CA--C-[N] |==|  0.22551
USER: genes 3 Torsion [C]-N--CA-[C] |==|  0.60459
USER: genes 4 Torsion [N]-CA--C-[N] |==|  0.41042
USER: genes 5 Torsion [C]-N--CA-[CB] |==|  0.50556
USER: genes 6 Torsion [N]-CA--C-[N] |==|  0.27539
USER: genes 7 Torsion [N]-CA--C-[OXT] |==|  0.85621
USER: genes 8 Torsion [N]-CA--CB-[OG] |==|  0.93732
USER: genes 9 Torsion [CA]-CB--OG-[HG] |==|  0.09933
USER: genes 10 Torsion [N]-CA--CB-[CG2] |==|  0.79166
USER: genes 11 Torsion [CA]-CB--CG1-[CD1] |==|  0.29422
USER: genes 12 Torsion [N]-C--CA-[N] |==|  0.99971
USER: genes 13 Torsion [C]-CA--CB-[CG] |==|  0.87607
USER: genes 14 Torsion [CA]-CB--CG-[CD1] |==|  0.85397
USER: genes 15 Torsion [C]-CA--N-[C] |==|  0.77235
USER: genes 16 Torsion [N]-C--CA-[N] |==|  0.07732
USER: genes 17 Torsion [C]-CA--CB-[CG] |==|  0.52867
USER: genes 18 Torsion [CA]-CB--CG-[OD1] |==|  0.27739
USER: genes 19 Torsion [C]-CA--N-[C] |==|  0.69992
USER: genes 20 Torsion [N]-C--CA-[N] |==|  0.26236
USER: genes 21 Torsion [C]-CA--CB-[CG] |==|  0.10382
USER: genes 22 Torsion [CA]-CB--CG-[CD2] |==|  0.57398
ROOT
ATOM      1  C   PHE C 305      10.646   6.285  -4.559  0.50 34.66 LIG 0.24  C 
ATOM      2 O    PHE C 305       9.485   6.472  -4.909  0.50 33.80 LIG-0.27  OA
ATOM      3  N   PRO C 306      11.417   5.327  -5.109  0.50 35.29 LIG-0.34  N 
ATOM      4  CA  PRO C 306      10.788   4.184  -5.752  0.50 35.79 LIG 0.18  C 
ATOM      5  CB  PRO C 306      11.787   3.813  -6.872  0.50 35.80 LIG 0.04  C 
ATOM      6  CG  PRO C 306      13.014   4.705  -6.649  0.50 35.25 LIG 0.02  C 
ATOM      7  CD  PRO C 306      12.879   5.272  -5.262  0.50 35.51 LIG 0.13  C 
ENDROOT
BRANCH 4 8
ATOM      8  C   PRO C 306      10.682   3.016  -4.770  0.50 36.50 LIG 0.24  C 
ATOM      9  N   ILE C 307       9.650   3.063  -3.911  0.50 37.01 LIG-0.35  N 
ATOM     10 H    ILE C 307       9.098   3.718  -3.841  0.50 37.01 LIG 0.16  HD
ATOM     11 O    PRO C 306      11.517   2.085  -4.805  0.50 36.74 LIG-0.27  OA
BRANCH 9 12
ATOM     12  CA  ILE C 307       9.403   1.940  -3.005  0.50 37.44 LIG 0.18  C 
BRANCH 12 13
ATOM     13  C   ILE C 307       7.911   1.661  -2.806  0.50 38.23 LIG 0.24  C 
ATOM     14  N   SER C 308       7.604   0.383  -2.605  0.50 38.91 LIG-0.34  N 
ATOM     15 H    SER C 308       8.171  -0.256  -2.705  0.50 38.91 LIG 0.16  HD
ATOM     16 O    ILE C 307       7.076   2.577  -2.826  0.50 38.79 LIG-0.27  OA
BRANCH 14 17
ATOM     17  CA  SER C 308       6.280  -0.076  -2.194  0.50 39.43 LIG 0.20  C 
BRANCH 17 18
ATOM     18  C   SER C 308       5.980   0.637  -0.873  0.50 39.77 LIG 0.24  C 
ATOM     19  N   PRO C 309       5.197   1.730  -0.922  0.50 40.03 LIG-0.34  N 
ATOM     20  CD  PRO C 309       4.292   2.147  -2.004  0.50 39.83 LIG 0.13  C 
ATOM     21  CA  PRO C 309       5.149   2.648   0.217  0.50 40.09 LIG 0.19  C 
ATOM     22  CG  PRO C 309       4.017   3.581  -1.678  0.50 40.19 LIG 0.02  C 
ATOM     23  CB  PRO C 309       4.052   3.645  -0.181  0.50 40.09 LIG 0.04  C 
ATOM     24 O    SER C 308       6.435   0.199   0.187  0.50 39.81 LIG-0.27  OA
BRANCH 21 25
ATOM     25  C   PRO C 309       4.816   1.957   1.539  0.50 40.04 LIG 0.20  C 
ATOM     26 OXT  PRO C 309       3.833   1.220   1.652  0.50 40.10 LIG-0.65  OA
ATOM     27 O    PRO C 309       5.521   2.131   2.536  0.50 40.34 LIG-0.65  OA
ENDBRANCH 21 25
ENDBRANCH 17 18
BRANCH 17 28
ATOM     28  CB  SER C 308       6.262  -1.594  -1.999  0.50 39.49 LIG 0.20  C 
BRANCH 28 29
ATOM     29 OG   SER C 308       7.307  -2.222  -2.728  0.50 39.70 LIG-0.40  OA
ATOM     30 HG   SER C 308       7.987  -1.730  -2.725  0.50 39.70 LIG 0.21  HD
ENDBRANCH 28 29
ENDBRANCH 17 28
ENDBRANCH 14 17
ENDBRANCH 12 13
BRANCH 12 31
ATOM     31  CB  ILE C 307      10.034   2.160  -1.608  0.50 37.20 LIG 0.01  C 
ATOM     32  CG2 ILE C 307      11.556   1.962  -1.658  0.50 36.86 LIG 0.01  C 
BRANCH 31 33
ATOM     33  CG1 ILE C 307       9.625   3.544  -1.074  0.50 35.88 LIG 0.00  C 
ATOM     34  CD1 ILE C 307       8.590   3.534   0.025  0.50 32.01 LIG 0.01  C 
ENDBRANCH 31 33
ENDBRANCH 12 31
ENDBRANCH 9 12
ENDBRANCH 4 8
BRANCH 1 35
ATOM     35  CA  PHE C 305      11.273   7.188  -3.488  0.50 34.47 LIG 0.18  C 
BRANCH 35 36
ATOM     36  CB  PHE C 305      11.171   8.635  -3.992  0.50 34.49 LIG 0.07  C 
BRANCH 36 37
ATOM     37  CG  PHE C 305      11.552   8.837  -5.450  0.50 35.55 LIG-0.06  A 
ATOM     38  CD1 PHE C 305      12.765   8.381  -5.963  0.50 36.28 LIG 0.01  A 
ATOM     39  CE1 PHE C 305      13.091   8.576  -7.309  0.50 36.66 LIG 0.00  A 
ATOM     40  CZ  PHE C 305      12.203   9.245  -8.155  0.50 36.87 LIG 0.00  A 
ATOM     41  CE2 PHE C 305      10.997   9.707  -7.659  0.50 36.76 LIG 0.00  A 
ATOM     42  CD2 PHE C 305      10.678   9.510  -6.307  0.50 36.02 LIG 0.01  A 
ENDBRANCH 36 37
ENDBRANCH 35 36
BRANCH 35 43
ATOM     43  N   PHE C 305      12.676   6.893  -3.177  0.50 33.54 LIG-0.35  N 
ATOM     44 H    PHE C 305      13.247   7.397  -3.576  0.50 33.54 LIG 0.16  HD
ATOM     45  C   ASN C 304      12.998   5.911  -2.334  0.50 33.07 LIG 0.24  C 
ATOM     46 O    ASN C 304      12.220   4.992  -2.053  0.50 33.39 LIG-0.27  OA
BRANCH 45 47
ATOM     47  CA  ASN C 304      14.398   5.981  -1.709  0.50 32.40 LIG 0.18  C 
BRANCH 47 48
ATOM     48  CB  ASN C 304      14.467   5.352  -0.309  0.50 32.38 LIG 0.14  C 
BRANCH 48 49
ATOM     49  CG  ASN C 304      15.801   5.644   0.423  0.50 31.77 LIG 0.22  C 
ATOM     50 OD1  ASN C 304      15.881   6.526   1.270  0.50 27.48 LIG-0.27  OA
ATOM     51  ND2 ASN C 304      16.851   4.922   0.051  0.50 32.56 LIG-0.37  N 
ATOM     52 21HD ASN C 304      17.620   5.068   0.408  0.50 32.56 LIG 0.16  HD
ATOM     53 22HD ASN C 304      16.762   4.310  -0.546  0.50 32.56 LIG 0.16  HD
ENDBRANCH 48 49
ENDBRANCH 47 48
BRANCH 47 54
ATOM     54  N   ASN C 304      14.844   7.350  -1.625  0.50 31.56 LIG-0.34  N 
ATOM     55  C   LEU C 303      15.799   7.799  -2.425  0.50 30.83 LIG 0.26  C 
ATOM     56 O    LEU C 303      16.194   7.167  -3.395  0.50 29.02 LIG-0.27  OA
ATOM     57 H    ASN C 304      14.445   7.825  -1.029  0.50 31.56 LIG 0.16  HD
BRANCH 55 58
ATOM     58  CA  LEU C 303      16.381   9.172  -2.067  0.50 30.56 LIG 0.40  C 
ATOM     59  N   LEU C 303      17.610   9.103  -1.229  0.50 30.88 LIG 0.61  N 
BRANCH 58 60
ATOM     60  CB  LEU C 303      16.646  10.005  -3.327  0.50 30.80 LIG 0.06  C 
BRANCH 60 61
ATOM     61  CG  LEU C 303      15.642   9.896  -4.481  0.50 30.92 LIG-0.02  C 
ATOM     62  CD2 LEU C 303      16.321  10.208  -5.828  0.50 31.43 LIG 0.01  C 
ATOM     63  CD1 LEU C 303      14.430  10.779  -4.246  0.50 30.50 LIG 0.01  C 
ENDBRANCH 60 61
ENDBRANCH 58 60
ENDBRANCH 55 58
ENDBRANCH 47 54
ENDBRANCH 45 47
ENDBRANCH 35 43
ENDBRANCH 1 35
TORSDOF 21
ENDMDL
MODEL 152
USER: ADFR SOLUTION from run 15
USER: SCORE 18.216238 LL:  -6.488 LR: -12.725 RR:   0.000 FEB:  -6.461
USER: RMSD 11.435195
USER: SEED 390595
USER: STATUS no improvement in best in 28 clusters for 5 generations
USER: GENES 23
USER: genes 0 Translation |==|  0.56320 0.65273 0.43466
USER: genes 1 Rotation |==|  0.51977 0.01373 0.42219 0.58426
USER: genes 2 Torsion [N]-CA--C-[N] |==|  0.98611
USER: genes 3 Torsion [C]-N--CA-[C] |==|  0.57944
USER: genes 4 Torsion [N]-CA--C-[N] |==|  0.37587
USER: genes 5 Torsion [C]-N--CA-[CB] |==|  0.87778
USER: genes 6 Torsion [N]-CA--C-[N] |==|  0.35444
USER: genes 7 Torsion [N]-CA--C-[OXT] |==|  0.85548
USER: genes 8 Torsion [N]-CA--CB-[OG] |==|  0.89976
USER: genes 9 Torsion [CA]-CB--OG-[HG] |==|  0.78345
USER: genes 10 Torsion [N]-CA--CB-[CG2] |==|  0.26692
USER: genes 11 Torsion [CA]-CB--CG1-[CD1] |==|  0.80774
USER: genes 12 Torsion [N]-C--CA-[N] |==|  0.51030
USER: genes 13 Torsion [C]-CA--CB-[CG] |==|  0.39289
USER: genes 14 Torsion [CA]-CB--CG-[CD1] |==|  0.81646
USER: genes 15 Torsion [C]-CA--N-[C] |==|  0.56588
USER: genes 16 Torsion [N]-C--CA-[N] |==|  0.01341
USER: genes 17 Torsion [C]-CA--CB-[CG] |==|  0.14041
USER: genes 18 Torsion [CA]-CB--CG-[OD1] |==|  0.74210
USER: genes 19 Torsion [C]-CA--N-[C] |==|  0.67905
USER: genes 20 Torsion [N]-C--CA-[N] |==|  0.93144
USER: genes 21 Torsion [C]-CA--CB-[CG] |==|  0.69171
USER: genes 22 Torsion [CA]-CB--CG-[CD2] |==|  0.74735
ROOT
ATOM      1  C   PHE C 305      15.004  10.497  -1.597  0.50 34.66 LIG 0.24  C 
ATOM      2 O    PHE C 305      14.532   9.432  -1.209  0.50 33.80 LIG-0.27  OA
ATOM      3  N   PRO C 306      15.819  10.573  -2.667  0.50 35.29 LIG-0.34  N 
ATOM      4  CA  PRO C 306      16.558   9.393  -3.088  0.50 35.79 LIG 0.18  C 
ATOM      5  CB  PRO C 306      16.668   9.571  -4.620  0.50 35.80 LIG 0.04  C 
ATOM      6  CG  PRO C 306      16.108  10.966  -4.918  0.50 35.25 LIG 0.02  C 
ATOM      7  CD  PRO C 306      16.042  11.687  -3.600  0.50 35.51 LIG 0.13  C 
ENDROOT
BRANCH 4 8
ATOM      8  C   PRO C 306      17.963   9.403  -2.482  0.50 36.50 LIG 0.24  C 
ATOM      9  N   ILE C 307      18.294  10.504  -1.786  0.50 37.01 LIG-0.35  N 
ATOM     10 H    ILE C 307      17.803  11.206  -1.714  0.50 37.01 LIG 0.16  HD
ATOM     11 O    PRO C 306      18.724   8.422  -2.637  0.50 36.74 LIG-0.27  OA
BRANCH 9 12
ATOM     12  CA  ILE C 307      19.575  10.563  -1.081  0.50 37.44 LIG 0.18  C 
BRANCH 12 13
ATOM     13  C   ILE C 307      19.526  11.469   0.152  0.50 38.23 LIG 0.24  C 
ATOM     14  N   SER C 308      20.101  10.964   1.240  0.50 38.91 LIG-0.34  N 
ATOM     15 H    SER C 308      20.365  10.147   1.292  0.50 38.91 LIG 0.16  HD
ATOM     16 O    ILE C 307      18.995  12.588   0.109  0.50 38.79 LIG-0.27  OA
BRANCH 14 17
ATOM     17  CA  SER C 308      20.347  11.733   2.457  0.50 39.43 LIG 0.20  C 
BRANCH 17 18
ATOM     18  C   SER C 308      18.990  11.860   3.153  0.50 39.77 LIG 0.24  C 
ATOM     19  N   PRO C 309      18.919  11.492   4.445  0.50 40.03 LIG-0.34  N 
ATOM     20  CD  PRO C 309      20.026  11.316   5.398  0.50 39.83 LIG 0.13  C 
ATOM     21  CA  PRO C 309      17.616  11.258   5.070  0.50 40.09 LIG 0.19  C 
ATOM     22  CG  PRO C 309      19.392  10.540   6.509  0.50 40.19 LIG 0.02  C 
ATOM     23  CB  PRO C 309      17.971  11.015   6.543  0.50 40.09 LIG 0.04  C 
ATOM     24 O    SER C 308      18.015  12.303   2.539  0.50 39.81 LIG-0.27  OA
BRANCH 21 25
ATOM     25  C   PRO C 309      16.651  12.434   4.919  0.50 40.04 LIG 0.20  C 
ATOM     26 OXT  PRO C 309      16.979  13.581   5.237  0.50 40.10 LIG-0.65  OA
ATOM     27 O    PRO C 309      15.510  12.262   4.485  0.50 40.34 LIG-0.65  OA
ENDBRANCH 21 25
ENDBRANCH 17 18
BRANCH 17 28
ATOM     28  CB  SER C 308      20.911  13.117   2.126  0.50 39.49 LIG 0.20  C 
BRANCH 28 29
ATOM     29 OG   SER C 308      21.784  13.067   1.007  0.50 39.70 LIG-0.40  OA
ATOM     30 HG   SER C 308      22.530  12.763   1.246  0.50 39.70 LIG 0.21  HD
ENDBRANCH 28 29
ENDBRANCH 17 28
ENDBRANCH 14 17
ENDBRANCH 12 13
BRANCH 12 31
ATOM     31  CB  ILE C 307      20.725  11.062  -1.989  0.50 37.20 LIG 0.01  C 
ATOM     32  CG2 ILE C 307      20.954  12.570  -1.806  0.50 36.86 LIG 0.01  C 
BRANCH 31 33
ATOM     33  CG1 ILE C 307      21.989  10.225  -1.721  0.50 35.88 LIG 0.00  C 
ATOM     34  CD1 ILE C 307      22.635  10.442  -0.374  0.50 32.01 LIG 0.01  C 
ENDBRANCH 31 33
ENDBRANCH 12 31
ENDBRANCH 9 12
ENDBRANCH 4 8
BRANCH 1 35
ATOM     35  CA  PHE C 305      14.635  11.801  -0.879  0.50 34.47 LIG 0.18  C 
BRANCH 35 36
ATOM     36  CB  PHE C 305      15.948  12.496  -0.488  0.50 34.49 LIG 0.07  C 
BRANCH 36 37
ATOM     37  CG  PHE C 305      15.943  14.009  -0.633  0.50 35.55 LIG-0.06  A 
ATOM     38  CD1 PHE C 305      15.841  14.628  -1.878  0.50 36.28 LIG 0.01  A 
ATOM     39  CE1 PHE C 305      15.835  16.022  -1.985  0.50 36.66 LIG 0.00  A 
ATOM     40  CZ  PHE C 305      15.947  16.814  -0.838  0.50 36.87 LIG 0.00  A 
ATOM     41  CE2 PHE C 305      16.054  16.213   0.403  0.50 36.76 LIG 0.00  A 
ATOM     42  CD2 PHE C 305      16.061  14.813   0.502  0.50 36.02 LIG 0.01  A 
ENDBRANCH 36 37
ENDBRANCH 35 36
BRANCH 35 43
ATOM     43  N   PHE C 305      13.814  11.631   0.326  0.50 33.54 LIG-0.35  N 
ATOM     44 H    PHE C 305      13.877  10.858   0.699  0.50 33.54 LIG 0.16  HD
ATOM     45  C   ASN C 304      13.043  12.622   0.774  0.50 33.07 LIG 0.24  C 
ATOM     46 O    ASN C 304      12.693  13.569   0.060  0.50 33.39 LIG-0.27  OA
BRANCH 45 47
ATOM     47  CA  ASN C 304      12.613  12.540   2.245  0.50 32.40 LIG 0.18  C 
BRANCH 47 48
ATOM     48  CB  ASN C 304      12.934  13.814   3.040  0.50 32.38 LIG 0.14  C 
BRANCH 48 49
ATOM     49  CG  ASN C 304      12.432  15.106   2.345  0.50 31.77 LIG 0.22  C 
ATOM     50 OD1  ASN C 304      13.160  15.748   1.596  0.50 27.48 LIG-0.27  OA
ATOM     51  ND2 ASN C 304      11.199  15.497   2.641  0.50 32.56 LIG-0.37  N 
ATOM     52 21HD ASN C 304      10.886  16.224   2.303  0.50 32.56 LIG 0.16  HD
ATOM     53 22HD ASN C 304      10.713  15.024   3.170  0.50 32.56 LIG 0.16  HD
ENDBRANCH 48 49
ENDBRANCH 47 48
BRANCH 47 54
ATOM     54  N   ASN C 304      13.246  11.417   2.892  0.50 31.56 LIG-0.34  N 
ATOM     55  C   LEU C 303      12.523  10.406   3.350  0.50 30.83 LIG 0.26  C 
ATOM     56 O    LEU C 303      11.342  10.264   3.069  0.50 29.02 LIG-0.27  OA
ATOM     57 H    ASN C 304      14.103  11.467   2.949  0.50 31.56 LIG 0.16  HD
BRANCH 55 58
ATOM     58  CA  LEU C 303      13.262   9.411   4.255  0.50 30.56 LIG 0.40  C 
ATOM     59  N   LEU C 303      14.733   9.374   4.032  0.50 30.88 LIG 0.61  N 
BRANCH 58 60
ATOM     60  CB  LEU C 303      12.957   9.682   5.734  0.50 30.80 LIG 0.06  C 
BRANCH 60 61
ATOM     61  CG  LEU C 303      14.092  10.226   6.611  0.50 30.92 LIG-0.02  C 
ATOM     62  CD2 LEU C 303      14.875   9.075   7.269  0.50 31.43 LIG 0.01  C 
ATOM     63  CD1 LEU C 303      13.571  11.212   7.641  0.50 30.50 LIG 0.01  C 
ENDBRANCH 60 61
ENDBRANCH 58 60
ENDBRANCH 55 58
ENDBRANCH 47 54
ENDBRANCH 45 47
ENDBRANCH 35 43
ENDBRANCH 1 35
TORSDOF 21
ENDMDL
MODEL 153
USER: ADFR SOLUTION from run 17
USER: SCORE 17.753874 LL:  -5.609 LR: -12.716 RR:   0.000 FEB:  -6.451
USER: RMSD 11.465174
USER: SEED 16
USER: STATUS no improvement in best in 3 clusters for 5 generations
USER: GENES 23
USER: genes 0 Translation |==|  0.44374 0.62053 0.31071
USER: genes 1 Rotation |==|  0.98302 0.55417 0.60387 0.55452
USER: genes 2 Torsion [N]-CA--C-[N] |==|  0.23594
USER: genes 3 Torsion [C]-N--CA-[C] |==|  0.80609
USER: genes 4 Torsion [N]-CA--C-[N] |==|  0.88044
USER: genes 5 Torsion [C]-N--CA-[CB] |==|  0.16111
USER: genes 6 Torsion [N]-CA--C-[N] |==|  0.12878
USER: genes 7 Torsion [N]-CA--C-[OXT] |==|  0.84597
USER: genes 8 Torsion [N]-CA--CB-[OG] |==|  0.16995
USER: genes 9 Torsion [CA]-CB--OG-[HG] |==|  0.86496
USER: genes 10 Torsion [N]-CA--CB-[CG2] |==|  0.80844
USER: genes 11 Torsion [CA]-CB--CG1-[CD1] |==|  0.68653
USER: genes 12 Torsion [N]-C--CA-[N] |==|  0.94974
USER: genes 13 Torsion [C]-CA--CB-[CG] |==|  0.73125
USER: genes 14 Torsion [CA]-CB--CG-[CD1] |==|  0.78696
USER: genes 15 Torsion [C]-CA--N-[C] |==|  0.66438
USER: genes 16 Torsion [N]-C--CA-[N] |==|  0.43737
USER: genes 17 Torsion [C]-CA--CB-[CG] |==|  0.32744
USER: genes 18 Torsion [CA]-CB--CG-[OD1] |==|  0.81513
USER: genes 19 Torsion [C]-CA--N-[C] |==|  0.61195
USER: genes 20 Torsion [N]-C--CA-[N] |==|  0.55426
USER: genes 21 Torsion [C]-CA--CB-[CG] |==|  0.78616
USER: genes 22 Torsion [CA]-CB--CG-[CD2] |==|  0.58067
ROOT
ATOM      1  C   PHE C 305      11.957   9.724  -4.107  0.50 34.66 LIG 0.24  C 
ATOM      2 O    PHE C 305      12.230  10.819  -3.624  0.50 33.80 LIG-0.27  OA
ATOM      3  N   PRO C 306      11.217   9.596  -5.226  0.50 35.29 LIG-0.34  N 
ATOM      4  CA  PRO C 306      10.316  10.670  -5.613  0.50 35.79 LIG 0.18  C 
ATOM      5  CB  PRO C 306      10.310  10.588  -7.157  0.50 35.80 LIG 0.04  C 
ATOM      6  CG  PRO C 306      11.104   9.326  -7.511  0.50 35.25 LIG 0.02  C 
ATOM      7  CD  PRO C 306      11.224   8.531  -6.240  0.50 35.51 LIG 0.13  C 
ENDROOT
BRANCH 4 8
ATOM      8  C   PRO C 306       8.905  10.392  -5.093  0.50 36.50 LIG 0.24  C 
ATOM      9  N   ILE C 307       8.658  10.780  -3.830  0.50 37.01 LIG-0.35  N 
ATOM     10 H    ILE C 307       9.243  11.109  -3.294  0.50 37.01 LIG 0.16  HD
ATOM     11 O    PRO C 306       8.056   9.845  -5.833  0.50 36.74 LIG-0.27  OA
BRANCH 9 12
ATOM     12  CA  ILE C 307       7.308  10.652  -3.279  0.50 37.44 LIG 0.18  C 
BRANCH 12 13
ATOM     13  C   ILE C 307       6.319  11.634  -3.912  0.50 38.23 LIG 0.24  C 
ATOM     14  N   SER C 308       6.785  12.869  -4.078  0.50 38.91 LIG-0.34  N 
ATOM     15 H    SER C 308       7.530  13.136  -3.742  0.50 38.91 LIG 0.16  HD
ATOM     16 O    ILE C 307       5.180  11.276  -4.246  0.50 38.79 LIG-0.27  OA
BRANCH 14 17
ATOM     17  CA  SER C 308       6.089  13.901  -4.840  0.50 39.43 LIG 0.20  C 
BRANCH 17 18
ATOM     18  C   SER C 308       6.949  15.161  -4.723  0.50 39.77 LIG 0.24  C 
ATOM     19  N   PRO C 309       8.273  15.028  -4.920  0.50 40.03 LIG-0.34  N 
ATOM     20  CD  PRO C 309       8.983  13.921  -5.580  0.50 39.83 LIG 0.13  C 
ATOM     21  CA  PRO C 309       9.188  16.089  -4.493  0.50 40.09 LIG 0.19  C 
ATOM     22  CG  PRO C 309      10.402  14.131  -5.153  0.50 40.19 LIG 0.02  C 
ATOM     23  CB  PRO C 309      10.547  15.617  -5.028  0.50 40.09 LIG 0.04  C 
ATOM     24 O    SER C 308       6.426  16.251  -4.473  0.50 39.81 LIG-0.27  OA
BRANCH 21 25
ATOM     25  C   PRO C 309       8.821  17.465  -5.047  0.50 40.04 LIG 0.20  C 
ATOM     26 OXT  PRO C 309       8.694  17.659  -6.259  0.50 40.10 LIG-0.65  OA
ATOM     27 O    PRO C 309       8.655  18.425  -4.291  0.50 40.34 LIG-0.65  OA
ENDBRANCH 21 25
ENDBRANCH 17 18
BRANCH 17 28
ATOM     28  CB  SER C 308       4.690  14.153  -4.272  0.50 39.49 LIG 0.20  C 
BRANCH 28 29
ATOM     29 OG   SER C 308       4.750  14.608  -2.927  0.50 39.70 LIG-0.40  OA
ATOM     30 HG   SER C 308       5.261  14.109  -2.485  0.50 39.70 LIG 0.21  HD
ENDBRANCH 28 29
ENDBRANCH 17 28
ENDBRANCH 14 17
ENDBRANCH 12 13
BRANCH 12 31
ATOM     31  CB  ILE C 307       7.274  10.869  -1.747  0.50 37.20 LIG 0.01  C 
ATOM     32  CG2 ILE C 307       7.972   9.714  -1.015  0.50 36.86 LIG 0.01  C 
BRANCH 31 33
ATOM     33  CG1 ILE C 307       7.876  12.245  -1.410  0.50 35.88 LIG 0.00  C 
ATOM     34  CD1 ILE C 307       9.182  12.213  -0.655  0.50 32.01 LIG 0.01  C 
ENDBRANCH 31 33
ENDBRANCH 12 31
ENDBRANCH 9 12
ENDBRANCH 4 8
BRANCH 1 35
ATOM     35  CA  PHE C 305      12.500   8.447  -3.453  0.50 34.47 LIG 0.18  C 
BRANCH 35 36
ATOM     36  CB  PHE C 305      13.989   8.343  -3.817  0.50 34.49 LIG 0.07  C 
BRANCH 36 37
ATOM     37  CG  PHE C 305      14.300   7.450  -5.007  0.50 35.55 LIG-0.06  A 
ATOM     38  CD1 PHE C 305      14.295   6.059  -4.903  0.50 36.28 LIG 0.01  A 
ATOM     39  CE1 PHE C 305      14.581   5.258  -6.013  0.50 36.66 LIG 0.00  A 
ATOM     40  CZ  PHE C 305      14.891   5.848  -7.242  0.50 36.87 LIG 0.00  A 
ATOM     41  CE2 PHE C 305      14.904   7.227  -7.359  0.50 36.76 LIG 0.00  A 
ATOM     42  CD2 PHE C 305      14.618   8.024  -6.239  0.50 36.02 LIG 0.01  A 
ENDBRANCH 36 37
ENDBRANCH 35 36
BRANCH 35 43
ATOM     43  N   PHE C 305      11.826   7.209  -3.863  0.50 33.54 LIG-0.35  N 
ATOM     44 H    PHE C 305      11.858   7.045  -4.707  0.50 33.54 LIG 0.16  HD
ATOM     45  C   ASN C 304      11.224   6.429  -2.965  0.50 33.07 LIG 0.24  C 
ATOM     46 O    ASN C 304      10.884   6.837  -1.848  0.50 33.39 LIG-0.27  OA
BRANCH 45 47
ATOM     47  CA  ASN C 304      10.979   4.972  -3.383  0.50 32.40 LIG 0.18  C 
BRANCH 47 48
ATOM     48  CB  ASN C 304       9.741   4.802  -4.278  0.50 32.38 LIG 0.14  C 
BRANCH 48 49
ATOM     49  CG  ASN C 304      10.081   4.251  -5.686  0.50 31.77 LIG 0.22  C 
ATOM     50 OD1  ASN C 304      10.735   4.911  -6.485  0.50 27.48 LIG-0.27  OA
ATOM     51  ND2 ASN C 304       9.590   3.056  -5.989  0.50 32.56 LIG-0.37  N 
ATOM     52 21HD ASN C 304       9.727   2.721  -6.770  0.50 32.56 LIG 0.16  HD
ATOM     53 22HD ASN C 304       9.135   2.618  -5.406  0.50 32.56 LIG 0.16  HD
ENDBRANCH 48 49
ENDBRANCH 47 48
BRANCH 47 54
ATOM     54  N   ASN C 304      10.830   4.133  -2.219  0.50 31.56 LIG-0.34  N 
ATOM     55  C   LEU C 303      11.372   2.925  -2.185  0.50 30.83 LIG 0.26  C 
ATOM     56 O    LEU C 303      12.184   2.546  -3.017  0.50 29.02 LIG-0.27  OA
ATOM     57 H    ASN C 304      10.374   4.480  -1.578  0.50 31.56 LIG 0.16  HD
BRANCH 55 58
ATOM     58  CA  LEU C 303      10.922   2.023  -1.028  0.50 30.56 LIG 0.40  C 
ATOM     59  N   LEU C 303      11.853   0.895  -0.750  0.50 30.88 LIG 0.61  N 
BRANCH 58 60
ATOM     60  CB  LEU C 303      10.686   2.841   0.248  0.50 30.80 LIG 0.06  C 
BRANCH 60 61
ATOM     61  CG  LEU C 303      11.915   3.297   1.044  0.50 30.92 LIG-0.02  C 
ATOM     62  CD2 LEU C 303      11.579   3.431   2.541  0.50 31.43 LIG 0.01  C 
ATOM     63  CD1 LEU C 303      12.493   4.584   0.481  0.50 30.50 LIG 0.01  C 
ENDBRANCH 60 61
ENDBRANCH 58 60
ENDBRANCH 55 58
ENDBRANCH 47 54
ENDBRANCH 45 47
ENDBRANCH 35 43
ENDBRANCH 1 35
TORSDOF 21
ENDMDL
MODEL 154
USER: ADFR SOLUTION from run 100
USER: SCORE 17.690298 LL:  -6.827 LR: -12.718 RR:   0.000 FEB:  -6.454
USER: RMSD 7.312830
USER: SEED 99
USER: STATUS no improvement in best in 28 clusters for 5 generations
USER: GENES 23
USER: genes 0 Translation |==|  0.54902 0.60696 0.35451
USER: genes 1 Rotation |==|  0.32016 0.66422 0.80762 0.80993
USER: genes 2 Torsion [N]-CA--C-[N] |==|  0.97915
USER: genes 3 Torsion [C]-N--CA-[C] |==|  0.66610
USER: genes 4 Torsion [N]-CA--C-[N] |==|  0.57990
USER: genes 5 Torsion [C]-N--CA-[CB] |==|  0.53333
USER: genes 6 Torsion [N]-CA--C-[N] |==|  0.31413
USER: genes 7 Torsion [N]-CA--C-[OXT] |==|  0.88166
USER: genes 8 Torsion [N]-CA--CB-[OG] |==|  0.91122
USER: genes 9 Torsion [CA]-CB--OG-[HG] |==|  0.92408
USER: genes 10 Torsion [N]-CA--CB-[CG2] |==|  0.78910
USER: genes 11 Torsion [CA]-CB--CG1-[CD1] |==|  0.34373
USER: genes 12 Torsion [N]-C--CA-[N] |==|  0.00672
USER: genes 13 Torsion [C]-CA--CB-[CG] |==|  0.36313
USER: genes 14 Torsion [CA]-CB--CG-[CD1] |==|  0.39113
USER: genes 15 Torsion [C]-CA--N-[C] |==|  0.68354
USER: genes 16 Torsion [N]-C--CA-[N] |==|  0.82430
USER: genes 17 Torsion [C]-CA--CB-[CG] |==|  0.45472
USER: genes 18 Torsion [CA]-CB--CG-[OD1] |==|  0.96852
USER: genes 19 Torsion [C]-CA--N-[C] |==|  0.64981
USER: genes 20 Torsion [N]-C--CA-[N] |==|  0.26833
USER: genes 21 Torsion [C]-CA--CB-[CG] |==|  0.19395
USER: genes 22 Torsion [CA]-CB--CG-[CD2] |==|  0.44209
ROOT
ATOM      1  C   PHE C 305      14.642   9.398  -3.220  0.50 34.66 LIG 0.24  C 
ATOM      2 O    PHE C 305      15.553   9.362  -4.042  0.50 33.80 LIG-0.27  OA
ATOM      3  N   PRO C 306      14.873   9.413  -1.893  0.50 35.29 LIG-0.34  N 
ATOM      4  CA  PRO C 306      16.131   8.894  -1.380  0.50 35.79 LIG 0.18  C 
ATOM      5  CB  PRO C 306      16.383   9.755  -0.120  0.50 35.80 LIG 0.04  C 
ATOM      6  CG  PRO C 306      15.117  10.600   0.066  0.50 35.25 LIG 0.02  C 
ATOM      7  CD  PRO C 306      14.060   9.980  -0.805  0.50 35.51 LIG 0.13  C 
ENDROOT
BRANCH 4 8
ATOM      8  C   PRO C 306      15.969   7.431  -0.960  0.50 36.50 LIG 0.24  C 
ATOM      9  N   ILE C 307      14.715   6.950  -0.983  0.50 37.01 LIG-0.35  N 
ATOM     10 H    ILE C 307      14.013   7.415  -1.155  0.50 37.01 LIG 0.16  HD
ATOM     11 O    PRO C 306      16.970   6.754  -0.634  0.50 36.74 LIG-0.27  OA
BRANCH 9 12
ATOM     12  CA  ILE C 307      14.472   5.534  -0.700  0.50 37.44 LIG 0.18  C 
BRANCH 12 13
ATOM     13  C   ILE C 307      13.798   4.809  -1.867  0.50 38.23 LIG 0.24  C 
ATOM     14  N   SER C 308      13.034   3.777  -1.518  0.50 38.91 LIG-0.34  N 
ATOM     15 H    SER C 308      13.018   3.457  -0.719  0.50 38.91 LIG 0.16  HD
ATOM     16 O    ILE C 307      13.960   5.181  -3.038  0.50 38.79 LIG-0.27  OA
BRANCH 14 17
ATOM     17  CA  SER C 308      12.146   3.078  -2.442  0.50 39.43 LIG 0.20  C 
BRANCH 17 18
ATOM     18  C   SER C 308      11.359   4.168  -3.173  0.50 39.77 LIG 0.24  C 
ATOM     19  N   PRO C 309      11.589   4.321  -4.490  0.50 40.03 LIG-0.34  N 
ATOM     20  CD  PRO C 309      12.222   3.367  -5.415  0.50 39.83 LIG 0.13  C 
ATOM     21  CA  PRO C 309      11.148   5.538  -5.174  0.50 40.09 LIG 0.19  C 
ATOM     22  CG  PRO C 309      12.552   4.219  -6.600  0.50 40.19 LIG 0.02  C 
ATOM     23  CB  PRO C 309      11.461   5.245  -6.648  0.50 40.09 LIG 0.04  C 
ATOM     24 O    SER C 308      10.538   4.858  -2.562  0.50 39.81 LIG-0.27  OA
BRANCH 21 25
ATOM     25  C   PRO C 309       9.665   5.844  -4.972  0.50 40.04 LIG 0.20  C 
ATOM     26 OXT  PRO C 309       8.810   4.956  -5.028  0.50 40.10 LIG-0.65  OA
ATOM     27 O    PRO C 309       9.282   6.997  -4.760  0.50 40.34 LIG-0.65  OA
ENDBRANCH 21 25
ENDBRANCH 17 18
BRANCH 17 28
ATOM     28  CB  SER C 308      11.195   2.146  -1.687  0.50 39.49 LIG 0.20  C 
BRANCH 28 29
ATOM     29 OG   SER C 308      11.802   1.624  -0.514  0.50 39.70 LIG-0.40  OA
ATOM     30 HG   SER C 308      12.635   1.597  -0.617  0.50 39.70 LIG 0.21  HD
ENDBRANCH 28 29
ENDBRANCH 17 28
ENDBRANCH 14 17
ENDBRANCH 12 13
BRANCH 12 31
ATOM     31  CB  ILE C 307      13.594   5.326   0.557  0.50 37.20 LIG 0.01  C 
ATOM     32  CG2 ILE C 307      14.408   5.560   1.839  0.50 36.86 LIG 0.01  C 
BRANCH 31 33
ATOM     33  CG1 ILE C 307      12.346   6.223   0.465  0.50 35.88 LIG 0.00  C 
ATOM     34  CD1 ILE C 307      11.023   5.504   0.567  0.50 32.01 LIG 0.01  C 
ENDBRANCH 31 33
ENDBRANCH 12 31
ENDBRANCH 9 12
ENDBRANCH 4 8
BRANCH 1 35
ATOM     35  CA  PHE C 305      13.186   9.469  -3.699  0.50 34.47 LIG 0.18  C 
BRANCH 35 36
ATOM     36  CB  PHE C 305      13.072  10.681  -4.637  0.50 34.49 LIG 0.07  C 
BRANCH 36 37
ATOM     37  CG  PHE C 305      12.390  10.404  -5.967  0.50 35.55 LIG-0.06  A 
ATOM     38  CD1 PHE C 305      11.515  11.320  -6.549  0.50 36.28 LIG 0.01  A 
ATOM     39  CE1 PHE C 305      10.902  11.044  -7.775  0.50 36.66 LIG 0.00  A 
ATOM     40  CZ  PHE C 305      11.153   9.833  -8.427  0.50 36.87 LIG 0.00  A 
ATOM     41  CE2 PHE C 305      12.016   8.913  -7.859  0.50 36.76 LIG 0.00  A 
ATOM     42  CD2 PHE C 305      12.624   9.196  -6.627  0.50 36.02 LIG 0.01  A 
ENDBRANCH 36 37
ENDBRANCH 35 36
BRANCH 35 43
ATOM     43  N   PHE C 305      12.191   9.603  -2.630  0.50 33.54 LIG-0.35  N 
ATOM     44 H    PHE C 305      12.227  10.344  -2.195  0.50 33.54 LIG 0.16  HD
ATOM     45  C   ASN C 304      11.315   8.628  -2.385  0.50 33.07 LIG 0.24  C 
ATOM     46 O    ASN C 304      11.493   7.462  -2.759  0.50 33.39 LIG-0.27  OA
BRANCH 45 47
ATOM     47  CA  ASN C 304      10.050   9.025  -1.613  0.50 32.40 LIG 0.18  C 
BRANCH 47 48
ATOM     48  CB  ASN C 304       9.227  10.112  -2.322  0.50 32.38 LIG 0.14  C 
BRANCH 48 49
ATOM     49  CG  ASN C 304       7.781  10.230  -1.777  0.50 31.77 LIG 0.22  C 
ATOM     50 OD1  ASN C 304       7.315   9.384  -1.023  0.50 27.48 LIG-0.27  OA
ATOM     51  ND2 ASN C 304       7.069  11.265  -2.206  0.50 32.56 LIG-0.37  N 
ATOM     52 21HD ASN C 304       6.251  11.358  -1.955  0.50 32.56 LIG 0.16  HD
ATOM     53 22HD ASN C 304       7.425  11.843  -2.735  0.50 32.56 LIG 0.16  HD
ENDBRANCH 48 49
ENDBRANCH 47 48
BRANCH 47 54
ATOM     54  N   ASN C 304      10.392   9.491  -0.291  0.50 31.56 LIG-0.34  N 
ATOM     55  C   LEU C 303       9.828   8.953   0.781  0.50 30.83 LIG 0.26  C 
ATOM     56 O    LEU C 303       9.173   7.922   0.730  0.50 29.02 LIG-0.27  OA
ATOM     57 H    ASN C 304      10.973  10.124  -0.269  0.50 31.56 LIG 0.16  HD
BRANCH 55 58
ATOM     58  CA  LEU C 303      10.053   9.702   2.101  0.50 30.56 LIG 0.40  C 
ATOM     59  N   LEU C 303       8.937  10.616   2.470  0.50 30.88 LIG 0.61  N 
BRANCH 58 60
ATOM     60  CB  LEU C 303      10.337   8.724   3.247  0.50 30.80 LIG 0.06  C 
BRANCH 60 61
ATOM     61  CG  LEU C 303      11.676   7.976   3.235  0.50 30.92 LIG-0.02  C 
ATOM     62  CD2 LEU C 303      12.029   7.465   4.644  0.50 31.43 LIG 0.01  C 
ATOM     63  CD1 LEU C 303      12.785   8.836   2.655  0.50 30.50 LIG 0.01  C 
ENDBRANCH 60 61
ENDBRANCH 58 60
ENDBRANCH 55 58
ENDBRANCH 47 54
ENDBRANCH 45 47
ENDBRANCH 35 43
ENDBRANCH 1 35
TORSDOF 21
ENDMDL
MODEL 155
USER: ADFR SOLUTION from run 99
USER: SCORE 17.171301 LL:  -6.296 LR: -12.706 RR:   0.000 FEB:  -6.442
USER: RMSD 12.636302
USER: SEED 98
USER: STATUS no improvement in best in 16 clusters for 5 generations
USER: GENES 23
USER: genes 0 Translation |==|  0.41540 0.53077 0.24008
USER: genes 1 Rotation |==|  0.82817 0.17989 0.35084 0.63262
USER: genes 2 Torsion [N]-CA--C-[N] |==|  0.85498
USER: genes 3 Torsion [C]-N--CA-[C] |==|  0.81519
USER: genes 4 Torsion [N]-CA--C-[N] |==|  0.40442
USER: genes 5 Torsion [C]-N--CA-[CB] |==|  0.39273
USER: genes 6 Torsion [N]-CA--C-[N] |==|  0.23509
USER: genes 7 Torsion [N]-CA--C-[OXT] |==|  0.28784
USER: genes 8 Torsion [N]-CA--CB-[OG] |==|  0.00934
USER: genes 9 Torsion [CA]-CB--OG-[HG] |==|  0.87289
USER: genes 10 Torsion [N]-CA--CB-[CG2] |==|  0.35139
USER: genes 11 Torsion [CA]-CB--CG1-[CD1] |==|  0.22197
USER: genes 12 Torsion [N]-C--CA-[N] |==|  0.44430
USER: genes 13 Torsion [C]-CA--CB-[CG] |==|  0.31699
USER: genes 14 Torsion [CA]-CB--CG-[CD1] |==|  0.29932
USER: genes 15 Torsion [C]-CA--N-[C] |==|  0.71264
USER: genes 16 Torsion [N]-C--CA-[N] |==|  0.36881
USER: genes 17 Torsion [C]-CA--CB-[CG] |==|  0.08843
USER: genes 18 Torsion [CA]-CB--CG-[OD1] |==|  0.24630
USER: genes 19 Torsion [C]-CA--N-[C] |==|  0.83191
USER: genes 20 Torsion [N]-C--CA-[N] |==|  0.49475
USER: genes 21 Torsion [C]-CA--CB-[CG] |==|  0.90250
USER: genes 22 Torsion [CA]-CB--CG-[CD2] |==|  0.64620
ROOT
ATOM      1  C   PHE C 305      11.235   7.570  -5.537  0.50 34.66 LIG 0.24  C 
ATOM      2 O    PHE C 305      12.195   6.884  -5.876  0.50 33.80 LIG-0.27  OA
ATOM      3  N   PRO C 306      10.914   8.717  -6.167  0.50 35.29 LIG-0.34  N 
ATOM      4  CA  PRO C 306      11.937   9.434  -6.912  0.50 35.79 LIG 0.18  C 
ATOM      5  CB  PRO C 306      11.140  10.103  -8.056  0.50 35.80 LIG 0.04  C 
ATOM      6  CG  PRO C 306       9.663   9.831  -7.748  0.50 35.25 LIG 0.02  C 
ATOM      7  CD  PRO C 306       9.605   9.371  -6.317  0.50 35.51 LIG 0.13  C 
ENDROOT
BRANCH 4 8
ATOM      8  C   PRO C 306      12.564  10.523  -6.038  0.50 36.50 LIG 0.24  C 
ATOM      9  N   ILE C 307      11.704  11.368  -5.446  0.50 37.01 LIG-0.35  N 
ATOM     10 H    ILE C 307      10.853  11.372  -5.572  0.50 37.01 LIG 0.16  HD
ATOM     11 O    PRO C 306      13.806  10.581  -5.898  0.50 36.74 LIG-0.27  OA
BRANCH 9 12
ATOM     12  CA  ILE C 307      12.200  12.376  -4.508  0.50 37.44 LIG 0.18  C 
BRANCH 12 13
ATOM     13  C   ILE C 307      12.776  11.758  -3.231  0.50 38.23 LIG 0.24  C 
ATOM     14  N   SER C 308      13.812  12.412  -2.712  0.50 38.91 LIG-0.34  N 
ATOM     15 H    SER C 308      14.213  13.053  -3.123  0.50 38.91 LIG 0.16  HD
ATOM     16 O    ILE C 307      12.289  10.733  -2.735  0.50 38.79 LIG-0.27  OA
BRANCH 14 17
ATOM     17  CA  SER C 308      14.380  12.117  -1.400  0.50 39.43 LIG 0.20  C 
BRANCH 17 18
ATOM     18  C   SER C 308      13.783  13.152  -0.443  0.50 39.77 LIG 0.24  C 
ATOM     19  N   PRO C 309      12.577  12.883   0.088  0.50 40.03 LIG-0.34  N 
ATOM     20  CD  PRO C 309      11.894  11.582   0.170  0.50 39.83 LIG 0.13  C 
ATOM     21  CA  PRO C 309      11.800  13.950   0.722  0.50 40.09 LIG 0.19  C 
ATOM     22  CG  PRO C 309      10.481  11.964   0.480  0.50 40.19 LIG 0.02  C 
ATOM     23  CB  PRO C 309      10.597  13.205   1.313  0.50 40.09 LIG 0.04  C 
ATOM     24 O    SER C 308      14.410  14.180  -0.169  0.50 39.81 LIG-0.27  OA
BRANCH 21 25
ATOM     25  C   PRO C 309      12.574  14.702   1.805  0.50 40.04 LIG 0.20  C 
ATOM     26 OXT  PRO C 309      13.041  15.826   1.601  0.50 40.10 LIG-0.65  OA
ATOM     27 O    PRO C 309      12.761  14.194   2.913  0.50 40.34 LIG-0.65  OA
ENDBRANCH 21 25
ENDBRANCH 17 18
BRANCH 17 28
ATOM     28  CB  SER C 308      15.906  12.229  -1.426  0.50 39.49 LIG 0.20  C 
BRANCH 28 29
ATOM     29 OG   SER C 308      16.373  12.663  -2.695  0.50 39.70 LIG-0.40  OA
ATOM     30 HG   SER C 308      15.981  12.233  -3.301  0.50 39.70 LIG 0.21  HD
ENDBRANCH 28 29
ENDBRANCH 17 28
ENDBRANCH 14 17
ENDBRANCH 12 13
BRANCH 12 31
ATOM     31  CB  ILE C 307      11.103  13.385  -4.092  0.50 37.20 LIG 0.01  C 
ATOM     32  CG2 ILE C 307      10.987  13.468  -2.562  0.50 36.86 LIG 0.01  C 
BRANCH 31 33
ATOM     33  CG1 ILE C 307      11.385  14.748  -4.748  0.50 35.88 LIG 0.00  C 
ATOM     34  CD1 ILE C 307      10.964  14.872  -6.192  0.50 32.01 LIG 0.01  C 
ENDBRANCH 31 33
ENDBRANCH 12 31
ENDBRANCH 9 12
ENDBRANCH 4 8
BRANCH 1 35
ATOM     35  CA  PHE C 305      10.333   7.102  -4.387  0.50 34.47 LIG 0.18  C 
BRANCH 35 36
ATOM     36  CB  PHE C 305      10.710   7.926  -3.147  0.50 34.49 LIG 0.07  C 
BRANCH 36 37
ATOM     37  CG  PHE C 305       9.625   8.864  -2.643  0.50 35.55 LIG-0.06  A 
ATOM     38  CD1 PHE C 305       8.918   8.609  -1.469  0.50 36.28 LIG 0.01  A 
ATOM     39  CE1 PHE C 305       7.927   9.489  -1.024  0.50 36.66 LIG 0.00  A 
ATOM     40  CZ  PHE C 305       7.623  10.634  -1.766  0.50 36.87 LIG 0.00  A 
ATOM     41  CE2 PHE C 305       8.312  10.898  -2.936  0.50 36.76 LIG 0.00  A 
ATOM     42  CD2 PHE C 305       9.304  10.009  -3.376  0.50 36.02 LIG 0.01  A 
ENDBRANCH 36 37
ENDBRANCH 35 36
BRANCH 35 43
ATOM     43  N   PHE C 305      10.442   5.676  -4.058  0.50 33.54 LIG-0.35  N 
ATOM     44 H    PHE C 305      11.146   5.463  -3.611  0.50 33.54 LIG 0.16  HD
ATOM     45  C   ASN C 304       9.502   4.812  -4.441  0.50 33.07 LIG 0.24  C 
ATOM     46 O    ASN C 304       8.707   5.054  -5.357  0.50 33.39 LIG-0.27  OA
BRANCH 45 47
ATOM     47  CA  ASN C 304       9.442   3.485  -3.673  0.50 32.40 LIG 0.18  C 
BRANCH 47 48
ATOM     48  CB  ASN C 304      10.009   2.300  -4.470  0.50 32.38 LIG 0.14  C 
BRANCH 48 49
ATOM     49  CG  ASN C 304      11.158   2.706  -5.427  0.50 31.77 LIG 0.22  C 
ATOM     50 OD1  ASN C 304      12.324   2.718  -5.051  0.50 27.48 LIG-0.27  OA
ATOM     51  ND2 ASN C 304      10.805   3.082  -6.650  0.50 32.56 LIG-0.37  N 
ATOM     52 21HD ASN C 304      11.404   3.344  -7.209  0.50 32.56 LIG 0.16  HD
ATOM     53 22HD ASN C 304       9.978   3.062  -6.885  0.50 32.56 LIG 0.16  HD
ENDBRANCH 48 49
ENDBRANCH 47 48
BRANCH 47 54
ATOM     54  N   ASN C 304       8.082   3.183  -3.295  0.50 31.56 LIG-0.34  N 
ATOM     55  C   LEU C 303       7.402   4.004  -2.510  0.50 30.83 LIG 0.26  C 
ATOM     56 O    LEU C 303       7.793   5.132  -2.244  0.50 29.02 LIG-0.27  OA
ATOM     57 H    ASN C 304       7.772   2.448  -3.617  0.50 31.56 LIG 0.16  HD
BRANCH 55 58
ATOM     58  CA  LEU C 303       6.082   3.456  -1.953  0.50 30.56 LIG 0.40  C 
ATOM     59  N   LEU C 303       5.377   4.399  -1.042  0.50 30.88 LIG 0.61  N 
BRANCH 58 60
ATOM     60  CB  LEU C 303       5.146   3.017  -3.086  0.50 30.80 LIG 0.06  C 
BRANCH 60 61
ATOM     61  CG  LEU C 303       5.165   3.831  -4.386  0.50 30.92 LIG-0.02  C 
ATOM     62  CD2 LEU C 303       3.742   4.274  -4.775  0.50 31.43 LIG 0.01  C 
ATOM     63  CD1 LEU C 303       5.840   3.065  -5.510  0.50 30.50 LIG 0.01  C 
ENDBRANCH 60 61
ENDBRANCH 58 60
ENDBRANCH 55 58
ENDBRANCH 47 54
ENDBRANCH 45 47
ENDBRANCH 35 43
ENDBRANCH 1 35
TORSDOF 21
ENDMDL
MODEL 156
USER: ADFR SOLUTION from run 27
USER: SCORE 18.238825 LL:  -5.992 LR: -12.707 RR:   0.000 FEB:  -6.443
USER: RMSD 7.070889
USER: SEED 26
USER: STATUS no improvement in best in 10 clusters for 5 generations
USER: GENES 23
USER: genes 0 Translation |==|  0.42201 0.51868 0.24466
USER: genes 1 Rotation |==|  0.60060 0.78629 0.77886 0.78311
USER: genes 2 Torsion [N]-CA--C-[N] |==|  0.09792
USER: genes 3 Torsion [C]-N--CA-[C] |==|  0.56786
USER: genes 4 Torsion [N]-CA--C-[N] |==|  0.42873
USER: genes 5 Torsion [C]-N--CA-[CB] |==|  0.12795
USER: genes 6 Torsion [N]-CA--C-[N] |==|  0.13802
USER: genes 7 Torsion [N]-CA--C-[OXT] |==|  0.82296
USER: genes 8 Torsion [N]-CA--CB-[OG] |==|  0.56208
USER: genes 9 Torsion [CA]-CB--OG-[HG] |==|  0.48743
USER: genes 10 Torsion [N]-CA--CB-[CG2] |==|  0.96391
USER: genes 11 Torsion [CA]-CB--CG1-[CD1] |==|  0.52006
USER: genes 12 Torsion [N]-C--CA-[N] |==|  0.95000
USER: genes 13 Torsion [C]-CA--CB-[CG] |==|  0.86205
USER: genes 14 Torsion [CA]-CB--CG-[CD1] |==|  0.75730
USER: genes 15 Torsion [C]-CA--N-[C] |==|  0.73639
USER: genes 16 Torsion [N]-C--CA-[N] |==|  0.95027
USER: genes 17 Torsion [C]-CA--CB-[CG] |==|  0.85071
USER: genes 18 Torsion [CA]-CB--CG-[OD1] |==|  0.38971
USER: genes 19 Torsion [C]-CA--N-[C] |==|  0.79136
USER: genes 20 Torsion [N]-C--CA-[N] |==|  0.27474
USER: genes 21 Torsion [C]-CA--CB-[CG] |==|  0.73569
USER: genes 22 Torsion [CA]-CB--CG-[CD2] |==|  0.62606
ROOT
ATOM      1  C   PHE C 305      11.403   7.279  -5.445  0.50 34.66 LIG 0.24  C 
ATOM      2 O    PHE C 305      11.127   7.423  -6.632  0.50 33.80 LIG-0.27  OA
ATOM      3  N   PRO C 306      12.440   6.523  -5.035  0.50 35.29 LIG-0.34  N 
ATOM      4  CA  PRO C 306      12.949   5.475  -5.907  0.50 35.79 LIG 0.18  C 
ATOM      5  CB  PRO C 306      14.455   5.424  -5.559  0.50 35.80 LIG 0.04  C 
ATOM      6  CG  PRO C 306      14.637   6.364  -4.362  0.50 35.25 LIG 0.02  C 
ATOM      7  CD  PRO C 306      13.261   6.633  -3.820  0.50 35.51 LIG 0.13  C 
ENDROOT
BRANCH 4 8
ATOM      8  C   PRO C 306      12.308   4.132  -5.550  0.50 36.50 LIG 0.24  C 
ATOM      9  N   ILE C 307      11.026   4.181  -5.151  0.50 37.01 LIG-0.35  N 
ATOM     10 H    ILE C 307      10.577   4.903  -5.029  0.50 37.01 LIG 0.16  HD
ATOM     11 O    PRO C 306      12.967   3.073  -5.650  0.50 36.74 LIG-0.27  OA
BRANCH 9 12
ATOM     12  CA  ILE C 307      10.296   2.940  -4.890  0.50 37.44 LIG 0.18  C 
BRANCH 12 13
ATOM     13  C   ILE C 307       8.781   3.107  -5.033  0.50 38.23 LIG 0.24  C 
ATOM     14  N   SER C 308       8.122   1.993  -5.339  0.50 38.91 LIG-0.34  N 
ATOM     15 H    SER C 308       8.518   1.264  -5.567  0.50 38.91 LIG 0.16  HD
ATOM     16 O    ILE C 307       8.235   4.206  -4.862  0.50 38.79 LIG-0.27  OA
BRANCH 14 17
ATOM     17  CA  SER C 308       6.666   1.883  -5.324  0.50 39.43 LIG 0.20  C 
BRANCH 17 18
ATOM     18  C   SER C 308       6.335   0.587  -6.066  0.50 39.77 LIG 0.24  C 
ATOM     19  N   PRO C 309       6.997  -0.525  -5.698  0.50 40.03 LIG-0.34  N 
ATOM     20  CD  PRO C 309       7.739  -0.765  -4.449  0.50 39.83 LIG 0.13  C 
ATOM     21  CA  PRO C 309       6.994  -1.702  -6.568  0.50 40.09 LIG 0.19  C 
ATOM     22  CG  PRO C 309       8.560  -1.972  -4.775  0.50 40.19 LIG 0.02  C 
ATOM     23  CB  PRO C 309       7.715  -2.763  -5.726  0.50 40.09 LIG 0.04  C 
ATOM     24 O    SER C 308       5.477   0.580  -6.954  0.50 39.81 LIG-0.27  OA
BRANCH 21 25
ATOM     25  C   PRO C 309       5.590  -2.164  -6.959  0.50 40.04 LIG 0.20  C 
ATOM     26 OXT  PRO C 309       4.787  -2.572  -6.114  0.50 40.10 LIG-0.65  OA
ATOM     27 O    PRO C 309       5.227  -2.151  -8.137  0.50 40.34 LIG-0.65  OA
ENDBRANCH 21 25
ENDBRANCH 17 18
BRANCH 17 28
ATOM     28  CB  SER C 308       6.019   3.081  -6.023  0.50 39.49 LIG 0.20  C 
BRANCH 28 29
ATOM     29 OG   SER C 308       4.678   3.271  -5.595  0.50 39.70 LIG-0.40  OA
ATOM     30 HG   SER C 308       4.368   3.968  -5.946  0.50 39.70 LIG 0.21  HD
ENDBRANCH 28 29
ENDBRANCH 17 28
ENDBRANCH 14 17
ENDBRANCH 12 13
BRANCH 12 31
ATOM     31  CB  ILE C 307      10.578   2.376  -3.476  0.50 37.20 LIG 0.01  C 
ATOM     32  CG2 ILE C 307      11.785   3.079  -2.837  0.50 36.86 LIG 0.01  C 
BRANCH 31 33
ATOM     33  CG1 ILE C 307       9.302   2.475  -2.621  0.50 35.88 LIG 0.00  C 
ATOM     34  CD1 ILE C 307       9.470   2.119  -1.164  0.50 32.01 LIG 0.01  C 
ENDBRANCH 31 33
ENDBRANCH 12 31
ENDBRANCH 9 12
ENDBRANCH 4 8
BRANCH 1 35
ATOM     35  CA  PHE C 305      10.577   8.008  -4.377  0.50 34.47 LIG 0.18  C 
BRANCH 35 36
ATOM     36  CB  PHE C 305      11.003   9.484  -4.398  0.50 34.49 LIG 0.07  C 
BRANCH 36 37
ATOM     37  CG  PHE C 305      12.503   9.723  -4.347  0.50 35.55 LIG-0.06  A 
ATOM     38  CD1 PHE C 305      13.193   9.814  -3.139  0.50 36.28 LIG 0.01  A 
ATOM     39  CE1 PHE C 305      14.574  10.031  -3.118  0.50 36.66 LIG 0.00  A 
ATOM     40  CZ  PHE C 305      15.279  10.172  -4.316  0.50 36.87 LIG 0.00  A 
ATOM     41  CE2 PHE C 305      14.608  10.088  -5.523  0.50 36.76 LIG 0.00  A 
ATOM     42  CD2 PHE C 305      13.221   9.873  -5.535  0.50 36.02 LIG 0.01  A 
ENDBRANCH 36 37
ENDBRANCH 35 36
BRANCH 35 43
ATOM     43  N   PHE C 305      10.737   7.490  -3.013  0.50 33.54 LIG-0.35  N 
ATOM     44 H    PHE C 305      11.409   7.811  -2.582  0.50 33.54 LIG 0.16  HD
ATOM     45  C   ASN C 304       9.885   6.592  -2.519  0.50 33.07 LIG 0.24  C 
ATOM     46 O    ASN C 304       9.162   5.892  -3.238  0.50 33.39 LIG-0.27  OA
BRANCH 45 47
ATOM     47  CA  ASN C 304       9.832   6.472  -0.990  0.50 32.40 LIG 0.18  C 
BRANCH 47 48
ATOM     48  CB  ASN C 304       8.587   7.130  -0.375  0.50 32.38 LIG 0.14  C 
BRANCH 48 49
ATOM     49  CG  ASN C 304       8.408   8.609  -0.804  0.50 31.77 LIG 0.22  C 
ATOM     50 OD1  ASN C 304       7.300   9.066  -1.061  0.50 27.48 LIG-0.27  OA
ATOM     51  ND2 ASN C 304       9.516   9.330  -0.921  0.50 32.56 LIG-0.37  N 
ATOM     52 21HD ASN C 304       9.471  10.148  -1.184  0.50 32.56 LIG 0.16  HD
ATOM     53 22HD ASN C 304      10.279   8.981  -0.733  0.50 32.56 LIG 0.16  HD
ENDBRANCH 48 49
ENDBRANCH 47 48
BRANCH 47 54
ATOM     54  N   ASN C 304      11.009   7.061  -0.398  0.50 31.56 LIG-0.34  N 
ATOM     55  C   LEU C 303      12.174   6.433  -0.446  0.50 30.83 LIG 0.26  C 
ATOM     56 O    LEU C 303      12.365   5.457  -1.157  0.50 29.02 LIG-0.27  OA
ATOM     57 H    ASN C 304      10.883   7.826  -0.027  0.50 31.56 LIG 0.16  HD
BRANCH 55 58
ATOM     58  CA  LEU C 303      13.282   7.010   0.444  0.50 30.56 LIG 0.40  C 
ATOM     59  N   LEU C 303      13.457   6.284   1.732  0.50 30.88 LIG 0.61  N 
BRANCH 58 60
ATOM     60  CB  LEU C 303      14.615   7.079  -0.310  0.50 30.80 LIG 0.06  C 
BRANCH 60 61
ATOM     61  CG  LEU C 303      15.597   5.914  -0.137  0.50 30.92 LIG-0.02  C 
ATOM     62  CD2 LEU C 303      17.027   6.434   0.101  0.50 31.43 LIG 0.01  C 
ATOM     63  CD1 LEU C 303      15.536   4.959  -1.316  0.50 30.50 LIG 0.01  C 
ENDBRANCH 60 61
ENDBRANCH 58 60
ENDBRANCH 55 58
ENDBRANCH 47 54
ENDBRANCH 45 47
ENDBRANCH 35 43
ENDBRANCH 1 35
TORSDOF 21
ENDMDL
MODEL 157
USER: ADFR SOLUTION from run 155
USER: SCORE 17.748627 LL:  -6.267 LR: -12.710 RR:   0.000 FEB:  -6.446
USER: RMSD 12.738709
USER: SEED 154
USER: STATUS no improvement in best in 60 clusters for 5 generations
USER: GENES 23
USER: genes 0 Translation |==|  0.28690 0.64339 0.39201
USER: genes 1 Rotation |==|  0.53830 0.96777 0.33915 0.56205
USER: genes 2 Torsion [N]-CA--C-[N] |==|  0.96905
USER: genes 3 Torsion [C]-N--CA-[C] |==|  0.79750
USER: genes 4 Torsion [N]-CA--C-[N] |==|  0.32716
USER: genes 5 Torsion [C]-N--CA-[CB] |==|  0.52459
USER: genes 6 Torsion [N]-CA--C-[N] |==|  0.42066
USER: genes 7 Torsion [N]-CA--C-[OXT] |==|  0.74099
USER: genes 8 Torsion [N]-CA--CB-[OG] |==|  0.88538
USER: genes 9 Torsion [CA]-CB--OG-[HG] |==|  0.25628
USER: genes 10 Torsion [N]-CA--CB-[CG2] |==|  0.58640
USER: genes 11 Torsion [CA]-CB--CG1-[CD1] |==|  0.75257
USER: genes 12 Torsion [N]-C--CA-[N] |==|  0.51047
USER: genes 13 Torsion [C]-CA--CB-[CG] |==|  0.37915
USER: genes 14 Torsion [CA]-CB--CG-[CD1] |==|  0.46083
USER: genes 15 Torsion [C]-CA--N-[C] |==|  0.72066
USER: genes 16 Torsion [N]-C--CA-[N] |==|  0.02693
USER: genes 17 Torsion [C]-CA--CB-[CG] |==|  0.48321
USER: genes 18 Torsion [CA]-CB--CG-[OD1] |==|  0.16832
USER: genes 19 Torsion [C]-CA--N-[C] |==|  0.18767
USER: genes 20 Torsion [N]-C--CA-[N] |==|  0.67212
USER: genes 21 Torsion [C]-CA--CB-[CG] |==|  0.28250
USER: genes 22 Torsion [CA]-CB--CG-[CD2] |==|  0.29477
ROOT
ATOM      1  C   PHE C 305       7.958  10.272  -2.461  0.50 34.66 LIG 0.24  C 
ATOM      2 O    PHE C 305       6.998   9.941  -1.772  0.50 33.80 LIG-0.27  OA
ATOM      3  N   PRO C 306       9.089   9.542  -2.515  0.50 35.29 LIG-0.34  N 
ATOM      4  CA  PRO C 306       9.412   8.641  -1.421  0.50 35.79 LIG 0.18  C 
ATOM      5  CB  PRO C 306      10.179   7.494  -2.119  0.50 35.80 LIG 0.04  C 
ATOM      6  CG  PRO C 306      10.372   7.947  -3.571  0.50 35.25 LIG 0.02  C 
ATOM      7  CD  PRO C 306      10.076   9.421  -3.599  0.50 35.51 LIG 0.13  C 
ENDROOT
BRANCH 4 8
ATOM      8  C   PRO C 306      10.347   9.332  -0.424  0.50 36.50 LIG 0.24  C 
ATOM      9  N   ILE C 307      10.876  10.499  -0.828  0.50 37.01 LIG-0.35  N 
ATOM     10 H    ILE C 307      10.773  10.840  -1.610  0.50 37.01 LIG 0.16  HD
ATOM     11 O    PRO C 306      10.569   8.815   0.694  0.50 36.74 LIG-0.27  OA
BRANCH 9 12
ATOM     12  CA  ILE C 307      11.696  11.285   0.094  0.50 37.44 LIG 0.18  C 
BRANCH 12 13
ATOM     13  C   ILE C 307      10.868  11.963   1.188  0.50 38.23 LIG 0.24  C 
ATOM     14  N   SER C 308      11.155  11.576   2.427  0.50 38.91 LIG-0.34  N 
ATOM     15 H    SER C 308      11.669  10.908   2.601  0.50 38.91 LIG 0.16  HD
ATOM     16 O    ILE C 307      10.007  12.811   0.912  0.50 38.79 LIG-0.27  OA
BRANCH 14 17
ATOM     17  CA  SER C 308      10.634  12.234   3.622  0.50 39.43 LIG 0.20  C 
BRANCH 17 18
ATOM     18  C   SER C 308      10.933  13.724   3.444  0.50 39.77 LIG 0.24  C 
ATOM     19  N   PRO C 309      10.103  14.599   4.041  0.50 40.03 LIG-0.34  N 
ATOM     20  CD  PRO C 309       9.152  14.342   5.134  0.50 39.83 LIG 0.13  C 
ATOM     21  CA  PRO C 309      10.114  16.008   3.643  0.50 40.09 LIG 0.19  C 
ATOM     22  CG  PRO C 309       8.264  15.546   5.094  0.50 40.19 LIG 0.02  C 
ATOM     23  CB  PRO C 309       9.157  16.663   4.647  0.50 40.09 LIG 0.04  C 
ATOM     24 O    SER C 308      11.914  14.088   2.789  0.50 39.81 LIG-0.27  OA
BRANCH 21 25
ATOM     25  C   PRO C 309      11.502  16.644   3.703  0.50 40.04 LIG 0.20  C 
ATOM     26 OXT  PRO C 309      11.892  17.247   4.707  0.50 40.10 LIG-0.65  OA
ATOM     27 O    PRO C 309      12.267  16.581   2.738  0.50 40.34 LIG-0.65  OA
ENDBRANCH 21 25
ENDBRANCH 17 18
BRANCH 17 28
ATOM     28  CB  SER C 308      11.315  11.698   4.884  0.50 39.49 LIG 0.20  C 
BRANCH 28 29
ATOM     29 OG   SER C 308      11.480  10.288   4.825  0.50 39.70 LIG-0.40  OA
ATOM     30 HG   SER C 308      12.234  10.107   4.501  0.50 39.70 LIG 0.21  HD
ENDBRANCH 28 29
ENDBRANCH 17 28
ENDBRANCH 14 17
ENDBRANCH 12 13
BRANCH 12 31
ATOM     31  CB  ILE C 307      12.510  12.384  -0.632  0.50 37.20 LIG 0.01  C 
ATOM     32  CG2 ILE C 307      13.838  12.651   0.093  0.50 36.86 LIG 0.01  C 
BRANCH 31 33
ATOM     33  CG1 ILE C 307      12.700  11.991  -2.108  0.50 35.88 LIG 0.00  C 
ATOM     34  CD1 ILE C 307      13.926  11.162  -2.405  0.50 32.01 LIG 0.01  C 
ENDBRANCH 31 33
ENDBRANCH 12 31
ENDBRANCH 9 12
ENDBRANCH 4 8
BRANCH 1 35
ATOM     35  CA  PHE C 305       7.873  11.536  -3.327  0.50 34.47 LIG 0.18  C 
BRANCH 35 36
ATOM     36  CB  PHE C 305       9.083  12.415  -2.974  0.50 34.49 LIG 0.07  C 
BRANCH 36 37
ATOM     37  CG  PHE C 305       9.795  13.038  -4.163  0.50 35.55 LIG-0.06  A 
ATOM     38  CD1 PHE C 305      10.714  14.075  -4.009  0.50 36.28 LIG 0.01  A 
ATOM     39  CE1 PHE C 305      11.359  14.630  -5.118  0.50 36.66 LIG 0.00  A 
ATOM     40  CZ  PHE C 305      11.078  14.155  -6.403  0.50 36.87 LIG 0.00  A 
ATOM     41  CE2 PHE C 305      10.165  13.129  -6.572  0.50 36.76 LIG 0.00  A 
ATOM     42  CD2 PHE C 305       9.519  12.580  -5.453  0.50 36.02 LIG 0.01  A 
ENDBRANCH 36 37
ENDBRANCH 35 36
BRANCH 35 43
ATOM     43  N   PHE C 305       6.649  12.324  -3.149  0.50 33.54 LIG-0.35  N 
ATOM     44 H    PHE C 305       6.642  12.828  -2.452  0.50 33.54 LIG 0.16  HD
ATOM     45  C   ASN C 304       5.646  12.238  -4.025  0.50 33.07 LIG 0.24  C 
ATOM     46 O    ASN C 304       5.517  11.281  -4.798  0.50 33.39 LIG-0.27  OA
BRANCH 45 47
ATOM     47  CA  ASN C 304       4.650  13.405  -4.038  0.50 32.40 LIG 0.18  C 
BRANCH 47 48
ATOM     48  CB  ASN C 304       4.357  13.933  -5.450  0.50 32.38 LIG 0.14  C 
BRANCH 48 49
ATOM     49  CG  ASN C 304       3.241  15.008  -5.477  0.50 31.77 LIG 0.22  C 
ATOM     50 OD1  ASN C 304       3.360  16.062  -4.863  0.50 27.48 LIG-0.27  OA
ATOM     51  ND2 ASN C 304       2.143  14.706  -6.158  0.50 32.56 LIG-0.37  N 
ATOM     52 21HD ASN C 304       1.484  15.259  -6.178  0.50 32.56 LIG 0.16  HD
ATOM     53 22HD ASN C 304       2.090  13.958  -6.579  0.50 32.56 LIG 0.16  HD
ENDBRANCH 48 49
ENDBRANCH 47 48
BRANCH 47 54
ATOM     54  N   ASN C 304       5.139  14.493  -3.227  0.50 31.56 LIG-0.34  N 
ATOM     55  C   LEU C 303       6.211  15.179  -3.593  0.50 30.83 LIG 0.26  C 
ATOM     56 O    LEU C 303       6.705  15.078  -4.707  0.50 29.02 LIG-0.27  OA
ATOM     57 H    ASN C 304       4.684  14.646  -2.513  0.50 31.56 LIG 0.16  HD
BRANCH 55 58
ATOM     58  CA  LEU C 303       6.799  16.118  -2.533  0.50 30.56 LIG 0.40  C 
ATOM     59  N   LEU C 303       6.781  17.554  -2.926  0.50 30.88 LIG 0.61  N 
BRANCH 58 60
ATOM     60  CB  LEU C 303       6.096  15.932  -1.182  0.50 30.80 LIG 0.06  C 
BRANCH 60 61
ATOM     61  CG  LEU C 303       6.817  15.108  -0.108  0.50 30.92 LIG-0.02  C 
ATOM     62  CD2 LEU C 303       7.375  16.022   0.999  0.50 31.43 LIG 0.01  C 
ATOM     63  CD1 LEU C 303       7.901  14.235  -0.714  0.50 30.50 LIG 0.01  C 
ENDBRANCH 60 61
ENDBRANCH 58 60
ENDBRANCH 55 58
ENDBRANCH 47 54
ENDBRANCH 45 47
ENDBRANCH 35 43
ENDBRANCH 1 35
TORSDOF 21
ENDMDL
MODEL 158
USER: ADFR SOLUTION from run 142
USER: SCORE 16.828798 LL:  -5.904 LR: -12.702 RR:   0.000 FEB:  -6.438
USER: RMSD 4.440195
USER: SEED 141
USER: STATUS no improvement in best in 31 clusters for 5 generations
USER: GENES 23
USER: genes 0 Translation |==|  0.62792 0.49623 0.51533
USER: genes 1 Rotation |==|  0.46675 0.36670 0.49437 0.98072
USER: genes 2 Torsion [N]-CA--C-[N] |==|  0.65983
USER: genes 3 Torsion [C]-N--CA-[C] |==|  0.59121
USER: genes 4 Torsion [N]-CA--C-[N] |==|  0.02987
USER: genes 5 Torsion [C]-N--CA-[CB] |==|  0.21659
USER: genes 6 Torsion [N]-CA--C-[N] |==|  0.82928
USER: genes 7 Torsion [N]-CA--C-[OXT] |==|  0.38850
USER: genes 8 Torsion [N]-CA--CB-[OG] |==|  0.79243
USER: genes 9 Torsion [CA]-CB--OG-[HG] |==|  0.03340
USER: genes 10 Torsion [N]-CA--CB-[CG2] |==|  0.23828
USER: genes 11 Torsion [CA]-CB--CG1-[CD1] |==|  0.12966
USER: genes 12 Torsion [N]-C--CA-[N] |==|  0.33051
USER: genes 13 Torsion [C]-CA--CB-[CG] |==|  0.27304
USER: genes 14 Torsion [CA]-CB--CG-[CD1] |==|  0.25333
USER: genes 15 Torsion [C]-CA--N-[C] |==|  0.76980
USER: genes 16 Torsion [N]-C--CA-[N] |==|  0.17957
USER: genes 17 Torsion [C]-CA--CB-[CG] |==|  0.35124
USER: genes 18 Torsion [CA]-CB--CG-[OD1] |==|  0.15281
USER: genes 19 Torsion [C]-CA--N-[C] |==|  0.61826
USER: genes 20 Torsion [N]-C--CA-[N] |==|  0.39785
USER: genes 21 Torsion [C]-CA--CB-[CG] |==|  0.99925
USER: genes 22 Torsion [CA]-CB--CG-[CD2] |==|  0.74935
ROOT
ATOM      1  C   PHE C 305      16.654   6.741   0.036  0.50 34.66 LIG 0.24  C 
ATOM      2 O    PHE C 305      17.461   5.817   0.085  0.50 33.80 LIG-0.27  OA
ATOM      3  N   PRO C 306      15.323   6.536   0.095  0.50 35.29 LIG-0.34  N 
ATOM      4  CA  PRO C 306      14.782   5.239  -0.281  0.50 35.79 LIG 0.18  C 
ATOM      5  CB  PRO C 306      13.533   5.101   0.620  0.50 35.80 LIG 0.04  C 
ATOM      6  CG  PRO C 306      13.380   6.451   1.329  0.50 35.25 LIG 0.02  C 
ATOM      7  CD  PRO C 306      14.258   7.422   0.588  0.50 35.51 LIG 0.13  C 
ENDROOT
BRANCH 4 8
ATOM      8  C   PRO C 306      14.342   5.253  -1.746  0.50 36.50 LIG 0.24  C 
ATOM      9  N   ILE C 307      13.054   4.946  -1.975  0.50 37.01 LIG-0.35  N 
ATOM     10 H    ILE C 307      12.495   4.691  -1.373  0.50 37.01 LIG 0.16  HD
ATOM     11 O    PRO C 306      15.158   5.550  -2.648  0.50 36.74 LIG-0.27  OA
BRANCH 9 12
ATOM     12  CA  ILE C 307      12.512   5.035  -3.331  0.50 37.44 LIG 0.18  C 
BRANCH 12 13
ATOM     13  C   ILE C 307      11.038   5.446  -3.351  0.50 38.23 LIG 0.24  C 
ATOM     14  N   SER C 308      10.560   5.867  -2.183  0.50 38.91 LIG-0.34  N 
ATOM     15 H    SER C 308      10.997   5.795  -1.446  0.50 38.91 LIG 0.16  HD
ATOM     16 O    ILE C 307      10.367   5.390  -4.391  0.50 38.79 LIG-0.27  OA
BRANCH 14 17
ATOM     17  CA  SER C 308       9.250   6.493  -2.023  0.50 39.43 LIG 0.20  C 
BRANCH 17 18
ATOM     18  C   SER C 308       9.291   7.212  -0.673  0.50 39.77 LIG 0.24  C 
ATOM     19  N   PRO C 309       9.488   6.459   0.424  0.50 40.03 LIG-0.34  N 
ATOM     20  CD  PRO C 309      10.024   5.091   0.499  0.50 39.83 LIG 0.13  C 
ATOM     21  CA  PRO C 309       9.199   7.008   1.751  0.50 40.09 LIG 0.19  C 
ATOM     22  CG  PRO C 309       9.642   4.656   1.879  0.50 40.19 LIG 0.02  C 
ATOM     23  CB  PRO C 309       9.693   5.908   2.701  0.50 40.09 LIG 0.04  C 
ATOM     24 O    SER C 308       9.163   8.438  -0.617  0.50 39.81 LIG-0.27  OA
BRANCH 21 25
ATOM     25  C   PRO C 309       9.904   8.336   2.025  0.50 40.04 LIG 0.20  C 
ATOM     26 OXT  PRO C 309       9.336   9.257   2.618  0.50 40.10 LIG-0.65  OA
ATOM     27 O    PRO C 309      11.063   8.524   1.646  0.50 40.34 LIG-0.65  OA
ENDBRANCH 21 25
ENDBRANCH 17 18
BRANCH 17 28
ATOM     28  CB  SER C 308       8.137   5.443  -2.038  0.50 39.49 LIG 0.20  C 
BRANCH 28 29
ATOM     29 OG   SER C 308       7.899   4.956  -3.351  0.50 39.70 LIG-0.40  OA
ATOM     30 HG   SER C 308       8.518   5.207  -3.859  0.50 39.70 LIG 0.21  HD
ENDBRANCH 28 29
ENDBRANCH 17 28
ENDBRANCH 14 17
ENDBRANCH 12 13
BRANCH 12 31
ATOM     31  CB  ILE C 307      12.642   3.701  -4.107  0.50 37.20 LIG 0.01  C 
ATOM     32  CG2 ILE C 307      11.450   2.778  -3.811  0.50 36.86 LIG 0.01  C 
BRANCH 31 33
ATOM     33  CG1 ILE C 307      12.817   3.995  -5.607  0.50 35.88 LIG 0.00  C 
ATOM     34  CD1 ILE C 307      13.829   5.063  -5.944  0.50 32.01 LIG 0.01  C 
ENDBRANCH 31 33
ENDBRANCH 12 31
ENDBRANCH 9 12
ENDBRANCH 4 8
BRANCH 1 35
ATOM     35  CA  PHE C 305      17.157   8.187  -0.054  0.50 34.47 LIG 0.18  C 
BRANCH 35 36
ATOM     36  CB  PHE C 305      17.952   8.315  -1.362  0.50 34.49 LIG 0.07  C 
BRANCH 36 37
ATOM     37  CG  PHE C 305      17.183   8.914  -2.527  0.50 35.55 LIG-0.06  A 
ATOM     38  CD1 PHE C 305      17.186  10.285  -2.784  0.50 36.28 LIG 0.01  A 
ATOM     39  CE1 PHE C 305      16.473  10.812  -3.864  0.50 36.66 LIG 0.00  A 
ATOM     40  CZ  PHE C 305      15.733   9.967  -4.696  0.50 36.87 LIG 0.00  A 
ATOM     41  CE2 PHE C 305      15.716   8.605  -4.451  0.50 36.76 LIG 0.00  A 
ATOM     42  CD2 PHE C 305      16.433   8.084  -3.363  0.50 36.02 LIG 0.01  A 
ENDBRANCH 36 37
ENDBRANCH 35 36
BRANCH 35 43
ATOM     43  N   PHE C 305      18.010   8.614   1.061  0.50 33.54 LIG-0.35  N 
ATOM     44 H    PHE C 305      18.855   8.565   0.907  0.50 33.54 LIG 0.16  HD
ATOM     45  C   ASN C 304      17.477   9.039   2.207  0.50 33.07 LIG 0.24  C 
ATOM     46 O    ASN C 304      16.315   8.778   2.539  0.50 33.39 LIG-0.27  OA
BRANCH 45 47
ATOM     47  CA  ASN C 304      18.382   9.893   3.105  0.50 32.40 LIG 0.18  C 
BRANCH 47 48
ATOM     48  CB  ASN C 304      17.756  10.202   4.474  0.50 32.38 LIG 0.14  C 
BRANCH 48 49
ATOM     49  CG  ASN C 304      18.671   9.810   5.662  0.50 31.77 LIG 0.22  C 
ATOM     50 OD1  ASN C 304      19.817  10.236   5.749  0.50 27.48 LIG-0.27  OA
ATOM     51  ND2 ASN C 304      18.162   8.961   6.546  0.50 32.56 LIG-0.37  N 
ATOM     52 21HD ASN C 304      18.641   8.691   7.208  0.50 32.56 LIG 0.16  HD
ATOM     53 22HD ASN C 304      17.354   8.681   6.458  0.50 32.56 LIG 0.16  HD
ENDBRANCH 48 49
ENDBRANCH 47 48
BRANCH 47 54
ATOM     54  N   ASN C 304      18.710  11.137   2.452  0.50 31.56 LIG-0.34  N 
ATOM     55  C   LEU C 303      19.944  11.618   2.498  0.50 30.83 LIG 0.26  C 
ATOM     56 O    LEU C 303      20.892  10.956   2.894  0.50 29.02 LIG-0.27  OA
ATOM     57 H    ASN C 304      18.054  11.518   2.048  0.50 31.56 LIG 0.16  HD
BRANCH 55 58
ATOM     58  CA  LEU C 303      20.115  13.064   2.015  0.50 30.56 LIG 0.40  C 
ATOM     59  N   LEU C 303      21.119  13.842   2.793  0.50 30.88 LIG 0.61  N 
BRANCH 58 60
ATOM     60  CB  LEU C 303      20.454  13.110   0.520  0.50 30.80 LIG 0.06  C 
BRANCH 60 61
ATOM     61  CG  LEU C 303      20.570  11.776  -0.228  0.50 30.92 LIG-0.02  C 
ATOM     62  CD2 LEU C 303      22.017  11.249  -0.184  0.50 31.43 LIG 0.01  C 
ATOM     63  CD1 LEU C 303      20.059  11.894  -1.653  0.50 30.50 LIG 0.01  C 
ENDBRANCH 60 61
ENDBRANCH 58 60
ENDBRANCH 55 58
ENDBRANCH 47 54
ENDBRANCH 45 47
ENDBRANCH 35 43
ENDBRANCH 1 35
TORSDOF 21
ENDMDL
MODEL 159
USER: ADFR SOLUTION from run 191
USER: SCORE 17.232342 LL:  -5.694 LR: -12.702 RR:   0.000 FEB:  -6.438
USER: RMSD 7.483104
USER: SEED 190
USER: STATUS no improvement in best in 24 clusters for 5 generations
USER: GENES 23
USER: genes 0 Translation |==|  0.43842 0.52306 0.27086
USER: genes 1 Rotation |==|  0.70643 0.83282 0.71908 0.72050
USER: genes 2 Torsion [N]-CA--C-[N] |==|  0.15821
USER: genes 3 Torsion [C]-N--CA-[C] |==|  0.61230
USER: genes 4 Torsion [N]-CA--C-[N] |==|  0.37937
USER: genes 5 Torsion [C]-N--CA-[CB] |==|  0.11812
USER: genes 6 Torsion [N]-CA--C-[N] |==|  0.13256
USER: genes 7 Torsion [N]-CA--C-[OXT] |==|  0.90626
USER: genes 8 Torsion [N]-CA--CB-[OG] |==|  0.69622
USER: genes 9 Torsion [CA]-CB--OG-[HG] |==|  0.24509
USER: genes 10 Torsion [N]-CA--CB-[CG2] |==|  0.47924
USER: genes 11 Torsion [CA]-CB--CG1-[CD1] |==|  0.27589
USER: genes 12 Torsion [N]-C--CA-[N] |==|  0.53889
USER: genes 13 Torsion [C]-CA--CB-[CG] |==|  0.71098
USER: genes 14 Torsion [CA]-CB--CG-[CD1] |==|  0.15627
USER: genes 15 Torsion [C]-CA--N-[C] |==|  0.62434
USER: genes 16 Torsion [N]-C--CA-[N] |==|  0.39151
USER: genes 17 Torsion [C]-CA--CB-[CG] |==|  0.40645
USER: genes 18 Torsion [CA]-CB--CG-[OD1] |==|  0.95288
USER: genes 19 Torsion [C]-CA--N-[C] |==|  0.70371
USER: genes 20 Torsion [N]-C--CA-[N] |==|  0.61639
USER: genes 21 Torsion [C]-CA--CB-[CG] |==|  0.63540
USER: genes 22 Torsion [CA]-CB--CG-[CD2] |==|  0.69336
ROOT
ATOM      1  C   PHE C 305      11.822   7.385  -4.914  0.50 34.66 LIG 0.24  C 
ATOM      2 O    PHE C 305      11.019   7.694  -5.789  0.50 33.80 LIG-0.27  OA
ATOM      3  N   PRO C 306      12.742   6.417  -5.094  0.50 35.29 LIG-0.34  N 
ATOM      4  CA  PRO C 306      12.512   5.388  -6.096  0.50 35.79 LIG 0.18  C 
ATOM      5  CB  PRO C 306      13.939   5.033  -6.574  0.50 35.80 LIG 0.04  C 
ATOM      6  CG  PRO C 306      14.891   5.800  -5.649  0.50 35.25 LIG 0.02  C 
ATOM      7  CD  PRO C 306      14.067   6.256  -4.476  0.50 35.51 LIG 0.13  C 
ENDROOT
BRANCH 4 8
ATOM      8  C   PRO C 306      11.880   4.153  -5.452  0.50 36.50 LIG 0.24  C 
ATOM      9  N   ILE C 307      10.725   4.359  -4.796  0.50 37.01 LIG-0.35  N 
ATOM     10 H    ILE C 307      10.363   5.128  -4.669  0.50 37.01 LIG 0.16  HD
ATOM     11 O    PRO C 306      12.429   3.033  -5.563  0.50 36.74 LIG-0.27  OA
BRANCH 9 12
ATOM     12  CA  ILE C 307       9.991   3.222  -4.238  0.50 37.44 LIG 0.18  C 
BRANCH 12 13
ATOM     13  C   ILE C 307       8.478   3.348  -4.430  0.50 38.23 LIG 0.24  C 
ATOM     14  N   SER C 308       7.869   2.231  -4.819  0.50 38.91 LIG-0.34  N 
ATOM     15 H    SER C 308       8.297   1.528  -5.070  0.50 38.91 LIG 0.16  HD
ATOM     16 O    ILE C 307       7.888   4.418  -4.222  0.50 38.79 LIG-0.27  OA
BRANCH 14 17
ATOM     17  CA  SER C 308       6.418   2.074  -4.865  0.50 39.43 LIG 0.20  C 
BRANCH 17 18
ATOM     18  C   SER C 308       6.156   0.861  -5.761  0.50 39.77 LIG 0.24  C 
ATOM     19  N   PRO C 309       6.875  -0.251  -5.525  0.50 40.03 LIG-0.34  N 
ATOM     20  CD  PRO C 309       7.628  -0.601  -4.310  0.50 39.83 LIG 0.13  C 
ATOM     21  CA  PRO C 309       6.934  -1.313  -6.532  0.50 40.09 LIG 0.19  C 
ATOM     22  CG  PRO C 309       8.512  -1.716  -4.774  0.50 40.19 LIG 0.02  C 
ATOM     23  CB  PRO C 309       7.709  -2.429  -5.819  0.50 40.09 LIG 0.04  C 
ATOM     24 O    SER C 308       5.300   0.918  -6.649  0.50 39.81 LIG-0.27  OA
BRANCH 21 25
ATOM     25  C   PRO C 309       5.557  -1.796  -6.985  0.50 40.04 LIG 0.20  C 
ATOM     26 OXT  PRO C 309       4.598  -1.830  -6.208  0.50 40.10 LIG-0.65  OA
ATOM     27 O    PRO C 309       5.372  -2.178  -8.142  0.50 40.34 LIG-0.65  OA
ENDBRANCH 21 25
ENDBRANCH 17 18
BRANCH 17 28
ATOM     28  CB  SER C 308       5.750   3.323  -5.445  0.50 39.49 LIG 0.20  C 
BRANCH 28 29
ATOM     29 OG   SER C 308       5.042   4.044  -4.447  0.50 39.70 LIG-0.40  OA
ATOM     30 HG   SER C 308       5.559   4.591  -4.075  0.50 39.70 LIG 0.21  HD
ENDBRANCH 28 29
ENDBRANCH 17 28
ENDBRANCH 14 17
ENDBRANCH 12 13
BRANCH 12 31
ATOM     31  CB  ILE C 307      10.262   3.031  -2.726  0.50 37.20 LIG 0.01  C 
ATOM     32  CG2 ILE C 307       9.339   1.953  -2.136  0.50 36.86 LIG 0.01  C 
BRANCH 31 33
ATOM     33  CG1 ILE C 307      11.755   2.730  -2.506  0.50 35.88 LIG 0.00  C 
ATOM     34  CD1 ILE C 307      12.596   3.906  -2.074  0.50 32.01 LIG 0.01  C 
ENDBRANCH 31 33
ENDBRANCH 12 31
ENDBRANCH 9 12
ENDBRANCH 4 8
BRANCH 1 35
ATOM     35  CA  PHE C 305      11.820   8.138  -3.578  0.50 34.47 LIG 0.18  C 
BRANCH 35 36
ATOM     36  CB  PHE C 305      11.965   7.092  -2.462  0.50 34.49 LIG 0.07  C 
BRANCH 36 37
ATOM     37  CG  PHE C 305      10.687   6.780  -1.702  0.50 35.55 LIG-0.06  A 
ATOM     38  CD1 PHE C 305       9.532   6.345  -2.351  0.50 36.28 LIG 0.01  A 
ATOM     39  CE1 PHE C 305       8.369   6.061  -1.629  0.50 36.66 LIG 0.00  A 
ATOM     40  CZ  PHE C 305       8.348   6.225  -0.241  0.50 36.87 LIG 0.00  A 
ATOM     41  CE2 PHE C 305       9.485   6.660   0.417  0.50 36.76 LIG 0.00  A 
ATOM     42  CD2 PHE C 305      10.648   6.946  -0.316  0.50 36.02 LIG 0.01  A 
ENDBRANCH 36 37
ENDBRANCH 35 36
BRANCH 35 43
ATOM     43  N   PHE C 305      10.616   8.937  -3.322  0.50 33.54 LIG-0.35  N 
ATOM     44 H    PHE C 305       9.875   8.540  -3.503  0.50 33.54 LIG 0.16  HD
ATOM     45  C   ASN C 304      10.708  10.179  -2.846  0.50 33.07 LIG 0.24  C 
ATOM     46 O    ASN C 304      11.745  10.849  -2.925  0.50 33.39 LIG-0.27  OA
BRANCH 45 47
ATOM     47  CA  ASN C 304       9.451  10.747  -2.172  0.50 32.40 LIG 0.18  C 
BRANCH 47 48
ATOM     48  CB  ASN C 304       8.605  11.620  -3.111  0.50 32.38 LIG 0.14  C 
BRANCH 48 49
ATOM     49  CG  ASN C 304       7.085  11.516  -2.832  0.50 31.77 LIG 0.22  C 
ATOM     50 OD1  ASN C 304       6.622  10.592  -2.172  0.50 27.48 LIG-0.27  OA
ATOM     51  ND2 ASN C 304       6.316  12.448  -3.380  0.50 32.56 LIG-0.37  N 
ATOM     52 21HD ASN C 304       5.462  12.416  -3.278  0.50 32.56 LIG 0.16  HD
ATOM     53 22HD ASN C 304       6.671  13.084  -3.838  0.50 32.56 LIG 0.16  HD
ENDBRANCH 48 49
ENDBRANCH 47 48
BRANCH 47 54
ATOM     54  N   ASN C 304       9.810  11.525  -1.012  0.50 31.56 LIG-0.34  N 
ATOM     55  C   LEU C 303       9.591  11.057   0.208  0.50 30.83 LIG 0.26  C 
ATOM     56 O    LEU C 303       9.285   9.892   0.419  0.50 29.02 LIG-0.27  OA
ATOM     57 H    ASN C 304      10.165  12.289  -1.183  0.50 31.56 LIG 0.16  HD
BRANCH 55 58
ATOM     58  CA  LEU C 303       9.751  12.068   1.351  0.50 30.56 LIG 0.40  C 
ATOM     59  N   LEU C 303      10.455  11.521   2.542  0.50 30.88 LIG 0.61  N 
BRANCH 58 60
ATOM     60  CB  LEU C 303      10.448  13.344   0.863  0.50 30.80 LIG 0.06  C 
BRANCH 60 61
ATOM     61  CG  LEU C 303      11.623  13.879   1.692  0.50 30.92 LIG-0.02  C 
ATOM     62  CD2 LEU C 303      11.243  15.195   2.394  0.50 31.43 LIG 0.01  C 
ATOM     63  CD1 LEU C 303      12.873  14.036   0.843  0.50 30.50 LIG 0.01  C 
ENDBRANCH 60 61
ENDBRANCH 58 60
ENDBRANCH 55 58
ENDBRANCH 47 54
ENDBRANCH 45 47
ENDBRANCH 35 43
ENDBRANCH 1 35
TORSDOF 21
ENDMDL
MODEL 160
USER: ADFR SOLUTION from run 16
USER: SCORE 17.119011 LL:  -5.453 LR: -12.698 RR:   0.000 FEB:  -6.434
USER: RMSD 8.972241
USER: SEED 162762
USER: STATUS no improvement in best in 24 clusters for 5 generations
USER: GENES 23
USER: genes 0 Translation |==|  0.31540 0.70619 0.39985
USER: genes 1 Rotation |==|  0.39126 0.18818 0.40397 0.86293
USER: genes 2 Torsion [N]-CA--C-[N] |==|  0.02414
USER: genes 3 Torsion [C]-N--CA-[C] |==|  0.77449
USER: genes 4 Torsion [N]-CA--C-[N] |==|  0.91620
USER: genes 5 Torsion [C]-N--CA-[CB] |==|  0.51759
USER: genes 6 Torsion [N]-CA--C-[N] |==|  0.36667
USER: genes 7 Torsion [N]-CA--C-[OXT] |==|  0.24963
USER: genes 8 Torsion [N]-CA--CB-[OG] |==|  0.99692
USER: genes 9 Torsion [CA]-CB--OG-[HG] |==|  0.19939
USER: genes 10 Torsion [N]-CA--CB-[CG2] |==|  0.44575
USER: genes 11 Torsion [CA]-CB--CG1-[CD1] |==|  0.49746
USER: genes 12 Torsion [N]-C--CA-[N] |==|  0.45781
USER: genes 13 Torsion [C]-CA--CB-[CG] |==|  0.31981
USER: genes 14 Torsion [CA]-CB--CG-[CD1] |==|  0.92122
USER: genes 15 Torsion [C]-CA--N-[C] |==|  0.71841
USER: genes 16 Torsion [N]-C--CA-[N] |==|  0.48752
USER: genes 17 Torsion [C]-CA--CB-[CG] |==|  0.86794
USER: genes 18 Torsion [CA]-CB--CG-[OD1] |==|  0.86431
USER: genes 19 Torsion [C]-CA--N-[C] |==|  0.60595
USER: genes 20 Torsion [N]-C--CA-[N] |==|  0.54433
USER: genes 21 Torsion [C]-CA--CB-[CG] |==|  0.62007
USER: genes 22 Torsion [CA]-CB--CG-[CD2] |==|  0.79698
ROOT
ATOM      1  C   PHE C 305       8.685  11.780  -2.302  0.50 34.66 LIG 0.24  C 
ATOM      2 O    PHE C 305       8.715  10.772  -1.602  0.50 33.80 LIG-0.27  OA
ATOM      3  N   PRO C 306       7.785  11.940  -3.292  0.50 35.29 LIG-0.34  N 
ATOM      4  CA  PRO C 306       7.164  10.769  -3.891  0.50 35.79 LIG 0.18  C 
ATOM      5  CB  PRO C 306       5.760  11.278  -4.293  0.50 35.80 LIG 0.04  C 
ATOM      6  CG  PRO C 306       5.774  12.788  -4.029  0.50 35.25 LIG 0.02  C 
ATOM      7  CD  PRO C 306       7.216  13.175  -3.853  0.50 35.51 LIG 0.13  C 
ENDROOT
BRANCH 4 8
ATOM      8  C   PRO C 306       7.924  10.352  -5.152  0.50 36.50 LIG 0.24  C 
ATOM      9  N   ILE C 307       9.086  10.989  -5.374  0.50 37.01 LIG-0.35  N 
ATOM     10 H    ILE C 307       9.389  11.638  -4.899  0.50 37.01 LIG 0.16  HD
ATOM     11 O    PRO C 306       7.465   9.458  -5.898  0.50 36.74 LIG-0.27  OA
BRANCH 9 12
ATOM     12  CA  ILE C 307       9.935  10.585  -6.496  0.50 37.44 LIG 0.18  C 
BRANCH 12 13
ATOM     13  C   ILE C 307      10.792   9.358  -6.174  0.50 38.23 LIG 0.24  C 
ATOM     14  N   SER C 308      11.133   9.235  -4.894  0.50 38.91 LIG-0.34  N 
ATOM     15 H    SER C 308      10.999   9.855  -4.313  0.50 38.91 LIG 0.16  HD
ATOM     16 O    ILE C 307      11.119   8.551  -7.056  0.50 38.79 LIG-0.27  OA
BRANCH 14 17
ATOM     17  CA  SER C 308      11.769   8.044  -4.337  0.50 39.43 LIG 0.20  C 
BRANCH 17 18
ATOM     18  C   SER C 308      10.867   6.869  -4.721  0.50 39.77 LIG 0.24  C 
ATOM     19  N   PRO C 309      11.456   5.784  -5.254  0.50 40.03 LIG-0.34  N 
ATOM     20  CD  PRO C 309      12.878   5.408  -5.201  0.50 39.83 LIG 0.13  C 
ATOM     21  CA  PRO C 309      10.650   4.781  -5.953  0.50 40.09 LIG 0.19  C 
ATOM     22  CG  PRO C 309      12.989   4.365  -6.268  0.50 40.19 LIG 0.02  C 
ATOM     23  CB  PRO C 309      11.662   3.669  -6.260  0.50 40.09 LIG 0.04  C 
ATOM     24 O    SER C 308       9.649   6.929  -4.525  0.50 39.81 LIG-0.27  OA
BRANCH 21 25
ATOM     25  C   PRO C 309       9.482   4.253  -5.120  0.50 40.04 LIG 0.20  C 
ATOM     26 OXT  PRO C 309       8.373   4.794  -5.149  0.50 40.10 LIG-0.65  OA
ATOM     27 O    PRO C 309       9.624   3.274  -4.384  0.50 40.34 LIG-0.65  OA
ENDBRANCH 21 25
ENDBRANCH 17 18
BRANCH 17 28
ATOM     28  CB  SER C 308      11.891   8.150  -2.815  0.50 39.49 LIG 0.20  C 
BRANCH 28 29
ATOM     29 OG   SER C 308      11.381   9.387  -2.338  0.50 39.70 LIG-0.40  OA
ATOM     30 HG   SER C 308      10.543   9.386  -2.399  0.50 39.70 LIG 0.21  HD
ENDBRANCH 28 29
ENDBRANCH 17 28
ENDBRANCH 14 17
ENDBRANCH 12 13
BRANCH 12 31
ATOM     31  CB  ILE C 307      10.886  11.719  -6.952  0.50 37.20 LIG 0.01  C 
ATOM     32  CG2 ILE C 307      12.062  11.154  -7.762  0.50 36.86 LIG 0.01  C 
BRANCH 31 33
ATOM     33  CG1 ILE C 307      10.082  12.782  -7.722  0.50 35.88 LIG 0.00  C 
ATOM     34  CD1 ILE C 307      10.879  13.966  -8.213  0.50 32.01 LIG 0.01  C 
ENDBRANCH 31 33
ENDBRANCH 12 31
ENDBRANCH 9 12
ENDBRANCH 4 8
BRANCH 1 35
ATOM     35  CA  PHE C 305       9.670  12.924  -2.032  0.50 34.47 LIG 0.18  C 
BRANCH 35 36
ATOM     36  CB  PHE C 305      10.707  12.913  -3.165  0.50 34.49 LIG 0.07  C 
BRANCH 36 37
ATOM     37  CG  PHE C 305      10.695  14.140  -4.061  0.50 35.55 LIG-0.06  A 
ATOM     38  CD1 PHE C 305       9.535  14.886  -4.271  0.50 36.28 LIG 0.01  A 
ATOM     39  CE1 PHE C 305       9.550  16.014  -5.097  0.50 36.66 LIG 0.00  A 
ATOM     40  CZ  PHE C 305      10.732  16.400  -5.736  0.50 36.87 LIG 0.00  A 
ATOM     41  CE2 PHE C 305      11.890  15.667  -5.540  0.50 36.76 LIG 0.00  A 
ATOM     42  CD2 PHE C 305      11.866  14.535  -4.711  0.50 36.02 LIG 0.01  A 
ENDBRANCH 36 37
ENDBRANCH 35 36
BRANCH 35 43
ATOM     43  N   PHE C 305      10.374  12.841  -0.747  0.50 33.54 LIG-0.35  N 
ATOM     44 H    PHE C 305      11.032  12.287  -0.732  0.50 33.54 LIG 0.16  HD
ATOM     45  C   ASN C 304       9.992  13.585   0.292  0.50 33.07 LIG 0.24  C 
ATOM     46 O    ASN C 304       8.867  14.093   0.370  0.50 33.39 LIG-0.27  OA
BRANCH 45 47
ATOM     47  CA  ASN C 304      11.033  13.796   1.399  0.50 32.40 LIG 0.18  C 
BRANCH 47 48
ATOM     48  CB  ASN C 304      11.460  12.488   2.083  0.50 32.38 LIG 0.14  C 
BRANCH 48 49
ATOM     49  CG  ASN C 304      10.261  11.593   2.485  0.50 31.77 LIG 0.22  C 
ATOM     50 OD1  ASN C 304       9.302  12.052   3.095  0.50 27.48 LIG-0.27  OA
ATOM     51  ND2 ASN C 304      10.351  10.306   2.174  0.50 32.56 LIG-0.37  N 
ATOM     52 21HD ASN C 304       9.723   9.763   2.402  0.50 32.56 LIG 0.16  HD
ATOM     53 22HD ASN C 304      11.037  10.014   1.744  0.50 32.56 LIG 0.16  HD
ENDBRANCH 48 49
ENDBRANCH 47 48
BRANCH 47 54
ATOM     54  N   ASN C 304      10.524  14.700   2.403  0.50 31.56 LIG-0.34  N 
ATOM     55  C   LEU C 303      11.320  15.590   2.975  0.50 30.83 LIG 0.26  C 
ATOM     56 O    LEU C 303      12.439  15.839   2.549  0.50 29.02 LIG-0.27  OA
ATOM     57 H    ASN C 304       9.689  14.606   2.584  0.50 31.56 LIG 0.16  HD
BRANCH 55 58
ATOM     58  CA  LEU C 303      10.751  16.301   4.209  0.50 30.56 LIG 0.40  C 
ATOM     59  N   LEU C 303      11.496  17.532   4.590  0.50 30.88 LIG 0.61  N 
BRANCH 58 60
ATOM     60  CB  LEU C 303       9.262  16.621   4.022  0.50 30.80 LIG 0.06  C 
BRANCH 60 61
ATOM     61  CG  LEU C 303       8.766  18.004   4.462  0.50 30.92 LIG-0.02  C 
ATOM     62  CD2 LEU C 303       8.713  18.103   5.998  0.50 31.43 LIG 0.01  C 
ATOM     63  CD1 LEU C 303       7.426  18.338   3.831  0.50 30.50 LIG 0.01  C 
ENDBRANCH 60 61
ENDBRANCH 58 60
ENDBRANCH 55 58
ENDBRANCH 47 54
ENDBRANCH 45 47
ENDBRANCH 35 43
ENDBRANCH 1 35
TORSDOF 21
ENDMDL
MODEL 161
USER: ADFR SOLUTION from run 184
USER: SCORE 17.912875 LL:  -6.689 LR: -12.699 RR:   0.000 FEB:  -6.435
USER: RMSD 9.990816
USER: SEED 183
USER: STATUS no improvement in best in 12 clusters for 5 generations
USER: GENES 23
USER: genes 0 Translation |==|  0.54838 0.82788 0.58745
USER: genes 1 Rotation |==|  0.68270 0.60308 0.95379 0.50850
USER: genes 2 Torsion [N]-CA--C-[N] |==|  0.84543
USER: genes 3 Torsion [C]-N--CA-[C] |==|  0.77085
USER: genes 4 Torsion [N]-CA--C-[N] |==|  0.47113
USER: genes 5 Torsion [C]-N--CA-[CB] |==|  0.52778
USER: genes 6 Torsion [N]-CA--C-[N] |==|  0.26946
USER: genes 7 Torsion [N]-CA--C-[OXT] |==|  0.82081
USER: genes 8 Torsion [N]-CA--CB-[OG] |==|  0.92533
USER: genes 9 Torsion [CA]-CB--OG-[HG] |==|  0.37098
USER: genes 10 Torsion [N]-CA--CB-[CG2] |==|  0.88025
USER: genes 11 Torsion [CA]-CB--CG1-[CD1] |==|  0.37153
USER: genes 12 Torsion [N]-C--CA-[N] |==|  0.13776
USER: genes 13 Torsion [C]-CA--CB-[CG] |==|  0.62539
USER: genes 14 Torsion [CA]-CB--CG-[CD1] |==|  0.22173
USER: genes 15 Torsion [C]-CA--N-[C] |==|  0.65665
USER: genes 16 Torsion [N]-C--CA-[N] |==|  0.34269
USER: genes 17 Torsion [C]-CA--CB-[CG] |==|  0.27152
USER: genes 18 Torsion [CA]-CB--CG-[OD1] |==|  0.90138
USER: genes 19 Torsion [C]-CA--N-[C] |==|  0.62899
USER: genes 20 Torsion [N]-C--CA-[N] |==|  0.51850
USER: genes 21 Torsion [C]-CA--CB-[CG] |==|  0.83536
USER: genes 22 Torsion [CA]-CB--CG-[CD2] |==|  0.68196
ROOT
ATOM      1  C   PHE C 305      14.626  14.700   1.497  0.50 34.66 LIG 0.24  C 
ATOM      2 O    PHE C 305      13.674  15.449   1.300  0.50 33.80 LIG-0.27  OA
ATOM      3  N   PRO C 306      15.878  15.013   1.110  0.50 35.29 LIG-0.34  N 
ATOM      4  CA  PRO C 306      16.075  15.974   0.036  0.50 35.79 LIG 0.18  C 
ATOM      5  CB  PRO C 306      17.412  16.655   0.410  0.50 35.80 LIG 0.04  C 
ATOM      6  CG  PRO C 306      17.954  15.876   1.614  0.50 35.25 LIG 0.02  C 
ATOM      7  CD  PRO C 306      17.168  14.595   1.679  0.50 35.51 LIG 0.13  C 
ENDROOT
BRANCH 4 8
ATOM      8  C   PRO C 306      16.242  15.248  -1.300  0.50 36.50 LIG 0.24  C 
ATOM      9  N   ILE C 307      17.221  14.329  -1.351  0.50 37.01 LIG-0.35  N 
ATOM     10 H    ILE C 307      17.781  14.172  -0.718  0.50 37.01 LIG 0.16  HD
ATOM     11 O    PRO C 306      15.484  15.513  -2.261  0.50 36.74 LIG-0.27  OA
BRANCH 9 12
ATOM     12  CA  ILE C 307      17.390  13.509  -2.551  0.50 37.44 LIG 0.18  C 
BRANCH 12 13
ATOM     13  C   ILE C 307      16.443  12.306  -2.580  0.50 38.23 LIG 0.24  C 
ATOM     14  N   SER C 308      16.402  11.655  -3.738  0.50 38.91 LIG-0.34  N 
ATOM     15 H    SER C 308      16.772  11.953  -4.455  0.50 38.91 LIG 0.16  HD
ATOM     16 O    ILE C 307      15.784  11.981  -1.581  0.50 38.79 LIG-0.27  OA
BRANCH 14 17
ATOM     17  CA  SER C 308      15.728  10.372  -3.922  0.50 39.43 LIG 0.20  C 
BRANCH 17 18
ATOM     18  C   SER C 308      16.234   9.468  -2.796  0.50 39.77 LIG 0.24  C 
ATOM     19  N   PRO C 309      15.467   9.360  -1.696  0.50 40.03 LIG-0.34  N 
ATOM     20  CD  PRO C 309      14.043   9.698  -1.549  0.50 39.83 LIG 0.13  C 
ATOM     21  CA  PRO C 309      16.029   8.807  -0.462  0.50 40.09 LIG 0.19  C 
ATOM     22  CG  PRO C 309      13.862   9.748  -0.064  0.50 40.19 LIG 0.02  C 
ATOM     23  CB  PRO C 309      14.813   8.721   0.470  0.50 40.09 LIG 0.04  C 
ATOM     24 O    SER C 308      17.300   8.857  -2.920  0.50 39.81 LIG-0.27  OA
BRANCH 21 25
ATOM     25  C   PRO C 309      16.679   7.436  -0.653  0.50 40.04 LIG 0.20  C 
ATOM     26 OXT  PRO C 309      16.017   6.449  -0.983  0.50 40.10 LIG-0.65  OA
ATOM     27 O    PRO C 309      17.888   7.281  -0.466  0.50 40.34 LIG-0.65  OA
ENDBRANCH 21 25
ENDBRANCH 17 18
BRANCH 17 28
ATOM     28  CB  SER C 308      16.066   9.767  -5.287  0.50 39.49 LIG 0.20  C 
BRANCH 28 29
ATOM     29 OG   SER C 308      16.392  10.774  -6.234  0.50 39.70 LIG-0.40  OA
ATOM     30 HG   SER C 308      17.089  10.554  -6.649  0.50 39.70 LIG 0.21  HD
ENDBRANCH 28 29
ENDBRANCH 17 28
ENDBRANCH 14 17
ENDBRANCH 12 13
BRANCH 12 31
ATOM     31  CB  ILE C 307      18.835  12.976  -2.702  0.50 37.20 LIG 0.01  C 
ATOM     32  CG2 ILE C 307      19.860  14.075  -2.382  0.50 36.86 LIG 0.01  C 
BRANCH 31 33
ATOM     33  CG1 ILE C 307      19.012  11.718  -1.833  0.50 35.88 LIG 0.00  C 
ATOM     34  CD1 ILE C 307      19.695  10.554  -2.509  0.50 32.01 LIG 0.01  C 
ENDBRANCH 31 33
ENDBRANCH 12 31
ENDBRANCH 9 12
ENDBRANCH 4 8
BRANCH 1 35
ATOM     35  CA  PHE C 305      14.412  13.376   2.241  0.50 34.47 LIG 0.18  C 
BRANCH 35 36
ATOM     36  CB  PHE C 305      12.968  13.375   2.768  0.50 34.49 LIG 0.07  C 
BRANCH 36 37
ATOM     37  CG  PHE C 305      12.808  12.914   4.207  0.50 35.55 LIG-0.06  A 
ATOM     38  CD1 PHE C 305      13.070  13.760   5.284  0.50 36.28 LIG 0.01  A 
ATOM     39  CE1 PHE C 305      12.912  13.314   6.599  0.50 36.66 LIG 0.00  A 
ATOM     40  CZ  PHE C 305      12.500  12.002   6.850  0.50 36.87 LIG 0.00  A 
ATOM     41  CE2 PHE C 305      12.241  11.149   5.792  0.50 36.76 LIG 0.00  A 
ATOM     42  CD2 PHE C 305      12.404  11.604   4.474  0.50 36.02 LIG 0.01  A 
ENDBRANCH 36 37
ENDBRANCH 35 36
BRANCH 35 43
ATOM     43  N   PHE C 305      15.325  13.146   3.367  0.50 33.54 LIG-0.35  N 
ATOM     44 H    PHE C 305      15.320  13.763   3.966  0.50 33.54 LIG 0.16  HD
ATOM     45  C   ASN C 304      16.086  12.053   3.418  0.50 33.07 LIG 0.24  C 
ATOM     46 O    ASN C 304      16.345  11.374   2.417  0.50 33.39 LIG-0.27  OA
BRANCH 45 47
ATOM     47  CA  ASN C 304      16.626  11.662   4.800  0.50 32.40 LIG 0.18  C 
BRANCH 47 48
ATOM     48  CB  ASN C 304      18.156  11.766   4.902  0.50 32.38 LIG 0.14  C 
BRANCH 48 49
ATOM     49  CG  ASN C 304      18.633  13.090   5.551  0.50 31.77 LIG 0.22  C 
ATOM     50 OD1  ASN C 304      18.035  14.143   5.359  0.50 27.48 LIG-0.27  OA
ATOM     51  ND2 ASN C 304      19.739  13.027   6.282  0.50 32.56 LIG-0.37  N 
ATOM     52 21HD ASN C 304      20.060  13.741   6.639  0.50 32.56 LIG 0.16  HD
ATOM     53 22HD ASN C 304      20.135  12.272   6.398  0.50 32.56 LIG 0.16  HD
ENDBRANCH 48 49
ENDBRANCH 47 48
BRANCH 47 54
ATOM     54  N   ASN C 304      16.229  10.316   5.133  0.50 31.56 LIG-0.34  N 
ATOM     55  C   LEU C 303      15.730  10.036   6.328  0.50 30.83 LIG 0.26  C 
ATOM     56 O    LEU C 303      15.385  10.905   7.115  0.50 29.02 LIG-0.27  OA
ATOM     57 H    ASN C 304      16.343   9.738   4.506  0.50 31.56 LIG 0.16  HD
BRANCH 55 58
ATOM     58  CA  LEU C 303      15.603   8.545   6.667  0.50 30.56 LIG 0.40  C 
ATOM     59  N   LEU C 303      14.895   8.279   7.949  0.50 30.88 LIG 0.61  N 
BRANCH 58 60
ATOM     60  CB  LEU C 303      14.931   7.775   5.523  0.50 30.80 LIG 0.06  C 
BRANCH 60 61
ATOM     61  CG  LEU C 303      13.519   8.201   5.105  0.50 30.92 LIG-0.02  C 
ATOM     62  CD2 LEU C 303      12.500   7.086   5.403  0.50 31.43 LIG 0.01  C 
ATOM     63  CD1 LEU C 303      13.477   8.625   3.647  0.50 30.50 LIG 0.01  C 
ENDBRANCH 60 61
ENDBRANCH 58 60
ENDBRANCH 55 58
ENDBRANCH 47 54
ENDBRANCH 45 47
ENDBRANCH 35 43
ENDBRANCH 1 35
TORSDOF 21
ENDMDL
MODEL 162
USER: ADFR SOLUTION from run 77
USER: SCORE 16.830007 LL:  -5.393 LR: -12.690 RR:   0.000 FEB:  -6.426
USER: RMSD 6.857956
USER: SEED 76
USER: STATUS no improvement in best in 43 clusters for 5 generations
USER: GENES 23
USER: genes 0 Translation |==|  0.41603 0.49783 0.23990
USER: genes 1 Rotation |==|  0.59284 0.92855 0.65944 0.67973
USER: genes 2 Torsion [N]-CA--C-[N] |==|  0.97772
USER: genes 3 Torsion [C]-N--CA-[C] |==|  0.84534
USER: genes 4 Torsion [N]-CA--C-[N] |==|  0.87272
USER: genes 5 Torsion [C]-N--CA-[CB] |==|  0.85673
USER: genes 6 Torsion [N]-CA--C-[N] |==|  0.28804
USER: genes 7 Torsion [N]-CA--C-[OXT] |==|  0.89966
USER: genes 8 Torsion [N]-CA--CB-[OG] |==|  0.86856
USER: genes 9 Torsion [CA]-CB--OG-[HG] |==|  0.64496
USER: genes 10 Torsion [N]-CA--CB-[CG2] |==|  0.44478
USER: genes 11 Torsion [CA]-CB--CG1-[CD1] |==|  0.19551
USER: genes 12 Torsion [N]-C--CA-[N] |==|  0.08333
USER: genes 13 Torsion [C]-CA--CB-[CG] |==|  0.69821
USER: genes 14 Torsion [CA]-CB--CG-[CD1] |==|  0.21005
USER: genes 15 Torsion [C]-CA--N-[C] |==|  0.63932
USER: genes 16 Torsion [N]-C--CA-[N] |==|  0.44483
USER: genes 17 Torsion [C]-CA--CB-[CG] |==|  0.26010
USER: genes 18 Torsion [CA]-CB--CG-[OD1] |==|  0.42960
USER: genes 19 Torsion [C]-CA--N-[C] |==|  0.63291
USER: genes 20 Torsion [N]-C--CA-[N] |==|  0.37071
USER: genes 21 Torsion [C]-CA--CB-[CG] |==|  0.08237
USER: genes 22 Torsion [CA]-CB--CG-[CD2] |==|  0.71942
ROOT
ATOM      1  C   PHE C 305      11.251   6.779  -5.541  0.50 34.66 LIG 0.24  C 
ATOM      2 O    PHE C 305      10.336   6.323  -6.220  0.50 33.80 LIG-0.27  OA
ATOM      3  N   PRO C 306      12.490   6.251  -5.559  0.50 35.29 LIG-0.34  N 
ATOM      4  CA  PRO C 306      12.672   4.868  -5.970  0.50 35.79 LIG 0.18  C 
ATOM      5  CB  PRO C 306      14.072   4.875  -6.628  0.50 35.80 LIG 0.04  C 
ATOM      6  CG  PRO C 306      14.646   6.273  -6.372  0.50 35.25 LIG 0.02  C 
ATOM      7  CD  PRO C 306      13.788   6.894  -5.304  0.50 35.51 LIG 0.13  C 
ENDROOT
BRANCH 4 8
ATOM      8  C   PRO C 306      12.701   3.950  -4.746  0.50 36.50 LIG 0.24  C 
ATOM      9  N   ILE C 307      12.727   4.565  -3.552  0.50 37.01 LIG-0.35  N 
ATOM     10 H    ILE C 307      12.788   5.415  -3.438  0.50 37.01 LIG 0.16  HD
ATOM     11 O    PRO C 306      12.686   2.707  -4.890  0.50 36.74 LIG-0.27  OA
BRANCH 9 12
ATOM     12  CA  ILE C 307      12.649   3.775  -2.323  0.50 37.44 LIG 0.18  C 
BRANCH 12 13
ATOM     13  C   ILE C 307      11.412   2.875  -2.279  0.50 38.23 LIG 0.24  C 
ATOM     14  N   SER C 308      10.277   3.468  -2.638  0.50 38.91 LIG-0.34  N 
ATOM     15 H    SER C 308      10.212   4.317  -2.761  0.50 38.91 LIG 0.16  HD
ATOM     16 O    ILE C 307      11.491   1.686  -1.941  0.50 38.79 LIG-0.27  OA
BRANCH 14 17
ATOM     17  CA  SER C 308       9.025   2.751  -2.863  0.50 39.43 LIG 0.20  C 
BRANCH 17 18
ATOM     18  C   SER C 308       8.581   2.242  -1.489  0.50 39.77 LIG 0.24  C 
ATOM     19  N   PRO C 309       7.580   2.900  -0.878  0.50 40.03 LIG-0.34  N 
ATOM     20  CD  PRO C 309       6.602   3.821  -1.480  0.50 39.83 LIG 0.13  C 
ATOM     21  CA  PRO C 309       7.336   2.699   0.552  0.50 40.09 LIG 0.19  C 
ATOM     22  CG  PRO C 309       6.023   4.519  -0.289  0.50 40.19 LIG 0.02  C 
ATOM     23  CB  PRO C 309       6.048   3.494   0.803  0.50 40.09 LIG 0.04  C 
ATOM     24 O    SER C 308       9.124   1.253  -0.988  0.50 39.81 LIG-0.27  OA
BRANCH 21 25
ATOM     25  C   PRO C 309       7.165   1.230   0.937  0.50 40.04 LIG 0.20  C 
ATOM     26 OXT  PRO C 309       6.595   0.429   0.191  0.50 40.10 LIG-0.65  OA
ATOM     27 O    PRO C 309       7.585   0.809   2.018  0.50 40.34 LIG-0.65  OA
ENDBRANCH 21 25
ENDBRANCH 17 18
BRANCH 17 28
ATOM     28  CB  SER C 308       9.229   1.581  -3.828  0.50 39.49 LIG 0.20  C 
BRANCH 28 29
ATOM     29 OG   SER C 308       9.968   1.976  -4.974  0.50 39.70 LIG-0.40  OA
ATOM     30 HG   SER C 308       9.551   1.750  -5.668  0.50 39.70 LIG 0.21  HD
ENDBRANCH 28 29
ENDBRANCH 17 28
ENDBRANCH 14 17
ENDBRANCH 12 13
BRANCH 12 31
ATOM     31  CB  ILE C 307      12.636   4.660  -1.053  0.50 37.20 LIG 0.01  C 
ATOM     32  CG2 ILE C 307      12.071   3.887   0.148  0.50 36.86 LIG 0.01  C 
BRANCH 31 33
ATOM     33  CG1 ILE C 307      14.049   5.215  -0.799  0.50 35.88 LIG 0.00  C 
ATOM     34  CD1 ILE C 307      14.522   6.256  -1.784  0.50 32.01 LIG 0.01  C 
ENDBRANCH 31 33
ENDBRANCH 12 31
ENDBRANCH 9 12
ENDBRANCH 4 8
BRANCH 1 35
ATOM     35  CA  PHE C 305      11.007   8.015  -4.665  0.50 34.47 LIG 0.18  C 
BRANCH 35 36
ATOM     36  CB  PHE C 305       9.876   8.823  -5.320  0.50 34.49 LIG 0.07  C 
BRANCH 36 37
ATOM     37  CG  PHE C 305      10.309  10.128  -5.968  0.50 35.55 LIG-0.06  A 
ATOM     38  CD1 PHE C 305      10.976  10.155  -7.192  0.50 36.28 LIG 0.01  A 
ATOM     39  CE1 PHE C 305      11.361  11.368  -7.771  0.50 36.66 LIG 0.00  A 
ATOM     40  CZ  PHE C 305      11.092  12.573  -7.116  0.50 36.87 LIG 0.00  A 
ATOM     41  CE2 PHE C 305      10.436  12.562  -5.898  0.50 36.76 LIG 0.00  A 
ATOM     42  CD2 PHE C 305      10.054  11.340  -5.323  0.50 36.02 LIG 0.01  A 
ENDBRANCH 36 37
ENDBRANCH 35 36
BRANCH 35 43
ATOM     43  N   PHE C 305      12.173   8.888  -4.492  0.50 33.54 LIG-0.35  N 
ATOM     44 H    PHE C 305      12.569   9.109  -5.223  0.50 33.54 LIG 0.16  HD
ATOM     45  C   ASN C 304      12.555   9.287  -3.278  0.50 33.07 LIG 0.24  C 
ATOM     46 O    ASN C 304      12.213   8.699  -2.245  0.50 33.39 LIG-0.27  OA
BRANCH 45 47
ATOM     47  CA  ASN C 304      13.444  10.536  -3.219  0.50 32.40 LIG 0.18  C 
BRANCH 47 48
ATOM     48  CB  ASN C 304      14.908  10.253  -3.589  0.50 32.38 LIG 0.14  C 
BRANCH 48 49
ATOM     49  CG  ASN C 304      15.214  10.501  -5.087  0.50 31.77 LIG 0.22  C 
ATOM     50 OD1  ASN C 304      16.347  10.775  -5.468  0.50 27.48 LIG-0.27  OA
ATOM     51  ND2 ASN C 304      14.183  10.446  -5.920  0.50 32.56 LIG-0.37  N 
ATOM     52 21HD ASN C 304      14.297  10.606  -6.758  0.50 32.56 LIG 0.16  HD
ATOM     53 22HD ASN C 304      13.400  10.251  -5.623  0.50 32.56 LIG 0.16  HD
ENDBRANCH 48 49
ENDBRANCH 47 48
BRANCH 47 54
ATOM     54  N   ASN C 304      13.402  11.121  -1.901  0.50 31.56 LIG-0.34  N 
ATOM     55  C   LEU C 303      13.207  12.422  -1.746  0.50 30.83 LIG 0.26  C 
ATOM     56 O    LEU C 303      12.846  13.145  -2.664  0.50 29.02 LIG-0.27  OA
ATOM     57 H    ASN C 304      13.512  10.565  -1.254  0.50 31.56 LIG 0.16  HD
BRANCH 55 58
ATOM     58  CA  LEU C 303      13.456  12.972  -0.336  0.50 30.56 LIG 0.40  C 
ATOM     59  N   LEU C 303      14.272  14.217  -0.312  0.50 30.88 LIG 0.61  N 
BRANCH 58 60
ATOM     60  CB  LEU C 303      12.135  13.192   0.411  0.50 30.80 LIG 0.06  C 
BRANCH 60 61
ATOM     61  CG  LEU C 303      10.953  12.281   0.059  0.50 30.92 LIG-0.02  C 
ATOM     62  CD2 LEU C 303       9.965  13.003  -0.877  0.50 31.43 LIG 0.01  C 
ATOM     63  CD1 LEU C 303      10.264  11.760   1.307  0.50 30.50 LIG 0.01  C 
ENDBRANCH 60 61
ENDBRANCH 58 60
ENDBRANCH 55 58
ENDBRANCH 47 54
ENDBRANCH 45 47
ENDBRANCH 35 43
ENDBRANCH 1 35
TORSDOF 21
ENDMDL
MODEL 163
USER: ADFR SOLUTION from run 43
USER: SCORE 17.545915 LL:  -6.696 LR: -12.694 RR:   0.000 FEB:  -6.430
USER: RMSD 11.141612
USER: SEED 42
USER: STATUS no improvement in best in 22 clusters for 5 generations
USER: GENES 23
USER: genes 0 Translation |==|  0.60174 0.50639 0.49649
USER: genes 1 Rotation |==|  0.23613 0.76842 0.54227 0.82639
USER: genes 2 Torsion [N]-CA--C-[N] |==|  0.93408
USER: genes 3 Torsion [C]-N--CA-[C] |==|  0.18150
USER: genes 4 Torsion [N]-CA--C-[N] |==|  0.05907
USER: genes 5 Torsion [C]-N--CA-[CB] |==|  0.19877
USER: genes 6 Torsion [N]-CA--C-[N] |==|  0.78889
USER: genes 7 Torsion [N]-CA--C-[OXT] |==|  0.88934
USER: genes 8 Torsion [N]-CA--CB-[OG] |==|  0.95529
USER: genes 9 Torsion [CA]-CB--OG-[HG] |==|  0.71469
USER: genes 10 Torsion [N]-CA--CB-[CG2] |==|  0.55016
USER: genes 11 Torsion [CA]-CB--CG1-[CD1] |==|  0.36541
USER: genes 12 Torsion [N]-C--CA-[N] |==|  0.48197
USER: genes 13 Torsion [C]-CA--CB-[CG] |==|  0.49942
USER: genes 14 Torsion [CA]-CB--CG-[CD1] |==|  0.84403
USER: genes 15 Torsion [C]-CA--N-[C] |==|  0.60560
USER: genes 16 Torsion [N]-C--CA-[N] |==|  0.17026
USER: genes 17 Torsion [C]-CA--CB-[CG] |==|  0.83397
USER: genes 18 Torsion [CA]-CB--CG-[OD1] |==|  0.85660
USER: genes 19 Torsion [C]-CA--N-[C] |==|  0.55563
USER: genes 20 Torsion [N]-C--CA-[N] |==|  0.46511
USER: genes 21 Torsion [C]-CA--CB-[CG] |==|  0.89867
USER: genes 22 Torsion [CA]-CB--CG-[CD2] |==|  0.63106
ROOT
ATOM      1  C   PHE C 305      15.986   6.984  -0.345  0.50 34.66 LIG 0.24  C 
ATOM      2 O    PHE C 305      16.564   5.902  -0.312  0.50 33.80 LIG-0.27  OA
ATOM      3  N   PRO C 306      16.153   7.918   0.613  0.50 35.29 LIG-0.34  N 
ATOM      4  CA  PRO C 306      16.605   7.513   1.935  0.50 35.79 LIG 0.18  C 
ATOM      5  CB  PRO C 306      17.418   8.735   2.422  0.50 35.80 LIG 0.04  C 
ATOM      6  CG  PRO C 306      17.206   9.824   1.364  0.50 35.25 LIG 0.02  C 
ATOM      7  CD  PRO C 306      16.038   9.381   0.527  0.50 35.51 LIG 0.13  C 
ENDROOT
BRANCH 4 8
ATOM      8  C   PRO C 306      15.407   7.307   2.864  0.50 36.50 LIG 0.24  C 
ATOM      9  N   ILE C 307      14.286   7.969   2.531  0.50 37.01 LIG-0.35  N 
ATOM     10 H    ILE C 307      14.220   8.530   1.883  0.50 37.01 LIG 0.16  HD
ATOM     11 O    PRO C 306      15.501   6.551   3.857  0.50 36.74 LIG-0.27  OA
BRANCH 9 12
ATOM     12  CA  ILE C 307      13.057   7.754   3.297  0.50 37.44 LIG 0.18  C 
BRANCH 12 13
ATOM     13  C   ILE C 307      13.174   8.238   4.744  0.50 38.23 LIG 0.24  C 
ATOM     14  N   SER C 308      14.131   9.137   4.958  0.50 38.91 LIG-0.34  N 
ATOM     15 H    SER C 308      14.723   9.338   4.367  0.50 38.91 LIG 0.16  HD
ATOM     16 O    ILE C 307      12.415   7.815   5.629  0.50 38.79 LIG-0.27  OA
BRANCH 14 17
ATOM     17  CA  SER C 308      14.283   9.876   6.208  0.50 39.43 LIG 0.20  C 
BRANCH 17 18
ATOM     18  C   SER C 308      15.298  10.985   5.919  0.50 39.77 LIG 0.24  C 
ATOM     19  N   PRO C 309      16.594  10.633   5.843  0.50 40.03 LIG-0.34  N 
ATOM     20  CD  PRO C 309      17.157   9.288   5.644  0.50 39.83 LIG 0.13  C 
ATOM     21  CA  PRO C 309      17.637  11.659   5.916  0.50 40.09 LIG 0.19  C 
ATOM     22  CG  PRO C 309      18.591   9.464   6.037  0.50 40.19 LIG 0.02  C 
ATOM     23  CB  PRO C 309      18.925  10.870   5.643  0.50 40.09 LIG 0.04  C 
ATOM     24 O    SER C 308      14.919  12.147   5.749  0.50 39.81 LIG-0.27  OA
BRANCH 21 25
ATOM     25  C   PRO C 309      17.451  12.786   4.900  0.50 40.04 LIG 0.20  C 
ATOM     26 OXT  PRO C 309      17.072  12.559   3.748  0.50 40.10 LIG-0.65  OA
ATOM     27 O    PRO C 309      17.690  13.956   5.207  0.50 40.34 LIG-0.65  OA
ENDBRANCH 21 25
ENDBRANCH 17 18
BRANCH 17 28
ATOM     28  CB  SER C 308      14.791   8.963   7.326  0.50 39.49 LIG 0.20  C 
BRANCH 28 29
ATOM     29 OG   SER C 308      14.637   7.592   6.986  0.50 39.70 LIG-0.40  OA
ATOM     30 HG   SER C 308      13.973   7.275   7.392  0.50 39.70 LIG 0.21  HD
ENDBRANCH 28 29
ENDBRANCH 17 28
ENDBRANCH 14 17
ENDBRANCH 12 13
BRANCH 12 31
ATOM     31  CB  ILE C 307      12.635   6.265   3.329  0.50 37.20 LIG 0.01  C 
ATOM     32  CG2 ILE C 307      11.160   6.122   3.732  0.50 36.86 LIG 0.01  C 
BRANCH 31 33
ATOM     33  CG1 ILE C 307      12.954   5.613   1.972  0.50 35.88 LIG 0.00  C 
ATOM     34  CD1 ILE C 307      13.687   4.296   2.042  0.50 32.01 LIG 0.01  C 
ENDBRANCH 31 33
ENDBRANCH 12 31
ENDBRANCH 9 12
ENDBRANCH 4 8
BRANCH 1 35
ATOM     35  CA  PHE C 305      15.069   7.322  -1.528  0.50 34.47 LIG 0.18  C 
BRANCH 35 36
ATOM     36  CB  PHE C 305      13.645   7.475  -0.973  0.50 34.49 LIG 0.07  C 
BRANCH 36 37
ATOM     37  CG  PHE C 305      12.585   7.819  -2.007  0.50 35.55 LIG-0.06  A 
ATOM     38  CD1 PHE C 305      12.695   8.941  -2.828  0.50 36.28 LIG 0.01  A 
ATOM     39  CE1 PHE C 305      11.708   9.234  -3.774  0.50 36.66 LIG 0.00  A 
ATOM     40  CZ  PHE C 305      10.588   8.407  -3.898  0.50 36.87 LIG 0.00  A 
ATOM     41  CE2 PHE C 305      10.463   7.293  -3.087  0.50 36.76 LIG 0.00  A 
ATOM     42  CD2 PHE C 305      11.456   7.007  -2.137  0.50 36.02 LIG 0.01  A 
ENDBRANCH 36 37
ENDBRANCH 35 36
BRANCH 35 43
ATOM     43  N   PHE C 305      15.053   6.321  -2.601  0.50 33.54 LIG-0.35  N 
ATOM     44 H    PHE C 305      15.087   5.505  -2.332  0.50 33.54 LIG 0.16  HD
ATOM     45  C   ASN C 304      14.989   6.692  -3.880  0.50 33.07 LIG 0.24  C 
ATOM     46 O    ASN C 304      15.293   7.829  -4.261  0.50 33.39 LIG-0.27  OA
BRANCH 45 47
ATOM     47  CA  ASN C 304      14.503   5.628  -4.874  0.50 32.40 LIG 0.18  C 
BRANCH 47 48
ATOM     48  CB  ASN C 304      14.538   6.106  -6.334  0.50 32.38 LIG 0.14  C 
BRANCH 48 49
ATOM     49  CG  ASN C 304      13.655   7.354  -6.586  0.50 31.77 LIG 0.22  C 
ATOM     50 OD1  ASN C 304      12.481   7.382  -6.237  0.50 27.48 LIG-0.27  OA
ATOM     51  ND2 ASN C 304      14.225   8.362  -7.235  0.50 32.56 LIG-0.37  N 
ATOM     52 21HD ASN C 304      13.767   9.065  -7.425  0.50 32.56 LIG 0.16  HD
ATOM     53 22HD ASN C 304      15.052   8.312  -7.466  0.50 32.56 LIG 0.16  HD
ENDBRANCH 48 49
ENDBRANCH 47 48
BRANCH 47 54
ATOM     54  N   ASN C 304      13.158   5.217  -4.553  0.50 31.56 LIG-0.34  N 
ATOM     55  C   LEU C 303      12.679   4.066  -5.000  0.50 30.83 LIG 0.26  C 
ATOM     56 O    LEU C 303      13.392   3.213  -5.510  0.50 29.02 LIG-0.27  OA
ATOM     57 H    ASN C 304      12.717   5.770  -4.063  0.50 31.56 LIG 0.16  HD
BRANCH 55 58
ATOM     58  CA  LEU C 303      11.168   3.860  -4.834  0.50 30.56 LIG 0.40  C 
ATOM     59  N   LEU C 303      10.632   2.704  -5.604  0.50 30.88 LIG 0.61  N 
BRANCH 58 60
ATOM     60  CB  LEU C 303      10.789   3.732  -3.354  0.50 30.80 LIG 0.06  C 
BRANCH 60 61
ATOM     61  CG  LEU C 303      11.763   2.995  -2.426  0.50 30.92 LIG-0.02  C 
ATOM     62  CD2 LEU C 303      11.016   1.978  -1.545  0.50 31.43 LIG 0.01  C 
ATOM     63  CD1 LEU C 303      12.577   3.969  -1.592  0.50 30.50 LIG 0.01  C 
ENDBRANCH 60 61
ENDBRANCH 58 60
ENDBRANCH 55 58
ENDBRANCH 47 54
ENDBRANCH 45 47
ENDBRANCH 35 43
ENDBRANCH 1 35
TORSDOF 21
ENDMDL
MODEL 164
USER: ADFR SOLUTION from run 114
USER: SCORE 16.360786 LL:  -4.875 LR: -12.693 RR:   0.000 FEB:  -6.428
USER: RMSD 11.829375
USER: SEED 113
USER: STATUS no improvement in best in 8 clusters for 5 generations
USER: GENES 23
USER: genes 0 Translation |==|  0.51644 0.67627 0.36458
USER: genes 1 Rotation |==|  0.18454 0.61687 0.78358 0.73751
USER: genes 2 Torsion [N]-CA--C-[N] |==|  0.25117
USER: genes 3 Torsion [C]-N--CA-[C] |==|  0.75770
USER: genes 4 Torsion [N]-CA--C-[N] |==|  0.92793
USER: genes 5 Torsion [C]-N--CA-[CB] |==|  0.46785
USER: genes 6 Torsion [N]-CA--C-[N] |==|  0.41111
USER: genes 7 Torsion [N]-CA--C-[OXT] |==|  0.84073
USER: genes 8 Torsion [N]-CA--CB-[OG] |==|  0.63720
USER: genes 9 Torsion [CA]-CB--OG-[HG] |==|  0.21392
USER: genes 10 Torsion [N]-CA--CB-[CG2] |==|  0.30950
USER: genes 11 Torsion [CA]-CB--CG1-[CD1] |==|  0.07274
USER: genes 12 Torsion [N]-C--CA-[N] |==|  0.94126
USER: genes 13 Torsion [C]-CA--CB-[CG] |==|  0.42189
USER: genes 14 Torsion [CA]-CB--CG-[CD1] |==|  0.90220
USER: genes 15 Torsion [C]-CA--N-[C] |==|  0.75068
USER: genes 16 Torsion [N]-C--CA-[N] |==|  0.40898
USER: genes 17 Torsion [C]-CA--CB-[CG] |==|  0.29816
USER: genes 18 Torsion [CA]-CB--CG-[OD1] |==|  0.23734
USER: genes 19 Torsion [C]-CA--N-[C] |==|  0.76398
USER: genes 20 Torsion [N]-C--CA-[N] |==|  0.37084
USER: genes 21 Torsion [C]-CA--CB-[CG] |==|  0.84956
USER: genes 22 Torsion [CA]-CB--CG-[CD2] |==|  0.81289
ROOT
ATOM      1  C   PHE C 305      13.811  11.061  -3.016  0.50 34.66 LIG 0.24  C 
ATOM      2 O    PHE C 305      14.959  11.190  -3.431  0.50 33.80 LIG-0.27  OA
ATOM      3  N   PRO C 306      13.428  11.522  -1.810  0.50 35.29 LIG-0.34  N 
ATOM      4  CA  PRO C 306      14.426  11.729  -0.773  0.50 35.79 LIG 0.18  C 
ATOM      5  CB  PRO C 306      13.857  12.917   0.037  0.50 35.80 LIG 0.04  C 
ATOM      6  CG  PRO C 306      12.458  13.177  -0.534  0.50 35.25 LIG 0.02  C 
ATOM      7  CD  PRO C 306      12.102  11.967  -1.353  0.50 35.51 LIG 0.13  C 
ENDROOT
BRANCH 4 8
ATOM      8  C   PRO C 306      14.509  10.501   0.136  0.50 36.50 LIG 0.24  C 
ATOM      9  N   ILE C 307      15.394   9.558  -0.231  0.50 37.01 LIG-0.35  N 
ATOM     10 H    ILE C 307      15.858   9.575  -0.955  0.50 37.01 LIG 0.16  HD
ATOM     11 O    PRO C 306      13.790  10.421   1.157  0.50 36.74 LIG-0.27  OA
BRANCH 9 12
ATOM     12  CA  ILE C 307      15.621   8.397   0.630  0.50 37.44 LIG 0.18  C 
BRANCH 12 13
ATOM     13  C   ILE C 307      16.691   8.653   1.694  0.50 38.23 LIG 0.24  C 
ATOM     14  N   SER C 308      17.587   9.582   1.372  0.50 38.91 LIG-0.34  N 
ATOM     15 H    SER C 308      17.646   9.922   0.584  0.50 38.91 LIG 0.16  HD
ATOM     16 O    ILE C 307      16.693   8.036   2.768  0.50 38.79 LIG-0.27  OA
BRANCH 14 17
ATOM     17  CA  SER C 308      18.564  10.124   2.312  0.50 39.43 LIG 0.20  C 
BRANCH 17 18
ATOM     18  C   SER C 308      17.771  11.005   3.280  0.50 39.77 LIG 0.24  C 
ATOM     19  N   PRO C 309      18.214  11.089   4.548  0.50 40.03 LIG-0.34  N 
ATOM     20  CD  PRO C 309      19.549  10.746   5.064  0.50 39.83 LIG 0.13  C 
ATOM     21  CA  PRO C 309      17.339  11.616   5.597  0.50 40.09 LIG 0.19  C 
ATOM     22  CG  PRO C 309      19.325  10.664   6.542  0.50 40.19 LIG 0.02  C 
ATOM     23  CB  PRO C 309      18.260  11.680   6.822  0.50 40.09 LIG 0.04  C 
ATOM     24 O    SER C 308      16.775  11.620   2.888  0.50 39.81 LIG-0.27  OA
BRANCH 21 25
ATOM     25  C   PRO C 309      16.758  12.991   5.268  0.50 40.04 LIG 0.20  C 
ATOM     26 OXT  PRO C 309      17.486  13.956   5.019  0.50 40.10 LIG-0.65  OA
ATOM     27 O    PRO C 309      15.539  13.173   5.255  0.50 40.34 LIG-0.65  OA
ENDBRANCH 21 25
ENDBRANCH 17 18
BRANCH 17 28
ATOM     28  CB  SER C 308      19.626  10.951   1.583  0.50 39.49 LIG 0.20  C 
BRANCH 28 29
ATOM     29 OG   SER C 308      20.938  10.573   1.974  0.50 39.70 LIG-0.40  OA
ATOM     30 HG   SER C 308      21.147   9.853   1.596  0.50 39.70 LIG 0.21  HD
ENDBRANCH 28 29
ENDBRANCH 17 28
ENDBRANCH 14 17
ENDBRANCH 12 13
BRANCH 12 31
ATOM     31  CB  ILE C 307      16.043   7.142  -0.172  0.50 37.20 LIG 0.01  C 
ATOM     32  CG2 ILE C 307      17.505   6.771   0.119  0.50 36.86 LIG 0.01  C 
BRANCH 31 33
ATOM     33  CG1 ILE C 307      15.062   5.993   0.120  0.50 35.88 LIG 0.00  C 
ATOM     34  CD1 ILE C 307      13.675   6.416   0.538  0.50 32.01 LIG 0.01  C 
ENDBRANCH 31 33
ENDBRANCH 12 31
ENDBRANCH 9 12
ENDBRANCH 4 8
BRANCH 1 35
ATOM     35  CA  PHE C 305      12.752  10.392  -3.902  0.50 34.47 LIG 0.18  C 
BRANCH 35 36
ATOM     36  CB  PHE C 305      12.294  11.433  -4.935  0.50 34.49 LIG 0.07  C 
BRANCH 36 37
ATOM     37  CG  PHE C 305      11.803  10.859  -6.253  0.50 35.55 LIG-0.06  A 
ATOM     38  CD1 PHE C 305      12.372   9.717  -6.815  0.50 36.28 LIG 0.01  A 
ATOM     39  CE1 PHE C 305      11.900   9.205  -8.028  0.50 36.66 LIG 0.00  A 
ATOM     40  CZ  PHE C 305      10.855   9.846  -8.700  0.50 36.87 LIG 0.00  A 
ATOM     41  CE2 PHE C 305      10.283  10.983  -8.156  0.50 36.76 LIG 0.00  A 
ATOM     42  CD2 PHE C 305      10.765  11.491  -6.940  0.50 36.02 LIG 0.01  A 
ENDBRANCH 36 37
ENDBRANCH 35 36
BRANCH 35 43
ATOM     43  N   PHE C 305      11.576   9.890  -3.184  0.50 33.54 LIG-0.35  N 
ATOM     44 H    PHE C 305      10.931  10.455  -3.108  0.50 33.54 LIG 0.16  HD
ATOM     45  C   ASN C 304      11.547   8.647  -2.701  0.50 33.07 LIG 0.24  C 
ATOM     46 O    ASN C 304      12.573   7.985  -2.504  0.50 33.39 LIG-0.27  OA
BRANCH 45 47
ATOM     47  CA  ASN C 304      10.160   8.061  -2.407  0.50 32.40 LIG 0.18  C 
BRANCH 47 48
ATOM     48  CB  ASN C 304       9.684   8.328  -0.970  0.50 32.38 LIG 0.14  C 
BRANCH 48 49
ATOM     49  CG  ASN C 304       8.557   9.388  -0.892  0.50 31.77 LIG 0.22  C 
ATOM     50 OD1  ASN C 304       7.381   9.077  -1.039  0.50 27.48 LIG-0.27  OA
ATOM     51  ND2 ASN C 304       8.938  10.645  -0.703  0.50 32.56 LIG-0.37  N 
ATOM     52 21HD ASN C 304       8.351  11.274  -0.681  0.50 32.56 LIG 0.16  HD
ATOM     53 22HD ASN C 304       9.772  10.832  -0.602  0.50 32.56 LIG 0.16  HD
ENDBRANCH 48 49
ENDBRANCH 47 48
BRANCH 47 54
ATOM     54  N   ASN C 304      10.155   6.637  -2.641  0.50 31.56 LIG-0.34  N 
ATOM     55  C   LEU C 303       9.945   6.154  -3.856  0.50 30.83 LIG 0.26  C 
ATOM     56 O    LEU C 303       9.959   6.860  -4.854  0.50 29.02 LIG-0.27  OA
ATOM     57 H    ASN C 304      10.296   6.155  -1.943  0.50 31.56 LIG 0.16  HD
BRANCH 55 58
ATOM     58  CA  LEU C 303       9.687   4.644  -3.940  0.50 30.56 LIG 0.40  C 
ATOM     59  N   LEU C 303       8.528   4.280  -4.799  0.50 30.88 LIG 0.61  N 
BRANCH 58 60
ATOM     60  CB  LEU C 303      10.944   3.895  -4.401  0.50 30.80 LIG 0.06  C 
BRANCH 60 61
ATOM     61  CG  LEU C 303      11.607   4.346  -5.708  0.50 30.92 LIG-0.02  C 
ATOM     62  CD2 LEU C 303      10.698   4.045  -6.914  0.50 31.43 LIG 0.01  C 
ATOM     63  CD1 LEU C 303      12.983   3.727  -5.873  0.50 30.50 LIG 0.01  C 
ENDBRANCH 60 61
ENDBRANCH 58 60
ENDBRANCH 55 58
ENDBRANCH 47 54
ENDBRANCH 45 47
ENDBRANCH 35 43
ENDBRANCH 1 35
TORSDOF 21
ENDMDL
MODEL 165
USER: ADFR SOLUTION from run 79
USER: SCORE 17.614638 LL:  -6.559 LR: -12.687 RR:   0.000 FEB:  -6.423
USER: RMSD 8.787591
USER: SEED 78
USER: STATUS searching
USER: GENES 23
USER: genes 0 Translation |==|  0.37614 0.48031 0.29543
USER: genes 1 Rotation |==|  0.63526 0.97915 0.45659 0.51526
USER: genes 2 Torsion [N]-CA--C-[N] |==|  0.01086
USER: genes 3 Torsion [C]-N--CA-[C] |==|  0.73527
USER: genes 4 Torsion [N]-CA--C-[N] |==|  0.39870
USER: genes 5 Torsion [C]-N--CA-[CB] |==|  0.44047
USER: genes 6 Torsion [N]-CA--C-[N] |==|  0.44957
USER: genes 7 Torsion [N]-CA--C-[OXT] |==|  0.33702
USER: genes 8 Torsion [N]-CA--CB-[OG] |==|  0.91873
USER: genes 9 Torsion [CA]-CB--OG-[HG] |==|  0.16708
USER: genes 10 Torsion [N]-CA--CB-[CG2] |==|  0.93676
USER: genes 11 Torsion [CA]-CB--CG1-[CD1] |==|  0.44031
USER: genes 12 Torsion [N]-C--CA-[N] |==|  0.97040
USER: genes 13 Torsion [C]-CA--CB-[CG] |==|  0.58459
USER: genes 14 Torsion [CA]-CB--CG-[CD1] |==|  0.26489
USER: genes 15 Torsion [C]-CA--N-[C] |==|  0.68814
USER: genes 16 Torsion [N]-C--CA-[N] |==|  0.46055
USER: genes 17 Torsion [C]-CA--CB-[CG] |==|  0.20560
USER: genes 18 Torsion [CA]-CB--CG-[OD1] |==|  0.62473
USER: genes 19 Torsion [C]-CA--N-[C] |==|  0.53491
USER: genes 20 Torsion [N]-C--CA-[N] |==|  0.53002
USER: genes 21 Torsion [C]-CA--CB-[CG] |==|  0.22536
USER: genes 22 Torsion [CA]-CB--CG-[CD2] |==|  0.64264
ROOT
ATOM      1  C   PHE C 305      10.234   6.358  -4.417  0.50 34.66 LIG 0.24  C 
ATOM      2 O    PHE C 305       9.170   6.077  -3.873  0.50 33.80 LIG-0.27  OA
ATOM      3  N   PRO C 306      11.041   5.419  -4.946  0.50 35.29 LIG-0.34  N 
ATOM      4  CA  PRO C 306      10.948   4.047  -4.472  0.50 35.79 LIG 0.18  C 
ATOM      5  CB  PRO C 306      11.317   3.214  -5.722  0.50 35.80 LIG 0.04  C 
ATOM      6  CG  PRO C 306      11.763   4.228  -6.781  0.50 35.25 LIG 0.02  C 
ATOM      7  CD  PRO C 306      12.002   5.523  -6.055  0.50 35.51 LIG 0.13  C 
ENDROOT
BRANCH 4 8
ATOM      8  C   PRO C 306      11.987   3.792  -3.378  0.50 36.50 LIG 0.24  C 
ATOM      9  N   ILE C 307      12.715   4.857  -3.002  0.50 37.01 LIG-0.35  N 
ATOM     10 H    ILE C 307      12.677   5.633  -3.369  0.50 37.01 LIG 0.16  HD
ATOM     11 O    PRO C 306      12.112   2.651  -2.880  0.50 36.74 LIG-0.27  OA
BRANCH 9 12
ATOM     12  CA  ILE C 307      13.660   4.738  -1.890  0.50 37.44 LIG 0.18  C 
BRANCH 12 13
ATOM     13  C   ILE C 307      13.060   5.191  -0.557  0.50 38.23 LIG 0.24  C 
ATOM     14  N   SER C 308      13.448   4.483   0.500  0.50 38.91 LIG-0.34  N 
ATOM     15 H    SER C 308      13.895   3.751   0.433  0.50 38.91 LIG 0.16  HD
ATOM     16 O    ILE C 307      12.281   6.153  -0.495  0.50 38.79 LIG-0.27  OA
BRANCH 14 17
ATOM     17  CA  SER C 308      13.161   4.865   1.880  0.50 39.43 LIG 0.20  C 
BRANCH 17 18
ATOM     18  C   SER C 308      14.217   5.907   2.255  0.50 39.77 LIG 0.24  C 
ATOM     19  N   PRO C 309      13.965   6.688   3.320  0.50 40.03 LIG-0.34  N 
ATOM     20  CD  PRO C 309      12.991   6.461   4.399  0.50 39.83 LIG 0.13  C 
ATOM     21  CA  PRO C 309      14.741   7.912   3.531  0.50 40.09 LIG 0.19  C 
ATOM     22  CG  PRO C 309      12.887   7.807   5.046  0.50 40.19 LIG 0.02  C 
ATOM     23  CB  PRO C 309      14.253   8.406   4.900  0.50 40.09 LIG 0.04  C 
ATOM     24 O    SER C 308      15.260   5.999   1.601  0.50 39.81 LIG-0.27  OA
BRANCH 21 25
ATOM     25  C   PRO C 309      16.252   7.680   3.533  0.50 40.04 LIG 0.20  C 
ATOM     26 OXT  PRO C 309      16.993   8.255   2.731  0.50 40.10 LIG-0.65  OA
ATOM     27 O    PRO C 309      16.769   6.896   4.333  0.50 40.34 LIG-0.65  OA
ENDBRANCH 21 25
ENDBRANCH 17 18
BRANCH 17 28
ATOM     28  CB  SER C 308      13.248   3.654   2.812  0.50 39.49 LIG 0.20  C 
BRANCH 28 29
ATOM     29 OG   SER C 308      12.918   2.451   2.133  0.50 39.70 LIG-0.40  OA
ATOM     30 HG   SER C 308      13.453   2.333   1.496  0.50 39.70 LIG 0.21  HD
ENDBRANCH 28 29
ENDBRANCH 17 28
ENDBRANCH 14 17
ENDBRANCH 12 13
BRANCH 12 31
ATOM     31  CB  ILE C 307      14.955   5.553  -2.127  0.50 37.20 LIG 0.01  C 
ATOM     32  CG2 ILE C 307      15.177   5.804  -3.626  0.50 36.86 LIG 0.01  C 
BRANCH 31 33
ATOM     33  CG1 ILE C 307      14.901   6.852  -1.302  0.50 35.88 LIG 0.00  C 
ATOM     34  CD1 ILE C 307      16.237   7.494  -1.018  0.50 32.01 LIG 0.01  C 
ENDBRANCH 31 33
ENDBRANCH 12 31
ENDBRANCH 9 12
ENDBRANCH 4 8
BRANCH 1 35
ATOM     35  CA  PHE C 305      10.659   7.827  -4.542  0.50 34.47 LIG 0.18  C 
BRANCH 35 36
ATOM     36  CB  PHE C 305       9.688   8.502  -5.523  0.50 34.49 LIG 0.07  C 
BRANCH 36 37
ATOM     37  CG  PHE C 305      10.280   9.646  -6.331  0.50 35.55 LIG-0.06  A 
ATOM     38  CD1 PHE C 305      10.790   9.452  -7.614  0.50 36.28 LIG 0.01  A 
ATOM     39  CE1 PHE C 305      11.327  10.520  -8.339  0.50 36.66 LIG 0.00  A 
ATOM     40  CZ  PHE C 305      11.369  11.799  -7.775  0.50 36.87 LIG 0.00  A 
ATOM     41  CE2 PHE C 305      10.871  12.005  -6.501  0.50 36.76 LIG 0.00  A 
ATOM     42  CD2 PHE C 305      10.336  10.927  -5.779  0.50 36.02 LIG 0.01  A 
ENDBRANCH 36 37
ENDBRANCH 35 36
BRANCH 35 43
ATOM     43  N   PHE C 305      12.031   8.034  -5.019  0.50 33.54 LIG-0.35  N 
ATOM     44 H    PHE C 305      12.167   7.802  -5.836  0.50 33.54 LIG 0.16  HD
ATOM     45  C   ASN C 304      12.965   8.544  -4.215  0.50 33.07 LIG 0.24  C 
ATOM     46 O    ASN C 304      12.859   8.539  -2.983  0.50 33.39 LIG-0.27  OA
BRANCH 45 47
ATOM     47  CA  ASN C 304      14.192   9.159  -4.901  0.50 32.40 LIG 0.18  C 
BRANCH 47 48
ATOM     48  CB  ASN C 304      15.126   8.108  -5.522  0.50 32.38 LIG 0.14  C 
BRANCH 48 49
ATOM     49  CG  ASN C 304      14.559   7.485  -6.822  0.50 31.77 LIG 0.22  C 
ATOM     50 OD1  ASN C 304      14.602   6.276  -7.019  0.50 27.48 LIG-0.27  OA
ATOM     51  ND2 ASN C 304      14.071   8.331  -7.721  0.50 32.56 LIG-0.37  N 
ATOM     52 21HD ASN C 304      13.772   8.036  -8.472  0.50 32.56 LIG 0.16  HD
ATOM     53 22HD ASN C 304      14.055   9.175  -7.553  0.50 32.56 LIG 0.16  HD
ENDBRANCH 48 49
ENDBRANCH 47 48
BRANCH 47 54
ATOM     54  N   ASN C 304      14.947   9.954  -3.963  0.50 31.56 LIG-0.34  N 
ATOM     55  C   LEU C 303      15.899  10.773  -4.384  0.50 30.83 LIG 0.26  C 
ATOM     56 O    LEU C 303      16.044  11.058  -5.565  0.50 29.02 LIG-0.27  OA
ATOM     57 H    ASN C 304      14.726   9.848  -3.138  0.50 31.56 LIG 0.16  HD
BRANCH 55 58
ATOM     58  CA  LEU C 303      16.812  11.353  -3.297  0.50 30.56 LIG 0.40  C 
ATOM     59  N   LEU C 303      17.694  12.452  -3.776  0.50 30.88 LIG 0.61  N 
BRANCH 58 60
ATOM     60  CB  LEU C 303      15.997  11.819  -2.084  0.50 30.80 LIG 0.06  C 
BRANCH 60 61
ATOM     61  CG  LEU C 303      15.560  10.760  -1.065  0.50 30.92 LIG-0.02  C 
ATOM     62  CD2 LEU C 303      14.048  10.857  -0.789  0.50 31.43 LIG 0.01  C 
ATOM     63  CD1 LEU C 303      16.372  10.855   0.215  0.50 30.50 LIG 0.01  C 
ENDBRANCH 60 61
ENDBRANCH 58 60
ENDBRANCH 55 58
ENDBRANCH 47 54
ENDBRANCH 45 47
ENDBRANCH 35 43
ENDBRANCH 1 35
TORSDOF 21
ENDMDL
MODEL 166
USER: ADFR SOLUTION from run 55
USER: SCORE 17.097038 LL:  -5.255 LR: -12.676 RR:   0.000 FEB:  -6.411
USER: RMSD 10.924092
USER: SEED 54
USER: STATUS no improvement in best in 3 clusters for 5 generations
USER: GENES 23
USER: genes 0 Translation |==|  0.35927 0.75635 0.35741
USER: genes 1 Rotation |==|  0.77660 0.80960 0.22806 0.56073
USER: genes 2 Torsion [N]-CA--C-[N] |==|  0.33376
USER: genes 3 Torsion [C]-N--CA-[C] |==|  0.80959
USER: genes 4 Torsion [N]-CA--C-[N] |==|  0.47053
USER: genes 5 Torsion [C]-N--CA-[CB] |==|  0.90069
USER: genes 6 Torsion [N]-CA--C-[N] |==|  0.32350
USER: genes 7 Torsion [N]-CA--C-[OXT] |==|  0.28928
USER: genes 8 Torsion [N]-CA--CB-[OG] |==|  0.81802
USER: genes 9 Torsion [CA]-CB--OG-[HG] |==|  0.62753
USER: genes 10 Torsion [N]-CA--CB-[CG2] |==|  0.24891
USER: genes 11 Torsion [CA]-CB--CG1-[CD1] |==|  0.59920
USER: genes 12 Torsion [N]-C--CA-[N] |==|  0.97163
USER: genes 13 Torsion [C]-CA--CB-[CG] |==|  0.68347
USER: genes 14 Torsion [CA]-CB--CG-[CD1] |==|  0.73327
USER: genes 15 Torsion [C]-CA--N-[C] |==|  0.76111
USER: genes 16 Torsion [N]-C--CA-[N] |==|  0.00407
USER: genes 17 Torsion [C]-CA--CB-[CG] |==|  0.57525
USER: genes 18 Torsion [CA]-CB--CG-[OD1] |==|  0.21220
USER: genes 19 Torsion [C]-CA--N-[C] |==|  0.73442
USER: genes 20 Torsion [N]-C--CA-[N] |==|  0.11646
USER: genes 21 Torsion [C]-CA--CB-[CG] |==|  0.29994
USER: genes 22 Torsion [CA]-CB--CG-[CD2] |==|  0.78211
ROOT
ATOM      1  C   PHE C 305       9.803  12.983  -3.161  0.50 34.66 LIG 0.24  C 
ATOM      2 O    PHE C 305       9.059  13.951  -3.032  0.50 33.80 LIG-0.27  OA
ATOM      3  N   PRO C 306       9.652  11.858  -2.435  0.50 35.29 LIG-0.34  N 
ATOM      4  CA  PRO C 306       8.954  11.918  -1.161  0.50 35.79 LIG 0.18  C 
ATOM      5  CB  PRO C 306       8.287  10.527  -1.055  0.50 35.80 LIG 0.04  C 
ATOM      6  CG  PRO C 306       8.824   9.717  -2.241  0.50 35.25 LIG 0.02  C 
ATOM      7  CD  PRO C 306      10.015  10.472  -2.766  0.50 35.51 LIG 0.13  C 
ENDROOT
BRANCH 4 8
ATOM      8  C   PRO C 306       9.954  12.081  -0.015  0.50 36.50 LIG 0.24  C 
ATOM      9  N   ILE C 307       9.811  13.185   0.737  0.50 37.01 LIG-0.35  N 
ATOM     10 H    ILE C 307       9.249  13.816   0.582  0.50 37.01 LIG 0.16  HD
ATOM     11 O    PRO C 306      10.830  11.209   0.186  0.50 36.74 LIG-0.27  OA
BRANCH 9 12
ATOM     12  CA  ILE C 307      10.653  13.376   1.919  0.50 37.44 LIG 0.18  C 
BRANCH 12 13
ATOM     13  C   ILE C 307      10.329  12.384   3.039  0.50 38.23 LIG 0.24  C 
ATOM     14  N   SER C 308      11.203  12.368   4.041  0.50 38.91 LIG-0.34  N 
ATOM     15 H    SER C 308      11.957  12.781   4.011  0.50 38.91 LIG 0.16  HD
ATOM     16 O    ILE C 307       9.317  11.670   2.994  0.50 38.79 LIG-0.27  OA
BRANCH 14 17
ATOM     17  CA  SER C 308      10.983  11.652   5.295  0.50 39.43 LIG 0.20  C 
BRANCH 17 18
ATOM     18  C   SER C 308      11.418  10.208   5.035  0.50 39.77 LIG 0.24  C 
ATOM     19  N   PRO C 309      12.460   9.738   5.743  0.50 40.03 LIG-0.34  N 
ATOM     20  CD  PRO C 309      13.028  10.281   6.987  0.50 39.83 LIG 0.13  C 
ATOM     21  CA  PRO C 309      13.144   8.515   5.318  0.50 40.09 LIG 0.19  C 
ATOM     22  CG  PRO C 309      14.360   9.604   7.071  0.50 40.19 LIG 0.02  C 
ATOM     23  CB  PRO C 309      14.142   8.257   6.454  0.50 40.09 LIG 0.04  C 
ATOM     24 O    SER C 308      10.811   9.513   4.215  0.50 39.81 LIG-0.27  OA
BRANCH 21 25
ATOM     25  C   PRO C 309      12.201   7.327   5.128  0.50 40.04 LIG 0.20  C 
ATOM     26 OXT  PRO C 309      11.866   6.943   4.004  0.50 40.10 LIG-0.65  OA
ATOM     27 O    PRO C 309      11.737   6.728   6.101  0.50 40.34 LIG-0.65  OA
ENDBRANCH 21 25
ENDBRANCH 17 18
BRANCH 17 28
ATOM     28  CB  SER C 308       9.509  11.702   5.703  0.50 39.49 LIG 0.20  C 
BRANCH 28 29
ATOM     29 OG   SER C 308       9.099  13.027   6.008  0.50 39.70 LIG-0.40  OA
ATOM     30 HG   SER C 308       8.658  13.027   6.723  0.50 39.70 LIG 0.21  HD
ENDBRANCH 28 29
ENDBRANCH 17 28
ENDBRANCH 14 17
ENDBRANCH 12 13
BRANCH 12 31
ATOM     31  CB  ILE C 307      10.532  14.805   2.504  0.50 37.20 LIG 0.01  C 
ATOM     32  CG2 ILE C 307       9.402  14.878   3.542  0.50 36.86 LIG 0.01  C 
BRANCH 31 33
ATOM     33  CG1 ILE C 307      11.895  15.245   3.066  0.50 35.88 LIG 0.00  C 
ATOM     34  CD1 ILE C 307      11.838  16.096   4.312  0.50 32.01 LIG 0.01  C 
ENDBRANCH 31 33
ENDBRANCH 12 31
ENDBRANCH 9 12
ENDBRANCH 4 8
BRANCH 1 35
ATOM     35  CA  PHE C 305      10.925  13.020  -4.207  0.50 34.47 LIG 0.18  C 
BRANCH 35 36
ATOM     36  CB  PHE C 305      10.260  13.026  -5.592  0.50 34.49 LIG 0.07  C 
BRANCH 36 37
ATOM     37  CG  PHE C 305      10.510  11.784  -6.431  0.50 35.55 LIG-0.06  A 
ATOM     38  CD1 PHE C 305      11.523  11.735  -7.389  0.50 36.28 LIG 0.01  A 
ATOM     39  CE1 PHE C 305      11.736  10.580  -8.146  0.50 36.66 LIG 0.00  A 
ATOM     40  CZ  PHE C 305      10.922   9.459  -7.960  0.50 36.87 LIG 0.00  A 
ATOM     41  CE2 PHE C 305       9.910   9.494  -7.017  0.50 36.76 LIG 0.00  A 
ATOM     42  CD2 PHE C 305       9.701  10.659  -6.262  0.50 36.02 LIG 0.01  A 
ENDBRANCH 36 37
ENDBRANCH 35 36
BRANCH 35 43
ATOM     43  N   PHE C 305      11.868  11.898  -4.141  0.50 33.54 LIG-0.35  N 
ATOM     44 H    PHE C 305      11.680  11.239  -4.660  0.50 33.54 LIG 0.16  HD
ATOM     45  C   ASN C 304      12.922  11.937  -3.325  0.50 33.07 LIG 0.24  C 
ATOM     46 O    ASN C 304      12.986  12.702  -2.355  0.50 33.39 LIG-0.27  OA
BRANCH 45 47
ATOM     47  CA  ASN C 304      14.077  10.983  -3.656  0.50 32.40 LIG 0.18  C 
BRANCH 47 48
ATOM     48  CB  ASN C 304      15.421  11.703  -3.842  0.50 32.38 LIG 0.14  C 
BRANCH 48 49
ATOM     49  CG  ASN C 304      16.391  10.943  -4.781  0.50 31.77 LIG 0.22  C 
ATOM     50 OD1  ASN C 304      16.240  10.957  -5.998  0.50 27.48 LIG-0.27  OA
ATOM     51  ND2 ASN C 304      17.358  10.246  -4.197  0.50 32.56 LIG-0.37  N 
ATOM     52 21HD ASN C 304      17.904   9.783  -4.674  0.50 32.56 LIG 0.16  HD
ATOM     53 22HD ASN C 304      17.438  10.256  -3.340  0.50 32.56 LIG 0.16  HD
ENDBRANCH 48 49
ENDBRANCH 47 48
BRANCH 47 54
ATOM     54  N   ASN C 304      13.782  10.232  -4.852  0.50 31.56 LIG-0.34  N 
ATOM     55  C   LEU C 303      13.253   9.020  -4.775  0.50 30.83 LIG 0.26  C 
ATOM     56 O    LEU C 303      12.797   8.568  -3.735  0.50 29.02 LIG-0.27  OA
ATOM     57 H    ASN C 304      13.975  10.633  -5.588  0.50 31.56 LIG 0.16  HD
BRANCH 55 58
ATOM     58  CA  LEU C 303      13.239   8.213  -6.080  0.50 30.56 LIG 0.40  C 
ATOM     59  N   LEU C 303      14.497   8.325  -6.868  0.50 30.88 LIG 0.61  N 
BRANCH 58 60
ATOM     60  CB  LEU C 303      12.913   6.738  -5.811  0.50 30.80 LIG 0.06  C 
BRANCH 60 61
ATOM     61  CG  LEU C 303      11.534   6.221  -6.239  0.50 30.92 LIG-0.02  C 
ATOM     62  CD2 LEU C 303      10.453   6.644  -5.227  0.50 31.43 LIG 0.01  C 
ATOM     63  CD1 LEU C 303      11.548   4.717  -6.450  0.50 30.50 LIG 0.01  C 
ENDBRANCH 60 61
ENDBRANCH 58 60
ENDBRANCH 55 58
ENDBRANCH 47 54
ENDBRANCH 45 47
ENDBRANCH 35 43
ENDBRANCH 1 35
TORSDOF 21
ENDMDL
MODEL 167
USER: ADFR SOLUTION from run 100
USER: SCORE 17.483954 LL:  -6.585 LR: -12.672 RR:   0.000 FEB:  -6.408
USER: RMSD 11.034409
USER: SEED 99
USER: STATUS no improvement in best in 28 clusters for 5 generations
USER: GENES 23
USER: genes 0 Translation |==|  0.50241 0.55522 0.69367
USER: genes 1 Rotation |==|  0.50667 0.06879 0.50198 0.75300
USER: genes 2 Torsion [N]-CA--C-[N] |==|  0.00850
USER: genes 3 Torsion [C]-N--CA-[C] |==|  0.63744
USER: genes 4 Torsion [N]-CA--C-[N] |==|  0.57288
USER: genes 5 Torsion [C]-N--CA-[CB] |==|  0.54135
USER: genes 6 Torsion [N]-CA--C-[N] |==|  0.32409
USER: genes 7 Torsion [N]-CA--C-[OXT] |==|  0.88710
USER: genes 8 Torsion [N]-CA--CB-[OG] |==|  0.90820
USER: genes 9 Torsion [CA]-CB--OG-[HG] |==|  0.92362
USER: genes 10 Torsion [N]-CA--CB-[CG2] |==|  0.80472
USER: genes 11 Torsion [CA]-CB--CG1-[CD1] |==|  0.34168
USER: genes 12 Torsion [N]-C--CA-[N] |==|  0.00210
USER: genes 13 Torsion [C]-CA--CB-[CG] |==|  0.35430
USER: genes 14 Torsion [CA]-CB--CG-[CD1] |==|  0.36679
USER: genes 15 Torsion [C]-CA--N-[C] |==|  0.69050
USER: genes 16 Torsion [N]-C--CA-[N] |==|  0.83333
USER: genes 17 Torsion [C]-CA--CB-[CG] |==|  0.44727
USER: genes 18 Torsion [CA]-CB--CG-[OD1] |==|  0.96152
USER: genes 19 Torsion [C]-CA--N-[C] |==|  0.66608
USER: genes 20 Torsion [N]-C--CA-[N] |==|  0.23654
USER: genes 21 Torsion [C]-CA--CB-[CG] |==|  0.13784
USER: genes 22 Torsion [CA]-CB--CG-[CD2] |==|  0.53409
ROOT
ATOM      1  C   PHE C 305      13.454   8.156   3.648  0.50 34.66 LIG 0.24  C 
ATOM      2 O    PHE C 305      13.566   7.278   4.498  0.50 33.80 LIG-0.27  OA
ATOM      3  N   PRO C 306      13.392   7.877   2.331  0.50 35.29 LIG-0.34  N 
ATOM      4  CA  PRO C 306      13.944   6.625   1.839  0.50 35.79 LIG 0.18  C 
ATOM      5  CB  PRO C 306      13.041   6.291   0.628  0.50 35.80 LIG 0.04  C 
ATOM      6  CG  PRO C 306      12.133   7.511   0.437  0.50 35.25 LIG 0.02  C 
ATOM      7  CD  PRO C 306      12.743   8.624   1.243  0.50 35.51 LIG 0.13  C 
ENDROOT
BRANCH 4 8
ATOM      8  C   PRO C 306      15.378   6.834   1.349  0.50 36.50 LIG 0.24  C 
ATOM      9  N   ILE C 307      15.880   8.070   1.513  0.50 37.01 LIG-0.35  N 
ATOM     10 H    ILE C 307      15.438   8.744   1.811  0.50 37.01 LIG 0.16  HD
ATOM     11 O    PRO C 306      16.017   5.884   0.844  0.50 36.74 LIG-0.27  OA
BRANCH 9 12
ATOM     12  CA  ILE C 307      17.278   8.340   1.173  0.50 37.44 LIG 0.18  C 
BRANCH 12 13
ATOM     13  C   ILE C 307      18.024   9.073   2.291  0.50 38.23 LIG 0.24  C 
ATOM     14  N   SER C 308      19.054   9.810   1.885  0.50 38.91 LIG-0.34  N 
ATOM     15 H    SER C 308      19.362   9.781   1.082  0.50 38.91 LIG 0.16  HD
ATOM     16 O    ILE C 307      17.667   8.978   3.474  0.50 38.79 LIG-0.27  OA
BRANCH 14 17
ATOM     17  CA  SER C 308      19.771  10.744   2.749  0.50 39.43 LIG 0.20  C 
BRANCH 17 18
ATOM     18  C   SER C 308      18.695  11.526   3.506  0.50 39.77 LIG 0.24  C 
ATOM     19  N   PRO C 309      18.656  11.390   4.843  0.50 40.03 LIG-0.34  N 
ATOM     20  CD  PRO C 309      19.712  10.881   5.733  0.50 39.83 LIG 0.13  C 
ATOM     21  CA  PRO C 309      17.471  11.817   5.589  0.50 40.09 LIG 0.19  C 
ATOM     22  CG  PRO C 309      18.973  10.599   7.003  0.50 40.19 LIG 0.02  C 
ATOM     23  CB  PRO C 309      17.892  11.635   7.053  0.50 40.09 LIG 0.04  C 
ATOM     24 O    SER C 308      17.914  12.261   2.894  0.50 39.81 LIG-0.27  OA
BRANCH 21 25
ATOM     25  C   PRO C 309      17.064  13.263   5.305  0.50 40.04 LIG 0.20  C 
ATOM     26 OXT  PRO C 309      17.905  14.159   5.193  0.50 40.10 LIG-0.65  OA
ATOM     27 O    PRO C 309      15.876  13.573   5.194  0.50 40.34 LIG-0.65  OA
ENDBRANCH 21 25
ENDBRANCH 17 18
BRANCH 17 28
ATOM     28  CB  SER C 308      20.643  11.693   1.924  0.50 39.49 LIG 0.20  C 
BRANCH 28 29
ATOM     29 OG   SER C 308      21.147  11.056   0.759  0.50 39.70 LIG-0.40  OA
ATOM     30 HG   SER C 308      21.209  10.229   0.896  0.50 39.70 LIG 0.21  HD
ENDBRANCH 28 29
ENDBRANCH 17 28
ENDBRANCH 14 17
ENDBRANCH 12 13
BRANCH 12 31
ATOM     31  CB  ILE C 307      17.418   9.181  -0.120  0.50 37.20 LIG 0.01  C 
ATOM     32  CG2 ILE C 307      17.027   8.355  -1.355  0.50 36.86 LIG 0.01  C 
BRANCH 31 33
ATOM     33  CG1 ILE C 307      16.599  10.476   0.020  0.50 35.88 LIG 0.00  C 
ATOM     34  CD1 ILE C 307      17.378  11.757  -0.160  0.50 32.01 LIG 0.01  C 
ENDBRANCH 31 33
ENDBRANCH 12 31
ENDBRANCH 9 12
ENDBRANCH 4 8
BRANCH 1 35
ATOM     35  CA  PHE C 305      13.338   9.624   4.079  0.50 34.47 LIG 0.18  C 
BRANCH 35 36
ATOM     36  CB  PHE C 305      12.138   9.728   5.033  0.50 34.49 LIG 0.07  C 
BRANCH 36 37
ATOM     37  CG  PHE C 305      12.431  10.397   6.366  0.50 35.55 LIG-0.06  A 
ATOM     38  CD1 PHE C 305      11.609  11.398   6.882  0.50 36.28 LIG 0.01  A 
ATOM     39  CE1 PHE C 305      11.897  11.996   8.113  0.50 36.66 LIG 0.00  A 
ATOM     40  CZ  PHE C 305      13.027  11.602   8.836  0.50 36.87 LIG 0.00  A 
ATOM     41  CE2 PHE C 305      13.854  10.613   8.334  0.50 36.76 LIG 0.00  A 
ATOM     42  CD2 PHE C 305      13.559  10.020   7.097  0.50 36.02 LIG 0.01  A 
ENDBRANCH 36 37
ENDBRANCH 35 36
BRANCH 35 43
ATOM     43  N   PHE C 305      13.153  10.578   2.980  0.50 33.54 LIG-0.35  N 
ATOM     44 H    PHE C 305      12.392  10.523   2.581  0.50 33.54 LIG 0.16  HD
ATOM     45  C   ASN C 304      14.112  11.445   2.657  0.50 33.07 LIG 0.24  C 
ATOM     46 O    ASN C 304      15.294  11.284   2.985  0.50 33.39 LIG-0.27  OA
BRANCH 45 47
ATOM     47  CA  ASN C 304      13.675  12.679   1.857  0.50 32.40 LIG 0.18  C 
BRANCH 47 48
ATOM     48  CB  ASN C 304      12.678  13.569   2.615  0.50 32.38 LIG 0.14  C 
BRANCH 48 49
ATOM     49  CG  ASN C 304      12.593  15.007   2.045  0.50 31.77 LIG 0.22  C 
ATOM     50 OD1  ASN C 304      13.436  15.431   1.262  0.50 27.48 LIG-0.27  OA
ATOM     51  ND2 ASN C 304      11.593  15.761   2.485  0.50 32.56 LIG-0.37  N 
ATOM     52 21HD ASN C 304      11.521  16.576   2.220  0.50 32.56 LIG 0.16  HD
ATOM     53 22HD ASN C 304      11.018  15.434   3.034  0.50 32.56 LIG 0.16  HD
ENDBRANCH 48 49
ENDBRANCH 47 48
BRANCH 47 54
ATOM     54  N   ASN C 304      13.082  12.281   0.603  0.50 31.56 LIG-0.34  N 
ATOM     55  C   LEU C 303      13.604  12.681  -0.547  0.50 30.83 LIG 0.26  C 
ATOM     56 O    LEU C 303      14.704  13.210  -0.620  0.50 29.02 LIG-0.27  OA
ATOM     57 H    ASN C 304      12.386  11.781   0.674  0.50 31.56 LIG 0.16  HD
BRANCH 55 58
ATOM     58  CA  LEU C 303      12.744  12.434  -1.793  0.50 30.56 LIG 0.40  C 
ATOM     59  N   LEU C 303      11.745  13.506  -2.056  0.50 30.88 LIG 0.61  N 
BRANCH 58 60
ATOM     60  CB  LEU C 303      13.620  12.212  -3.032  0.50 30.80 LIG 0.06  C 
BRANCH 60 61
ATOM     61  CG  LEU C 303      14.764  11.196  -2.928  0.50 30.92 LIG-0.02  C 
ATOM     62  CD2 LEU C 303      15.715  11.318  -4.133  0.50 31.43 LIG 0.01  C 
ATOM     63  CD1 LEU C 303      14.235   9.781  -2.770  0.50 30.50 LIG 0.01  C 
ENDBRANCH 60 61
ENDBRANCH 58 60
ENDBRANCH 55 58
ENDBRANCH 47 54
ENDBRANCH 45 47
ENDBRANCH 35 43
ENDBRANCH 1 35
TORSDOF 21
ENDMDL
MODEL 168
USER: ADFR SOLUTION from run 21
USER: SCORE 16.629916 LL:  -4.711 LR: -12.667 RR:   0.000 FEB:  -6.403
USER: RMSD 9.575189
USER: SEED 20
USER: STATUS no improvement in best in 3 clusters for 5 generations
USER: GENES 23
USER: genes 0 Translation |==|  0.27243 0.67596 0.30906
USER: genes 1 Rotation |==|  0.60120 0.94189 0.70225 0.55990
USER: genes 2 Torsion [N]-CA--C-[N] |==|  0.54771
USER: genes 3 Torsion [C]-N--CA-[C] |==|  0.70225
USER: genes 4 Torsion [N]-CA--C-[N] |==|  0.36085
USER: genes 5 Torsion [C]-N--CA-[CB] |==|  0.16033
USER: genes 6 Torsion [N]-CA--C-[N] |==|  0.12619
USER: genes 7 Torsion [N]-CA--C-[OXT] |==|  0.90513
USER: genes 8 Torsion [N]-CA--CB-[OG] |==|  0.10204
USER: genes 9 Torsion [CA]-CB--OG-[HG] |==|  0.05961
USER: genes 10 Torsion [N]-CA--CB-[CG2] |==|  0.84819
USER: genes 11 Torsion [CA]-CB--CG1-[CD1] |==|  0.29593
USER: genes 12 Torsion [N]-C--CA-[N] |==|  0.87306
USER: genes 13 Torsion [C]-CA--CB-[CG] |==|  0.42093
USER: genes 14 Torsion [CA]-CB--CG-[CD1] |==|  0.14369
USER: genes 15 Torsion [C]-CA--N-[C] |==|  0.74869
USER: genes 16 Torsion [N]-C--CA-[N] |==|  0.17646
USER: genes 17 Torsion [C]-CA--CB-[CG] |==|  0.57884
USER: genes 18 Torsion [CA]-CB--CG-[OD1] |==|  0.20588
USER: genes 19 Torsion [C]-CA--N-[C] |==|  0.75556
USER: genes 20 Torsion [N]-C--CA-[N] |==|  0.89813
USER: genes 21 Torsion [C]-CA--CB-[CG] |==|  0.05243
USER: genes 22 Torsion [CA]-CB--CG-[CD2] |==|  0.61177
ROOT
ATOM      1  C   PHE C 305       7.589  11.054  -4.141  0.50 34.66 LIG 0.24  C 
ATOM      2 O    PHE C 305       6.549  10.527  -4.524  0.50 33.80 LIG-0.27  OA
ATOM      3  N   PRO C 306       8.769  10.846  -4.758  0.50 35.29 LIG-0.34  N 
ATOM      4  CA  PRO C 306       8.957   9.645  -5.556  0.50 35.79 LIG 0.18  C 
ATOM      5  CB  PRO C 306       9.936  10.103  -6.661  0.50 35.80 LIG 0.04  C 
ATOM      6  CG  PRO C 306      10.360  11.526  -6.279  0.50 35.25 LIG 0.02  C 
ATOM      7  CD  PRO C 306       9.949  11.720  -4.845  0.50 35.51 LIG 0.13  C 
ENDROOT
BRANCH 4 8
ATOM      8  C   PRO C 306       9.624   8.552  -4.719  0.50 36.50 LIG 0.24  C 
ATOM      9  N   ILE C 307      10.174   7.539  -5.409  0.50 37.01 LIG-0.35  N 
ATOM     10 H    ILE C 307      10.123   7.439  -6.261  0.50 37.01 LIG 0.16  HD
ATOM     11 O    PRO C 306       9.647   8.639  -3.471  0.50 36.74 LIG-0.27  OA
BRANCH 9 12
ATOM     12  CA  ILE C 307      10.927   6.500  -4.704  0.50 37.44 LIG 0.18  C 
BRANCH 12 13
ATOM     13  C   ILE C 307      12.436   6.608  -4.935  0.50 38.23 LIG 0.24  C 
ATOM     14  N   SER C 308      13.174   6.584  -3.829  0.50 38.91 LIG-0.34  N 
ATOM     15 H    SER C 308      12.835   6.635  -3.040  0.50 38.91 LIG 0.16  HD
ATOM     16 O    ILE C 307      12.908   6.699  -6.077  0.50 38.79 LIG-0.27  OA
BRANCH 14 17
ATOM     17  CA  SER C 308      14.630   6.469  -3.829  0.50 39.43 LIG 0.20  C 
BRANCH 17 18
ATOM     18  C   SER C 308      15.057   6.541  -2.361  0.50 39.77 LIG 0.24  C 
ATOM     19  N   PRO C 309      14.362   5.805  -1.477  0.50 40.03 LIG-0.34  N 
ATOM     20  CD  PRO C 309      13.475   4.662  -1.749  0.50 39.83 LIG 0.13  C 
ATOM     21  CA  PRO C 309      14.478   6.078  -0.043  0.50 40.09 LIG 0.19  C 
ATOM     22  CG  PRO C 309      12.706   4.523  -0.473  0.50 40.19 LIG 0.02  C 
ATOM     23  CB  PRO C 309      13.666   4.945   0.598  0.50 40.09 LIG 0.04  C 
ATOM     24 O    SER C 308      16.016   7.243  -2.026  0.50 39.81 LIG-0.27  OA
BRANCH 21 25
ATOM     25  C   PRO C 309      15.921   6.079   0.459  0.50 40.04 LIG 0.20  C 
ATOM     26 OXT  PRO C 309      16.771   5.323  -0.020  0.50 40.10 LIG-0.65  OA
ATOM     27 O    PRO C 309      16.271   6.831   1.372  0.50 40.34 LIG-0.65  OA
ENDBRANCH 21 25
ENDBRANCH 17 18
BRANCH 17 28
ATOM     28  CB  SER C 308      15.268   7.607  -4.629  0.50 39.49 LIG 0.20  C 
BRANCH 28 29
ATOM     29 OG   SER C 308      14.558   8.825  -4.457  0.50 39.70 LIG-0.40  OA
ATOM     30 HG   SER C 308      14.110   8.791  -3.747  0.50 39.70 LIG 0.21  HD
ENDBRANCH 28 29
ENDBRANCH 17 28
ENDBRANCH 14 17
ENDBRANCH 12 13
BRANCH 12 31
ATOM     31  CB  ILE C 307      10.487   5.073  -5.112  0.50 37.20 LIG 0.01  C 
ATOM     32  CG2 ILE C 307       8.973   4.892  -4.923  0.50 36.86 LIG 0.01  C 
BRANCH 31 33
ATOM     33  CG1 ILE C 307      10.952   4.785  -6.550  0.50 35.88 LIG 0.00  C 
ATOM     34  CD1 ILE C 307      12.115   3.831  -6.676  0.50 32.01 LIG 0.01  C 
ENDBRANCH 31 33
ENDBRANCH 12 31
ENDBRANCH 9 12
ENDBRANCH 4 8
BRANCH 1 35
ATOM     35  CA  PHE C 305       7.560  12.015  -2.945  0.50 34.47 LIG 0.18  C 
BRANCH 35 36
ATOM     36  CB  PHE C 305       7.647  13.444  -3.504  0.50 34.49 LIG 0.07  C 
BRANCH 36 37
ATOM     37  CG  PHE C 305       6.984  14.511  -2.649  0.50 35.55 LIG-0.06  A 
ATOM     38  CD1 PHE C 305       7.267  14.645  -1.291  0.50 36.28 LIG 0.01  A 
ATOM     39  CE1 PHE C 305       6.646  15.638  -0.525  0.50 36.66 LIG 0.00  A 
ATOM     40  CZ  PHE C 305       5.720  16.501  -1.116  0.50 36.87 LIG 0.00  A 
ATOM     41  CE2 PHE C 305       5.425  16.377  -2.462  0.50 36.76 LIG 0.00  A 
ATOM     42  CD2 PHE C 305       6.051  15.377  -3.223  0.50 36.02 LIG 0.01  A 
ENDBRANCH 36 37
ENDBRANCH 35 36
BRANCH 35 43
ATOM     43  N   PHE C 305       8.642  11.822  -1.972  0.50 33.54 LIG-0.35  N 
ATOM     44 H    PHE C 305       9.355  12.275  -2.133  0.50 33.54 LIG 0.16  HD
ATOM     45  C   ASN C 304       8.489  11.000  -0.934  0.50 33.07 LIG 0.24  C 
ATOM     46 O    ASN C 304       7.630  10.111  -0.909  0.50 33.39 LIG-0.27  OA
BRANCH 45 47
ATOM     47  CA  ASN C 304       9.438  11.216   0.252  0.50 32.40 LIG 0.18  C 
BRANCH 47 48
ATOM     48  CB  ASN C 304       9.293  10.145   1.345  0.50 32.38 LIG 0.14  C 
BRANCH 48 49
ATOM     49  CG  ASN C 304       9.658  10.666   2.758  0.50 31.77 LIG 0.22  C 
ATOM     50 OD1  ASN C 304       8.908  11.416   3.372  0.50 27.48 LIG-0.27  OA
ATOM     51  ND2 ASN C 304      10.838  10.295   3.240  0.50 32.56 LIG-0.37  N 
ATOM     52 21HD ASN C 304      11.098  10.582   4.008  0.50 32.56 LIG 0.16  HD
ATOM     53 22HD ASN C 304      11.341   9.767   2.784  0.50 32.56 LIG 0.16  HD
ENDBRANCH 48 49
ENDBRANCH 47 48
BRANCH 47 54
ATOM     54  N   ASN C 304       9.218  12.514   0.842  0.50 31.56 LIG-0.34  N 
ATOM     55  C   LEU C 303       9.861  13.579   0.389  0.50 30.83 LIG 0.26  C 
ATOM     56 O    LEU C 303      10.493  13.568  -0.658  0.50 29.02 LIG-0.27  OA
ATOM     57 H    ASN C 304       8.651  12.527   1.489  0.50 31.56 LIG 0.16  HD
BRANCH 55 58
ATOM     58  CA  LEU C 303       9.763  14.840   1.258  0.50 30.56 LIG 0.40  C 
ATOM     59  N   LEU C 303       8.435  15.021   1.905  0.50 30.88 LIG 0.61  N 
BRANCH 58 60
ATOM     60  CB  LEU C 303      10.875  14.869   2.314  0.50 30.80 LIG 0.06  C 
BRANCH 60 61
ATOM     61  CG  LEU C 303      12.101  13.976   2.089  0.50 30.92 LIG-0.02  C 
ATOM     62  CD2 LEU C 303      12.556  13.328   3.409  0.50 31.43 LIG 0.01  C 
ATOM     63  CD1 LEU C 303      13.229  14.743   1.421  0.50 30.50 LIG 0.01  C 
ENDBRANCH 60 61
ENDBRANCH 58 60
ENDBRANCH 55 58
ENDBRANCH 47 54
ENDBRANCH 45 47
ENDBRANCH 35 43
ENDBRANCH 1 35
TORSDOF 21
ENDMDL
MODEL 169
USER: ADFR SOLUTION from run 109
USER: SCORE 18.340312 LL:  -6.315 LR: -12.672 RR:   0.000 FEB:  -6.408
USER: RMSD 9.967472
USER: SEED 108
USER: STATUS searching
USER: GENES 23
USER: genes 0 Translation |==|  0.46823 0.66309 0.22681
USER: genes 1 Rotation |==|  0.97768 0.63225 0.54821 0.54478
USER: genes 2 Torsion [N]-CA--C-[N] |==|  0.26550
USER: genes 3 Torsion [C]-N--CA-[C] |==|  0.73505
USER: genes 4 Torsion [N]-CA--C-[N] |==|  0.89164
USER: genes 5 Torsion [C]-N--CA-[CB] |==|  0.14124
USER: genes 6 Torsion [N]-CA--C-[N] |==|  0.12123
USER: genes 7 Torsion [N]-CA--C-[OXT] |==|  0.34156
USER: genes 8 Torsion [N]-CA--CB-[OG] |==|  0.50207
USER: genes 9 Torsion [CA]-CB--OG-[HG] |==|  0.87232
USER: genes 10 Torsion [N]-CA--CB-[CG2] |==|  0.79145
USER: genes 11 Torsion [CA]-CB--CG1-[CD1] |==|  0.29533
USER: genes 12 Torsion [N]-C--CA-[N] |==|  0.49411
USER: genes 13 Torsion [C]-CA--CB-[CG] |==|  0.33468
USER: genes 14 Torsion [CA]-CB--CG-[CD1] |==|  0.56144
USER: genes 15 Torsion [C]-CA--N-[C] |==|  0.70799
USER: genes 16 Torsion [N]-C--CA-[N] |==|  0.93301
USER: genes 17 Torsion [C]-CA--CB-[CG] |==|  0.44287
USER: genes 18 Torsion [CA]-CB--CG-[OD1] |==|  0.79677
USER: genes 19 Torsion [C]-CA--N-[C] |==|  0.80899
USER: genes 20 Torsion [N]-C--CA-[N] |==|  0.36180
USER: genes 21 Torsion [C]-CA--CB-[CG] |==|  0.03187
USER: genes 22 Torsion [CA]-CB--CG-[CD2] |==|  0.69449
ROOT
ATOM      1  C   PHE C 305      12.582  10.745  -5.806  0.50 34.66 LIG 0.24  C 
ATOM      2 O    PHE C 305      12.632  11.911  -5.426  0.50 33.80 LIG-0.27  OA
ATOM      3  N   PRO C 306      11.667  10.320  -6.700  0.50 35.29 LIG-0.34  N 
ATOM      4  CA  PRO C 306      10.429  11.065  -6.866  0.50 35.79 LIG 0.18  C 
ATOM      5  CB  PRO C 306      10.082  10.848  -8.357  0.50 35.80 LIG 0.04  C 
ATOM      6  CG  PRO C 306      11.100   9.827  -8.877  0.50 35.25 LIG 0.02  C 
ATOM      7  CD  PRO C 306      11.742   9.212  -7.665  0.50 35.51 LIG 0.13  C 
ENDROOT
BRANCH 4 8
ATOM      8  C   PRO C 306       9.324  10.455  -6.002  0.50 36.50 LIG 0.24  C 
ATOM      9  N   ILE C 307       9.137  11.025  -4.799  0.50 37.01 LIG-0.35  N 
ATOM     10 H    ILE C 307       9.625  11.652  -4.472  0.50 37.01 LIG 0.16  HD
ATOM     11 O    PRO C 306       8.647   9.493  -6.429  0.50 36.74 LIG-0.27  OA
BRANCH 9 12
ATOM     12  CA  ILE C 307       8.035  10.581  -3.945  0.50 37.44 LIG 0.18  C 
BRANCH 12 13
ATOM     13  C   ILE C 307       6.786  11.453  -4.096  0.50 38.23 LIG 0.24  C 
ATOM     14  N   SER C 308       7.025  12.755  -4.226  0.50 38.91 LIG-0.34  N 
ATOM     15 H    SER C 308       7.803  13.101  -4.106  0.50 38.91 LIG 0.16  HD
ATOM     16 O    ILE C 307       5.650  10.956  -4.103  0.50 38.79 LIG-0.27  OA
BRANCH 14 17
ATOM     17  CA  SER C 308       6.002  13.734  -4.583  0.50 39.43 LIG 0.20  C 
BRANCH 17 18
ATOM     18  C   SER C 308       6.650  15.107  -4.390  0.50 39.77 LIG 0.24  C 
ATOM     19  N   PRO C 309       7.907  15.268  -4.843  0.50 40.03 LIG-0.34  N 
ATOM     20  CD  PRO C 309       8.632  14.434  -5.815  0.50 39.83 LIG 0.13  C 
ATOM     21  CA  PRO C 309       8.705  16.412  -4.399  0.50 40.09 LIG 0.19  C 
ATOM     22  CG  PRO C 309      10.055  14.853  -5.619  0.50 40.19 LIG 0.02  C 
ATOM     23  CB  PRO C 309       9.978  16.303  -5.248  0.50 40.09 LIG 0.04  C 
ATOM     24 O    SER C 308       6.021  16.022  -3.852  0.50 39.81 LIG-0.27  OA
BRANCH 21 25
ATOM     25  C   PRO C 309       8.010  17.756  -4.613  0.50 40.04 LIG 0.20  C 
ATOM     26 OXT  PRO C 309       7.807  18.534  -3.676  0.50 40.10 LIG-0.65  OA
ATOM     27 O    PRO C 309       7.620  18.093  -5.733  0.50 40.34 LIG-0.65  OA
ENDBRANCH 21 25
ENDBRANCH 17 18
BRANCH 17 28
ATOM     28  CB  SER C 308       4.771  13.592  -3.684  0.50 39.49 LIG 0.20  C 
BRANCH 28 29
ATOM     29 OG   SER C 308       3.763  14.529  -4.034  0.50 39.70 LIG-0.40  OA
ATOM     30 HG   SER C 308       4.108  15.287  -4.139  0.50 39.70 LIG 0.21  HD
ENDBRANCH 28 29
ENDBRANCH 17 28
ENDBRANCH 14 17
ENDBRANCH 12 13
BRANCH 12 31
ATOM     31  CB  ILE C 307       8.421  10.563  -2.446  0.50 37.20 LIG 0.01  C 
ATOM     32  CG2 ILE C 307       9.327   9.364  -2.128  0.50 36.86 LIG 0.01  C 
BRANCH 31 33
ATOM     33  CG1 ILE C 307       9.054  11.913  -2.064  0.50 35.88 LIG 0.00  C 
ATOM     34  CD1 ILE C 307       8.184  12.824  -1.233  0.50 32.01 LIG 0.01  C 
ENDBRANCH 31 33
ENDBRANCH 12 31
ENDBRANCH 9 12
ENDBRANCH 4 8
BRANCH 1 35
ATOM     35  CA  PHE C 305      13.609   9.730  -5.288  0.50 34.47 LIG 0.18  C 
BRANCH 35 36
ATOM     36  CB  PHE C 305      12.830   8.611  -4.580  0.50 34.49 LIG 0.07  C 
BRANCH 36 37
ATOM     37  CG  PHE C 305      13.031   7.221  -5.160  0.50 35.55 LIG-0.06  A 
ATOM     38  CD1 PHE C 305      12.102   6.200  -4.962  0.50 36.28 LIG 0.01  A 
ATOM     39  CE1 PHE C 305      12.307   4.930  -5.509  0.50 36.66 LIG 0.00  A 
ATOM     40  CZ  PHE C 305      13.461   4.665  -6.253  0.50 36.87 LIG 0.00  A 
ATOM     41  CE2 PHE C 305      14.394   5.666  -6.454  0.50 36.76 LIG 0.00  A 
ATOM     42  CD2 PHE C 305      14.182   6.938  -5.899  0.50 36.02 LIG 0.01  A 
ENDBRANCH 36 37
ENDBRANCH 35 36
BRANCH 35 43
ATOM     43  N   PHE C 305      14.602  10.278  -4.356  0.50 33.54 LIG-0.35  N 
ATOM     44 H    PHE C 305      14.305  10.432  -3.564  0.50 33.54 LIG 0.16  HD
ATOM     45  C   ASN C 304      15.856  10.504  -4.748  0.50 33.07 LIG 0.24  C 
ATOM     46 O    ASN C 304      16.173  10.615  -5.938  0.50 33.39 LIG-0.27  OA
BRANCH 45 47
ATOM     47  CA  ASN C 304      16.909  10.609  -3.636  0.50 32.40 LIG 0.18  C 
BRANCH 47 48
ATOM     48  CB  ASN C 304      17.687   9.303  -3.415  0.50 32.38 LIG 0.14  C 
BRANCH 48 49
ATOM     49  CG  ASN C 304      19.042   9.518  -2.695  0.50 31.77 LIG 0.22  C 
ATOM     50 OD1  ASN C 304      19.996  10.025  -3.274  0.50 27.48 LIG-0.27  OA
ATOM     51  ND2 ASN C 304      19.123   9.086  -1.442  0.50 32.56 LIG-0.37  N 
ATOM     52 21HD ASN C 304      19.863   9.157  -1.010  0.50 32.56 LIG 0.16  HD
ATOM     53 22HD ASN C 304      18.435   8.736  -1.063  0.50 32.56 LIG 0.16  HD
ENDBRANCH 48 49
ENDBRANCH 47 48
BRANCH 47 54
ATOM     54  N   ASN C 304      16.289  10.997  -2.392  0.50 31.56 LIG-0.34  N 
ATOM     55  C   LEU C 303      15.785  12.213  -2.239  0.50 30.83 LIG 0.26  C 
ATOM     56 O    LEU C 303      15.623  12.979  -3.179  0.50 29.02 LIG-0.27  OA
ATOM     57 H    ASN C 304      16.281  10.387  -1.786  0.50 31.56 LIG 0.16  HD
BRANCH 55 58
ATOM     58  CA  LEU C 303      15.406  12.604  -0.805  0.50 30.56 LIG 0.40  C 
ATOM     59  N   LEU C 303      15.948  13.924  -0.381  0.50 30.88 LIG 0.61  N 
BRANCH 58 60
ATOM     60  CB  LEU C 303      13.886  12.568  -0.607  0.50 30.80 LIG 0.06  C 
BRANCH 60 61
ATOM     61  CG  LEU C 303      13.036  11.916  -1.705  0.50 30.92 LIG-0.02  C 
ATOM     62  CD2 LEU C 303      12.216  12.976  -2.463  0.50 31.43 LIG 0.01  C 
ATOM     63  CD1 LEU C 303      12.152  10.818  -1.142  0.50 30.50 LIG 0.01  C 
ENDBRANCH 60 61
ENDBRANCH 58 60
ENDBRANCH 55 58
ENDBRANCH 47 54
ENDBRANCH 45 47
ENDBRANCH 35 43
ENDBRANCH 1 35
TORSDOF 21
ENDMDL
MODEL 170
USER: ADFR SOLUTION from run 138
USER: SCORE 18.271457 LL:  -7.193 LR: -12.663 RR:   0.000 FEB:  -6.399
USER: RMSD 10.882280
USER: SEED 137
USER: STATUS no improvement in best in 11 clusters for 5 generations
USER: GENES 23
USER: genes 0 Translation |==|  0.29601 0.57645 0.46036
USER: genes 1 Rotation |==|  0.33396 0.43409 0.10530 0.74960
USER: genes 2 Torsion [N]-CA--C-[N] |==|  0.88875
USER: genes 3 Torsion [C]-N--CA-[C] |==|  0.65918
USER: genes 4 Torsion [N]-CA--C-[N] |==|  0.79134
USER: genes 5 Torsion [C]-N--CA-[CB] |==|  0.15296
USER: genes 6 Torsion [N]-CA--C-[N] |==|  0.12667
USER: genes 7 Torsion [N]-CA--C-[OXT] |==|  0.78993
USER: genes 8 Torsion [N]-CA--CB-[OG] |==|  0.20427
USER: genes 9 Torsion [CA]-CB--OG-[HG] |==|  0.19681
USER: genes 10 Torsion [N]-CA--CB-[CG2] |==|  0.09459
USER: genes 11 Torsion [CA]-CB--CG1-[CD1] |==|  0.47837
USER: genes 12 Torsion [N]-C--CA-[N] |==|  0.54256
USER: genes 13 Torsion [C]-CA--CB-[CG] |==|  0.40959
USER: genes 14 Torsion [CA]-CB--CG-[CD1] |==|  0.86275
USER: genes 15 Torsion [C]-CA--N-[C] |==|  0.51987
USER: genes 16 Torsion [N]-C--CA-[N] |==|  0.27477
USER: genes 17 Torsion [C]-CA--CB-[CG] |==|  0.77316
USER: genes 18 Torsion [CA]-CB--CG-[OD1] |==|  0.82186
USER: genes 19 Torsion [C]-CA--N-[C] |==|  0.72242
USER: genes 20 Torsion [N]-C--CA-[N] |==|  0.41427
USER: genes 21 Torsion [C]-CA--CB-[CG] |==|  0.20778
USER: genes 22 Torsion [CA]-CB--CG-[CD2] |==|  0.42921
ROOT
ATOM      1  C   PHE C 305       8.190   8.666  -1.077  0.50 34.66 LIG 0.24  C 
ATOM      2 O    PHE C 305       7.032   8.314  -0.876  0.50 33.80 LIG-0.27  OA
ATOM      3  N   PRO C 306       8.529   9.959  -1.249  0.50 35.29 LIG-0.34  N 
ATOM      4  CA  PRO C 306       7.521  10.908  -1.696  0.50 35.79 LIG 0.18  C 
ATOM      5  CB  PRO C 306       7.958  12.231  -1.026  0.50 35.80 LIG 0.04  C 
ATOM      6  CG  PRO C 306       9.314  11.939  -0.372  0.50 35.25 LIG 0.02  C 
ATOM      7  CD  PRO C 306       9.799  10.643  -0.962  0.50 35.51 LIG 0.13  C 
ENDROOT
BRANCH 4 8
ATOM      8  C   PRO C 306       7.586  11.073  -3.216  0.50 36.50 LIG 0.24  C 
ATOM      9  N   ILE C 307       8.819  11.111  -3.750  0.50 37.01 LIG-0.35  N 
ATOM     10 H    ILE C 307       9.550  11.109  -3.299  0.50 37.01 LIG 0.16  HD
ATOM     11 O    PRO C 306       6.533  11.152  -3.887  0.50 36.74 LIG-0.27  OA
BRANCH 9 12
ATOM     12  CA  ILE C 307       8.982  11.161  -5.203  0.50 37.44 LIG 0.18  C 
BRANCH 12 13
ATOM     13  C   ILE C 307       9.826  10.002  -5.740  0.50 38.23 LIG 0.24  C 
ATOM     14  N   SER C 308      11.133  10.112  -5.518  0.50 38.91 LIG-0.34  N 
ATOM     15 H    SER C 308      11.496  10.831  -5.215  0.50 38.91 LIG 0.16  HD
ATOM     16 O    ILE C 307       9.305   9.042  -6.325  0.50 38.79 LIG-0.27  OA
BRANCH 14 17
ATOM     17  CA  SER C 308      12.089   9.036  -5.761  0.50 39.43 LIG 0.20  C 
BRANCH 17 18
ATOM     18  C   SER C 308      13.472   9.635  -5.494  0.50 39.77 LIG 0.24  C 
ATOM     19  N   PRO C 309      13.622  10.376  -4.381  0.50 40.03 LIG-0.34  N 
ATOM     20  CD  PRO C 309      12.755  10.410  -3.193  0.50 39.83 LIG 0.13  C 
ATOM     21  CA  PRO C 309      14.787  11.251  -4.234  0.50 40.09 LIG 0.19  C 
ATOM     22  CG  PRO C 309      13.188  11.662  -2.497  0.50 40.19 LIG 0.02  C 
ATOM     23  CB  PRO C 309      14.651  11.779  -2.800  0.50 40.09 LIG 0.04  C 
ATOM     24 O    SER C 308      14.404   9.420  -6.274  0.50 39.81 LIG-0.27  OA
BRANCH 21 25
ATOM     25  C   PRO C 309      16.118  10.527  -4.436  0.50 40.04 LIG 0.20  C 
ATOM     26 OXT  PRO C 309      16.586   9.785  -3.567  0.50 40.10 LIG-0.65  OA
ATOM     27 O    PRO C 309      16.767  10.679  -5.473  0.50 40.34 LIG-0.65  OA
ENDBRANCH 21 25
ENDBRANCH 17 18
BRANCH 17 28
ATOM     28  CB  SER C 308      11.993   8.534  -7.204  0.50 39.49 LIG 0.20  C 
BRANCH 28 29
ATOM     29 OG   SER C 308      12.557   9.465  -8.116  0.50 39.70 LIG-0.40  OA
ATOM     30 HG   SER C 308      13.392   9.474  -8.028  0.50 39.70 LIG 0.21  HD
ENDBRANCH 28 29
ENDBRANCH 17 28
ENDBRANCH 14 17
ENDBRANCH 12 13
BRANCH 12 31
ATOM     31  CB  ILE C 307       9.635  12.481  -5.679  0.50 37.20 LIG 0.01  C 
ATOM     32  CG2 ILE C 307      10.656  12.989  -4.649  0.50 36.86 LIG 0.01  C 
BRANCH 31 33
ATOM     33  CG1 ILE C 307      10.242  12.279  -7.078  0.50 35.88 LIG 0.00  C 
ATOM     34  CD1 ILE C 307      10.754  13.530  -7.750  0.50 32.01 LIG 0.01  C 
ENDBRANCH 31 33
ENDBRANCH 12 31
ENDBRANCH 9 12
ENDBRANCH 4 8
BRANCH 1 35
ATOM     35  CA  PHE C 305       9.311   7.619  -1.097  0.50 34.47 LIG 0.18  C 
BRANCH 35 36
ATOM     36  CB  PHE C 305      10.246   7.972  -2.264  0.50 34.49 LIG 0.07  C 
BRANCH 36 37
ATOM     37  CG  PHE C 305      11.711   7.631  -2.042  0.50 35.55 LIG-0.06  A 
ATOM     38  CD1 PHE C 305      12.384   8.005  -0.880  0.50 36.28 LIG 0.01  A 
ATOM     39  CE1 PHE C 305      13.731   7.677  -0.697  0.50 36.66 LIG 0.00  A 
ATOM     40  CZ  PHE C 305      14.423   6.978  -1.689  0.50 36.87 LIG 0.00  A 
ATOM     41  CE2 PHE C 305      13.769   6.604  -2.850  0.50 36.76 LIG 0.00  A 
ATOM     42  CD2 PHE C 305      12.418   6.939  -3.027  0.50 36.02 LIG 0.01  A 
ENDBRANCH 36 37
ENDBRANCH 35 36
BRANCH 35 43
ATOM     43  N   PHE C 305       8.858   6.232  -1.258  0.50 33.54 LIG-0.35  N 
ATOM     44 H    PHE C 305       8.018   6.145  -1.422  0.50 33.54 LIG 0.16  HD
ATOM     45  C   ASN C 304       9.714   5.216  -1.150  0.50 33.07 LIG 0.24  C 
ATOM     46 O    ASN C 304      10.807   5.322  -0.579  0.50 33.39 LIG-0.27  OA
BRANCH 45 47
ATOM     47  CA  ASN C 304       9.281   3.889  -1.787  0.50 32.40 LIG 0.18  C 
BRANCH 47 48
ATOM     48  CB  ASN C 304       9.622   2.665  -0.924  0.50 32.38 LIG 0.14  C 
BRANCH 48 49
ATOM     49  CG  ASN C 304      11.093   2.203  -1.080  0.50 31.77 LIG 0.22  C 
ATOM     50 OD1  ASN C 304      11.517   1.782  -2.150  0.50 27.48 LIG-0.27  OA
ATOM     51  ND2 ASN C 304      11.847   2.246   0.012  0.50 32.56 LIG-0.37  N 
ATOM     52 21HD ASN C 304      12.662   1.973  -0.018  0.50 32.56 LIG 0.16  HD
ATOM     53 22HD ASN C 304      11.521   2.548   0.748  0.50 32.56 LIG 0.16  HD
ENDBRANCH 48 49
ENDBRANCH 47 48
BRANCH 47 54
ATOM     54  N   ASN C 304       9.895   3.729  -3.083  0.50 31.56 LIG-0.34  N 
ATOM     55  C   LEU C 303       9.216   3.996  -4.189  0.50 30.83 LIG 0.26  C 
ATOM     56 O    LEU C 303       8.142   4.581  -4.174  0.50 29.02 LIG-0.27  OA
ATOM     57 H    ASN C 304      10.709   3.454  -3.067  0.50 31.56 LIG 0.16  HD
BRANCH 55 58
ATOM     58  CA  LEU C 303       9.863   3.532  -5.499  0.50 30.56 LIG 0.40  C 
ATOM     59  N   LEU C 303       8.882   3.170  -6.559  0.50 30.88 LIG 0.61  N 
BRANCH 58 60
ATOM     60  CB  LEU C 303      10.850   4.580  -6.028  0.50 30.80 LIG 0.06  C 
BRANCH 60 61
ATOM     61  CG  LEU C 303      12.203   4.711  -5.319  0.50 30.92 LIG-0.02  C 
ATOM     62  CD2 LEU C 303      13.268   5.282  -6.274  0.50 31.43 LIG 0.01  C 
ATOM     63  CD1 LEU C 303      12.642   3.389  -4.714  0.50 30.50 LIG 0.01  C 
ENDBRANCH 60 61
ENDBRANCH 58 60
ENDBRANCH 55 58
ENDBRANCH 47 54
ENDBRANCH 45 47
ENDBRANCH 35 43
ENDBRANCH 1 35
TORSDOF 21
ENDMDL
MODEL 171
USER: ADFR SOLUTION from run 77
USER: SCORE 16.620553 LL:  -5.018 LR: -12.664 RR:   0.000 FEB:  -6.400
USER: RMSD 8.142941
USER: SEED 76
USER: STATUS no improvement in best in 43 clusters for 5 generations
USER: GENES 23
USER: genes 0 Translation |==|  0.38237 0.47856 0.26874
USER: genes 1 Rotation |==|  0.68824 0.89645 0.66653 0.67223
USER: genes 2 Torsion [N]-CA--C-[N] |==|  0.14644
USER: genes 3 Torsion [C]-N--CA-[C] |==|  0.67436
USER: genes 4 Torsion [N]-CA--C-[N] |==|  0.92725
USER: genes 5 Torsion [C]-N--CA-[CB] |==|  0.52847
USER: genes 6 Torsion [N]-CA--C-[N] |==|  0.33735
USER: genes 7 Torsion [N]-CA--C-[OXT] |==|  0.88419
USER: genes 8 Torsion [N]-CA--CB-[OG] |==|  0.39810
USER: genes 9 Torsion [CA]-CB--OG-[HG] |==|  0.69952
USER: genes 10 Torsion [N]-CA--CB-[CG2] |==|  0.36934
USER: genes 11 Torsion [CA]-CB--CG1-[CD1] |==|  0.66034
USER: genes 12 Torsion [N]-C--CA-[N] |==|  0.47027
USER: genes 13 Torsion [C]-CA--CB-[CG] |==|  0.27346
USER: genes 14 Torsion [CA]-CB--CG-[CD1] |==|  0.18455
USER: genes 15 Torsion [C]-CA--N-[C] |==|  0.78391
USER: genes 16 Torsion [N]-C--CA-[N] |==|  0.43982
USER: genes 17 Torsion [C]-CA--CB-[CG] |==|  0.46351
USER: genes 18 Torsion [CA]-CB--CG-[OD1] |==|  0.01686
USER: genes 19 Torsion [C]-CA--N-[C] |==|  0.76198
USER: genes 20 Torsion [N]-C--CA-[N] |==|  0.45828
USER: genes 21 Torsion [C]-CA--CB-[CG] |==|  0.14603
USER: genes 22 Torsion [CA]-CB--CG-[CD2] |==|  0.70069
ROOT
ATOM      1  C   PHE C 305      10.392   6.316  -4.957  0.50 34.66 LIG 0.24  C 
ATOM      2 O    PHE C 305       9.339   6.332  -5.586  0.50 33.80 LIG-0.27  OA
ATOM      3  N   PRO C 306      11.381   5.443  -5.233  0.50 35.29 LIG-0.34  N 
ATOM      4  CA  PRO C 306      11.065   4.199  -5.917  0.50 35.79 LIG 0.18  C 
ATOM      5  CB  PRO C 306      12.345   3.910  -6.736  0.50 35.80 LIG 0.04  C 
ATOM      6  CG  PRO C 306      13.367   4.964  -6.297  0.50 35.25 LIG 0.02  C 
ATOM      7  CD  PRO C 306      12.832   5.573  -5.030  0.50 35.51 LIG 0.13  C 
ENDROOT
BRANCH 4 8
ATOM      8  C   PRO C 306      10.858   3.073  -4.901  0.50 36.50 LIG 0.24  C 
ATOM      9  N   ILE C 307       9.975   3.324  -3.920  0.50 37.01 LIG-0.35  N 
ATOM     10 H    ILE C 307       9.576   4.075  -3.797  0.50 37.01 LIG 0.16  HD
ATOM     11 O    PRO C 306      11.483   1.995  -5.018  0.50 36.74 LIG-0.27  OA
BRANCH 9 12
ATOM     12  CA  ILE C 307       9.630   2.271  -2.963  0.50 37.44 LIG 0.18  C 
BRANCH 12 13
ATOM     13  C   ILE C 307       8.152   1.880  -3.026  0.50 38.23 LIG 0.24  C 
ATOM     14  N   SER C 308       7.339   2.835  -3.468  0.50 38.91 LIG-0.34  N 
ATOM     15 H    SER C 308       7.594   3.648  -3.587  0.50 38.91 LIG 0.16  HD
ATOM     16 O    ILE C 307       7.770   0.749  -2.693  0.50 38.79 LIG-0.27  OA
BRANCH 14 17
ATOM     17  CA  SER C 308       5.933   2.614  -3.797  0.50 39.43 LIG 0.20  C 
BRANCH 17 18
ATOM     18  C   SER C 308       5.905   1.389  -4.714  0.50 39.77 LIG 0.24  C 
ATOM     19  N   PRO C 309       5.179   0.331  -4.312  0.50 40.03 LIG-0.34  N 
ATOM     20  CD  PRO C 309       4.117   0.296  -3.293  0.50 39.83 LIG 0.13  C 
ATOM     21  CA  PRO C 309       5.375  -0.976  -4.944  0.50 40.09 LIG 0.19  C 
ATOM     22  CG  PRO C 309       3.973  -1.166  -3.010  0.50 40.19 LIG 0.02  C 
ATOM     23  CB  PRO C 309       4.273  -1.839  -4.315  0.50 40.09 LIG 0.04  C 
ATOM     24 O    SER C 308       6.519   1.399  -5.785  0.50 39.81 LIG-0.27  OA
BRANCH 21 25
ATOM     25  C   PRO C 309       5.248  -0.938  -6.466  0.50 40.04 LIG 0.20  C 
ATOM     26 OXT  PRO C 309       4.366  -0.279  -7.024  0.50 40.10 LIG-0.65  OA
ATOM     27 O    PRO C 309       6.023  -1.580  -7.179  0.50 40.34 LIG-0.65  OA
ENDBRANCH 21 25
ENDBRANCH 17 18
BRANCH 17 28
ATOM     28  CB  SER C 308       5.340   3.831  -4.511  0.50 39.49 LIG 0.20  C 
BRANCH 28 29
ATOM     29 OG   SER C 308       4.415   3.443  -5.516  0.50 39.70 LIG-0.40  OA
ATOM     30 HG   SER C 308       4.750   3.580  -6.274  0.50 39.70 LIG 0.21  HD
ENDBRANCH 28 29
ENDBRANCH 17 28
ENDBRANCH 14 17
ENDBRANCH 12 13
BRANCH 12 31
ATOM     31  CB  ILE C 307       9.952   2.674  -1.503  0.50 37.20 LIG 0.01  C 
ATOM     32  CG2 ILE C 307       8.769   2.357  -0.575  0.50 36.86 LIG 0.01  C 
BRANCH 31 33
ATOM     33  CG1 ILE C 307      11.261   1.997  -1.061  0.50 35.88 LIG 0.00  C 
ATOM     34  CD1 ILE C 307      11.155   1.118   0.161  0.50 32.01 LIG 0.01  C 
ENDBRANCH 31 33
ENDBRANCH 12 31
ENDBRANCH 9 12
ENDBRANCH 4 8
BRANCH 1 35
ATOM     35  CA  PHE C 305      10.628   7.342  -3.841  0.50 34.47 LIG 0.18  C 
BRANCH 35 36
ATOM     36  CB  PHE C 305      10.643   6.575  -2.510  0.50 34.49 LIG 0.07  C 
BRANCH 36 37
ATOM     37  CG  PHE C 305      12.026   6.247  -1.971  0.50 35.55 LIG-0.06  A 
ATOM     38  CD1 PHE C 305      12.904   7.243  -1.543  0.50 36.28 LIG 0.01  A 
ATOM     39  CE1 PHE C 305      14.170   6.916  -1.049  0.50 36.66 LIG 0.00  A 
ATOM     40  CZ  PHE C 305      14.576   5.579  -0.991  0.50 36.87 LIG 0.00  A 
ATOM     41  CE2 PHE C 305      13.718   4.581  -1.416  0.50 36.76 LIG 0.00  A 
ATOM     42  CD2 PHE C 305      12.450   4.918  -1.914  0.50 36.02 LIG 0.01  A 
ENDBRANCH 36 37
ENDBRANCH 35 36
BRANCH 35 43
ATOM     43  N   PHE C 305       9.623   8.408  -3.760  0.50 33.54 LIG-0.35  N 
ATOM     44 H    PHE C 305       9.043   8.310  -3.133  0.50 33.54 LIG 0.16  HD
ATOM     45  C   ASN C 304       9.643   9.433  -4.613  0.50 33.07 LIG 0.24  C 
ATOM     46 O    ASN C 304      10.237   9.387  -5.697  0.50 33.39 LIG-0.27  OA
BRANCH 45 47
ATOM     47  CA  ASN C 304       8.892  10.698  -4.176  0.50 32.40 LIG 0.18  C 
BRANCH 47 48
ATOM     48  CB  ASN C 304       7.373  10.602  -4.386  0.50 32.38 LIG 0.14  C 
BRANCH 48 49
ATOM     49  CG  ASN C 304       6.588  11.723  -3.660  0.50 31.77 LIG 0.22  C 
ATOM     50 OD1  ASN C 304       7.169  12.639  -3.090  0.50 27.48 LIG-0.27  OA
ATOM     51  ND2 ASN C 304       5.265  11.611  -3.653  0.50 32.56 LIG-0.37  N 
ATOM     52 21HD ASN C 304       4.787  12.193  -3.238  0.50 32.56 LIG 0.16  HD
ATOM     53 22HD ASN C 304       4.887  10.956  -4.063  0.50 32.56 LIG 0.16  HD
ENDBRANCH 48 49
ENDBRANCH 47 48
BRANCH 47 54
ATOM     54  N   ASN C 304       9.388  11.850  -4.891  0.50 31.56 LIG-0.34  N 
ATOM     55  C   LEU C 303      10.446  12.513  -4.450  0.50 30.83 LIG 0.26  C 
ATOM     56 O    LEU C 303      11.171  12.079  -3.567  0.50 29.02 LIG-0.27  OA
ATOM     57 H    ASN C 304       8.947  12.053  -5.601  0.50 31.56 LIG 0.16  HD
BRANCH 55 58
ATOM     58  CA  LEU C 303      10.714  13.866  -5.122  0.50 30.56 LIG 0.40  C 
ATOM     59  N   LEU C 303      11.674  14.726  -4.378  0.50 30.88 LIG 0.61  N 
BRANCH 58 60
ATOM     60  CB  LEU C 303      11.184  13.678  -6.570  0.50 30.80 LIG 0.06  C 
BRANCH 60 61
ATOM     61  CG  LEU C 303      10.324  12.809  -7.495  0.50 30.92 LIG-0.02  C 
ATOM     62  CD2 LEU C 303      11.015  11.462  -7.778  0.50 31.43 LIG 0.01  C 
ATOM     63  CD1 LEU C 303       9.976  13.542  -8.779  0.50 30.50 LIG 0.01  C 
ENDBRANCH 60 61
ENDBRANCH 58 60
ENDBRANCH 55 58
ENDBRANCH 47 54
ENDBRANCH 45 47
ENDBRANCH 35 43
ENDBRANCH 1 35
TORSDOF 21
ENDMDL
MODEL 172
USER: ADFR SOLUTION from run 85
USER: SCORE 17.414202 LL:  -5.219 LR: -12.659 RR:   0.000 FEB:  -6.395
USER: RMSD 8.394854
USER: SEED 84
USER: STATUS no improvement in best in 9 clusters for 5 generations
USER: GENES 23
USER: genes 0 Translation |==|  0.54261 0.48047 0.52172
USER: genes 1 Rotation |==|  0.38146 0.65633 0.59867 0.94919
USER: genes 2 Torsion [N]-CA--C-[N] |==|  0.34157
USER: genes 3 Torsion [C]-N--CA-[C] |==|  0.83042
USER: genes 4 Torsion [N]-CA--C-[N] |==|  0.36247
USER: genes 5 Torsion [C]-N--CA-[CB] |==|  0.54784
USER: genes 6 Torsion [N]-CA--C-[N] |==|  0.43890
USER: genes 7 Torsion [N]-CA--C-[OXT] |==|  0.75579
USER: genes 8 Torsion [N]-CA--CB-[OG] |==|  0.67853
USER: genes 9 Torsion [CA]-CB--OG-[HG] |==|  0.15064
USER: genes 10 Torsion [N]-CA--CB-[CG2] |==|  0.82755
USER: genes 11 Torsion [CA]-CB--CG1-[CD1] |==|  0.64453
USER: genes 12 Torsion [N]-C--CA-[N] |==|  0.51008
USER: genes 13 Torsion [C]-CA--CB-[CG] |==|  0.85252
USER: genes 14 Torsion [CA]-CB--CG-[CD1] |==|  0.90516
USER: genes 15 Torsion [C]-CA--N-[C] |==|  0.75052
USER: genes 16 Torsion [N]-C--CA-[N] |==|  0.93625
USER: genes 17 Torsion [C]-CA--CB-[CG] |==|  0.33150
USER: genes 18 Torsion [CA]-CB--CG-[OD1] |==|  0.27574
USER: genes 19 Torsion [C]-CA--N-[C] |==|  0.80612
USER: genes 20 Torsion [N]-C--CA-[N] |==|  0.35663
USER: genes 21 Torsion [C]-CA--CB-[CG] |==|  0.56348
USER: genes 22 Torsion [CA]-CB--CG-[CD2] |==|  0.79510
ROOT
ATOM      1  C   PHE C 305      14.479   6.362   0.166  0.50 34.66 LIG 0.24  C 
ATOM      2 O    PHE C 305      15.198   5.527  -0.373  0.50 33.80 LIG-0.27  OA
ATOM      3  N   PRO C 306      14.142   6.286   1.468  0.50 35.29 LIG-0.34  N 
ATOM      4  CA  PRO C 306      14.189   5.000   2.145  0.50 35.79 LIG 0.18  C 
ATOM      5  CB  PRO C 306      14.554   5.378   3.600  0.50 35.80 LIG 0.04  C 
ATOM      6  CG  PRO C 306      14.515   6.909   3.654  0.50 35.25 LIG 0.02  C 
ATOM      7  CD  PRO C 306      13.797   7.360   2.413  0.50 35.51 LIG 0.13  C 
ENDROOT
BRANCH 4 8
ATOM      8  C   PRO C 306      12.807   4.343   2.132  0.50 36.50 LIG 0.24  C 
ATOM      9  N   ILE C 307      12.743   3.121   1.577  0.50 37.01 LIG-0.35  N 
ATOM     10 H    ILE C 307      13.398   2.724   1.187  0.50 37.01 LIG 0.16  HD
ATOM     11 O    PRO C 306      11.823   4.935   2.630  0.50 36.74 LIG-0.27  OA
BRANCH 9 12
ATOM     12  CA  ILE C 307      11.489   2.369   1.612  0.50 37.44 LIG 0.18  C 
BRANCH 12 13
ATOM     13  C   ILE C 307      11.018   2.075   3.039  0.50 38.23 LIG 0.24  C 
ATOM     14  N   SER C 308       9.747   2.381   3.283  0.50 38.91 LIG-0.34  N 
ATOM     15 H    SER C 308       9.260   2.826   2.731  0.50 38.91 LIG 0.16  HD
ATOM     16 O    ILE C 307      11.782   1.579   3.880  0.50 38.79 LIG-0.27  OA
BRANCH 14 17
ATOM     17  CA  SER C 308       9.042   1.999   4.503  0.50 39.43 LIG 0.20  C 
BRANCH 17 18
ATOM     18  C   SER C 308       9.443   0.548   4.782  0.50 39.77 LIG 0.24  C 
ATOM     19  N   PRO C 309       9.313   0.101   6.044  0.50 40.03 LIG-0.34  N 
ATOM     20  CD  PRO C 309       8.511   0.683   7.132  0.50 39.83 LIG 0.13  C 
ATOM     21  CA  PRO C 309       9.984  -1.133   6.458  0.50 40.09 LIG 0.19  C 
ATOM     22  CG  PRO C 309       9.062   0.011   8.351  0.50 40.19 LIG 0.02  C 
ATOM     23  CB  PRO C 309       9.463  -1.355   7.884  0.50 40.09 LIG 0.04  C 
ATOM     24 O    SER C 308       9.851  -0.172   3.866  0.50 39.81 LIG-0.27  OA
BRANCH 21 25
ATOM     25  C   PRO C 309       9.666  -2.327   5.558  0.50 40.04 LIG 0.20  C 
ATOM     26 OXT  PRO C 309       8.689  -3.050   5.769  0.50 40.10 LIG-0.65  OA
ATOM     27 O    PRO C 309      10.392  -2.606   4.601  0.50 40.34 LIG-0.65  OA
ENDBRANCH 21 25
ENDBRANCH 17 18
BRANCH 17 28
ATOM     28  CB  SER C 308       7.527   2.110   4.318  0.50 39.49 LIG 0.20  C 
BRANCH 28 29
ATOM     29 OG   SER C 308       6.971   3.100   5.170  0.50 39.70 LIG-0.40  OA
ATOM     30 HG   SER C 308       7.370   3.829   5.051  0.50 39.70 LIG 0.21  HD
ENDBRANCH 28 29
ENDBRANCH 17 28
ENDBRANCH 14 17
ENDBRANCH 12 13
BRANCH 12 31
ATOM     31  CB  ILE C 307      11.589   1.019   0.860  0.50 37.20 LIG 0.01  C 
ATOM     32  CG2 ILE C 307      11.895   1.244  -0.629  0.50 36.86 LIG 0.01  C 
BRANCH 31 33
ATOM     33  CG1 ILE C 307      12.626   0.120   1.557  0.50 35.88 LIG 0.00  C 
ATOM     34  CD1 ILE C 307      13.694  -0.454   0.659  0.50 32.01 LIG 0.01  C 
ENDBRANCH 31 33
ENDBRANCH 12 31
ENDBRANCH 9 12
ENDBRANCH 4 8
BRANCH 1 35
ATOM     35  CA  PHE C 305      13.967   7.562  -0.642  0.50 34.47 LIG 0.18  C 
BRANCH 35 36
ATOM     36  CB  PHE C 305      12.438   7.593  -0.496  0.50 34.49 LIG 0.07  C 
BRANCH 36 37
ATOM     37  CG  PHE C 305      11.730   6.293  -0.843  0.50 35.55 LIG-0.06  A 
ATOM     38  CD1 PHE C 305      12.196   5.450  -1.850  0.50 36.28 LIG 0.01  A 
ATOM     39  CE1 PHE C 305      11.530   4.257  -2.149  0.50 36.66 LIG 0.00  A 
ATOM     40  CZ  PHE C 305      10.376   3.903  -1.445  0.50 36.87 LIG 0.00  A 
ATOM     41  CE2 PHE C 305       9.899   4.733  -0.445  0.50 36.76 LIG 0.00  A 
ATOM     42  CD2 PHE C 305      10.572   5.930  -0.153  0.50 36.02 LIG 0.01  A 
ENDBRANCH 36 37
ENDBRANCH 35 36
BRANCH 35 43
ATOM     43  N   PHE C 305      14.304   7.533  -2.070  0.50 33.54 LIG-0.35  N 
ATOM     44 H    PHE C 305      13.721   7.144  -2.570  0.50 33.54 LIG 0.16  HD
ATOM     45  C   ASN C 304      15.435   8.078  -2.517  0.50 33.07 LIG 0.24  C 
ATOM     46 O    ASN C 304      16.402   8.307  -1.780  0.50 33.39 LIG-0.27  OA
BRANCH 45 47
ATOM     47  CA  ASN C 304      15.481   8.426  -4.011  0.50 32.40 LIG 0.18  C 
BRANCH 47 48
ATOM     48  CB  ASN C 304      15.208   9.911  -4.294  0.50 32.38 LIG 0.14  C 
BRANCH 48 49
ATOM     49  CG  ASN C 304      16.392  10.622  -4.997  0.50 31.77 LIG 0.22  C 
ATOM     50 OD1  ASN C 304      16.392  10.810  -6.208  0.50 27.48 LIG-0.27  OA
ATOM     51  ND2 ASN C 304      17.415  10.972  -4.227  0.50 32.56 LIG-0.37  N 
ATOM     52 21HD ASN C 304      18.109  11.343  -4.576  0.50 32.56 LIG 0.16  HD
ATOM     53 22HD ASN C 304      17.385  10.827  -3.380  0.50 32.56 LIG 0.16  HD
ENDBRANCH 48 49
ENDBRANCH 47 48
BRANCH 47 54
ATOM     54  N   ASN C 304      14.524   7.631  -4.742  0.50 31.56 LIG-0.34  N 
ATOM     55  C   LEU C 303      14.711   6.329  -4.902  0.50 30.83 LIG 0.26  C 
ATOM     56 O    LEU C 303      15.559   5.706  -4.279  0.50 29.02 LIG-0.27  OA
ATOM     57 H    ASN C 304      13.850   8.067  -5.050  0.50 31.56 LIG 0.16  HD
BRANCH 55 58
ATOM     58  CA  LEU C 303      13.790   5.642  -5.918  0.50 30.56 LIG 0.40  C 
ATOM     59  N   LEU C 303      14.516   4.829  -6.933  0.50 30.88 LIG 0.61  N 
BRANCH 58 60
ATOM     60  CB  LEU C 303      12.733   4.784  -5.212  0.50 30.80 LIG 0.06  C 
BRANCH 60 61
ATOM     61  CG  LEU C 303      12.092   3.639  -6.005  0.50 30.92 LIG-0.02  C 
ATOM     62  CD2 LEU C 303      11.099   4.184  -7.048  0.50 31.43 LIG 0.01  C 
ATOM     63  CD1 LEU C 303      11.439   2.624  -5.084  0.50 30.50 LIG 0.01  C 
ENDBRANCH 60 61
ENDBRANCH 58 60
ENDBRANCH 55 58
ENDBRANCH 47 54
ENDBRANCH 45 47
ENDBRANCH 35 43
ENDBRANCH 1 35
TORSDOF 21
ENDMDL
MODEL 173
USER: ADFR SOLUTION from run 151
USER: SCORE 17.813105 LL:  -6.538 LR: -12.649 RR:   0.000 FEB:  -6.385
USER: RMSD 7.563189
USER: SEED 150
USER: STATUS no improvement in best in 15 clusters for 5 generations
USER: GENES 23
USER: genes 0 Translation |==|  0.42645 0.50285 0.23850
USER: genes 1 Rotation |==|  0.79664 0.81569 0.49281 0.74958
USER: genes 2 Torsion [N]-CA--C-[N] |==|  0.92003
USER: genes 3 Torsion [C]-N--CA-[C] |==|  0.81603
USER: genes 4 Torsion [N]-CA--C-[N] |==|  0.88361
USER: genes 5 Torsion [C]-N--CA-[CB] |==|  0.16271
USER: genes 6 Torsion [N]-CA--C-[N] |==|  0.42607
USER: genes 7 Torsion [N]-CA--C-[OXT] |==|  0.85142
USER: genes 8 Torsion [N]-CA--CB-[OG] |==|  0.68611
USER: genes 9 Torsion [CA]-CB--OG-[HG] |==|  0.28957
USER: genes 10 Torsion [N]-CA--CB-[CG2] |==|  0.56482
USER: genes 11 Torsion [CA]-CB--CG1-[CD1] |==|  0.80365
USER: genes 12 Torsion [N]-C--CA-[N] |==|  0.01179
USER: genes 13 Torsion [C]-CA--CB-[CG] |==|  0.17226
USER: genes 14 Torsion [CA]-CB--CG-[CD1] |==|  0.21124
USER: genes 15 Torsion [C]-CA--N-[C] |==|  0.74295
USER: genes 16 Torsion [N]-C--CA-[N] |==|  0.21708
USER: genes 17 Torsion [C]-CA--CB-[CG] |==|  0.56775
USER: genes 18 Torsion [CA]-CB--CG-[OD1] |==|  0.28095
USER: genes 19 Torsion [C]-CA--N-[C] |==|  0.76611
USER: genes 20 Torsion [N]-C--CA-[N] |==|  0.27702
USER: genes 21 Torsion [C]-CA--CB-[CG] |==|  0.10591
USER: genes 22 Torsion [CA]-CB--CG-[CD2] |==|  0.66884
ROOT
ATOM      1  C   PHE C 305      11.517   6.899  -5.569  0.50 34.66 LIG 0.24  C 
ATOM      2 O    PHE C 305      10.687   7.460  -6.279  0.50 33.80 LIG-0.27  OA
ATOM      3  N   PRO C 306      11.503   5.568  -5.364  0.50 35.29 LIG-0.34  N 
ATOM      4  CA  PRO C 306      10.265   4.828  -5.548  0.50 35.79 LIG 0.18  C 
ATOM      5  CB  PRO C 306      10.748   3.440  -6.030  0.50 35.80 LIG 0.04  C 
ATOM      6  CG  PRO C 306      12.276   3.468  -5.911  0.50 35.25 LIG 0.02  C 
ATOM      7  CD  PRO C 306      12.614   4.655  -5.052  0.50 35.51 LIG 0.13  C 
ENDROOT
BRANCH 4 8
ATOM      8  C   PRO C 306       9.540   4.667  -4.210  0.50 36.50 LIG 0.24  C 
ATOM      9  N   ILE C 307      10.322   4.640  -3.119  0.50 37.01 LIG-0.35  N 
ATOM     10 H    ILE C 307      11.182   4.646  -3.130  0.50 37.01 LIG 0.16  HD
ATOM     11 O    PRO C 306       8.291   4.583  -4.175  0.50 36.74 LIG-0.27  OA
BRANCH 9 12
ATOM     12  CA  ILE C 307       9.716   4.595  -1.787  0.50 37.44 LIG 0.18  C 
BRANCH 12 13
ATOM     13  C   ILE C 307       8.945   5.874  -1.449  0.50 38.23 LIG 0.24  C 
ATOM     14  N   SER C 308       9.548   7.002  -1.812  0.50 38.91 LIG-0.34  N 
ATOM     15 H    SER C 308      10.359   7.028  -2.096  0.50 38.91 LIG 0.16  HD
ATOM     16 O    ILE C 307       7.840   5.831  -0.888  0.50 38.79 LIG-0.27  OA
BRANCH 14 17
ATOM     17  CA  SER C 308       8.905   8.313  -1.771  0.50 39.43 LIG 0.20  C 
BRANCH 17 18
ATOM     18  C   SER C 308       9.965   9.315  -2.233  0.50 39.77 LIG 0.24  C 
ATOM     19  N   PRO C 309       9.534  10.455  -2.803  0.50 40.03 LIG-0.34  N 
ATOM     20  CD  PRO C 309       8.190  11.050  -2.732  0.50 39.83 LIG 0.13  C 
ATOM     21  CA  PRO C 309      10.462  11.288  -3.570  0.50 40.09 LIG 0.19  C 
ATOM     22  CG  PRO C 309       8.207  12.050  -3.845  0.50 40.19 LIG 0.02  C 
ATOM     23  CB  PRO C 309       9.625  12.530  -3.904  0.50 40.09 LIG 0.04  C 
ATOM     24 O    SER C 308      11.164   9.074  -2.065  0.50 39.81 LIG-0.27  OA
BRANCH 21 25
ATOM     25  C   PRO C 309      11.724  11.662  -2.793  0.50 40.04 LIG 0.20  C 
ATOM     26 OXT  PRO C 309      11.663  12.194  -1.681  0.50 40.10 LIG-0.65  OA
ATOM     27 O    PRO C 309      12.842  11.452  -3.268  0.50 40.34 LIG-0.65  OA
ENDBRANCH 21 25
ENDBRANCH 17 18
BRANCH 17 28
ATOM     28  CB  SER C 308       8.434   8.647  -0.353  0.50 39.49 LIG 0.20  C 
BRANCH 28 29
ATOM     29 OG   SER C 308       7.017   8.694  -0.274  0.50 39.70 LIG-0.40  OA
ATOM     30 HG   SER C 308       6.734   7.998   0.102  0.50 39.70 LIG 0.21  HD
ENDBRANCH 28 29
ENDBRANCH 17 28
ENDBRANCH 14 17
ENDBRANCH 12 13
BRANCH 12 31
ATOM     31  CB  ILE C 307      10.762   4.364  -0.670  0.50 37.20 LIG 0.01  C 
ATOM     32  CG2 ILE C 307      10.105   3.758   0.579  0.50 36.86 LIG 0.01  C 
BRANCH 31 33
ATOM     33  CG1 ILE C 307      11.916   3.506  -1.218  0.50 35.88 LIG 0.00  C 
ATOM     34  CD1 ILE C 307      11.576   2.060  -1.489  0.50 32.01 LIG 0.01  C 
ENDBRANCH 31 33
ENDBRANCH 12 31
ENDBRANCH 9 12
ENDBRANCH 4 8
BRANCH 1 35
ATOM     35  CA  PHE C 305      12.637   7.718  -4.916  0.50 34.47 LIG 0.18  C 
BRANCH 35 36
ATOM     36  CB  PHE C 305      13.332   8.515  -6.030  0.50 34.49 LIG 0.07  C 
BRANCH 36 37
ATOM     37  CG  PHE C 305      12.446   9.512  -6.757  0.50 35.55 LIG-0.06  A 
ATOM     38  CD1 PHE C 305      12.087  10.731  -6.183  0.50 36.28 LIG 0.01  A 
ATOM     39  CE1 PHE C 305      11.273  11.635  -6.873  0.50 36.66 LIG 0.00  A 
ATOM     40  CZ  PHE C 305      10.797  11.317  -8.149  0.50 36.87 LIG 0.00  A 
ATOM     41  CE2 PHE C 305      11.142  10.109  -8.730  0.50 36.76 LIG 0.00  A 
ATOM     42  CD2 PHE C 305      11.957   9.207  -8.029  0.50 36.02 LIG 0.01  A 
ENDBRANCH 36 37
ENDBRANCH 35 36
BRANCH 35 43
ATOM     43  N   PHE C 305      13.645   6.925  -4.203  0.50 33.54 LIG-0.35  N 
ATOM     44 H    PHE C 305      14.297   6.648  -4.691  0.50 33.54 LIG 0.16  HD
ATOM     45  C   ASN C 304      13.523   6.676  -2.899  0.50 33.07 LIG 0.24  C 
ATOM     46 O    ASN C 304      12.444   6.767  -2.301  0.50 33.39 LIG-0.27  OA
BRANCH 45 47
ATOM     47  CA  ASN C 304      14.806   6.276  -2.158  0.50 32.40 LIG 0.18  C 
BRANCH 47 48
ATOM     48  CB  ASN C 304      14.536   5.542  -0.835  0.50 32.38 LIG 0.14  C 
BRANCH 48 49
ATOM     49  CG  ASN C 304      15.703   5.664   0.176  0.50 31.77 LIG 0.22  C 
ATOM     50 OD1  ASN C 304      15.653   6.456   1.111  0.50 27.48 LIG-0.27  OA
ATOM     51  ND2 ASN C 304      16.767   4.905  -0.052  0.50 32.56 LIG-0.37  N 
ATOM     52 21HD ASN C 304      17.453   4.958   0.466  0.50 32.56 LIG 0.16  HD
ATOM     53 22HD ASN C 304      16.771   4.359  -0.716  0.50 32.56 LIG 0.16  HD
ENDBRANCH 48 49
ENDBRANCH 47 48
BRANCH 47 54
ATOM     54  N   ASN C 304      15.614   7.441  -1.886  0.50 31.56 LIG-0.34  N 
ATOM     55  C   LEU C 303      16.443   7.916  -2.802  0.50 30.83 LIG 0.26  C 
ATOM     56 O    LEU C 303      16.417   7.543  -3.967  0.50 29.02 LIG-0.27  OA
ATOM     57 H    ASN C 304      15.507   7.781  -1.103  0.50 31.56 LIG 0.16  HD
BRANCH 55 58
ATOM     58  CA  LEU C 303      17.443   8.973  -2.316  0.50 30.56 LIG 0.40  C 
ATOM     59  N   LEU C 303      18.802   8.433  -2.042  0.50 30.88 LIG 0.61  N 
BRANCH 58 60
ATOM     60  CB  LEU C 303      17.527  10.145  -3.301  0.50 30.80 LIG 0.06  C 
BRANCH 60 61
ATOM     61  CG  LEU C 303      16.230  10.610  -3.975  0.50 30.92 LIG-0.02  C 
ATOM     62  CD2 LEU C 303      16.326  10.464  -5.505  0.50 31.43 LIG 0.01  C 
ATOM     63  CD1 LEU C 303      15.872  12.028  -3.568  0.50 30.50 LIG 0.01  C 
ENDBRANCH 60 61
ENDBRANCH 58 60
ENDBRANCH 55 58
ENDBRANCH 47 54
ENDBRANCH 45 47
ENDBRANCH 35 43
ENDBRANCH 1 35
TORSDOF 21
ENDMDL
MODEL 174
USER: ADFR SOLUTION from run 196
USER: SCORE 17.804845 LL:  -6.668 LR: -12.646 RR:   0.000 FEB:  -6.382
USER: RMSD 9.514065
USER: SEED 195
USER: STATUS no improvement in best in 6 clusters for 5 generations
USER: GENES 23
USER: genes 0 Translation |==|  0.48779 0.58390 0.17401
USER: genes 1 Rotation |==|  0.70672 0.53736 0.19524 0.83614
USER: genes 2 Torsion [N]-CA--C-[N] |==|  0.35696
USER: genes 3 Torsion [C]-N--CA-[C] |==|  0.82535
USER: genes 4 Torsion [N]-CA--C-[N] |==|  0.96110
USER: genes 5 Torsion [C]-N--CA-[CB] |==|  0.26085
USER: genes 6 Torsion [N]-CA--C-[N] |==|  0.34208
USER: genes 7 Torsion [N]-CA--C-[OXT] |==|  0.98461
USER: genes 8 Torsion [N]-CA--CB-[OG] |==|  0.91027
USER: genes 9 Torsion [CA]-CB--OG-[HG] |==|  0.42005
USER: genes 10 Torsion [N]-CA--CB-[CG2] |==|  0.21284
USER: genes 11 Torsion [CA]-CB--CG1-[CD1] |==|  0.17752
USER: genes 12 Torsion [N]-C--CA-[N] |==|  0.94444
USER: genes 13 Torsion [C]-CA--CB-[CG] |==|  0.75516
USER: genes 14 Torsion [CA]-CB--CG-[CD1] |==|  0.28887
USER: genes 15 Torsion [C]-CA--N-[C] |==|  0.67311
USER: genes 16 Torsion [N]-C--CA-[N] |==|  0.88373
USER: genes 17 Torsion [C]-CA--CB-[CG] |==|  0.41766
USER: genes 18 Torsion [CA]-CB--CG-[OD1] |==|  0.79045
USER: genes 19 Torsion [C]-CA--N-[C] |==|  0.81768
USER: genes 20 Torsion [N]-C--CA-[N] |==|  0.39801
USER: genes 21 Torsion [C]-CA--CB-[CG] |==|  0.22254
USER: genes 22 Torsion [CA]-CB--CG-[CD2] |==|  0.40820
ROOT
ATOM      1  C   PHE C 305      13.081   8.845  -6.875  0.50 34.66 LIG 0.24  C 
ATOM      2 O    PHE C 305      12.682   8.706  -8.028  0.50 33.80 LIG-0.27  OA
ATOM      3  N   PRO C 306      12.271   9.259  -5.881  0.50 35.29 LIG-0.34  N 
ATOM      4  CA  PRO C 306      11.073  10.018  -6.203  0.50 35.79 LIG 0.18  C 
ATOM      5  CB  PRO C 306      10.084   9.611  -5.086  0.50 35.80 LIG 0.04  C 
ATOM      6  CG  PRO C 306      10.894   8.758  -4.103  0.50 35.25 LIG 0.02  C 
ATOM      7  CD  PRO C 306      12.343   8.986  -4.437  0.50 35.51 LIG 0.13  C 
ENDROOT
BRANCH 4 8
ATOM      8  C   PRO C 306      11.353  11.519  -6.099  0.50 36.50 LIG 0.24  C 
ATOM      9  N   ILE C 307      11.003  12.256  -7.167  0.50 37.01 LIG-0.35  N 
ATOM     10 H    ILE C 307      10.697  11.938  -7.905  0.50 37.01 LIG 0.16  HD
ATOM     11 O    PRO C 306      11.866  11.995  -5.062  0.50 36.74 LIG-0.27  OA
BRANCH 9 12
ATOM     12  CA  ILE C 307      11.133  13.713  -7.122  0.50 37.44 LIG 0.18  C 
BRANCH 12 13
ATOM     13  C   ILE C 307      10.240  14.350  -6.055  0.50 38.23 LIG 0.24  C 
ATOM     14  N   SER C 308       9.301  13.549  -5.560  0.50 38.91 LIG-0.34  N 
ATOM     15 H    SER C 308       9.119  12.778  -5.897  0.50 38.91 LIG 0.16  HD
ATOM     16 O    ILE C 307      10.407  15.523  -5.691  0.50 38.79 LIG-0.27  OA
BRANCH 14 17
ATOM     17  CA  SER C 308       8.479  13.884  -4.401  0.50 39.43 LIG 0.20  C 
BRANCH 17 18
ATOM     18  C   SER C 308       8.219  12.562  -3.674  0.50 39.77 LIG 0.24  C 
ATOM     19  N   PRO C 309       8.590  12.481  -2.384  0.50 40.03 LIG-0.34  N 
ATOM     20  CD  PRO C 309       8.886  13.584  -1.456  0.50 39.83 LIG 0.13  C 
ATOM     21  CA  PRO C 309       8.694  11.173  -1.732  0.50 40.09 LIG 0.19  C 
ATOM     22  CG  PRO C 309       9.603  12.896  -0.336  0.50 40.19 LIG 0.02  C 
ATOM     23  CB  PRO C 309       8.985  11.533  -0.269  0.50 40.09 LIG 0.04  C 
ATOM     24 O    SER C 308       7.674  11.625  -4.265  0.50 39.81 LIG-0.27  OA
BRANCH 21 25
ATOM     25  C   PRO C 309       7.424  10.332  -1.855  0.50 40.04 LIG 0.20  C 
ATOM     26 OXT  PRO C 309       6.396  10.787  -2.364  0.50 40.10 LIG-0.65  OA
ATOM     27 O    PRO C 309       7.393   9.174  -1.433  0.50 40.34 LIG-0.65  OA
ENDBRANCH 21 25
ENDBRANCH 17 18
BRANCH 17 28
ATOM     28  CB  SER C 308       7.159  14.527  -4.832  0.50 39.49 LIG 0.20  C 
BRANCH 28 29
ATOM     29 OG   SER C 308       7.316  15.288  -6.021  0.50 39.70 LIG-0.40  OA
ATOM     30 HG   SER C 308       6.592  15.297  -6.446  0.50 39.70 LIG 0.21  HD
ENDBRANCH 28 29
ENDBRANCH 17 28
ENDBRANCH 14 17
ENDBRANCH 12 13
BRANCH 12 31
ATOM     31  CB  ILE C 307      10.797  14.377  -8.479  0.50 37.20 LIG 0.01  C 
ATOM     32  CG2 ILE C 307       9.278  14.420  -8.706  0.50 36.86 LIG 0.01  C 
BRANCH 31 33
ATOM     33  CG1 ILE C 307      11.455  15.766  -8.547  0.50 35.88 LIG 0.00  C 
ATOM     34  CD1 ILE C 307      12.964  15.771  -8.520  0.50 32.01 LIG 0.01  C 
ENDBRANCH 31 33
ENDBRANCH 12 31
ENDBRANCH 9 12
ENDBRANCH 4 8
BRANCH 1 35
ATOM     35  CA  PHE C 305      14.535   8.503  -6.526  0.50 34.47 LIG 0.18  C 
BRANCH 35 36
ATOM     36  CB  PHE C 305      14.637   6.973  -6.434  0.50 34.49 LIG 0.07  C 
BRANCH 36 37
ATOM     37  CG  PHE C 305      14.328   6.388  -5.066  0.50 35.55 LIG-0.06  A 
ATOM     38  CD1 PHE C 305      13.118   5.751  -4.795  0.50 36.28 LIG 0.01  A 
ATOM     39  CE1 PHE C 305      12.859   5.217  -3.529  0.50 36.66 LIG 0.00  A 
ATOM     40  CZ  PHE C 305      13.811   5.330  -2.512  0.50 36.87 LIG 0.00  A 
ATOM     41  CE2 PHE C 305      15.014   5.964  -2.765  0.50 36.76 LIG 0.00  A 
ATOM     42  CD2 PHE C 305      15.266   6.499  -4.038  0.50 36.02 LIG 0.01  A 
ENDBRANCH 36 37
ENDBRANCH 35 36
BRANCH 35 43
ATOM     43  N   PHE C 305      15.021   9.085  -5.269  0.50 33.54 LIG-0.35  N 
ATOM     44 H    PHE C 305      14.602   8.822  -4.565  0.50 33.54 LIG 0.16  HD
ATOM     45  C   ASN C 304      16.035   9.951  -5.263  0.50 33.07 LIG 0.24  C 
ATOM     46 O    ASN C 304      16.383  10.577  -6.271  0.50 33.39 LIG-0.27  OA
BRANCH 45 47
ATOM     47  CA  ASN C 304      16.771  10.129  -3.928  0.50 32.40 LIG 0.18  C 
BRANCH 47 48
ATOM     48  CB  ASN C 304      17.792   9.016  -3.648  0.50 32.38 LIG 0.14  C 
BRANCH 48 49
ATOM     49  CG  ASN C 304      18.989   9.494  -2.788  0.50 31.77 LIG 0.22  C 
ATOM     50 OD1  ASN C 304      19.881  10.183  -3.268  0.50 27.48 LIG-0.27  OA
ATOM     51  ND2 ASN C 304      19.015   9.080  -1.527  0.50 32.56 LIG-0.37  N 
ATOM     52 21HD ASN C 304      19.675   9.294  -1.018  0.50 32.56 LIG 0.16  HD
ATOM     53 22HD ASN C 304      18.373   8.597  -1.220  0.50 32.56 LIG 0.16  HD
ENDBRANCH 48 49
ENDBRANCH 47 48
BRANCH 47 54
ATOM     54  N   ASN C 304      15.828  10.180  -2.837  0.50 31.56 LIG-0.34  N 
ATOM     55  C   LEU C 303      14.969  11.183  -2.734  0.50 30.83 LIG 0.26  C 
ATOM     56 O    LEU C 303      14.781  11.982  -3.640  0.50 29.02 LIG-0.27  OA
ATOM     57 H    ASN C 304      15.878   9.523  -2.284  0.50 31.56 LIG 0.16  HD
BRANCH 55 58
ATOM     58  CA  LEU C 303      14.212  11.281  -1.403  0.50 30.56 LIG 0.40  C 
ATOM     59  N   LEU C 303      13.979  12.678  -0.946  0.50 30.88 LIG 0.61  N 
BRANCH 58 60
ATOM     60  CB  LEU C 303      12.883  10.517  -1.468  0.50 30.80 LIG 0.06  C 
BRANCH 60 61
ATOM     61  CG  LEU C 303      12.923   8.995  -1.287  0.50 30.92 LIG-0.02  C 
ATOM     62  CD2 LEU C 303      11.650   8.494  -0.580  0.50 31.43 LIG 0.01  C 
ATOM     63  CD1 LEU C 303      14.180   8.556  -0.557  0.50 30.50 LIG 0.01  C 
ENDBRANCH 60 61
ENDBRANCH 58 60
ENDBRANCH 55 58
ENDBRANCH 47 54
ENDBRANCH 45 47
ENDBRANCH 35 43
ENDBRANCH 1 35
TORSDOF 21
ENDMDL
MODEL 175
USER: ADFR SOLUTION from run 95
USER: SCORE 17.412271 LL:  -5.329 LR: -12.646 RR:   0.000 FEB:  -6.382
USER: RMSD 12.266437
USER: SEED 94
USER: STATUS no improvement in best in 43 clusters for 5 generations
USER: GENES 23
USER: genes 0 Translation |==|  0.43955 0.82562 0.60672
USER: genes 1 Rotation |==|  0.12458 0.54219 0.81543 0.58823
USER: genes 2 Torsion [N]-CA--C-[N] |==|  0.97091
USER: genes 3 Torsion [C]-N--CA-[C] |==|  0.65686
USER: genes 4 Torsion [N]-CA--C-[N] |==|  0.38506
USER: genes 5 Torsion [C]-N--CA-[CB] |==|  0.86486
USER: genes 6 Torsion [N]-CA--C-[N] |==|  0.34642
USER: genes 7 Torsion [N]-CA--C-[OXT] |==|  0.88188
USER: genes 8 Torsion [N]-CA--CB-[OG] |==|  0.81605
USER: genes 9 Torsion [CA]-CB--OG-[HG] |==|  0.43522
USER: genes 10 Torsion [N]-CA--CB-[CG2] |==|  0.11707
USER: genes 11 Torsion [CA]-CB--CG1-[CD1] |==|  0.27409
USER: genes 12 Torsion [N]-C--CA-[N] |==|  0.31546
USER: genes 13 Torsion [C]-CA--CB-[CG] |==|  0.81519
USER: genes 14 Torsion [CA]-CB--CG-[CD1] |==|  0.78307
USER: genes 15 Torsion [C]-CA--N-[C] |==|  0.73698
USER: genes 16 Torsion [N]-C--CA-[N] |==|  0.04015
USER: genes 17 Torsion [C]-CA--CB-[CG] |==|  0.49220
USER: genes 18 Torsion [CA]-CB--CG-[OD1] |==|  0.15147
USER: genes 19 Torsion [C]-CA--N-[C] |==|  0.69250
USER: genes 20 Torsion [N]-C--CA-[N] |==|  0.90206
USER: genes 21 Torsion [C]-CA--CB-[CG] |==|  0.32268
USER: genes 22 Torsion [CA]-CB--CG-[CD2] |==|  0.73959
ROOT
ATOM      1  C   PHE C 305      11.850  14.646   1.887  0.50 34.66 LIG 0.24  C 
ATOM      2 O    PHE C 305      12.744  15.338   1.408  0.50 33.80 LIG-0.27  OA
ATOM      3  N   PRO C 306      11.095  15.064   2.921  0.50 35.29 LIG-0.34  N 
ATOM      4  CA  PRO C 306      11.609  16.092   3.813  0.50 35.79 LIG 0.18  C 
ATOM      5  CB  PRO C 306      10.333  16.841   4.263  0.50 35.80 LIG 0.04  C 
ATOM      6  CG  PRO C 306       9.157  16.038   3.698  0.50 35.25 LIG 0.02  C 
ATOM      7  CD  PRO C 306       9.715  14.705   3.281  0.50 35.51 LIG 0.13  C 
ENDROOT
BRANCH 4 8
ATOM      8  C   PRO C 306      12.269  15.451   5.036  0.50 36.50 LIG 0.24  C 
ATOM      9  N   ILE C 307      12.071  14.131   5.185  0.50 37.01 LIG-0.35  N 
ATOM     10 H    ILE C 307      11.563  13.650   4.685  0.50 37.01 LIG 0.16  HD
ATOM     11 O    PRO C 306      12.954  16.146   5.819  0.50 36.74 LIG-0.27  OA
BRANCH 9 12
ATOM     12  CA  ILE C 307      12.748  13.409   6.263  0.50 37.44 LIG 0.18  C 
BRANCH 12 13
ATOM     13  C   ILE C 307      13.590  12.239   5.750  0.50 38.23 LIG 0.24  C 
ATOM     14  N   SER C 308      14.774  12.100   6.341  0.50 38.91 LIG-0.34  N 
ATOM     15 H    SER C 308      15.102  12.690   6.874  0.50 38.91 LIG 0.16  HD
ATOM     16 O    ILE C 307      13.173  11.486   4.858  0.50 38.79 LIG-0.27  OA
BRANCH 14 17
ATOM     17  CA  SER C 308      15.643  10.942   6.151  0.50 39.43 LIG 0.20  C 
BRANCH 17 18
ATOM     18  C   SER C 308      16.187  11.055   4.725  0.50 39.77 LIG 0.24  C 
ATOM     19  N   PRO C 309      17.523  11.045   4.569  0.50 40.03 LIG-0.34  N 
ATOM     20  CD  PRO C 309      18.543  10.585   5.525  0.50 39.83 LIG 0.13  C 
ATOM     21  CA  PRO C 309      18.117  11.489   3.306  0.50 40.09 LIG 0.19  C 
ATOM     22  CG  PRO C 309      19.805  11.172   4.976  0.50 40.19 LIG 0.02  C 
ATOM     23  CB  PRO C 309      19.608  11.179   3.491  0.50 40.09 LIG 0.04  C 
ATOM     24 O    SER C 308      15.412  11.135   3.768  0.50 39.81 LIG-0.27  OA
BRANCH 21 25
ATOM     25  C   PRO C 309      17.549  10.769   2.083  0.50 40.04 LIG 0.20  C 
ATOM     26 OXT  PRO C 309      17.345   9.552   2.088  0.50 40.10 LIG-0.65  OA
ATOM     27 O    PRO C 309      17.291  11.390   1.049  0.50 40.34 LIG-0.65  OA
ENDBRANCH 21 25
ENDBRANCH 17 18
BRANCH 17 28
ATOM     28  CB  SER C 308      14.862   9.638   6.324  0.50 39.49 LIG 0.20  C 
BRANCH 28 29
ATOM     29 OG   SER C 308      14.413   9.475   7.662  0.50 39.70 LIG-0.40  OA
ATOM     30 HG   SER C 308      13.750   8.960   7.675  0.50 39.70 LIG 0.21  HD
ENDBRANCH 28 29
ENDBRANCH 17 28
ENDBRANCH 14 17
ENDBRANCH 12 13
BRANCH 12 31
ATOM     31  CB  ILE C 307      11.756  12.854   7.314  0.50 37.20 LIG 0.01  C 
ATOM     32  CG2 ILE C 307      10.519  12.248   6.633  0.50 36.86 LIG 0.01  C 
BRANCH 31 33
ATOM     33  CG1 ILE C 307      12.486  11.856   8.231  0.50 35.88 LIG 0.00  C 
ATOM     34  CD1 ILE C 307      12.943  12.411   9.558  0.50 32.01 LIG 0.01  C 
ENDBRANCH 31 33
ENDBRANCH 12 31
ENDBRANCH 9 12
ENDBRANCH 4 8
BRANCH 1 35
ATOM     35  CA  PHE C 305      11.541  13.273   1.278  0.50 34.47 LIG 0.18  C 
BRANCH 35 36
ATOM     36  CB  PHE C 305      12.843  12.457   1.302  0.50 34.49 LIG 0.07  C 
BRANCH 36 37
ATOM     37  CG  PHE C 305      13.947  12.980   0.398  0.50 35.55 LIG-0.06  A 
ATOM     38  CD1 PHE C 305      13.939  12.755  -0.978  0.50 36.28 LIG 0.01  A 
ATOM     39  CE1 PHE C 305      14.965  13.250  -1.789  0.50 36.66 LIG 0.00  A 
ATOM     40  CZ  PHE C 305      16.023  13.967  -1.223  0.50 36.87 LIG 0.00  A 
ATOM     41  CE2 PHE C 305      16.047  14.193   0.141  0.50 36.76 LIG 0.00  A 
ATOM     42  CD2 PHE C 305      15.015  13.692   0.949  0.50 36.02 LIG 0.01  A 
ENDBRANCH 36 37
ENDBRANCH 35 36
BRANCH 35 43
ATOM     43  N   PHE C 305      11.032  13.308  -0.098  0.50 33.54 LIG-0.35  N 
ATOM     44 H    PHE C 305      11.640  13.337  -0.706  0.50 33.54 LIG 0.16  HD
ATOM     45  C   ASN C 304       9.722  13.296  -0.343  0.50 33.07 LIG 0.24  C 
ATOM     46 O    ASN C 304       8.881  13.608   0.509  0.50 33.39 LIG-0.27  OA
BRANCH 45 47
ATOM     47  CA  ASN C 304       9.295  12.860  -1.752  0.50 32.40 LIG 0.18  C 
BRANCH 47 48
ATOM     48  CB  ASN C 304       8.095  11.901  -1.749  0.50 32.38 LIG 0.14  C 
BRANCH 48 49
ATOM     49  CG  ASN C 304       7.622  11.516  -3.174  0.50 31.77 LIG 0.22  C 
ATOM     50 OD1  ASN C 304       8.399  11.039  -3.993  0.50 27.48 LIG-0.27  OA
ATOM     51  ND2 ASN C 304       6.354  11.772  -3.467  0.50 32.56 LIG-0.37  N 
ATOM     52 21HD ASN C 304       6.052  11.603  -4.255  0.50 32.56 LIG 0.16  HD
ATOM     53 22HD ASN C 304       5.833  12.107  -2.869  0.50 32.56 LIG 0.16  HD
ENDBRANCH 48 49
ENDBRANCH 47 48
BRANCH 47 54
ATOM     54  N   ASN C 304      10.395  12.225  -2.436  0.50 31.56 LIG-0.34  N 
ATOM     55  C   LEU C 303      10.982  12.817  -3.465  0.50 30.83 LIG 0.26  C 
ATOM     56 O    LEU C 303      10.780  13.989  -3.750  0.50 29.02 LIG-0.27  OA
ATOM     57 H    ASN C 304      10.622  11.456  -2.123  0.50 31.56 LIG 0.16  HD
BRANCH 55 58
ATOM     58  CA  LEU C 303      11.943  11.943  -4.281  0.50 30.56 LIG 0.40  C 
ATOM     59  N   LEU C 303      12.703  10.960  -3.462  0.50 30.88 LIG 0.61  N 
BRANCH 58 60
ATOM     60  CB  LEU C 303      11.204  11.225  -5.417  0.50 30.80 LIG 0.06  C 
BRANCH 60 61
ATOM     61  CG  LEU C 303      11.597  11.571  -6.859  0.50 30.92 LIG-0.02  C 
ATOM     62  CD2 LEU C 303      10.686  12.678  -7.423  0.50 31.43 LIG 0.01  C 
ATOM     63  CD1 LEU C 303      11.596  10.338  -7.745  0.50 30.50 LIG 0.01  C 
ENDBRANCH 60 61
ENDBRANCH 58 60
ENDBRANCH 55 58
ENDBRANCH 47 54
ENDBRANCH 45 47
ENDBRANCH 35 43
ENDBRANCH 1 35
TORSDOF 21
ENDMDL
MODEL 176
USER: ADFR SOLUTION from run 180
USER: SCORE 18.108444 LL:  -5.970 LR: -12.647 RR:   0.000 FEB:  -6.383
USER: RMSD 12.384517
USER: SEED 179
USER: STATUS no improvement in best in 17 clusters for 5 generations
USER: GENES 23
USER: genes 0 Translation |==|  0.39906 0.35218 0.32406
USER: genes 1 Rotation |==|  0.77322 0.10752 0.51968 0.64464
USER: genes 2 Torsion [N]-CA--C-[N] |==|  0.82533
USER: genes 3 Torsion [C]-N--CA-[C] |==|  0.62634
USER: genes 4 Torsion [N]-CA--C-[N] |==|  0.46721
USER: genes 5 Torsion [C]-N--CA-[CB] |==|  0.86550
USER: genes 6 Torsion [N]-CA--C-[N] |==|  0.34570
USER: genes 7 Torsion [N]-CA--C-[OXT] |==|  0.37976
USER: genes 8 Torsion [N]-CA--CB-[OG] |==|  0.72511
USER: genes 9 Torsion [CA]-CB--OG-[HG] |==|  0.05641
USER: genes 10 Torsion [N]-CA--CB-[CG2] |==|  0.84892
USER: genes 11 Torsion [CA]-CB--CG1-[CD1] |==|  0.29467
USER: genes 12 Torsion [N]-C--CA-[N] |==|  0.30891
USER: genes 13 Torsion [C]-CA--CB-[CG] |==|  0.16078
USER: genes 14 Torsion [CA]-CB--CG-[CD1] |==|  0.22227
USER: genes 15 Torsion [C]-CA--N-[C] |==|  0.70835
USER: genes 16 Torsion [N]-C--CA-[N] |==|  0.39117
USER: genes 17 Torsion [C]-CA--CB-[CG] |==|  0.94290
USER: genes 18 Torsion [CA]-CB--CG-[OD1] |==|  0.74861
USER: genes 19 Torsion [C]-CA--N-[C] |==|  0.81776
USER: genes 20 Torsion [N]-C--CA-[N] |==|  0.46713
USER: genes 21 Torsion [C]-CA--CB-[CG] |==|  0.27610
USER: genes 22 Torsion [CA]-CB--CG-[CD2] |==|  0.74269
ROOT
ATOM      1  C   PHE C 305      10.818   3.283  -3.837  0.50 34.66 LIG 0.24  C 
ATOM      2 O    PHE C 305      11.626   2.533  -3.299  0.50 33.80 LIG-0.27  OA
ATOM      3  N   PRO C 306      11.044   3.834  -5.046  0.50 35.29 LIG-0.34  N 
ATOM      4  CA  PRO C 306      12.410   3.972  -5.525  0.50 35.79 LIG 0.18  C 
ATOM      5  CB  PRO C 306      12.264   3.831  -7.058  0.50 35.80 LIG 0.04  C 
ATOM      6  CG  PRO C 306      10.756   3.792  -7.331  0.50 35.25 LIG 0.02  C 
ATOM      7  CD  PRO C 306      10.085   4.269  -6.073  0.50 35.51 LIG 0.13  C 
ENDROOT
BRANCH 4 8
ATOM      8  C   PRO C 306      12.947   5.367  -5.201  0.50 36.50 LIG 0.24  C 
ATOM      9  N   ILE C 307      12.305   6.393  -5.785  0.50 37.01 LIG-0.35  N 
ATOM     10 H    ILE C 307      11.670   6.313  -6.358  0.50 37.01 LIG 0.16  HD
ATOM     11 O    PRO C 306      13.919   5.504  -4.425  0.50 36.74 LIG-0.27  OA
BRANCH 9 12
ATOM     12  CA  ILE C 307      12.677   7.769  -5.454  0.50 37.44 LIG 0.18  C 
BRANCH 12 13
ATOM     13  C   ILE C 307      11.461   8.663  -5.198  0.50 38.23 LIG 0.24  C 
ATOM     14  N   SER C 308      11.740   9.846  -4.659  0.50 38.91 LIG-0.34  N 
ATOM     15 H    SER C 308      12.519  10.049  -4.355  0.50 38.91 LIG 0.16  HD
ATOM     16 O    ILE C 307      10.315   8.291  -5.491  0.50 38.79 LIG-0.27  OA
BRANCH 14 17
ATOM     17  CA  SER C 308      10.764  10.923  -4.521  0.50 39.43 LIG 0.20  C 
BRANCH 17 18
ATOM     18  C   SER C 308       9.797  10.475  -3.422  0.50 39.77 LIG 0.24  C 
ATOM     19  N   PRO C 309       9.628  11.297  -2.372  0.50 40.03 LIG-0.34  N 
ATOM     20  CD  PRO C 309       9.959  12.728  -2.280  0.50 39.83 LIG 0.13  C 
ATOM     21  CA  PRO C 309       9.005  10.799  -1.143  0.50 40.09 LIG 0.19  C 
ATOM     22  CG  PRO C 309       9.925  12.986  -0.806  0.50 40.19 LIG 0.02  C 
ATOM     23  CB  PRO C 309       8.869  12.062  -0.282  0.50 40.09 LIG 0.04  C 
ATOM     24 O    SER C 308       9.193   9.403  -3.525  0.50 39.81 LIG-0.27  OA
BRANCH 21 25
ATOM     25  C   PRO C 309       7.648  10.137  -1.377  0.50 40.04 LIG 0.20  C 
ATOM     26 OXT  PRO C 309       7.341   9.081  -0.818  0.50 40.10 LIG-0.65  OA
ATOM     27 O    PRO C 309       6.825  10.640  -2.145  0.50 40.34 LIG-0.65  OA
ENDBRANCH 21 25
ENDBRANCH 17 18
BRANCH 17 28
ATOM     28  CB  SER C 308      10.014  11.153  -5.834  0.50 39.49 LIG 0.20  C 
BRANCH 28 29
ATOM     29 OG   SER C 308      10.556  12.250  -6.557  0.50 39.70 LIG-0.40  OA
ATOM     30 HG   SER C 308      11.338  12.401  -6.292  0.50 39.70 LIG 0.21  HD
ENDBRANCH 28 29
ENDBRANCH 17 28
ENDBRANCH 14 17
ENDBRANCH 12 13
BRANCH 12 31
ATOM     31  CB  ILE C 307      13.527   8.433  -6.565  0.50 37.20 LIG 0.01  C 
ATOM     32  CG2 ILE C 307      14.760   7.579  -6.896  0.50 36.86 LIG 0.01  C 
BRANCH 31 33
ATOM     33  CG1 ILE C 307      12.640   8.709  -7.793  0.50 35.88 LIG 0.00  C 
ATOM     34  CD1 ILE C 307      12.267  10.156  -8.010  0.50 32.01 LIG 0.01  C 
ENDBRANCH 31 33
ENDBRANCH 12 31
ENDBRANCH 9 12
ENDBRANCH 4 8
BRANCH 1 35
ATOM     35  CA  PHE C 305       9.483   3.587  -3.145  0.50 34.47 LIG 0.18  C 
BRANCH 35 36
ATOM     36  CB  PHE C 305       9.805   4.095  -1.731  0.50 34.49 LIG 0.07  C 
BRANCH 36 37
ATOM     37  CG  PHE C 305      10.696   5.325  -1.676  0.50 35.55 LIG-0.06  A 
ATOM     38  CD1 PHE C 305      10.191   6.608  -1.886  0.50 36.28 LIG 0.01  A 
ATOM     39  CE1 PHE C 305      11.030   7.725  -1.827  0.50 36.66 LIG 0.00  A 
ATOM     40  CZ  PHE C 305      12.394   7.564  -1.569  0.50 36.87 LIG 0.00  A 
ATOM     41  CE2 PHE C 305      12.910   6.297  -1.364  0.50 36.76 LIG 0.00  A 
ATOM     42  CD2 PHE C 305      12.062   5.181  -1.427  0.50 36.02 LIG 0.01  A 
ENDBRANCH 36 37
ENDBRANCH 35 36
BRANCH 35 43
ATOM     43  N   PHE C 305       8.569   2.444  -3.039  0.50 33.54 LIG-0.35  N 
ATOM     44 H    PHE C 305       8.784   1.865  -2.440  0.50 33.54 LIG 0.16  HD
ATOM     45  C   ASN C 304       7.499   2.349  -3.828  0.50 33.07 LIG 0.24  C 
ATOM     46 O    ASN C 304       7.396   2.974  -4.890  0.50 33.39 LIG-0.27  OA
BRANCH 45 47
ATOM     47  CA  ASN C 304       6.376   1.420  -3.346  0.50 32.40 LIG 0.18  C 
BRANCH 47 48
ATOM     48  CB  ASN C 304       6.439   0.020  -3.976  0.50 32.38 LIG 0.14  C 
BRANCH 48 49
ATOM     49  CG  ASN C 304       7.258  -0.018  -5.291  0.50 31.77 LIG 0.22  C 
ATOM     50 OD1  ASN C 304       6.723   0.164  -6.378  0.50 27.48 LIG-0.27  OA
ATOM     51  ND2 ASN C 304       8.549  -0.303  -5.177  0.50 32.56 LIG-0.37  N 
ATOM     52 21HD ASN C 304       9.040  -0.364  -5.881  0.50 32.56 LIG 0.16  HD
ATOM     53 22HD ASN C 304       8.896  -0.425  -4.399  0.50 32.56 LIG 0.16  HD
ENDBRANCH 48 49
ENDBRANCH 47 48
BRANCH 47 54
ATOM     54  N   ASN C 304       5.086   2.000  -3.631  0.50 31.56 LIG-0.34  N 
ATOM     55  C   LEU C 303       4.701   3.116  -3.032  0.50 30.83 LIG 0.26  C 
ATOM     56 O    LEU C 303       5.472   3.816  -2.390  0.50 29.02 LIG-0.27  OA
ATOM     57 H    ASN C 304       4.613   1.567  -4.204  0.50 31.56 LIG 0.16  HD
BRANCH 55 58
ATOM     58  CA  LEU C 303       3.222   3.488  -3.196  0.50 30.56 LIG 0.40  C 
ATOM     59  N   LEU C 303       2.773   4.580  -2.290  0.50 30.88 LIG 0.61  N 
BRANCH 58 60
ATOM     60  CB  LEU C 303       2.901   3.843  -4.653  0.50 30.80 LIG 0.06  C 
BRANCH 60 61
ATOM     61  CG  LEU C 303       2.246   2.765  -5.525  0.50 30.92 LIG-0.02  C 
ATOM     62  CD2 LEU C 303       3.312   1.956  -6.287  0.50 31.43 LIG 0.01  C 
ATOM     63  CD1 LEU C 303       1.217   3.365  -6.466  0.50 30.50 LIG 0.01  C 
ENDBRANCH 60 61
ENDBRANCH 58 60
ENDBRANCH 55 58
ENDBRANCH 47 54
ENDBRANCH 45 47
ENDBRANCH 35 43
ENDBRANCH 1 35
TORSDOF 21
ENDMDL
MODEL 177
USER: ADFR SOLUTION from run 192
USER: SCORE 17.259530 LL:  -5.969 LR: -12.646 RR:   0.000 FEB:  -6.382
USER: RMSD 11.885107
USER: SEED 191
USER: STATUS no improvement in best in 12 clusters for 5 generations
USER: GENES 23
USER: genes 0 Translation |==|  0.47009 0.60580 0.23689
USER: genes 1 Rotation |==|  0.97767 0.37148 0.47255 0.56756
USER: genes 2 Torsion [N]-CA--C-[N] |==|  0.02261
USER: genes 3 Torsion [C]-N--CA-[C] |==|  0.69313
USER: genes 4 Torsion [N]-CA--C-[N] |==|  0.51666
USER: genes 5 Torsion [C]-N--CA-[CB] |==|  0.88847
USER: genes 6 Torsion [N]-CA--C-[N] |==|  0.34878
USER: genes 7 Torsion [N]-CA--C-[OXT] |==|  0.38111
USER: genes 8 Torsion [N]-CA--CB-[OG] |==|  0.39343
USER: genes 9 Torsion [CA]-CB--OG-[HG] |==|  0.15851
USER: genes 10 Torsion [N]-CA--CB-[CG2] |==|  0.58562
USER: genes 11 Torsion [CA]-CB--CG1-[CD1] |==|  0.59048
USER: genes 12 Torsion [N]-C--CA-[N] |==|  0.87054
USER: genes 13 Torsion [C]-CA--CB-[CG] |==|  0.50359
USER: genes 14 Torsion [CA]-CB--CG-[CD1] |==|  0.34349
USER: genes 15 Torsion [C]-CA--N-[C] |==|  0.74857
USER: genes 16 Torsion [N]-C--CA-[N] |==|  0.20148
USER: genes 17 Torsion [C]-CA--CB-[CG] |==|  0.38896
USER: genes 18 Torsion [CA]-CB--CG-[OD1] |==|  0.70987
USER: genes 19 Torsion [C]-CA--N-[C] |==|  0.74574
USER: genes 20 Torsion [N]-C--CA-[N] |==|  0.10567
USER: genes 21 Torsion [C]-CA--CB-[CG] |==|  0.86868
USER: genes 22 Torsion [CA]-CB--CG-[CD2] |==|  0.79700
ROOT
ATOM      1  C   PHE C 305      12.629   9.370  -5.602  0.50 34.66 LIG 0.24  C 
ATOM      2 O    PHE C 305      13.739   9.855  -5.404  0.50 33.80 LIG-0.27  OA
ATOM      3  N   PRO C 306      11.683  10.010  -6.317  0.50 35.29 LIG-0.34  N 
ATOM      4  CA  PRO C 306      11.744  11.457  -6.450  0.50 35.79 LIG 0.18  C 
ATOM      5  CB  PRO C 306      11.128  11.712  -7.845  0.50 35.80 LIG 0.04  C 
ATOM      6  CG  PRO C 306      10.603  10.353  -8.322  0.50 35.25 LIG 0.02  C 
ATOM      7  CD  PRO C 306      10.575   9.460  -7.113  0.50 35.51 LIG 0.13  C 
ENDROOT
BRANCH 4 8
ATOM      8  C   PRO C 306      10.867  12.124  -5.388  0.50 36.50 LIG 0.24  C 
ATOM      9  N   ILE C 307      10.357  11.308  -4.450  0.50 37.01 LIG-0.35  N 
ATOM     10 H    ILE C 307      10.441  10.453  -4.445  0.50 37.01 LIG 0.16  HD
ATOM     11 O    PRO C 306      10.671  13.360  -5.418  0.50 36.74 LIG-0.27  OA
BRANCH 9 12
ATOM     12  CA  ILE C 307       9.594  11.867  -3.334  0.50 37.44 LIG 0.18  C 
BRANCH 12 13
ATOM     13  C   ILE C 307      10.333  11.751  -1.999  0.50 38.23 LIG 0.24  C 
ATOM     14  N   SER C 308       9.630  12.130  -0.935  0.50 38.91 LIG-0.34  N 
ATOM     15 H    SER C 308       8.871  12.531  -0.996  0.50 38.91 LIG 0.16  HD
ATOM     16 O    ILE C 307      11.495  11.323  -1.940  0.50 38.79 LIG-0.27  OA
BRANCH 14 17
ATOM     17  CA  SER C 308      10.064  11.913   0.442  0.50 39.43 LIG 0.20  C 
BRANCH 17 18
ATOM     18  C   SER C 308      11.083  13.016   0.740  0.50 39.77 LIG 0.24  C 
ATOM     19  N   PRO C 309      10.862  13.788   1.819  0.50 40.03 LIG-0.34  N 
ATOM     20  CD  PRO C 309       9.980  13.511   2.965  0.50 39.83 LIG 0.13  C 
ATOM     21  CA  PRO C 309      11.579  15.055   1.973  0.50 40.09 LIG 0.19  C 
ATOM     22  CG  PRO C 309       9.845  14.852   3.615  0.50 40.19 LIG 0.02  C 
ATOM     23  CB  PRO C 309      11.160  15.528   3.372  0.50 40.09 LIG 0.04  C 
ATOM     24 O    SER C 308      12.070  13.164   0.014  0.50 39.81 LIG-0.27  OA
BRANCH 21 25
ATOM     25  C   PRO C 309      13.097  14.909   1.869  0.50 40.04 LIG 0.20  C 
ATOM     26 OXT  PRO C 309      13.780  15.715   1.230  0.50 40.10 LIG-0.65  OA
ATOM     27 O    PRO C 309      13.679  13.969   2.414  0.50 40.34 LIG-0.65  OA
ENDBRANCH 21 25
ENDBRANCH 17 18
BRANCH 17 28
ATOM     28  CB  SER C 308      10.707  10.533   0.602  0.50 39.49 LIG 0.20  C 
BRANCH 28 29
ATOM     29 OG   SER C 308      11.822  10.579   1.481  0.50 39.70 LIG-0.40  OA
ATOM     30 HG   SER C 308      11.580  10.883   2.225  0.50 39.70 LIG 0.21  HD
ENDBRANCH 28 29
ENDBRANCH 17 28
ENDBRANCH 14 17
ENDBRANCH 12 13
BRANCH 12 31
ATOM     31  CB  ILE C 307       8.211  11.192  -3.169  0.50 37.20 LIG 0.01  C 
ATOM     32  CG2 ILE C 307       7.183  12.181  -2.600  0.50 36.86 LIG 0.01  C 
BRANCH 31 33
ATOM     33  CG1 ILE C 307       7.776  10.579  -4.512  0.50 35.88 LIG 0.00  C 
ATOM     34  CD1 ILE C 307       6.290  10.581  -4.774  0.50 32.01 LIG 0.01  C 
ENDBRANCH 31 33
ENDBRANCH 12 31
ENDBRANCH 9 12
ENDBRANCH 4 8
BRANCH 1 35
ATOM     35  CA  PHE C 305      12.301   7.973  -5.060  0.50 34.47 LIG 0.18  C 
BRANCH 35 36
ATOM     36  CB  PHE C 305      12.351   6.999  -6.247  0.50 34.49 LIG 0.07  C 
BRANCH 36 37
ATOM     37  CG  PHE C 305      12.019   5.554  -5.909  0.50 35.55 LIG-0.06  A 
ATOM     38  CD1 PHE C 305      10.997   4.863  -6.558  0.50 36.28 LIG 0.01  A 
ATOM     39  CE1 PHE C 305      10.713   3.534  -6.232  0.50 36.66 LIG 0.00  A 
ATOM     40  CZ  PHE C 305      11.447   2.884  -5.235  0.50 36.87 LIG 0.00  A 
ATOM     41  CE2 PHE C 305      12.462   3.559  -4.580  0.50 36.76 LIG 0.00  A 
ATOM     42  CD2 PHE C 305      12.739   4.894  -4.911  0.50 36.02 LIG 0.01  A 
ENDBRANCH 36 37
ENDBRANCH 35 36
BRANCH 35 43
ATOM     43  N   PHE C 305      10.992   7.856  -4.408  0.50 33.54 LIG-0.35  N 
ATOM     44 H    PHE C 305      10.345   7.644  -4.934  0.50 33.54 LIG 0.16  HD
ATOM     45  C   ASN C 304      10.859   8.068  -3.099  0.50 33.07 LIG 0.24  C 
ATOM     46 O    ASN C 304      11.692   8.700  -2.438  0.50 33.39 LIG-0.27  OA
BRANCH 45 47
ATOM     47  CA  ASN C 304       9.609   7.474  -2.435  0.50 32.40 LIG 0.18  C 
BRANCH 47 48
ATOM     48  CB  ASN C 304       9.337   8.049  -1.036  0.50 32.38 LIG 0.14  C 
BRANCH 48 49
ATOM     49  CG  ASN C 304       7.832   8.304  -0.767  0.50 31.77 LIG 0.22  C 
ATOM     50 OD1  ASN C 304       7.367   9.438  -0.786  0.50 27.48 LIG-0.27  OA
ATOM     51  ND2 ASN C 304       7.095   7.241  -0.472  0.50 32.56 LIG-0.37  N 
ATOM     52 21HD ASN C 304       6.260   7.335  -0.286  0.50 32.56 LIG 0.16  HD
ATOM     53 22HD ASN C 304       7.451   6.458  -0.468  0.50 32.56 LIG 0.16  HD
ENDBRANCH 48 49
ENDBRANCH 47 48
BRANCH 47 54
ATOM     54  N   ASN C 304       9.727   6.040  -2.332  0.50 31.56 LIG-0.34  N 
ATOM     55  C   LEU C 303       9.266   5.255  -3.294  0.50 30.83 LIG 0.26  C 
ATOM     56 O    LEU C 303       8.922   5.686  -4.385  0.50 29.02 LIG-0.27  OA
ATOM     57 H    ASN C 304      10.111   5.758  -1.616  0.50 31.56 LIG 0.16  HD
BRANCH 55 58
ATOM     58  CA  LEU C 303       9.194   3.759  -2.959  0.50 30.56 LIG 0.40  C 
ATOM     59  N   LEU C 303       8.776   3.477  -1.559  0.50 30.88 LIG 0.61  N 
BRANCH 58 60
ATOM     60  CB  LEU C 303       8.281   3.018  -3.943  0.50 30.80 LIG 0.06  C 
BRANCH 60 61
ATOM     61  CG  LEU C 303       6.910   3.632  -4.250  0.50 30.92 LIG-0.02  C 
ATOM     62  CD2 LEU C 303       5.954   3.461  -3.056  0.50 31.43 LIG 0.01  C 
ATOM     63  CD1 LEU C 303       6.321   3.060  -5.528  0.50 30.50 LIG 0.01  C 
ENDBRANCH 60 61
ENDBRANCH 58 60
ENDBRANCH 55 58
ENDBRANCH 47 54
ENDBRANCH 45 47
ENDBRANCH 35 43
ENDBRANCH 1 35
TORSDOF 21
ENDMDL
MODEL 178
USER: ADFR SOLUTION from run 142
USER: SCORE 16.690543 LL:  -5.826 LR: -12.651 RR:   0.000 FEB:  -6.387
USER: RMSD 12.202767
USER: SEED 141
USER: STATUS no improvement in best in 31 clusters for 5 generations
USER: GENES 23
USER: genes 0 Translation |==|  0.59526 0.47441 0.53489
USER: genes 1 Rotation |==|  0.15329 0.82927 0.61697 0.58771
USER: genes 2 Torsion [N]-CA--C-[N] |==|  0.63389
USER: genes 3 Torsion [C]-N--CA-[C] |==|  0.59647
USER: genes 4 Torsion [N]-CA--C-[N] |==|  0.00223
USER: genes 5 Torsion [C]-N--CA-[CB] |==|  0.20998
USER: genes 6 Torsion [N]-CA--C-[N] |==|  0.83516
USER: genes 7 Torsion [N]-CA--C-[OXT] |==|  0.38343
USER: genes 8 Torsion [N]-CA--CB-[OG] |==|  0.78889
USER: genes 9 Torsion [CA]-CB--OG-[HG] |==|  0.02545
USER: genes 10 Torsion [N]-CA--CB-[CG2] |==|  0.25549
USER: genes 11 Torsion [CA]-CB--CG1-[CD1] |==|  0.13431
USER: genes 12 Torsion [N]-C--CA-[N] |==|  0.33507
USER: genes 13 Torsion [C]-CA--CB-[CG] |==|  0.27407
USER: genes 14 Torsion [CA]-CB--CG-[CD1] |==|  0.22980
USER: genes 15 Torsion [C]-CA--N-[C] |==|  0.76088
USER: genes 16 Torsion [N]-C--CA-[N] |==|  0.18837
USER: genes 17 Torsion [C]-CA--CB-[CG] |==|  0.35936
USER: genes 18 Torsion [CA]-CB--CG-[OD1] |==|  0.15411
USER: genes 19 Torsion [C]-CA--N-[C] |==|  0.63118
USER: genes 20 Torsion [N]-C--CA-[N] |==|  0.39377
USER: genes 21 Torsion [C]-CA--CB-[CG] |==|  0.00601
USER: genes 22 Torsion [CA]-CB--CG-[CD2] |==|  0.75897
ROOT
ATOM      1  C   PHE C 305      15.821   6.217   0.433  0.50 34.66 LIG 0.24  C 
ATOM      2 O    PHE C 305      16.755   5.421   0.395  0.50 33.80 LIG-0.27  OA
ATOM      3  N   PRO C 306      16.014   7.550   0.451  0.50 35.29 LIG-0.34  N 
ATOM      4  CA  PRO C 306      17.283   8.083   0.923  0.50 35.79 LIG 0.18  C 
ATOM      5  CB  PRO C 306      17.456   9.376   0.093  0.50 35.80 LIG 0.04  C 
ATOM      6  CG  PRO C 306      16.144   9.553  -0.681  0.50 35.25 LIG 0.02  C 
ATOM      7  CD  PRO C 306      15.145   8.632  -0.037  0.50 35.51 LIG 0.13  C 
ENDROOT
BRANCH 4 8
ATOM      8  C   PRO C 306      17.186   8.450   2.405  0.50 36.50 LIG 0.24  C 
ATOM      9  N   ILE C 307      17.651   9.665   2.740  0.50 37.01 LIG-0.35  N 
ATOM     10 H    ILE C 307      18.042  10.208   2.200  0.50 37.01 LIG 0.16  HD
ATOM     11 O    PRO C 306      16.685   7.646   3.222  0.50 36.74 LIG-0.27  OA
BRANCH 9 12
ATOM     12  CA  ILE C 307      17.504  10.149   4.113  0.50 37.44 LIG 0.18  C 
BRANCH 12 13
ATOM     13  C   ILE C 307      17.264  11.659   4.183  0.50 38.23 LIG 0.24  C 
ATOM     14  N   SER C 308      17.212  12.272   3.004  0.50 38.91 LIG-0.34  N 
ATOM     15 H    SER C 308      17.423  11.884   2.266  0.50 38.91 LIG 0.16  HD
ATOM     16 O    ILE C 307      17.123  12.240   5.269  0.50 38.79 LIG-0.27  OA
BRANCH 14 17
ATOM     17  CA  SER C 308      16.794  13.660   2.831  0.50 39.43 LIG 0.20  C 
BRANCH 17 18
ATOM     18  C   SER C 308      16.504  13.828   1.338  0.50 39.77 LIG 0.24  C 
ATOM     19  N   PRO C 309      17.511  13.588   0.480  0.50 40.03 LIG-0.34  N 
ATOM     20  CD  PRO C 309      18.756  12.844   0.731  0.50 39.83 LIG 0.13  C 
ATOM     21  CA  PRO C 309      17.420  14.051  -0.906  0.50 40.09 LIG 0.19  C 
ATOM     22  CG  PRO C 309      19.623  13.244  -0.421  0.50 40.19 LIG 0.02  C 
ATOM     23  CB  PRO C 309      18.673  13.452  -1.560  0.50 40.09 LIG 0.04  C 
ATOM     24 O    SER C 308      15.376  14.156   0.956  0.50 39.81 LIG-0.27  OA
BRANCH 21 25
ATOM     25  C   PRO C 309      16.149  13.589  -1.618  0.50 40.04 LIG 0.20  C 
ATOM     26 OXT  PRO C 309      15.508  14.348  -2.351  0.50 40.10 LIG-0.65  OA
ATOM     27 O    PRO C 309      15.722  12.443  -1.465  0.50 40.34 LIG-0.65  OA
ENDBRANCH 21 25
ENDBRANCH 17 18
BRANCH 17 28
ATOM     28  CB  SER C 308      17.897  14.623   3.274  0.50 39.49 LIG 0.20  C 
BRANCH 28 29
ATOM     29 OG   SER C 308      17.978  14.705   4.690  0.50 39.70 LIG-0.40  OA
ATOM     30 HG   SER C 308      17.488  14.115   5.033  0.50 39.70 LIG 0.21  HD
ENDBRANCH 28 29
ENDBRANCH 17 28
ENDBRANCH 14 17
ENDBRANCH 12 13
BRANCH 12 31
ATOM     31  CB  ILE C 307      18.741   9.826   4.987  0.50 37.20 LIG 0.01  C 
ATOM     32  CG2 ILE C 307      19.750  10.984   4.957  0.50 36.86 LIG 0.01  C 
BRANCH 31 33
ATOM     33  CG1 ILE C 307      18.282   9.464   6.411  0.50 35.88 LIG 0.00  C 
ATOM     34  CD1 ILE C 307      17.161   8.457   6.494  0.50 32.01 LIG 0.01  C 
ENDBRANCH 31 33
ENDBRANCH 12 31
ENDBRANCH 9 12
ENDBRANCH 4 8
BRANCH 1 35
ATOM     35  CA  PHE C 305      14.378   5.698   0.419  0.50 34.47 LIG 0.18  C 
BRANCH 35 36
ATOM     36  CB  PHE C 305      14.176   4.873   1.699  0.50 34.49 LIG 0.07  C 
BRANCH 36 37
ATOM     37  CG  PHE C 305      13.487   5.607   2.837  0.50 35.55 LIG-0.06  A 
ATOM     38  CD1 PHE C 305      12.099   5.724   2.904  0.50 36.28 LIG 0.01  A 
ATOM     39  CE1 PHE C 305      11.488   6.401   3.964  0.50 36.66 LIG 0.00  A 
ATOM     40  CZ  PHE C 305      12.269   6.985   4.966  0.50 36.87 LIG 0.00  A 
ATOM     41  CE2 PHE C 305      13.648   6.882   4.910  0.50 36.76 LIG 0.00  A 
ATOM     42  CD2 PHE C 305      14.253   6.202   3.842  0.50 36.02 LIG 0.01  A 
ENDBRANCH 36 37
ENDBRANCH 35 36
BRANCH 35 43
ATOM     43  N   PHE C 305      14.031   4.867  -0.739  0.50 33.54 LIG-0.35  N 
ATOM     44 H    PHE C 305      14.122   4.020  -0.614  0.50 33.54 LIG 0.16  HD
ATOM     45  C   ASN C 304      13.613   5.420  -1.878  0.50 33.07 LIG 0.24  C 
ATOM     46 O    ASN C 304      13.821   6.606  -2.159  0.50 33.39 LIG-0.27  OA
BRANCH 45 47
ATOM     47  CA  ASN C 304      12.838   4.505  -2.836  0.50 32.40 LIG 0.18  C 
BRANCH 47 48
ATOM     48  CB  ASN C 304      12.604   5.136  -4.217  0.50 32.38 LIG 0.14  C 
BRANCH 48 49
ATOM     49  CG  ASN C 304      13.024   4.210  -5.386  0.50 31.77 LIG 0.22  C 
ATOM     50 OD1  ASN C 304      12.567   3.078  -5.495  0.50 27.48 LIG-0.27  OA
ATOM     51  ND2 ASN C 304      13.930   4.691  -6.228  0.50 32.56 LIG-0.37  N 
ATOM     52 21HD ASN C 304      14.217   4.204  -6.876  0.50 32.56 LIG 0.16  HD
ATOM     53 22HD ASN C 304      14.231   5.490  -6.125  0.50 32.56 LIG 0.16  HD
ENDBRANCH 48 49
ENDBRANCH 47 48
BRANCH 47 54
ATOM     54  N   ASN C 304      11.561   4.147  -2.267  0.50 31.56 LIG-0.34  N 
ATOM     55  C   LEU C 303      11.150   2.887  -2.271  0.50 30.83 LIG 0.26  C 
ATOM     56 O    LEU C 303      11.892   1.956  -2.549  0.50 29.02 LIG-0.27  OA
ATOM     57 H    ASN C 304      11.114   4.804  -1.939  0.50 31.56 LIG 0.16  HD
BRANCH 55 58
ATOM     58  CA  LEU C 303       9.679   2.663  -1.898  0.50 30.56 LIG 0.40  C 
ATOM     59  N   LEU C 303       9.014   1.595  -2.693  0.50 30.88 LIG 0.61  N 
BRANCH 58 60
ATOM     60  CB  LEU C 303       9.528   2.378  -0.398  0.50 30.80 LIG 0.06  C 
BRANCH 60 61
ATOM     61  CG  LEU C 303      10.794   2.411   0.468  0.50 30.92 LIG-0.02  C 
ATOM     62  CD2 LEU C 303      11.493   1.039   0.465  0.50 31.43 LIG 0.01  C 
ATOM     63  CD1 LEU C 303      10.487   2.883   1.878  0.50 30.50 LIG 0.01  C 
ENDBRANCH 60 61
ENDBRANCH 58 60
ENDBRANCH 55 58
ENDBRANCH 47 54
ENDBRANCH 45 47
ENDBRANCH 35 43
ENDBRANCH 1 35
TORSDOF 21
ENDMDL
MODEL 179
USER: ADFR SOLUTION from run 61
USER: SCORE 18.158127 LL:  -7.263 LR: -12.640 RR:   0.000 FEB:  -6.376
USER: RMSD 8.346225
USER: SEED 60
USER: STATUS no improvement in best in 12 clusters for 5 generations
USER: GENES 23
USER: genes 0 Translation |==|  0.35880 0.44871 0.27616
USER: genes 1 Rotation |==|  0.55303 0.98635 0.52863 0.59915
USER: genes 2 Torsion [N]-CA--C-[N] |==|  0.92288
USER: genes 3 Torsion [C]-N--CA-[C] |==|  0.81928
USER: genes 4 Torsion [N]-CA--C-[N] |==|  0.33370
USER: genes 5 Torsion [C]-N--CA-[CB] |==|  0.49281
USER: genes 6 Torsion [N]-CA--C-[N] |==|  0.29399
USER: genes 7 Torsion [N]-CA--C-[OXT] |==|  0.27652
USER: genes 8 Torsion [N]-CA--CB-[OG] |==|  0.98762
USER: genes 9 Torsion [CA]-CB--OG-[HG] |==|  0.16221
USER: genes 10 Torsion [N]-CA--CB-[CG2] |==|  0.48940
USER: genes 11 Torsion [CA]-CB--CG1-[CD1] |==|  0.24057
USER: genes 12 Torsion [N]-C--CA-[N] |==|  0.82960
USER: genes 13 Torsion [C]-CA--CB-[CG] |==|  0.51826
USER: genes 14 Torsion [CA]-CB--CG-[CD1] |==|  0.41383
USER: genes 15 Torsion [C]-CA--N-[C] |==|  0.78593
USER: genes 16 Torsion [N]-C--CA-[N] |==|  0.03000
USER: genes 17 Torsion [C]-CA--CB-[CG] |==|  0.97045
USER: genes 18 Torsion [CA]-CB--CG-[OD1] |==|  0.72609
USER: genes 19 Torsion [C]-CA--N-[C] |==|  0.75549
USER: genes 20 Torsion [N]-C--CA-[N] |==|  0.35940
USER: genes 21 Torsion [C]-CA--CB-[CG] |==|  0.79732
USER: genes 22 Torsion [CA]-CB--CG-[CD2] |==|  0.70633
ROOT
ATOM      1  C   PHE C 305       9.791   5.600  -4.807  0.50 34.66 LIG 0.24  C 
ATOM      2 O    PHE C 305       8.801   4.877  -4.751  0.50 33.80 LIG-0.27  OA
ATOM      3  N   PRO C 306      11.019   5.116  -5.077  0.50 35.29 LIG-0.34  N 
ATOM      4  CA  PRO C 306      11.307   3.713  -4.822  0.50 35.79 LIG 0.18  C 
ATOM      5  CB  PRO C 306      12.348   3.361  -5.910  0.50 35.80 LIG 0.04  C 
ATOM      6  CG  PRO C 306      12.692   4.685  -6.601  0.50 35.25 LIG 0.02  C 
ATOM      7  CD  PRO C 306      12.171   5.778  -5.708  0.50 35.51 LIG 0.13  C 
ENDROOT
BRANCH 4 8
ATOM      8  C   PRO C 306      11.950   3.546  -3.443  0.50 36.50 LIG 0.24  C 
ATOM      9  N   ILE C 307      12.646   4.601  -2.989  0.50 37.01 LIG-0.35  N 
ATOM     10 H    ILE C 307      12.799   5.319  -3.436  0.50 37.01 LIG 0.16  HD
ATOM     11 O    PRO C 306      11.801   2.481  -2.803  0.50 36.74 LIG-0.27  OA
BRANCH 9 12
ATOM     12  CA  ILE C 307      13.208   4.576  -1.638  0.50 37.44 LIG 0.18  C 
BRANCH 12 13
ATOM     13  C   ILE C 307      12.130   4.537  -0.552  0.50 38.23 LIG 0.24  C 
ATOM     14  N   SER C 308      12.180   3.474   0.246  0.50 38.91 LIG-0.34  N 
ATOM     15 H    SER C 308      12.689   2.798   0.093  0.50 38.91 LIG 0.16  HD
ATOM     16 O    ILE C 307      11.293   5.444  -0.442  0.50 38.79 LIG-0.27  OA
BRANCH 14 17
ATOM     17  CA  SER C 308      11.382   3.338   1.462  0.50 39.43 LIG 0.20  C 
BRANCH 17 18
ATOM     18  C   SER C 308      11.833   4.469   2.389  0.50 39.77 LIG 0.24  C 
ATOM     19  N   PRO C 309      11.001   5.515   2.541  0.50 40.03 LIG-0.34  N 
ATOM     20  CD  PRO C 309       9.564   5.580   2.232  0.50 39.83 LIG 0.13  C 
ATOM     21  CA  PRO C 309      11.495   6.766   3.119  0.50 40.09 LIG 0.19  C 
ATOM     22  CG  PRO C 309       9.289   7.051   2.227  0.50 40.19 LIG 0.02  C 
ATOM     23  CB  PRO C 309      10.224   7.617   3.252  0.50 40.09 LIG 0.04  C 
ATOM     24 O    SER C 308      12.916   4.396   2.978  0.50 39.81 LIG-0.27  OA
BRANCH 21 25
ATOM     25  C   PRO C 309      12.181   6.580   4.472  0.50 40.04 LIG 0.20  C 
ATOM     26 OXT  PRO C 309      13.411   6.537   4.570  0.50 40.10 LIG-0.65  OA
ATOM     27 O    PRO C 309      11.518   6.456   5.504  0.50 40.34 LIG-0.65  OA
ENDBRANCH 21 25
ENDBRANCH 17 18
BRANCH 17 28
ATOM     28  CB  SER C 308      11.619   1.977   2.122  0.50 39.49 LIG 0.20  C 
BRANCH 28 29
ATOM     29 OG   SER C 308      12.472   1.159   1.334  0.50 39.70 LIG-0.40  OA
ATOM     30 HG   SER C 308      13.206   1.550   1.217  0.50 39.70 LIG 0.21  HD
ENDBRANCH 28 29
ENDBRANCH 17 28
ENDBRANCH 14 17
ENDBRANCH 12 13
BRANCH 12 31
ATOM     31  CB  ILE C 307      14.119   5.796  -1.356  0.50 37.20 LIG 0.01  C 
ATOM     32  CG2 ILE C 307      14.613   5.786   0.099  0.50 36.86 LIG 0.01  C 
BRANCH 31 33
ATOM     33  CG1 ILE C 307      15.266   5.827  -2.381  0.50 35.88 LIG 0.00  C 
ATOM     34  CD1 ILE C 307      14.957   6.535  -3.678  0.50 32.01 LIG 0.01  C 
ENDBRANCH 31 33
ENDBRANCH 12 31
ENDBRANCH 9 12
ENDBRANCH 4 8
BRANCH 1 35
ATOM     35  CA  PHE C 305       9.642   7.113  -4.604  0.50 34.47 LIG 0.18  C 
BRANCH 35 36
ATOM     36  CB  PHE C 305      10.107   7.797  -5.899  0.50 34.49 LIG 0.07  C 
BRANCH 36 37
ATOM     37  CG  PHE C 305      10.180   9.314  -5.836  0.50 35.55 LIG-0.06  A 
ATOM     38  CD1 PHE C 305      11.111  10.036  -6.581  0.50 36.28 LIG 0.01  A 
ATOM     39  CE1 PHE C 305      11.157  11.432  -6.509  0.50 36.66 LIG 0.00  A 
ATOM     40  CZ  PHE C 305      10.272  12.120  -5.673  0.50 36.87 LIG 0.00  A 
ATOM     41  CE2 PHE C 305       9.346  11.416  -4.924  0.50 36.76 LIG 0.00  A 
ATOM     42  CD2 PHE C 305       9.308  10.015  -5.001  0.50 36.02 LIG 0.01  A 
ENDBRANCH 36 37
ENDBRANCH 35 36
BRANCH 35 43
ATOM     43  N   PHE C 305      10.407   7.663  -3.479  0.50 33.54 LIG-0.35  N 
ATOM     44 H    PHE C 305      11.126   8.079  -3.701  0.50 33.54 LIG 0.16  HD
ATOM     45  C   ASN C 304       9.983   7.509  -2.224  0.50 33.07 LIG 0.24  C 
ATOM     46 O    ASN C 304       9.171   6.636  -1.897  0.50 33.39 LIG-0.27  OA
BRANCH 45 47
ATOM     47  CA  ASN C 304      10.551   8.489  -1.188  0.50 32.40 LIG 0.18  C 
BRANCH 47 48
ATOM     48  CB  ASN C 304       9.473   9.094  -0.275  0.50 32.38 LIG 0.14  C 
BRANCH 48 49
ATOM     49  CG  ASN C 304       8.032   8.795  -0.758  0.50 31.77 LIG 0.22  C 
ATOM     50 OD1  ASN C 304       7.392   9.621  -1.399  0.50 27.48 LIG-0.27  OA
ATOM     51  ND2 ASN C 304       7.518   7.624  -0.401  0.50 32.56 LIG-0.37  N 
ATOM     52 21HD ASN C 304       6.711   7.424  -0.621  0.50 32.56 LIG 0.16  HD
ATOM     53 22HD ASN C 304       7.993   7.065   0.048  0.50 32.56 LIG 0.16  HD
ENDBRANCH 48 49
ENDBRANCH 47 48
BRANCH 47 54
ATOM     54  N   ASN C 304      11.260   9.561  -1.844  0.50 31.56 LIG-0.34  N 
ATOM     55  C   LEU C 303      12.545   9.439  -2.139  0.50 30.83 LIG 0.26  C 
ATOM     56 O    LEU C 303      13.134   8.370  -2.074  0.50 29.02 LIG-0.27  OA
ATOM     57 H    ASN C 304      10.784  10.257  -2.017  0.50 31.56 LIG 0.16  HD
BRANCH 55 58
ATOM     58  CA  LEU C 303      13.256  10.726  -2.577  0.50 30.56 LIG 0.40  C 
ATOM     59  N   LEU C 303      14.521  10.993  -1.840  0.50 30.88 LIG 0.61  N 
BRANCH 58 60
ATOM     60  CB  LEU C 303      13.513  10.726  -4.089  0.50 30.80 LIG 0.06  C 
BRANCH 60 61
ATOM     61  CG  LEU C 303      14.611   9.801  -4.628  0.50 30.92 LIG-0.02  C 
ATOM     62  CD2 LEU C 303      15.861  10.609  -5.024  0.50 31.43 LIG 0.01  C 
ATOM     63  CD1 LEU C 303      14.103   8.952  -5.780  0.50 30.50 LIG 0.01  C 
ENDBRANCH 60 61
ENDBRANCH 58 60
ENDBRANCH 55 58
ENDBRANCH 47 54
ENDBRANCH 45 47
ENDBRANCH 35 43
ENDBRANCH 1 35
TORSDOF 21
ENDMDL
MODEL 180
USER: ADFR SOLUTION from run 65
USER: SCORE 17.413047 LL:  -5.757 LR: -12.639 RR:   0.000 FEB:  -6.375
USER: RMSD 7.726003
USER: SEED 64
USER: STATUS no improvement in best in 18 clusters for 5 generations
USER: GENES 23
USER: genes 0 Translation |==|  0.38386 0.47520 0.26574
USER: genes 1 Rotation |==|  0.70499 0.87498 0.68311 0.68395
USER: genes 2 Torsion [N]-CA--C-[N] |==|  0.24348
USER: genes 3 Torsion [C]-N--CA-[C] |==|  0.72118
USER: genes 4 Torsion [N]-CA--C-[N] |==|  0.45485
USER: genes 5 Torsion [C]-N--CA-[CB] |==|  0.58336
USER: genes 6 Torsion [N]-CA--C-[N] |==|  0.81677
USER: genes 7 Torsion [N]-CA--C-[OXT] |==|  0.38052
USER: genes 8 Torsion [N]-CA--CB-[OG] |==|  0.00368
USER: genes 9 Torsion [CA]-CB--OG-[HG] |==|  0.92015
USER: genes 10 Torsion [N]-CA--CB-[CG2] |==|  0.68861
USER: genes 11 Torsion [CA]-CB--CG1-[CD1] |==|  0.23107
USER: genes 12 Torsion [N]-C--CA-[N] |==|  0.36949
USER: genes 13 Torsion [C]-CA--CB-[CG] |==|  0.24493
USER: genes 14 Torsion [CA]-CB--CG-[CD1] |==|  0.89818
USER: genes 15 Torsion [C]-CA--N-[C] |==|  0.84588
USER: genes 16 Torsion [N]-C--CA-[N] |==|  0.32844
USER: genes 17 Torsion [C]-CA--CB-[CG] |==|  0.82647
USER: genes 18 Torsion [CA]-CB--CG-[OD1] |==|  0.92539
USER: genes 19 Torsion [C]-CA--N-[C] |==|  0.80000
USER: genes 20 Torsion [N]-C--CA-[N] |==|  0.42468
USER: genes 21 Torsion [C]-CA--CB-[CG] |==|  0.91648
USER: genes 22 Torsion [CA]-CB--CG-[CD2] |==|  0.65934
ROOT
ATOM      1  C   PHE C 305      10.430   6.236  -5.018  0.50 34.66 LIG 0.24  C 
ATOM      2 O    PHE C 305       9.430   6.390  -5.711  0.50 33.80 LIG-0.27  OA
ATOM      3  N   PRO C 306      11.368   5.311  -5.305  0.50 35.29 LIG-0.34  N 
ATOM      4  CA  PRO C 306      11.010   4.158  -6.116  0.50 35.79 LIG 0.18  C 
ATOM      5  CB  PRO C 306      12.320   3.836  -6.872  0.50 35.80 LIG 0.04  C 
ATOM      6  CG  PRO C 306      13.384   4.764  -6.274  0.50 35.25 LIG 0.02  C 
ATOM      7  CD  PRO C 306      12.806   5.306  -4.996  0.50 35.51 LIG 0.13  C 
ENDROOT
BRANCH 4 8
ATOM      8  C   PRO C 306      10.646   2.972  -5.220  0.50 36.50 LIG 0.24  C 
ATOM      9  N   ILE C 307       9.361   2.901  -4.835  0.50 37.01 LIG-0.35  N 
ATOM     10 H    ILE C 307       8.763   3.495  -5.005  0.50 37.01 LIG 0.16  HD
ATOM     11 O    PRO C 306      11.517   2.133  -4.900  0.50 36.74 LIG-0.27  OA
BRANCH 9 12
ATOM     12  CA  ILE C 307       8.893   1.748  -4.065  0.50 37.44 LIG 0.18  C 
BRANCH 12 13
ATOM     13  C   ILE C 307       8.153   0.725  -4.930  0.50 38.23 LIG 0.24  C 
ATOM     14  N   SER C 308       8.006  -0.475  -4.375  0.50 38.91 LIG-0.34  N 
ATOM     15 H    SER C 308       8.403  -0.705  -3.647  0.50 38.91 LIG 0.16  HD
ATOM     16 O    ILE C 307       7.724   1.021  -6.055  0.50 38.79 LIG-0.27  OA
BRANCH 14 17
ATOM     17  CA  SER C 308       7.162  -1.528  -4.933  0.50 39.43 LIG 0.20  C 
BRANCH 17 18
ATOM     18  C   SER C 308       6.026  -0.811  -5.666  0.50 39.77 LIG 0.24  C 
ATOM     19  N   PRO C 309       5.161  -0.099  -4.922  0.50 40.03 LIG-0.34  N 
ATOM     20  CD  PRO C 309       5.340   0.390  -3.545  0.50 39.83 LIG 0.13  C 
ATOM     21  CA  PRO C 309       3.877   0.319  -5.489  0.50 40.09 LIG 0.19  C 
ATOM     22  CG  PRO C 309       3.946   0.745  -3.132  0.50 40.19 LIG 0.02  C 
ATOM     23  CB  PRO C 309       3.282   1.211  -4.391  0.50 40.09 LIG 0.04  C 
ATOM     24 O    SER C 308       5.936  -0.882  -6.895  0.50 39.81 LIG-0.27  OA
BRANCH 21 25
ATOM     25  C   PRO C 309       4.016   1.080  -6.807  0.50 40.04 LIG 0.20  C 
ATOM     26 OXT  PRO C 309       3.268   0.856  -7.763  0.50 40.10 LIG-0.65  OA
ATOM     27 O    PRO C 309       4.894   1.934  -6.953  0.50 40.34 LIG-0.65  OA
ENDBRANCH 21 25
ENDBRANCH 17 18
BRANCH 17 28
ATOM     28  CB  SER C 308       6.604  -2.426  -3.827  0.50 39.49 LIG 0.20  C 
BRANCH 28 29
ATOM     29 OG   SER C 308       7.023  -1.989  -2.542  0.50 39.70 LIG-0.40  OA
ATOM     30 HG   SER C 308       7.766  -1.604  -2.606  0.50 39.70 LIG 0.21  HD
ENDBRANCH 28 29
ENDBRANCH 17 28
ENDBRANCH 14 17
ENDBRANCH 12 13
BRANCH 12 31
ATOM     31  CB  ILE C 307       7.953   2.155  -2.905  0.50 37.20 LIG 0.01  C 
ATOM     32  CG2 ILE C 307       8.617   1.895  -1.545  0.50 36.86 LIG 0.01  C 
BRANCH 31 33
ATOM     33  CG1 ILE C 307       7.515   3.619  -3.090  0.50 35.88 LIG 0.00  C 
ATOM     34  CD1 ILE C 307       6.350   3.833  -4.025  0.50 32.01 LIG 0.01  C 
ENDBRANCH 31 33
ENDBRANCH 12 31
ENDBRANCH 9 12
ENDBRANCH 4 8
BRANCH 1 35
ATOM     35  CA  PHE C 305      10.661   7.142  -3.802  0.50 34.47 LIG 0.18  C 
BRANCH 35 36
ATOM     36  CB  PHE C 305       9.713   6.666  -2.690  0.50 34.49 LIG 0.07  C 
BRANCH 36 37
ATOM     37  CG  PHE C 305      10.270   5.574  -1.792  0.50 35.55 LIG-0.06  A 
ATOM     38  CD1 PHE C 305      11.087   4.559  -2.290  0.50 36.28 LIG 0.01  A 
ATOM     39  CE1 PHE C 305      11.590   3.567  -1.443  0.50 36.66 LIG 0.00  A 
ATOM     40  CZ  PHE C 305      11.267   3.575  -0.083  0.50 36.87 LIG 0.00  A 
ATOM     41  CE2 PHE C 305      10.454   4.573   0.424  0.50 36.76 LIG 0.00  A 
ATOM     42  CD2 PHE C 305       9.950   5.564  -0.433  0.50 36.02 LIG 0.01  A 
ENDBRANCH 36 37
ENDBRANCH 35 36
BRANCH 35 43
ATOM     43  N   PHE C 305      10.426   8.570  -4.043  0.50 33.54 LIG-0.35  N 
ATOM     44 H    PHE C 305       9.859   8.937  -3.511  0.50 33.54 LIG 0.16  HD
ATOM     45  C   ASN C 304      11.065   9.212  -5.022  0.50 33.07 LIG 0.24  C 
ATOM     46 O    ASN C 304      11.587   8.623  -5.976  0.50 33.39 LIG-0.27  OA
BRANCH 45 47
ATOM     47  CA  ASN C 304      11.133  10.741  -4.904  0.50 32.40 LIG 0.18  C 
BRANCH 47 48
ATOM     48  CB  ASN C 304      10.464  11.468  -6.080  0.50 32.38 LIG 0.14  C 
BRANCH 48 49
ATOM     49  CG  ASN C 304      11.144  11.174  -7.441  0.50 31.77 LIG 0.22  C 
ATOM     50 OD1  ASN C 304      12.329  10.867  -7.506  0.50 27.48 LIG-0.27  OA
ATOM     51  ND2 ASN C 304      10.389  11.317  -8.524  0.50 32.56 LIG-0.37  N 
ATOM     52 21HD ASN C 304      10.730  11.193  -9.304  0.50 32.56 LIG 0.16  HD
ATOM     53 22HD ASN C 304       9.561  11.533  -8.445  0.50 32.56 LIG 0.16  HD
ENDBRANCH 48 49
ENDBRANCH 47 48
BRANCH 47 54
ATOM     54  N   ASN C 304      12.505  11.177  -4.808  0.50 31.56 LIG-0.34  N 
ATOM     55  C   LEU C 303      13.205  10.966  -3.703  0.50 30.83 LIG 0.26  C 
ATOM     56 O    LEU C 303      12.817  10.223  -2.813  0.50 29.02 LIG-0.27  OA
ATOM     57 H    ASN C 304      12.810  11.572  -5.509  0.50 31.56 LIG 0.16  HD
BRANCH 55 58
ATOM     58  CA  LEU C 303      14.544  11.707  -3.608  0.50 30.56 LIG 0.40  C 
ATOM     59  N   LEU C 303      14.983  11.978  -2.212  0.50 30.88 LIG 0.61  N 
BRANCH 58 60
ATOM     60  CB  LEU C 303      15.644  10.959  -4.372  0.50 30.80 LIG 0.06  C 
BRANCH 60 61
ATOM     61  CG  LEU C 303      15.536   9.432  -4.470  0.50 30.92 LIG-0.02  C 
ATOM     62  CD2 LEU C 303      16.793   8.757  -3.891  0.50 31.43 LIG 0.01  C 
ATOM     63  CD1 LEU C 303      15.265   8.986  -5.896  0.50 30.50 LIG 0.01  C 
ENDBRANCH 60 61
ENDBRANCH 58 60
ENDBRANCH 55 58
ENDBRANCH 47 54
ENDBRANCH 45 47
ENDBRANCH 35 43
ENDBRANCH 1 35
TORSDOF 21
ENDMDL
MODEL 181
USER: ADFR SOLUTION from run 95
USER: SCORE 16.840435 LL:  -5.349 LR: -12.639 RR:   0.000 FEB:  -6.374
USER: RMSD 13.022335
USER: SEED 94
USER: STATUS no improvement in best in 43 clusters for 5 generations
USER: GENES 23
USER: genes 0 Translation |==|  0.42755 0.83781 0.62406
USER: genes 1 Rotation |==|  0.15113 0.58047 0.82532 0.62641
USER: genes 2 Torsion [N]-CA--C-[N] |==|  0.01721
USER: genes 3 Torsion [C]-N--CA-[C] |==|  0.68342
USER: genes 4 Torsion [N]-CA--C-[N] |==|  0.07857
USER: genes 5 Torsion [C]-N--CA-[CB] |==|  0.54008
USER: genes 6 Torsion [N]-CA--C-[N] |==|  0.30179
USER: genes 7 Torsion [N]-CA--C-[OXT] |==|  0.80799
USER: genes 8 Torsion [N]-CA--CB-[OG] |==|  0.60828
USER: genes 9 Torsion [CA]-CB--OG-[HG] |==|  0.74831
USER: genes 10 Torsion [N]-CA--CB-[CG2] |==|  0.64976
USER: genes 11 Torsion [CA]-CB--CG1-[CD1] |==|  0.25914
USER: genes 12 Torsion [N]-C--CA-[N] |==|  0.30274
USER: genes 13 Torsion [C]-CA--CB-[CG] |==|  0.79167
USER: genes 14 Torsion [CA]-CB--CG-[CD1] |==|  0.75782
USER: genes 15 Torsion [C]-CA--N-[C] |==|  0.76971
USER: genes 16 Torsion [N]-C--CA-[N] |==|  0.19454
USER: genes 17 Torsion [C]-CA--CB-[CG] |==|  0.41535
USER: genes 18 Torsion [CA]-CB--CG-[OD1] |==|  0.84988
USER: genes 19 Torsion [C]-CA--N-[C] |==|  0.77222
USER: genes 20 Torsion [N]-C--CA-[N] |==|  0.76208
USER: genes 21 Torsion [C]-CA--CB-[CG] |==|  0.22151
USER: genes 22 Torsion [CA]-CB--CG-[CD2] |==|  0.02413
ROOT
ATOM      1  C   PHE C 305      11.544  14.938   2.238  0.50 34.66 LIG 0.24  C 
ATOM      2 O    PHE C 305      12.509  15.451   1.680  0.50 33.80 LIG-0.27  OA
ATOM      3  N   PRO C 306      11.009  15.451   3.364  0.50 35.29 LIG-0.34  N 
ATOM      4  CA  PRO C 306      11.823  16.301   4.219  0.50 35.79 LIG 0.18  C 
ATOM      5  CB  PRO C 306      10.792  17.277   4.833  0.50 35.80 LIG 0.04  C 
ATOM      6  CG  PRO C 306       9.418  16.768   4.383  0.50 35.25 LIG 0.02  C 
ATOM      7  CD  PRO C 306       9.630  15.371   3.869  0.50 35.51 LIG 0.13  C 
ENDROOT
BRANCH 4 8
ATOM      8  C   PRO C 306      12.456  15.474   5.340  0.50 36.50 LIG 0.24  C 
ATOM      9  N   ILE C 307      12.270  14.146   5.266  0.50 37.01 LIG-0.35  N 
ATOM     10 H    ILE C 307      11.782  13.750   4.679  0.50 37.01 LIG 0.16  HD
ATOM     11 O    PRO C 306      13.111  16.037   6.246  0.50 36.74 LIG-0.27  OA
BRANCH 9 12
ATOM     12  CA  ILE C 307      12.925  13.263   6.232  0.50 37.44 LIG 0.18  C 
BRANCH 12 13
ATOM     13  C   ILE C 307      13.971  12.353   5.582  0.50 38.23 LIG 0.24  C 
ATOM     14  N   SER C 308      14.541  12.849   4.488  0.50 38.91 LIG-0.34  N 
ATOM     15 H    SER C 308      14.260  13.562   4.097  0.50 38.91 LIG 0.16  HD
ATOM     16 O    ILE C 307      14.252  11.247   6.066  0.50 38.79 LIG-0.27  OA
BRANCH 14 17
ATOM     17  CA  SER C 308      15.697  12.244   3.833  0.50 39.43 LIG 0.20  C 
BRANCH 17 18
ATOM     18  C   SER C 308      16.685  11.906   4.952  0.50 39.77 LIG 0.24  C 
ATOM     19  N   PRO C 309      16.856  10.607   5.256  0.50 40.03 LIG-0.34  N 
ATOM     20  CD  PRO C 309      16.506   9.433   4.441  0.50 39.83 LIG 0.13  C 
ATOM     21  CA  PRO C 309      17.500  10.227   6.515  0.50 40.09 LIG 0.19  C 
ATOM     22  CG  PRO C 309      16.555   8.311   5.430  0.50 40.19 LIG 0.02  C 
ATOM     23  CB  PRO C 309      17.630   8.703   6.397  0.50 40.09 LIG 0.04  C 
ATOM     24 O    SER C 308      17.302  12.805   5.529  0.50 39.81 LIG-0.27  OA
BRANCH 21 25
ATOM     25  C   PRO C 309      18.864  10.886   6.720  0.50 40.04 LIG 0.20  C 
ATOM     26 OXT  PRO C 309      19.838  10.581   6.027  0.50 40.10 LIG-0.65  OA
ATOM     27 O    PRO C 309      19.028  11.735   7.600  0.50 40.34 LIG-0.65  OA
ENDBRANCH 21 25
ENDBRANCH 17 18
BRANCH 17 28
ATOM     28  CB  SER C 308      16.332  13.216   2.835  0.50 39.49 LIG 0.20  C 
BRANCH 28 29
ATOM     29 OG   SER C 308      16.761  12.546   1.659  0.50 39.70 LIG-0.40  OA
ATOM     30 HG   SER C 308      17.557  12.296   1.753  0.50 39.70 LIG 0.21  HD
ENDBRANCH 28 29
ENDBRANCH 17 28
ENDBRANCH 14 17
ENDBRANCH 12 13
BRANCH 12 31
ATOM     31  CB  ILE C 307      11.917  12.362   6.985  0.50 37.20 LIG 0.01  C 
ATOM     32  CG2 ILE C 307      12.082  12.507   8.505  0.50 36.86 LIG 0.01  C 
BRANCH 31 33
ATOM     33  CG1 ILE C 307      10.489  12.676   6.503  0.50 35.88 LIG 0.00  C 
ATOM     34  CD1 ILE C 307       9.979  11.809   5.378  0.50 32.01 LIG 0.01  C 
ENDBRANCH 31 33
ENDBRANCH 12 31
ENDBRANCH 9 12
ENDBRANCH 4 8
BRANCH 1 35
ATOM     35  CA  PHE C 305      10.886  13.694   1.630  0.50 34.47 LIG 0.18  C 
BRANCH 35 36
ATOM     36  CB  PHE C 305      11.998  12.665   1.375  0.50 34.49 LIG 0.07  C 
BRANCH 36 37
ATOM     37  CG  PHE C 305      12.888  12.962   0.179  0.50 35.55 LIG-0.06  A 
ATOM     38  CD1 PHE C 305      12.557  12.536  -1.107  0.50 36.28 LIG 0.01  A 
ATOM     39  CE1 PHE C 305      13.390  12.824  -2.192  0.50 36.66 LIG 0.00  A 
ATOM     40  CZ  PHE C 305      14.577  13.536  -1.995  0.50 36.87 LIG 0.00  A 
ATOM     41  CE2 PHE C 305      14.921  13.961  -0.725  0.50 36.76 LIG 0.00  A 
ATOM     42  CD2 PHE C 305      14.080  13.665   0.360  0.50 36.02 LIG 0.01  A 
ENDBRANCH 36 37
ENDBRANCH 35 36
BRANCH 35 43
ATOM     43  N   PHE C 305      10.164  13.929   0.375  0.50 33.54 LIG-0.35  N 
ATOM     44 H    PHE C 305      10.610  13.746  -0.338  0.50 33.54 LIG 0.16  HD
ATOM     45  C   ASN C 304       8.913  14.391   0.381  0.50 33.07 LIG 0.24  C 
ATOM     46 O    ASN C 304       8.422  14.971   1.357  0.50 33.39 LIG-0.27  OA
BRANCH 45 47
ATOM     47  CA  ASN C 304       8.092  14.156  -0.894  0.50 32.40 LIG 0.18  C 
BRANCH 47 48
ATOM     48  CB  ASN C 304       6.786  14.964  -0.929  0.50 32.38 LIG 0.14  C 
BRANCH 48 49
ATOM     49  CG  ASN C 304       6.348  15.348  -2.365  0.50 31.77 LIG 0.22  C 
ATOM     50 OD1  ASN C 304       7.108  15.940  -3.123  0.50 27.48 LIG-0.27  OA
ATOM     51  ND2 ASN C 304       5.102  15.044  -2.706  0.50 32.56 LIG-0.37  N 
ATOM     52 21HD ASN C 304       4.803  15.263  -3.483  0.50 32.56 LIG 0.16  HD
ATOM     53 22HD ASN C 304       4.594  14.628  -2.152  0.50 32.56 LIG 0.16  HD
ENDBRANCH 48 49
ENDBRANCH 47 48
BRANCH 47 54
ATOM     54  N   ASN C 304       7.777  12.755  -1.039  0.50 31.56 LIG-0.34  N 
ATOM     55  C   LEU C 303       8.660  11.915  -1.556  0.50 30.83 LIG 0.26  C 
ATOM     56 O    LEU C 303       9.831  12.220  -1.734  0.50 29.02 LIG-0.27  OA
ATOM     57 H    ASN C 304       6.992  12.531  -0.767  0.50 31.56 LIG 0.16  HD
BRANCH 55 58
ATOM     58  CA  LEU C 303       8.126  10.522  -1.916  0.50 30.56 LIG 0.40  C 
ATOM     59  N   LEU C 303       8.134   9.564  -0.778  0.50 30.88 LIG 0.61  N 
BRANCH 58 60
ATOM     60  CB  LEU C 303       6.721  10.611  -2.524  0.50 30.80 LIG 0.06  C 
BRANCH 60 61
ATOM     61  CG  LEU C 303       6.603  11.003  -4.002  0.50 30.92 LIG-0.02  C 
ATOM     62  CD2 LEU C 303       7.989  11.032  -4.672  0.50 31.43 LIG 0.01  C 
ATOM     63  CD1 LEU C 303       5.871  12.323  -4.168  0.50 30.50 LIG 0.01  C 
ENDBRANCH 60 61
ENDBRANCH 58 60
ENDBRANCH 55 58
ENDBRANCH 47 54
ENDBRANCH 45 47
ENDBRANCH 35 43
ENDBRANCH 1 35
TORSDOF 21
ENDMDL
MODEL 182
USER: ADFR SOLUTION from run 4
USER: SCORE 17.936790 LL:  -6.167 LR: -12.641 RR:   0.000 FEB:  -6.377
USER: RMSD 12.124586
USER: SEED 576143
USER: STATUS no improvement in best in 17 clusters for 5 generations
USER: GENES 23
USER: genes 0 Translation |==|  0.41842 0.82982 0.61901
USER: genes 1 Rotation |==|  0.15690 0.61501 0.81615 0.63821
USER: genes 2 Torsion [N]-CA--C-[N] |==|  0.03178
USER: genes 3 Torsion [C]-N--CA-[C] |==|  0.67986
USER: genes 4 Torsion [N]-CA--C-[N] |==|  0.04173
USER: genes 5 Torsion [C]-N--CA-[CB] |==|  0.52855
USER: genes 6 Torsion [N]-CA--C-[N] |==|  0.31106
USER: genes 7 Torsion [N]-CA--C-[OXT] |==|  0.25127
USER: genes 8 Torsion [N]-CA--CB-[OG] |==|  0.86564
USER: genes 9 Torsion [CA]-CB--OG-[HG] |==|  0.17772
USER: genes 10 Torsion [N]-CA--CB-[CG2] |==|  0.20467
USER: genes 11 Torsion [CA]-CB--CG1-[CD1] |==|  0.11972
USER: genes 12 Torsion [N]-C--CA-[N] |==|  0.46594
USER: genes 13 Torsion [C]-CA--CB-[CG] |==|  0.61045
USER: genes 14 Torsion [CA]-CB--CG-[CD1] |==|  0.74904
USER: genes 15 Torsion [C]-CA--N-[C] |==|  0.63061
USER: genes 16 Torsion [N]-C--CA-[N] |==|  0.96943
USER: genes 17 Torsion [C]-CA--CB-[CG] |==|  0.13545
USER: genes 18 Torsion [CA]-CB--CG-[OD1] |==|  0.58380
USER: genes 19 Torsion [C]-CA--N-[C] |==|  0.74697
USER: genes 20 Torsion [N]-C--CA-[N] |==|  0.90208
USER: genes 21 Torsion [C]-CA--CB-[CG] |==|  0.49983
USER: genes 22 Torsion [CA]-CB--CG-[CD2] |==|  0.86211
ROOT
ATOM      1  C   PHE C 305      11.312  14.747   2.136  0.50 34.66 LIG 0.24  C 
ATOM      2 O    PHE C 305      12.327  15.088   1.536  0.50 33.80 LIG-0.27  OA
ATOM      3  N   PRO C 306      10.877  15.392   3.236  0.50 35.29 LIG-0.34  N 
ATOM      4  CA  PRO C 306      11.818  16.165   4.030  0.50 35.79 LIG 0.18  C 
ATOM      5  CB  PRO C 306      10.946  17.309   4.600  0.50 35.80 LIG 0.04  C 
ATOM      6  CG  PRO C 306       9.505  16.973   4.198  0.50 35.25 LIG 0.02  C 
ATOM      7  CD  PRO C 306       9.511  15.534   3.762  0.50 35.51 LIG 0.13  C 
ENDROOT
BRANCH 4 8
ATOM      8  C   PRO C 306      12.353  15.322   5.189  0.50 36.50 LIG 0.24  C 
ATOM      9  N   ILE C 307      12.074  14.008   5.136  0.50 37.01 LIG-0.35  N 
ATOM     10 H    ILE C 307      11.578  13.635   4.542  0.50 37.01 LIG 0.16  HD
ATOM     11 O    PRO C 306      13.017  15.857   6.105  0.50 36.74 LIG-0.27  OA
BRANCH 9 12
ATOM     12  CA  ILE C 307      12.632  13.103   6.142  0.50 37.44 LIG 0.18  C 
BRANCH 12 13
ATOM     13  C   ILE C 307      13.606  12.086   5.543  0.50 38.23 LIG 0.24  C 
ATOM     14  N   SER C 308      14.026  12.371   4.314  0.50 38.91 LIG-0.34  N 
ATOM     15 H    SER C 308      13.685  13.002   3.838  0.50 38.91 LIG 0.16  HD
ATOM     16 O    ILE C 307      13.967  11.086   6.181  0.50 38.79 LIG-0.27  OA
BRANCH 14 17
ATOM     17  CA  SER C 308      15.103  11.652   3.639  0.50 39.43 LIG 0.20  C 
BRANCH 17 18
ATOM     18  C   SER C 308      16.267  11.613   4.632  0.50 39.77 LIG 0.24  C 
ATOM     19  N   PRO C 309      16.603  10.416   5.146  0.50 40.03 LIG-0.34  N 
ATOM     20  CD  PRO C 309      16.255   9.081   4.635  0.50 39.83 LIG 0.13  C 
ATOM     21  CA  PRO C 309      17.454  10.342   6.336  0.50 40.09 LIG 0.19  C 
ATOM     22  CG  PRO C 309      16.552   8.189   5.799  0.50 40.19 LIG 0.02  C 
ATOM     23  CB  PRO C 309      17.711   8.838   6.491  0.50 40.09 LIG 0.04  C 
ATOM     24 O    SER C 308      16.872  12.649   4.923  0.50 39.81 LIG-0.27  OA
BRANCH 21 25
ATOM     25  C   PRO C 309      18.764  11.117   6.194  0.50 40.04 LIG 0.20  C 
ATOM     26 OXT  PRO C 309      18.852  12.302   6.529  0.50 40.10 LIG-0.65  OA
ATOM     27 O    PRO C 309      19.768  10.577   5.726  0.50 40.34 LIG-0.65  OA
ENDBRANCH 21 25
ENDBRANCH 17 18
BRANCH 17 28
ATOM     28  CB  SER C 308      15.519  12.370   2.354  0.50 39.49 LIG 0.20  C 
BRANCH 28 29
ATOM     29 OG   SER C 308      14.391  12.712   1.561  0.50 39.70 LIG-0.40  OA
ATOM     30 HG   SER C 308      13.913  13.263   1.977  0.50 39.70 LIG 0.21  HD
ENDBRANCH 28 29
ENDBRANCH 17 28
ENDBRANCH 14 17
ENDBRANCH 12 13
BRANCH 12 31
ATOM     31  CB  ILE C 307      11.535  12.318   6.902  0.50 37.20 LIG 0.01  C 
ATOM     32  CG2 ILE C 307      10.931  11.222   6.011  0.50 36.86 LIG 0.01  C 
BRANCH 31 33
ATOM     33  CG1 ILE C 307      12.114  11.771   8.218  0.50 35.88 LIG 0.00  C 
ATOM     34  CD1 ILE C 307      12.982  12.733   8.993  0.50 32.01 LIG 0.01  C 
ENDBRANCH 31 33
ENDBRANCH 12 31
ENDBRANCH 9 12
ENDBRANCH 4 8
BRANCH 1 35
ATOM     35  CA  PHE C 305      10.474  13.575   1.609  0.50 34.47 LIG 0.18  C 
BRANCH 35 36
ATOM     36  CB  PHE C 305      10.636  12.413   2.602  0.50 34.49 LIG 0.07  C 
BRANCH 36 37
ATOM     37  CG  PHE C 305      10.758  11.037   1.969  0.50 35.55 LIG-0.06  A 
ATOM     38  CD1 PHE C 305       9.641  10.243   1.714  0.50 36.28 LIG 0.01  A 
ATOM     39  CE1 PHE C 305       9.779   8.981   1.127  0.50 36.66 LIG 0.00  A 
ATOM     40  CZ  PHE C 305      11.048   8.495   0.800  0.50 36.87 LIG 0.00  A 
ATOM     41  CE2 PHE C 305      12.166   9.270   1.051  0.50 36.76 LIG 0.00  A 
ATOM     42  CD2 PHE C 305      12.020  10.534   1.643  0.50 36.02 LIG 0.01  A 
ENDBRANCH 36 37
ENDBRANCH 35 36
BRANCH 35 43
ATOM     43  N   PHE C 305      10.843  13.105   0.269  0.50 33.54 LIG-0.35  N 
ATOM     44 H    PHE C 305      11.687  12.990   0.148  0.50 33.54 LIG 0.16  HD
ATOM     45  C   ASN C 304       9.912  12.885  -0.659  0.50 33.07 LIG 0.24  C 
ATOM     46 O    ASN C 304       8.779  13.376  -0.597  0.50 33.39 LIG-0.27  OA
BRANCH 45 47
ATOM     47  CA  ASN C 304      10.313  11.969  -1.824  0.50 32.40 LIG 0.18  C 
BRANCH 47 48
ATOM     48  CB  ASN C 304       9.580  10.619  -1.810  0.50 32.38 LIG 0.14  C 
BRANCH 48 49
ATOM     49  CG  ASN C 304       8.048  10.762  -1.626  0.50 31.77 LIG 0.22  C 
ATOM     50 OD1  ASN C 304       7.392   9.892  -1.065  0.50 27.48 LIG-0.27  OA
ATOM     51  ND2 ASN C 304       7.488  11.847  -2.145  0.50 32.56 LIG-0.37  N 
ATOM     52 21HD ASN C 304       6.636  11.957  -2.094  0.50 32.56 LIG 0.16  HD
ATOM     53 22HD ASN C 304       7.975  12.440  -2.532  0.50 32.56 LIG 0.16  HD
ENDBRANCH 48 49
ENDBRANCH 47 48
BRANCH 47 54
ATOM     54  N   ASN C 304      11.735  11.726  -1.806  0.50 31.56 LIG-0.34  N 
ATOM     55  C   LEU C 303      12.563  12.513  -2.476  0.50 30.83 LIG 0.26  C 
ATOM     56 O    LEU C 303      12.209  13.581  -2.955  0.50 29.02 LIG-0.27  OA
ATOM     57 H    ASN C 304      11.981  11.048  -1.336  0.50 31.56 LIG 0.16  HD
BRANCH 55 58
ATOM     58  CA  LEU C 303      14.004  12.006  -2.613  0.50 30.56 LIG 0.40  C 
ATOM     59  N   LEU C 303      14.495  11.261  -1.421  0.50 30.88 LIG 0.61  N 
BRANCH 58 60
ATOM     60  CB  LEU C 303      14.170  11.151  -3.876  0.50 30.80 LIG 0.06  C 
BRANCH 60 61
ATOM     61  CG  LEU C 303      15.556  10.563  -4.166  0.50 30.92 LIG-0.02  C 
ATOM     62  CD2 LEU C 303      16.642  11.650  -4.069  0.50 31.43 LIG 0.01  C 
ATOM     63  CD1 LEU C 303      15.588   9.856  -5.509  0.50 30.50 LIG 0.01  C 
ENDBRANCH 60 61
ENDBRANCH 58 60
ENDBRANCH 55 58
ENDBRANCH 47 54
ENDBRANCH 45 47
ENDBRANCH 35 43
ENDBRANCH 1 35
TORSDOF 21
ENDMDL
MODEL 183
USER: ADFR SOLUTION from run 38
USER: SCORE 19.184138 LL:  -7.510 LR: -12.639 RR:   0.000 FEB:  -6.375
USER: RMSD 10.604891
USER: SEED 37
USER: STATUS no improvement in best in 9 clusters for 5 generations
USER: GENES 23
USER: genes 0 Translation |==|  0.35362 0.49449 0.31190
USER: genes 1 Rotation |==|  0.41594 0.78103 0.29500 0.84919
USER: genes 2 Torsion [N]-CA--C-[N] |==|  0.93676
USER: genes 3 Torsion [C]-N--CA-[C] |==|  0.59593
USER: genes 4 Torsion [N]-CA--C-[N] |==|  0.49758
USER: genes 5 Torsion [C]-N--CA-[CB] |==|  0.53889
USER: genes 6 Torsion [N]-CA--C-[N] |==|  0.40609
USER: genes 7 Torsion [N]-CA--C-[OXT] |==|  0.81437
USER: genes 8 Torsion [N]-CA--CB-[OG] |==|  0.82226
USER: genes 9 Torsion [CA]-CB--OG-[HG] |==|  0.18128
USER: genes 10 Torsion [N]-CA--CB-[CG2] |==|  0.89585
USER: genes 11 Torsion [CA]-CB--CG1-[CD1] |==|  0.49315
USER: genes 12 Torsion [N]-C--CA-[N] |==|  0.92212
USER: genes 13 Torsion [C]-CA--CB-[CG] |==|  0.07056
USER: genes 14 Torsion [CA]-CB--CG-[CD1] |==|  0.22626
USER: genes 15 Torsion [C]-CA--N-[C] |==|  0.67503
USER: genes 16 Torsion [N]-C--CA-[N] |==|  0.98938
USER: genes 17 Torsion [C]-CA--CB-[CG] |==|  0.85643
USER: genes 18 Torsion [CA]-CB--CG-[OD1] |==|  0.30911
USER: genes 19 Torsion [C]-CA--N-[C] |==|  0.75740
USER: genes 20 Torsion [N]-C--CA-[N] |==|  0.47682
USER: genes 21 Torsion [C]-CA--CB-[CG] |==|  0.18661
USER: genes 22 Torsion [CA]-CB--CG-[CD2] |==|  0.64291
ROOT
ATOM      1  C   PHE C 305       9.659   6.699  -4.083  0.50 34.66 LIG 0.24  C 
ATOM      2 O    PHE C 305       8.889   5.743  -4.084  0.50 33.80 LIG-0.27  OA
ATOM      3  N   PRO C 306      10.162   7.215  -2.944  0.50 35.29 LIG-0.34  N 
ATOM      4  CA  PRO C 306       9.454   7.006  -1.691  0.50 35.79 LIG 0.18  C 
ATOM      5  CB  PRO C 306      10.590   6.965  -0.643  0.50 35.80 LIG 0.04  C 
ATOM      6  CG  PRO C 306      11.870   7.333  -1.403  0.50 35.25 LIG 0.02  C 
ATOM      7  CD  PRO C 306      11.430   7.923  -2.714  0.50 35.51 LIG 0.13  C 
ENDROOT
BRANCH 4 8
ATOM      8  C   PRO C 306       8.543   8.199  -1.392  0.50 36.50 LIG 0.24  C 
ATOM      9  N   ILE C 307       8.876   9.356  -1.989  0.50 37.01 LIG-0.35  N 
ATOM     10 H    ILE C 307       9.581   9.478  -2.465  0.50 37.01 LIG 0.16  HD
ATOM     11 O    PRO C 306       7.550   8.062  -0.643  0.50 36.74 LIG-0.27  OA
BRANCH 9 12
ATOM     12  CA  ILE C 307       8.007  10.525  -1.850  0.50 37.44 LIG 0.18  C 
BRANCH 12 13
ATOM     13  C   ILE C 307       7.984  11.395  -3.109  0.50 38.23 LIG 0.24  C 
ATOM     14  N   SER C 308       7.193  12.462  -3.037  0.50 38.91 LIG-0.34  N 
ATOM     15 H    SER C 308       6.639  12.590  -2.392  0.50 38.91 LIG 0.16  HD
ATOM     16 O    ILE C 307       8.668  11.109  -4.102  0.50 38.79 LIG-0.27  OA
BRANCH 14 17
ATOM     17  CA  SER C 308       7.177  13.526  -4.037  0.50 39.43 LIG 0.20  C 
BRANCH 17 18
ATOM     18  C   SER C 308       8.644  13.863  -4.315  0.50 39.77 LIG 0.24  C 
ATOM     19  N   PRO C 309       8.967  14.234  -5.567  0.50 40.03 LIG-0.34  N 
ATOM     20  CD  PRO C 309       8.069  14.710  -6.631  0.50 39.83 LIG 0.13  C 
ATOM     21  CA  PRO C 309      10.369  14.236  -5.992  0.50 40.09 LIG 0.19  C 
ATOM     22  CG  PRO C 309       8.911  14.585  -7.861  0.50 40.19 LIG 0.02  C 
ATOM     23  CB  PRO C 309      10.310  14.853  -7.395  0.50 40.09 LIG 0.04  C 
ATOM     24 O    SER C 308       9.478  13.806  -3.407  0.50 39.81 LIG-0.27  OA
BRANCH 21 25
ATOM     25  C   PRO C 309      11.282  15.042  -5.068  0.50 40.04 LIG 0.20  C 
ATOM     26 OXT  PRO C 309      11.180  16.269  -4.972  0.50 40.10 LIG-0.65  OA
ATOM     27 O    PRO C 309      12.157  14.484  -4.402  0.50 40.34 LIG-0.65  OA
ENDBRANCH 21 25
ENDBRANCH 17 18
BRANCH 17 28
ATOM     28  CB  SER C 308       6.434  14.758  -3.513  0.50 39.49 LIG 0.20  C 
BRANCH 28 29
ATOM     29 OG   SER C 308       5.064  14.474  -3.272  0.50 39.70 LIG-0.40  OA
ATOM     30 HG   SER C 308       4.998  13.914  -2.650  0.50 39.70 LIG 0.21  HD
ENDBRANCH 28 29
ENDBRANCH 17 28
ENDBRANCH 14 17
ENDBRANCH 12 13
BRANCH 12 31
ATOM     31  CB  ILE C 307       8.419  11.427  -0.660  0.50 37.20 LIG 0.01  C 
ATOM     32  CG2 ILE C 307       8.892  10.579   0.531  0.50 36.86 LIG 0.01  C 
BRANCH 31 33
ATOM     33  CG1 ILE C 307       9.472  12.446  -1.129  0.50 35.88 LIG 0.00  C 
ATOM     34  CD1 ILE C 307       9.927  13.435  -0.084  0.50 32.01 LIG 0.01  C 
ENDBRANCH 31 33
ENDBRANCH 12 31
ENDBRANCH 9 12
ENDBRANCH 4 8
BRANCH 1 35
ATOM     35  CA  PHE C 305      10.108   7.316  -5.414  0.50 34.47 LIG 0.18  C 
BRANCH 35 36
ATOM     36  CB  PHE C 305      11.313   6.504  -5.912  0.50 34.49 LIG 0.07  C 
BRANCH 36 37
ATOM     37  CG  PHE C 305      11.376   5.071  -5.409  0.50 35.55 LIG-0.06  A 
ATOM     38  CD1 PHE C 305      10.634   4.050  -6.002  0.50 36.28 LIG 0.01  A 
ATOM     39  CE1 PHE C 305      10.712   2.739  -5.523  0.50 36.66 LIG 0.00  A 
ATOM     40  CZ  PHE C 305      11.528   2.439  -4.428  0.50 36.87 LIG 0.00  A 
ATOM     41  CE2 PHE C 305      12.266   3.443  -3.826  0.50 36.76 LIG 0.00  A 
ATOM     42  CD2 PHE C 305      12.181   4.757  -4.312  0.50 36.02 LIG 0.01  A 
ENDBRANCH 36 37
ENDBRANCH 35 36
BRANCH 35 43
ATOM     43  N   PHE C 305      10.491   8.731  -5.339  0.50 33.54 LIG-0.35  N 
ATOM     44 H    PHE C 305      11.171   8.894  -4.838  0.50 33.54 LIG 0.16  HD
ATOM     45  C   ASN C 304       9.812   9.660  -6.012  0.50 33.07 LIG 0.24  C 
ATOM     46 O    ASN C 304       8.662   9.475  -6.427  0.50 33.39 LIG-0.27  OA
BRANCH 45 47
ATOM     47  CA  ASN C 304      10.538  10.988  -6.262  0.50 32.40 LIG 0.18  C 
BRANCH 47 48
ATOM     48  CB  ASN C 304      10.733  11.298  -7.755  0.50 32.38 LIG 0.14  C 
BRANCH 48 49
ATOM     49  CG  ASN C 304      11.386  10.130  -8.536  0.50 31.77 LIG 0.22  C 
ATOM     50 OD1  ASN C 304      10.753   9.490  -9.368  0.50 27.48 LIG-0.27  OA
ATOM     51  ND2 ASN C 304      12.642   9.836  -8.224  0.50 32.56 LIG-0.37  N 
ATOM     52 21HD ASN C 304      13.038   9.177  -8.609  0.50 32.56 LIG 0.16  HD
ATOM     53 22HD ASN C 304      13.060  10.304  -7.636  0.50 32.56 LIG 0.16  HD
ENDBRANCH 48 49
ENDBRANCH 47 48
BRANCH 47 54
ATOM     54  N   ASN C 304      11.829  10.986  -5.616  0.50 31.56 LIG-0.34  N 
ATOM     55  C   LEU C 303      11.952  11.371  -4.355  0.50 30.83 LIG 0.26  C 
ATOM     56 O    LEU C 303      10.987  11.537  -3.622  0.50 29.02 LIG-0.27  OA
ATOM     57 H    ASN C 304      12.481  10.721  -6.110  0.50 31.56 LIG 0.16  HD
BRANCH 55 58
ATOM     58  CA  LEU C 303      13.387  11.592  -3.861  0.50 30.56 LIG 0.40  C 
ATOM     59  N   LEU C 303      13.468  12.208  -2.508  0.50 30.88 LIG 0.61  N 
BRANCH 58 60
ATOM     60  CB  LEU C 303      14.189  10.285  -3.895  0.50 30.80 LIG 0.06  C 
BRANCH 60 61
ATOM     61  CG  LEU C 303      14.505   9.675  -5.266  0.50 30.92 LIG-0.02  C 
ATOM     62  CD2 LEU C 303      14.093   8.192  -5.313  0.50 31.43 LIG 0.01  C 
ATOM     63  CD1 LEU C 303      15.967   9.863  -5.632  0.50 30.50 LIG 0.01  C 
ENDBRANCH 60 61
ENDBRANCH 58 60
ENDBRANCH 55 58
ENDBRANCH 47 54
ENDBRANCH 45 47
ENDBRANCH 35 43
ENDBRANCH 1 35
TORSDOF 21
ENDMDL
MODEL 184
USER: ADFR SOLUTION from run 180
USER: SCORE 17.549036 LL:  -6.592 LR: -12.637 RR:   0.000 FEB:  -6.373
USER: RMSD 12.601143
USER: SEED 179
USER: STATUS no improvement in best in 17 clusters for 5 generations
USER: GENES 23
USER: genes 0 Translation |==|  0.38599 0.32733 0.33587
USER: genes 1 Rotation |==|  0.82210 0.13544 0.49932 0.61552
USER: genes 2 Torsion [N]-CA--C-[N] |==|  0.93796
USER: genes 3 Torsion [C]-N--CA-[C] |==|  0.60147
USER: genes 4 Torsion [N]-CA--C-[N] |==|  0.45953
USER: genes 5 Torsion [C]-N--CA-[CB] |==|  0.47222
USER: genes 6 Torsion [N]-CA--C-[N] |==|  0.82725
USER: genes 7 Torsion [N]-CA--C-[OXT] |==|  0.31848
USER: genes 8 Torsion [N]-CA--CB-[OG] |==|  0.98540
USER: genes 9 Torsion [CA]-CB--OG-[HG] |==|  0.44984
USER: genes 10 Torsion [N]-CA--CB-[CG2] |==|  0.76690
USER: genes 11 Torsion [CA]-CB--CG1-[CD1] |==|  0.46691
USER: genes 12 Torsion [N]-C--CA-[N] |==|  0.30592
USER: genes 13 Torsion [C]-CA--CB-[CG] |==|  0.33064
USER: genes 14 Torsion [CA]-CB--CG-[CD1] |==|  0.11882
USER: genes 15 Torsion [C]-CA--N-[C] |==|  0.72102
USER: genes 16 Torsion [N]-C--CA-[N] |==|  0.37025
USER: genes 17 Torsion [C]-CA--CB-[CG] |==|  0.83860
USER: genes 18 Torsion [CA]-CB--CG-[OD1] |==|  0.77158
USER: genes 19 Torsion [C]-CA--N-[C] |==|  0.81194
USER: genes 20 Torsion [N]-C--CA-[N] |==|  0.34378
USER: genes 21 Torsion [C]-CA--CB-[CG] |==|  0.16113
USER: genes 22 Torsion [CA]-CB--CG-[CD2] |==|  0.10411
ROOT
ATOM      1  C   PHE C 305      10.485   2.687  -3.598  0.50 34.66 LIG 0.24  C 
ATOM      2 O    PHE C 305      11.429   2.023  -3.182  0.50 33.80 LIG-0.27  OA
ATOM      3  N   PRO C 306      10.586   3.478  -4.684  0.50 35.29 LIG-0.34  N 
ATOM      4  CA  PRO C 306      11.894   3.961  -5.098  0.50 35.79 LIG 0.18  C 
ATOM      5  CB  PRO C 306      11.762   4.070  -6.634  0.50 35.80 LIG 0.04  C 
ATOM      6  CG  PRO C 306      10.288   3.790  -6.947  0.50 35.25 LIG 0.02  C 
ATOM      7  CD  PRO C 306       9.550   3.896  -5.641  0.50 35.51 LIG 0.13  C 
ENDROOT
BRANCH 4 8
ATOM      8  C   PRO C 306      12.153   5.353  -4.518  0.50 36.50 LIG 0.24  C 
ATOM      9  N   ILE C 307      11.062   6.057  -4.174  0.50 37.01 LIG-0.35  N 
ATOM     10 H    ILE C 307      10.252   5.806  -4.310  0.50 37.01 LIG 0.16  HD
ATOM     11 O    PRO C 306      13.325   5.769  -4.377  0.50 36.74 LIG-0.27  OA
BRANCH 9 12
ATOM     12  CA  ILE C 307      11.211   7.355  -3.514  0.50 37.44 LIG 0.18  C 
BRANCH 12 13
ATOM     13  C   ILE C 307      10.132   7.605  -2.457  0.50 38.23 LIG 0.24  C 
ATOM     14  N   SER C 308      10.387   8.611  -1.625  0.50 38.91 LIG-0.34  N 
ATOM     15 H    SER C 308      11.148   9.010  -1.593  0.50 38.91 LIG 0.16  HD
ATOM     16 O    ILE C 307       9.105   6.913  -2.409  0.50 38.79 LIG-0.27  OA
BRANCH 14 17
ATOM     17  CA  SER C 308       9.410   9.147  -0.681  0.50 39.43 LIG 0.20  C 
BRANCH 17 18
ATOM     18  C   SER C 308       8.359   9.869  -1.528  0.50 39.77 LIG 0.24  C 
ATOM     19  N   PRO C 309       8.770  10.917  -2.265  0.50 40.03 LIG-0.34  N 
ATOM     20  CD  PRO C 309      10.145  11.263  -2.659  0.50 39.83 LIG 0.13  C 
ATOM     21  CA  PRO C 309       7.789  11.854  -2.817  0.50 40.09 LIG 0.19  C 
ATOM     22  CG  PRO C 309      10.018  12.687  -3.102  0.50 40.19 LIG 0.02  C 
ATOM     23  CB  PRO C 309       8.644  12.781  -3.691  0.50 40.09 LIG 0.04  C 
ATOM     24 O    SER C 308       7.189   9.477  -1.534  0.50 39.81 LIG-0.27  OA
BRANCH 21 25
ATOM     25  C   PRO C 309       6.694  11.172  -3.637  0.50 40.04 LIG 0.20  C 
ATOM     26 OXT  PRO C 309       5.515  11.182  -3.273  0.50 40.10 LIG-0.65  OA
ATOM     27 O    PRO C 309       6.967  10.580  -4.684  0.50 40.34 LIG-0.65  OA
ENDBRANCH 21 25
ENDBRANCH 17 18
BRANCH 17 28
ATOM     28  CB  SER C 308      10.072  10.122   0.296  0.50 39.49 LIG 0.20  C 
BRANCH 28 29
ATOM     29 OG   SER C 308      11.480  10.165   0.113  0.50 39.70 LIG-0.40  OA
ATOM     30 HG   SER C 308      11.788  10.861   0.468  0.50 39.70 LIG 0.21  HD
ENDBRANCH 28 29
ENDBRANCH 17 28
ENDBRANCH 14 17
ENDBRANCH 12 13
BRANCH 12 31
ATOM     31  CB  ILE C 307      11.172   8.534  -4.517  0.50 37.20 LIG 0.01  C 
ATOM     32  CG2 ILE C 307      12.557   8.769  -5.139  0.50 36.86 LIG 0.01  C 
BRANCH 31 33
ATOM     33  CG1 ILE C 307      10.076   8.278  -5.567  0.50 35.88 LIG 0.00  C 
ATOM     34  CD1 ILE C 307       9.728   9.459  -6.440  0.50 32.01 LIG 0.01  C 
ENDBRANCH 31 33
ENDBRANCH 12 31
ENDBRANCH 9 12
ENDBRANCH 4 8
BRANCH 1 35
ATOM     35  CA  PHE C 305       9.124   2.598  -2.895  0.50 34.47 LIG 0.18  C 
BRANCH 35 36
ATOM     36  CB  PHE C 305       9.360   2.871  -1.402  0.50 34.49 LIG 0.07  C 
BRANCH 36 37
ATOM     37  CG  PHE C 305       8.633   4.084  -0.846  0.50 35.55 LIG-0.06  A 
ATOM     38  CD1 PHE C 305       7.307   4.362  -1.176  0.50 36.28 LIG 0.01  A 
ATOM     39  CE1 PHE C 305       6.658   5.482  -0.649  0.50 36.66 LIG 0.00  A 
ATOM     40  CZ  PHE C 305       7.341   6.348   0.210  0.50 36.87 LIG 0.00  A 
ATOM     41  CE2 PHE C 305       8.659   6.088   0.543  0.50 36.76 LIG 0.00  A 
ATOM     42  CD2 PHE C 305       9.304   4.962   0.008  0.50 36.02 LIG 0.01  A 
ENDBRANCH 36 37
ENDBRANCH 35 36
BRANCH 35 43
ATOM     43  N   PHE C 305       8.439   1.308  -3.037  0.50 33.54 LIG-0.35  N 
ATOM     44 H    PHE C 305       8.724   0.689  -2.512  0.50 33.54 LIG 0.16  HD
ATOM     45  C   ASN C 304       7.456   1.149  -3.924  0.50 33.07 LIG 0.24  C 
ATOM     46 O    ASN C 304       7.300   1.907  -4.889  0.50 33.39 LIG-0.27  OA
BRANCH 45 47
ATOM     47  CA  ASN C 304       6.504  -0.030  -3.682  0.50 32.40 LIG 0.18  C 
BRANCH 47 48
ATOM     48  CB  ASN C 304       6.755  -1.213  -4.630  0.50 32.38 LIG 0.14  C 
BRANCH 48 49
ATOM     49  CG  ASN C 304       6.632  -0.828  -6.126  0.50 31.77 LIG 0.22  C 
ATOM     50 OD1  ASN C 304       5.539  -0.771  -6.680  0.50 27.48 LIG-0.27  OA
ATOM     51  ND2 ASN C 304       7.767  -0.612  -6.778  0.50 32.56 LIG-0.37  N 
ATOM     52 21HD ASN C 304       7.752  -0.424  -7.618  0.50 32.56 LIG 0.16  HD
ATOM     53 22HD ASN C 304       8.518  -0.659  -6.362  0.50 32.56 LIG 0.16  HD
ENDBRANCH 48 49
ENDBRANCH 47 48
BRANCH 47 54
ATOM     54  N   ASN C 304       5.132   0.394  -3.823  0.50 31.56 LIG-0.34  N 
ATOM     55  C   LEU C 303       4.592   1.231  -2.949  0.50 30.83 LIG 0.26  C 
ATOM     56 O    LEU C 303       5.259   1.842  -2.127  0.50 29.02 LIG-0.27  OA
ATOM     57 H    ASN C 304       4.718   0.064  -4.500  0.50 31.56 LIG 0.16  HD
BRANCH 55 58
ATOM     58  CA  LEU C 303       3.069   1.394  -3.033  0.50 30.56 LIG 0.40  C 
ATOM     59  N   LEU C 303       2.362   1.098  -1.757  0.50 30.88 LIG 0.61  N 
BRANCH 58 60
ATOM     60  CB  LEU C 303       2.692   2.794  -3.535  0.50 30.80 LIG 0.06  C 
BRANCH 60 61
ATOM     61  CG  LEU C 303       3.231   3.234  -4.901  0.50 30.92 LIG-0.02  C 
ATOM     62  CD2 LEU C 303       3.240   2.055  -5.891  0.50 31.43 LIG 0.01  C 
ATOM     63  CD1 LEU C 303       4.602   3.873  -4.776  0.50 30.50 LIG 0.01  C 
ENDBRANCH 60 61
ENDBRANCH 58 60
ENDBRANCH 55 58
ENDBRANCH 47 54
ENDBRANCH 45 47
ENDBRANCH 35 43
ENDBRANCH 1 35
TORSDOF 21
ENDMDL
MODEL 185
USER: ADFR SOLUTION from run 67
USER: SCORE 17.195606 LL:  -5.760 LR: -12.639 RR:   0.000 FEB:  -6.375
USER: RMSD 6.886035
USER: SEED 66
USER: STATUS no improvement in best in 17 clusters for 5 generations
USER: GENES 23
USER: genes 0 Translation |==|  0.38706 0.47467 0.27723
USER: genes 1 Rotation |==|  0.67360 0.93660 0.59939 0.63917
USER: genes 2 Torsion [N]-CA--C-[N] |==|  0.02666
USER: genes 3 Torsion [C]-N--CA-[C] |==|  0.81734
USER: genes 4 Torsion [N]-CA--C-[N] |==|  0.92224
USER: genes 5 Torsion [C]-N--CA-[CB] |==|  0.78888
USER: genes 6 Torsion [N]-CA--C-[N] |==|  0.15117
USER: genes 7 Torsion [N]-CA--C-[OXT] |==|  0.81984
USER: genes 8 Torsion [N]-CA--CB-[OG] |==|  0.99480
USER: genes 9 Torsion [CA]-CB--OG-[HG] |==|  0.28730
USER: genes 10 Torsion [N]-CA--CB-[CG2] |==|  0.14215
USER: genes 11 Torsion [CA]-CB--CG1-[CD1] |==|  0.50770
USER: genes 12 Torsion [N]-C--CA-[N] |==|  0.06160
USER: genes 13 Torsion [C]-CA--CB-[CG] |==|  0.76801
USER: genes 14 Torsion [CA]-CB--CG-[CD1] |==|  0.07503
USER: genes 15 Torsion [C]-CA--N-[C] |==|  0.69171
USER: genes 16 Torsion [N]-C--CA-[N] |==|  0.57170
USER: genes 17 Torsion [C]-CA--CB-[CG] |==|  0.48101
USER: genes 18 Torsion [CA]-CB--CG-[OD1] |==|  0.99951
USER: genes 19 Torsion [C]-CA--N-[C] |==|  0.68619
USER: genes 20 Torsion [N]-C--CA-[N] |==|  0.41798
USER: genes 21 Torsion [C]-CA--CB-[CG] |==|  0.06052
USER: genes 22 Torsion [CA]-CB--CG-[CD2] |==|  0.60466
ROOT
ATOM      1  C   PHE C 305      10.512   6.223  -4.785  0.50 34.66 LIG 0.24  C 
ATOM      2 O    PHE C 305       9.344   6.057  -5.124  0.50 33.80 LIG-0.27  OA
ATOM      3  N   PRO C 306      11.481   5.338  -5.090  0.50 35.29 LIG-0.34  N 
ATOM      4  CA  PRO C 306      11.125   3.957  -5.376  0.50 35.79 LIG 0.18  C 
ATOM      5  CB  PRO C 306      12.200   3.517  -6.396  0.50 35.80 LIG 0.04  C 
ATOM      6  CG  PRO C 306      13.201   4.675  -6.472  0.50 35.25 LIG 0.02  C 
ATOM      7  CD  PRO C 306      12.923   5.554  -5.284  0.50 35.51 LIG 0.13  C 
ENDROOT
BRANCH 4 8
ATOM      8  C   PRO C 306      11.256   3.103  -4.113  0.50 36.50 LIG 0.24  C 
ATOM      9  N   ILE C 307      11.463   3.776  -2.969  0.50 37.01 LIG-0.35  N 
ATOM     10 H    ILE C 307      11.583   4.626  -2.913  0.50 37.01 LIG 0.16  HD
ATOM     11 O    PRO C 306      11.157   1.858  -4.181  0.50 36.74 LIG-0.27  OA
BRANCH 9 12
ATOM     12  CA  ILE C 307      11.496   3.056  -1.695  0.50 37.44 LIG 0.18  C 
BRANCH 12 13
ATOM     13  C   ILE C 307      10.143   2.439  -1.332  0.50 38.23 LIG 0.24  C 
ATOM     14  N   SER C 308       9.087   3.078  -1.827  0.50 38.91 LIG-0.34  N 
ATOM     15 H    SER C 308       9.143   3.846  -2.210  0.50 38.91 LIG 0.16  HD
ATOM     16 O    ILE C 307      10.067   1.415  -0.638  0.50 38.79 LIG-0.27  OA
BRANCH 14 17
ATOM     17  CA  SER C 308       7.726   2.551  -1.776  0.50 39.43 LIG 0.20  C 
BRANCH 17 18
ATOM     18  C   SER C 308       7.544   1.993  -0.363  0.50 39.77 LIG 0.24  C 
ATOM     19  N   PRO C 309       7.797   2.821   0.667  0.50 40.03 LIG-0.34  N 
ATOM     20  CD  PRO C 309       7.882   4.290   0.649  0.50 39.83 LIG 0.13  C 
ATOM     21  CA  PRO C 309       7.982   2.278   2.015  0.50 40.09 LIG 0.19  C 
ATOM     22  CG  PRO C 309       8.559   4.603   1.946  0.50 40.19 LIG 0.02  C 
ATOM     23  CB  PRO C 309       8.091   3.535   2.888  0.50 40.09 LIG 0.04  C 
ATOM     24 O    SER C 308       7.163   0.831  -0.197  0.50 39.81 LIG-0.27  OA
BRANCH 21 25
ATOM     25  C   PRO C 309       6.829   1.385   2.472  0.50 40.04 LIG 0.20  C 
ATOM     26 OXT  PRO C 309       5.692   1.835   2.640  0.50 40.10 LIG-0.65  OA
ATOM     27 O    PRO C 309       7.011   0.186   2.697  0.50 40.34 LIG-0.65  OA
ENDBRANCH 21 25
ENDBRANCH 17 18
BRANCH 17 28
ATOM     28  CB  SER C 308       7.526   1.448  -2.818  0.50 39.49 LIG 0.20  C 
BRANCH 28 29
ATOM     29 OG   SER C 308       8.699   1.248  -3.593  0.50 39.70 LIG-0.40  OA
ATOM     30 HG   SER C 308       9.092   0.552  -3.334  0.50 39.70 LIG 0.21  HD
ENDBRANCH 28 29
ENDBRANCH 17 28
ENDBRANCH 14 17
ENDBRANCH 12 13
BRANCH 12 31
ATOM     31  CB  ILE C 307      11.934   3.961  -0.517  0.50 37.20 LIG 0.01  C 
ATOM     32  CG2 ILE C 307      11.104   5.253  -0.482  0.50 36.86 LIG 0.01  C 
BRANCH 31 33
ATOM     33  CG1 ILE C 307      11.861   3.164   0.797  0.50 35.88 LIG 0.00  C 
ATOM     34  CD1 ILE C 307      12.199   3.941   2.046  0.50 32.01 LIG 0.01  C 
ENDBRANCH 31 33
ENDBRANCH 12 31
ENDBRANCH 9 12
ENDBRANCH 4 8
BRANCH 1 35
ATOM     35  CA  PHE C 305      10.910   7.493  -4.023  0.50 34.47 LIG 0.18  C 
BRANCH 35 36
ATOM     36  CB  PHE C 305      10.048   8.643  -4.566  0.50 34.49 LIG 0.07  C 
BRANCH 36 37
ATOM     37  CG  PHE C 305      10.569   9.294  -5.837  0.50 35.55 LIG-0.06  A 
ATOM     38  CD1 PHE C 305      11.364   8.598  -6.747  0.50 36.28 LIG 0.01  A 
ATOM     39  CE1 PHE C 305      11.829   9.218  -7.910  0.50 36.66 LIG 0.00  A 
ATOM     40  CZ  PHE C 305      11.511  10.555  -8.168  0.50 36.87 LIG 0.00  A 
ATOM     41  CE2 PHE C 305      10.728  11.259  -7.271  0.50 36.76 LIG 0.00  A 
ATOM     42  CD2 PHE C 305      10.267  10.631  -6.104  0.50 36.02 LIG 0.01  A 
ENDBRANCH 36 37
ENDBRANCH 35 36
BRANCH 35 43
ATOM     43  N   PHE C 305      12.324   7.867  -4.142  0.50 33.54 LIG-0.35  N 
ATOM     44 H    PHE C 305      12.560   8.138  -4.923  0.50 33.54 LIG 0.16  HD
ATOM     45  C   ASN C 304      13.146   7.778  -3.095  0.50 33.07 LIG 0.24  C 
ATOM     46 O    ASN C 304      12.896   7.073  -2.110  0.50 33.39 LIG-0.27  OA
BRANCH 45 47
ATOM     47  CA  ASN C 304      14.432   8.612  -3.165  0.50 32.40 LIG 0.18  C 
BRANCH 47 48
ATOM     48  CB  ASN C 304      14.966   8.779  -4.596  0.50 32.38 LIG 0.14  C 
BRANCH 48 49
ATOM     49  CG  ASN C 304      16.165   9.757  -4.686  0.50 31.77 LIG 0.22  C 
ATOM     50 OD1  ASN C 304      16.603  10.318  -3.688  0.50 27.48 LIG-0.27  OA
ATOM     51  ND2 ASN C 304      16.654   9.985  -5.899  0.50 32.56 LIG-0.37  N 
ATOM     52 21HD ASN C 304      17.301  10.543  -6.003  0.50 32.56 LIG 0.16  HD
ATOM     53 22HD ASN C 304      16.325   9.575  -6.579  0.50 32.56 LIG 0.16  HD
ENDBRANCH 48 49
ENDBRANCH 47 48
BRANCH 47 54
ATOM     54  N   ASN C 304      15.463   8.015  -2.351  0.50 31.56 LIG-0.34  N 
ATOM     55  C   LEU C 303      15.903   8.629  -1.263  0.50 30.83 LIG 0.26  C 
ATOM     56 O    LEU C 303      15.331   9.596  -0.779  0.50 29.02 LIG-0.27  OA
ATOM     57 H    ASN C 304      15.752   7.255  -2.631  0.50 31.56 LIG 0.16  HD
BRANCH 55 58
ATOM     58  CA  LEU C 303      17.176   8.048  -0.636  0.50 30.56 LIG 0.40  C 
ATOM     59  N   LEU C 303      18.009   9.055   0.077  0.50 30.88 LIG 0.61  N 
BRANCH 58 60
ATOM     60  CB  LEU C 303      16.846   6.878   0.299  0.50 30.80 LIG 0.06  C 
BRANCH 60 61
ATOM     61  CG  LEU C 303      15.510   6.153   0.095  0.50 30.92 LIG-0.02  C 
ATOM     62  CD2 LEU C 303      14.892   5.753   1.447  0.50 31.43 LIG 0.01  C 
ATOM     63  CD1 LEU C 303      15.666   4.956  -0.827  0.50 30.50 LIG 0.01  C 
ENDBRANCH 60 61
ENDBRANCH 58 60
ENDBRANCH 55 58
ENDBRANCH 47 54
ENDBRANCH 45 47
ENDBRANCH 35 43
ENDBRANCH 1 35
TORSDOF 21
ENDMDL
