MODEL 1
USER: ADFR SOLUTION from run 156
USER: SCORE 17.407920 LL:  -2.388 LR: -15.265 RR:   0.000 FEB:  -9.597
USER: RMSD 3.488787
USER: SEED 155
USER: STATUS no improvement in best in 2 clusters for 5 generations
USER: GENES 21
USER: genes 0 Translation |==|  0.50595 0.45295 0.53847
USER: genes 1 Rotation |==|  0.49151 0.58966 0.44460 0.98869
USER: genes 2 Torsion [N]-CA--C-[N] |==|  0.00199
USER: genes 3 Torsion [C]-N--CA-[C] |==|  0.56304
USER: genes 4 Torsion [N]-CA--C-[N] |==|  0.43911
USER: genes 5 Torsion [C]-N--CA-[CB] |==|  0.35309
USER: genes 6 Torsion [N]-CA--C-[O] |==|  0.74119
USER: genes 7 Torsion [N]-CA--CB-[CG] |==|  0.90165
USER: genes 8 Torsion [CA]-CB--CG-[CD] |==|  0.58191
USER: genes 9 Torsion [CB]-CG--CD-[CE] |==|  0.57324
USER: genes 10 Torsion [CG]-CD--CE-[NZ] |==|  0.14429
USER: genes 11 Torsion [CD]-CE--NZ-[HZ1] |==|  0.26876
USER: genes 12 Torsion [N]-CA--CB-[CG2] |==|  0.24849
USER: genes 13 Torsion [CA]-CB--OG1-[HG1] |==|  0.40514
USER: genes 14 Torsion [C]-CA--CB-[CG] |==|  0.17018
USER: genes 15 Torsion [CA]-CB--CG-[CD] |==|  0.53297
USER: genes 16 Torsion [CB]-CG--CD-[NE] |==|  0.73587
USER: genes 17 Torsion [CG]-CD--NE-[CZ] |==|  0.31543
USER: genes 18 Torsion [C]-CA--N-[C] |==|  0.71176
USER: genes 19 Torsion [N]-C--CA-[N] |==|  0.91763
USER: genes 20 Torsion [C]-CA--N-[C] |==|  0.80727
ROOT
ATOM      1  CA  ARG D   2       5.026   6.676  34.212  1.00  9.56 LIG 0.18  C 
ENDROOT
BRANCH 1 2
ATOM      2  C   ARG D   2       3.617   6.079  34.472  1.00 11.06 LIG 0.24  C 
ATOM      3  N   THR D   3       2.588   6.905  34.315  1.00 11.45 LIG-0.34  N 
ATOM      4 H    THR D   3       2.645   7.716  34.036  1.00 11.45 LIG 0.16  HD
ATOM      5 O    ARG D   2       3.463   4.882  34.767  1.00  9.90 LIG-0.27  OA
BRANCH 3 6
ATOM      6  CA  THR D   3       1.256   6.453  34.625  1.00 13.43 LIG 0.20  C 
BRANCH 6 7
ATOM      7  C   THR D   3       0.191   7.264  33.901  1.00 15.00 LIG 0.24  C 
ATOM      8  N   LYS D   4      -1.013   6.677  33.744  1.00 14.79 LIG-0.35  N 
ATOM      9 H    LYS D   4      -1.220   5.909  34.072  1.00 14.79 LIG 0.16  HD
ATOM     10 O    THR D   3       0.486   8.401  33.484  1.00 15.79 LIG-0.27  OA
BRANCH 8 11
ATOM     11  CA  LYS D   4      -2.108   7.333  32.967  1.00 18.13 LIG 0.16  C 
BRANCH 11 12
ATOM     12  C   LYS D   4      -3.288   7.792  33.812  1.00 20.20 LIG 0.22  C 
ATOM     13 O    LYS D   4      -4.246   6.979  33.923  1.00 21.26 LIG-0.29  OA
ENDBRANCH 11 12
BRANCH 11 14
ATOM     14  CB  LYS D   4      -2.637   6.357  31.885  1.00 18.02 LIG 0.03  C 
BRANCH 14 15
ATOM     15  CG  LYS D   4      -1.555   5.485  31.290  1.00 21.48 LIG 0.00  C 
BRANCH 15 16
ATOM     16  CD  LYS D   4      -1.854   5.097  29.863  1.00 25.56 LIG 0.03  C 
BRANCH 16 17
ATOM     17  CE  LYS D   4      -1.156   3.760  29.521  1.00 25.12 LIG 0.23  C 
BRANCH 17 18
ATOM     18  NZ  LYS D   4      -1.465   2.669  30.532  1.00 20.07 LIG-0.08  N 
ATOM     19 HZ1  LYS D   4      -2.131   2.163  30.229  1.00 20.07 LIG 0.27  HD
ATOM     20 HZ2  LYS D   4      -0.742   2.166  30.656  1.00 20.07 LIG 0.27  HD
ATOM     21 HZ3  LYS D   4      -1.704   3.040  31.306  1.00 20.07 LIG 0.27  HD
ENDBRANCH 17 18
ENDBRANCH 16 17
ENDBRANCH 15 16
ENDBRANCH 14 15
ENDBRANCH 11 14
ENDBRANCH 8 11
ENDBRANCH 6 7
BRANCH 6 22
ATOM     22  CB  THR D   3       0.964   6.426  36.170  1.00 14.57 LIG 0.15  C 
ATOM     23  CG2 THR D   3       0.394   7.792  36.651  1.00 14.25 LIG 0.04  C 
BRANCH 22 24
ATOM     24 OG1  THR D   3       0.035   5.374  36.474  1.00 15.86 LIG-0.39  OA
ATOM     25 HG1  THR D   3       0.217   5.048  37.227  1.00 15.86 LIG 0.21  HD
ENDBRANCH 22 24
ENDBRANCH 6 22
ENDBRANCH 3 6
ENDBRANCH 1 2
BRANCH 1 26
ATOM     26  CB  ARG D   2       5.985   6.484  35.401  1.00  9.49 LIG 0.04  C 
BRANCH 26 27
ATOM     27  CG  ARG D   2       6.219   4.957  35.710  1.00 10.73 LIG 0.02  C 
BRANCH 27 28
ATOM     28  CD  ARG D   2       6.930   4.851  37.070  1.00 10.86 LIG 0.14  C 
BRANCH 28 29
ATOM     29  NE  ARG D   2       8.358   4.753  36.915  1.00 10.69 LIG-0.23  N 
ATOM     30  CZ  ARG D   2       9.261   5.693  37.313  1.00  9.43 LIG 0.67  C 
ATOM     31  NH1 ARG D   2       8.886   6.858  37.862  1.00 10.34 LIG-0.23  N 
ATOM     32  NH2 ARG D   2      10.537   5.500  37.060  1.00 11.18 LIG-0.23  N 
ATOM     33 2HH1 ARG D   2       9.481   7.431  38.103  1.00 10.34 LIG 0.17  HD
ATOM     34 1HH1 ARG D   2       8.051   7.032  37.974  1.00 10.34 LIG 0.17  HD
ATOM     35 2HH2 ARG D   2      11.118   6.086  37.305  1.00 11.18 LIG 0.17  HD
ATOM     36 1HH2 ARG D   2      10.792   4.789  36.649  1.00 11.18 LIG 0.17  HD
ATOM     37 HE   ARG D   2       8.668   4.043  36.541  1.00 10.69 LIG 0.18  HD
ENDBRANCH 28 29
ENDBRANCH 27 28
ENDBRANCH 26 27
ENDBRANCH 1 26
BRANCH 1 38
ATOM     38  N   ARG D   2       4.928   8.099  33.846  1.00  9.04 LIG-0.35  N 
ATOM     39 H    ARG D   2       4.773   8.634  34.501  1.00  9.04 LIG 0.16  HD
ATOM     40  C   ALA D   1       5.078   8.481  32.566  1.00 11.17 LIG 0.24  C 
ATOM     41 O    ALA D   1       5.304   7.661  31.677  1.00 13.49 LIG-0.27  OA
BRANCH 40 42
ATOM     42  CA  ALA D   1       5.024   9.961  32.240  1.00 12.65 LIG 0.17  C 
ATOM     43  CB  ALA D   1       6.431  10.601  32.241  1.00 13.08 LIG 0.04  C 
BRANCH 42 44
ATOM     44  N   ALA D   1       4.170  10.721  33.162  1.00 12.52 LIG-0.35  N 
ATOM     45  C   ACE D   0       2.644  10.659  33.280  1.00 13.59 LIG 0.21  C 
ATOM     46 O    ACE D   0       2.103   9.850  32.460  1.00 14.78 LIG-0.27  OA
ATOM     47  CH3 ACE D   0       1.945  11.520  34.297  1.00 14.73 LIG 0.12  C 
ATOM     48 H    ALA D   1       4.633  11.242  33.667  1.00 12.52 LIG 0.16  HD
ENDBRANCH 42 44
ENDBRANCH 40 42
ENDBRANCH 1 38
TORSDOF 19
ENDMDL
MODEL 2
USER: ADFR SOLUTION from run 120
USER: SCORE 17.236124 LL:  -2.879 LR: -15.142 RR:   0.000 FEB:  -9.474
USER: RMSD 4.377964
USER: SEED 119
USER: STATUS no improvement in best in 2 clusters for 5 generations
USER: GENES 21
USER: genes 0 Translation |==|  0.51287 0.37135 0.57931
USER: genes 1 Rotation |==|  0.19268 0.56623 0.32090 0.84510
USER: genes 2 Torsion [N]-CA--C-[N] |==|  0.79603
USER: genes 3 Torsion [C]-N--CA-[C] |==|  0.83440
USER: genes 4 Torsion [N]-CA--C-[N] |==|  0.89817
USER: genes 5 Torsion [C]-N--CA-[CB] |==|  0.78690
USER: genes 6 Torsion [N]-CA--C-[O] |==|  0.20127
USER: genes 7 Torsion [N]-CA--CB-[CG] |==|  0.66416
USER: genes 8 Torsion [CA]-CB--CG-[CD] |==|  0.94324
USER: genes 9 Torsion [CB]-CG--CD-[CE] |==|  0.54487
USER: genes 10 Torsion [CG]-CD--CE-[NZ] |==|  0.05900
USER: genes 11 Torsion [CD]-CE--NZ-[HZ1] |==|  0.73064
USER: genes 12 Torsion [N]-CA--CB-[CG2] |==|  0.19684
USER: genes 13 Torsion [CA]-CB--OG1-[HG1] |==|  0.12863
USER: genes 14 Torsion [C]-CA--CB-[CG] |==|  0.16655
USER: genes 15 Torsion [CA]-CB--CG-[CD] |==|  0.22823
USER: genes 16 Torsion [CB]-CG--CD-[NE] |==|  0.19470
USER: genes 17 Torsion [CG]-CD--NE-[CZ] |==|  0.14862
USER: genes 18 Torsion [C]-CA--N-[C] |==|  0.62146
USER: genes 19 Torsion [N]-C--CA-[N] |==|  0.93458
USER: genes 20 Torsion [C]-CA--N-[C] |==|  0.86095
ROOT
ATOM      1  CA  ARG D   2       5.161   5.391  34.916  1.00  9.56 LIG 0.18  C 
ENDROOT
BRANCH 1 2
ATOM      2  C   ARG D   2       3.827   6.028  35.391  1.00 11.06 LIG 0.24  C 
ATOM      3  N   THR D   3       3.683   7.330  35.168  1.00 11.45 LIG-0.34  N 
ATOM      4 H    THR D   3       4.244   7.822  34.742  1.00 11.45 LIG 0.16  HD
ATOM      5 O    ARG D   2       2.929   5.344  35.910  1.00  9.90 LIG-0.27  OA
BRANCH 3 6
ATOM      6  CA  THR D   3       2.514   8.013  35.659  1.00 13.43 LIG 0.20  C 
BRANCH 6 7
ATOM      7  C   THR D   3       1.228   7.433  35.090  1.00 15.00 LIG 0.24  C 
ATOM      8  N   LYS D   4       1.270   7.016  33.807  1.00 14.79 LIG-0.35  N 
ATOM      9 H    LYS D   4       1.982   7.012  33.326  1.00 14.79 LIG 0.16  HD
ATOM     10 O    THR D   3       0.218   7.387  35.819  1.00 15.79 LIG-0.27  OA
BRANCH 8 11
ATOM     11  CA  LYS D   4       0.047   6.516  33.107  1.00 18.13 LIG 0.16  C 
BRANCH 11 12
ATOM     12  C   LYS D   4      -1.194   7.372  33.324  1.00 20.20 LIG 0.22  C 
ATOM     13 O    LYS D   4      -1.213   8.486  32.734  1.00 21.26 LIG-0.29  OA
ENDBRANCH 11 12
BRANCH 11 14
ATOM     14  CB  LYS D   4      -0.270   5.074  33.579  1.00 18.02 LIG 0.03  C 
BRANCH 14 15
ATOM     15  CG  LYS D   4      -0.279   4.068  32.451  1.00 21.48 LIG 0.00  C 
BRANCH 15 16
ATOM     16  CD  LYS D   4      -0.470   4.722  31.104  1.00 25.56 LIG 0.03  C 
BRANCH 16 17
ATOM     17  CE  LYS D   4      -0.874   3.662  30.053  1.00 25.12 LIG 0.23  C 
BRANCH 17 18
ATOM     18  NZ  LYS D   4      -1.465   2.413  30.687  1.00 20.07 LIG-0.08  N 
ATOM     19 HZ1  LYS D   4      -0.833   1.792  30.765  1.00 20.07 LIG 0.27  HD
ATOM     20 HZ2  LYS D   4      -1.786   2.613  31.492  1.00 20.07 LIG 0.27  HD
ATOM     21 HZ3  LYS D   4      -2.123   2.103  30.174  1.00 20.07 LIG 0.27  HD
ENDBRANCH 17 18
ENDBRANCH 16 17
ENDBRANCH 15 16
ENDBRANCH 14 15
ENDBRANCH 11 14
ENDBRANCH 8 11
ENDBRANCH 6 7
BRANCH 6 22
ATOM     22  CB  THR D   3       2.567   9.566  35.416  1.00 14.57 LIG 0.15  C 
ATOM     23  CG2 THR D   3       2.402   9.896  33.903  1.00 14.25 LIG 0.04  C 
BRANCH 22 24
ATOM     24 OG1  THR D   3       1.535  10.216  36.173  1.00 15.86 LIG-0.39  OA
ATOM     25 HG1  THR D   3       1.531   9.915  36.958  1.00 15.86 LIG 0.21  HD
ENDBRANCH 22 24
ENDBRANCH 6 22
ENDBRANCH 3 6
ENDBRANCH 1 2
BRANCH 1 26
ATOM     26  CB  ARG D   2       6.399   6.155  35.418  1.00  9.49 LIG 0.04  C 
BRANCH 26 27
ATOM     27  CG  ARG D   2       6.452   6.197  36.992  1.00 10.73 LIG 0.02  C 
BRANCH 27 28
ATOM     28  CD  ARG D   2       7.056   4.871  37.483  1.00 10.86 LIG 0.14  C 
BRANCH 28 29
ATOM     29  NE  ARG D   2       8.459   4.779  37.170  1.00 10.69 LIG-0.23  N 
ATOM     30  CZ  ARG D   2       9.403   5.706  37.496  1.00  9.43 LIG 0.67  C 
ATOM     31  NH1 ARG D   2       9.094   6.852  38.122  1.00 10.34 LIG-0.23  N 
ATOM     32  NH2 ARG D   2      10.643   5.523  37.099  1.00 11.18 LIG-0.23  N 
ATOM     33 2HH1 ARG D   2       9.713   7.417  38.315  1.00 10.34 LIG 0.17  HD
ATOM     34 1HH1 ARG D   2       8.277   7.022  38.331  1.00 10.34 LIG 0.17  HD
ATOM     35 2HH2 ARG D   2      11.249   6.100  37.298  1.00 11.18 LIG 0.17  HD
ATOM     36 1HH2 ARG D   2      10.849   4.826  36.639  1.00 11.18 LIG 0.17  HD
ATOM     37 HE   ARG D   2       8.723   4.082  36.741  1.00 10.69 LIG 0.18  HD
ENDBRANCH 28 29
ENDBRANCH 27 28
ENDBRANCH 26 27
ENDBRANCH 1 26
BRANCH 1 38
ATOM     38  N   ARG D   2       5.185   5.266  33.449  1.00  9.04 LIG-0.35  N 
ATOM     39 H    ARG D   2       4.898   5.954  33.020  1.00  9.04 LIG 0.16  HD
ATOM     40  C   ALA D   1       5.633   4.138  32.873  1.00 11.17 LIG 0.24  C 
ATOM     41 O    ALA D   1       6.035   3.192  33.548  1.00 13.49 LIG-0.27  OA
BRANCH 40 42
ATOM     42  CA  ALA D   1       5.691   4.072  31.359  1.00 12.65 LIG 0.17  C 
ATOM     43  CB  ALA D   1       7.115   4.348  30.826  1.00 13.08 LIG 0.04  C 
BRANCH 42 44
ATOM     44  N   ALA D   1       4.765   5.007  30.706  1.00 12.52 LIG-0.35  N 
ATOM     45  C   ACE D   0       3.272   5.191  30.997  1.00 13.59 LIG 0.21  C 
ATOM     46 O    ACE D   0       2.833   4.419  31.909  1.00 14.78 LIG-0.27  OA
ATOM     47  CH3 ACE D   0       2.487   6.211  30.219  1.00 14.73 LIG 0.12  C 
ATOM     48 H    ALA D   1       5.160   5.476  30.103  1.00 12.52 LIG 0.16  HD
ENDBRANCH 42 44
ENDBRANCH 40 42
ENDBRANCH 1 38
TORSDOF 19
ENDMDL
MODEL 3
USER: ADFR SOLUTION from run 162
USER: SCORE 16.992742 LL:  -2.566 LR: -14.874 RR:   0.000 FEB:  -9.206
USER: RMSD 8.473350
USER: SEED 161
USER: STATUS no improvement in best in 1 clusters for 5 generations
USER: GENES 21
USER: genes 0 Translation |==|  0.32365 0.43860 0.61049
USER: genes 1 Rotation |==|  0.44222 0.04427 0.66467 0.60886
USER: genes 2 Torsion [N]-CA--C-[N] |==|  0.97044
USER: genes 3 Torsion [C]-N--CA-[C] |==|  0.68577
USER: genes 4 Torsion [N]-CA--C-[N] |==|  0.46396
USER: genes 5 Torsion [C]-N--CA-[CB] |==|  0.58811
USER: genes 6 Torsion [N]-CA--C-[O] |==|  0.42817
USER: genes 7 Torsion [N]-CA--CB-[CG] |==|  0.41590
USER: genes 8 Torsion [CA]-CB--CG-[CD] |==|  0.36906
USER: genes 9 Torsion [CB]-CG--CD-[CE] |==|  0.58947
USER: genes 10 Torsion [CG]-CD--CE-[NZ] |==|  0.12027
USER: genes 11 Torsion [CD]-CE--NZ-[HZ1] |==|  0.81231
USER: genes 12 Torsion [N]-CA--CB-[CG2] |==|  0.10205
USER: genes 13 Torsion [CA]-CB--OG1-[HG1] |==|  0.22562
USER: genes 14 Torsion [C]-CA--CB-[CG] |==|  0.80900
USER: genes 15 Torsion [CA]-CB--CG-[CD] |==|  0.56926
USER: genes 16 Torsion [CB]-CG--CD-[NE] |==|  0.51196
USER: genes 17 Torsion [CG]-CD--NE-[CZ] |==|  0.28673
USER: genes 18 Torsion [C]-CA--N-[C] |==|  0.71670
USER: genes 19 Torsion [N]-C--CA-[N] |==|  0.96520
USER: genes 20 Torsion [C]-CA--N-[C] |==|  0.84078
ROOT
ATOM      1  CA  ARG D   2       1.471   6.450  35.454  1.00  9.56 LIG 0.18  C 
ENDROOT
BRANCH 1 2
ATOM      2  C   ARG D   2       2.620   5.470  35.814  1.00 11.06 LIG 0.24  C 
ATOM      3  N   THR D   3       3.797   5.705  35.241  1.00 11.45 LIG-0.34  N 
ATOM      4 H    THR D   3       3.974   6.378  34.737  1.00 11.45 LIG 0.16  HD
ATOM      5 O    ARG D   2       2.455   4.545  36.626  1.00  9.90 LIG-0.27  OA
BRANCH 3 6
ATOM      6  CA  THR D   3       4.889   4.790  35.452  1.00 13.43 LIG 0.20  C 
BRANCH 6 7
ATOM      7  C   THR D   3       6.018   5.419  36.255  1.00 15.00 LIG 0.24  C 
ATOM      8  N   LYS D   4       6.957   4.579  36.736  1.00 14.79 LIG-0.35  N 
ATOM      9 H    LYS D   4       6.979   3.735  36.570  1.00 14.79 LIG 0.16  HD
ATOM     10 O    THR D   3       6.009   6.652  36.436  1.00 15.79 LIG-0.27  OA
BRANCH 8 11
ATOM     11  CA  LYS D   4       8.063   5.064  37.618  1.00 18.13 LIG 0.16  C 
BRANCH 11 12
ATOM     12  C   LYS D   4       8.427   6.529  37.418  1.00 20.20 LIG 0.22  C 
ATOM     13 O    LYS D   4       8.946   7.115  38.407  1.00 21.26 LIG-0.29  OA
ENDBRANCH 11 12
BRANCH 11 14
ATOM     14  CB  LYS D   4       9.334   4.211  37.378  1.00 18.02 LIG 0.03  C 
BRANCH 14 15
ATOM     15  CG  LYS D   4      10.616   4.979  37.603  1.00 21.48 LIG 0.00  C 
BRANCH 15 16
ATOM     16  CD  LYS D   4      11.601   4.211  38.452  1.00 25.56 LIG 0.03  C 
BRANCH 16 17
ATOM     17  CE  LYS D   4      12.442   5.190  39.303  1.00 25.12 LIG 0.23  C 
BRANCH 17 18
ATOM     18  NZ  LYS D   4      11.599   6.292  39.923  1.00 20.07 LIG-0.08  N 
ATOM     19 HZ1  LYS D   4      11.291   6.826  39.282  1.00 20.07 LIG 0.27  HD
ATOM     20 HZ2  LYS D   4      10.915   5.931  40.362  1.00 20.07 LIG 0.27  HD
ATOM     21 HZ3  LYS D   4      12.098   6.765  40.488  1.00 20.07 LIG 0.27  HD
ENDBRANCH 17 18
ENDBRANCH 16 17
ENDBRANCH 15 16
ENDBRANCH 14 15
ENDBRANCH 11 14
ENDBRANCH 8 11
ENDBRANCH 6 7
BRANCH 6 22
ATOM     22  CB  THR D   3       5.443   4.182  34.112  1.00 14.57 LIG 0.15  C 
ATOM     23  CG2 THR D   3       5.418   5.241  32.971  1.00 14.25 LIG 0.04  C 
BRANCH 22 24
ATOM     24 OG1  THR D   3       6.785   3.708  34.308  1.00 15.86 LIG-0.39  OA
ATOM     25 HG1  THR D   3       6.764   2.948  34.665  1.00 15.86 LIG 0.21  HD
ENDBRANCH 22 24
ENDBRANCH 6 22
ENDBRANCH 3 6
ENDBRANCH 1 2
BRANCH 1 26
ATOM     26  CB  ARG D   2       0.336   5.775  34.662  1.00  9.49 LIG 0.04  C 
BRANCH 26 27
ATOM     27  CG  ARG D   2       0.806   5.371  33.213  1.00 10.73 LIG 0.02  C 
BRANCH 27 28
ATOM     28  CD  ARG D   2      -0.437   5.308  32.311  1.00 10.86 LIG 0.14  C 
BRANCH 28 29
ATOM     29  NE  ARG D   2      -0.107   4.848  30.986  1.00 10.69 LIG-0.23  N 
ATOM     30  CZ  ARG D   2      -0.346   3.596  30.504  1.00  9.43 LIG 0.67  C 
ATOM     31  NH1 ARG D   2      -0.886   2.628  31.261  1.00 10.34 LIG-0.23  N 
ATOM     32  NH2 ARG D   2       0.058   3.291  29.290  1.00 11.18 LIG-0.23  N 
ATOM     33 2HH1 ARG D   2      -1.024   1.848  30.927  1.00 10.34 LIG 0.17  HD
ATOM     34 1HH1 ARG D   2      -1.095   2.789  32.080  1.00 10.34 LIG 0.17  HD
ATOM     35 2HH2 ARG D   2      -0.087   2.505  28.973  1.00 11.18 LIG 0.17  HD
ATOM     36 1HH2 ARG D   2       0.465   3.878  28.812  1.00 11.18 LIG 0.17  HD
ATOM     37 HE   ARG D   2       0.271   5.409  30.456  1.00 10.69 LIG 0.18  HD
ENDBRANCH 28 29
ENDBRANCH 27 28
ENDBRANCH 26 27
ENDBRANCH 1 26
BRANCH 1 38
ATOM     38  N   ARG D   2       1.993   7.617  34.724  1.00  9.04 LIG-0.35  N 
ATOM     39 H    ARG D   2       2.166   7.480  33.893  1.00  9.04 LIG 0.16  HD
ATOM     40  C   ALA D   1       2.167   8.790  35.357  1.00 11.17 LIG 0.24  C 
ATOM     41 O    ALA D   1       1.893   8.918  36.549  1.00 13.49 LIG-0.27  OA
BRANCH 40 42
ATOM     42  CA  ALA D   1       2.655   9.981  34.555  1.00 12.65 LIG 0.17  C 
ATOM     43  CB  ALA D   1       1.550  11.048  34.381  1.00 13.08 LIG 0.04  C 
BRANCH 42 44
ATOM     44  N   ALA D   1       3.153   9.612  33.224  1.00 12.52 LIG-0.35  N 
ATOM     45  C   ACE D   0       4.275   8.623  32.894  1.00 13.59 LIG 0.21  C 
ATOM     46 O    ACE D   0       4.807   8.094  33.922  1.00 14.78 LIG-0.27  OA
ATOM     47  CH3 ACE D   0       4.643   8.374  31.456  1.00 14.73 LIG 0.12  C 
ATOM     48 H    ALA D   1       2.733  10.029  32.600  1.00 12.52 LIG 0.16  HD
ENDBRANCH 42 44
ENDBRANCH 40 42
ENDBRANCH 1 38
TORSDOF 19
ENDMDL
MODEL 4
USER: ADFR SOLUTION from run 161
USER: SCORE 17.077825 LL:  -2.621 LR: -14.764 RR:   0.000 FEB:  -9.097
USER: RMSD 6.518496
USER: SEED 160
USER: STATUS no improvement in best in 6 clusters for 5 generations
USER: GENES 21
USER: genes 0 Translation |==|  0.52454 0.45527 0.38535
USER: genes 1 Rotation |==|  0.15026 0.36133 0.67133 0.78124
USER: genes 2 Torsion [N]-CA--C-[N] |==|  0.44444
USER: genes 3 Torsion [C]-N--CA-[C] |==|  0.78067
USER: genes 4 Torsion [N]-CA--C-[N] |==|  0.96780
USER: genes 5 Torsion [C]-N--CA-[CB] |==|  0.79435
USER: genes 6 Torsion [N]-CA--C-[O] |==|  0.34697
USER: genes 7 Torsion [N]-CA--CB-[CG] |==|  0.84670
USER: genes 8 Torsion [CA]-CB--CG-[CD] |==|  0.39928
USER: genes 9 Torsion [CB]-CG--CD-[CE] |==|  0.35755
USER: genes 10 Torsion [CG]-CD--CE-[NZ] |==|  0.57489
USER: genes 11 Torsion [CD]-CE--NZ-[HZ1] |==|  0.46023
USER: genes 12 Torsion [N]-CA--CB-[CG2] |==|  0.77720
USER: genes 13 Torsion [CA]-CB--OG1-[HG1] |==|  0.41445
USER: genes 14 Torsion [C]-CA--CB-[CG] |==|  0.42217
USER: genes 15 Torsion [CA]-CB--CG-[CD] |==|  0.65910
USER: genes 16 Torsion [CB]-CG--CD-[NE] |==|  0.03491
USER: genes 17 Torsion [CG]-CD--NE-[CZ] |==|  0.69207
USER: genes 18 Torsion [C]-CA--N-[C] |==|  0.66057
USER: genes 19 Torsion [N]-C--CA-[N] |==|  0.47572
USER: genes 20 Torsion [C]-CA--N-[C] |==|  0.75858
ROOT
ATOM      1  CA  ARG D   2       5.389   6.713  31.570  1.00  9.56 LIG 0.18  C 
ENDROOT
BRANCH 1 2
ATOM      2  C   ARG D   2       4.827   5.794  32.689  1.00 11.06 LIG 0.24  C 
ATOM      3  N   THR D   3       5.034   6.193  33.940  1.00 11.45 LIG-0.34  N 
ATOM      4 H    THR D   3       5.404   6.936  34.165  1.00 11.45 LIG 0.16  HD
ATOM      5 O    ARG D   2       4.183   4.766  32.423  1.00  9.90 LIG-0.27  OA
BRANCH 3 6
ATOM      6  CA  THR D   3       4.624   5.353  35.035  1.00 13.43 LIG 0.20  C 
BRANCH 6 7
ATOM      7  C   THR D   3       3.129   5.449  35.304  1.00 15.00 LIG 0.24  C 
ATOM      8  N   LYS D   4       2.466   6.444  34.681  1.00 14.79 LIG-0.35  N 
ATOM      9 H    LYS D   4       2.826   6.979  34.112  1.00 14.79 LIG 0.16  HD
ATOM     10 O    THR D   3       2.608   4.627  36.084  1.00 15.79 LIG-0.27  OA
BRANCH 8 11
ATOM     11  CA  LYS D   4       1.016   6.700  34.939  1.00 18.13 LIG 0.16  C 
BRANCH 11 12
ATOM     12  C   LYS D   4       0.639   6.738  36.414  1.00 20.20 LIG 0.22  C 
ATOM     13 O    LYS D   4       0.049   7.778  36.813  1.00 21.26 LIG-0.29  OA
ENDBRANCH 11 12
BRANCH 11 14
ATOM     14  CB  LYS D   4       0.163   5.605  34.249  1.00 18.02 LIG 0.03  C 
BRANCH 14 15
ATOM     15  CG  LYS D   4       0.442   5.480  32.768  1.00 21.48 LIG 0.00  C 
BRANCH 15 16
ATOM     16  CD  LYS D   4       0.372   4.050  32.292  1.00 25.56 LIG 0.03  C 
BRANCH 16 17
ATOM     17  CE  LYS D   4      -0.559   3.946  31.063  1.00 25.12 LIG 0.23  C 
BRANCH 17 18
ATOM     18  NZ  LYS D   4      -1.192   2.570  30.929  1.00 20.07 LIG-0.08  N 
ATOM     19 HZ1  LYS D   4      -1.866   2.608  30.349  1.00 20.07 LIG 0.27  HD
ATOM     20 HZ2  LYS D   4      -0.584   1.991  30.638  1.00 20.07 LIG 0.27  HD
ATOM     21 HZ3  LYS D   4      -1.499   2.306  31.722  1.00 20.07 LIG 0.27  HD
ENDBRANCH 17 18
ENDBRANCH 16 17
ENDBRANCH 15 16
ENDBRANCH 14 15
ENDBRANCH 11 14
ENDBRANCH 8 11
ENDBRANCH 6 7
BRANCH 6 22
ATOM     22  CB  THR D   3       5.436   5.628  36.352  1.00 14.57 LIG 0.15  C 
ATOM     23  CG2 THR D   3       6.821   4.919  36.309  1.00 14.25 LIG 0.04  C 
BRANCH 22 24
ATOM     24 OG1  THR D   3       5.617   7.042  36.529  1.00 15.86 LIG-0.39  OA
ATOM     25 HG1  THR D   3       5.648   7.220  37.350  1.00 15.86 LIG 0.21  HD
ENDBRANCH 22 24
ENDBRANCH 6 22
ENDBRANCH 3 6
ENDBRANCH 1 2
BRANCH 1 26
ATOM     26  CB  ARG D   2       4.547   7.985  31.364  1.00  9.49 LIG 0.04  C 
BRANCH 26 27
ATOM     27  CG  ARG D   2       5.424   9.172  30.813  1.00 10.73 LIG 0.02  C 
BRANCH 27 28
ATOM     28  CD  ARG D   2       5.300  10.350  31.793  1.00 10.86 LIG 0.14  C 
BRANCH 28 29
ATOM     29  NE  ARG D   2       4.687   9.947  33.033  1.00 10.69 LIG-0.23  N 
ATOM     30  CZ  ARG D   2       3.449  10.321  33.459  1.00  9.43 LIG 0.67  C 
ATOM     31  NH1 ARG D   2       2.676  11.167  32.761  1.00 10.34 LIG-0.23  N 
ATOM     32  NH2 ARG D   2       3.033   9.923  34.642  1.00 11.18 LIG-0.23  N 
ATOM     33 2HH1 ARG D   2       1.899  11.383  33.057  1.00 10.34 LIG 0.17  HD
ATOM     34 1HH1 ARG D   2       2.959  11.492  32.016  1.00 10.34 LIG 0.17  HD
ATOM     35 2HH2 ARG D   2       2.253  10.152  34.923  1.00 11.18 LIG 0.17  HD
ATOM     36 1HH2 ARG D   2       3.540   9.434  35.134  1.00 11.18 LIG 0.17  HD
ATOM     37 HE   ARG D   2       5.141   9.427  33.547  1.00 10.69 LIG 0.18  HD
ENDBRANCH 28 29
ENDBRANCH 27 28
ENDBRANCH 26 27
ENDBRANCH 1 26
BRANCH 1 38
ATOM     38  N   ARG D   2       5.527   5.969  30.307  1.00  9.04 LIG-0.35  N 
ATOM     39 H    ARG D   2       4.802   5.615  30.011  1.00  9.04 LIG 0.16  HD
ATOM     40  C   ALA D   1       6.723   5.882  29.700  1.00 11.17 LIG 0.24  C 
ATOM     41 O    ALA D   1       7.722   6.419  30.177  1.00 13.49 LIG-0.27  OA
BRANCH 40 42
ATOM     42  CA  ALA D   1       6.811   5.153  28.373  1.00 12.65 LIG 0.17  C 
ATOM     43  CB  ALA D   1       6.515   3.643  28.527  1.00 13.08 LIG 0.04  C 
BRANCH 42 44
ATOM     44  N   ALA D   1       8.118   5.302  27.720  1.00 12.52 LIG-0.35  N 
ATOM     45  C   ACE D   0       8.565   6.430  26.784  1.00 13.59 LIG 0.21  C 
ATOM     46 O    ACE D   0       7.664   7.304  26.575  1.00 14.78 LIG-0.27  OA
ATOM     47  CH3 ACE D   0       9.957   6.409  26.213  1.00 14.73 LIG 0.12  C 
ATOM     48 H    ALA D   1       8.650   4.657  27.922  1.00 12.52 LIG 0.16  HD
ENDBRANCH 42 44
ENDBRANCH 40 42
ENDBRANCH 1 38
TORSDOF 19
ENDMDL
MODEL 5
USER: ADFR SOLUTION from run 82
USER: SCORE 16.078888 LL:  -2.760 LR: -14.705 RR:   0.000 FEB:  -9.037
USER: RMSD 3.937389
USER: SEED 81
USER: STATUS no improvement in best in 4 clusters for 5 generations
USER: GENES 21
USER: genes 0 Translation |==|  0.54762 0.39587 0.58060
USER: genes 1 Rotation |==|  0.64346 0.26516 0.61675 0.90079
USER: genes 2 Torsion [N]-CA--C-[N] |==|  0.04417
USER: genes 3 Torsion [C]-N--CA-[C] |==|  0.20638
USER: genes 4 Torsion [N]-CA--C-[N] |==|  0.43451
USER: genes 5 Torsion [C]-N--CA-[CB] |==|  0.29223
USER: genes 6 Torsion [N]-CA--C-[O] |==|  0.23057
USER: genes 7 Torsion [N]-CA--CB-[CG] |==|  0.76978
USER: genes 8 Torsion [CA]-CB--CG-[CD] |==|  0.84261
USER: genes 9 Torsion [CB]-CG--CD-[CE] |==|  0.73244
USER: genes 10 Torsion [CG]-CD--CE-[NZ] |==|  0.44122
USER: genes 11 Torsion [CD]-CE--NZ-[HZ1] |==|  0.57516
USER: genes 12 Torsion [N]-CA--CB-[CG2] |==|  0.33831
USER: genes 13 Torsion [CA]-CB--OG1-[HG1] |==|  0.57355
USER: genes 14 Torsion [C]-CA--CB-[CG] |==|  0.31713
USER: genes 15 Torsion [CA]-CB--CG-[CD] |==|  0.06435
USER: genes 16 Torsion [CB]-CG--CD-[NE] |==|  0.63980
USER: genes 17 Torsion [CG]-CD--NE-[CZ] |==|  0.53774
USER: genes 18 Torsion [C]-CA--N-[C] |==|  0.19374
USER: genes 19 Torsion [N]-C--CA-[N] |==|  0.11058
USER: genes 20 Torsion [C]-CA--N-[C] |==|  0.15668
ROOT
ATOM      1  CA  ARG D   2       5.839   5.777  34.938  1.00  9.56 LIG 0.18  C 
ENDROOT
BRANCH 1 2
ATOM      2  C   ARG D   2       6.015   5.166  33.522  1.00 11.06 LIG 0.24  C 
ATOM      3  N   THR D   3       5.754   5.970  32.496  1.00 11.45 LIG-0.34  N 
ATOM      4 H    THR D   3       5.549   6.802  32.562  1.00 11.45 LIG 0.16  HD
ATOM      5 O    ARG D   2       6.420   4.003  33.362  1.00  9.90 LIG-0.27  OA
BRANCH 3 6
ATOM      6  CA  THR D   3       5.806   5.453  31.153  1.00 13.43 LIG 0.20  C 
BRANCH 6 7
ATOM      7  C   THR D   3       4.607   4.574  30.829  1.00 15.00 LIG 0.24  C 
ATOM      8  N   LYS D   4       4.288   4.444  29.525  1.00 14.79 LIG-0.35  N 
ATOM      9 H    LYS D   4       4.750   4.780  28.881  1.00 14.79 LIG 0.16  HD
ATOM     10 O    THR D   3       3.984   4.042  31.769  1.00 15.79 LIG-0.27  OA
BRANCH 8 11
ATOM     11  CA  LYS D   4       3.076   3.685  29.088  1.00 18.13 LIG 0.16  C 
BRANCH 11 12
ATOM     12  C   LYS D   4       3.327   2.706  27.949  1.00 20.20 LIG 0.22  C 
ATOM     13 O    LYS D   4       3.787   1.577  28.275  1.00 21.26 LIG-0.29  OA
ENDBRANCH 11 12
BRANCH 11 14
ATOM     14  CB  LYS D   4       1.974   4.678  28.639  1.00 18.02 LIG 0.03  C 
BRANCH 14 15
ATOM     15  CG  LYS D   4       1.166   5.230  29.791  1.00 21.48 LIG 0.00  C 
BRANCH 15 16
ATOM     16  CD  LYS D   4       0.525   4.139  30.614  1.00 25.56 LIG 0.03  C 
BRANCH 16 17
ATOM     17  CE  LYS D   4      -0.934   3.917  30.154  1.00 25.12 LIG 0.23  C 
BRANCH 17 18
ATOM     18  NZ  LYS D   4      -1.465   2.549  30.548  1.00 20.07 LIG-0.08  N 
ATOM     19 HZ1  LYS D   4      -2.098   2.299  29.975  1.00 20.07 LIG 0.27  HD
ATOM     20 HZ2  LYS D   4      -0.801   1.957  30.532  1.00 20.07 LIG 0.27  HD
ATOM     21 HZ3  LYS D   4      -1.808   2.588  31.369  1.00 20.07 LIG 0.27  HD
ENDBRANCH 17 18
ENDBRANCH 16 17
ENDBRANCH 15 16
ENDBRANCH 14 15
ENDBRANCH 11 14
ENDBRANCH 8 11
ENDBRANCH 6 7
BRANCH 6 22
ATOM     22  CB  THR D   3       7.144   4.687  30.845  1.00 14.57 LIG 0.15  C 
ATOM     23  CG2 THR D   3       6.856   3.220  30.410  1.00 14.25 LIG 0.04  C 
BRANCH 22 24
ATOM     24 OG1  THR D   3       7.872   5.368  29.811  1.00 15.86 LIG-0.39  OA
ATOM     25 HG1  THR D   3       8.359   4.819  29.403  1.00 15.86 LIG 0.21  HD
ENDBRANCH 22 24
ENDBRANCH 6 22
ENDBRANCH 3 6
ENDBRANCH 1 2
BRANCH 1 26
ATOM     26  CB  ARG D   2       5.212   4.790  35.941  1.00  9.49 LIG 0.04  C 
BRANCH 26 27
ATOM     27  CG  ARG D   2       6.228   4.408  37.083  1.00 10.73 LIG 0.02  C 
BRANCH 27 28
ATOM     28  CD  ARG D   2       7.272   5.531  37.187  1.00 10.86 LIG 0.14  C 
BRANCH 28 29
ATOM     29  NE  ARG D   2       8.615   5.011  37.167  1.00 10.69 LIG-0.23  N 
ATOM     30  CZ  ARG D   2       9.736   5.709  37.500  1.00  9.43 LIG 0.67  C 
ATOM     31  NH1 ARG D   2       9.697   7.005  37.846  1.00 10.34 LIG-0.23  N 
ATOM     32  NH2 ARG D   2      10.910   5.126  37.384  1.00 11.18 LIG-0.23  N 
ATOM     33 2HH1 ARG D   2      10.423   7.417  38.051  1.00 10.34 LIG 0.17  HD
ATOM     34 1HH1 ARG D   2       8.946   7.423  37.862  1.00 10.34 LIG 0.17  HD
ATOM     35 2HH2 ARG D   2      11.626   5.555  37.591  1.00 11.18 LIG 0.17  HD
ATOM     36 1HH2 ARG D   2      10.962   4.316  37.100  1.00 11.18 LIG 0.17  HD
ATOM     37 HE   ARG D   2       8.718   4.192  36.924  1.00 10.69 LIG 0.18  HD
ENDBRANCH 28 29
ENDBRANCH 27 28
ENDBRANCH 26 27
ENDBRANCH 1 26
BRANCH 1 38
ATOM     38  N   ARG D   2       5.055   7.022  34.874  1.00  9.04 LIG-0.35  N 
ATOM     39 H    ARG D   2       5.499   7.740  35.036  1.00  9.04 LIG 0.16  HD
ATOM     40  C   ALA D   1       3.744   6.982  34.578  1.00 11.17 LIG 0.24  C 
ATOM     41 O    ALA D   1       3.173   5.917  34.351  1.00 13.49 LIG-0.27  OA
BRANCH 40 42
ATOM     42  CA  ALA D   1       2.987   8.292  34.469  1.00 12.65 LIG 0.17  C 
ATOM     43  CB  ALA D   1       1.649   8.120  33.714  1.00 13.08 LIG 0.04  C 
BRANCH 42 44
ATOM     44  N   ALA D   1       3.759   9.349  33.803  1.00 12.52 LIG-0.35  N 
ATOM     45  C   ACE D   0       4.390   9.301  32.408  1.00 13.59 LIG 0.21  C 
ATOM     46 O    ACE D   0       4.202   8.197  31.803  1.00 14.78 LIG-0.27  OA
ATOM     47  CH3 ACE D   0       5.147  10.496  31.896  1.00 14.73 LIG 0.12  C 
ATOM     48 H    ALA D   1       3.833  10.048  34.299  1.00 12.52 LIG 0.16  HD
ENDBRANCH 42 44
ENDBRANCH 40 42
ENDBRANCH 1 38
TORSDOF 19
ENDMDL
MODEL 6
USER: ADFR SOLUTION from run 175
USER: SCORE 14.978506 LL:  -2.059 LR: -14.661 RR:   0.000 FEB:  -8.993
USER: RMSD 3.953707
USER: SEED 174
USER: STATUS no improvement in best in 7 clusters for 5 generations
USER: GENES 21
USER: genes 0 Translation |==|  0.56562 0.37140 0.60872
USER: genes 1 Rotation |==|  0.71369 0.41776 0.68582 0.90379
USER: genes 2 Torsion [N]-CA--C-[N] |==|  0.18914
USER: genes 3 Torsion [C]-N--CA-[C] |==|  0.22323
USER: genes 4 Torsion [N]-CA--C-[N] |==|  0.41667
USER: genes 5 Torsion [C]-N--CA-[CB] |==|  0.18189
USER: genes 6 Torsion [N]-CA--C-[O] |==|  0.26002
USER: genes 7 Torsion [N]-CA--CB-[CG] |==|  0.66394
USER: genes 8 Torsion [CA]-CB--CG-[CD] |==|  0.71146
USER: genes 9 Torsion [CB]-CG--CD-[CE] |==|  0.19917
USER: genes 10 Torsion [CG]-CD--CE-[NZ] |==|  0.22963
USER: genes 11 Torsion [CD]-CE--NZ-[HZ1] |==|  0.68872
USER: genes 12 Torsion [N]-CA--CB-[CG2] |==|  0.52567
USER: genes 13 Torsion [CA]-CB--OG1-[HG1] |==|  0.72807
USER: genes 14 Torsion [C]-CA--CB-[CG] |==|  0.39586
USER: genes 15 Torsion [CA]-CB--CG-[CD] |==|  0.75546
USER: genes 16 Torsion [CB]-CG--CD-[NE] |==|  0.57094
USER: genes 17 Torsion [CG]-CD--NE-[CZ] |==|  0.80622
USER: genes 18 Torsion [C]-CA--N-[C] |==|  0.79066
USER: genes 19 Torsion [N]-C--CA-[N] |==|  0.48237
USER: genes 20 Torsion [C]-CA--N-[C] |==|  0.50262
ROOT
ATOM      1  CA  ARG D   2       6.190   5.391  35.424  1.00  9.56 LIG 0.18  C 
ENDROOT
BRANCH 1 2
ATOM      2  C   ARG D   2       6.011   4.704  34.043  1.00 11.06 LIG 0.24  C 
ATOM      3  N   THR D   3       5.868   5.511  32.996  1.00 11.45 LIG-0.34  N 
ATOM      4 H    THR D   3       5.919   6.368  33.024  1.00 11.45 LIG 0.16  HD
ATOM      5 O    ARG D   2       6.044   3.469  33.923  1.00  9.90 LIG-0.27  OA
BRANCH 3 6
ATOM      6  CA  THR D   3       5.607   4.952  31.695  1.00 13.43 LIG 0.20  C 
BRANCH 6 7
ATOM      7  C   THR D   3       4.142   4.586  31.511  1.00 15.00 LIG 0.24  C 
ATOM      8  N   LYS D   4       3.655   4.658  30.255  1.00 14.79 LIG-0.35  N 
ATOM      9 H    LYS D   4       4.132   4.843  29.564  1.00 14.79 LIG 0.16  HD
ATOM     10 O    THR D   3       3.476   4.259  32.513  1.00 15.79 LIG-0.27  OA
BRANCH 8 11
ATOM     11  CA  LYS D   4       2.209   4.415  29.962  1.00 18.13 LIG 0.16  C 
BRANCH 11 12
ATOM     12  C   LYS D   4       1.870   4.368  28.478  1.00 20.20 LIG 0.22  C 
ATOM     13 O    LYS D   4       1.865   3.227  27.942  1.00 21.26 LIG-0.29  OA
ENDBRANCH 11 12
BRANCH 11 14
ATOM     14  CB  LYS D   4       1.350   5.525  30.620  1.00 18.02 LIG 0.03  C 
BRANCH 14 15
ATOM     15  CG  LYS D   4       0.337   4.986  31.605  1.00 21.48 LIG 0.00  C 
BRANCH 15 16
ATOM     16  CD  LYS D   4      -1.063   4.982  31.040  1.00 25.56 LIG 0.03  C 
BRANCH 16 17
ATOM     17  CE  LYS D   4      -1.194   3.882  29.961  1.00 25.12 LIG 0.23  C 
BRANCH 17 18
ATOM     18  NZ  LYS D   4      -1.465   2.511  30.561  1.00 20.07 LIG-0.08  N 
ATOM     19 HZ1  LYS D   4      -0.759   1.986  30.431  1.00 20.07 LIG 0.27  HD
ATOM     20 HZ2  LYS D   4      -1.616   2.594  31.434  1.00 20.07 LIG 0.27  HD
ATOM     21 HZ3  LYS D   4      -2.178   2.151  30.169  1.00 20.07 LIG 0.27  HD
ENDBRANCH 17 18
ENDBRANCH 16 17
ENDBRANCH 15 16
ENDBRANCH 14 15
ENDBRANCH 11 14
ENDBRANCH 8 11
ENDBRANCH 6 7
BRANCH 6 22
ATOM     22  CB  THR D   3       6.524   3.718  31.365  1.00 14.57 LIG 0.15  C 
ATOM     23  CG2 THR D   3       6.372   3.297  29.874  1.00 14.25 LIG 0.04  C 
BRANCH 22 24
ATOM     24 OG1  THR D   3       7.896   4.040  31.643  1.00 15.86 LIG-0.39  OA
ATOM     25 HG1  THR D   3       8.282   4.264  30.931  1.00 15.86 LIG 0.21  HD
ENDBRANCH 22 24
ENDBRANCH 6 22
ENDBRANCH 3 6
ENDBRANCH 1 2
BRANCH 1 26
ATOM     26  CB  ARG D   2       6.656   4.417  36.520  1.00  9.49 LIG 0.04  C 
BRANCH 26 27
ATOM     27  CG  ARG D   2       7.678   5.103  37.503  1.00 10.73 LIG 0.02  C 
BRANCH 27 28
ATOM     28  CD  ARG D   2       9.090   4.924  36.923  1.00 10.86 LIG 0.14  C 
BRANCH 28 29
ATOM     29  NE  ARG D   2      10.097   4.965  37.952  1.00 10.69 LIG-0.23  N 
ATOM     30  CZ  ARG D   2      10.456   6.071  38.661  1.00  9.43 LIG 0.67  C 
ATOM     31  NH1 ARG D   2       9.919   7.278  38.425  1.00 10.34 LIG-0.23  N 
ATOM     32  NH2 ARG D   2      11.433   5.980  39.537  1.00 11.18 LIG-0.23  N 
ATOM     33 2HH1 ARG D   2      10.167   7.957  38.891  1.00 10.34 LIG 0.17  HD
ATOM     34 1HH1 ARG D   2       9.326   7.373  37.809  1.00 10.34 LIG 0.17  HD
ATOM     35 2HH2 ARG D   2      11.669   6.671  39.992  1.00 11.18 LIG 0.17  HD
ATOM     36 1HH2 ARG D   2      11.835   5.229  39.656  1.00 11.18 LIG 0.17  HD
ATOM     37 HE   ARG D   2      10.505   4.230  38.134  1.00 10.69 LIG 0.18  HD
ENDBRANCH 28 29
ENDBRANCH 27 28
ENDBRANCH 26 27
ENDBRANCH 1 26
BRANCH 1 38
ATOM     38  N   ARG D   2       4.951   6.076  35.828  1.00  9.04 LIG-0.35  N 
ATOM     39 H    ARG D   2       4.496   5.676  36.438  1.00  9.04 LIG 0.16  HD
ATOM     40  C   ALA D   1       4.602   7.240  35.254  1.00 11.17 LIG 0.24  C 
ATOM     41 O    ALA D   1       5.304   7.761  34.388  1.00 13.49 LIG-0.27  OA
BRANCH 40 42
ATOM     42  CA  ALA D   1       3.346   7.940  35.738  1.00 12.65 LIG 0.17  C 
ATOM     43  CB  ALA D   1       2.079   7.099  35.463  1.00 13.08 LIG 0.04  C 
BRANCH 42 44
ATOM     44  N   ALA D   1       3.159   9.266  35.136  1.00 12.52 LIG-0.35  N 
ATOM     45  C   ACE D   0       2.020  10.256  35.406  1.00 13.59 LIG 0.21  C 
ATOM     46 O    ACE D   0       1.164   9.830  36.246  1.00 14.78 LIG-0.27  OA
ATOM     47  CH3 ACE D   0       2.004  11.578  34.689  1.00 14.73 LIG 0.12  C 
ATOM     48 H    ALA D   1       3.787   9.455  34.580  1.00 12.52 LIG 0.16  HD
ENDBRANCH 42 44
ENDBRANCH 40 42
ENDBRANCH 1 38
TORSDOF 19
ENDMDL
MODEL 7
USER: ADFR SOLUTION from run 105
USER: SCORE 16.213404 LL:  -2.528 LR: -14.622 RR:   0.000 FEB:  -8.954
USER: RMSD 5.067918
USER: SEED 104
USER: STATUS no improvement in best in 3 clusters for 5 generations
USER: GENES 21
USER: genes 0 Translation |==|  0.54625 0.31794 0.58761
USER: genes 1 Rotation |==|  0.30855 0.58563 0.15981 0.80047
USER: genes 2 Torsion [N]-CA--C-[N] |==|  0.00113
USER: genes 3 Torsion [C]-N--CA-[C] |==|  0.84049
USER: genes 4 Torsion [N]-CA--C-[N] |==|  0.89761
USER: genes 5 Torsion [C]-N--CA-[CB] |==|  0.51441
USER: genes 6 Torsion [N]-CA--C-[O] |==|  0.83514
USER: genes 7 Torsion [N]-CA--CB-[CG] |==|  0.60073
USER: genes 8 Torsion [CA]-CB--CG-[CD] |==|  0.30226
USER: genes 9 Torsion [CB]-CG--CD-[CE] |==|  0.16146
USER: genes 10 Torsion [CG]-CD--CE-[NZ] |==|  0.24297
USER: genes 11 Torsion [CD]-CE--NZ-[HZ1] |==|  0.80601
USER: genes 12 Torsion [N]-CA--CB-[CG2] |==|  0.41246
USER: genes 13 Torsion [CA]-CB--OG1-[HG1] |==|  0.99948
USER: genes 14 Torsion [C]-CA--CB-[CG] |==|  0.90497
USER: genes 15 Torsion [CA]-CB--CG-[CD] |==|  0.51482
USER: genes 16 Torsion [CB]-CG--CD-[NE] |==|  0.04972
USER: genes 17 Torsion [CG]-CD--NE-[CZ] |==|  0.37051
USER: genes 18 Torsion [C]-CA--N-[C] |==|  0.75295
USER: genes 19 Torsion [N]-C--CA-[N] |==|  0.51111
USER: genes 20 Torsion [C]-CA--N-[C] |==|  0.17210
ROOT
ATOM      1  CA  ARG D   2       5.812   4.550  35.059  1.00  9.56 LIG 0.18  C 
ENDROOT
BRANCH 1 2
ATOM      2  C   ARG D   2       4.993   5.867  35.127  1.00 11.06 LIG 0.24  C 
ATOM      3  N   THR D   3       5.018   6.634  34.042  1.00 11.45 LIG-0.34  N 
ATOM      4 H    THR D   3       5.407   6.430  33.303  1.00 11.45 LIG 0.16  HD
ATOM      5 O    ARG D   2       4.317   6.161  36.127  1.00  9.90 LIG-0.27  OA
BRANCH 3 6
ATOM      6  CA  THR D   3       4.359   7.914  34.057  1.00 13.43 LIG 0.20  C 
BRANCH 6 7
ATOM      7  C   THR D   3       2.880   7.795  34.396  1.00 15.00 LIG 0.24  C 
ATOM      8  N   LYS D   4       2.233   6.718  33.905  1.00 14.79 LIG-0.35  N 
ATOM      9 H    LYS D   4       2.617   6.085  33.467  1.00 14.79 LIG 0.16  HD
ATOM     10 O    THR D   3       2.350   8.688  35.085  1.00 15.79 LIG-0.27  OA
BRANCH 8 11
ATOM     11  CA  LYS D   4       0.761   6.539  34.089  1.00 18.13 LIG 0.16  C 
BRANCH 11 12
ATOM     12  C   LYS D   4       0.293   6.638  35.534  1.00 20.20 LIG 0.22  C 
ATOM     13 O    LYS D   4       0.795   5.809  36.342  1.00 21.26 LIG-0.29  OA
ENDBRANCH 11 12
BRANCH 11 14
ATOM     14  CB  LYS D   4       0.330   5.157  33.534  1.00 18.02 LIG 0.03  C 
BRANCH 14 15
ATOM     15  CG  LYS D   4      -1.029   5.179  32.873  1.00 21.48 LIG 0.00  C 
BRANCH 15 16
ATOM     16  CD  LYS D   4      -0.938   5.037  31.374  1.00 25.56 LIG 0.03  C 
BRANCH 16 17
ATOM     17  CE  LYS D   4      -0.216   3.718  31.010  1.00 25.12 LIG 0.23  C 
BRANCH 17 18
ATOM     18  NZ  LYS D   4      -1.171   2.539  30.923  1.00 20.07 LIG-0.08  N 
ATOM     19 HZ1  LYS D   4      -1.465   2.334  31.738  1.00 20.07 LIG 0.27  HD
ATOM     20 HZ2  LYS D   4      -1.861   2.753  30.405  1.00 20.07 LIG 0.27  HD
ATOM     21 HZ3  LYS D   4      -0.746   1.838  30.577  1.00 20.07 LIG 0.27  HD
ENDBRANCH 17 18
ENDBRANCH 16 17
ENDBRANCH 15 16
ENDBRANCH 14 15
ENDBRANCH 11 14
ENDBRANCH 8 11
ENDBRANCH 6 7
BRANCH 6 22
ATOM     22  CB  THR D   3       4.549   8.715  32.717  1.00 14.57 LIG 0.15  C 
ATOM     23  CG2 THR D   3       3.308   9.607  32.423  1.00 14.25 LIG 0.04  C 
BRANCH 22 24
ATOM     24 OG1  THR D   3       5.728   9.531  32.798  1.00 15.86 LIG-0.39  OA
ATOM     25 HG1  THR D   3       6.091   9.427  33.548  1.00 15.86 LIG 0.21  HD
ENDBRANCH 22 24
ENDBRANCH 6 22
ENDBRANCH 3 6
ENDBRANCH 1 2
BRANCH 1 26
ATOM     26  CB  ARG D   2       6.826   4.417  36.210  1.00  9.49 LIG 0.04  C 
BRANCH 26 27
ATOM     27  CG  ARG D   2       7.418   5.819  36.619  1.00 10.73 LIG 0.02  C 
BRANCH 27 28
ATOM     28  CD  ARG D   2       8.513   5.584  37.672  1.00 10.86 LIG 0.14  C 
BRANCH 28 29
ATOM     29  NE  ARG D   2       8.964   4.216  37.673  1.00 10.69 LIG-0.23  N 
ATOM     30  CZ  ARG D   2      10.266   3.814  37.690  1.00  9.43 LIG 0.67  C 
ATOM     31  NH1 ARG D   2      11.285   4.687  37.659  1.00 10.34 LIG-0.23  N 
ATOM     32  NH2 ARG D   2      10.539   2.529  37.632  1.00 11.18 LIG-0.23  N 
ATOM     33 2HH1 ARG D   2      12.095   4.401  37.671  1.00 10.34 LIG 0.17  HD
ATOM     34 1HH1 ARG D   2      11.127   5.532  37.629  1.00 10.34 LIG 0.17  HD
ATOM     35 2HH2 ARG D   2      11.356   2.262  37.641  1.00 11.18 LIG 0.17  HD
ATOM     36 1HH2 ARG D   2       9.900   1.955  37.584  1.00 11.18 LIG 0.17  HD
ATOM     37 HE   ARG D   2       8.362   3.601  37.661  1.00 10.69 LIG 0.18  HD
ENDBRANCH 28 29
ENDBRANCH 27 28
ENDBRANCH 26 27
ENDBRANCH 1 26
BRANCH 1 38
ATOM     38  N   ARG D   2       6.483   4.422  33.755  1.00  9.04 LIG-0.35  N 
ATOM     39 H    ARG D   2       7.278   4.749  33.721  1.00  9.04 LIG 0.16  HD
ATOM     40  C   ALA D   1       5.856   3.826  32.726  1.00 11.17 LIG 0.24  C 
ATOM     41 O    ALA D   1       4.719   3.374  32.847  1.00 13.49 LIG-0.27  OA
BRANCH 40 42
ATOM     42  CA  ALA D   1       6.604   3.667  31.416  1.00 12.65 LIG 0.17  C 
ATOM     43  CB  ALA D   1       7.174   5.013  30.913  1.00 13.08 LIG 0.04  C 
BRANCH 42 44
ATOM     44  N   ALA D   1       5.777   3.088  30.349  1.00 12.52 LIG-0.35  N 
ATOM     45  C   ACE D   0       4.502   3.678  29.738  1.00 13.59 LIG 0.21  C 
ATOM     46 O    ACE D   0       4.159   4.790  30.253  1.00 14.78 LIG-0.27  OA
ATOM     47  CH3 ACE D   0       3.793   2.930  28.642  1.00 14.73 LIG 0.12  C 
ATOM     48 H    ALA D   1       6.092   2.336  30.076  1.00 12.52 LIG 0.16  HD
ENDBRANCH 42 44
ENDBRANCH 40 42
ENDBRANCH 1 38
TORSDOF 19
ENDMDL
MODEL 8
USER: ADFR SOLUTION from run 165
USER: SCORE 15.188879 LL:  -2.114 LR: -14.606 RR:   0.000 FEB:  -8.939
USER: RMSD 6.350949
USER: SEED 164
USER: STATUS no improvement in best in 6 clusters for 5 generations
USER: GENES 21
USER: genes 0 Translation |==|  0.51982 0.40984 0.57287
USER: genes 1 Rotation |==|  0.84155 0.46808 0.26378 0.77663
USER: genes 2 Torsion [N]-CA--C-[N] |==|  0.39861
USER: genes 3 Torsion [C]-N--CA-[C] |==|  0.83052
USER: genes 4 Torsion [N]-CA--C-[N] |==|  0.89519
USER: genes 5 Torsion [C]-N--CA-[CB] |==|  0.42374
USER: genes 6 Torsion [N]-CA--C-[O] |==|  0.93881
USER: genes 7 Torsion [N]-CA--CB-[CG] |==|  0.24391
USER: genes 8 Torsion [CA]-CB--CG-[CD] |==|  0.66957
USER: genes 9 Torsion [CB]-CG--CD-[CE] |==|  0.75836
USER: genes 10 Torsion [CG]-CD--CE-[NZ] |==|  0.77521
USER: genes 11 Torsion [CD]-CE--NZ-[HZ1] |==|  0.42521
USER: genes 12 Torsion [N]-CA--CB-[CG2] |==|  0.12672
USER: genes 13 Torsion [CA]-CB--OG1-[HG1] |==|  0.22978
USER: genes 14 Torsion [C]-CA--CB-[CG] |==|  0.25551
USER: genes 15 Torsion [CA]-CB--CG-[CD] |==|  0.15214
USER: genes 16 Torsion [CB]-CG--CD-[NE] |==|  0.46217
USER: genes 17 Torsion [CG]-CD--NE-[CZ] |==|  0.41127
USER: genes 18 Torsion [C]-CA--N-[C] |==|  0.54849
USER: genes 19 Torsion [N]-C--CA-[N] |==|  0.49655
USER: genes 20 Torsion [C]-CA--N-[C] |==|  0.26287
ROOT
ATOM      1  CA  ARG D   2       5.296   5.997  34.805  1.00  9.56 LIG 0.18  C 
ENDROOT
BRANCH 1 2
ATOM      2  C   ARG D   2       4.409   7.270  34.771  1.00 11.06 LIG 0.24  C 
ATOM      3  N   THR D   3       4.307   7.887  33.597  1.00 11.45 LIG-0.34  N 
ATOM      4 H    THR D   3       4.650   7.605  32.861  1.00 11.45 LIG 0.16  HD
ATOM      5 O    ARG D   2       3.795   7.662  35.776  1.00  9.90 LIG-0.27  OA
BRANCH 3 6
ATOM      6  CA  THR D   3       3.576   9.124  33.502  1.00 13.43 LIG 0.20  C 
BRANCH 6 7
ATOM      7  C   THR D   3       2.115   8.960  33.892  1.00 15.00 LIG 0.24  C 
ATOM      8  N   LYS D   4       1.514   7.813  33.513  1.00 14.79 LIG-0.35  N 
ATOM      9 H    LYS D   4       1.921   7.164  33.120  1.00 14.79 LIG 0.16  HD
ATOM     10 O    THR D   3       1.555   9.882  34.516  1.00 15.79 LIG-0.27  OA
BRANCH 8 11
ATOM     11  CA  LYS D   4       0.058   7.576  33.753  1.00 18.13 LIG 0.16  C 
BRANCH 11 12
ATOM     12  C   LYS D   4      -0.266   7.008  35.129  1.00 20.20 LIG 0.22  C 
ATOM     13 O    LYS D   4       0.674   6.412  35.722  1.00 21.26 LIG-0.29  OA
ENDBRANCH 11 12
BRANCH 11 14
ATOM     14  CB  LYS D   4      -0.495   6.600  32.684  1.00 18.02 LIG 0.03  C 
BRANCH 14 15
ATOM     15  CG  LYS D   4      -0.348   5.146  33.072  1.00 21.48 LIG 0.00  C 
BRANCH 15 16
ATOM     16  CD  LYS D   4       0.515   4.379  32.100  1.00 25.56 LIG 0.03  C 
BRANCH 16 17
ATOM     17  CE  LYS D   4      -0.349   3.845  30.934  1.00 25.12 LIG 0.23  C 
BRANCH 17 18
ATOM     18  NZ  LYS D   4      -1.090   2.569  31.298  1.00 20.07 LIG-0.08  N 
ATOM     19 HZ1  LYS D   4      -1.830   2.505  30.809  1.00 20.07 LIG 0.27  HD
ATOM     20 HZ2  LYS D   4      -0.568   1.867  31.138  1.00 20.07 LIG 0.27  HD
ATOM     21 HZ3  LYS D   4      -1.306   2.587  32.161  1.00 20.07 LIG 0.27  HD
ENDBRANCH 17 18
ENDBRANCH 16 17
ENDBRANCH 15 16
ENDBRANCH 14 15
ENDBRANCH 11 14
ENDBRANCH 8 11
ENDBRANCH 6 7
BRANCH 6 22
ATOM     22  CB  THR D   3       3.692   9.793  32.084  1.00 14.57 LIG 0.15  C 
ATOM     23  CG2 THR D   3       3.481   8.741  30.956  1.00 14.25 LIG 0.04  C 
BRANCH 22 24
ATOM     24 OG1  THR D   3       2.721  10.845  31.958  1.00 15.86 LIG-0.39  OA
ATOM     25 HG1  THR D   3       3.020  11.546  32.312  1.00 15.86 LIG 0.21  HD
ENDBRANCH 22 24
ENDBRANCH 6 22
ENDBRANCH 3 6
ENDBRANCH 1 2
BRANCH 1 26
ATOM     26  CB  ARG D   2       4.500   4.706  34.542  1.00  9.49 LIG 0.04  C 
BRANCH 26 27
ATOM     27  CG  ARG D   2       4.497   4.334  33.011  1.00 10.73 LIG 0.02  C 
BRANCH 27 28
ATOM     28  CD  ARG D   2       5.957   4.258  32.537  1.00 10.86 LIG 0.14  C 
BRANCH 28 29
ATOM     29  NE  ARG D   2       6.064   3.622  31.248  1.00 10.69 LIG-0.23  N 
ATOM     30  CZ  ARG D   2       7.001   3.912  30.302  1.00  9.43 LIG 0.67  C 
ATOM     31  NH1 ARG D   2       7.913   4.881  30.470  1.00 10.34 LIG-0.23  N 
ATOM     32  NH2 ARG D   2       6.950   3.292  29.143  1.00 11.18 LIG-0.23  N 
ATOM     33 2HH1 ARG D   2       8.491   5.039  29.853  1.00 10.34 LIG 0.17  HD
ATOM     34 1HH1 ARG D   2       7.920   5.345  31.195  1.00 10.34 LIG 0.17  HD
ATOM     35 2HH2 ARG D   2       7.535   3.465  28.536  1.00 11.18 LIG 0.17  HD
ATOM     36 1HH2 ARG D   2       6.332   2.714  28.991  1.00 11.18 LIG 0.17  HD
ATOM     37 HE   ARG D   2       5.490   3.010  31.061  1.00 10.69 LIG 0.18  HD
ENDBRANCH 28 29
ENDBRANCH 27 28
ENDBRANCH 26 27
ENDBRANCH 1 26
BRANCH 1 38
ATOM     38  N   ARG D   2       6.027   5.907  36.080  1.00  9.04 LIG-0.35  N 
ATOM     39 H    ARG D   2       5.717   6.398  36.714  1.00  9.04 LIG 0.16  HD
ATOM     40  C   ALA D   1       7.097   5.100  36.192  1.00 11.17 LIG 0.24  C 
ATOM     41 O    ALA D   1       7.485   4.420  35.243  1.00 13.49 LIG-0.27  OA
BRANCH 40 42
ATOM     42  CA  ALA D   1       7.788   4.996  37.537  1.00 12.65 LIG 0.17  C 
ATOM     43  CB  ALA D   1       8.295   6.370  38.031  1.00 13.08 LIG 0.04  C 
BRANCH 42 44
ATOM     44  N   ALA D   1       8.921   4.062  37.531  1.00 12.52 LIG-0.35  N 
ATOM     45  C   ACE D   0      10.400   4.396  37.309  1.00 13.59 LIG 0.21  C 
ATOM     46 O    ACE D   0      10.617   5.634  37.105  1.00 14.78 LIG-0.27  OA
ATOM     47  CH3 ACE D   0      11.421   3.292  37.343  1.00 14.73 LIG 0.12  C 
ATOM     48 H    ALA D   1       8.667   3.252  37.672  1.00 12.52 LIG 0.16  HD
ENDBRANCH 42 44
ENDBRANCH 40 42
ENDBRANCH 1 38
TORSDOF 19
ENDMDL
MODEL 9
USER: ADFR SOLUTION from run 177
USER: SCORE 16.140959 LL:  -2.622 LR: -14.568 RR:   0.000 FEB:  -8.900
USER: RMSD 6.366402
USER: SEED 176
USER: STATUS no improvement in best in 1 clusters for 5 generations
USER: GENES 21
USER: genes 0 Translation |==|  0.47050 0.36867 0.60795
USER: genes 1 Rotation |==|  0.53460 0.19193 0.19318 0.74444
USER: genes 2 Torsion [N]-CA--C-[N] |==|  0.32837
USER: genes 3 Torsion [C]-N--CA-[C] |==|  0.72928
USER: genes 4 Torsion [N]-CA--C-[N] |==|  0.19749
USER: genes 5 Torsion [C]-N--CA-[CB] |==|  0.25806
USER: genes 6 Torsion [N]-CA--C-[O] |==|  0.21215
USER: genes 7 Torsion [N]-CA--CB-[CG] |==|  0.89945
USER: genes 8 Torsion [CA]-CB--CG-[CD] |==|  0.57383
USER: genes 9 Torsion [CB]-CG--CD-[CE] |==|  0.20891
USER: genes 10 Torsion [CG]-CD--CE-[NZ] |==|  0.41441
USER: genes 11 Torsion [CD]-CE--NZ-[HZ1] |==|  0.38938
USER: genes 12 Torsion [N]-CA--CB-[CG2] |==|  0.55637
USER: genes 13 Torsion [CA]-CB--OG1-[HG1] |==|  0.91134
USER: genes 14 Torsion [C]-CA--CB-[CG] |==|  0.01508
USER: genes 15 Torsion [CA]-CB--CG-[CD] |==|  0.70364
USER: genes 16 Torsion [CB]-CG--CD-[NE] |==|  0.50387
USER: genes 17 Torsion [CG]-CD--NE-[CZ] |==|  0.63182
USER: genes 18 Torsion [C]-CA--N-[C] |==|  0.83509
USER: genes 19 Torsion [N]-C--CA-[N] |==|  0.46587
USER: genes 20 Torsion [C]-CA--N-[C] |==|  0.48889
ROOT
ATOM      1  CA  ARG D   2       4.335   5.349  35.410  1.00  9.56 LIG 0.18  C 
ENDROOT
BRANCH 1 2
ATOM      2  C   ARG D   2       4.682   5.812  33.970  1.00 11.06 LIG 0.24  C 
ATOM      3  N   THR D   3       4.695   4.869  33.033  1.00 11.45 LIG-0.34  N 
ATOM      4 H    THR D   3       4.479   4.047  33.159  1.00 11.45 LIG 0.16  HD
ATOM      5 O    ARG D   2       4.891   7.007  33.705  1.00  9.90 LIG-0.27  OA
BRANCH 3 6
ATOM      6  CA  THR D   3       5.095   5.202  31.690  1.00 13.43 LIG 0.20  C 
BRANCH 6 7
ATOM      7  C   THR D   3       3.902   5.461  30.783  1.00 15.00 LIG 0.24  C 
ATOM      8  N   LYS D   4       3.212   6.599  31.003  1.00 14.79 LIG-0.35  N 
ATOM      9 H    LYS D   4       3.440   7.195  31.579  1.00 14.79 LIG 0.16  HD
ATOM     10 O    THR D   3       3.620   4.617  29.910  1.00 15.79 LIG-0.27  OA
BRANCH 8 11
ATOM     11  CA  LYS D   4       1.966   6.918  30.241  1.00 18.13 LIG 0.16  C 
BRANCH 11 12
ATOM     12  C   LYS D   4       1.772   8.399  29.948  1.00 20.20 LIG 0.22  C 
ATOM     13 O    LYS D   4       2.478   8.882  29.021  1.00 21.26 LIG-0.29  OA
ENDBRANCH 11 12
BRANCH 11 14
ATOM     14  CB  LYS D   4       0.730   6.414  31.029  1.00 18.02 LIG 0.03  C 
BRANCH 14 15
ATOM     15  CG  LYS D   4       0.979   5.113  31.757  1.00 21.48 LIG 0.00  C 
BRANCH 15 16
ATOM     16  CD  LYS D   4      -0.290   4.321  31.963  1.00 25.56 LIG 0.03  C 
BRANCH 16 17
ATOM     17  CE  LYS D   4      -0.722   3.661  30.633  1.00 25.12 LIG 0.23  C 
BRANCH 17 18
ATOM     18  NZ  LYS D   4      -1.451   2.345  30.850  1.00 20.07 LIG-0.08  N 
ATOM     19 HZ1  LYS D   4      -2.129   2.283  30.277  1.00 20.07 LIG 0.27  HD
ATOM     20 HZ2  LYS D   4      -0.888   1.669  30.717  1.00 20.07 LIG 0.27  HD
ATOM     21 HZ3  LYS D   4      -1.764   2.312  31.683  1.00 20.07 LIG 0.27  HD
ENDBRANCH 17 18
ENDBRANCH 16 17
ENDBRANCH 15 16
ENDBRANCH 14 15
ENDBRANCH 11 14
ENDBRANCH 8 11
ENDBRANCH 6 7
BRANCH 6 22
ATOM     22  CB  THR D   3       6.044   4.122  31.052  1.00 14.57 LIG 0.15  C 
ATOM     23  CG2 THR D   3       6.845   4.724  29.860  1.00 14.25 LIG 0.04  C 
BRANCH 22 24
ATOM     24 OG1  THR D   3       6.951   3.618  32.045  1.00 15.86 LIG-0.39  OA
ATOM     25 HG1  THR D   3       7.125   4.225  32.599  1.00 15.86 LIG 0.21  HD
ENDBRANCH 22 24
ENDBRANCH 6 22
ENDBRANCH 3 6
ENDBRANCH 1 2
BRANCH 1 26
ATOM     26  CB  ARG D   2       3.041   5.986  35.948  1.00  9.49 LIG 0.04  C 
BRANCH 26 27
ATOM     27  CG  ARG D   2       2.321   6.847  34.841  1.00 10.73 LIG 0.02  C 
BRANCH 27 28
ATOM     28  CD  ARG D   2       2.524   8.331  35.186  1.00 10.86 LIG 0.14  C 
BRANCH 28 29
ATOM     29  NE  ARG D   2       1.866   9.192  34.237  1.00 10.69 LIG-0.23  N 
ATOM     30  CZ  ARG D   2       2.426  10.279  33.637  1.00  9.43 LIG 0.67  C 
ATOM     31  NH1 ARG D   2       3.672  10.690  33.919  1.00 10.34 LIG-0.23  N 
ATOM     32  NH2 ARG D   2       1.692  11.012  32.828  1.00 11.18 LIG-0.23  N 
ATOM     33 2HH1 ARG D   2       3.997  11.380  33.522  1.00 10.34 LIG 0.17  HD
ATOM     34 1HH1 ARG D   2       4.146  10.263  34.497  1.00 10.34 LIG 0.17  HD
ATOM     35 2HH2 ARG D   2       2.034  11.701  32.442  1.00 11.18 LIG 0.17  HD
ATOM     36 1HH2 ARG D   2       0.871  10.803  32.685  1.00 11.18 LIG 0.17  HD
ATOM     37 HE   ARG D   2       1.052   9.004  34.032  1.00 10.69 LIG 0.18  HD
ENDBRANCH 28 29
ENDBRANCH 27 28
ENDBRANCH 26 27
ENDBRANCH 1 26
BRANCH 1 38
ATOM     38  N   ARG D   2       5.460   5.604  36.324  1.00  9.04 LIG-0.35  N 
ATOM     39 H    ARG D   2       5.281   6.122  36.987  1.00  9.04 LIG 0.16  HD
ATOM     40  C   ALA D   1       6.660   5.044  36.094  1.00 11.17 LIG 0.24  C 
ATOM     41 O    ALA D   1       6.846   4.307  35.127  1.00 13.49 LIG-0.27  OA
BRANCH 40 42
ATOM     42  CA  ALA D   1       7.777   5.291  37.090  1.00 12.65 LIG 0.17  C 
ATOM     43  CB  ALA D   1       8.271   6.755  37.049  1.00 13.08 LIG 0.04  C 
BRANCH 42 44
ATOM     44  N   ALA D   1       8.934   4.408  36.887  1.00 12.52 LIG-0.35  N 
ATOM     45  C   ACE D   0      10.265   4.432  37.644  1.00 13.59 LIG 0.21  C 
ATOM     46 O    ACE D   0      10.329   5.341  38.533  1.00 14.78 LIG-0.27  OA
ATOM     47  CH3 ACE D   0      11.336   3.436  37.291  1.00 14.73 LIG 0.12  C 
ATOM     48 H    ALA D   1       8.790   3.835  36.261  1.00 12.52 LIG 0.16  HD
ENDBRANCH 42 44
ENDBRANCH 40 42
ENDBRANCH 1 38
TORSDOF 19
ENDMDL
MODEL 10
USER: ADFR SOLUTION from run 46
USER: SCORE 15.868518 LL:  -2.307 LR: -14.561 RR:   0.000 FEB:  -8.893
USER: RMSD 6.590706
USER: SEED 45
USER: STATUS no improvement in best in 2 clusters for 5 generations
USER: GENES 21
USER: genes 0 Translation |==|  0.58863 0.35720 0.36145
USER: genes 1 Rotation |==|  0.13935 0.40714 0.67854 0.78184
USER: genes 2 Torsion [N]-CA--C-[N] |==|  0.51436
USER: genes 3 Torsion [C]-N--CA-[C] |==|  0.67480
USER: genes 4 Torsion [N]-CA--C-[N] |==|  0.09430
USER: genes 5 Torsion [C]-N--CA-[CB] |==|  0.54344
USER: genes 6 Torsion [N]-CA--C-[O] |==|  0.53732
USER: genes 7 Torsion [N]-CA--CB-[CG] |==|  0.13539
USER: genes 8 Torsion [CA]-CB--CG-[CD] |==|  0.40420
USER: genes 9 Torsion [CB]-CG--CD-[CE] |==|  0.38543
USER: genes 10 Torsion [CG]-CD--CE-[NZ] |==|  0.33657
USER: genes 11 Torsion [CD]-CE--NZ-[HZ1] |==|  0.33634
USER: genes 12 Torsion [N]-CA--CB-[CG2] |==|  0.19314
USER: genes 13 Torsion [CA]-CB--OG1-[HG1] |==|  0.41170
USER: genes 14 Torsion [C]-CA--CB-[CG] |==|  0.94324
USER: genes 15 Torsion [CA]-CB--CG-[CD] |==|  0.49491
USER: genes 16 Torsion [CB]-CG--CD-[NE] |==|  0.69226
USER: genes 17 Torsion [CG]-CD--NE-[CZ] |==|  0.47939
USER: genes 18 Torsion [C]-CA--N-[C] |==|  0.52811
USER: genes 19 Torsion [N]-C--CA-[N] |==|  0.06124
USER: genes 20 Torsion [C]-CA--N-[C] |==|  0.15731
ROOT
ATOM      1  CA  ARG D   2       6.638   5.168  31.158  1.00  9.56 LIG 0.18  C 
ENDROOT
BRANCH 1 2
ATOM      2  C   ARG D   2       6.103   4.430  32.414  1.00 11.06 LIG 0.24  C 
ATOM      3  N   THR D   3       6.039   5.142  33.535  1.00 11.45 LIG-0.34  N 
ATOM      4 H    THR D   3       6.221   5.980  33.597  1.00 11.45 LIG 0.16  HD
ATOM      5 O    ARG D   2       5.716   3.251  32.360  1.00  9.90 LIG-0.27  OA
BRANCH 3 6
ATOM      6  CA  THR D   3       5.639   4.506  34.764  1.00 13.43 LIG 0.20  C 
BRANCH 6 7
ATOM      7  C   THR D   3       4.347   5.089  35.318  1.00 15.00 LIG 0.24  C 
ATOM      8  N   LYS D   4       3.434   5.500  34.414  1.00 14.79 LIG-0.35  N 
ATOM      9 H    LYS D   4       3.520   5.401  33.564  1.00 14.79 LIG 0.16  HD
ATOM     10 O    THR D   3       4.209   5.169  36.554  1.00 15.79 LIG-0.27  OA
BRANCH 8 11
ATOM     11  CA  LYS D   4       2.168   6.176  34.833  1.00 18.13 LIG 0.16  C 
BRANCH 11 12
ATOM     12  C   LYS D   4       1.489   5.542  36.040  1.00 20.20 LIG 0.22  C 
ATOM     13 O    LYS D   4       0.303   5.904  36.267  1.00 21.26 LIG-0.29  OA
ENDBRANCH 11 12
BRANCH 11 14
ATOM     14  CB  LYS D   4       1.161   6.174  33.654  1.00 18.02 LIG 0.03  C 
BRANCH 14 15
ATOM     15  CG  LYS D   4       1.006   4.816  33.007  1.00 21.48 LIG 0.00  C 
BRANCH 15 16
ATOM     16  CD  LYS D   4      -0.403   4.572  32.523  1.00 25.56 LIG 0.03  C 
BRANCH 16 17
ATOM     17  CE  LYS D   4      -0.374   3.879  31.141  1.00 25.12 LIG 0.23  C 
BRANCH 17 18
ATOM     18  NZ  LYS D   4      -1.090   2.538  31.151  1.00 20.07 LIG-0.08  N 
ATOM     19 HZ1  LYS D   4      -1.752   2.550  30.556  1.00 20.07 LIG 0.27  HD
ATOM     20 HZ2  LYS D   4      -0.515   1.893  30.940  1.00 20.07 LIG 0.27  HD
ATOM     21 HZ3  LYS D   4      -1.424   2.385  31.962  1.00 20.07 LIG 0.27  HD
ENDBRANCH 17 18
ENDBRANCH 16 17
ENDBRANCH 15 16
ENDBRANCH 14 15
ENDBRANCH 11 14
ENDBRANCH 8 11
ENDBRANCH 6 7
BRANCH 6 22
ATOM     22  CB  THR D   3       6.765   4.535  35.860  1.00 14.57 LIG 0.15  C 
ATOM     23  CG2 THR D   3       6.992   5.983  36.386  1.00 14.25 LIG 0.04  C 
BRANCH 22 24
ATOM     24 OG1  THR D   3       6.410   3.670  36.950  1.00 15.86 LIG-0.39  OA
ATOM     25 HG1  THR D   3       7.107   3.343  37.287  1.00 15.86 LIG 0.21  HD
ENDBRANCH 22 24
ENDBRANCH 6 22
ENDBRANCH 3 6
ENDBRANCH 1 2
BRANCH 1 26
ATOM     26  CB  ARG D   2       5.936   6.516  30.913  1.00  9.49 LIG 0.04  C 
BRANCH 26 27
ATOM     27  CG  ARG D   2       4.544   6.582  31.648  1.00 10.73 LIG 0.02  C 
BRANCH 27 28
ATOM     28  CD  ARG D   2       3.935   7.969  31.390  1.00 10.86 LIG 0.14  C 
BRANCH 28 29
ATOM     29  NE  ARG D   2       3.908   8.768  32.589  1.00 10.69 LIG-0.23  N 
ATOM     30  CZ  ARG D   2       3.562  10.084  32.652  1.00  9.43 LIG 0.67  C 
ATOM     31  NH1 ARG D   2       3.248  10.795  31.559  1.00 10.34 LIG-0.23  N 
ATOM     32  NH2 ARG D   2       3.634  10.708  33.808  1.00 11.18 LIG-0.23  N 
ATOM     33 2HH1 ARG D   2       3.034  11.625  31.633  1.00 10.34 LIG 0.17  HD
ATOM     34 1HH1 ARG D   2       3.261  10.422  30.784  1.00 10.34 LIG 0.17  HD
ATOM     35 2HH2 ARG D   2       3.419  11.539  33.862  1.00 11.18 LIG 0.17  HD
ATOM     36 1HH2 ARG D   2       3.897  10.286  34.509  1.00 11.18 LIG 0.17  HD
ATOM     37 HE   ARG D   2       4.128   8.382  33.325  1.00 10.69 LIG 0.18  HD
ENDBRANCH 28 29
ENDBRANCH 27 28
ENDBRANCH 26 27
ENDBRANCH 1 26
BRANCH 1 38
ATOM     38  N   ARG D   2       6.542   4.306  29.968  1.00  9.04 LIG-0.35  N 
ATOM     39 H    ARG D   2       6.091   3.583  30.078  1.00  9.04 LIG 0.16  HD
ATOM     40  C   ALA D   1       7.134   4.671  28.818  1.00 11.17 LIG 0.24  C 
ATOM     41 O    ALA D   1       7.762   5.726  28.730  1.00 13.49 LIG-0.27  OA
BRANCH 40 42
ATOM     42  CA  ALA D   1       6.965   3.782  27.602  1.00 12.65 LIG 0.17  C 
ATOM     43  CB  ALA D   1       6.877   4.604  26.296  1.00 13.08 LIG 0.04  C 
BRANCH 42 44
ATOM     44  N   ALA D   1       5.780   2.917  27.682  1.00 12.52 LIG-0.35  N 
ATOM     45  C   ACE D   0       4.325   3.351  27.883  1.00 13.59 LIG 0.21  C 
ATOM     46 O    ACE D   0       4.180   4.611  27.994  1.00 14.78 LIG-0.27  OA
ATOM     47  CH3 ACE D   0       3.242   2.308  27.936  1.00 14.73 LIG 0.12  C 
ATOM     48 H    ALA D   1       5.987   2.086  27.602  1.00 12.52 LIG 0.16  HD
ENDBRANCH 42 44
ENDBRANCH 40 42
ENDBRANCH 1 38
TORSDOF 19
ENDMDL
MODEL 11
USER: ADFR SOLUTION from run 108
USER: SCORE 17.030466 LL:  -2.651 LR: -14.541 RR:   0.000 FEB:  -8.873
USER: RMSD 4.965930
USER: SEED 107
USER: STATUS searching
USER: GENES 21
USER: genes 0 Translation |==|  0.51940 0.32638 0.53395
USER: genes 1 Rotation |==|  0.30374 0.65325 0.18247 0.79524
USER: genes 2 Torsion [N]-CA--C-[N] |==|  0.99380
USER: genes 3 Torsion [C]-N--CA-[C] |==|  0.83889
USER: genes 4 Torsion [N]-CA--C-[N] |==|  0.94393
USER: genes 5 Torsion [C]-N--CA-[CB] |==|  0.47707
USER: genes 6 Torsion [N]-CA--C-[O] |==|  0.24885
USER: genes 7 Torsion [N]-CA--CB-[CG] |==|  0.85758
USER: genes 8 Torsion [CA]-CB--CG-[CD] |==|  0.39563
USER: genes 9 Torsion [CB]-CG--CD-[CE] |==|  0.37106
USER: genes 10 Torsion [CG]-CD--CE-[NZ] |==|  0.64810
USER: genes 11 Torsion [CD]-CE--NZ-[HZ1] |==|  0.45799
USER: genes 12 Torsion [N]-CA--CB-[CG2] |==|  0.18326
USER: genes 13 Torsion [CA]-CB--OG1-[HG1] |==|  0.37851
USER: genes 14 Torsion [C]-CA--CB-[CG] |==|  0.98494
USER: genes 15 Torsion [CA]-CB--CG-[CD] |==|  0.41457
USER: genes 16 Torsion [CB]-CG--CD-[NE] |==|  0.27539
USER: genes 17 Torsion [CG]-CD--NE-[CZ] |==|  0.23496
USER: genes 18 Torsion [C]-CA--N-[C] |==|  0.77437
USER: genes 19 Torsion [N]-C--CA-[N] |==|  0.00341
USER: genes 20 Torsion [C]-CA--N-[C] |==|  0.75095
ROOT
ATOM      1  CA  ARG D   2       5.288   4.682  34.134  1.00  9.56 LIG 0.18  C 
ENDROOT
BRANCH 1 2
ATOM      2  C   ARG D   2       4.607   5.996  34.603  1.00 11.06 LIG 0.24  C 
ATOM      3  N   THR D   3       4.517   6.969  33.702  1.00 11.45 LIG-0.34  N 
ATOM      4 H    THR D   3       4.759   6.903  32.879  1.00 11.45 LIG 0.16  HD
ATOM      5 O    ARG D   2       4.135   6.111  35.745  1.00  9.90 LIG-0.27  OA
BRANCH 3 6
ATOM      6  CA  THR D   3       3.981   8.250  34.084  1.00 13.43 LIG 0.20  C 
BRANCH 6 7
ATOM      7  C   THR D   3       2.569   8.138  34.640  1.00 15.00 LIG 0.24  C 
ATOM      8  N   LYS D   4       1.882   7.022  34.322  1.00 14.79 LIG-0.35  N 
ATOM      9 H    LYS D   4       2.212   6.364  33.878  1.00 14.79 LIG 0.16  HD
ATOM     10 O    THR D   3       2.125   9.072  35.335  1.00 15.79 LIG-0.27  OA
BRANCH 8 11
ATOM     11  CA  LYS D   4       0.455   6.840  34.729  1.00 18.13 LIG 0.16  C 
BRANCH 11 12
ATOM     12  C   LYS D   4       0.242   6.715  36.232  1.00 20.20 LIG 0.22  C 
ATOM     13 O    LYS D   4       0.051   7.791  36.861  1.00 21.26 LIG-0.29  OA
ENDBRANCH 11 12
BRANCH 11 14
ATOM     14  CB  LYS D   4      -0.123   5.572  34.051  1.00 18.02 LIG 0.03  C 
BRANCH 14 15
ATOM     15  CG  LYS D   4       0.103   5.542  32.557  1.00 21.48 LIG 0.00  C 
BRANCH 15 16
ATOM     16  CD  LYS D   4       0.410   4.152  32.053  1.00 25.56 LIG 0.03  C 
BRANCH 16 17
ATOM     17  CE  LYS D   4      -0.431   3.848  30.792  1.00 25.12 LIG 0.23  C 
BRANCH 17 18
ATOM     18  NZ  LYS D   4      -1.220   2.556  30.918  1.00 20.07 LIG-0.08  N 
ATOM     19 HZ1  LYS D   4      -1.845   2.527  30.285  1.00 20.07 LIG 0.27  HD
ATOM     20 HZ2  LYS D   4      -0.671   1.862  30.824  1.00 20.07 LIG 0.27  HD
ATOM     21 HZ3  LYS D   4      -1.608   2.522  31.719  1.00 20.07 LIG 0.27  HD
ENDBRANCH 17 18
ENDBRANCH 16 17
ENDBRANCH 15 16
ENDBRANCH 14 15
ENDBRANCH 11 14
ENDBRANCH 8 11
ENDBRANCH 6 7
BRANCH 6 22
ATOM     22  CB  THR D   3       4.027   9.303  32.918  1.00 14.57 LIG 0.15  C 
ATOM     23  CG2 THR D   3       3.082   8.883  31.753  1.00 14.25 LIG 0.04  C 
BRANCH 22 24
ATOM     24 OG1  THR D   3       3.648  10.597  33.412  1.00 15.86 LIG-0.39  OA
ATOM     25 HG1  THR D   3       4.170  11.179  33.104  1.00 15.86 LIG 0.21  HD
ENDBRANCH 22 24
ENDBRANCH 6 22
ENDBRANCH 3 6
ENDBRANCH 1 2
BRANCH 1 26
ATOM     26  CB  ARG D   2       6.505   4.299  34.996  1.00  9.49 LIG 0.04  C 
BRANCH 26 27
ATOM     27  CG  ARG D   2       6.833   5.417  36.058  1.00 10.73 LIG 0.02  C 
BRANCH 27 28
ATOM     28  CD  ARG D   2       7.442   4.735  37.294  1.00 10.86 LIG 0.14  C 
BRANCH 28 29
ATOM     29  NE  ARG D   2       8.879   4.828  37.297  1.00 10.69 LIG-0.23  N 
ATOM     30  CZ  ARG D   2       9.600   5.884  37.764  1.00  9.43 LIG 0.67  C 
ATOM     31  NH1 ARG D   2       9.017   6.995  38.240  1.00 10.34 LIG-0.23  N 
ATOM     32  NH2 ARG D   2      10.911   5.861  37.655  1.00 11.18 LIG-0.23  N 
ATOM     33 2HH1 ARG D   2       9.501   7.645  38.528  1.00 10.34 LIG 0.17  HD
ATOM     34 1HH1 ARG D   2       8.159   7.057  38.257  1.00 10.34 LIG 0.17  HD
ATOM     35 2HH2 ARG D   2      11.379   6.522  37.947  1.00 11.18 LIG 0.17  HD
ATOM     36 1HH2 ARG D   2      11.301   5.186  37.293  1.00 11.18 LIG 0.17  HD
ATOM     37 HE   ARG D   2       9.318   4.161  36.976  1.00 10.69 LIG 0.18  HD
ENDBRANCH 28 29
ENDBRANCH 27 28
ENDBRANCH 26 27
ENDBRANCH 1 26
BRANCH 1 38
ATOM     38  N   ARG D   2       5.664   4.770  32.713  1.00  9.04 LIG-0.35  N 
ATOM     39 H    ARG D   2       6.488   4.966  32.565  1.00  9.04 LIG 0.16  HD
ATOM     40  C   ALA D   1       4.747   4.550  31.755  1.00 11.17 LIG 0.24  C 
ATOM     41 O    ALA D   1       3.584   4.268  32.038  1.00 13.49 LIG-0.27  OA
BRANCH 40 42
ATOM     42  CA  ALA D   1       5.189   4.597  30.305  1.00 12.65 LIG 0.17  C 
ATOM     43  CB  ALA D   1       4.853   3.286  29.559  1.00 13.08 LIG 0.04  C 
BRANCH 42 44
ATOM     44  N   ALA D   1       6.625   4.862  30.150  1.00 12.52 LIG-0.35  N 
ATOM     45  C   ACE D   0       7.311   6.226  30.030  1.00 13.59 LIG 0.21  C 
ATOM     46 O    ACE D   0       6.501   7.208  30.066  1.00 14.78 LIG-0.27  OA
ATOM     47  CH3 ACE D   0       8.807   6.292  29.879  1.00 14.73 LIG 0.12  C 
ATOM     48 H    ALA D   1       7.082   4.133  30.130  1.00 12.52 LIG 0.16  HD
ENDBRANCH 42 44
ENDBRANCH 40 42
ENDBRANCH 1 38
TORSDOF 19
ENDMDL
MODEL 12
USER: ADFR SOLUTION from run 163
USER: SCORE 15.130982 LL:  -2.361 LR: -14.528 RR:   0.000 FEB:  -8.860
USER: RMSD 6.908047
USER: SEED 162
USER: STATUS no improvement in best in 4 clusters for 5 generations
USER: GENES 21
USER: genes 0 Translation |==|  0.56859 0.36480 0.31672
USER: genes 1 Rotation |==|  0.14839 0.42579 0.71389 0.77407
USER: genes 2 Torsion [N]-CA--C-[N] |==|  0.65429
USER: genes 3 Torsion [C]-N--CA-[C] |==|  0.55927
USER: genes 4 Torsion [N]-CA--C-[N] |==|  0.98680
USER: genes 5 Torsion [C]-N--CA-[CB] |==|  0.82774
USER: genes 6 Torsion [N]-CA--C-[O] |==|  0.11828
USER: genes 7 Torsion [N]-CA--CB-[CG] |==|  0.76345
USER: genes 8 Torsion [CA]-CB--CG-[CD] |==|  0.25292
USER: genes 9 Torsion [CB]-CG--CD-[CE] |==|  0.51323
USER: genes 10 Torsion [CG]-CD--CE-[NZ] |==|  0.70918
USER: genes 11 Torsion [CD]-CE--NZ-[HZ1] |==|  0.10282
USER: genes 12 Torsion [N]-CA--CB-[CG2] |==|  0.25482
USER: genes 13 Torsion [CA]-CB--OG1-[HG1] |==|  0.34725
USER: genes 14 Torsion [C]-CA--CB-[CG] |==|  0.34973
USER: genes 15 Torsion [CA]-CB--CG-[CD] |==|  0.66494
USER: genes 16 Torsion [CB]-CG--CD-[NE] |==|  0.77809
USER: genes 17 Torsion [CG]-CD--NE-[CZ] |==|  0.47191
USER: genes 18 Torsion [C]-CA--N-[C] |==|  0.20313
USER: genes 19 Torsion [N]-C--CA-[N] |==|  0.98831
USER: genes 20 Torsion [C]-CA--N-[C] |==|  0.80159
ROOT
ATOM      1  CA  ARG D   2       6.247   5.288  30.387  1.00  9.56 LIG 0.18  C 
ENDROOT
BRANCH 1 2
ATOM      2  C   ARG D   2       5.942   4.603  31.746  1.00 11.06 LIG 0.24  C 
ATOM      3  N   THR D   3       5.056   5.213  32.528  1.00 11.45 LIG-0.34  N 
ATOM      4 H    THR D   3       4.613   5.918  32.314  1.00 11.45 LIG 0.16  HD
ATOM      5 O    ARG D   2       6.465   3.522  32.062  1.00  9.90 LIG-0.27  OA
BRANCH 3 6
ATOM      6  CA  THR D   3       4.785   4.691  33.842  1.00 13.43 LIG 0.20  C 
BRANCH 6 7
ATOM      7  C   THR D   3       3.438   5.154  34.377  1.00 15.00 LIG 0.24  C 
ATOM      8  N   LYS D   4       2.758   6.038  33.618  1.00 14.79 LIG-0.35  N 
ATOM      9 H    LYS D   4       3.016   6.303  32.841  1.00 14.79 LIG 0.16  HD
ATOM     10 O    THR D   3       3.047   4.714  35.476  1.00 15.79 LIG-0.27  OA
BRANCH 8 11
ATOM     11  CA  LYS D   4       1.470   6.638  34.081  1.00 18.13 LIG 0.16  C 
BRANCH 11 12
ATOM     12  C   LYS D   4       1.576   7.426  35.379  1.00 20.20 LIG 0.22  C 
ATOM     13 O    LYS D   4       2.582   8.178  35.496  1.00 21.26 LIG-0.29  OA
ENDBRANCH 11 12
BRANCH 11 14
ATOM     14  CB  LYS D   4       0.414   5.520  34.278  1.00 18.02 LIG 0.03  C 
BRANCH 14 15
ATOM     15  CG  LYS D   4      -0.315   5.161  33.003  1.00 21.48 LIG 0.00  C 
BRANCH 15 16
ATOM     16  CD  LYS D   4       0.366   4.042  32.252  1.00 25.56 LIG 0.03  C 
BRANCH 16 17
ATOM     17  CE  LYS D   4      -0.351   3.797  30.904  1.00 25.12 LIG 0.23  C 
BRANCH 17 18
ATOM     18  NZ  LYS D   4      -1.210   2.543  30.923  1.00 20.07 LIG-0.08  N 
ATOM     19 HZ1  LYS D   4      -1.592   2.456  31.722  1.00 20.07 LIG 0.27  HD
ATOM     20 HZ2  LYS D   4      -1.840   2.605  30.298  1.00 20.07 LIG 0.27  HD
ATOM     21 HZ3  LYS D   4      -0.700   1.832  30.760  1.00 20.07 LIG 0.27  HD
ENDBRANCH 17 18
ENDBRANCH 16 17
ENDBRANCH 15 16
ENDBRANCH 14 15
ENDBRANCH 11 14
ENDBRANCH 8 11
ENDBRANCH 6 7
BRANCH 6 22
ATOM     22  CB  THR D   3       5.925   5.017  34.875  1.00 14.57 LIG 0.15  C 
ATOM     23  CG2 THR D   3       5.630   6.350  35.624  1.00 14.25 LIG 0.04  C 
BRANCH 22 24
ATOM     24 OG1  THR D   3       6.050   3.943  35.821  1.00 15.86 LIG-0.39  OA
ATOM     25 HG1  THR D   3       6.844   3.667  35.828  1.00 15.86 LIG 0.21  HD
ENDBRANCH 22 24
ENDBRANCH 6 22
ENDBRANCH 3 6
ENDBRANCH 1 2
BRANCH 1 26
ATOM     26  CB  ARG D   2       5.453   6.590  30.182  1.00  9.49 LIG 0.04  C 
BRANCH 26 27
ATOM     27  CG  ARG D   2       6.406   7.799  29.844  1.00 10.73 LIG 0.02  C 
BRANCH 27 28
ATOM     28  CD  ARG D   2       6.211   8.875  30.925  1.00 10.86 LIG 0.14  C 
BRANCH 28 29
ATOM     29  NE  ARG D   2       5.030   9.662  30.684  1.00 10.69 LIG-0.23  N 
ATOM     30  CZ  ARG D   2       4.484  10.554  31.557  1.00  9.43 LIG 0.67  C 
ATOM     31  NH1 ARG D   2       4.988  10.754  32.784  1.00 10.34 LIG-0.23  N 
ATOM     32  NH2 ARG D   2       3.367  11.167  31.230  1.00 11.18 LIG-0.23  N 
ATOM     33 2HH1 ARG D   2       4.621  11.325  33.312  1.00 10.34 LIG 0.17  HD
ATOM     34 1HH1 ARG D   2       5.679  10.312  33.043  1.00 10.34 LIG 0.17  HD
ATOM     35 2HH2 ARG D   2       3.012  11.733  31.772  1.00 11.18 LIG 0.17  HD
ATOM     36 1HH2 ARG D   2       2.992  11.003  30.474  1.00 11.18 LIG 0.17  HD
ATOM     37 HE   ARG D   2       4.636   9.561  29.926  1.00 10.69 LIG 0.18  HD
ENDBRANCH 28 29
ENDBRANCH 27 28
ENDBRANCH 26 27
ENDBRANCH 1 26
BRANCH 1 38
ATOM     38  N   ARG D   2       6.015   4.355  29.271  1.00  9.04 LIG-0.35  N 
ATOM     39 H    ARG D   2       6.727   4.056  28.892  1.00  9.04 LIG 0.16  HD
ATOM     40  C   ALA D   1       4.762   4.028  28.911  1.00 11.17 LIG 0.24  C 
ATOM     41 O    ALA D   1       3.787   4.491  29.502  1.00 13.49 LIG-0.27  OA
BRANCH 40 42
ATOM     42  CA  ALA D   1       4.569   3.023  27.792  1.00 12.65 LIG 0.17  C 
ATOM     43  CB  ALA D   1       3.823   1.759  28.278  1.00 13.08 LIG 0.04  C 
BRANCH 42 44
ATOM     44  N   ALA D   1       5.832   2.603  27.172  1.00 12.52 LIG-0.35  N 
ATOM     45  C   ACE D   0       6.740   3.434  26.259  1.00 13.59 LIG 0.21  C 
ATOM     46 O    ACE D   0       6.303   4.609  26.039  1.00 14.78 LIG-0.27  OA
ATOM     47  CH3 ACE D   0       8.005   2.824  25.720  1.00 14.73 LIG 0.12  C 
ATOM     48 H    ALA D   1       6.034   1.793  27.378  1.00 12.52 LIG 0.16  HD
ENDBRANCH 42 44
ENDBRANCH 40 42
ENDBRANCH 1 38
TORSDOF 19
ENDMDL
MODEL 13
USER: ADFR SOLUTION from run 144
USER: SCORE 15.569079 LL:  -2.080 LR: -14.415 RR:   0.000 FEB:  -8.747
USER: RMSD 4.916819
USER: SEED 143
USER: STATUS no improvement in best in 5 clusters for 5 generations
USER: GENES 21
USER: genes 0 Translation |==|  0.47130 0.34836 0.49135
USER: genes 1 Rotation |==|  0.20664 0.46108 0.41572 0.89411
USER: genes 2 Torsion [N]-CA--C-[N] |==|  0.76771
USER: genes 3 Torsion [C]-N--CA-[C] |==|  0.59789
USER: genes 4 Torsion [N]-CA--C-[N] |==|  0.44267
USER: genes 5 Torsion [C]-N--CA-[CB] |==|  0.19757
USER: genes 6 Torsion [N]-CA--C-[O] |==|  0.17618
USER: genes 7 Torsion [N]-CA--CB-[CG] |==|  0.14132
USER: genes 8 Torsion [CA]-CB--CG-[CD] |==|  0.65330
USER: genes 9 Torsion [CB]-CG--CD-[CE] |==|  0.52225
USER: genes 10 Torsion [CG]-CD--CE-[NZ] |==|  0.86574
USER: genes 11 Torsion [CD]-CE--NZ-[HZ1] |==|  0.67285
USER: genes 12 Torsion [N]-CA--CB-[CG2] |==|  0.88275
USER: genes 13 Torsion [CA]-CB--OG1-[HG1] |==|  0.98144
USER: genes 14 Torsion [C]-CA--CB-[CG] |==|  0.09832
USER: genes 15 Torsion [CA]-CB--CG-[CD] |==|  0.35363
USER: genes 16 Torsion [CB]-CG--CD-[NE] |==|  0.70547
USER: genes 17 Torsion [CG]-CD--NE-[CZ] |==|  0.25013
USER: genes 18 Torsion [C]-CA--N-[C] |==|  0.63345
USER: genes 19 Torsion [N]-C--CA-[N] |==|  0.35506
USER: genes 20 Torsion [C]-CA--N-[C] |==|  0.79577
ROOT
ATOM      1  CA  ARG D   2       4.350   5.029  33.399  1.00  9.56 LIG 0.18  C 
ENDROOT
BRANCH 1 2
ATOM      2  C   ARG D   2       2.855   4.777  33.733  1.00 11.06 LIG 0.24  C 
ATOM      3  N   THR D   3       2.062   5.844  33.731  1.00 11.45 LIG-0.34  N 
ATOM      4 H    THR D   3       2.306   6.638  33.512  1.00 11.45 LIG 0.16  HD
ATOM      5 O    ARG D   2       2.421   3.633  33.945  1.00  9.90 LIG-0.27  OA
BRANCH 3 6
ATOM      6  CA  THR D   3       0.682   5.708  34.119  1.00 13.43 LIG 0.20  C 
BRANCH 6 7
ATOM      7  C   THR D   3      -0.231   6.628  33.323  1.00 15.00 LIG 0.24  C 
ATOM      8  N   LYS D   4      -1.538   6.296  33.283  1.00 14.79 LIG-0.35  N 
ATOM      9 H    LYS D   4      -1.880   5.639  33.720  1.00 14.79 LIG 0.16  HD
ATOM     10 O    THR D   3       0.269   7.614  32.746  1.00 15.79 LIG-0.27  OA
BRANCH 8 11
ATOM     11  CA  LYS D   4      -2.516   7.067  32.457  1.00 18.13 LIG 0.16  C 
BRANCH 11 12
ATOM     12  C   LYS D   4      -3.976   6.758  32.762  1.00 20.20 LIG 0.22  C 
ATOM     13 O    LYS D   4      -4.376   7.045  33.923  1.00 21.26 LIG-0.29  OA
ENDBRANCH 11 12
BRANCH 11 14
ATOM     14  CB  LYS D   4      -2.266   6.784  30.954  1.00 18.02 LIG 0.03  C 
BRANCH 14 15
ATOM     15  CG  LYS D   4      -2.197   5.310  30.629  1.00 21.48 LIG 0.00  C 
BRANCH 15 16
ATOM     16  CD  LYS D   4      -0.914   4.938  29.925  1.00 25.56 LIG 0.03  C 
BRANCH 16 17
ATOM     17  CE  LYS D   4      -0.982   3.472  29.441  1.00 25.12 LIG 0.23  C 
BRANCH 17 18
ATOM     18  NZ  LYS D   4      -1.459   2.523  30.528  1.00 20.07 LIG-0.08  N 
ATOM     19 HZ1  LYS D   4      -0.818   1.933  30.710  1.00 20.07 LIG 0.27  HD
ATOM     20 HZ2  LYS D   4      -1.652   2.986  31.263  1.00 20.07 LIG 0.27  HD
ATOM     21 HZ3  LYS D   4      -2.187   2.093  30.249  1.00 20.07 LIG 0.27  HD
ENDBRANCH 17 18
ENDBRANCH 16 17
ENDBRANCH 15 16
ENDBRANCH 14 15
ENDBRANCH 11 14
ENDBRANCH 8 11
ENDBRANCH 6 7
BRANCH 6 22
ATOM     22  CB  THR D   3       0.458   5.917  35.661  1.00 14.57 LIG 0.15  C 
ATOM     23  CG2 THR D   3       1.571   5.205  36.485  1.00 14.25 LIG 0.04  C 
BRANCH 22 24
ATOM     24 OG1  THR D   3       0.446   7.320  35.969  1.00 15.86 LIG-0.39  OA
ATOM     25 HG1  THR D   3       0.651   7.759  35.283  1.00 15.86 LIG 0.21  HD
ENDBRANCH 22 24
ENDBRANCH 6 22
ENDBRANCH 3 6
ENDBRANCH 1 2
BRANCH 1 26
ATOM     26  CB  ARG D   2       4.903   6.305  34.060  1.00  9.49 LIG 0.04  C 
BRANCH 26 27
ATOM     27  CG  ARG D   2       4.270   6.536  35.484  1.00 10.73 LIG 0.02  C 
BRANCH 27 28
ATOM     28  CD  ARG D   2       5.416   6.722  36.491  1.00 10.86 LIG 0.14  C 
BRANCH 28 29
ATOM     29  NE  ARG D   2       5.585   5.560  37.325  1.00 10.69 LIG-0.23  N 
ATOM     30  CZ  ARG D   2       6.393   4.499  37.046  1.00  9.43 LIG 0.67  C 
ATOM     31  NH1 ARG D   2       7.096   4.415  35.906  1.00 10.34 LIG-0.23  N 
ATOM     32  NH2 ARG D   2       6.410   3.475  37.871  1.00 11.18 LIG-0.23  N 
ATOM     33 2HH1 ARG D   2       7.597   3.732  35.760  1.00 10.34 LIG 0.17  HD
ATOM     34 1HH1 ARG D   2       7.045   5.044  35.322  1.00 10.34 LIG 0.17  HD
ATOM     35 2HH2 ARG D   2       6.916   2.799  37.707  1.00 11.18 LIG 0.17  HD
ATOM     36 1HH2 ARG D   2       5.916   3.481  38.574  1.00 11.18 LIG 0.17  HD
ATOM     37 HE   ARG D   2       5.138   5.533  38.059  1.00 10.69 LIG 0.18  HD
ENDBRANCH 28 29
ENDBRANCH 27 28
ENDBRANCH 26 27
ENDBRANCH 1 26
BRANCH 1 38
ATOM     38  N   ARG D   2       4.559   5.065  31.942  1.00  9.04 LIG-0.35  N 
ATOM     39 H    ARG D   2       4.007   5.560  31.507  1.00  9.04 LIG 0.16  HD
ATOM     40  C   ALA D   1       5.556   4.358  31.383  1.00 11.17 LIG 0.24  C 
ATOM     41 O    ALA D   1       6.315   3.673  32.067  1.00 13.49 LIG-0.27  OA
BRANCH 40 42
ATOM     42  CA  ALA D   1       5.770   4.466  29.885  1.00 12.65 LIG 0.17  C 
ATOM     43  CB  ALA D   1       5.376   3.163  29.153  1.00 13.08 LIG 0.04  C 
BRANCH 42 44
ATOM     44  N   ALA D   1       7.154   4.797  29.524  1.00 12.52 LIG-0.35  N 
ATOM     45  C   ACE D   0       7.855   6.151  29.676  1.00 13.59 LIG 0.21  C 
ATOM     46 O    ACE D   0       7.109   7.058  30.166  1.00 14.78 LIG-0.27  OA
ATOM     47  CH3 ACE D   0       9.291   6.293  29.248  1.00 14.73 LIG 0.12  C 
ATOM     48 H    ALA D   1       7.569   4.118  29.197  1.00 12.52 LIG 0.16  HD
ENDBRANCH 42 44
ENDBRANCH 40 42
ENDBRANCH 1 38
TORSDOF 19
ENDMDL
MODEL 14
USER: ADFR SOLUTION from run 132
USER: SCORE 15.958507 LL:  -2.392 LR: -14.390 RR:   0.000 FEB:  -8.723
USER: RMSD 4.593362
USER: SEED 131
USER: STATUS no improvement in best in 4 clusters for 5 generations
USER: GENES 21
USER: genes 0 Translation |==|  0.44554 0.32447 0.59953
USER: genes 1 Rotation |==|  0.27993 0.55486 0.28846 0.89219
USER: genes 2 Torsion [N]-CA--C-[N] |==|  0.96970
USER: genes 3 Torsion [C]-N--CA-[C] |==|  0.59152
USER: genes 4 Torsion [N]-CA--C-[N] |==|  0.44711
USER: genes 5 Torsion [C]-N--CA-[CB] |==|  0.19986
USER: genes 6 Torsion [N]-CA--C-[O] |==|  0.88053
USER: genes 7 Torsion [N]-CA--CB-[CG] |==|  0.73232
USER: genes 8 Torsion [CA]-CB--CG-[CD] |==|  0.31691
USER: genes 9 Torsion [CB]-CG--CD-[CE] |==|  0.30753
USER: genes 10 Torsion [CG]-CD--CE-[NZ] |==|  0.69955
USER: genes 11 Torsion [CD]-CE--NZ-[HZ1] |==|  0.36427
USER: genes 12 Torsion [N]-CA--CB-[CG2] |==|  0.71358
USER: genes 13 Torsion [CA]-CB--OG1-[HG1] |==|  0.25650
USER: genes 14 Torsion [C]-CA--CB-[CG] |==|  0.48739
USER: genes 15 Torsion [CA]-CB--CG-[CD] |==|  0.55882
USER: genes 16 Torsion [CB]-CG--CD-[NE] |==|  0.58824
USER: genes 17 Torsion [CG]-CD--NE-[CZ] |==|  0.32497
USER: genes 18 Torsion [C]-CA--N-[C] |==|  0.23214
USER: genes 19 Torsion [N]-C--CA-[N] |==|  0.96642
USER: genes 20 Torsion [C]-CA--N-[C] |==|  0.82683
ROOT
ATOM      1  CA  ARG D   2       3.848   4.652  35.265  1.00  9.56 LIG 0.18  C 
ENDROOT
BRANCH 1 2
ATOM      2  C   ARG D   2       2.435   5.217  35.571  1.00 11.06 LIG 0.24  C 
ATOM      3  N   THR D   3       1.934   6.069  34.682  1.00 11.45 LIG-0.34  N 
ATOM      4 H    THR D   3       2.310   6.284  33.940  1.00 11.45 LIG 0.16  HD
ATOM      5 O    ARG D   2       1.793   4.855  36.571  1.00  9.90 LIG-0.27  OA
BRANCH 3 6
ATOM      6  CA  THR D   3       0.668   6.706  34.938  1.00 13.43 LIG 0.20  C 
BRANCH 6 7
ATOM      7  C   THR D   3      -0.118   6.956  33.660  1.00 15.00 LIG 0.24  C 
ATOM      8  N   LYS D   4      -1.442   7.171  33.797  1.00 14.79 LIG-0.35  N 
ATOM      9 H    LYS D   4      -1.844   7.226  34.555  1.00 14.79 LIG 0.16  HD
ATOM     10 O    THR D   3       0.489   6.935  32.571  1.00 15.79 LIG-0.27  OA
BRANCH 8 11
ATOM     11  CA  LYS D   4      -2.336   7.334  32.610  1.00 18.13 LIG 0.16  C 
BRANCH 11 12
ATOM     12  C   LYS D   4      -3.716   7.887  32.935  1.00 20.20 LIG 0.22  C 
ATOM     13 O    LYS D   4      -4.283   7.409  33.955  1.00 21.26 LIG-0.29  OA
ENDBRANCH 11 12
BRANCH 11 14
ATOM     14  CB  LYS D   4      -2.516   5.967  31.902  1.00 18.02 LIG 0.03  C 
BRANCH 14 15
ATOM     15  CG  LYS D   4      -1.576   5.774  30.733  1.00 21.48 LIG 0.00  C 
BRANCH 15 16
ATOM     16  CD  LYS D   4      -0.580   4.667  30.978  1.00 25.56 LIG 0.03  C 
BRANCH 16 17
ATOM     17  CE  LYS D   4      -0.887   3.465  30.055  1.00 25.12 LIG 0.23  C 
BRANCH 17 18
ATOM     18  NZ  LYS D   4      -1.465   2.282  30.815  1.00 20.07 LIG-0.08  N 
ATOM     19 HZ1  LYS D   4      -2.193   1.987  30.397  1.00 20.07 LIG 0.27  HD
ATOM     20 HZ2  LYS D   4      -0.861   1.630  30.853  1.00 20.07 LIG 0.27  HD
ATOM     21 HZ3  LYS D   4      -1.680   2.536  31.640  1.00 20.07 LIG 0.27  HD
ENDBRANCH 17 18
ENDBRANCH 16 17
ENDBRANCH 15 16
ENDBRANCH 14 15
ENDBRANCH 11 14
ENDBRANCH 8 11
ENDBRANCH 6 7
BRANCH 6 22
ATOM     22  CB  THR D   3       0.811   8.038  35.761  1.00 14.57 LIG 0.15  C 
ATOM     23  CG2 THR D   3       0.409   7.816  37.249  1.00 14.25 LIG 0.04  C 
BRANCH 22 24
ATOM     24 OG1  THR D   3       2.163   8.517  35.687  1.00 15.86 LIG-0.39  OA
ATOM     25 HG1  THR D   3       2.235   9.055  35.046  1.00 15.86 LIG 0.21  HD
ENDBRANCH 22 24
ENDBRANCH 6 22
ENDBRANCH 3 6
ENDBRANCH 1 2
BRANCH 1 26
ATOM     26  CB  ARG D   2       4.910   5.119  36.277  1.00  9.49 LIG 0.04  C 
BRANCH 26 27
ATOM     27  CG  ARG D   2       6.304   4.438  36.004  1.00 10.73 LIG 0.02  C 
BRANCH 27 28
ATOM     28  CD  ARG D   2       7.130   4.510  37.299  1.00 10.86 LIG 0.14  C 
BRANCH 28 29
ATOM     29  NE  ARG D   2       8.540   4.621  37.023  1.00 10.69 LIG-0.23  N 
ATOM     30  CZ  ARG D   2       9.329   5.678  37.363  1.00  9.43 LIG 0.67  C 
ATOM     31  NH1 ARG D   2       8.839   6.773  37.965  1.00 10.34 LIG-0.23  N 
ATOM     32  NH2 ARG D   2      10.593   5.675  37.000  1.00 11.18 LIG-0.23  N 
ATOM     33 2HH1 ARG D   2       9.364   7.423  38.167  1.00 10.34 LIG 0.17  HD
ATOM     34 1HH1 ARG D   2       8.001   6.823  38.150  1.00 10.34 LIG 0.17  HD
ATOM     35 2HH2 ARG D   2      11.103   6.336  37.208  1.00 11.18 LIG 0.17  HD
ATOM     36 1HH2 ARG D   2      10.911   5.012  36.555  1.00 11.18 LIG 0.17  HD
ATOM     37 HE   ARG D   2       8.914   3.966  36.610  1.00 10.69 LIG 0.18  HD
ENDBRANCH 28 29
ENDBRANCH 27 28
ENDBRANCH 26 27
ENDBRANCH 1 26
BRANCH 1 38
ATOM     38  N   ARG D   2       4.255   4.988  33.891  1.00  9.04 LIG-0.35  N 
ATOM     39 H    ARG D   2       4.114   4.373  33.308  1.00  9.04 LIG 0.16  HD
ATOM     40  C   ALA D   1       4.804   6.186  33.620  1.00 11.17 LIG 0.24  C 
ATOM     41 O    ALA D   1       4.973   7.024  34.504  1.00 13.49 LIG-0.27  OA
BRANCH 40 42
ATOM     42  CA  ALA D   1       5.160   6.512  32.183  1.00 12.65 LIG 0.17  C 
ATOM     43  CB  ALA D   1       4.237   7.605  31.597  1.00 13.08 LIG 0.04  C 
BRANCH 42 44
ATOM     44  N   ALA D   1       5.107   5.341  31.298  1.00 12.52 LIG-0.35  N 
ATOM     45  C   ACE D   0       5.960   4.071  31.386  1.00 13.59 LIG 0.21  C 
ATOM     46 O    ACE D   0       6.796   4.085  32.345  1.00 14.78 LIG-0.27  OA
ATOM     47  CH3 ACE D   0       5.754   2.971  30.380  1.00 14.73 LIG 0.12  C 
ATOM     48 H    ALA D   1       4.515   5.435  30.681  1.00 12.52 LIG 0.16  HD
ENDBRANCH 42 44
ENDBRANCH 40 42
ENDBRANCH 1 38
TORSDOF 19
ENDMDL
MODEL 15
USER: ADFR SOLUTION from run 19
USER: SCORE 16.224843 LL:  -2.994 LR: -14.319 RR:   0.000 FEB:  -8.651
USER: RMSD 6.031559
USER: SEED 18
USER: STATUS no improvement in best in 3 clusters for 5 generations
USER: GENES 21
USER: genes 0 Translation |==|  0.36206 0.48316 0.60815
USER: genes 1 Rotation |==|  0.48247 0.03571 0.63524 0.62585
USER: genes 2 Torsion [N]-CA--C-[N] |==|  0.05246
USER: genes 3 Torsion [C]-N--CA-[C] |==|  0.17213
USER: genes 4 Torsion [N]-CA--C-[N] |==|  0.11786
USER: genes 5 Torsion [C]-N--CA-[CB] |==|  0.47092
USER: genes 6 Torsion [N]-CA--C-[O] |==|  0.32005
USER: genes 7 Torsion [N]-CA--CB-[CG] |==|  0.60950
USER: genes 8 Torsion [CA]-CB--CG-[CD] |==|  0.88410
USER: genes 9 Torsion [CB]-CG--CD-[CE] |==|  0.77293
USER: genes 10 Torsion [CG]-CD--CE-[NZ] |==|  0.37172
USER: genes 11 Torsion [CD]-CE--NZ-[HZ1] |==|  0.01476
USER: genes 12 Torsion [N]-CA--CB-[CG2] |==|  0.57970
USER: genes 13 Torsion [CA]-CB--OG1-[HG1] |==|  0.71784
USER: genes 14 Torsion [C]-CA--CB-[CG] |==|  0.82660
USER: genes 15 Torsion [CA]-CB--CG-[CD] |==|  0.26994
USER: genes 16 Torsion [CB]-CG--CD-[NE] |==|  0.33864
USER: genes 17 Torsion [CG]-CD--NE-[CZ] |==|  0.82047
USER: genes 18 Torsion [C]-CA--N-[C] |==|  0.63004
USER: genes 19 Torsion [N]-C--CA-[N] |==|  0.96831
USER: genes 20 Torsion [C]-CA--N-[C] |==|  0.18889
ROOT
ATOM      1  CA  ARG D   2       2.220   7.152  35.414  1.00  9.56 LIG 0.18  C 
ENDROOT
BRANCH 1 2
ATOM      2  C   ARG D   2       3.487   6.260  35.507  1.00 11.06 LIG 0.24  C 
ATOM      3  N   THR D   3       4.657   6.889  35.457  1.00 11.45 LIG-0.34  N 
ATOM      4 H    THR D   3       4.757   7.743  35.429  1.00 11.45 LIG 0.16  HD
ATOM      5 O    ARG D   2       3.407   5.031  35.665  1.00  9.90 LIG-0.27  OA
BRANCH 3 6
ATOM      6  CA  THR D   3       5.879   6.126  35.446  1.00 13.43 LIG 0.20  C 
BRANCH 6 7
ATOM      7  C   THR D   3       5.982   5.224  34.225  1.00 15.00 LIG 0.24  C 
ATOM      8  N   LYS D   4       5.601   5.758  33.047  1.00 14.79 LIG-0.35  N 
ATOM      9 H    LYS D   4       5.362   6.578  32.945  1.00 14.79 LIG 0.16  HD
ATOM     10 O    THR D   3       6.390   4.056  34.377  1.00 15.79 LIG-0.27  OA
BRANCH 8 11
ATOM     11  CA  LYS D   4       5.567   4.944  31.794  1.00 18.13 LIG 0.16  C 
BRANCH 11 12
ATOM     12  C   LYS D   4       6.938   4.528  31.278  1.00 20.20 LIG 0.22  C 
ATOM     13 O    LYS D   4       7.183   3.291  31.277  1.00 21.26 LIG-0.29  OA
ENDBRANCH 11 12
BRANCH 11 14
ATOM     14  CB  LYS D   4       4.849   5.739  30.674  1.00 18.02 LIG 0.03  C 
BRANCH 14 15
ATOM     15  CG  LYS D   4       3.952   4.878  29.814  1.00 21.48 LIG 0.00  C 
BRANCH 15 16
ATOM     16  CD  LYS D   4       4.587   3.549  29.480  1.00 25.56 LIG 0.03  C 
BRANCH 16 17
ATOM     17  CE  LYS D   4       5.560   3.712  28.290  1.00 25.12 LIG 0.23  C 
BRANCH 17 18
ATOM     18  NZ  LYS D   4       6.893   3.023  28.532  1.00 20.07 LIG-0.08  N 
ATOM     19 HZ1  LYS D   4       6.860   2.572  29.298  1.00 20.07 LIG 0.27  HD
ATOM     20 HZ2  LYS D   4       7.062   2.461  27.864  1.00 20.07 LIG 0.27  HD
ATOM     21 HZ3  LYS D   4       7.539   3.634  28.576  1.00 20.07 LIG 0.27  HD
ENDBRANCH 17 18
ENDBRANCH 16 17
ENDBRANCH 15 16
ENDBRANCH 14 15
ENDBRANCH 11 14
ENDBRANCH 8 11
ENDBRANCH 6 7
BRANCH 6 22
ATOM     22  CB  THR D   3       6.088   5.291  36.762  1.00 14.57 LIG 0.15  C 
ATOM     23  CG2 THR D   3       7.604   5.087  37.054  1.00 14.25 LIG 0.04  C 
BRANCH 22 24
ATOM     24 OG1  THR D   3       5.463   5.958  37.870  1.00 15.86 LIG-0.39  OA
ATOM     25 HG1  THR D   3       6.047   6.357  38.323  1.00 15.86 LIG 0.21  HD
ENDBRANCH 22 24
ENDBRANCH 6 22
ENDBRANCH 3 6
ENDBRANCH 1 2
BRANCH 1 26
ATOM     26  CB  ARG D   2       1.080   6.488  34.621  1.00  9.49 LIG 0.04  C 
BRANCH 26 27
ATOM     27  CG  ARG D   2       1.497   6.223  33.125  1.00 10.73 LIG 0.02  C 
BRANCH 27 28
ATOM     28  CD  ARG D   2       1.962   4.762  33.012  1.00 10.86 LIG 0.14  C 
BRANCH 28 29
ATOM     29  NE  ARG D   2       1.186   4.031  32.043  1.00 10.69 LIG-0.23  N 
ATOM     30  CZ  ARG D   2      -0.146   3.760  32.141  1.00  9.43 LIG 0.67  C 
ATOM     31  NH1 ARG D   2      -0.873   4.120  33.210  1.00 10.34 LIG-0.23  N 
ATOM     32  NH2 ARG D   2      -0.720   3.032  31.208  1.00 11.18 LIG-0.23  N 
ATOM     33 2HH1 ARG D   2      -1.712   3.934  33.241  1.00 10.34 LIG 0.17  HD
ATOM     34 1HH1 ARG D   2      -0.500   4.538  33.863  1.00 10.34 LIG 0.17  HD
ATOM     35 2HH2 ARG D   2      -1.560   2.854  31.258  1.00 11.18 LIG 0.17  HD
ATOM     36 1HH2 ARG D   2      -0.256   2.735  30.548  1.00 11.18 LIG 0.17  HD
ATOM     37 HE   ARG D   2       1.596   3.742  31.345  1.00 10.69 LIG 0.18  HD
ENDBRANCH 28 29
ENDBRANCH 27 28
ENDBRANCH 26 27
ENDBRANCH 1 26
BRANCH 1 38
ATOM     38  N   ARG D   2       2.552   8.468  34.845  1.00  9.04 LIG-0.35  N 
ATOM     39 H    ARG D   2       3.042   8.447  34.139  1.00  9.04 LIG 0.16  HD
ATOM     40  C   ALA D   1       2.096   9.592  35.426  1.00 11.17 LIG 0.24  C 
ATOM     41 O    ALA D   1       1.393   9.548  36.434  1.00 13.49 LIG-0.27  OA
BRANCH 40 42
ATOM     42  CA  ALA D   1       2.416  10.924  34.777  1.00 12.65 LIG 0.17  C 
ATOM     43  CB  ALA D   1       1.154  11.592  34.183  1.00 13.08 LIG 0.04  C 
BRANCH 42 44
ATOM     44  N   ALA D   1       3.425  10.819  33.715  1.00 12.52 LIG-0.35  N 
ATOM     45  C   ACE D   0       3.275  10.129  32.355  1.00 13.59 LIG 0.21  C 
ATOM     46 O    ACE D   0       2.132   9.597  32.178  1.00 14.78 LIG-0.27  OA
ATOM     47  CH3 ACE D   0       4.431  10.131  31.393  1.00 14.73 LIG 0.12  C 
ATOM     48 H    ALA D   1       4.161  11.206  33.936  1.00 12.52 LIG 0.16  HD
ENDBRANCH 42 44
ENDBRANCH 40 42
ENDBRANCH 1 38
TORSDOF 19
ENDMDL
MODEL 16
USER: ADFR SOLUTION from run 115
USER: SCORE 16.559197 LL:  -3.128 LR: -14.312 RR:   0.000 FEB:  -8.644
USER: RMSD 4.024509
USER: SEED 114
USER: STATUS 1 or 2 clusters left
USER: GENES 21
USER: genes 0 Translation |==|  0.52665 0.48040 0.57368
USER: genes 1 Rotation |==|  0.76739 0.37460 0.65354 0.87310
USER: genes 2 Torsion [N]-CA--C-[N] |==|  0.67626
USER: genes 3 Torsion [C]-N--CA-[C] |==|  0.82465
USER: genes 4 Torsion [N]-CA--C-[N] |==|  0.94436
USER: genes 5 Torsion [C]-N--CA-[CB] |==|  0.41059
USER: genes 6 Torsion [N]-CA--C-[O] |==|  0.42188
USER: genes 7 Torsion [N]-CA--CB-[CG] |==|  0.79017
USER: genes 8 Torsion [CA]-CB--CG-[CD] |==|  0.90705
USER: genes 9 Torsion [CB]-CG--CD-[CE] |==|  0.66297
USER: genes 10 Torsion [CG]-CD--CE-[NZ] |==|  0.84866
USER: genes 11 Torsion [CD]-CE--NZ-[HZ1] |==|  0.50957
USER: genes 12 Torsion [N]-CA--CB-[CG2] |==|  0.54610
USER: genes 13 Torsion [CA]-CB--OG1-[HG1] |==|  0.08190
USER: genes 14 Torsion [C]-CA--CB-[CG] |==|  0.44726
USER: genes 15 Torsion [CA]-CB--CG-[CD] |==|  0.54435
USER: genes 16 Torsion [CB]-CG--CD-[NE] |==|  0.26486
USER: genes 17 Torsion [CG]-CD--NE-[CZ] |==|  0.15242
USER: genes 18 Torsion [C]-CA--N-[C] |==|  0.17685
USER: genes 19 Torsion [N]-C--CA-[N] |==|  0.07409
USER: genes 20 Torsion [C]-CA--N-[C] |==|  0.16285
ROOT
ATOM      1  CA  ARG D   2       5.430   7.108  34.819  1.00  9.56 LIG 0.18  C 
ENDROOT
BRANCH 1 2
ATOM      2  C   ARG D   2       5.243   6.897  33.292  1.00 11.06 LIG 0.24  C 
ATOM      3  N   THR D   3       5.223   5.638  32.869  1.00 11.45 LIG-0.34  N 
ATOM      4 H    THR D   3       5.253   4.946  33.378  1.00 11.45 LIG 0.16  HD
ATOM      5 O    ARG D   2       5.077   7.855  32.520  1.00  9.90 LIG-0.27  OA
BRANCH 3 6
ATOM      6  CA  THR D   3       5.144   5.360  31.458  1.00 13.43 LIG 0.20  C 
BRANCH 6 7
ATOM      7  C   THR D   3       3.849   5.870  30.843  1.00 15.00 LIG 0.24  C 
ATOM      8  N   LYS D   4       2.828   6.102  31.693  1.00 14.79 LIG-0.35  N 
ATOM      9 H    LYS D   4       2.888   6.029  32.548  1.00 14.79 LIG 0.16  HD
ATOM     10 O    THR D   3       3.795   6.030  29.608  1.00 15.79 LIG-0.27  OA
BRANCH 8 11
ATOM     11  CA  LYS D   4       1.478   6.513  31.200  1.00 18.13 LIG 0.16  C 
BRANCH 11 12
ATOM     12  C   LYS D   4       1.283   8.019  31.092  1.00 20.20 LIG 0.22  C 
ATOM     13 O    LYS D   4       0.460   8.415  30.222  1.00 21.26 LIG-0.29  OA
ENDBRANCH 11 12
BRANCH 11 14
ATOM     14  CB  LYS D   4       0.384   5.950  32.143  1.00 18.02 LIG 0.03  C 
BRANCH 14 15
ATOM     15  CG  LYS D   4       0.142   4.469  31.955  1.00 21.48 LIG 0.00  C 
BRANCH 15 16
ATOM     16  CD  LYS D   4       0.328   4.038  30.520  1.00 25.56 LIG 0.03  C 
BRANCH 16 17
ATOM     17  CE  LYS D   4      -0.975   3.401  29.986  1.00 25.12 LIG 0.23  C 
BRANCH 17 18
ATOM     18  NZ  LYS D   4      -1.465   2.260  30.863  1.00 20.07 LIG-0.08  N 
ATOM     19 HZ1  LYS D   4      -2.186   1.891  30.495  1.00 20.07 LIG 0.27  HD
ATOM     20 HZ2  LYS D   4      -0.824   1.648  30.940  1.00 20.07 LIG 0.27  HD
ATOM     21 HZ3  LYS D   4      -1.673   2.574  31.670  1.00 20.07 LIG 0.27  HD
ENDBRANCH 17 18
ENDBRANCH 16 17
ENDBRANCH 15 16
ENDBRANCH 14 15
ENDBRANCH 11 14
ENDBRANCH 8 11
ENDBRANCH 6 7
BRANCH 6 22
ATOM     22  CB  THR D   3       5.344   3.836  31.124  1.00 14.57 LIG 0.15  C 
ATOM     23  CG2 THR D   3       5.667   3.637  29.614  1.00 14.25 LIG 0.04  C 
BRANCH 22 24
ATOM     24 OG1  THR D   3       6.406   3.295  31.926  1.00 15.86 LIG-0.39  OA
ATOM     25 HG1  THR D   3       6.447   3.710  32.654  1.00 15.86 LIG 0.21  HD
ENDBRANCH 22 24
ENDBRANCH 6 22
ENDBRANCH 3 6
ENDBRANCH 1 2
BRANCH 1 26
ATOM     26  CB  ARG D   2       5.761   5.803  35.566  1.00  9.49 LIG 0.04  C 
BRANCH 26 27
ATOM     27  CG  ARG D   2       6.406   6.094  36.974  1.00 10.73 LIG 0.02  C 
BRANCH 27 28
ATOM     28  CD  ARG D   2       7.065   4.798  37.472  1.00 10.86 LIG 0.14  C 
BRANCH 28 29
ATOM     29  NE  ARG D   2       8.470   4.760  37.153  1.00 10.69 LIG-0.23  N 
ATOM     30  CZ  ARG D   2       9.381   5.714  37.492  1.00  9.43 LIG 0.67  C 
ATOM     31  NH1 ARG D   2       9.035   6.839  38.136  1.00 10.34 LIG-0.23  N 
ATOM     32  NH2 ARG D   2      10.626   5.581  37.087  1.00 11.18 LIG-0.23  N 
ATOM     33 2HH1 ARG D   2       9.634   7.422  38.337  1.00 10.34 LIG 0.17  HD
ATOM     34 1HH1 ARG D   2       8.213   6.976  38.350  1.00 10.34 LIG 0.17  HD
ATOM     35 2HH2 ARG D   2      11.212   6.176  37.295  1.00 11.18 LIG 0.17  HD
ATOM     36 1HH2 ARG D   2      10.854   4.899  36.616  1.00 11.18 LIG 0.17  HD
ATOM     37 HE   ARG D   2       8.756   4.080  36.712  1.00 10.69 LIG 0.18  HD
ENDBRANCH 28 29
ENDBRANCH 27 28
ENDBRANCH 26 27
ENDBRANCH 1 26
BRANCH 1 38
ATOM     38  N   ARG D   2       4.244   7.756  35.403  1.00  9.04 LIG-0.35  N 
ATOM     39 H    ARG D   2       4.383   8.536  35.738  1.00  9.04 LIG 0.16  HD
ATOM     40  C   ALA D   1       3.054   7.131  35.389  1.00 11.17 LIG 0.24  C 
ATOM     41 O    ALA D   1       2.926   6.015  34.887  1.00 13.49 LIG-0.27  OA
BRANCH 40 42
ATOM     42  CA  ALA D   1       1.848   7.856  35.953  1.00 12.65 LIG 0.17  C 
ATOM     43  CB  ALA D   1       0.542   7.440  35.238  1.00 13.08 LIG 0.04  C 
BRANCH 42 44
ATOM     44  N   ALA D   1       1.969   9.318  35.878  1.00 12.52 LIG-0.35  N 
ATOM     45  C   ACE D   0       2.170  10.171  34.621  1.00 13.59 LIG 0.21  C 
ATOM     46 O    ACE D   0       2.241   9.488  33.549  1.00 14.78 LIG-0.27  OA
ATOM     47  CH3 ACE D   0       2.268  11.667  34.749  1.00 14.73 LIG 0.12  C 
ATOM     48 H    ALA D   1       1.913   9.682  36.655  1.00 12.52 LIG 0.16  HD
ENDBRANCH 42 44
ENDBRANCH 40 42
ENDBRANCH 1 38
TORSDOF 19
ENDMDL
MODEL 17
USER: ADFR SOLUTION from run 44
USER: SCORE 16.844040 LL:  -2.905 LR: -14.276 RR:   0.000 FEB:  -8.608
USER: RMSD 6.168112
USER: SEED 43
USER: STATUS no improvement in best in 5 clusters for 5 generations
USER: GENES 21
USER: genes 0 Translation |==|  0.50243 0.44382 0.48020
USER: genes 1 Rotation |==|  0.95203 0.62634 0.40584 0.64436
USER: genes 2 Torsion [N]-CA--C-[N] |==|  0.38928
USER: genes 3 Torsion [C]-N--CA-[C] |==|  0.77197
USER: genes 4 Torsion [N]-CA--C-[N] |==|  0.39236
USER: genes 5 Torsion [C]-N--CA-[CB] |==|  0.29428
USER: genes 6 Torsion [N]-CA--C-[O] |==|  0.79080
USER: genes 7 Torsion [N]-CA--CB-[CG] |==|  0.94593
USER: genes 8 Torsion [CA]-CB--CG-[CD] |==|  0.68741
USER: genes 9 Torsion [CB]-CG--CD-[CE] |==|  0.97688
USER: genes 10 Torsion [CG]-CD--CE-[NZ] |==|  0.69246
USER: genes 11 Torsion [CD]-CE--NZ-[HZ1] |==|  0.12527
USER: genes 12 Torsion [N]-CA--CB-[CG2] |==|  0.78043
USER: genes 13 Torsion [CA]-CB--OG1-[HG1] |==|  0.46544
USER: genes 14 Torsion [C]-CA--CB-[CG] |==|  0.22478
USER: genes 15 Torsion [CA]-CB--CG-[CD] |==|  0.08863
USER: genes 16 Torsion [CB]-CG--CD-[NE] |==|  0.60726
USER: genes 17 Torsion [CG]-CD--NE-[CZ] |==|  0.38073
USER: genes 18 Torsion [C]-CA--N-[C] |==|  0.80000
USER: genes 19 Torsion [N]-C--CA-[N] |==|  0.41961
USER: genes 20 Torsion [C]-CA--N-[C] |==|  0.64945
ROOT
ATOM      1  CA  ARG D   2       4.957   6.532  33.207  1.00  9.56 LIG 0.18  C 
ENDROOT
BRANCH 1 2
ATOM      2  C   ARG D   2       3.504   6.889  33.619  1.00 11.06 LIG 0.24  C 
ATOM      3  N   THR D   3       3.105   8.130  33.359  1.00 11.45 LIG-0.34  N 
ATOM      4 H    THR D   3       3.570   8.720  32.940  1.00 11.45 LIG 0.16  HD
ATOM      5 O    ARG D   2       2.746   6.045  34.123  1.00  9.90 LIG-0.27  OA
BRANCH 3 6
ATOM      6  CA  THR D   3       1.803   8.567  33.792  1.00 13.43 LIG 0.20  C 
BRANCH 6 7
ATOM      7  C   THR D   3       0.704   8.137  32.831  1.00 15.00 LIG 0.24  C 
ATOM      8  N   LYS D   4      -0.460   7.740  33.384  1.00 14.79 LIG-0.35  N 
ATOM      9 H    LYS D   4      -0.627   7.770  34.227  1.00 14.79 LIG 0.16  HD
ATOM     10 O    THR D   3       0.938   8.159  31.607  1.00 15.79 LIG-0.27  OA
BRANCH 8 11
ATOM     11  CA  LYS D   4      -1.580   7.206  32.550  1.00 18.13 LIG 0.16  C 
BRANCH 11 12
ATOM     12  C   LYS D   4      -2.941   7.813  32.864  1.00 20.20 LIG 0.22  C 
ATOM     13 O    LYS D   4      -3.499   7.417  33.923  1.00 21.26 LIG-0.29  OA
ENDBRANCH 11 12
BRANCH 11 14
ATOM     14  CB  LYS D   4      -1.681   5.670  32.735  1.00 18.02 LIG 0.03  C 
BRANCH 14 15
ATOM     15  CG  LYS D   4      -0.415   5.054  33.285  1.00 21.48 LIG 0.00  C 
BRANCH 15 16
ATOM     16  CD  LYS D   4       0.271   4.164  32.277  1.00 25.56 LIG 0.03  C 
BRANCH 16 17
ATOM     17  CE  LYS D   4      -0.633   3.974  31.037  1.00 25.12 LIG 0.23  C 
BRANCH 17 18
ATOM     18  NZ  LYS D   4      -1.173   2.558  30.923  1.00 20.07 LIG-0.08  N 
ATOM     19 HZ1  LYS D   4      -1.465   2.287  31.718  1.00 20.07 LIG 0.27  HD
ATOM     20 HZ2  LYS D   4      -1.844   2.542  30.340  1.00 20.07 LIG 0.27  HD
ATOM     21 HZ3  LYS D   4      -0.525   2.014  30.645  1.00 20.07 LIG 0.27  HD
ENDBRANCH 17 18
ENDBRANCH 16 17
ENDBRANCH 15 16
ENDBRANCH 14 15
ENDBRANCH 11 14
ENDBRANCH 8 11
ENDBRANCH 6 7
BRANCH 6 22
ATOM     22  CB  THR D   3       1.732  10.117  34.045  1.00 14.57 LIG 0.15  C 
ATOM     23  CG2 THR D   3       2.357  10.484  35.423  1.00 14.25 LIG 0.04  C 
BRANCH 22 24
ATOM     24 OG1  THR D   3       2.420  10.816  32.996  1.00 15.86 LIG-0.39  OA
ATOM     25 HG1  THR D   3       2.238  11.636  33.038  1.00 15.86 LIG 0.21  HD
ENDBRANCH 22 24
ENDBRANCH 6 22
ENDBRANCH 3 6
ENDBRANCH 1 2
BRANCH 1 26
ATOM     26  CB  ARG D   2       5.038   5.862  31.823  1.00  9.49 LIG 0.04  C 
BRANCH 26 27
ATOM     27  CG  ARG D   2       4.981   6.926  30.663  1.00 10.73 LIG 0.02  C 
BRANCH 27 28
ATOM     28  CD  ARG D   2       5.647   8.217  31.168  1.00 10.86 LIG 0.14  C 
BRANCH 28 29
ATOM     29  NE  ARG D   2       4.951   9.390  30.705  1.00 10.69 LIG-0.23  N 
ATOM     30  CZ  ARG D   2       4.667  10.488  31.459  1.00  9.43 LIG 0.67  C 
ATOM     31  NH1 ARG D   2       4.979  10.562  32.762  1.00 10.34 LIG-0.23  N 
ATOM     32  NH2 ARG D   2       3.974  11.469  30.923  1.00 11.18 LIG-0.23  N 
ATOM     33 2HH1 ARG D   2       4.786  11.270  33.210  1.00 10.34 LIG 0.17  HD
ATOM     34 1HH1 ARG D   2       5.372   9.902  33.148  1.00 10.34 LIG 0.17  HD
ATOM     35 2HH2 ARG D   2       3.788  12.169  31.388  1.00 11.18 LIG 0.17  HD
ATOM     36 1HH2 ARG D   2       3.707  11.412  30.108  1.00 11.18 LIG 0.17  HD
ATOM     37 HE   ARG D   2       4.693   9.397  29.884  1.00 10.69 LIG 0.18  HD
ENDBRANCH 28 29
ENDBRANCH 27 28
ENDBRANCH 26 27
ENDBRANCH 1 26
BRANCH 1 38
ATOM     38  N   ARG D   2       5.597   5.690  34.231  1.00  9.04 LIG-0.35  N 
ATOM     39 H    ARG D   2       5.710   4.867  34.008  1.00  9.04 LIG 0.16  HD
ATOM     40  C   ALA D   1       5.959   6.219  35.413  1.00 11.17 LIG 0.24  C 
ATOM     41 O    ALA D   1       5.772   7.409  35.664  1.00 13.49 LIG-0.27  OA
BRANCH 40 42
ATOM     42  CA  ALA D   1       6.664   5.330  36.419  1.00 12.65 LIG 0.17  C 
ATOM     43  CB  ALA D   1       5.660   4.550  37.298  1.00 13.08 LIG 0.04  C 
BRANCH 42 44
ATOM     44  N   ALA D   1       7.573   6.070  37.303  1.00 12.52 LIG-0.35  N 
ATOM     45  C   ACE D   0       9.057   5.786  37.559  1.00 13.59 LIG 0.21  C 
ATOM     46 O    ACE D   0       9.500   4.781  36.916  1.00 14.78 LIG-0.27  OA
ATOM     47  CH3 ACE D   0       9.826   6.667  38.505  1.00 14.73 LIG 0.12  C 
ATOM     48 H    ALA D   1       7.174   6.725  37.694  1.00 12.52 LIG 0.16  HD
ENDBRANCH 42 44
ENDBRANCH 40 42
ENDBRANCH 1 38
TORSDOF 19
ENDMDL
MODEL 18
USER: ADFR SOLUTION from run 9
USER: SCORE 14.958932 LL:  -2.029 LR: -14.260 RR:   0.000 FEB:  -8.592
USER: RMSD 4.460453
USER: SEED 940733
USER: STATUS no improvement in best in 10 clusters for 5 generations
USER: GENES 21
USER: genes 0 Translation |==|  0.49856 0.39340 0.54460
USER: genes 1 Rotation |==|  0.21996 0.58421 0.24783 0.81764
USER: genes 2 Torsion [N]-CA--C-[N] |==|  0.33889
USER: genes 3 Torsion [C]-N--CA-[C] |==|  0.20331
USER: genes 4 Torsion [N]-CA--C-[N] |==|  0.95777
USER: genes 5 Torsion [C]-N--CA-[CB] |==|  0.56913
USER: genes 6 Torsion [N]-CA--C-[O] |==|  0.29959
USER: genes 7 Torsion [N]-CA--CB-[CG] |==|  0.09309
USER: genes 8 Torsion [CA]-CB--CG-[CD] |==|  0.19506
USER: genes 9 Torsion [CB]-CG--CD-[CE] |==|  0.17286
USER: genes 10 Torsion [CG]-CD--CE-[NZ] |==|  0.42136
USER: genes 11 Torsion [CD]-CE--NZ-[HZ1] |==|  0.13876
USER: genes 12 Torsion [N]-CA--CB-[CG2] |==|  0.29952
USER: genes 13 Torsion [CA]-CB--OG1-[HG1] |==|  0.39990
USER: genes 14 Torsion [C]-CA--CB-[CG] |==|  0.16706
USER: genes 15 Torsion [CA]-CB--CG-[CD] |==|  0.28070
USER: genes 16 Torsion [CB]-CG--CD-[NE] |==|  0.17643
USER: genes 17 Torsion [CG]-CD--NE-[CZ] |==|  0.15263
USER: genes 18 Torsion [C]-CA--N-[C] |==|  0.55653
USER: genes 19 Torsion [N]-C--CA-[N] |==|  0.27762
USER: genes 20 Torsion [C]-CA--N-[C] |==|  0.75099
ROOT
ATOM      1  CA  ARG D   2       4.882   5.738  34.317  1.00  9.56 LIG 0.18  C 
ENDROOT
BRANCH 1 2
ATOM      2  C   ARG D   2       3.740   6.753  34.594  1.00 11.06 LIG 0.24  C 
ATOM      3  N   THR D   3       2.714   6.306  35.311  1.00 11.45 LIG-0.34  N 
ATOM      4 H    THR D   3       2.665   5.525  35.667  1.00 11.45 LIG 0.16  HD
ATOM      5 O    ARG D   2       3.808   7.929  34.202  1.00  9.90 LIG-0.27  OA
BRANCH 3 6
ATOM      6  CA  THR D   3       1.574   7.157  35.534  1.00 13.43 LIG 0.20  C 
BRANCH 6 7
ATOM      7  C   THR D   3       0.722   7.315  34.283  1.00 15.00 LIG 0.24  C 
ATOM      8  N   LYS D   4       1.284   6.936  33.117  1.00 14.79 LIG-0.35  N 
ATOM      9 H    LYS D   4       2.059   6.568  33.055  1.00 14.79 LIG 0.16  HD
ATOM     10 O    THR D   3      -0.424   7.792  34.397  1.00 15.79 LIG-0.27  OA
BRANCH 8 11
ATOM     11  CA  LYS D   4       0.584   7.130  31.811  1.00 18.13 LIG 0.16  C 
BRANCH 11 12
ATOM     12  C   LYS D   4      -0.931   6.997  31.886  1.00 20.20 LIG 0.22  C 
ATOM     13 O    LYS D   4      -1.592   8.065  31.775  1.00 21.26 LIG-0.29  OA
ENDBRANCH 11 12
BRANCH 11 14
ATOM     14  CB  LYS D   4       1.110   6.101  30.779  1.00 18.02 LIG 0.03  C 
BRANCH 14 15
ATOM     15  CG  LYS D   4       1.485   4.775  31.401  1.00 21.48 LIG 0.00  C 
BRANCH 15 16
ATOM     16  CD  LYS D   4       0.277   4.002  31.871  1.00 25.56 LIG 0.03  C 
BRANCH 16 17
ATOM     17  CE  LYS D   4      -0.637   3.666  30.670  1.00 25.12 LIG 0.23  C 
BRANCH 17 18
ATOM     18  NZ  LYS D   4      -1.437   2.393  30.888  1.00 20.07 LIG-0.08  N 
ATOM     19 HZ1  LYS D   4      -1.840   2.427  31.680  1.00 20.07 LIG 0.27  HD
ATOM     20 HZ2  LYS D   4      -2.050   2.314  30.247  1.00 20.07 LIG 0.27  HD
ATOM     21 HZ3  LYS D   4      -0.891   1.691  30.863  1.00 20.07 LIG 0.27  HD
ENDBRANCH 17 18
ENDBRANCH 16 17
ENDBRANCH 15 16
ENDBRANCH 14 15
ENDBRANCH 11 14
ENDBRANCH 8 11
ENDBRANCH 6 7
BRANCH 6 22
ATOM     22  CB  THR D   3       1.968   8.567  36.108  1.00 14.57 LIG 0.15  C 
ATOM     23  CG2 THR D   3       1.794   9.674  35.028  1.00 14.25 LIG 0.04  C 
BRANCH 22 24
ATOM     24 OG1  THR D   3       1.160   8.872  37.255  1.00 15.86 LIG-0.39  OA
ATOM     25 HG1  THR D   3       1.620   9.292  37.819  1.00 15.86 LIG 0.21  HD
ENDBRANCH 22 24
ENDBRANCH 6 22
ENDBRANCH 3 6
ENDBRANCH 1 2
BRANCH 1 26
ATOM     26  CB  ARG D   2       6.200   6.117  35.017  1.00  9.49 LIG 0.04  C 
BRANCH 26 27
ATOM     27  CG  ARG D   2       6.024   6.181  36.581  1.00 10.73 LIG 0.02  C 
BRANCH 27 28
ATOM     28  CD  ARG D   2       6.589   4.881  37.177  1.00 10.86 LIG 0.14  C 
BRANCH 28 29
ATOM     29  NE  ARG D   2       8.004   4.758  36.935  1.00 10.69 LIG-0.23  N 
ATOM     30  CZ  ARG D   2       8.946   5.681  37.275  1.00  9.43 LIG 0.67  C 
ATOM     31  NH1 ARG D   2       8.627   6.853  37.845  1.00 10.34 LIG-0.23  N 
ATOM     32  NH2 ARG D   2      10.201   5.465  36.944  1.00 11.18 LIG-0.23  N 
ATOM     33 2HH1 ARG D   2       9.246   7.414  38.048  1.00 10.34 LIG 0.17  HD
ATOM     34 1HH1 ARG D   2       7.804   7.042  38.008  1.00 10.34 LIG 0.17  HD
ATOM     35 2HH2 ARG D   2      10.806   6.040  37.152  1.00 11.18 LIG 0.17  HD
ATOM     36 1HH2 ARG D   2      10.416   4.750  36.519  1.00 11.18 LIG 0.17  HD
ATOM     37 HE   ARG D   2       8.276   4.042  36.543  1.00 10.69 LIG 0.18  HD
ENDBRANCH 28 29
ENDBRANCH 27 28
ENDBRANCH 26 27
ENDBRANCH 1 26
BRANCH 1 38
ATOM     38  N   ARG D   2       5.090   5.571  32.870  1.00  9.04 LIG-0.35  N 
ATOM     39 H    ARG D   2       4.787   6.211  32.381  1.00  9.04 LIG 0.16  HD
ATOM     40  C   ALA D   1       5.715   4.478  32.397  1.00 11.17 LIG 0.24  C 
ATOM     41 O    ALA D   1       6.129   3.602  33.154  1.00 13.49 LIG-0.27  OA
BRANCH 40 42
ATOM     42  CA  ALA D   1       5.956   4.371  30.904  1.00 12.65 LIG 0.17  C 
ATOM     43  CB  ALA D   1       5.660   2.949  30.374  1.00 13.08 LIG 0.04  C 
BRANCH 42 44
ATOM     44  N   ALA D   1       7.326   4.732  30.515  1.00 12.52 LIG-0.35  N 
ATOM     45  C   ACE D   0       7.849   6.122  30.138  1.00 13.59 LIG 0.21  C 
ATOM     46 O    ACE D   0       6.956   7.028  30.173  1.00 14.78 LIG-0.27  OA
ATOM     47  CH3 ACE D   0       9.298   6.292  29.770  1.00 14.73 LIG 0.12  C 
ATOM     48 H    ALA D   1       7.848   4.048  30.518  1.00 12.52 LIG 0.16  HD
ENDBRANCH 42 44
ENDBRANCH 40 42
ENDBRANCH 1 38
TORSDOF 19
ENDMDL
MODEL 19
USER: ADFR SOLUTION from run 160
USER: SCORE 16.439807 LL:  -2.454 LR: -14.227 RR:   0.000 FEB:  -8.559
USER: RMSD 3.770369
USER: SEED 159
USER: STATUS no improvement in best in 2 clusters for 5 generations
USER: GENES 21
USER: genes 0 Translation |==|  0.52020 0.46802 0.56728
USER: genes 1 Rotation |==|  0.42002 0.62386 0.32726 0.94545
USER: genes 2 Torsion [N]-CA--C-[N] |==|  0.97415
USER: genes 3 Torsion [C]-N--CA-[C] |==|  0.85510
USER: genes 4 Torsion [N]-CA--C-[N] |==|  0.90980
USER: genes 5 Torsion [C]-N--CA-[CB] |==|  0.31384
USER: genes 6 Torsion [N]-CA--C-[O] |==|  0.97409
USER: genes 7 Torsion [N]-CA--CB-[CG] |==|  0.29619
USER: genes 8 Torsion [CA]-CB--CG-[CD] |==|  0.33650
USER: genes 9 Torsion [CB]-CG--CD-[CE] |==|  0.59812
USER: genes 10 Torsion [CG]-CD--CE-[NZ] |==|  0.28588
USER: genes 11 Torsion [CD]-CE--NZ-[HZ1] |==|  0.28825
USER: genes 12 Torsion [N]-CA--CB-[CG2] |==|  0.88953
USER: genes 13 Torsion [CA]-CB--OG1-[HG1] |==|  0.69757
USER: genes 14 Torsion [C]-CA--CB-[CG] |==|  0.19302
USER: genes 15 Torsion [CA]-CB--CG-[CD] |==|  0.57751
USER: genes 16 Torsion [CB]-CG--CD-[NE] |==|  0.89535
USER: genes 17 Torsion [CG]-CD--NE-[CZ] |==|  0.79006
USER: genes 18 Torsion [C]-CA--N-[C] |==|  0.77372
USER: genes 19 Torsion [N]-C--CA-[N] |==|  0.45259
USER: genes 20 Torsion [C]-CA--N-[C] |==|  0.83280
ROOT
ATOM      1  CA  ARG D   2       5.304   6.913  34.709  1.00  9.56 LIG 0.18  C 
ENDROOT
BRANCH 1 2
ATOM      2  C   ARG D   2       3.891   7.109  35.321  1.00 11.06 LIG 0.24  C 
ATOM      3  N   THR D   3       3.331   8.302  35.144  1.00 11.45 LIG-0.34  N 
ATOM      4 H    THR D   3       3.670   8.941  34.679  1.00 11.45 LIG 0.16  HD
ATOM      5 O    ARG D   2       3.302   6.185  35.904  1.00  9.90 LIG-0.27  OA
BRANCH 3 6
ATOM      6  CA  THR D   3       2.061   8.593  35.758  1.00 13.43 LIG 0.20  C 
BRANCH 6 7
ATOM      7  C   THR D   3       1.014   7.536  35.440  1.00 15.00 LIG 0.24  C 
ATOM      8  N   LYS D   4       1.105   6.940  34.233  1.00 14.79 LIG-0.35  N 
ATOM      9 H    LYS D   4       1.740   7.085  33.672  1.00 14.79 LIG 0.16  HD
ATOM     10 O    THR D   3       0.135   7.291  36.289  1.00 15.79 LIG-0.27  OA
BRANCH 8 11
ATOM     11  CA  LYS D   4       0.081   5.955  33.768  1.00 18.13 LIG 0.16  C 
BRANCH 11 12
ATOM     12  C   LYS D   4       0.652   4.608  33.346  1.00 20.20 LIG 0.22  C 
ATOM     13 O    LYS D   4       1.908   4.537  33.260  1.00 21.26 LIG-0.29  OA
ENDBRANCH 11 12
BRANCH 11 14
ATOM     14  CB  LYS D   4      -0.704   6.546  32.570  1.00 18.02 LIG 0.03  C 
BRANCH 14 15
ATOM     15  CG  LYS D   4      -0.334   5.914  31.247  1.00 21.48 LIG 0.00  C 
BRANCH 15 16
ATOM     16  CD  LYS D   4      -1.523   5.282  30.564  1.00 25.56 LIG 0.03  C 
BRANCH 16 17
ATOM     17  CE  LYS D   4      -1.084   4.002  29.816  1.00 25.12 LIG 0.23  C 
BRANCH 17 18
ATOM     18  NZ  LYS D   4      -1.465   2.734  30.562  1.00 20.07 LIG-0.08  N 
ATOM     19 HZ1  LYS D   4      -2.171   2.360  30.171  1.00 20.07 LIG 0.27  HD
ATOM     20 HZ2  LYS D   4      -0.782   2.164  30.547  1.00 20.07 LIG 0.27  HD
ATOM     21 HZ3  LYS D   4      -1.665   2.934  31.406  1.00 20.07 LIG 0.27  HD
ENDBRANCH 17 18
ENDBRANCH 16 17
ENDBRANCH 15 16
ENDBRANCH 14 15
ENDBRANCH 11 14
ENDBRANCH 8 11
ENDBRANCH 6 7
BRANCH 6 22
ATOM     22  CB  THR D   3       1.521  10.024  35.393  1.00 14.57 LIG 0.15  C 
ATOM     23  CG2 THR D   3       2.678  11.066  35.378  1.00 14.25 LIG 0.04  C 
BRANCH 22 24
ATOM     24 OG1  THR D   3       0.877   9.992  34.110  1.00 15.86 LIG-0.39  OA
ATOM     25 HG1  THR D   3       1.352  10.397  33.547  1.00 15.86 LIG 0.21  HD
ENDBRANCH 22 24
ENDBRANCH 6 22
ENDBRANCH 3 6
ENDBRANCH 1 2
BRANCH 1 26
ATOM     26  CB  ARG D   2       6.389   6.677  35.775  1.00  9.49 LIG 0.04  C 
BRANCH 26 27
ATOM     27  CG  ARG D   2       6.219   5.273  36.468  1.00 10.73 LIG 0.02  C 
BRANCH 27 28
ATOM     28  CD  ARG D   2       6.796   5.370  37.889  1.00 10.86 LIG 0.14  C 
BRANCH 28 29
ATOM     29  NE  ARG D   2       7.979   6.192  37.927  1.00 10.69 LIG-0.23  N 
ATOM     30  CZ  ARG D   2       9.213   5.818  37.488  1.00  9.43 LIG 0.67  C 
ATOM     31  NH1 ARG D   2       9.460   4.591  37.005  1.00 10.34 LIG-0.23  N 
ATOM     32  NH2 ARG D   2      10.222   6.650  37.633  1.00 11.18 LIG-0.23  N 
ATOM     33 2HH1 ARG D   2      10.250   4.386  36.735  1.00 10.34 LIG 0.17  HD
ATOM     34 1HH1 ARG D   2       8.828   4.009  36.965  1.00 10.34 LIG 0.17  HD
ATOM     35 2HH2 ARG D   2      11.006   6.427  37.360  1.00 11.18 LIG 0.17  HD
ATOM     36 1HH2 ARG D   2      10.097   7.417  38.000  1.00 11.18 LIG 0.17  HD
ATOM     37 HE   ARG D   2       7.900   6.983  38.254  1.00 10.69 LIG 0.18  HD
ENDBRANCH 28 29
ENDBRANCH 27 28
ENDBRANCH 26 27
ENDBRANCH 1 26
BRANCH 1 38
ATOM     38  N   ARG D   2       5.660   8.052  33.847  1.00  9.04 LIG-0.35  N 
ATOM     39 H    ARG D   2       6.162   8.645  34.215  1.00  9.04 LIG 0.16  HD
ATOM     40  C   ALA D   1       5.206   8.113  32.582  1.00 11.17 LIG 0.24  C 
ATOM     41 O    ALA D   1       4.494   7.225  32.117  1.00 13.49 LIG-0.27  OA
BRANCH 40 42
ATOM     42  CA  ALA D   1       5.641   9.276  31.712  1.00 12.65 LIG 0.17  C 
ATOM     43  CB  ALA D   1       4.917  10.585  32.100  1.00 13.08 LIG 0.04  C 
BRANCH 42 44
ATOM     44  N   ALA D   1       5.422   9.035  30.280  1.00 12.52 LIG-0.35  N 
ATOM     45  C   ACE D   0       6.025   7.917  29.423  1.00 13.59 LIG 0.21  C 
ATOM     46 O    ACE D   0       6.799   7.141  30.070  1.00 14.78 LIG-0.27  OA
ATOM     47  CH3 ACE D   0       5.675   7.833  27.962  1.00 14.73 LIG 0.12  C 
ATOM     48 H    ALA D   1       4.889   9.617  29.937  1.00 12.52 LIG 0.16  HD
ENDBRANCH 42 44
ENDBRANCH 40 42
ENDBRANCH 1 38
TORSDOF 19
ENDMDL
MODEL 20
USER: ADFR SOLUTION from run 44
USER: SCORE 16.189987 LL:  -2.360 LR: -14.200 RR:   0.000 FEB:  -8.532
USER: RMSD 6.207720
USER: SEED 43
USER: STATUS no improvement in best in 5 clusters for 5 generations
USER: GENES 21
USER: genes 0 Translation |==|  0.50182 0.39287 0.49687
USER: genes 1 Rotation |==|  0.93424 0.62795 0.37168 0.66910
USER: genes 2 Torsion [N]-CA--C-[N] |==|  0.39035
USER: genes 3 Torsion [C]-N--CA-[C] |==|  0.71046
USER: genes 4 Torsion [N]-CA--C-[N] |==|  0.41801
USER: genes 5 Torsion [C]-N--CA-[CB] |==|  0.25749
USER: genes 6 Torsion [N]-CA--C-[O] |==|  0.75013
USER: genes 7 Torsion [N]-CA--CB-[CG] |==|  0.99080
USER: genes 8 Torsion [CA]-CB--CG-[CD] |==|  0.70370
USER: genes 9 Torsion [CB]-CG--CD-[CE] |==|  0.90347
USER: genes 10 Torsion [CG]-CD--CE-[NZ] |==|  0.74716
USER: genes 11 Torsion [CD]-CE--NZ-[HZ1] |==|  0.11837
USER: genes 12 Torsion [N]-CA--CB-[CG2] |==|  0.66141
USER: genes 13 Torsion [CA]-CB--OG1-[HG1] |==|  0.80937
USER: genes 14 Torsion [C]-CA--CB-[CG] |==|  0.61068
USER: genes 15 Torsion [CA]-CB--CG-[CD] |==|  0.69708
USER: genes 16 Torsion [CB]-CG--CD-[NE] |==|  0.72207
USER: genes 17 Torsion [CG]-CD--NE-[CZ] |==|  0.34786
USER: genes 18 Torsion [C]-CA--N-[C] |==|  0.80271
USER: genes 19 Torsion [N]-C--CA-[N] |==|  0.43183
USER: genes 20 Torsion [C]-CA--N-[C] |==|  0.63333
ROOT
ATOM      1  CA  ARG D   2       4.946   5.730  33.494  1.00  9.56 LIG 0.18  C 
ENDROOT
BRANCH 1 2
ATOM      2  C   ARG D   2       3.544   6.150  34.014  1.00 11.06 LIG 0.24  C 
ATOM      3  N   THR D   3       3.101   7.340  33.620  1.00 11.45 LIG-0.34  N 
ATOM      4 H    THR D   3       3.507   7.858  33.068  1.00 11.45 LIG 0.16  HD
ATOM      5 O    ARG D   2       2.860   5.393  34.722  1.00  9.90 LIG-0.27  OA
BRANCH 3 6
ATOM      6  CA  THR D   3       1.851   7.841  34.130  1.00 13.43 LIG 0.20  C 
BRANCH 6 7
ATOM      7  C   THR D   3       0.731   7.739  33.106  1.00 15.00 LIG 0.24  C 
ATOM      8  N   LYS D   4      -0.518   7.579  33.591  1.00 14.79 LIG-0.35  N 
ATOM      9 H    LYS D   4      -0.713   7.587  34.429  1.00 14.79 LIG 0.16  HD
ATOM     10 O    THR D   3       1.021   7.792  31.895  1.00 15.79 LIG-0.27  OA
BRANCH 8 11
ATOM     11  CA  LYS D   4      -1.688   7.372  32.685  1.00 18.13 LIG 0.16  C 
BRANCH 11 12
ATOM     12  C   LYS D   4      -2.984   7.998  33.181  1.00 20.20 LIG 0.22  C 
ATOM     13 O    LYS D   4      -3.713   7.272  33.910  1.00 21.26 LIG-0.29  OA
ENDBRANCH 11 12
BRANCH 11 14
ATOM     14  CB  LYS D   4      -1.930   5.854  32.484  1.00 18.02 LIG 0.03  C 
BRANCH 14 15
ATOM     15  CG  LYS D   4      -0.897   4.992  33.173  1.00 21.48 LIG 0.00  C 
BRANCH 15 16
ATOM     16  CD  LYS D   4       0.065   4.362  32.196  1.00 25.56 LIG 0.03  C 
BRANCH 16 17
ATOM     17  CE  LYS D   4      -0.668   4.017  30.879  1.00 25.12 LIG 0.23  C 
BRANCH 17 18
ATOM     18  NZ  LYS D   4      -1.237   2.608  30.883  1.00 20.07 LIG-0.08  N 
ATOM     19 HZ1  LYS D   4      -1.613   2.441  31.673  1.00 20.07 LIG 0.27  HD
ATOM     20 HZ2  LYS D   4      -1.850   2.533  30.242  1.00 20.07 LIG 0.27  HD
ATOM     21 HZ3  LYS D   4      -0.582   2.023  30.738  1.00 20.07 LIG 0.27  HD
ENDBRANCH 17 18
ENDBRANCH 16 17
ENDBRANCH 15 16
ENDBRANCH 14 15
ENDBRANCH 11 14
ENDBRANCH 8 11
ENDBRANCH 6 7
BRANCH 6 22
ATOM     22  CB  THR D   3       1.961   9.311  34.676  1.00 14.57 LIG 0.15  C 
ATOM     23  CG2 THR D   3       1.535   9.380  36.172  1.00 14.25 LIG 0.04  C 
BRANCH 22 24
ATOM     24 OG1  THR D   3       3.307   9.789  34.529  1.00 15.86 LIG-0.39  OA
ATOM     25 HG1  THR D   3       3.813   9.369  35.053  1.00 15.86 LIG 0.21  HD
ENDBRANCH 22 24
ENDBRANCH 6 22
ENDBRANCH 3 6
ENDBRANCH 1 2
BRANCH 1 26
ATOM     26  CB  ARG D   2       4.876   4.868  32.220  1.00  9.49 LIG 0.04  C 
BRANCH 26 27
ATOM     27  CG  ARG D   2       5.938   3.704  32.254  1.00 10.73 LIG 0.02  C 
BRANCH 27 28
ATOM     28  CD  ARG D   2       7.035   4.029  31.228  1.00 10.86 LIG 0.14  C 
BRANCH 28 29
ATOM     29  NE  ARG D   2       6.847   3.299  30.001  1.00 10.69 LIG-0.23  N 
ATOM     30  CZ  ARG D   2       6.763   3.851  28.759  1.00  9.43 LIG 0.67  C 
ATOM     31  NH1 ARG D   2       6.802   5.178  28.561  1.00 10.34 LIG-0.23  N 
ATOM     32  NH2 ARG D   2       6.534   3.070  27.726  1.00 11.18 LIG-0.23  N 
ATOM     33 2HH1 ARG D   2       6.746   5.496  27.764  1.00 10.34 LIG 0.17  HD
ATOM     34 1HH1 ARG D   2       6.883   5.711  29.232  1.00 10.34 LIG 0.17  HD
ATOM     35 2HH2 ARG D   2       6.478   3.406  26.936  1.00 11.18 LIG 0.17  HD
ATOM     36 1HH2 ARG D   2       6.440   2.223  27.839  1.00 11.18 LIG 0.17  HD
ATOM     37 HE   ARG D   2       6.782   2.443  30.057  1.00 10.69 LIG 0.18  HD
ENDBRANCH 28 29
ENDBRANCH 27 28
ENDBRANCH 26 27
ENDBRANCH 1 26
BRANCH 1 38
ATOM     38  N   ARG D   2       5.706   5.040  34.549  1.00  9.04 LIG-0.35  N 
ATOM     39 H    ARG D   2       5.814   4.195  34.428  1.00  9.04 LIG 0.16  HD
ATOM     40  C   ALA D   1       6.177   5.727  35.604  1.00 11.17 LIG 0.24  C 
ATOM     41 O    ALA D   1       5.991   6.938  35.712  1.00 13.49 LIG-0.27  OA
BRANCH 40 42
ATOM     42  CA  ALA D   1       7.001   4.988  36.640  1.00 12.65 LIG 0.17  C 
ATOM     43  CB  ALA D   1       6.109   4.236  37.654  1.00 13.08 LIG 0.04  C 
BRANCH 42 44
ATOM     44  N   ALA D   1       7.908   5.868  37.388  1.00 12.52 LIG-0.35  N 
ATOM     45  C   ACE D   0       9.397   5.643  37.673  1.00 13.59 LIG 0.21  C 
ATOM     46 O    ACE D   0       9.847   4.553  37.194  1.00 14.78 LIG-0.27  OA
ATOM     47  CH3 ACE D   0      10.163   6.670  38.461  1.00 14.73 LIG 0.12  C 
ATOM     48 H    ALA D   1       7.504   6.572  37.673  1.00 12.52 LIG 0.16  HD
ENDBRANCH 42 44
ENDBRANCH 40 42
ENDBRANCH 1 38
TORSDOF 19
ENDMDL
MODEL 21
USER: ADFR SOLUTION from run 190
USER: SCORE 15.183802 LL:  -2.871 LR: -14.172 RR:   0.000 FEB:  -8.504
USER: RMSD 7.017691
USER: SEED 189
USER: STATUS no improvement in best in 4 clusters for 5 generations
USER: GENES 21
USER: genes 0 Translation |==|  0.52793 0.28644 0.53883
USER: genes 1 Rotation |==|  0.52777 0.16849 0.16618 0.66702
USER: genes 2 Torsion [N]-CA--C-[N] |==|  0.59431
USER: genes 3 Torsion [C]-N--CA-[C] |==|  0.61481
USER: genes 4 Torsion [N]-CA--C-[N] |==|  0.06428
USER: genes 5 Torsion [C]-N--CA-[CB] |==|  0.32705
USER: genes 6 Torsion [N]-CA--C-[O] |==|  0.74393
USER: genes 7 Torsion [N]-CA--CB-[CG] |==|  0.01877
USER: genes 8 Torsion [CA]-CB--CG-[CD] |==|  0.36455
USER: genes 9 Torsion [CB]-CG--CD-[CE] |==|  0.05543
USER: genes 10 Torsion [CG]-CD--CE-[NZ] |==|  0.74046
USER: genes 11 Torsion [CD]-CE--NZ-[HZ1] |==|  0.25195
USER: genes 12 Torsion [N]-CA--CB-[CG2] |==|  0.56580
USER: genes 13 Torsion [CA]-CB--OG1-[HG1] |==|  0.66715
USER: genes 14 Torsion [C]-CA--CB-[CG] |==|  0.32320
USER: genes 15 Torsion [CA]-CB--CG-[CD] |==|  0.71215
USER: genes 16 Torsion [CB]-CG--CD-[NE] |==|  0.65691
USER: genes 17 Torsion [CG]-CD--NE-[CZ] |==|  0.66539
USER: genes 18 Torsion [C]-CA--N-[C] |==|  0.20429
USER: genes 19 Torsion [N]-C--CA-[N] |==|  0.18121
USER: genes 20 Torsion [C]-CA--N-[C] |==|  0.56927
ROOT
ATOM      1  CA  ARG D   2       5.455   4.053  34.218  1.00  9.56 LIG 0.18  C 
ENDROOT
BRANCH 1 2
ATOM      2  C   ARG D   2       6.207   4.393  32.903  1.00 11.06 LIG 0.24  C 
ATOM      3  N   THR D   3       5.539   5.117  32.011  1.00 11.45 LIG-0.34  N 
ATOM      4 H    THR D   3       4.754   5.447  32.132  1.00 11.45 LIG 0.16  HD
ATOM      5 O    ARG D   2       7.384   4.042  32.719  1.00  9.90 LIG-0.27  OA
BRANCH 3 6
ATOM      6  CA  THR D   3       6.133   5.397  30.729  1.00 13.43 LIG 0.20  C 
BRANCH 6 7
ATOM      7  C   THR D   3       5.887   6.831  30.284  1.00 15.00 LIG 0.24  C 
ATOM      8  N   LYS D   4       5.623   7.728  31.256  1.00 14.79 LIG-0.35  N 
ATOM      9 H    LYS D   4       5.640   7.546  32.096  1.00 14.79 LIG 0.16  HD
ATOM     10 O    THR D   3       5.927   7.095  29.066  1.00 15.79 LIG-0.27  OA
BRANCH 8 11
ATOM     11  CA  LYS D   4       5.272   9.146  30.937  1.00 18.13 LIG 0.16  C 
BRANCH 11 12
ATOM     12  C   LYS D   4       6.222  10.176  31.534  1.00 20.20 LIG 0.22  C 
ATOM     13 O    LYS D   4       5.907  10.637  32.665  1.00 21.26 LIG-0.29  OA
ENDBRANCH 11 12
BRANCH 11 14
ATOM     14  CB  LYS D   4       3.841   9.455  31.445  1.00 18.02 LIG 0.03  C 
BRANCH 14 15
ATOM     15  CG  LYS D   4       3.242   8.330  32.257  1.00 21.48 LIG 0.00  C 
BRANCH 15 16
ATOM     16  CD  LYS D   4       2.648   8.816  33.557  1.00 25.56 LIG 0.03  C 
BRANCH 16 17
ATOM     17  CE  LYS D   4       2.368  10.334  33.475  1.00 25.12 LIG 0.23  C 
BRANCH 17 18
ATOM     18  NZ  LYS D   4       3.520  11.167  34.013  1.00 20.07 LIG-0.08  N 
ATOM     19 HZ1  LYS D   4       4.082  11.360  33.350  1.00 20.07 LIG 0.27  HD
ATOM     20 HZ2  LYS D   4       3.204  11.921  34.362  1.00 20.07 LIG 0.27  HD
ATOM     21 HZ3  LYS D   4       3.951  10.707  34.641  1.00 20.07 LIG 0.27  HD
ENDBRANCH 17 18
ENDBRANCH 16 17
ENDBRANCH 15 16
ENDBRANCH 14 15
ENDBRANCH 11 14
ENDBRANCH 8 11
ENDBRANCH 6 7
BRANCH 6 22
ATOM     22  CB  THR D   3       5.674   4.392  29.611  1.00 14.57 LIG 0.15  C 
ATOM     23  CG2 THR D   3       6.721   4.326  28.460  1.00 14.25 LIG 0.04  C 
BRANCH 22 24
ATOM     24 OG1  THR D   3       5.486   3.084  30.175  1.00 15.86 LIG-0.39  OA
ATOM     25 HG1  THR D   3       6.003   2.539  29.798  1.00 15.86 LIG 0.21  HD
ENDBRANCH 22 24
ENDBRANCH 6 22
ENDBRANCH 3 6
ENDBRANCH 1 2
BRANCH 1 26
ATOM     26  CB  ARG D   2       4.288   5.017  34.504  1.00  9.49 LIG 0.04  C 
BRANCH 26 27
ATOM     27  CG  ARG D   2       2.904   4.264  34.490  1.00 10.73 LIG 0.02  C 
BRANCH 27 28
ATOM     28  CD  ARG D   2       2.197   4.592  33.165  1.00 10.86 LIG 0.14  C 
BRANCH 28 29
ATOM     29  NE  ARG D   2       0.895   5.167  33.385  1.00 10.69 LIG-0.23  N 
ATOM     30  CZ  ARG D   2      -0.283   4.647  32.940  1.00  9.43 LIG 0.67  C 
ATOM     31  NH1 ARG D   2      -0.337   3.537  32.189  1.00 10.34 LIG-0.23  N 
ATOM     32  NH2 ARG D   2      -1.398   5.307  33.166  1.00 11.18 LIG-0.23  N 
ATOM     33 2HH1 ARG D   2      -1.096   3.234  31.924  1.00 10.34 LIG 0.17  HD
ATOM     34 1HH1 ARG D   2       0.389   3.128  31.973  1.00 10.34 LIG 0.17  HD
ATOM     35 2HH2 ARG D   2      -2.149   4.990  32.891  1.00 11.18 LIG 0.17  HD
ATOM     36 1HH2 ARG D   2      -1.377   6.055  33.589  1.00 11.18 LIG 0.17  HD
ATOM     37 HE   ARG D   2       0.858   5.900  33.835  1.00 10.69 LIG 0.18  HD
ENDBRANCH 28 29
ENDBRANCH 27 28
ENDBRANCH 26 27
ENDBRANCH 1 26
BRANCH 1 38
ATOM     38  N   ARG D   2       6.388   4.014  35.356  1.00  9.04 LIG-0.35  N 
ATOM     39 H    ARG D   2       6.569   3.227  35.651  1.00  9.04 LIG 0.16  HD
ATOM     40  C   ALA D   1       6.893   5.154  35.858  1.00 11.17 LIG 0.24  C 
ATOM     41 O    ALA D   1       6.595   6.248  35.381  1.00 13.49 LIG-0.27  OA
BRANCH 40 42
ATOM     42  CA  ALA D   1       7.892   5.065  36.995  1.00 12.65 LIG 0.17  C 
ATOM     43  CB  ALA D   1       8.224   6.457  37.579  1.00 13.08 LIG 0.04  C 
BRANCH 42 44
ATOM     44  N   ALA D   1       9.151   4.417  36.604  1.00 12.52 LIG-0.35  N 
ATOM     45  C   ACE D   0      10.143   3.687  37.516  1.00 13.59 LIG 0.21  C 
ATOM     46 O    ACE D   0       9.795   3.676  38.740  1.00 14.78 LIG-0.27  OA
ATOM     47  CH3 ACE D   0      11.386   3.081  36.923  1.00 14.73 LIG 0.12  C 
ATOM     48 H    ALA D   1       9.296   4.487  35.759  1.00 12.52 LIG 0.16  HD
ENDBRANCH 42 44
ENDBRANCH 40 42
ENDBRANCH 1 38
TORSDOF 19
ENDMDL
MODEL 22
USER: ADFR SOLUTION from run 73
USER: SCORE 14.885894 LL:  -2.229 LR: -14.150 RR:   0.000 FEB:  -8.482
USER: RMSD 7.020541
USER: SEED 72
USER: STATUS no improvement in best in 4 clusters for 5 generations
USER: GENES 21
USER: genes 0 Translation |==|  0.46110 0.33562 0.46305
USER: genes 1 Rotation |==|  0.59238 0.12660 0.23486 0.67816
USER: genes 2 Torsion [N]-CA--C-[N] |==|  0.47456
USER: genes 3 Torsion [C]-N--CA-[C] |==|  0.78671
USER: genes 4 Torsion [N]-CA--C-[N] |==|  0.00817
USER: genes 5 Torsion [C]-N--CA-[CB] |==|  0.55412
USER: genes 6 Torsion [N]-CA--C-[O] |==|  0.32023
USER: genes 7 Torsion [N]-CA--CB-[CG] |==|  0.18444
USER: genes 8 Torsion [CA]-CB--CG-[CD] |==|  0.68883
USER: genes 9 Torsion [CB]-CG--CD-[CE] |==|  0.81246
USER: genes 10 Torsion [CG]-CD--CE-[NZ] |==|  0.86634
USER: genes 11 Torsion [CD]-CE--NZ-[HZ1] |==|  0.67959
USER: genes 12 Torsion [N]-CA--CB-[CG2] |==|  0.59866
USER: genes 13 Torsion [CA]-CB--OG1-[HG1] |==|  0.81294
USER: genes 14 Torsion [C]-CA--CB-[CG] |==|  0.34017
USER: genes 15 Torsion [CA]-CB--CG-[CD] |==|  0.53440
USER: genes 16 Torsion [CB]-CG--CD-[NE] |==|  0.42897
USER: genes 17 Torsion [CG]-CD--NE-[CZ] |==|  0.78517
USER: genes 18 Torsion [C]-CA--N-[C] |==|  0.81022
USER: genes 19 Torsion [N]-C--CA-[N] |==|  0.53811
USER: genes 20 Torsion [C]-CA--N-[C] |==|  0.46121
ROOT
ATOM      1  CA  ARG D   2       4.151   4.828  32.911  1.00  9.56 LIG 0.18  C 
ENDROOT
BRANCH 1 2
ATOM      2  C   ARG D   2       5.085   5.141  31.710  1.00 11.06 LIG 0.24  C 
ATOM      3  N   THR D   3       4.732   4.624  30.538  1.00 11.45 LIG-0.34  N 
ATOM      4 H    THR D   3       4.010   4.180  30.392  1.00 11.45 LIG 0.16  HD
ATOM      5 O    ARG D   2       6.080   5.872  31.835  1.00  9.90 LIG-0.27  OA
BRANCH 3 6
ATOM      6  CA  THR D   3       5.592   4.792  29.395  1.00 13.43 LIG 0.20  C 
BRANCH 6 7
ATOM      7  C   THR D   3       5.491   6.190  28.802  1.00 15.00 LIG 0.24  C 
ATOM      8  N   LYS D   4       4.688   7.062  29.445  1.00 14.79 LIG-0.35  N 
ATOM      9 H    LYS D   4       4.284   6.889  30.184  1.00 14.79 LIG 0.16  HD
ATOM     10 O    THR D   3       6.132   6.447  27.764  1.00 15.79 LIG-0.27  OA
BRANCH 8 11
ATOM     11  CA  LYS D   4       4.433   8.434  28.908  1.00 18.13 LIG 0.16  C 
BRANCH 11 12
ATOM     12  C   LYS D   4       5.653   9.099  28.284  1.00 20.20 LIG 0.22  C 
ATOM     13 O    LYS D   4       5.590   9.332  27.046  1.00 21.26 LIG-0.29  OA
ENDBRANCH 11 12
BRANCH 11 14
ATOM     14  CB  LYS D   4       3.910   9.350  30.043  1.00 18.02 LIG 0.03  C 
BRANCH 14 15
ATOM     15  CG  LYS D   4       4.939   9.609  31.120  1.00 21.48 LIG 0.00  C 
BRANCH 15 16
ATOM     16  CD  LYS D   4       4.567   8.964  32.433  1.00 25.56 LIG 0.03  C 
BRANCH 16 17
ATOM     17  CE  LYS D   4       3.315   9.651  33.024  1.00 25.12 LIG 0.23  C 
BRANCH 17 18
ATOM     18  NZ  LYS D   4       3.425  11.167  33.015  1.00 20.07 LIG-0.08  N 
ATOM     19 HZ1  LYS D   4       3.436  11.469  33.852  1.00 20.07 LIG 0.27  HD
ATOM     20 HZ2  LYS D   4       4.177  11.407  32.604  1.00 20.07 LIG 0.27  HD
ATOM     21 HZ3  LYS D   4       2.727  11.513  32.585  1.00 20.07 LIG 0.27  HD
ENDBRANCH 17 18
ENDBRANCH 16 17
ENDBRANCH 15 16
ENDBRANCH 14 15
ENDBRANCH 11 14
ENDBRANCH 8 11
ENDBRANCH 6 7
BRANCH 6 22
ATOM     22  CB  THR D   3       5.348   3.708  28.283  1.00 14.57 LIG 0.15  C 
ATOM     23  CG2 THR D   3       6.684   3.320  27.584  1.00 14.25 LIG 0.04  C 
BRANCH 22 24
ATOM     24 OG1  THR D   3       4.742   2.541  28.860  1.00 15.86 LIG-0.39  OA
ATOM     25 HG1  THR D   3       5.290   2.167  29.376  1.00 15.86 LIG 0.21  HD
ENDBRANCH 22 24
ENDBRANCH 6 22
ENDBRANCH 3 6
ENDBRANCH 1 2
BRANCH 1 26
ATOM     26  CB  ARG D   2       2.744   5.431  32.747  1.00  9.49 LIG 0.04  C 
BRANCH 26 27
ATOM     27  CG  ARG D   2       1.630   4.320  32.817  1.00 10.73 LIG 0.02  C 
BRANCH 27 28
ATOM     28  CD  ARG D   2       0.307   4.941  32.340  1.00 10.86 LIG 0.14  C 
BRANCH 28 29
ATOM     29  NE  ARG D   2      -0.587   3.944  31.811  1.00 10.69 LIG-0.23  N 
ATOM     30  CZ  ARG D   2      -0.488   3.368  30.581  1.00  9.43 LIG 0.67  C 
ATOM     31  NH1 ARG D   2       0.458   3.723  29.698  1.00 10.34 LIG-0.23  N 
ATOM     32  NH2 ARG D   2      -1.409   2.508  30.202  1.00 11.18 LIG-0.23  N 
ATOM     33 2HH1 ARG D   2       0.494   3.340  28.929  1.00 10.34 LIG 0.17  HD
ATOM     34 1HH1 ARG D   2       1.029   4.333  29.902  1.00 10.34 LIG 0.17  HD
ATOM     35 2HH2 ARG D   2      -1.358   2.137  29.427  1.00 11.18 LIG 0.17  HD
ATOM     36 1HH2 ARG D   2      -2.061   2.317  30.728  1.00 11.18 LIG 0.17  HD
ATOM     37 HE   ARG D   2      -1.238   3.691  32.314  1.00 10.69 LIG 0.18  HD
ENDBRANCH 28 29
ENDBRANCH 27 28
ENDBRANCH 26 27
ENDBRANCH 1 26
BRANCH 1 38
ATOM     38  N   ARG D   2       4.764   5.270  34.174  1.00  9.04 LIG-0.35  N 
ATOM     39 H    ARG D   2       4.371   5.933  34.557  1.00  9.04 LIG 0.16  HD
ATOM     40  C   ALA D   1       5.856   4.649  34.652  1.00 11.17 LIG 0.24  C 
ATOM     41 O    ALA D   1       6.364   3.701  34.054  1.00 13.49 LIG-0.27  OA
BRANCH 40 42
ATOM     42  CA  ALA D   1       6.423   5.100  35.984  1.00 12.65 LIG 0.17  C 
ATOM     43  CB  ALA D   1       6.467   6.641  36.096  1.00 13.08 LIG 0.04  C 
BRANCH 42 44
ATOM     44  N   ALA D   1       7.772   4.580  36.241  1.00 12.52 LIG-0.35  N 
ATOM     45  C   ACE D   0       8.759   5.049  37.314  1.00 13.59 LIG 0.21  C 
ATOM     46 O    ACE D   0       8.316   6.002  38.032  1.00 14.78 LIG-0.27  OA
ATOM     47  CH3 ACE D   0      10.104   4.384  37.424  1.00 14.73 LIG 0.12  C 
ATOM     48 H    ALA D   1       7.976   3.944  35.699  1.00 12.52 LIG 0.16  HD
ENDBRANCH 42 44
ENDBRANCH 40 42
ENDBRANCH 1 38
TORSDOF 19
ENDMDL
MODEL 23
USER: ADFR SOLUTION from run 148
USER: SCORE 16.385449 LL:  -2.987 LR: -14.110 RR:   0.000 FEB:  -8.443
USER: RMSD 3.743875
USER: SEED 147
USER: STATUS no improvement in best in 3 clusters for 5 generations
USER: GENES 21
USER: genes 0 Translation |==|  0.51763 0.48353 0.56427
USER: genes 1 Rotation |==|  0.65734 0.49353 0.69150 0.93420
USER: genes 2 Torsion [N]-CA--C-[N] |==|  0.29745
USER: genes 3 Torsion [C]-N--CA-[C] |==|  0.15558
USER: genes 4 Torsion [N]-CA--C-[N] |==|  0.03709
USER: genes 5 Torsion [C]-N--CA-[CB] |==|  0.85994
USER: genes 6 Torsion [N]-CA--C-[O] |==|  0.66854
USER: genes 7 Torsion [N]-CA--CB-[CG] |==|  0.57453
USER: genes 8 Torsion [CA]-CB--CG-[CD] |==|  0.61351
USER: genes 9 Torsion [CB]-CG--CD-[CE] |==|  0.04968
USER: genes 10 Torsion [CG]-CD--CE-[NZ] |==|  0.28019
USER: genes 11 Torsion [CD]-CE--NZ-[HZ1] |==|  0.23304
USER: genes 12 Torsion [N]-CA--CB-[CG2] |==|  0.62855
USER: genes 13 Torsion [CA]-CB--OG1-[HG1] |==|  0.69180
USER: genes 14 Torsion [C]-CA--CB-[CG] |==|  0.00657
USER: genes 15 Torsion [CA]-CB--CG-[CD] |==|  0.49792
USER: genes 16 Torsion [CB]-CG--CD-[NE] |==|  0.73758
USER: genes 17 Torsion [CG]-CD--NE-[CZ] |==|  0.27383
USER: genes 18 Torsion [C]-CA--N-[C] |==|  0.78241
USER: genes 19 Torsion [N]-C--CA-[N] |==|  0.95031
USER: genes 20 Torsion [C]-CA--N-[C] |==|  0.79444
ROOT
ATOM      1  CA  ARG D   2       5.254   7.158  34.657  1.00  9.56 LIG 0.18  C 
ENDROOT
BRANCH 1 2
ATOM      2  C   ARG D   2       4.927   6.026  33.646  1.00 11.06 LIG 0.24  C 
ATOM      3  N   THR D   3       5.319   6.224  32.391  1.00 11.45 LIG-0.34  N 
ATOM      4 H    THR D   3       5.777   6.898  32.119  1.00 11.45 LIG 0.16  HD
ATOM      5 O    ARG D   2       4.369   4.976  34.004  1.00  9.90 LIG-0.27  OA
BRANCH 3 6
ATOM      6  CA  THR D   3       4.974   5.263  31.375  1.00 13.43 LIG 0.20  C 
BRANCH 6 7
ATOM      7  C   THR D   3       3.473   5.029  31.292  1.00 15.00 LIG 0.24  C 
ATOM      8  N   LYS D   4       2.687   5.913  31.941  1.00 14.79 LIG-0.35  N 
ATOM      9 H    LYS D   4       2.982   6.614  32.342  1.00 14.79 LIG 0.16  HD
ATOM     10 O    THR D   3       3.056   4.042  30.655  1.00 15.79 LIG-0.27  OA
BRANCH 8 11
ATOM     11  CA  LYS D   4       1.205   5.736  32.013  1.00 18.13 LIG 0.16  C 
BRANCH 11 12
ATOM     12  C   LYS D   4       0.753   4.595  32.914  1.00 20.20 LIG 0.22  C 
ATOM     13 O    LYS D   4       0.095   3.672  32.360  1.00 21.26 LIG-0.29  OA
ENDBRANCH 11 12
BRANCH 11 14
ATOM     14  CB  LYS D   4       0.640   5.483  30.591  1.00 18.02 LIG 0.03  C 
BRANCH 14 15
ATOM     15  CG  LYS D   4      -0.799   5.920  30.437  1.00 21.48 LIG 0.00  C 
BRANCH 15 16
ATOM     16  CD  LYS D   4      -1.611   4.937  29.630  1.00 25.56 LIG 0.03  C 
BRANCH 16 17
ATOM     17  CE  LYS D   4      -0.885   3.573  29.571  1.00 25.12 LIG 0.23  C 
BRANCH 17 18
ATOM     18  NZ  LYS D   4      -1.465   2.564  30.548  1.00 20.07 LIG-0.08  N 
ATOM     19 HZ1  LYS D   4      -2.172   2.168  30.181  1.00 20.07 LIG 0.27  HD
ATOM     20 HZ2  LYS D   4      -0.850   1.951  30.742  1.00 20.07 LIG 0.27  HD
ATOM     21 HZ3  LYS D   4      -1.713   2.981  31.294  1.00 20.07 LIG 0.27  HD
ENDBRANCH 17 18
ENDBRANCH 16 17
ENDBRANCH 15 16
ENDBRANCH 14 15
ENDBRANCH 11 14
ENDBRANCH 8 11
ENDBRANCH 6 7
BRANCH 6 22
ATOM     22  CB  THR D   3       5.732   3.896  31.546  1.00 14.57 LIG 0.15  C 
ATOM     23  CG2 THR D   3       6.317   3.413  30.186  1.00 14.25 LIG 0.04  C 
BRANCH 22 24
ATOM     24 OG1  THR D   3       6.789   4.039  32.508  1.00 15.86 LIG-0.39  OA
ATOM     25 HG1  THR D   3       7.532   3.986  32.118  1.00 15.86 LIG 0.21  HD
ENDBRANCH 22 24
ENDBRANCH 6 22
ENDBRANCH 3 6
ENDBRANCH 1 2
BRANCH 1 26
ATOM     26  CB  ARG D   2       5.976   6.644  35.916  1.00  9.49 LIG 0.04  C 
BRANCH 26 27
ATOM     27  CG  ARG D   2       6.254   5.095  35.828  1.00 10.73 LIG 0.02  C 
BRANCH 27 28
ATOM     28  CD  ARG D   2       6.990   4.670  37.109  1.00 10.86 LIG 0.14  C 
BRANCH 28 29
ATOM     29  NE  ARG D   2       8.418   4.669  36.925  1.00 10.69 LIG-0.23  N 
ATOM     30  CZ  ARG D   2       9.263   5.668  37.304  1.00  9.43 LIG 0.67  C 
ATOM     31  NH1 ARG D   2       8.823   6.806  37.862  1.00 10.34 LIG-0.23  N 
ATOM     32  NH2 ARG D   2      10.544   5.561  37.024  1.00 11.18 LIG-0.23  N 
ATOM     33 2HH1 ARG D   2       9.382   7.417  38.091  1.00 10.34 LIG 0.17  HD
ATOM     34 1HH1 ARG D   2       7.980   6.923  37.991  1.00 10.34 LIG 0.17  HD
ATOM     35 2HH2 ARG D   2      11.089   6.185  37.258  1.00 11.18 LIG 0.17  HD
ATOM     36 1HH2 ARG D   2      10.837   4.869  36.607  1.00 11.18 LIG 0.17  HD
ATOM     37 HE   ARG D   2       8.766   3.981  36.544  1.00 10.69 LIG 0.18  HD
ENDBRANCH 28 29
ENDBRANCH 27 28
ENDBRANCH 26 27
ENDBRANCH 1 26
BRANCH 1 38
ATOM     38  N   ARG D   2       4.034   7.898  35.021  1.00  9.04 LIG-0.35  N 
ATOM     39 H    ARG D   2       3.698   7.692  35.785  1.00  9.04 LIG 0.16  HD
ATOM     40  C   ALA D   1       3.525   8.819  34.185  1.00 11.17 LIG 0.24  C 
ATOM     41 O    ALA D   1       4.063   9.068  33.107  1.00 13.49 LIG-0.27  OA
BRANCH 40 42
ATOM     42  CA  ALA D   1       2.299   9.596  34.623  1.00 12.65 LIG 0.17  C 
ATOM     43  CB  ALA D   1       2.655  11.040  35.043  1.00 13.08 LIG 0.04  C 
BRANCH 42 44
ATOM     44  N   ALA D   1       1.579   8.957  35.731  1.00 12.52 LIG-0.35  N 
ATOM     45  C   ACE D   0       0.696   7.707  35.668  1.00 13.59 LIG 0.21  C 
ATOM     46 O    ACE D   0       0.602   7.209  34.500  1.00 14.78 LIG-0.27  OA
ATOM     47  CH3 ACE D   0       0.040   7.199  36.923  1.00 14.73 LIG 0.12  C 
ATOM     48 H    ALA D   1       1.703   9.374  36.474  1.00 12.52 LIG 0.16  HD
ENDBRANCH 42 44
ENDBRANCH 40 42
ENDBRANCH 1 38
TORSDOF 19
ENDMDL
MODEL 24
USER: ADFR SOLUTION from run 97
USER: SCORE 15.556826 LL:  -2.418 LR: -14.099 RR:   0.000 FEB:  -8.431
USER: RMSD 5.791132
USER: SEED 96
USER: STATUS no improvement in best in 7 clusters for 5 generations
USER: GENES 21
USER: genes 0 Translation |==|  0.40567 0.56837 0.57739
USER: genes 1 Rotation |==|  0.39050 0.07953 0.67096 0.67886
USER: genes 2 Torsion [N]-CA--C-[N] |==|  0.07861
USER: genes 3 Torsion [C]-N--CA-[C] |==|  0.14453
USER: genes 4 Torsion [N]-CA--C-[N] |==|  0.07222
USER: genes 5 Torsion [C]-N--CA-[CB] |==|  0.43358
USER: genes 6 Torsion [N]-CA--C-[O] |==|  0.16552
USER: genes 7 Torsion [N]-CA--CB-[CG] |==|  0.74330
USER: genes 8 Torsion [CA]-CB--CG-[CD] |==|  0.60635
USER: genes 9 Torsion [CB]-CG--CD-[CE] |==|  0.43648
USER: genes 10 Torsion [CG]-CD--CE-[NZ] |==|  0.60684
USER: genes 11 Torsion [CD]-CE--NZ-[HZ1] |==|  0.66058
USER: genes 12 Torsion [N]-CA--CB-[CG2] |==|  0.69575
USER: genes 13 Torsion [CA]-CB--OG1-[HG1] |==|  0.64790
USER: genes 14 Torsion [C]-CA--CB-[CG] |==|  0.15218
USER: genes 15 Torsion [CA]-CB--CG-[CD] |==|  0.57476
USER: genes 16 Torsion [CB]-CG--CD-[NE] |==|  0.91313
USER: genes 17 Torsion [CG]-CD--NE-[CZ] |==|  0.52206
USER: genes 18 Torsion [C]-CA--N-[C] |==|  0.17095
USER: genes 19 Torsion [N]-C--CA-[N] |==|  0.79825
USER: genes 20 Torsion [C]-CA--N-[C] |==|  0.75172
ROOT
ATOM      1  CA  ARG D   2       3.071   8.494  34.883  1.00  9.56 LIG 0.18  C 
ENDROOT
BRANCH 1 2
ATOM      2  C   ARG D   2       3.953   7.237  35.108  1.00 11.06 LIG 0.24  C 
ATOM      3  N   THR D   3       5.264   7.401  34.957  1.00 11.45 LIG-0.34  N 
ATOM      4 H    THR D   3       5.651   8.152  34.798  1.00 11.45 LIG 0.16  HD
ATOM      5 O    ARG D   2       3.461   6.150  35.452  1.00  9.90 LIG-0.27  OA
BRANCH 3 6
ATOM      6  CA  THR D   3       6.142   6.265  35.060  1.00 13.43 LIG 0.20  C 
BRANCH 6 7
ATOM      7  C   THR D   3       5.708   5.120  34.157  1.00 15.00 LIG 0.24  C 
ATOM      8  N   LYS D   4       4.992   5.452  33.063  1.00 14.79 LIG-0.35  N 
ATOM      9 H    LYS D   4       4.822   6.261  32.827  1.00 14.79 LIG 0.16  HD
ATOM     10 O    THR D   3       6.016   3.955  34.477  1.00 15.79 LIG-0.27  OA
BRANCH 8 11
ATOM     11  CA  LYS D   4       4.428   4.410  32.151  1.00 18.13 LIG 0.16  C 
BRANCH 11 12
ATOM     12  C   LYS D   4       5.419   3.866  31.132  1.00 20.20 LIG 0.22  C 
ATOM     13 O    LYS D   4       6.454   3.316  31.597  1.00 21.26 LIG-0.29  OA
ENDBRANCH 11 12
BRANCH 11 14
ATOM     14  CB  LYS D   4       3.213   4.992  31.384  1.00 18.02 LIG 0.03  C 
BRANCH 14 15
ATOM     15  CG  LYS D   4       1.894   4.735  32.076  1.00 21.48 LIG 0.00  C 
BRANCH 15 16
ATOM     16  CD  LYS D   4       0.788   4.420  31.099  1.00 25.56 LIG 0.03  C 
BRANCH 16 17
ATOM     17  CE  LYS D   4      -0.335   3.629  31.808  1.00 25.12 LIG 0.23  C 
BRANCH 17 18
ATOM     18  NZ  LYS D   4      -0.927   2.543  30.925  1.00 20.07 LIG-0.08  N 
ATOM     19 HZ1  LYS D   4      -1.802   2.676  30.835  1.00 20.07 LIG 0.27  HD
ATOM     20 HZ2  LYS D   4      -0.540   2.568  30.124  1.00 20.07 LIG 0.27  HD
ATOM     21 HZ3  LYS D   4      -0.785   1.747  31.297  1.00 20.07 LIG 0.27  HD
ENDBRANCH 17 18
ENDBRANCH 16 17
ENDBRANCH 15 16
ENDBRANCH 14 15
ENDBRANCH 11 14
ENDBRANCH 8 11
ENDBRANCH 6 7
BRANCH 6 22
ATOM     22  CB  THR D   3       6.317   5.759  36.538  1.00 14.57 LIG 0.15  C 
ATOM     23  CG2 THR D   3       7.747   6.073  37.067  1.00 14.25 LIG 0.04  C 
BRANCH 22 24
ATOM     24 OG1  THR D   3       5.337   6.379  37.386  1.00 15.86 LIG-0.39  OA
ATOM     25 HG1  THR D   3       5.721   6.741  38.040  1.00 15.86 LIG 0.21  HD
ENDBRANCH 22 24
ENDBRANCH 6 22
ENDBRANCH 3 6
ENDBRANCH 1 2
BRANCH 1 26
ATOM     26  CB  ARG D   2       1.643   8.147  34.422  1.00  9.49 LIG 0.04  C 
BRANCH 26 27
ATOM     27  CG  ARG D   2       0.944   7.147  35.419  1.00 10.73 LIG 0.02  C 
BRANCH 27 28
ATOM     28  CD  ARG D   2      -0.102   6.342  34.630  1.00 10.86 LIG 0.14  C 
BRANCH 28 29
ATOM     29  NE  ARG D   2      -0.662   7.114  33.551  1.00 10.69 LIG-0.23  N 
ATOM     30  CZ  ARG D   2      -1.715   6.735  32.773  1.00  9.43 LIG 0.67  C 
ATOM     31  NH1 ARG D   2      -2.319   5.545  32.916  1.00 10.34 LIG-0.23  N 
ATOM     32  NH2 ARG D   2      -2.091   7.515  31.783  1.00 11.18 LIG-0.23  N 
ATOM     33 2HH1 ARG D   2      -2.981   5.336  32.409  1.00 10.34 LIG 0.17  HD
ATOM     34 1HH1 ARG D   2      -2.043   4.992  33.514  1.00 10.34 LIG 0.17  HD
ATOM     35 2HH2 ARG D   2      -2.754   7.288  31.284  1.00 11.18 LIG 0.17  HD
ATOM     36 1HH2 ARG D   2      -1.674   8.251  31.633  1.00 11.18 LIG 0.17  HD
ATOM     37 HE   ARG D   2      -0.303   7.877  33.383  1.00 10.69 LIG 0.18  HD
ENDBRANCH 28 29
ENDBRANCH 27 28
ENDBRANCH 26 27
ENDBRANCH 1 26
BRANCH 1 38
ATOM     38  N   ARG D   2       3.714   9.418  33.935  1.00  9.04 LIG-0.35  N 
ATOM     39 H    ARG D   2       3.902  10.195  34.253  1.00  9.04 LIG 0.16  HD
ATOM     40  C   ALA D   1       3.967   9.027  32.674  1.00 11.17 LIG 0.24  C 
ATOM     41 O    ALA D   1       3.676   7.896  32.285  1.00 13.49 LIG-0.27  OA
BRANCH 40 42
ATOM     42  CA  ALA D   1       4.680   9.991  31.745  1.00 12.65 LIG 0.17  C 
ATOM     43  CB  ALA D   1       5.956  10.575  32.393  1.00 13.08 LIG 0.04  C 
BRANCH 42 44
ATOM     44  N   ALA D   1       3.829  11.107  31.313  1.00 12.52 LIG-0.35  N 
ATOM     45  C   ACE D   0       2.913  11.156  30.086  1.00 13.59 LIG 0.21  C 
ATOM     46 O    ACE D   0       2.933  10.088  29.393  1.00 14.78 LIG-0.27  OA
ATOM     47  CH3 ACE D   0       2.111  12.399  29.810  1.00 14.73 LIG 0.12  C 
ATOM     48 H    ALA D   1       3.893  11.781  31.845  1.00 12.52 LIG 0.16  HD
ENDBRANCH 42 44
ENDBRANCH 40 42
ENDBRANCH 1 38
TORSDOF 19
ENDMDL
MODEL 25
USER: ADFR SOLUTION from run 63
USER: SCORE 16.521075 LL:  -2.723 LR: -14.073 RR:   0.000 FEB:  -8.405
USER: RMSD 6.265295
USER: SEED 62
USER: STATUS no improvement in best in 2 clusters for 5 generations
USER: GENES 21
USER: genes 0 Translation |==|  0.34563 0.41872 0.56503
USER: genes 1 Rotation |==|  0.43266 0.42629 0.90836 0.77069
USER: genes 2 Torsion [N]-CA--C-[N] |==|  0.38992
USER: genes 3 Torsion [C]-N--CA-[C] |==|  0.15811
USER: genes 4 Torsion [N]-CA--C-[N] |==|  0.10648
USER: genes 5 Torsion [C]-N--CA-[CB] |==|  0.47809
USER: genes 6 Torsion [N]-CA--C-[O] |==|  0.01774
USER: genes 7 Torsion [N]-CA--CB-[CG] |==|  0.46258
USER: genes 8 Torsion [CA]-CB--CG-[CD] |==|  0.71620
USER: genes 9 Torsion [CB]-CG--CD-[CE] |==|  0.44848
USER: genes 10 Torsion [CG]-CD--CE-[NZ] |==|  0.78826
USER: genes 11 Torsion [CD]-CE--NZ-[HZ1] |==|  0.39062
USER: genes 12 Torsion [N]-CA--CB-[CG2] |==|  0.62848
USER: genes 13 Torsion [CA]-CB--OG1-[HG1] |==|  0.57737
USER: genes 14 Torsion [C]-CA--CB-[CG] |==|  0.33602
USER: genes 15 Torsion [CA]-CB--CG-[CD] |==|  0.91479
USER: genes 16 Torsion [CB]-CG--CD-[NE] |==|  0.31178
USER: genes 17 Torsion [CG]-CD--NE-[CZ] |==|  0.41890
USER: genes 18 Torsion [C]-CA--N-[C] |==|  0.82660
USER: genes 19 Torsion [N]-C--CA-[N] |==|  0.09101
USER: genes 20 Torsion [C]-CA--N-[C] |==|  0.13889
ROOT
ATOM      1  CA  ARG D   2       1.900   6.137  34.670  1.00  9.56 LIG 0.18  C 
ENDROOT
BRANCH 1 2
ATOM      2  C   ARG D   2       3.222   5.347  34.860  1.00 11.06 LIG 0.24  C 
ATOM      3  N   THR D   3       4.342   6.063  34.868  1.00 11.45 LIG-0.34  N 
ATOM      4 H    THR D   3       4.378   6.921  34.828  1.00 11.45 LIG 0.16  HD
ATOM      5 O    ARG D   2       3.225   4.118  35.039  1.00  9.90 LIG-0.27  OA
BRANCH 3 6
ATOM      6  CA  THR D   3       5.616   5.397  34.949  1.00 13.43 LIG 0.20  C 
BRANCH 6 7
ATOM      7  C   THR D   3       5.811   4.393  33.822  1.00 15.00 LIG 0.24  C 
ATOM      8  N   LYS D   4       5.341   4.749  32.608  1.00 14.79 LIG-0.35  N 
ATOM      9 H    LYS D   4       4.995   5.516  32.433  1.00 14.79 LIG 0.16  HD
ATOM     10 O    THR D   3       6.371   3.309  34.076  1.00 15.79 LIG-0.27  OA
BRANCH 8 11
ATOM     11  CA  LYS D   4       5.388   3.811  31.446  1.00 18.13 LIG 0.16  C 
BRANCH 11 12
ATOM     12  C   LYS D   4       6.794   3.474  30.968  1.00 20.20 LIG 0.22  C 
ATOM     13 O    LYS D   4       7.744   3.914  31.672  1.00 21.26 LIG-0.29  OA
ENDBRANCH 11 12
BRANCH 11 14
ATOM     14  CB  LYS D   4       4.605   4.418  30.254  1.00 18.02 LIG 0.03  C 
BRANCH 14 15
ATOM     15  CG  LYS D   4       4.864   3.704  28.947  1.00 21.48 LIG 0.00  C 
BRANCH 15 16
ATOM     16  CD  LYS D   4       5.821   4.465  28.061  1.00 25.56 LIG 0.03  C 
BRANCH 16 17
ATOM     17  CE  LYS D   4       6.410   3.522  26.987  1.00 25.12 LIG 0.23  C 
BRANCH 17 18
ATOM     18  NZ  LYS D   4       7.480   2.600  27.548  1.00 20.07 LIG-0.08  N 
ATOM     19 HZ1  LYS D   4       7.396   1.792  27.186  1.00 20.07 LIG 0.27  HD
ATOM     20 HZ2  LYS D   4       8.285   2.928  27.357  1.00 20.07 LIG 0.27  HD
ATOM     21 HZ3  LYS D   4       7.387   2.540  28.431  1.00 20.07 LIG 0.27  HD
ENDBRANCH 17 18
ENDBRANCH 16 17
ENDBRANCH 15 16
ENDBRANCH 14 15
ENDBRANCH 11 14
ENDBRANCH 8 11
ENDBRANCH 6 7
BRANCH 6 22
ATOM     22  CB  THR D   3       5.857   4.708  36.341  1.00 14.57 LIG 0.15  C 
ATOM     23  CG2 THR D   3       7.283   5.029  36.880  1.00 14.25 LIG 0.04  C 
BRANCH 22 24
ATOM     24 OG1  THR D   3       4.869   5.151  37.284  1.00 15.86 LIG-0.39  OA
ATOM     25 HG1  THR D   3       5.185   5.112  38.062  1.00 15.86 LIG 0.21  HD
ENDBRANCH 22 24
ENDBRANCH 6 22
ENDBRANCH 3 6
ENDBRANCH 1 2
BRANCH 1 26
ATOM     26  CB  ARG D   2       1.219   6.491  36.004  1.00  9.49 LIG 0.04  C 
BRANCH 26 27
ATOM     27  CG  ARG D   2       1.048   8.049  36.167  1.00 10.73 LIG 0.02  C 
BRANCH 27 28
ATOM     28  CD  ARG D   2       2.207   8.735  35.427  1.00 10.86 LIG 0.14  C 
BRANCH 28 29
ATOM     29  NE  ARG D   2       1.744   9.459  34.271  1.00 10.69 LIG-0.23  N 
ATOM     30  CZ  ARG D   2       2.333  10.571  33.749  1.00  9.43 LIG 0.67  C 
ATOM     31  NH1 ARG D   2       3.410  11.142  34.310  1.00 10.34 LIG-0.23  N 
ATOM     32  NH2 ARG D   2       1.772  11.167  32.719  1.00 11.18 LIG-0.23  N 
ATOM     33 2HH1 ARG D   2       3.759  11.843  33.956  1.00 10.34 LIG 0.17  HD
ATOM     34 1HH1 ARG D   2       3.752  10.806  35.025  1.00 10.34 LIG 0.17  HD
ATOM     35 2HH2 ARG D   2       2.134  11.870  32.379  1.00 11.18 LIG 0.17  HD
ATOM     36 1HH2 ARG D   2       1.044  10.855  32.385  1.00 11.18 LIG 0.17  HD
ATOM     37 HE   ARG D   2       1.038   9.166  33.878  1.00 10.69 LIG 0.18  HD
ENDBRANCH 28 29
ENDBRANCH 27 28
ENDBRANCH 26 27
ENDBRANCH 1 26
BRANCH 1 38
ATOM     38  N   ARG D   2       0.975   5.400  33.793  1.00  9.04 LIG-0.35  N 
ATOM     39 H    ARG D   2       0.234   5.164  34.160  1.00  9.04 LIG 0.16  HD
ATOM     40  C   ALA D   1       1.313   5.140  32.518  1.00 11.17 LIG 0.24  C 
ATOM     41 O    ALA D   1       2.390   5.513  32.054  1.00 13.49 LIG-0.27  OA
BRANCH 40 42
ATOM     42  CA  ALA D   1       0.309   4.426  31.633  1.00 12.65 LIG 0.17  C 
ATOM     43  CB  ALA D   1       0.543   4.731  30.136  1.00 13.08 LIG 0.04  C 
BRANCH 42 44
ATOM     44  N   ALA D   1      -1.084   4.759  31.960  1.00 12.52 LIG-0.35  N 
ATOM     45  C   ACE D   0      -1.690   6.155  32.132  1.00 13.59 LIG 0.21  C 
ATOM     46 O    ACE D   0      -0.850   7.098  31.971  1.00 14.78 LIG-0.27  OA
ATOM     47  CH3 ACE D   0      -3.150   6.292  32.465  1.00 14.73 LIG 0.12  C 
ATOM     48 H    ALA D   1      -1.566   4.052  32.053  1.00 12.52 LIG 0.16  HD
ENDBRANCH 42 44
ENDBRANCH 40 42
ENDBRANCH 1 38
TORSDOF 19
ENDMDL
MODEL 26
USER: ADFR SOLUTION from run 63
USER: SCORE 15.911501 LL:  -2.747 LR: -14.057 RR:   0.000 FEB:  -8.390
USER: RMSD 7.198041
USER: SEED 62
USER: STATUS no improvement in best in 2 clusters for 5 generations
USER: GENES 21
USER: genes 0 Translation |==|  0.45859 0.40076 0.35923
USER: genes 1 Rotation |==|  0.22821 0.30218 0.86820 0.53775
USER: genes 2 Torsion [N]-CA--C-[N] |==|  0.80038
USER: genes 3 Torsion [C]-N--CA-[C] |==|  0.15186
USER: genes 4 Torsion [N]-CA--C-[N] |==|  0.13888
USER: genes 5 Torsion [C]-N--CA-[CB] |==|  0.30636
USER: genes 6 Torsion [N]-CA--C-[O] |==|  0.45256
USER: genes 7 Torsion [N]-CA--CB-[CG] |==|  0.80242
USER: genes 8 Torsion [CA]-CB--CG-[CD] |==|  0.35847
USER: genes 9 Torsion [CB]-CG--CD-[CE] |==|  0.51041
USER: genes 10 Torsion [CG]-CD--CE-[NZ] |==|  0.82469
USER: genes 11 Torsion [CD]-CE--NZ-[HZ1] |==|  0.50644
USER: genes 12 Torsion [N]-CA--CB-[CG2] |==|  0.53385
USER: genes 13 Torsion [CA]-CB--OG1-[HG1] |==|  0.67444
USER: genes 14 Torsion [C]-CA--CB-[CG] |==|  0.60615
USER: genes 15 Torsion [CA]-CB--CG-[CD] |==|  0.54668
USER: genes 16 Torsion [CB]-CG--CD-[NE] |==|  0.72559
USER: genes 17 Torsion [CG]-CD--NE-[CZ] |==|  0.29957
USER: genes 18 Torsion [C]-CA--N-[C] |==|  0.72656
USER: genes 19 Torsion [N]-C--CA-[N] |==|  0.07437
USER: genes 20 Torsion [C]-CA--N-[C] |==|  0.15915
ROOT
ATOM      1  CA  ARG D   2       4.102   5.854  31.120  1.00  9.56 LIG 0.18  C 
ENDROOT
BRANCH 1 2
ATOM      2  C   ARG D   2       4.526   5.915  32.612  1.00 11.06 LIG 0.24  C 
ATOM      3  N   THR D   3       4.279   4.831  33.340  1.00 11.45 LIG-0.34  N 
ATOM      4 H    THR D   3       3.954   4.096  33.035  1.00 11.45 LIG 0.16  HD
ATOM      5 O    ARG D   2       5.104   6.908  33.083  1.00  9.90 LIG-0.27  OA
BRANCH 3 6
ATOM      6  CA  THR D   3       4.559   4.841  34.753  1.00 13.43 LIG 0.20  C 
BRANCH 6 7
ATOM      7  C   THR D   3       3.872   5.996  35.467  1.00 15.00 LIG 0.24  C 
ATOM      8  N   LYS D   4       2.554   6.155  35.227  1.00 14.79 LIG-0.35  N 
ATOM      9 H    LYS D   4       2.084   5.618  34.747  1.00 14.79 LIG 0.16  HD
ATOM     10 O    THR D   3       4.553   6.730  36.209  1.00 15.79 LIG-0.27  OA
BRANCH 8 11
ATOM     11  CA  LYS D   4       1.790   7.309  35.794  1.00 18.13 LIG 0.16  C 
BRANCH 11 12
ATOM     12  C   LYS D   4       0.525   6.915  36.544  1.00 20.20 LIG 0.22  C 
ATOM     13 O    LYS D   4       0.035   7.788  37.309  1.00 21.26 LIG-0.29  OA
ENDBRANCH 11 12
BRANCH 11 14
ATOM     14  CB  LYS D   4       1.395   8.282  34.654  1.00 18.02 LIG 0.03  C 
BRANCH 14 15
ATOM     15  CG  LYS D   4       2.571   9.048  34.091  1.00 21.48 LIG 0.00  C 
BRANCH 15 16
ATOM     16  CD  LYS D   4       2.641   8.961  32.586  1.00 25.56 LIG 0.03  C 
BRANCH 16 17
ATOM     17  CE  LYS D   4       3.911   9.680  32.074  1.00 25.12 LIG 0.23  C 
BRANCH 17 18
ATOM     18  NZ  LYS D   4       3.902  11.167  32.387  1.00 20.07 LIG-0.08  N 
ATOM     19 HZ1  LYS D   4       4.631  11.547  32.047  1.00 20.07 LIG 0.27  HD
ATOM     20 HZ2  LYS D   4       3.178  11.541  32.029  1.00 20.07 LIG 0.27  HD
ATOM     21 HZ3  LYS D   4       3.891  11.285  33.270  1.00 20.07 LIG 0.27  HD
ENDBRANCH 17 18
ENDBRANCH 16 17
ENDBRANCH 15 16
ENDBRANCH 14 15
ENDBRANCH 11 14
ENDBRANCH 8 11
ENDBRANCH 6 7
BRANCH 6 22
ATOM     22  CB  THR D   3       6.099   4.841  35.070  1.00 14.57 LIG 0.15  C 
ATOM     23  CG2 THR D   3       6.356   4.544  36.576  1.00 14.25 LIG 0.04  C 
BRANCH 22 24
ATOM     24 OG1  THR D   3       6.766   3.861  34.259  1.00 15.86 LIG-0.39  OA
ATOM     25 HG1  THR D   3       7.109   3.274  34.753  1.00 15.86 LIG 0.21  HD
ENDBRANCH 22 24
ENDBRANCH 6 22
ENDBRANCH 3 6
ENDBRANCH 1 2
BRANCH 1 26
ATOM     26  CB  ARG D   2       2.629   5.448  30.934  1.00  9.49 LIG 0.04  C 
BRANCH 26 27
ATOM     27  CG  ARG D   2       2.446   4.502  29.687  1.00 10.73 LIG 0.02  C 
BRANCH 27 28
ATOM     28  CD  ARG D   2       0.954   4.487  29.316  1.00 10.86 LIG 0.14  C 
BRANCH 28 29
ATOM     29  NE  ARG D   2       0.288   3.324  29.844  1.00 10.69 LIG-0.23  N 
ATOM     30  CZ  ARG D   2      -0.596   3.323  30.881  1.00  9.43 LIG 0.67  C 
ATOM     31  NH1 ARG D   2      -0.902   4.438  31.561  1.00 10.34 LIG-0.23  N 
ATOM     32  NH2 ARG D   2      -1.090   2.178  31.298  1.00 11.18 LIG-0.23  N 
ATOM     33 2HH1 ARG D   2      -1.464   4.404  32.211  1.00 10.34 LIG 0.17  HD
ATOM     34 1HH1 ARG D   2      -0.537   5.187  31.347  1.00 10.34 LIG 0.17  HD
ATOM     35 2HH2 ARG D   2      -1.649   2.163  31.952  1.00 11.18 LIG 0.17  HD
ATOM     36 1HH2 ARG D   2      -0.855   1.444  30.918  1.00 11.18 LIG 0.17  HD
ATOM     37 HE   ARG D   2       0.462   2.567  29.474  1.00 10.69 LIG 0.18  HD
ENDBRANCH 28 29
ENDBRANCH 27 28
ENDBRANCH 26 27
ENDBRANCH 1 26
BRANCH 1 38
ATOM     38  N   ARG D   2       4.990   4.955  30.363  1.00  9.04 LIG-0.35  N 
ATOM     39 H    ARG D   2       4.802   4.118  30.428  1.00  9.04 LIG 0.16  HD
ATOM     40  C   ALA D   1       6.005   5.457  29.640  1.00 11.17 LIG 0.24  C 
ATOM     41 O    ALA D   1       6.214   6.668  29.587  1.00 13.49 LIG-0.27  OA
BRANCH 40 42
ATOM     42  CA  ALA D   1       6.862   4.501  28.832  1.00 12.65 LIG 0.17  C 
ATOM     43  CB  ALA D   1       7.419   5.168  27.555  1.00 13.08 LIG 0.04  C 
BRANCH 42 44
ATOM     44  N   ALA D   1       6.147   3.280  28.440  1.00 12.52 LIG-0.35  N 
ATOM     45  C   ACE D   0       4.848   3.182  27.633  1.00 13.59 LIG 0.21  C 
ATOM     46 O    ACE D   0       4.373   4.313  27.295  1.00 14.78 LIG-0.27  OA
ATOM     47  CH3 ACE D   0       4.268   1.828  27.326  1.00 14.73 LIG 0.12  C 
ATOM     48 H    ALA D   1       6.547   2.572  28.722  1.00 12.52 LIG 0.16  HD
ENDBRANCH 42 44
ENDBRANCH 40 42
ENDBRANCH 1 38
TORSDOF 19
ENDMDL
MODEL 27
USER: ADFR SOLUTION from run 72
USER: SCORE 17.810526 LL:  -3.985 LR: -14.011 RR:   0.000 FEB:  -8.344
USER: RMSD 1.914261
USER: SEED 71
USER: STATUS 1 or 2 clusters left
USER: GENES 21
USER: genes 0 Translation |==|  0.52096 0.44249 0.54643
USER: genes 1 Rotation |==|  0.49568 0.50922 0.49556 0.99988
USER: genes 2 Torsion [N]-CA--C-[N] |==|  0.90363
USER: genes 3 Torsion [C]-N--CA-[C] |==|  0.82180
USER: genes 4 Torsion [N]-CA--C-[N] |==|  0.95556
USER: genes 5 Torsion [C]-N--CA-[CB] |==|  0.29852
USER: genes 6 Torsion [N]-CA--C-[O] |==|  0.99227
USER: genes 7 Torsion [N]-CA--CB-[CG] |==|  0.67734
USER: genes 8 Torsion [CA]-CB--CG-[CD] |==|  0.11100
USER: genes 9 Torsion [CB]-CG--CD-[CE] |==|  0.70685
USER: genes 10 Torsion [CG]-CD--CE-[NZ] |==|  0.42185
USER: genes 11 Torsion [CD]-CE--NZ-[HZ1] |==|  0.00079
USER: genes 12 Torsion [N]-CA--CB-[CG2] |==|  0.84937
USER: genes 13 Torsion [CA]-CB--OG1-[HG1] |==|  0.96058
USER: genes 14 Torsion [C]-CA--CB-[CG] |==|  0.11885
USER: genes 15 Torsion [CA]-CB--CG-[CD] |==|  0.45403
USER: genes 16 Torsion [CB]-CG--CD-[NE] |==|  0.76780
USER: genes 17 Torsion [CG]-CD--NE-[CZ] |==|  0.32073
USER: genes 18 Torsion [C]-CA--N-[C] |==|  0.81141
USER: genes 19 Torsion [N]-C--CA-[N] |==|  0.89960
USER: genes 20 Torsion [C]-CA--N-[C] |==|  0.86527
ROOT
ATOM      1  CA  ARG D   2       5.319   6.511  34.349  1.00  9.56 LIG 0.18  C 
ENDROOT
BRANCH 1 2
ATOM      2  C   ARG D   2       4.054   5.632  34.159  1.00 11.06 LIG 0.24  C 
ATOM      3  N   THR D   3       2.885   6.221  34.389  1.00 11.45 LIG-0.34  N 
ATOM      4 H    THR D   3       2.782   7.053  34.582  1.00 11.45 LIG 0.16  HD
ATOM      5 O    ARG D   2       4.133   4.455  33.769  1.00  9.90 LIG-0.27  OA
BRANCH 3 6
ATOM      6  CA  THR D   3       1.671   5.450  34.323  1.00 13.43 LIG 0.20  C 
BRANCH 6 7
ATOM      7  C   THR D   3       1.407   4.914  32.924  1.00 15.00 LIG 0.24  C 
ATOM      8  N   LYS D   4       2.105   5.481  31.918  1.00 14.79 LIG-0.35  N 
ATOM      9 H    LYS D   4       2.715   6.076  32.033  1.00 14.79 LIG 0.16  HD
ATOM     10 O    THR D   3       0.564   4.007  32.779  1.00 15.79 LIG-0.27  OA
BRANCH 8 11
ATOM     11  CA  LYS D   4       1.865   5.107  30.491  1.00 18.13 LIG 0.16  C 
BRANCH 11 12
ATOM     12  C   LYS D   4       3.129   4.781  29.707  1.00 20.20 LIG 0.22  C 
ATOM     13 O    LYS D   4       4.220   4.914  30.326  1.00 21.26 LIG-0.29  OA
ENDBRANCH 11 12
BRANCH 11 14
ATOM     14  CB  LYS D   4       1.130   6.263  29.766  1.00 18.02 LIG 0.03  C 
BRANCH 14 15
ATOM     15  CG  LYS D   4      -0.251   5.880  29.284  1.00 21.48 LIG 0.00  C 
BRANCH 15 16
ATOM     16  CD  LYS D   4      -0.986   5.020  30.284  1.00 25.56 LIG 0.03  C 
BRANCH 16 17
ATOM     17  CE  LYS D   4      -1.022   3.554  29.795  1.00 25.12 LIG 0.23  C 
BRANCH 17 18
ATOM     18  NZ  LYS D   4      -1.098   2.561  30.944  1.00 20.07 LIG-0.08  N 
ATOM     19 HZ1  LYS D   4      -1.113   3.001  31.717  1.00 20.07 LIG 0.27  HD
ATOM     20 HZ2  LYS D   4      -1.838   2.074  30.866  1.00 20.07 LIG 0.27  HD
ATOM     21 HZ3  LYS D   4      -0.386   2.026  30.922  1.00 20.07 LIG 0.27  HD
ENDBRANCH 17 18
ENDBRANCH 16 17
ENDBRANCH 15 16
ENDBRANCH 14 15
ENDBRANCH 11 14
ENDBRANCH 8 11
ENDBRANCH 6 7
BRANCH 6 22
ATOM     22  CB  THR D   3       0.417   6.238  34.851  1.00 14.57 LIG 0.15  C 
ATOM     23  CG2 THR D   3       0.669   6.780  36.289  1.00 14.25 LIG 0.04  C 
BRANCH 22 24
ATOM     24 OG1  THR D   3       0.114   7.327  33.966  1.00 15.86 LIG-0.39  OA
ATOM     25 HG1  THR D   3       0.764   7.458  33.449  1.00 15.86 LIG 0.21  HD
ENDBRANCH 22 24
ENDBRANCH 6 22
ENDBRANCH 3 6
ENDBRANCH 1 2
BRANCH 1 26
ATOM     26  CB  ARG D   2       5.875   6.455  35.784  1.00  9.49 LIG 0.04  C 
BRANCH 26 27
ATOM     27  CG  ARG D   2       5.870   4.983  36.345  1.00 10.73 LIG 0.02  C 
BRANCH 27 28
ATOM     28  CD  ARG D   2       6.798   4.938  37.570  1.00 10.86 LIG 0.14  C 
BRANCH 28 29
ATOM     29  NE  ARG D   2       8.175   4.763  37.187  1.00 10.69 LIG-0.23  N 
ATOM     30  CZ  ARG D   2       9.171   5.671  37.388  1.00  9.43 LIG 0.67  C 
ATOM     31  NH1 ARG D   2       8.943   6.873  37.940  1.00 10.34 LIG-0.23  N 
ATOM     32  NH2 ARG D   2      10.378   5.406  36.937  1.00 11.18 LIG-0.23  N 
ATOM     33 2HH1 ARG D   2       9.593   7.424  38.054  1.00 10.34 LIG 0.17  HD
ATOM     34 1HH1 ARG D   2       8.147   7.092  38.180  1.00 10.34 LIG 0.17  HD
ATOM     35 2HH2 ARG D   2      11.016   5.971  37.058  1.00 11.18 LIG 0.17  HD
ATOM     36 1HH2 ARG D   2      10.529   4.669  36.522  1.00 11.18 LIG 0.17  HD
ATOM     37 HE   ARG D   2       8.387   4.026  36.799  1.00 10.69 LIG 0.18  HD
ENDBRANCH 28 29
ENDBRANCH 27 28
ENDBRANCH 26 27
ENDBRANCH 1 26
BRANCH 1 38
ATOM     38  N   ARG D   2       5.050   7.902  33.949  1.00  9.04 LIG-0.35  N 
ATOM     39 H    ARG D   2       5.051   8.473  34.592  1.00  9.04 LIG 0.16  HD
ATOM     40  C   ALA D   1       4.826   8.205  32.659  1.00 11.17 LIG 0.24  C 
ATOM     41 O    ALA D   1       4.844   7.337  31.787  1.00 13.49 LIG-0.27  OA
BRANCH 40 42
ATOM     42  CA  ALA D   1       4.607   9.657  32.282  1.00 12.65 LIG 0.17  C 
ATOM     43  CB  ALA D   1       5.942  10.390  32.019  1.00 13.08 LIG 0.04  C 
BRANCH 42 44
ATOM     44  N   ALA D   1       3.861  10.409  33.300  1.00 12.52 LIG-0.35  N 
ATOM     45  C   ACE D   0       2.558   9.995  33.991  1.00 13.59 LIG 0.21  C 
ATOM     46 O    ACE D   0       2.108   8.871  33.599  1.00 14.78 LIG-0.27  OA
ATOM     47  CH3 ACE D   0       1.944  10.907  35.019  1.00 14.73 LIG 0.12  C 
ATOM     48 H    ALA D   1       4.246  11.155  33.490  1.00 12.52 LIG 0.16  HD
ENDBRANCH 42 44
ENDBRANCH 40 42
ENDBRANCH 1 38
TORSDOF 19
ENDMDL
MODEL 28
USER: ADFR SOLUTION from run 183
USER: SCORE 15.340677 LL:  -2.391 LR: -13.988 RR:   0.000 FEB:  -8.321
USER: RMSD 5.959739
USER: SEED 182
USER: STATUS no improvement in best in 7 clusters for 5 generations
USER: GENES 21
USER: genes 0 Translation |==|  0.45068 0.30050 0.51261
USER: genes 1 Rotation |==|  0.62496 0.18550 0.24695 0.76728
USER: genes 2 Torsion [N]-CA--C-[N] |==|  0.33436
USER: genes 3 Torsion [C]-N--CA-[C] |==|  0.70630
USER: genes 4 Torsion [N]-CA--C-[N] |==|  0.88069
USER: genes 5 Torsion [C]-N--CA-[CB] |==|  0.84041
USER: genes 6 Torsion [N]-CA--C-[O] |==|  0.81386
USER: genes 7 Torsion [N]-CA--CB-[CG] |==|  0.77197
USER: genes 8 Torsion [CA]-CB--CG-[CD] |==|  0.42633
USER: genes 9 Torsion [CB]-CG--CD-[CE] |==|  0.54640
USER: genes 10 Torsion [CG]-CD--CE-[NZ] |==|  0.90521
USER: genes 11 Torsion [CD]-CE--NZ-[HZ1] |==|  0.76541
USER: genes 12 Torsion [N]-CA--CB-[CG2] |==|  0.72212
USER: genes 13 Torsion [CA]-CB--OG1-[HG1] |==|  0.25501
USER: genes 14 Torsion [C]-CA--CB-[CG] |==|  0.82450
USER: genes 15 Torsion [CA]-CB--CG-[CD] |==|  0.73517
USER: genes 16 Torsion [CB]-CG--CD-[NE] |==|  0.44272
USER: genes 17 Torsion [CG]-CD--NE-[CZ] |==|  0.82566
USER: genes 18 Torsion [C]-CA--N-[C] |==|  0.78878
USER: genes 19 Torsion [N]-C--CA-[N] |==|  0.48889
USER: genes 20 Torsion [C]-CA--N-[C] |==|  0.47390
ROOT
ATOM      1  CA  ARG D   2       3.948   4.275  33.766  1.00  9.56 LIG 0.18  C 
ENDROOT
BRANCH 1 2
ATOM      2  C   ARG D   2       4.355   4.918  32.412  1.00 11.06 LIG 0.24  C 
ATOM      3  N   THR D   3       4.852   4.095  31.494  1.00 11.45 LIG-0.34  N 
ATOM      4 H    THR D   3       4.915   3.242  31.579  1.00 11.45 LIG 0.16  HD
ATOM      5 O    ARG D   2       4.181   6.126  32.189  1.00  9.90 LIG-0.27  OA
BRANCH 3 6
ATOM      6  CA  THR D   3       5.337   4.627  30.246  1.00 13.43 LIG 0.20  C 
BRANCH 6 7
ATOM      7  C   THR D   3       4.386   4.342  29.093  1.00 15.00 LIG 0.24  C 
ATOM      8  N   LYS D   4       3.855   3.103  29.040  1.00 14.79 LIG-0.35  N 
ATOM      9 H    LYS D   4       3.982   2.500  29.640  1.00 14.79 LIG 0.16  HD
ATOM     10 O    THR D   3       4.163   5.246  28.265  1.00 15.79 LIG-0.27  OA
BRANCH 8 11
ATOM     11  CA  LYS D   4       2.984   2.673  27.904  1.00 18.13 LIG 0.16  C 
BRANCH 11 12
ATOM     12  C   LYS D   4       3.687   2.632  26.555  1.00 20.20 LIG 0.22  C 
ATOM     13 O    LYS D   4       4.053   3.741  26.081  1.00 21.26 LIG-0.29  OA
ENDBRANCH 11 12
BRANCH 11 14
ATOM     14  CB  LYS D   4       1.769   3.630  27.788  1.00 18.02 LIG 0.03  C 
BRANCH 14 15
ATOM     15  CG  LYS D   4       0.652   3.291  28.748  1.00 21.48 LIG 0.00  C 
BRANCH 15 16
ATOM     16  CD  LYS D   4      -0.186   4.497  29.098  1.00 25.56 LIG 0.03  C 
BRANCH 16 17
ATOM     17  CE  LYS D   4      -1.023   4.209  30.366  1.00 25.12 LIG 0.23  C 
BRANCH 17 18
ATOM     18  NZ  LYS D   4      -1.465   2.758  30.453  1.00 20.07 LIG-0.08  N 
ATOM     19 HZ1  LYS D   4      -2.211   2.646  29.982  1.00 20.07 LIG 0.27  HD
ATOM     20 HZ2  LYS D   4      -0.826   2.233  30.125  1.00 20.07 LIG 0.27  HD
ATOM     21 HZ3  LYS D   4      -1.617   2.544  31.303  1.00 20.07 LIG 0.27  HD
ENDBRANCH 17 18
ENDBRANCH 16 17
ENDBRANCH 15 16
ENDBRANCH 14 15
ENDBRANCH 11 14
ENDBRANCH 8 11
ENDBRANCH 6 7
BRANCH 6 22
ATOM     22  CB  THR D   3       6.787   4.131  29.894  1.00 14.57 LIG 0.15  C 
ATOM     23  CG2 THR D   3       7.845   5.217  30.249  1.00 14.25 LIG 0.04  C 
BRANCH 22 24
ATOM     24 OG1  THR D   3       7.076   2.917  30.605  1.00 15.86 LIG-0.39  OA
ATOM     25 HG1  THR D   3       6.864   2.257  30.130  1.00 15.86 LIG 0.21  HD
ENDBRANCH 22 24
ENDBRANCH 6 22
ENDBRANCH 3 6
ENDBRANCH 1 2
BRANCH 1 26
ATOM     26  CB  ARG D   2       2.434   4.354  34.034  1.00  9.49 LIG 0.04  C 
BRANCH 26 27
ATOM     27  CG  ARG D   2       1.949   5.849  34.154  1.00 10.73 LIG 0.02  C 
BRANCH 27 28
ATOM     28  CD  ARG D   2       1.927   6.223  35.644  1.00 10.86 LIG 0.14  C 
BRANCH 28 29
ATOM     29  NE  ARG D   2       1.966   7.651  35.833  1.00 10.69 LIG-0.23  N 
ATOM     30  CZ  ARG D   2       2.987   8.469  35.455  1.00  9.43 LIG 0.67  C 
ATOM     31  NH1 ARG D   2       4.111   7.998  34.893  1.00 10.34 LIG-0.23  N 
ATOM     32  NH2 ARG D   2       2.917   9.751  35.739  1.00 11.18 LIG-0.23  N 
ATOM     33 2HH1 ARG D   2       4.738   8.541  34.665  1.00 10.34 LIG 0.17  HD
ATOM     34 1HH1 ARG D   2       4.205   7.153  34.761  1.00 10.34 LIG 0.17  HD
ATOM     35 2HH2 ARG D   2       3.555  10.279  35.506  1.00 11.18 LIG 0.17  HD
ATOM     36 1HH2 ARG D   2       2.234  10.062  36.158  1.00 11.18 LIG 0.17  HD
ATOM     37 HE   ARG D   2       1.289   8.017  36.217  1.00 10.69 LIG 0.18  HD
ENDBRANCH 28 29
ENDBRANCH 27 28
ENDBRANCH 26 27
ENDBRANCH 1 26
BRANCH 1 38
ATOM     38  N   ARG D   2       4.706   4.876  34.875  1.00  9.04 LIG-0.35  N 
ATOM     39 H    ARG D   2       4.264   5.435  35.358  1.00  9.04 LIG 0.16  HD
ATOM     40  C   ALA D   1       5.992   4.542  35.077  1.00 11.17 LIG 0.24  C 
ATOM     41 O    ALA D   1       6.562   3.730  34.349  1.00 13.49 LIG-0.27  OA
BRANCH 40 42
ATOM     42  CA  ALA D   1       6.720   5.144  36.263  1.00 12.65 LIG 0.17  C 
ATOM     43  CB  ALA D   1       6.792   6.685  36.172  1.00 13.08 LIG 0.04  C 
BRANCH 42 44
ATOM     44  N   ALA D   1       8.085   4.627  36.423  1.00 12.52 LIG-0.35  N 
ATOM     45  C   ACE D   0       9.169   5.144  37.374  1.00 13.59 LIG 0.21  C 
ATOM     46 O    ACE D   0       8.797   6.138  38.077  1.00 14.78 LIG-0.27  OA
ATOM     47  CH3 ACE D   0      10.516   4.474  37.395  1.00 14.73 LIG 0.12  C 
ATOM     48 H    ALA D   1       8.237   3.961  35.900  1.00 12.52 LIG 0.16  HD
ENDBRANCH 42 44
ENDBRANCH 40 42
ENDBRANCH 1 38
TORSDOF 19
ENDMDL
MODEL 29
USER: ADFR SOLUTION from run 138
USER: SCORE 13.741250 LL:  -2.179 LR: -13.967 RR:   0.000 FEB:  -8.299
USER: RMSD 8.834298
USER: SEED 137
USER: STATUS no improvement in best in 7 clusters for 5 generations
USER: GENES 21
USER: genes 0 Translation |==|  0.45825 0.51260 0.56475
USER: genes 1 Rotation |==|  0.26451 0.24283 0.80375 0.69012
USER: genes 2 Torsion [N]-CA--C-[N] |==|  0.19001
USER: genes 3 Torsion [C]-N--CA-[C] |==|  0.47851
USER: genes 4 Torsion [N]-CA--C-[N] |==|  0.62688
USER: genes 5 Torsion [C]-N--CA-[CB] |==|  0.19630
USER: genes 6 Torsion [N]-CA--C-[O] |==|  0.84819
USER: genes 7 Torsion [N]-CA--CB-[CG] |==|  0.35726
USER: genes 8 Torsion [CA]-CB--CG-[CD] |==|  0.38366
USER: genes 9 Torsion [CB]-CG--CD-[CE] |==|  0.04056
USER: genes 10 Torsion [CG]-CD--CE-[NZ] |==|  0.37595
USER: genes 11 Torsion [CD]-CE--NZ-[HZ1] |==|  0.40898
USER: genes 12 Torsion [N]-CA--CB-[CG2] |==|  0.15801
USER: genes 13 Torsion [CA]-CB--OG1-[HG1] |==|  0.56686
USER: genes 14 Torsion [C]-CA--CB-[CG] |==|  0.19096
USER: genes 15 Torsion [CA]-CB--CG-[CD] |==|  0.24060
USER: genes 16 Torsion [CB]-CG--CD-[NE] |==|  0.93565
USER: genes 17 Torsion [CG]-CD--NE-[CZ] |==|  0.34846
USER: genes 18 Torsion [C]-CA--N-[C] |==|  0.63125
USER: genes 19 Torsion [N]-C--CA-[N] |==|  0.00451
USER: genes 20 Torsion [C]-CA--N-[C] |==|  0.69115
ROOT
ATOM      1  CA  ARG D   2       4.096   7.615  34.665  1.00  9.56 LIG 0.18  C 
ENDROOT
BRANCH 1 2
ATOM      2  C   ARG D   2       4.650   6.671  35.766  1.00 11.06 LIG 0.24  C 
ATOM      3  N   THR D   3       5.958   6.734  35.993  1.00 11.45 LIG-0.34  N 
ATOM      4 H    THR D   3       6.498   7.287  35.616  1.00 11.45 LIG 0.16  HD
ATOM      5 O    ARG D   2       3.901   5.932  36.425  1.00  9.90 LIG-0.27  OA
BRANCH 3 6
ATOM      6  CA  THR D   3       6.564   5.827  36.934  1.00 13.43 LIG 0.20  C 
BRANCH 6 7
ATOM      7  C   THR D   3       8.083   5.919  36.923  1.00 15.00 LIG 0.24  C 
ATOM      8  N   LYS D   4       8.758   4.751  36.907  1.00 14.79 LIG-0.35  N 
ATOM      9 H    LYS D   4       8.382   3.979  36.848  1.00 14.79 LIG 0.16  HD
ATOM     10 O    THR D   3       8.614   7.046  36.946  1.00 15.79 LIG-0.27  OA
BRANCH 8 11
ATOM     11  CA  LYS D   4      10.250   4.709  36.991  1.00 18.13 LIG 0.16  C 
BRANCH 11 12
ATOM     12  C   LYS D   4      10.858   3.352  36.663  1.00 20.20 LIG 0.22  C 
ATOM     13 O    LYS D   4      10.426   2.371  37.327  1.00 21.26 LIG-0.29  OA
ENDBRANCH 11 12
BRANCH 11 14
ATOM     14  CB  LYS D   4      10.703   5.111  38.417  1.00 18.02 LIG 0.03  C 
BRANCH 14 15
ATOM     15  CG  LYS D   4      11.659   4.119  39.039  1.00 21.48 LIG 0.00  C 
BRANCH 15 16
ATOM     16  CD  LYS D   4      12.791   4.797  39.771  1.00 25.56 LIG 0.03  C 
BRANCH 16 17
ATOM     17  CE  LYS D   4      12.460   6.292  39.989  1.00 25.12 LIG 0.23  C 
BRANCH 17 18
ATOM     18  NZ  LYS D   4      12.785   6.759  41.398  1.00 20.07 LIG-0.08  N 
ATOM     19 HZ1  LYS D   4      13.042   7.611  41.377  1.00 20.07 LIG 0.27  HD
ATOM     20 HZ2  LYS D   4      12.063   6.680  41.911  1.00 20.07 LIG 0.27  HD
ATOM     21 HZ3  LYS D   4      13.442   6.260  41.732  1.00 20.07 LIG 0.27  HD
ENDBRANCH 17 18
ENDBRANCH 16 17
ENDBRANCH 15 16
ENDBRANCH 14 15
ENDBRANCH 11 14
ENDBRANCH 8 11
ENDBRANCH 6 7
BRANCH 6 22
ATOM     22  CB  THR D   3       6.105   4.338  36.728  1.00 14.57 LIG 0.15  C 
ATOM     23  CG2 THR D   3       6.410   3.859  35.278  1.00 14.25 LIG 0.04  C 
BRANCH 22 24
ATOM     24 OG1  THR D   3       6.769   3.485  37.673  1.00 15.86 LIG-0.39  OA
ATOM     25 HG1  THR D   3       6.794   2.700  37.374  1.00 15.86 LIG 0.21  HD
ENDBRANCH 22 24
ENDBRANCH 6 22
ENDBRANCH 3 6
ENDBRANCH 1 2
BRANCH 1 26
ATOM     26  CB  ARG D   2       2.560   7.718  34.684  1.00  9.49 LIG 0.04  C 
BRANCH 26 27
ATOM     27  CG  ARG D   2       2.049   8.476  35.968  1.00 10.73 LIG 0.02  C 
BRANCH 27 28
ATOM     28  CD  ARG D   2       2.053   9.983  35.663  1.00 10.86 LIG 0.14  C 
BRANCH 28 29
ATOM     29  NE  ARG D   2       2.969  10.308  34.601  1.00 10.69 LIG-0.23  N 
ATOM     30  CZ  ARG D   2       2.649  10.986  33.463  1.00  9.43 LIG 0.67  C 
ATOM     31  NH1 ARG D   2       1.397  11.388  33.197  1.00 10.34 LIG-0.23  N 
ATOM     32  NH2 ARG D   2       3.574  11.167  32.546  1.00 11.18 LIG-0.23  N 
ATOM     33 2HH1 ARG D   2       1.228  11.815  32.470  1.00 10.34 LIG 0.17  HD
ATOM     34 1HH1 ARG D   2       0.763  11.219  33.754  1.00 10.34 LIG 0.17  HD
ATOM     35 2HH2 ARG D   2       3.386  11.594  31.823  1.00 11.18 LIG 0.17  HD
ATOM     36 1HH2 ARG D   2       4.367  10.859  32.668  1.00 11.18 LIG 0.17  HD
ATOM     37 HE   ARG D   2       3.785  10.052  34.691  1.00 10.69 LIG 0.18  HD
ENDBRANCH 28 29
ENDBRANCH 27 28
ENDBRANCH 26 27
ENDBRANCH 1 26
BRANCH 1 38
ATOM     38  N   ARG D   2       4.574   7.201  33.336  1.00  9.04 LIG-0.35  N 
ATOM     39 H    ARG D   2       4.500   6.361  33.167  1.00  9.04 LIG 0.16  HD
ATOM     40  C   ALA D   1       5.079   8.110  32.484  1.00 11.17 LIG 0.24  C 
ATOM     41 O    ALA D   1       5.149   9.300  32.788  1.00 13.49 LIG-0.27  OA
BRANCH 40 42
ATOM     42  CA  ALA D   1       5.509   7.650  31.104  1.00 12.65 LIG 0.17  C 
ATOM     43  CB  ALA D   1       4.801   8.447  29.986  1.00 13.08 LIG 0.04  C 
BRANCH 42 44
ATOM     44  N   ALA D   1       5.268   6.220  30.874  1.00 12.52 LIG-0.35  N 
ATOM     45  C   ACE D   0       6.317   5.113  30.726  1.00 13.59 LIG 0.21  C 
ATOM     46 O    ACE D   0       7.516   5.533  30.812  1.00 14.78 LIG-0.27  OA
ATOM     47  CH3 ACE D   0       5.870   3.695  30.497  1.00 14.73 LIG 0.12  C 
ATOM     48 H    ALA D   1       4.428   6.042  30.826  1.00 12.52 LIG 0.16  HD
ENDBRANCH 42 44
ENDBRANCH 40 42
ENDBRANCH 1 38
TORSDOF 19
ENDMDL
MODEL 30
USER: ADFR SOLUTION from run 48
USER: SCORE 15.054231 LL:  -2.538 LR: -13.932 RR:   0.000 FEB:  -8.264
USER: RMSD 4.555180
USER: SEED 47
USER: STATUS no improvement in best in 6 clusters for 5 generations
USER: GENES 21
USER: genes 0 Translation |==|  0.51791 0.37036 0.53353
USER: genes 1 Rotation |==|  0.70471 0.36880 0.78311 0.83276
USER: genes 2 Torsion [N]-CA--C-[N] |==|  0.11366
USER: genes 3 Torsion [C]-N--CA-[C] |==|  0.47868
USER: genes 4 Torsion [N]-CA--C-[N] |==|  0.86882
USER: genes 5 Torsion [C]-N--CA-[CB] |==|  0.47682
USER: genes 6 Torsion [N]-CA--C-[O] |==|  0.73963
USER: genes 7 Torsion [N]-CA--CB-[CG] |==|  0.74767
USER: genes 8 Torsion [CA]-CB--CG-[CD] |==|  0.31400
USER: genes 9 Torsion [CB]-CG--CD-[CE] |==|  0.30206
USER: genes 10 Torsion [CG]-CD--CE-[NZ] |==|  0.50562
USER: genes 11 Torsion [CD]-CE--NZ-[HZ1] |==|  0.91917
USER: genes 12 Torsion [N]-CA--CB-[CG2] |==|  0.38278
USER: genes 13 Torsion [CA]-CB--OG1-[HG1] |==|  0.55550
USER: genes 14 Torsion [C]-CA--CB-[CG] |==|  0.47521
USER: genes 15 Torsion [CA]-CB--CG-[CD] |==|  0.61552
USER: genes 16 Torsion [CB]-CG--CD-[NE] |==|  0.28259
USER: genes 17 Torsion [CG]-CD--NE-[CZ] |==|  0.67568
USER: genes 18 Torsion [C]-CA--N-[C] |==|  0.17209
USER: genes 19 Torsion [N]-C--CA-[N] |==|  0.92687
USER: genes 20 Torsion [C]-CA--N-[C] |==|  0.82662
ROOT
ATOM      1  CA  ARG D   2       5.259   5.375  34.126  1.00  9.56 LIG 0.18  C 
ENDROOT
BRANCH 1 2
ATOM      2  C   ARG D   2       5.826   4.898  32.762  1.00 11.06 LIG 0.24  C 
ATOM      3  N   THR D   3       5.332   5.489  31.679  1.00 11.45 LIG-0.34  N 
ATOM      4 H    THR D   3       4.771   6.140  31.685  1.00 11.45 LIG 0.16  HD
ATOM      5 O    ARG D   2       6.722   4.041  32.695  1.00  9.90 LIG-0.27  OA
BRANCH 3 6
ATOM      6  CA  THR D   3       5.739   5.040  30.372  1.00 13.43 LIG 0.20  C 
BRANCH 6 7
ATOM      7  C   THR D   3       4.937   5.702  29.262  1.00 15.00 LIG 0.24  C 
ATOM      8  N   LYS D   4       3.598   5.731  29.420  1.00 14.79 LIG-0.35  N 
ATOM      9 H    LYS D   4       3.190   5.451  30.123  1.00 14.79 LIG 0.16  HD
ATOM     10 O    THR D   3       5.546   6.161  28.276  1.00 15.79 LIG-0.27  OA
BRANCH 8 11
ATOM     11  CA  LYS D   4       2.696   6.269  28.356  1.00 18.13 LIG 0.16  C 
BRANCH 11 12
ATOM     12  C   LYS D   4       2.841   7.764  28.107  1.00 20.20 LIG 0.22  C 
ATOM     13 O    LYS D   4       2.050   8.515  28.739  1.00 21.26 LIG-0.29  OA
ENDBRANCH 11 12
BRANCH 11 14
ATOM     14  CB  LYS D   4       1.219   5.981  28.729  1.00 18.02 LIG 0.03  C 
BRANCH 14 15
ATOM     15  CG  LYS D   4       0.715   4.664  28.184  1.00 21.48 LIG 0.00  C 
BRANCH 15 16
ATOM     16  CD  LYS D   4       0.423   3.667  29.279  1.00 25.56 LIG 0.03  C 
BRANCH 16 17
ATOM     17  CE  LYS D   4      -1.104   3.468  29.420  1.00 25.12 LIG 0.23  C 
BRANCH 17 18
ATOM     18  NZ  LYS D   4      -1.464   2.509  30.543  1.00 20.07 LIG-0.08  N 
ATOM     19 HZ1  LYS D   4      -0.806   1.920  30.653  1.00 20.07 LIG 0.27  HD
ATOM     20 HZ2  LYS D   4      -1.581   2.966  31.297  1.00 20.07 LIG 0.27  HD
ATOM     21 HZ3  LYS D   4      -2.215   2.079  30.337  1.00 20.07 LIG 0.27  HD
ENDBRANCH 17 18
ENDBRANCH 16 17
ENDBRANCH 15 16
ENDBRANCH 14 15
ENDBRANCH 11 14
ENDBRANCH 8 11
ENDBRANCH 6 7
BRANCH 6 22
ATOM     22  CB  THR D   3       5.692   3.476  30.222  1.00 14.57 LIG 0.15  C 
ATOM     23  CG2 THR D   3       5.094   3.068  28.844  1.00 14.25 LIG 0.04  C 
BRANCH 22 24
ATOM     24 OG1  THR D   3       7.013   2.930  30.361  1.00 15.86 LIG-0.39  OA
ATOM     25 HG1  THR D   3       7.037   2.163  30.020  1.00 15.86 LIG 0.21  HD
ENDBRANCH 22 24
ENDBRANCH 6 22
ENDBRANCH 3 6
ENDBRANCH 1 2
BRANCH 1 26
ATOM     26  CB  ARG D   2       5.607   4.421  35.284  1.00  9.49 LIG 0.04  C 
BRANCH 26 27
ATOM     27  CG  ARG D   2       5.217   5.043  36.678  1.00 10.73 LIG 0.02  C 
BRANCH 27 28
ATOM     28  CD  ARG D   2       6.350   4.736  37.670  1.00 10.86 LIG 0.14  C 
BRANCH 28 29
ATOM     29  NE  ARG D   2       7.200   5.880  37.876  1.00 10.69 LIG-0.23  N 
ATOM     30  CZ  ARG D   2       8.523   5.949  37.556  1.00  9.43 LIG 0.67  C 
ATOM     31  NH1 ARG D   2       9.191   4.904  37.044  1.00 10.34 LIG-0.23  N 
ATOM     32  NH2 ARG D   2       9.195   7.040  37.850  1.00 11.18 LIG-0.23  N 
ATOM     33 2HH1 ARG D   2      10.025   4.979  36.853  1.00 10.34 LIG 0.17  HD
ATOM     34 1HH1 ARG D   2       8.784   4.158  36.908  1.00 10.34 LIG 0.17  HD
ATOM     35 2HH2 ARG D   2      10.031   7.097  37.653  1.00 11.18 LIG 0.17  HD
ATOM     36 1HH2 ARG D   2       8.800   7.697  38.239  1.00 11.18 LIG 0.17  HD
ATOM     37 HE   ARG D   2       6.844   6.578  38.230  1.00 10.69 LIG 0.18  HD
ENDBRANCH 28 29
ENDBRANCH 27 28
ENDBRANCH 26 27
ENDBRANCH 1 26
BRANCH 1 38
ATOM     38  N   ARG D   2       3.804   5.583  34.041  1.00  9.04 LIG-0.35  N 
ATOM     39 H    ARG D   2       3.542   6.389  34.186  1.00  9.04 LIG 0.16  HD
ATOM     40  C   ALA D   1       2.989   4.553  33.754  1.00 11.17 LIG 0.24  C 
ATOM     41 O    ALA D   1       3.433   3.424  33.552  1.00 13.49 LIG-0.27  OA
BRANCH 40 42
ATOM     42  CA  ALA D   1       1.502   4.821  33.623  1.00 12.65 LIG 0.17  C 
ATOM     43  CB  ALA D   1       1.084   5.027  32.149  1.00 13.08 LIG 0.04  C 
BRANCH 42 44
ATOM     44  N   ALA D   1       1.058   5.988  34.396  1.00 12.52 LIG-0.35  N 
ATOM     45  C   ACE D   0       1.115   6.172  35.916  1.00 13.59 LIG 0.21  C 
ATOM     46 O    ACE D   0       1.604   5.171  36.532  1.00 14.78 LIG-0.27  OA
ATOM     47  CH3 ACE D   0       0.611   7.452  36.526  1.00 14.73 LIG 0.12  C 
ATOM     48 H    ALA D   1       0.740   6.604  33.887  1.00 12.52 LIG 0.16  HD
ENDBRANCH 42 44
ENDBRANCH 40 42
ENDBRANCH 1 38
TORSDOF 19
ENDMDL
MODEL 31
USER: ADFR SOLUTION from run 173
USER: SCORE 16.883828 LL:  -3.341 LR: -13.926 RR:   0.000 FEB:  -8.258
USER: RMSD 6.694612
USER: SEED 172
USER: STATUS no improvement in best in 5 clusters for 5 generations
USER: GENES 21
USER: genes 0 Translation |==|  0.51380 0.55903 0.47720
USER: genes 1 Rotation |==|  0.01302 0.39924 0.47779 0.54693
USER: genes 2 Torsion [N]-CA--C-[N] |==|  0.32299
USER: genes 3 Torsion [C]-N--CA-[C] |==|  0.15383
USER: genes 4 Torsion [N]-CA--C-[N] |==|  0.09964
USER: genes 5 Torsion [C]-N--CA-[CB] |==|  0.10725
USER: genes 6 Torsion [N]-CA--C-[O] |==|  0.09493
USER: genes 7 Torsion [N]-CA--CB-[CG] |==|  0.21669
USER: genes 8 Torsion [CA]-CB--CG-[CD] |==|  0.34737
USER: genes 9 Torsion [CB]-CG--CD-[CE] |==|  0.25080
USER: genes 10 Torsion [CG]-CD--CE-[NZ] |==|  0.55432
USER: genes 11 Torsion [CD]-CE--NZ-[HZ1] |==|  0.14526
USER: genes 12 Torsion [N]-CA--CB-[CG2] |==|  0.68794
USER: genes 13 Torsion [CA]-CB--OG1-[HG1] |==|  0.62342
USER: genes 14 Torsion [C]-CA--CB-[CG] |==|  0.13085
USER: genes 15 Torsion [CA]-CB--CG-[CD] |==|  0.68466
USER: genes 16 Torsion [CB]-CG--CD-[NE] |==|  0.41294
USER: genes 17 Torsion [CG]-CD--NE-[CZ] |==|  0.44527
USER: genes 18 Torsion [C]-CA--N-[C] |==|  0.81060
USER: genes 19 Torsion [N]-C--CA-[N] |==|  0.01513
USER: genes 20 Torsion [C]-CA--N-[C] |==|  0.78333
ROOT
ATOM      1  CA  ARG D   2       5.179   8.347  33.155  1.00  9.56 LIG 0.18  C 
ENDROOT
BRANCH 1 2
ATOM      2  C   ARG D   2       3.671   8.628  33.395  1.00 11.06 LIG 0.24  C 
ATOM      3  N   THR D   3       3.372   9.370  34.457  1.00 11.45 LIG-0.34  N 
ATOM      4 H    THR D   3       3.947   9.739  34.978  1.00 11.45 LIG 0.16  HD
ATOM      5 O    ARG D   2       2.801   8.218  32.611  1.00  9.90 LIG-0.27  OA
BRANCH 3 6
ATOM      6  CA  THR D   3       1.992   9.601  34.800  1.00 13.43 LIG 0.20  C 
BRANCH 6 7
ATOM      7  C   THR D   3       1.219   8.303  34.975  1.00 15.00 LIG 0.24  C 
ATOM      8  N   LYS D   4       1.890   7.270  35.525  1.00 14.79 LIG-0.35  N 
ATOM      9 H    LYS D   4       2.695   7.324  35.823  1.00 14.79 LIG 0.16  HD
ATOM     10 O    THR D   3       0.033   8.257  34.594  1.00 15.79 LIG-0.27  OA
BRANCH 8 11
ATOM     11  CA  LYS D   4       1.269   5.917  35.661  1.00 18.13 LIG 0.16  C 
BRANCH 11 12
ATOM     12  C   LYS D   4       2.269   4.784  35.848  1.00 20.20 LIG 0.22  C 
ATOM     13 O    LYS D   4       3.309   5.060  36.505  1.00 21.26 LIG-0.29  OA
ENDBRANCH 11 12
BRANCH 11 14
ATOM     14  CB  LYS D   4       0.415   5.607  34.405  1.00 18.02 LIG 0.03  C 
BRANCH 14 15
ATOM     15  CG  LYS D   4       1.243   5.186  33.212  1.00 21.48 LIG 0.00  C 
BRANCH 15 16
ATOM     16  CD  LYS D   4       0.803   3.855  32.652  1.00 25.56 LIG 0.03  C 
BRANCH 16 17
ATOM     17  CE  LYS D   4      -0.275   4.069  31.565  1.00 25.12 LIG 0.23  C 
BRANCH 17 18
ATOM     18  NZ  LYS D   4      -1.090   2.813  31.301  1.00 20.07 LIG-0.08  N 
ATOM     19 HZ1  LYS D   4      -1.410   2.500  32.070  1.00 20.07 LIG 0.27  HD
ATOM     20 HZ2  LYS D   4      -1.766   3.007  30.756  1.00 20.07 LIG 0.27  HD
ATOM     21 HZ3  LYS D   4      -0.571   2.197  30.923  1.00 20.07 LIG 0.27  HD
ENDBRANCH 17 18
ENDBRANCH 16 17
ENDBRANCH 15 16
ENDBRANCH 14 15
ENDBRANCH 11 14
ENDBRANCH 8 11
ENDBRANCH 6 7
BRANCH 6 22
ATOM     22  CB  THR D   3       1.258  10.541  33.776  1.00 14.57 LIG 0.15  C 
ATOM     23  CG2 THR D   3       0.893  11.903  34.436  1.00 14.25 LIG 0.04  C 
BRANCH 22 24
ATOM     24 OG1  THR D   3       2.093  10.763  32.628  1.00 15.86 LIG-0.39  OA
ATOM     25 HG1  THR D   3       2.078  11.577  32.424  1.00 15.86 LIG 0.21  HD
ENDBRANCH 22 24
ENDBRANCH 6 22
ENDBRANCH 3 6
ENDBRANCH 1 2
BRANCH 1 26
ATOM     26  CB  ARG D   2       5.682   8.897  31.808  1.00  9.49 LIG 0.04  C 
BRANCH 26 27
ATOM     27  CG  ARG D   2       5.205  10.381  31.578  1.00 10.73 LIG 0.02  C 
BRANCH 27 28
ATOM     28  CD  ARG D   2       4.224  10.388  30.395  1.00 10.86 LIG 0.14  C 
BRANCH 28 29
ATOM     29  NE  ARG D   2       3.228  11.419  30.537  1.00 10.69 LIG-0.23  N 
ATOM     30  CZ  ARG D   2       2.473  11.931  29.525  1.00  9.43 LIG 0.67  C 
ATOM     31  NH1 ARG D   2       2.625  11.542  28.250  1.00 10.34 LIG-0.23  N 
ATOM     32  NH2 ARG D   2       1.637  12.913  29.786  1.00 11.18 LIG-0.23  N 
ATOM     33 2HH1 ARG D   2       2.133  11.885  27.635  1.00 10.34 LIG 0.17  HD
ATOM     34 1HH1 ARG D   2       3.215  10.949  28.049  1.00 10.34 LIG 0.17  HD
ATOM     35 2HH2 ARG D   2       1.154  13.245  29.157  1.00 11.18 LIG 0.17  HD
ATOM     36 1HH2 ARG D   2       1.572  13.222  30.586  1.00 11.18 LIG 0.17  HD
ATOM     37 HE   ARG D   2       3.100  11.738  31.325  1.00 10.69 LIG 0.18  HD
ENDBRANCH 28 29
ENDBRANCH 27 28
ENDBRANCH 26 27
ENDBRANCH 1 26
BRANCH 1 38
ATOM     38  N   ARG D   2       5.463   6.907  33.268  1.00  9.04 LIG-0.35  N 
ATOM     39 H    ARG D   2       5.686   6.520  32.533  1.00  9.04 LIG 0.16  HD
ATOM     40  C   ALA D   1       5.368   6.289  34.458  1.00 11.17 LIG 0.24  C 
ATOM     41 O    ALA D   1       5.050   6.906  35.474  1.00 13.49 LIG-0.27  OA
BRANCH 40 42
ATOM     42  CA  ALA D   1       5.722   4.817  34.541  1.00 12.65 LIG 0.17  C 
ATOM     43  CB  ALA D   1       6.748   4.535  35.662  1.00 13.08 LIG 0.04  C 
BRANCH 42 44
ATOM     44  N   ALA D   1       6.258   4.283  33.282  1.00 12.52 LIG-0.35  N 
ATOM     45  C   ACE D   0       5.468   3.888  32.030  1.00 13.59 LIG 0.21  C 
ATOM     46 O    ACE D   0       4.211   4.053  32.148  1.00 14.78 LIG-0.27  OA
ATOM     47  CH3 ACE D   0       6.202   3.359  30.828  1.00 14.73 LIG 0.12  C 
ATOM     48 H    ALA D   1       7.114   4.204  33.308  1.00 12.52 LIG 0.16  HD
ENDBRANCH 42 44
ENDBRANCH 40 42
ENDBRANCH 1 38
TORSDOF 19
ENDMDL
MODEL 32
USER: ADFR SOLUTION from run 16
USER: SCORE 16.145642 LL:  -2.530 LR: -13.879 RR:   0.000 FEB:  -8.212
USER: RMSD 4.085481
USER: SEED 608728
USER: STATUS no improvement in best in 10 clusters for 5 generations
USER: GENES 21
USER: genes 0 Translation |==|  0.49554 0.45427 0.53604
USER: genes 1 Rotation |==|  0.45796 0.58408 0.38614 0.97770
USER: genes 2 Torsion [N]-CA--C-[N] |==|  0.96667
USER: genes 3 Torsion [C]-N--CA-[C] |==|  0.67208
USER: genes 4 Torsion [N]-CA--C-[N] |==|  0.47337
USER: genes 5 Torsion [C]-N--CA-[CB] |==|  0.25792
USER: genes 6 Torsion [N]-CA--C-[O] |==|  0.81271
USER: genes 7 Torsion [N]-CA--CB-[CG] |==|  0.82648
USER: genes 8 Torsion [CA]-CB--CG-[CD] |==|  0.32883
USER: genes 9 Torsion [CB]-CG--CD-[CE] |==|  0.32917
USER: genes 10 Torsion [CG]-CD--CE-[NZ] |==|  0.66173
USER: genes 11 Torsion [CD]-CE--NZ-[HZ1] |==|  0.30040
USER: genes 12 Torsion [N]-CA--CB-[CG2] |==|  0.66575
USER: genes 13 Torsion [CA]-CB--OG1-[HG1] |==|  0.57049
USER: genes 14 Torsion [C]-CA--CB-[CG] |==|  0.19470
USER: genes 15 Torsion [CA]-CB--CG-[CD] |==|  0.55918
USER: genes 16 Torsion [CB]-CG--CD-[NE] |==|  0.88488
USER: genes 17 Torsion [CG]-CD--NE-[CZ] |==|  0.76377
USER: genes 18 Torsion [C]-CA--N-[C] |==|  0.82012
USER: genes 19 Torsion [N]-C--CA-[N] |==|  0.42168
USER: genes 20 Torsion [C]-CA--N-[C] |==|  0.83162
ROOT
ATOM      1  CA  ARG D   2       4.823   6.697  34.170  1.00  9.56 LIG 0.18  C 
ENDROOT
BRANCH 1 2
ATOM      2  C   ARG D   2       3.325   6.458  34.500  1.00 11.06 LIG 0.24  C 
ATOM      3  N   THR D   3       2.529   7.520  34.427  1.00 11.45 LIG-0.34  N 
ATOM      4 H    THR D   3       2.772   8.302  34.165  1.00 11.45 LIG 0.16  HD
ATOM      5 O    ARG D   2       2.892   5.327  34.773  1.00  9.90 LIG-0.27  OA
BRANCH 3 6
ATOM      6  CA  THR D   3       1.144   7.402  34.806  1.00 13.43 LIG 0.20  C 
BRANCH 6 7
ATOM      7  C   THR D   3       0.205   7.695  33.645  1.00 15.00 LIG 0.24  C 
ATOM      8  N   LYS D   4      -1.101   7.418  33.841  1.00 14.79 LIG-0.35  N 
ATOM      9 H    LYS D   4      -1.428   7.143  34.588  1.00 14.79 LIG 0.16  HD
ATOM     10 O    THR D   3       0.683   8.152  32.589  1.00 15.79 LIG-0.27  OA
BRANCH 8 11
ATOM     11  CA  LYS D   4      -2.106   7.573  32.745  1.00 18.13 LIG 0.16  C 
BRANCH 11 12
ATOM     12  C   LYS D   4      -3.479   8.035  33.215  1.00 20.20 LIG 0.22  C 
ATOM     13 O    LYS D   4      -4.130   7.221  33.923  1.00 21.26 LIG-0.29  OA
ENDBRANCH 11 12
BRANCH 11 14
ATOM     14  CB  LYS D   4      -2.277   6.224  32.001  1.00 18.02 LIG 0.03  C 
BRANCH 14 15
ATOM     15  CG  LYS D   4      -1.010   5.754  31.324  1.00 21.48 LIG 0.00  C 
BRANCH 15 16
ATOM     16  CD  LYS D   4      -0.528   4.431  31.870  1.00 25.56 LIG 0.03  C 
BRANCH 16 17
ATOM     17  CE  LYS D   4      -0.518   3.368  30.747  1.00 25.12 LIG 0.23  C 
BRANCH 17 18
ATOM     18  NZ  LYS D   4      -1.389   2.167  31.077  1.00 20.07 LIG-0.08  N 
ATOM     19 HZ1  LYS D   4      -2.119   2.181  30.569  1.00 20.07 LIG 0.27  HD
ATOM     20 HZ2  LYS D   4      -0.934   1.419  30.922  1.00 20.07 LIG 0.27  HD
ATOM     21 HZ3  LYS D   4      -1.625   2.198  31.935  1.00 20.07 LIG 0.27  HD
ENDBRANCH 17 18
ENDBRANCH 16 17
ENDBRANCH 15 16
ENDBRANCH 14 15
ENDBRANCH 11 14
ENDBRANCH 8 11
ENDBRANCH 6 7
BRANCH 6 22
ATOM     22  CB  THR D   3       0.773   8.292  36.048  1.00 14.57 LIG 0.15  C 
ATOM     23  CG2 THR D   3       0.240   7.415  37.219  1.00 14.25 LIG 0.04  C 
BRANCH 22 24
ATOM     24 OG1  THR D   3       1.924   9.035  36.479  1.00 15.86 LIG-0.39  OA
ATOM     25 HG1  THR D   3       1.847   9.223  37.295  1.00 15.86 LIG 0.21  HD
ENDBRANCH 22 24
ENDBRANCH 6 22
ENDBRANCH 3 6
ENDBRANCH 1 2
BRANCH 1 26
ATOM     26  CB  ARG D   2       5.740   6.522  35.394  1.00  9.49 LIG 0.04  C 
BRANCH 26 27
ATOM     27  CG  ARG D   2       5.831   5.011  35.834  1.00 10.73 LIG 0.02  C 
BRANCH 27 28
ATOM     28  CD  ARG D   2       6.281   4.970  37.303  1.00 10.86 LIG 0.14  C 
BRANCH 28 29
ATOM     29  NE  ARG D   2       7.318   5.934  37.568  1.00 10.69 LIG-0.23  N 
ATOM     30  CZ  ARG D   2       8.650   5.735  37.364  1.00  9.43 LIG 0.67  C 
ATOM     31  NH1 ARG D   2       9.142   4.565  36.927  1.00 10.34 LIG-0.23  N 
ATOM     32  NH2 ARG D   2       9.497   6.684  37.702  1.00 11.18 LIG-0.23  N 
ATOM     33 2HH1 ARG D   2       9.988   4.472  36.808  1.00 10.34 LIG 0.17  HD
ATOM     34 1HH1 ARG D   2       8.610   3.909  36.765  1.00 10.34 LIG 0.17  HD
ATOM     35 2HH2 ARG D   2      10.341   6.571  37.579  1.00 11.18 LIG 0.17  HD
ATOM     36 1HH2 ARG D   2       9.207   7.416  38.046  1.00 11.18 LIG 0.17  HD
ATOM     37 HE   ARG D   2       7.077   6.698  37.880  1.00 10.69 LIG 0.18  HD
ENDBRANCH 28 29
ENDBRANCH 27 28
ENDBRANCH 26 27
ENDBRANCH 1 26
BRANCH 1 38
ATOM     38  N   ARG D   2       5.017   8.022  33.559  1.00  9.04 LIG-0.35  N 
ATOM     39 H    ARG D   2       5.487   8.572  34.024  1.00  9.04 LIG 0.16  HD
ATOM     40  C   ALA D   1       4.476   8.302  32.361  1.00 11.17 LIG 0.24  C 
ATOM     41 O    ALA D   1       3.817   7.464  31.747  1.00 13.49 LIG-0.27  OA
BRANCH 40 42
ATOM     42  CA  ALA D   1       4.745   9.661  31.744  1.00 12.65 LIG 0.17  C 
ATOM     43  CB  ALA D   1       3.744  10.727  32.243  1.00 13.08 LIG 0.04  C 
BRANCH 42 44
ATOM     44  N   ALA D   1       4.706   9.643  30.276  1.00 12.52 LIG-0.35  N 
ATOM     45  C   ACE D   0       5.598   8.830  29.332  1.00 13.59 LIG 0.21  C 
ATOM     46 O    ACE D   0       6.458   8.112  29.937  1.00 14.78 LIG-0.27  OA
ATOM     47  CH3 ACE D   0       5.401   8.945  27.845  1.00 14.73 LIG 0.12  C 
ATOM     48 H    ALA D   1       4.096  10.166  29.967  1.00 12.52 LIG 0.16  HD
ENDBRANCH 42 44
ENDBRANCH 40 42
ENDBRANCH 1 38
TORSDOF 19
ENDMDL
MODEL 33
USER: ADFR SOLUTION from run 27
USER: SCORE 16.567715 LL:  -3.030 LR: -13.872 RR:   0.000 FEB:  -8.204
USER: RMSD 5.748553
USER: SEED 26
USER: STATUS 1 or 2 clusters left
USER: GENES 21
USER: genes 0 Translation |==|  0.50402 0.43008 0.52133
USER: genes 1 Rotation |==|  0.93918 0.70765 0.44485 0.60471
USER: genes 2 Torsion [N]-CA--C-[N] |==|  0.36316
USER: genes 3 Torsion [C]-N--CA-[C] |==|  0.76029
USER: genes 4 Torsion [N]-CA--C-[N] |==|  0.02015
USER: genes 5 Torsion [C]-N--CA-[CB] |==|  0.53603
USER: genes 6 Torsion [N]-CA--C-[O] |==|  0.87342
USER: genes 7 Torsion [N]-CA--CB-[CG] |==|  0.44088
USER: genes 8 Torsion [CA]-CB--CG-[CD] |==|  0.70265
USER: genes 9 Torsion [CB]-CG--CD-[CE] |==|  0.35374
USER: genes 10 Torsion [CG]-CD--CE-[NZ] |==|  0.68302
USER: genes 11 Torsion [CD]-CE--NZ-[HZ1] |==|  0.21995
USER: genes 12 Torsion [N]-CA--CB-[CG2] |==|  0.64211
USER: genes 13 Torsion [CA]-CB--OG1-[HG1] |==|  0.63753
USER: genes 14 Torsion [C]-CA--CB-[CG] |==|  0.20363
USER: genes 15 Torsion [CA]-CB--CG-[CD] |==|  0.17814
USER: genes 16 Torsion [CB]-CG--CD-[NE] |==|  0.75800
USER: genes 17 Torsion [CG]-CD--NE-[CZ] |==|  0.71470
USER: genes 18 Torsion [C]-CA--N-[C] |==|  0.78229
USER: genes 19 Torsion [N]-C--CA-[N] |==|  0.40271
USER: genes 20 Torsion [C]-CA--N-[C] |==|  0.61631
ROOT
ATOM      1  CA  ARG D   2       4.988   6.316  33.916  1.00  9.56 LIG 0.18  C 
ENDROOT
BRANCH 1 2
ATOM      2  C   ARG D   2       3.514   6.093  34.348  1.00 11.06 LIG 0.24  C 
ATOM      3  N   THR D   3       2.786   7.187  34.548  1.00 11.45 LIG-0.34  N 
ATOM      4 H    THR D   3       3.056   7.991  34.407  1.00 11.45 LIG 0.16  HD
ATOM      5 O    ARG D   2       3.034   4.953  34.456  1.00  9.90 LIG-0.27  OA
BRANCH 3 6
ATOM      6  CA  THR D   3       1.437   7.068  35.037  1.00 13.43 LIG 0.20  C 
BRANCH 6 7
ATOM      7  C   THR D   3       0.435   6.856  33.912  1.00 15.00 LIG 0.24  C 
ATOM      8  N   LYS D   4       0.944   6.661  32.678  1.00 14.79 LIG-0.35  N 
ATOM      9 H    LYS D   4       1.785   6.597  32.510  1.00 14.79 LIG 0.16  HD
ATOM     10 O    THR D   3      -0.782   6.889  34.181  1.00 15.79 LIG-0.27  OA
BRANCH 8 11
ATOM     11  CA  LYS D   4       0.062   6.537  31.478  1.00 18.13 LIG 0.16  C 
BRANCH 11 12
ATOM     12  C   LYS D   4      -1.141   5.624  31.676  1.00 20.20 LIG 0.22  C 
ATOM     13 O    LYS D   4      -0.916   4.517  32.237  1.00 21.26 LIG-0.29  OA
ENDBRANCH 11 12
BRANCH 11 14
ATOM     14  CB  LYS D   4       0.885   6.000  30.279  1.00 18.02 LIG 0.03  C 
BRANCH 14 15
ATOM     15  CG  LYS D   4       0.028   5.367  29.206  1.00 21.48 LIG 0.00  C 
BRANCH 15 16
ATOM     16  CD  LYS D   4       0.154   3.863  29.188  1.00 25.56 LIG 0.03  C 
BRANCH 16 17
ATOM     17  CE  LYS D   4      -1.248   3.214  29.259  1.00 25.12 LIG 0.23  C 
BRANCH 17 18
ATOM     18  NZ  LYS D   4      -1.465   2.440  30.549  1.00 20.07 LIG-0.08  N 
ATOM     19 HZ1  LYS D   4      -1.659   3.007  31.206  1.00 20.07 LIG 0.27  HD
ATOM     20 HZ2  LYS D   4      -2.138   1.868  30.442  1.00 20.07 LIG 0.27  HD
ATOM     21 HZ3  LYS D   4      -0.724   1.991  30.754  1.00 20.07 LIG 0.27  HD
ENDBRANCH 17 18
ENDBRANCH 16 17
ENDBRANCH 15 16
ENDBRANCH 14 15
ENDBRANCH 11 14
ENDBRANCH 8 11
ENDBRANCH 6 7
BRANCH 6 22
ATOM     22  CB  THR D   3       1.003   8.284  35.934  1.00 14.57 LIG 0.15  C 
ATOM     23  CG2 THR D   3       0.410   7.792  37.287  1.00 14.25 LIG 0.04  C 
BRANCH 22 24
ATOM     24 OG1  THR D   3       2.131   9.140  36.178  1.00 15.86 LIG-0.39  OA
ATOM     25 HG1  THR D   3       2.187   9.302  37.000  1.00 15.86 LIG 0.21  HD
ENDBRANCH 22 24
ENDBRANCH 6 22
ENDBRANCH 3 6
ENDBRANCH 1 2
BRANCH 1 26
ATOM     26  CB  ARG D   2       5.222   6.033  32.420  1.00  9.49 LIG 0.04  C 
BRANCH 26 27
ATOM     27  CG  ARG D   2       4.611   7.172  31.518  1.00 10.73 LIG 0.02  C 
BRANCH 27 28
ATOM     28  CD  ARG D   2       5.366   8.476  31.821  1.00 10.86 LIG 0.14  C 
BRANCH 28 29
ATOM     29  NE  ARG D   2       4.780   9.182  32.932  1.00 10.69 LIG-0.23  N 
ATOM     30  CZ  ARG D   2       3.978  10.278  32.835  1.00  9.43 LIG 0.67  C 
ATOM     31  NH1 ARG D   2       3.687  10.851  31.657  1.00 10.34 LIG-0.23  N 
ATOM     32  NH2 ARG D   2       3.555  10.860  33.936  1.00 11.18 LIG-0.23  N 
ATOM     33 2HH1 ARG D   2       3.177  11.542  31.629  1.00 10.34 LIG 0.17  HD
ATOM     34 1HH1 ARG D   2       4.010  10.525  30.929  1.00 10.34 LIG 0.17  HD
ATOM     35 2HH2 ARG D   2       3.048  11.553  33.889  1.00 11.18 LIG 0.17  HD
ATOM     36 1HH2 ARG D   2       3.785  10.548  34.703  1.00 11.18 LIG 0.17  HD
ATOM     37 HE   ARG D   2       4.951   8.887  33.722  1.00 10.69 LIG 0.18  HD
ENDBRANCH 28 29
ENDBRANCH 27 28
ENDBRANCH 26 27
ENDBRANCH 1 26
BRANCH 1 38
ATOM     38  N   ARG D   2       5.901   5.512  34.746  1.00  9.04 LIG-0.35  N 
ATOM     39 H    ARG D   2       6.192   4.792  34.376  1.00  9.04 LIG 0.16  HD
ATOM     40  C   ALA D   1       6.224   5.919  35.986  1.00 11.17 LIG 0.24  C 
ATOM     41 O    ALA D   1       5.774   6.965  36.452  1.00 13.49 LIG-0.27  OA
BRANCH 40 42
ATOM     42  CA  ALA D   1       7.209   5.090  36.787  1.00 12.65 LIG 0.17  C 
ATOM     43  CB  ALA D   1       6.493   4.045  37.673  1.00 13.08 LIG 0.04  C 
BRANCH 42 44
ATOM     44  N   ALA D   1       8.081   5.903  37.645  1.00 12.52 LIG-0.35  N 
ATOM     45  C   ACE D   0       9.585   5.722  37.878  1.00 13.59 LIG 0.21  C 
ATOM     46 O    ACE D   0      10.084   4.740  37.240  1.00 14.78 LIG-0.27  OA
ATOM     47  CH3 ACE D   0      10.309   6.667  38.798  1.00 14.73 LIG 0.12  C 
ATOM     48 H    ALA D   1       7.645   6.534  38.033  1.00 12.52 LIG 0.16  HD
ENDBRANCH 42 44
ENDBRANCH 40 42
ENDBRANCH 1 38
TORSDOF 19
ENDMDL
MODEL 34
USER: ADFR SOLUTION from run 53
USER: SCORE 15.105579 LL:  -2.240 LR: -13.855 RR:   0.000 FEB:  -8.188
USER: RMSD 6.947587
USER: SEED 52
USER: STATUS no improvement in best in 7 clusters for 5 generations
USER: GENES 21
USER: genes 0 Translation |==|  0.52098 0.49494 0.37601
USER: genes 1 Rotation |==|  0.14579 0.29826 0.76891 0.60734
USER: genes 2 Torsion [N]-CA--C-[N] |==|  0.89444
USER: genes 3 Torsion [C]-N--CA-[C] |==|  0.15328
USER: genes 4 Torsion [N]-CA--C-[N] |==|  0.14883
USER: genes 5 Torsion [C]-N--CA-[CB] |==|  0.49350
USER: genes 6 Torsion [N]-CA--C-[O] |==|  0.38118
USER: genes 7 Torsion [N]-CA--CB-[CG] |==|  0.17431
USER: genes 8 Torsion [CA]-CB--CG-[CD] |==|  0.75343
USER: genes 9 Torsion [CB]-CG--CD-[CE] |==|  0.69875
USER: genes 10 Torsion [CG]-CD--CE-[NZ] |==|  0.73207
USER: genes 11 Torsion [CD]-CE--NZ-[HZ1] |==|  0.77338
USER: genes 12 Torsion [N]-CA--CB-[CG2] |==|  0.48918
USER: genes 13 Torsion [CA]-CB--OG1-[HG1] |==|  0.67791
USER: genes 14 Torsion [C]-CA--CB-[CG] |==|  0.16627
USER: genes 15 Torsion [CA]-CB--CG-[CD] |==|  0.17502
USER: genes 16 Torsion [CB]-CG--CD-[NE] |==|  0.38818
USER: genes 17 Torsion [CG]-CD--NE-[CZ] |==|  0.74021
USER: genes 18 Torsion [C]-CA--N-[C] |==|  0.21477
USER: genes 19 Torsion [N]-C--CA-[N] |==|  0.90383
USER: genes 20 Torsion [C]-CA--N-[C] |==|  0.84444
ROOT
ATOM      1  CA  ARG D   2       5.319   7.337  31.409  1.00  9.56 LIG 0.18  C 
ENDROOT
BRANCH 1 2
ATOM      2  C   ARG D   2       5.130   6.897  32.886  1.00 11.06 LIG 0.24  C 
ATOM      3  N   THR D   3       4.956   5.596  33.096  1.00 11.45 LIG-0.34  N 
ATOM      4 H    THR D   3       4.992   4.989  32.488  1.00 11.45 LIG 0.16  HD
ATOM      5 O    ARG D   2       5.183   7.714  33.819  1.00  9.90 LIG-0.27  OA
BRANCH 3 6
ATOM      6  CA  THR D   3       4.683   5.117  34.426  1.00 13.43 LIG 0.20  C 
BRANCH 6 7
ATOM      7  C   THR D   3       3.474   5.802  35.046  1.00 15.00 LIG 0.24  C 
ATOM      8  N   LYS D   4       2.331   5.773  34.331  1.00 14.79 LIG-0.35  N 
ATOM      9 H    LYS D   4       2.240   5.351  33.587  1.00 14.79 LIG 0.16  HD
ATOM     10 O    THR D   3       3.604   6.357  36.155  1.00 15.79 LIG-0.27  OA
BRANCH 8 11
ATOM     11  CA  LYS D   4       1.103   6.491  34.789  1.00 18.13 LIG 0.16  C 
BRANCH 11 12
ATOM     12  C   LYS D   4       0.568   6.023  36.136  1.00 20.20 LIG 0.22  C 
ATOM     13 O    LYS D   4       0.193   6.926  36.932  1.00 21.26 LIG-0.29  OA
ENDBRANCH 11 12
BRANCH 11 14
ATOM     14  CB  LYS D   4      -0.023   6.323  33.736  1.00 18.02 LIG 0.03  C 
BRANCH 14 15
ATOM     15  CG  LYS D   4      -0.448   4.885  33.546  1.00 21.48 LIG 0.00  C 
BRANCH 15 16
ATOM     16  CD  LYS D   4       0.371   4.182  32.491  1.00 25.56 LIG 0.03  C 
BRANCH 16 17
ATOM     17  CE  LYS D   4      -0.485   3.945  31.226  1.00 25.12 LIG 0.23  C 
BRANCH 17 18
ATOM     18  NZ  LYS D   4      -1.091   2.552  31.188  1.00 20.07 LIG-0.08  N 
ATOM     19 HZ1  LYS D   4      -0.486   1.973  30.887  1.00 20.07 LIG 0.27  HD
ATOM     20 HZ2  LYS D   4      -1.345   2.316  32.007  1.00 20.07 LIG 0.27  HD
ATOM     21 HZ3  LYS D   4      -1.797   2.550  30.646  1.00 20.07 LIG 0.27  HD
ENDBRANCH 17 18
ENDBRANCH 16 17
ENDBRANCH 15 16
ENDBRANCH 14 15
ENDBRANCH 11 14
ENDBRANCH 8 11
ENDBRANCH 6 7
BRANCH 6 22
ATOM     22  CB  THR D   3       5.926   5.232  35.383  1.00 14.57 LIG 0.15  C 
ATOM     23  CG2 THR D   3       5.554   4.796  36.830  1.00 14.25 LIG 0.04  C 
BRANCH 22 24
ATOM     24 OG1  THR D   3       7.001   4.418  34.888  1.00 15.86 LIG-0.39  OA
ATOM     25 HG1  THR D   3       7.166   3.806  35.440  1.00 15.86 LIG 0.21  HD
ENDBRANCH 22 24
ENDBRANCH 6 22
ENDBRANCH 3 6
ENDBRANCH 1 2
BRANCH 1 26
ATOM     26  CB  ARG D   2       3.984   7.595  30.687  1.00  9.49 LIG 0.04  C 
BRANCH 26 27
ATOM     27  CG  ARG D   2       3.155   8.730  31.398  1.00 10.73 LIG 0.02  C 
BRANCH 27 28
ATOM     28  CD  ARG D   2       3.964  10.035  31.314  1.00 10.86 LIG 0.14  C 
BRANCH 28 29
ATOM     29  NE  ARG D   2       3.118  11.167  31.037  1.00 10.69 LIG-0.23  N 
ATOM     30  CZ  ARG D   2       2.852  11.669  29.799  1.00  9.43 LIG 0.67  C 
ATOM     31  NH1 ARG D   2       3.411  11.166  28.687  1.00 10.34 LIG-0.23  N 
ATOM     32  NH2 ARG D   2       2.104  12.745  29.693  1.00 11.18 LIG-0.23  N 
ATOM     33 2HH1 ARG D   2       3.222  11.505  27.920  1.00 10.34 LIG 0.17  HD
ATOM     34 1HH1 ARG D   2       3.957  10.504  28.742  1.00 10.34 LIG 0.17  HD
ATOM     35 2HH2 ARG D   2       1.928  13.073  28.917  1.00 11.18 LIG 0.17  HD
ATOM     36 1HH2 ARG D   2       1.790  13.122  30.399  1.00 11.18 LIG 0.17  HD
ATOM     37 HE   ARG D   2       2.750  11.559  31.709  1.00 10.69 LIG 0.18  HD
ENDBRANCH 28 29
ENDBRANCH 27 28
ENDBRANCH 26 27
ENDBRANCH 1 26
BRANCH 1 38
ATOM     38  N   ARG D   2       6.128   6.352  30.672  1.00  9.04 LIG-0.35  N 
ATOM     39 H    ARG D   2       6.947   6.578  30.541  1.00  9.04 LIG 0.16  HD
ATOM     40  C   ALA D   1       5.577   5.199  30.257  1.00 11.17 LIG 0.24  C 
ATOM     41 O    ALA D   1       4.397   4.937  30.483  1.00 13.49 LIG-0.27  OA
BRANCH 40 42
ATOM     42  CA  ALA D   1       6.459   4.189  29.549  1.00 12.65 LIG 0.17  C 
ATOM     43  CB  ALA D   1       7.152   3.232  30.546  1.00 13.08 LIG 0.04  C 
BRANCH 42 44
ATOM     44  N   ALA D   1       7.494   4.814  28.714  1.00 12.52 LIG-0.35  N 
ATOM     45  C   ACE D   0       7.289   5.824  27.581  1.00 13.59 LIG 0.21  C 
ATOM     46 O    ACE D   0       6.067   6.115  27.374  1.00 14.78 LIG-0.27  OA
ATOM     47  CH3 ACE D   0       8.484   6.357  26.839  1.00 14.73 LIG 0.12  C 
ATOM     48 H    ALA D   1       8.282   4.545  28.931  1.00 12.52 LIG 0.16  HD
ENDBRANCH 42 44
ENDBRANCH 40 42
ENDBRANCH 1 38
TORSDOF 19
ENDMDL
MODEL 35
USER: ADFR SOLUTION from run 153
USER: SCORE 16.161679 LL:  -2.669 LR: -13.850 RR:   0.000 FEB:  -8.182
USER: RMSD 4.230817
USER: SEED 152
USER: STATUS no improvement in best in 2 clusters for 5 generations
USER: GENES 21
USER: genes 0 Translation |==|  0.50267 0.35291 0.57606
USER: genes 1 Rotation |==|  0.25611 0.59739 0.32832 0.88931
USER: genes 2 Torsion [N]-CA--C-[N] |==|  0.88330
USER: genes 3 Torsion [C]-N--CA-[C] |==|  0.77388
USER: genes 4 Torsion [N]-CA--C-[N] |==|  0.95807
USER: genes 5 Torsion [C]-N--CA-[CB] |==|  0.34972
USER: genes 6 Torsion [N]-CA--C-[O] |==|  0.89155
USER: genes 7 Torsion [N]-CA--CB-[CG] |==|  0.48683
USER: genes 8 Torsion [CA]-CB--CG-[CD] |==|  0.66793
USER: genes 9 Torsion [CB]-CG--CD-[CE] |==|  0.20529
USER: genes 10 Torsion [CG]-CD--CE-[NZ] |==|  0.19170
USER: genes 11 Torsion [CD]-CE--NZ-[HZ1] |==|  0.08515
USER: genes 12 Torsion [N]-CA--CB-[CG2] |==|  0.21824
USER: genes 13 Torsion [CA]-CB--OG1-[HG1] |==|  0.40885
USER: genes 14 Torsion [C]-CA--CB-[CG] |==|  0.24356
USER: genes 15 Torsion [CA]-CB--CG-[CD] |==|  0.62908
USER: genes 16 Torsion [CB]-CG--CD-[NE] |==|  0.79936
USER: genes 17 Torsion [CG]-CD--NE-[CZ] |==|  0.86285
USER: genes 18 Torsion [C]-CA--N-[C] |==|  0.82628
USER: genes 19 Torsion [N]-C--CA-[N] |==|  0.08059
USER: genes 20 Torsion [C]-CA--N-[C] |==|  0.13333
ROOT
ATOM      1  CA  ARG D   2       4.962   5.100  34.860  1.00  9.56 LIG 0.18  C 
ENDROOT
BRANCH 1 2
ATOM      2  C   ARG D   2       3.637   5.583  35.510  1.00 11.06 LIG 0.24  C 
ATOM      3  N   THR D   3       3.220   6.798  35.167  1.00 11.45 LIG-0.34  N 
ATOM      4 H    THR D   3       3.599   7.302  34.583  1.00 11.45 LIG 0.16  HD
ATOM      5 O    ARG D   2       2.985   4.853  36.274  1.00  9.90 LIG-0.27  OA
BRANCH 3 6
ATOM      6  CA  THR D   3       2.049   7.354  35.794  1.00 13.43 LIG 0.20  C 
BRANCH 6 7
ATOM      7  C   THR D   3       0.762   6.845  35.162  1.00 15.00 LIG 0.24  C 
ATOM      8  N   LYS D   4       0.878   6.237  33.963  1.00 14.79 LIG-0.35  N 
ATOM      9 H    LYS D   4       1.629   6.079  33.575  1.00 14.79 LIG 0.16  HD
ATOM     10 O    THR D   3      -0.313   7.025  35.766  1.00 15.79 LIG-0.27  OA
BRANCH 8 11
ATOM     11  CA  LYS D   4      -0.323   5.780  33.199  1.00 18.13 LIG 0.16  C 
BRANCH 11 12
ATOM     12  C   LYS D   4      -0.450   4.268  33.077  1.00 20.20 LIG 0.22  C 
ATOM     13 O    LYS D   4       0.622   3.630  32.890  1.00 21.26 LIG-0.29  OA
ENDBRANCH 11 12
BRANCH 11 14
ATOM     14  CB  LYS D   4      -0.292   6.380  31.771  1.00 18.02 LIG 0.03  C 
BRANCH 14 15
ATOM     15  CG  LYS D   4      -1.413   5.878  30.890  1.00 21.48 LIG 0.00  C 
BRANCH 15 16
ATOM     16  CD  LYS D   4      -0.899   5.156  29.667  1.00 25.56 LIG 0.03  C 
BRANCH 16 17
ATOM     17  CE  LYS D   4      -0.354   3.765  30.064  1.00 25.12 LIG 0.23  C 
BRANCH 17 18
ATOM     18  NZ  LYS D   4      -1.455   2.813  30.501  1.00 20.07 LIG-0.08  N 
ATOM     19 HZ1  LYS D   4      -2.207   3.010  30.069  1.00 20.07 LIG 0.27  HD
ATOM     20 HZ2  LYS D   4      -1.216   1.977  30.315  1.00 20.07 LIG 0.27  HD
ATOM     21 HZ3  LYS D   4      -1.588   2.895  31.378  1.00 20.07 LIG 0.27  HD
ENDBRANCH 17 18
ENDBRANCH 16 17
ENDBRANCH 15 16
ENDBRANCH 14 15
ENDBRANCH 11 14
ENDBRANCH 8 11
ENDBRANCH 6 7
BRANCH 6 22
ATOM     22  CB  THR D   3       2.060   8.926  35.821  1.00 14.57 LIG 0.15  C 
ATOM     23  CG2 THR D   3       1.656   9.507  34.434  1.00 14.25 LIG 0.04  C 
BRANCH 22 24
ATOM     24 OG1  THR D   3       1.160   9.405  36.832  1.00 15.86 LIG-0.39  OA
ATOM     25 HG1  THR D   3       1.459  10.119  37.159  1.00 15.86 LIG 0.21  HD
ENDBRANCH 22 24
ENDBRANCH 6 22
ENDBRANCH 3 6
ENDBRANCH 1 2
BRANCH 1 26
ATOM     26  CB  ARG D   2       6.212   5.624  35.592  1.00  9.49 LIG 0.04  C 
BRANCH 26 27
ATOM     27  CG  ARG D   2       6.635   4.663  36.766  1.00 10.73 LIG 0.02  C 
BRANCH 27 28
ATOM     28  CD  ARG D   2       6.916   5.524  38.008  1.00 10.86 LIG 0.14  C 
BRANCH 28 29
ATOM     29  NE  ARG D   2       8.143   6.267  37.872  1.00 10.69 LIG-0.23  N 
ATOM     30  CZ  ARG D   2       9.342   5.746  37.490  1.00  9.43 LIG 0.67  C 
ATOM     31  NH1 ARG D   2       9.508   4.438  37.240  1.00 10.34 LIG-0.23  N 
ATOM     32  NH2 ARG D   2      10.399   6.529  37.460  1.00 11.18 LIG-0.23  N 
ATOM     33 2HH1 ARG D   2      10.278   4.140  37.000  1.00 10.34 LIG 0.17  HD
ATOM     34 1HH1 ARG D   2       8.844   3.897  37.320  1.00 10.34 LIG 0.17  HD
ATOM     35 2HH2 ARG D   2      11.162   6.213  37.220  1.00 11.18 LIG 0.17  HD
ATOM     36 1HH2 ARG D   2      10.327   7.357  37.681  1.00 11.18 LIG 0.17  HD
ATOM     37 HE   ARG D   2       8.117   7.109  38.047  1.00 10.69 LIG 0.18  HD
ENDBRANCH 28 29
ENDBRANCH 27 28
ENDBRANCH 26 27
ENDBRANCH 1 26
BRANCH 1 38
ATOM     38  N   ARG D   2       5.004   5.463  33.434  1.00  9.04 LIG-0.35  N 
ATOM     39 H    ARG D   2       5.637   6.001  33.213  1.00  9.04 LIG 0.16  HD
ATOM     40  C   ALA D   1       4.095   4.960  32.580  1.00 11.17 LIG 0.24  C 
ATOM     41 O    ALA D   1       3.217   4.188  32.964  1.00 13.49 LIG-0.27  OA
BRANCH 40 42
ATOM     42  CA  ALA D   1       4.207   5.316  31.110  1.00 12.65 LIG 0.17  C 
ATOM     43  CB  ALA D   1       3.626   4.206  30.205  1.00 13.08 LIG 0.04  C 
BRANCH 42 44
ATOM     44  N   ALA D   1       5.587   5.581  30.686  1.00 12.52 LIG-0.35  N 
ATOM     45  C   ACE D   0       6.827   4.728  30.973  1.00 13.59 LIG 0.21  C 
ATOM     46 O    ACE D   0       6.581   3.689  31.665  1.00 14.78 LIG-0.27  OA
ATOM     47  CH3 ACE D   0       8.166   5.168  30.445  1.00 14.73 LIG 0.12  C 
ATOM     48 H    ALA D   1       5.646   6.309  30.231  1.00 12.52 LIG 0.16  HD
ENDBRANCH 42 44
ENDBRANCH 40 42
ENDBRANCH 1 38
TORSDOF 19
ENDMDL
MODEL 36
USER: ADFR SOLUTION from run 188
USER: SCORE 16.789030 LL:  -3.060 LR: -13.845 RR:   0.000 FEB:  -8.177
USER: RMSD 3.639519
USER: SEED 187
USER: STATUS 1 or 2 clusters left
USER: GENES 21
USER: genes 0 Translation |==|  0.50426 0.37480 0.51809
USER: genes 1 Rotation |==|  0.37465 0.64733 0.32611 0.92701
USER: genes 2 Torsion [N]-CA--C-[N] |==|  0.90581
USER: genes 3 Torsion [C]-N--CA-[C] |==|  0.81250
USER: genes 4 Torsion [N]-CA--C-[N] |==|  0.92654
USER: genes 5 Torsion [C]-N--CA-[CB] |==|  0.79908
USER: genes 6 Torsion [N]-CA--C-[O] |==|  0.56074
USER: genes 7 Torsion [N]-CA--CB-[CG] |==|  0.79754
USER: genes 8 Torsion [CA]-CB--CG-[CD] |==|  0.85337
USER: genes 9 Torsion [CB]-CG--CD-[CE] |==|  0.79066
USER: genes 10 Torsion [CG]-CD--CE-[NZ] |==|  0.87723
USER: genes 11 Torsion [CD]-CE--NZ-[HZ1] |==|  0.84373
USER: genes 12 Torsion [N]-CA--CB-[CG2] |==|  0.18493
USER: genes 13 Torsion [CA]-CB--OG1-[HG1] |==|  0.37329
USER: genes 14 Torsion [C]-CA--CB-[CG] |==|  0.17063
USER: genes 15 Torsion [CA]-CB--CG-[CD] |==|  0.70508
USER: genes 16 Torsion [CB]-CG--CD-[NE] |==|  0.87830
USER: genes 17 Torsion [CG]-CD--NE-[CZ] |==|  0.84902
USER: genes 18 Torsion [C]-CA--N-[C] |==|  0.80178
USER: genes 19 Torsion [N]-C--CA-[N] |==|  0.95382
USER: genes 20 Torsion [C]-CA--N-[C] |==|  0.81808
ROOT
ATOM      1  CA  ARG D   2       4.993   5.445  33.860  1.00  9.56 LIG 0.18  C 
ENDROOT
BRANCH 1 2
ATOM      2  C   ARG D   2       3.696   5.741  34.660  1.00 11.06 LIG 0.24  C 
ATOM      3  N   THR D   3       3.380   7.023  34.817  1.00 11.45 LIG-0.34  N 
ATOM      4 H    THR D   3       3.807   7.682  34.469  1.00 11.45 LIG 0.16  HD
ATOM      5 O    ARG D   2       2.974   4.827  35.090  1.00  9.90 LIG-0.27  OA
BRANCH 3 6
ATOM      6  CA  THR D   3       2.242   7.384  35.624  1.00 13.43 LIG 0.20  C 
BRANCH 6 7
ATOM      7  C   THR D   3       0.929   6.947  34.992  1.00 15.00 LIG 0.24  C 
ATOM      8  N   LYS D   4       0.916   6.825  33.649  1.00 14.79 LIG-0.35  N 
ATOM      9 H    LYS D   4       1.609   6.926  33.150  1.00 14.79 LIG 0.16  HD
ATOM     10 O    THR D   3      -0.052   6.742  35.733  1.00 15.79 LIG-0.27  OA
BRANCH 8 11
ATOM     11  CA  LYS D   4      -0.338   6.495  32.905  1.00 18.13 LIG 0.16  C 
BRANCH 11 12
ATOM     12  C   LYS D   4      -1.536   7.356  33.282  1.00 20.20 LIG 0.22  C 
ATOM     13 O    LYS D   4      -2.673   6.873  33.030  1.00 21.26 LIG-0.29  OA
ENDBRANCH 11 12
BRANCH 11 14
ATOM     14  CB  LYS D   4      -0.713   5.010  33.149  1.00 18.02 LIG 0.03  C 
BRANCH 14 15
ATOM     15  CG  LYS D   4       0.193   4.042  32.423  1.00 21.48 LIG 0.00  C 
BRANCH 15 16
ATOM     16  CD  LYS D   4       0.296   4.351  30.949  1.00 25.56 LIG 0.03  C 
BRANCH 16 17
ATOM     17  CE  LYS D   4      -0.995   3.905  30.224  1.00 25.12 LIG 0.23  C 
BRANCH 17 18
ATOM     18  NZ  LYS D   4      -1.465   2.530  30.668  1.00 20.07 LIG-0.08  N 
ATOM     19 HZ1  LYS D   4      -0.812   1.939  30.546  1.00 20.07 LIG 0.27  HD
ATOM     20 HZ2  LYS D   4      -1.684   2.556  31.530  1.00 20.07 LIG 0.27  HD
ATOM     21 HZ3  LYS D   4      -2.176   2.290  30.189  1.00 20.07 LIG 0.27  HD
ENDBRANCH 17 18
ENDBRANCH 16 17
ENDBRANCH 15 16
ENDBRANCH 14 15
ENDBRANCH 11 14
ENDBRANCH 8 11
ENDBRANCH 6 7
BRANCH 6 22
ATOM     22  CB  THR D   3       2.200   8.918  35.967  1.00 14.57 LIG 0.15  C 
ATOM     23  CG2 THR D   3       1.962   9.767  34.683  1.00 14.25 LIG 0.04  C 
BRANCH 22 24
ATOM     24 OG1  THR D   3       1.160   9.177  36.923  1.00 15.86 LIG-0.39  OA
ATOM     25 HG1  THR D   3       1.454   9.682  37.527  1.00 15.86 LIG 0.21  HD
ENDBRANCH 22 24
ENDBRANCH 6 22
ENDBRANCH 3 6
ENDBRANCH 1 2
BRANCH 1 26
ATOM     26  CB  ARG D   2       6.240   5.350  34.758  1.00  9.49 LIG 0.04  C 
BRANCH 26 27
ATOM     27  CG  ARG D   2       6.110   4.177  35.802  1.00 10.73 LIG 0.02  C 
BRANCH 27 28
ATOM     28  CD  ARG D   2       5.845   4.798  37.184  1.00 10.86 LIG 0.14  C 
BRANCH 28 29
ATOM     29  NE  ARG D   2       6.696   5.934  37.427  1.00 10.69 LIG-0.23  N 
ATOM     30  CZ  ARG D   2       8.055   5.933  37.342  1.00  9.43 LIG 0.67  C 
ATOM     31  NH1 ARG D   2       8.755   4.824  37.058  1.00 10.34 LIG-0.23  N 
ATOM     32  NH2 ARG D   2       8.715   7.030  37.646  1.00 11.18 LIG-0.23  N 
ATOM     33 2HH1 ARG D   2       9.613   4.857  37.011  1.00 10.34 LIG 0.17  HD
ATOM     34 1HH1 ARG D   2       8.345   4.080  36.923  1.00 10.34 LIG 0.17  HD
ATOM     35 2HH2 ARG D   2       9.574   7.044  37.596  1.00 11.18 LIG 0.17  HD
ATOM     36 1HH2 ARG D   2       8.288   7.734  37.895  1.00 11.18 LIG 0.17  HD
ATOM     37 HE   ARG D   2       6.315   6.673  37.645  1.00 10.69 LIG 0.18  HD
ENDBRANCH 28 29
ENDBRANCH 27 28
ENDBRANCH 26 27
ENDBRANCH 1 26
BRANCH 1 38
ATOM     38  N   ARG D   2       5.190   6.447  32.799  1.00  9.04 LIG-0.35  N 
ATOM     39 H    ARG D   2       5.834   7.000  32.936  1.00  9.04 LIG 0.16  HD
ATOM     40  C   ALA D   1       4.394   6.452  31.716  1.00 11.17 LIG 0.24  C 
ATOM     41 O    ALA D   1       3.493   5.625  31.583  1.00 13.49 LIG-0.27  OA
BRANCH 40 42
ATOM     42  CA  ALA D   1       4.665   7.466  30.622  1.00 12.65 LIG 0.17  C 
ATOM     43  CB  ALA D   1       5.307   6.811  29.378  1.00 13.08 LIG 0.04  C 
BRANCH 42 44
ATOM     44  N   ALA D   1       5.532   8.568  31.062  1.00 12.52 LIG-0.35  N 
ATOM     45  C   ACE D   0       5.215   9.636  32.114  1.00 13.59 LIG 0.21  C 
ATOM     46 O    ACE D   0       4.057   9.515  32.629  1.00 14.78 LIG-0.27  OA
ATOM     47  CH3 ACE D   0       6.242  10.689  32.432  1.00 14.73 LIG 0.12  C 
ATOM     48 H    ALA D   1       6.286   8.563  30.649  1.00 12.52 LIG 0.16  HD
ENDBRANCH 42 44
ENDBRANCH 40 42
ENDBRANCH 1 38
TORSDOF 19
ENDMDL
MODEL 37
USER: ADFR SOLUTION from run 97
USER: SCORE 15.977606 LL:  -3.123 LR: -13.822 RR:   0.000 FEB:  -8.155
USER: RMSD 5.508775
USER: SEED 96
USER: STATUS no improvement in best in 7 clusters for 5 generations
USER: GENES 21
USER: genes 0 Translation |==|  0.43748 0.54228 0.55550
USER: genes 1 Rotation |==|  0.35224 0.08748 0.67159 0.66897
USER: genes 2 Torsion [N]-CA--C-[N] |==|  0.09749
USER: genes 3 Torsion [C]-N--CA-[C] |==|  0.15730
USER: genes 4 Torsion [N]-CA--C-[N] |==|  0.05342
USER: genes 5 Torsion [C]-N--CA-[CB] |==|  0.39523
USER: genes 6 Torsion [N]-CA--C-[O] |==|  0.15427
USER: genes 7 Torsion [N]-CA--CB-[CG] |==|  0.83812
USER: genes 8 Torsion [CA]-CB--CG-[CD] |==|  0.53704
USER: genes 9 Torsion [CB]-CG--CD-[CE] |==|  0.41562
USER: genes 10 Torsion [CG]-CD--CE-[NZ] |==|  0.62386
USER: genes 11 Torsion [CD]-CE--NZ-[HZ1] |==|  0.75755
USER: genes 12 Torsion [N]-CA--CB-[CG2] |==|  0.62574
USER: genes 13 Torsion [CA]-CB--OG1-[HG1] |==|  0.79808
USER: genes 14 Torsion [C]-CA--CB-[CG] |==|  0.21900
USER: genes 15 Torsion [CA]-CB--CG-[CD] |==|  0.21622
USER: genes 16 Torsion [CB]-CG--CD-[NE] |==|  0.90099
USER: genes 17 Torsion [CG]-CD--NE-[CZ] |==|  0.28211
USER: genes 18 Torsion [C]-CA--N-[C] |==|  0.17769
USER: genes 19 Torsion [N]-C--CA-[N] |==|  0.52849
USER: genes 20 Torsion [C]-CA--N-[C] |==|  0.80410
ROOT
ATOM      1  CA  ARG D   2       3.691   8.083  34.505  1.00  9.56 LIG 0.18  C 
ENDROOT
BRANCH 1 2
ATOM      2  C   ARG D   2       4.394   6.753  34.888  1.00 11.06 LIG 0.24  C 
ATOM      3  N   THR D   3       5.720   6.787  34.965  1.00 11.45 LIG-0.34  N 
ATOM      4 H    THR D   3       6.201   7.493  34.870  1.00 11.45 LIG 0.16  HD
ATOM      5 O    ARG D   2       3.745   5.727  35.150  1.00  9.90 LIG-0.27  OA
BRANCH 3 6
ATOM      6  CA  THR D   3       6.452   5.574  35.225  1.00 13.43 LIG 0.20  C 
BRANCH 6 7
ATOM      7  C   THR D   3       6.150   4.490  34.201  1.00 15.00 LIG 0.24  C 
ATOM      8  N   LYS D   4       5.612   4.897  33.033  1.00 14.79 LIG-0.35  N 
ATOM      9 H    LYS D   4       5.485   5.721  32.823  1.00 14.79 LIG 0.16  HD
ATOM     10 O    THR D   3       6.397   3.305  34.495  1.00 15.79 LIG-0.27  OA
BRANCH 8 11
ATOM     11  CA  LYS D   4       5.184   3.919  31.987  1.00 18.13 LIG 0.16  C 
BRANCH 11 12
ATOM     12  C   LYS D   4       6.222   3.669  30.900  1.00 20.20 LIG 0.22  C 
ATOM     13 O    LYS D   4       7.360   3.293  31.290  1.00 21.26 LIG-0.29  OA
ENDBRANCH 11 12
BRANCH 11 14
ATOM     14  CB  LYS D   4       3.883   4.417  31.308  1.00 18.02 LIG 0.03  C 
BRANCH 14 15
ATOM     15  CG  LYS D   4       2.745   4.618  32.283  1.00 21.48 LIG 0.00  C 
BRANCH 15 16
ATOM     16  CD  LYS D   4       1.417   4.787  31.584  1.00 25.56 LIG 0.03  C 
BRANCH 16 17
ATOM     17  CE  LYS D   4       0.277   4.243  32.476  1.00 25.12 LIG 0.23  C 
BRANCH 17 18
ATOM     18  NZ  LYS D   4      -0.715   3.396  31.696  1.00 20.07 LIG-0.08  N 
ATOM     19 HZ1  LYS D   4      -1.343   3.920  31.346  1.00 20.07 LIG 0.27  HD
ATOM     20 HZ2  LYS D   4      -0.290   2.966  31.044  1.00 20.07 LIG 0.27  HD
ATOM     21 HZ3  LYS D   4      -1.094   2.804  32.243  1.00 20.07 LIG 0.27  HD
ENDBRANCH 17 18
ENDBRANCH 16 17
ENDBRANCH 15 16
ENDBRANCH 14 15
ENDBRANCH 11 14
ENDBRANCH 8 11
ENDBRANCH 6 7
BRANCH 6 22
ATOM     22  CB  THR D   3       6.228   5.027  36.682  1.00 14.57 LIG 0.15  C 
ATOM     23  CG2 THR D   3       7.579   4.606  37.331  1.00 14.25 LIG 0.04  C 
BRANCH 22 24
ATOM     24 OG1  THR D   3       5.591   6.030  37.489  1.00 15.86 LIG-0.39  OA
ATOM     25 HG1  THR D   3       6.143   6.639  37.667  1.00 15.86 LIG 0.21  HD
ENDBRANCH 22 24
ENDBRANCH 6 22
ENDBRANCH 3 6
ENDBRANCH 1 2
BRANCH 1 26
ATOM     26  CB  ARG D   2       2.267   7.870  33.960  1.00  9.49 LIG 0.04  C 
BRANCH 26 27
ATOM     27  CG  ARG D   2       1.236   7.616  35.125  1.00 10.73 LIG 0.02  C 
BRANCH 27 28
ATOM     28  CD  ARG D   2       0.908   8.971  35.774  1.00 10.86 LIG 0.14  C 
BRANCH 28 29
ATOM     29  NE  ARG D   2       2.058   9.838  35.802  1.00 10.69 LIG-0.23  N 
ATOM     30  CZ  ARG D   2       2.288  10.870  34.944  1.00  9.43 LIG 0.67  C 
ATOM     31  NH1 ARG D   2       1.460  11.155  33.927  1.00 10.34 LIG-0.23  N 
ATOM     32  NH2 ARG D   2       3.410  11.550  35.048  1.00 11.18 LIG-0.23  N 
ATOM     33 2HH1 ARG D   2       1.634  11.814  33.403  1.00 10.34 LIG 0.17  HD
ATOM     34 1HH1 ARG D   2       0.755  10.679  33.801  1.00 10.34 LIG 0.17  HD
ATOM     35 2HH2 ARG D   2       3.568  12.204  34.512  1.00 11.18 LIG 0.17  HD
ATOM     36 1HH2 ARG D   2       3.985  11.340  35.651  1.00 11.18 LIG 0.17  HD
ATOM     37 HE   ARG D   2       2.647   9.693  36.411  1.00 10.69 LIG 0.18  HD
ENDBRANCH 28 29
ENDBRANCH 27 28
ENDBRANCH 26 27
ENDBRANCH 1 26
BRANCH 1 38
ATOM     38  N   ARG D   2       4.507   8.845  33.546  1.00  9.04 LIG-0.35  N 
ATOM     39 H    ARG D   2       4.795   9.603  33.834  1.00  9.04 LIG 0.16  HD
ATOM     40  C   ALA D   1       4.756   8.347  32.323  1.00 11.17 LIG 0.24  C 
ATOM     41 O    ALA D   1       4.316   7.251  31.978  1.00 13.49 LIG-0.27  OA
BRANCH 40 42
ATOM     42  CA  ALA D   1       5.646   9.140  31.385  1.00 12.65 LIG 0.17  C 
ATOM     43  CB  ALA D   1       5.244  10.632  31.336  1.00 13.08 LIG 0.04  C 
BRANCH 42 44
ATOM     44  N   ALA D   1       5.646   8.617  30.013  1.00 12.52 LIG-0.35  N 
ATOM     45  C   ACE D   0       6.271   7.309  29.517  1.00 13.59 LIG 0.21  C 
ATOM     46 O    ACE D   0       6.850   6.642  30.434  1.00 14.78 LIG-0.27  OA
ATOM     47  CH3 ACE D   0       6.162   6.942  28.062  1.00 14.73 LIG 0.12  C 
ATOM     48 H    ALA D   1       5.235   9.145  29.471  1.00 12.52 LIG 0.16  HD
ENDBRANCH 42 44
ENDBRANCH 40 42
ENDBRANCH 1 38
TORSDOF 19
ENDMDL
MODEL 38
USER: ADFR SOLUTION from run 154
USER: SCORE 16.185229 LL:  -3.040 LR: -13.780 RR:   0.000 FEB:  -8.112
USER: RMSD 6.000698
USER: SEED 153
USER: STATUS no improvement in best in 3 clusters for 5 generations
USER: GENES 21
USER: genes 0 Translation |==|  0.54648 0.31155 0.35522
USER: genes 1 Rotation |==|  0.36133 0.80194 0.48212 0.87321
USER: genes 2 Torsion [N]-CA--C-[N] |==|  0.93035
USER: genes 3 Torsion [C]-N--CA-[C] |==|  0.59683
USER: genes 4 Torsion [N]-CA--C-[N] |==|  0.15298
USER: genes 5 Torsion [C]-N--CA-[CB] |==|  0.50969
USER: genes 6 Torsion [N]-CA--C-[O] |==|  0.40602
USER: genes 7 Torsion [N]-CA--CB-[CG] |==|  0.94354
USER: genes 8 Torsion [CA]-CB--CG-[CD] |==|  0.57569
USER: genes 9 Torsion [CB]-CG--CD-[CE] |==|  0.55253
USER: genes 10 Torsion [CG]-CD--CE-[NZ] |==|  0.26261
USER: genes 11 Torsion [CD]-CE--NZ-[HZ1] |==|  0.95370
USER: genes 12 Torsion [N]-CA--CB-[CG2] |==|  0.50970
USER: genes 13 Torsion [CA]-CB--OG1-[HG1] |==|  0.64267
USER: genes 14 Torsion [C]-CA--CB-[CG] |==|  0.61860
USER: genes 15 Torsion [CA]-CB--CG-[CD] |==|  0.81481
USER: genes 16 Torsion [CB]-CG--CD-[NE] |==|  0.83700
USER: genes 17 Torsion [CG]-CD--NE-[CZ] |==|  0.30981
USER: genes 18 Torsion [C]-CA--N-[C] |==|  0.82077
USER: genes 19 Torsion [N]-C--CA-[N] |==|  0.92155
USER: genes 20 Torsion [C]-CA--N-[C] |==|  0.86111
ROOT
ATOM      1  CA  ARG D   2       5.816   4.449  31.050  1.00  9.56 LIG 0.18  C 
ENDROOT
BRANCH 1 2
ATOM      2  C   ARG D   2       5.504   4.080  32.526  1.00 11.06 LIG 0.24  C 
ATOM      3  N   THR D   3       5.018   5.055  33.288  1.00 11.45 LIG-0.34  N 
ATOM      4 H    THR D   3       4.821   5.844  33.011  1.00 11.45 LIG 0.16  HD
ATOM      5 O    ARG D   2       5.660   2.925  32.953  1.00  9.90 LIG-0.27  OA
BRANCH 3 6
ATOM      6  CA  THR D   3       4.788   4.818  34.690  1.00 13.43 LIG 0.20  C 
BRANCH 6 7
ATOM      7  C   THR D   3       3.566   5.564  35.205  1.00 15.00 LIG 0.24  C 
ATOM      8  N   LYS D   4       2.405   5.343  34.554  1.00 14.79 LIG-0.35  N 
ATOM      9 H    LYS D   4       2.313   4.775  33.914  1.00 14.79 LIG 0.16  HD
ATOM     10 O    THR D   3       3.701   6.337  36.173  1.00 15.79 LIG-0.27  OA
BRANCH 8 11
ATOM     11  CA  LYS D   4       1.158   6.087  34.905  1.00 18.13 LIG 0.16  C 
BRANCH 11 12
ATOM     12  C   LYS D   4       0.763   5.993  36.373  1.00 20.20 LIG 0.22  C 
ATOM     13 O    LYS D   4       0.210   7.012  36.869  1.00 21.26 LIG-0.29  OA
ENDBRANCH 11 12
BRANCH 11 14
ATOM     14  CB  LYS D   4      -0.023   5.558  34.051  1.00 18.02 LIG 0.03  C 
BRANCH 14 15
ATOM     15  CG  LYS D   4       0.425   4.835  32.802  1.00 21.48 LIG 0.00  C 
BRANCH 15 16
ATOM     16  CD  LYS D   4      -0.605   4.906  31.700  1.00 25.56 LIG 0.03  C 
BRANCH 16 17
ATOM     17  CE  LYS D   4      -0.340   3.796  30.656  1.00 25.12 LIG 0.23  C 
BRANCH 17 18
ATOM     18  NZ  LYS D   4      -1.156   2.542  30.923  1.00 20.07 LIG-0.08  N 
ATOM     19 HZ1  LYS D   4      -1.465   2.560  31.757  1.00 20.07 LIG 0.27  HD
ATOM     20 HZ2  LYS D   4      -1.840   2.506  30.355  1.00 20.07 LIG 0.27  HD
ATOM     21 HZ3  LYS D   4      -0.642   1.824  30.813  1.00 20.07 LIG 0.27  HD
ENDBRANCH 17 18
ENDBRANCH 16 17
ENDBRANCH 15 16
ENDBRANCH 14 15
ENDBRANCH 11 14
ENDBRANCH 8 11
ENDBRANCH 6 7
BRANCH 6 22
ATOM     22  CB  THR D   3       6.043   5.146  35.578  1.00 14.57 LIG 0.15  C 
ATOM     23  CG2 THR D   3       5.775   4.792  37.070  1.00 14.25 LIG 0.04  C 
BRANCH 22 24
ATOM     24 OG1  THR D   3       7.185   4.417  35.101  1.00 15.86 LIG-0.39  OA
ATOM     25 HG1  THR D   3       7.542   4.006  35.741  1.00 15.86 LIG 0.21  HD
ENDBRANCH 22 24
ENDBRANCH 6 22
ENDBRANCH 3 6
ENDBRANCH 1 2
BRANCH 1 26
ATOM     26  CB  ARG D   2       7.310   4.731  30.809  1.00  9.49 LIG 0.04  C 
BRANCH 26 27
ATOM     27  CG  ARG D   2       7.516   5.993  29.887  1.00 10.73 LIG 0.02  C 
BRANCH 27 28
ATOM     28  CD  ARG D   2       6.978   5.653  28.488  1.00 10.86 LIG 0.14  C 
BRANCH 28 29
ATOM     29  NE  ARG D   2       7.649   4.510  27.924  1.00 10.69 LIG-0.23  N 
ATOM     30  CZ  ARG D   2       7.082   3.292  27.703  1.00  9.43 LIG 0.67  C 
ATOM     31  NH1 ARG D   2       5.813   3.020  28.044  1.00 10.34 LIG-0.23  N 
ATOM     32  NH2 ARG D   2       7.827   2.316  27.232  1.00 11.18 LIG-0.23  N 
ATOM     33 2HH1 ARG D   2       5.484   2.241  27.891  1.00 10.34 LIG 0.17  HD
ATOM     34 1HH1 ARG D   2       5.328   3.626  28.416  1.00 10.34 LIG 0.17  HD
ATOM     35 2HH2 ARG D   2       7.481   1.541  27.087  1.00 11.18 LIG 0.17  HD
ATOM     36 1HH2 ARG D   2       8.660   2.451  27.069  1.00 11.18 LIG 0.17  HD
ATOM     37 HE   ARG D   2       8.477   4.605  27.710  1.00 10.69 LIG 0.18  HD
ENDBRANCH 28 29
ENDBRANCH 27 28
ENDBRANCH 26 27
ENDBRANCH 1 26
BRANCH 1 38
ATOM     38  N   ARG D   2       4.994   5.589  30.614  1.00  9.04 LIG-0.35  N 
ATOM     39 H    ARG D   2       5.433   6.303  30.420  1.00  9.04 LIG 0.16  HD
ATOM     40  C   ALA D   1       3.656   5.471  30.542  1.00 11.17 LIG 0.24  C 
ATOM     41 O    ALA D   1       3.092   4.417  30.830  1.00 13.49 LIG-0.27  OA
BRANCH 40 42
ATOM     42  CA  ALA D   1       2.851   6.653  30.037  1.00 12.65 LIG 0.17  C 
ATOM     43  CB  ALA D   1       2.572   6.550  28.520  1.00 13.08 LIG 0.04  C 
BRANCH 42 44
ATOM     44  N   ALA D   1       3.498   7.945  30.300  1.00 12.52 LIG-0.35  N 
ATOM     45  C   ACE D   0       4.067   8.444  31.632  1.00 13.59 LIG 0.21  C 
ATOM     46 O    ACE D   0       3.932   7.613  32.587  1.00 14.78 LIG-0.27  OA
ATOM     47  CH3 ACE D   0       4.700   9.807  31.702  1.00 14.73 LIG 0.12  C 
ATOM     48 H    ALA D   1       3.534   8.433  29.593  1.00 12.52 LIG 0.16  HD
ENDBRANCH 42 44
ENDBRANCH 40 42
ENDBRANCH 1 38
TORSDOF 19
ENDMDL
MODEL 39
USER: ADFR SOLUTION from run 31
USER: SCORE 15.254873 LL:  -2.422 LR: -13.755 RR:   0.000 FEB:  -8.088
USER: RMSD 5.075499
USER: SEED 30
USER: STATUS no improvement in best in 5 clusters for 5 generations
USER: GENES 21
USER: genes 0 Translation |==|  0.51352 0.36152 0.52789
USER: genes 1 Rotation |==|  0.27898 0.50861 0.20924 0.84137
USER: genes 2 Torsion [N]-CA--C-[N] |==|  0.43722
USER: genes 3 Torsion [C]-N--CA-[C] |==|  0.78624
USER: genes 4 Torsion [N]-CA--C-[N] |==|  0.36936
USER: genes 5 Torsion [C]-N--CA-[CB] |==|  0.21528
USER: genes 6 Torsion [N]-CA--C-[O] |==|  0.48253
USER: genes 7 Torsion [N]-CA--CB-[CG] |==|  0.03062
USER: genes 8 Torsion [CA]-CB--CG-[CD] |==|  0.39816
USER: genes 9 Torsion [CB]-CG--CD-[CE] |==|  0.73048
USER: genes 10 Torsion [CG]-CD--CE-[NZ] |==|  0.18513
USER: genes 11 Torsion [CD]-CE--NZ-[HZ1] |==|  0.21467
USER: genes 12 Torsion [N]-CA--CB-[CG2] |==|  0.73209
USER: genes 13 Torsion [CA]-CB--OG1-[HG1] |==|  0.25072
USER: genes 14 Torsion [C]-CA--CB-[CG] |==|  0.18586
USER: genes 15 Torsion [CA]-CB--CG-[CD] |==|  0.39405
USER: genes 16 Torsion [CB]-CG--CD-[NE] |==|  0.16593
USER: genes 17 Torsion [CG]-CD--NE-[CZ] |==|  0.68567
USER: genes 18 Torsion [C]-CA--N-[C] |==|  0.66657
USER: genes 19 Torsion [N]-C--CA-[N] |==|  0.63817
USER: genes 20 Torsion [C]-CA--N-[C] |==|  0.14772
ROOT
ATOM      1  CA  ARG D   2       5.174   5.236  34.029  1.00  9.56 LIG 0.18  C 
ENDROOT
BRANCH 1 2
ATOM      2  C   ARG D   2       3.938   6.153  33.827  1.00 11.06 LIG 0.24  C 
ATOM      3  N   THR D   3       2.922   5.969  34.665  1.00 11.45 LIG-0.34  N 
ATOM      4 H    THR D   3       2.924   5.423  35.329  1.00 11.45 LIG 0.16  HD
ATOM      5 O    ARG D   2       3.922   7.039  32.957  1.00  9.90 LIG-0.27  OA
BRANCH 3 6
ATOM      6  CA  THR D   3       1.705   6.717  34.487  1.00 13.43 LIG 0.20  C 
BRANCH 6 7
ATOM      7  C   THR D   3       1.836   8.152  34.976  1.00 15.00 LIG 0.24  C 
ATOM      8  N   LYS D   4       1.378   9.115  34.150  1.00 14.79 LIG-0.35  N 
ATOM      9 H    LYS D   4       0.977   8.959  33.405  1.00 14.79 LIG 0.16  HD
ATOM     10 O    THR D   3       2.363   8.360  36.086  1.00 15.79 LIG-0.27  OA
BRANCH 8 11
ATOM     11  CA  LYS D   4       1.538  10.565  34.476  1.00 18.13 LIG 0.16  C 
BRANCH 11 12
ATOM     12  C   LYS D   4       0.596  11.486  33.713  1.00 20.20 LIG 0.22  C 
ATOM     13 O    LYS D   4       0.611  12.702  34.046  1.00 21.26 LIG-0.29  OA
ENDBRANCH 11 12
BRANCH 11 14
ATOM     14  CB  LYS D   4       2.993  11.009  34.181  1.00 18.02 LIG 0.03  C 
BRANCH 14 15
ATOM     15  CG  LYS D   4       3.785   9.977  33.412  1.00 21.48 LIG 0.00  C 
BRANCH 15 16
ATOM     16  CD  LYS D   4       4.728  10.607  32.415  1.00 25.56 LIG 0.03  C 
BRANCH 16 17
ATOM     17  CE  LYS D   4       4.080  10.623  31.011  1.00 25.12 LIG 0.23  C 
BRANCH 17 18
ATOM     18  NZ  LYS D   4       2.872  11.542  30.940  1.00 20.07 LIG-0.08  N 
ATOM     19 HZ1  LYS D   4       3.144  12.387  30.888  1.00 20.07 LIG 0.27  HD
ATOM     20 HZ2  LYS D   4       2.388  11.341  30.221  1.00 20.07 LIG 0.27  HD
ATOM     21 HZ3  LYS D   4       2.375  11.436  31.671  1.00 20.07 LIG 0.27  HD
ENDBRANCH 17 18
ENDBRANCH 16 17
ENDBRANCH 15 16
ENDBRANCH 14 15
ENDBRANCH 11 14
ENDBRANCH 8 11
ENDBRANCH 6 7
BRANCH 6 22
ATOM     22  CB  THR D   3       0.460   6.024  35.153  1.00 14.57 LIG 0.15  C 
ATOM     23  CG2 THR D   3      -0.334   5.187  34.107  1.00 14.25 LIG 0.04  C 
BRANCH 22 24
ATOM     24 OG1  THR D   3       0.889   5.178  36.231  1.00 15.86 LIG-0.39  OA
ATOM     25 HG1  THR D   3       0.901   5.619  36.946  1.00 15.86 LIG 0.21  HD
ENDBRANCH 22 24
ENDBRANCH 6 22
ENDBRANCH 3 6
ENDBRANCH 1 2
BRANCH 1 26
ATOM     26  CB  ARG D   2       6.061   5.681  35.206  1.00  9.49 LIG 0.04  C 
BRANCH 26 27
ATOM     27  CG  ARG D   2       5.320   5.505  36.585  1.00 10.73 LIG 0.02  C 
BRANCH 27 28
ATOM     28  CD  ARG D   2       6.348   5.021  37.620  1.00 10.86 LIG 0.14  C 
BRANCH 28 29
ATOM     29  NE  ARG D   2       7.429   5.961  37.775  1.00 10.69 LIG-0.23  N 
ATOM     30  CZ  ARG D   2       8.724   5.740  37.418  1.00  9.43 LIG 0.67  C 
ATOM     31  NH1 ARG D   2       9.138   4.566  36.915  1.00 10.34 LIG-0.23  N 
ATOM     32  NH2 ARG D   2       9.623   6.667  37.667  1.00 11.18 LIG-0.23  N 
ATOM     33 2HH1 ARG D   2       9.963   4.458  36.699  1.00 10.34 LIG 0.17  HD
ATOM     34 1HH1 ARG D   2       8.577   3.923  36.807  1.00 10.34 LIG 0.17  HD
ATOM     35 2HH2 ARG D   2      10.445   6.540  37.447  1.00 11.18 LIG 0.17  HD
ATOM     36 1HH2 ARG D   2       9.390   7.400  38.050  1.00 11.18 LIG 0.17  HD
ATOM     37 HE   ARG D   2       7.240   6.726  38.121  1.00 10.69 LIG 0.18  HD
ENDBRANCH 28 29
ENDBRANCH 27 28
ENDBRANCH 26 27
ENDBRANCH 1 26
BRANCH 1 38
ATOM     38  N   ARG D   2       5.961   5.143  32.789  1.00  9.04 LIG-0.35  N 
ATOM     39 H    ARG D   2       6.268   5.890  32.495  1.00  9.04 LIG 0.16  HD
ATOM     40  C   ALA D   1       6.156   3.951  32.198  1.00 11.17 LIG 0.24  C 
ATOM     41 O    ALA D   1       5.691   2.918  32.677  1.00 13.49 LIG-0.27  OA
BRANCH 40 42
ATOM     42  CA  ALA D   1       7.018   3.893  30.952  1.00 12.65 LIG 0.17  C 
ATOM     43  CB  ALA D   1       7.393   5.304  30.446  1.00 13.08 LIG 0.04  C 
BRANCH 42 44
ATOM     44  N   ALA D   1       6.384   3.160  29.848  1.00 12.52 LIG-0.35  N 
ATOM     45  C   ACE D   0       4.994   3.402  29.250  1.00 13.59 LIG 0.21  C 
ATOM     46 O    ACE D   0       4.356   4.348  29.813  1.00 14.78 LIG-0.27  OA
ATOM     47  CH3 ACE D   0       4.520   2.542  28.111  1.00 14.73 LIG 0.12  C 
ATOM     48 H    ALA D   1       6.896   2.540  29.543  1.00 12.52 LIG 0.16  HD
ENDBRANCH 42 44
ENDBRANCH 40 42
ENDBRANCH 1 38
TORSDOF 19
ENDMDL
MODEL 40
USER: ADFR SOLUTION from run 191
USER: SCORE 15.167963 LL:  -2.959 LR: -13.763 RR:   0.000 FEB:  -8.095
USER: RMSD 5.483861
USER: SEED 190
USER: STATUS no improvement in best in 2 clusters for 5 generations
USER: GENES 21
USER: genes 0 Translation |==|  0.51267 0.42257 0.50822
USER: genes 1 Rotation |==|  0.32735 0.56082 0.11293 0.75820
USER: genes 2 Torsion [N]-CA--C-[N] |==|  0.01683
USER: genes 3 Torsion [C]-N--CA-[C] |==|  0.71233
USER: genes 4 Torsion [N]-CA--C-[N] |==|  0.46270
USER: genes 5 Torsion [C]-N--CA-[CB] |==|  0.26143
USER: genes 6 Torsion [N]-CA--C-[O] |==|  0.69516
USER: genes 7 Torsion [N]-CA--CB-[CG] |==|  0.09911
USER: genes 8 Torsion [CA]-CB--CG-[CD] |==|  0.75451
USER: genes 9 Torsion [CB]-CG--CD-[CE] |==|  0.44129
USER: genes 10 Torsion [CG]-CD--CE-[NZ] |==|  0.69972
USER: genes 11 Torsion [CD]-CE--NZ-[HZ1] |==|  0.88617
USER: genes 12 Torsion [N]-CA--CB-[CG2] |==|  0.73877
USER: genes 13 Torsion [CA]-CB--OG1-[HG1] |==|  0.70669
USER: genes 14 Torsion [C]-CA--CB-[CG] |==|  0.29726
USER: genes 15 Torsion [CA]-CB--CG-[CD] |==|  0.46858
USER: genes 16 Torsion [CB]-CG--CD-[NE] |==|  0.10763
USER: genes 17 Torsion [CG]-CD--NE-[CZ] |==|  0.68614
USER: genes 18 Torsion [C]-CA--N-[C] |==|  0.57778
USER: genes 19 Torsion [N]-C--CA-[N] |==|  0.64607
USER: genes 20 Torsion [C]-CA--N-[C] |==|  0.13500
ROOT
ATOM      1  CA  ARG D   2       5.157   6.198  33.690  1.00  9.56 LIG 0.18  C 
ENDROOT
BRANCH 1 2
ATOM      2  C   ARG D   2       4.631   7.644  33.487  1.00 11.06 LIG 0.24  C 
ATOM      3  N   THR D   3       4.869   8.198  32.302  1.00 11.45 LIG-0.34  N 
ATOM      4 H    THR D   3       5.241   7.799  31.638  1.00 11.45 LIG 0.16  HD
ATOM      5 O    ARG D   2       3.986   8.231  34.371  1.00  9.90 LIG-0.27  OA
BRANCH 3 6
ATOM      6  CA  THR D   3       4.494   9.568  32.066  1.00 13.43 LIG 0.20  C 
BRANCH 6 7
ATOM      7  C   THR D   3       3.232   9.681  31.224  1.00 15.00 LIG 0.24  C 
ATOM      8  N   LYS D   4       2.642  10.893  31.179  1.00 14.79 LIG-0.35  N 
ATOM      9 H    LYS D   4       2.966  11.599  31.549  1.00 14.79 LIG 0.16  HD
ATOM     10 O    THR D   3       2.808   8.663  30.642  1.00 15.79 LIG-0.27  OA
BRANCH 8 11
ATOM     11  CA  LYS D   4       1.347  11.107  30.464  1.00 18.13 LIG 0.16  C 
BRANCH 11 12
ATOM     12  C   LYS D   4       1.230  12.456  29.769  1.00 20.20 LIG 0.22  C 
ATOM     13 O    LYS D   4       0.419  13.277  30.276  1.00 21.26 LIG-0.29  OA
ENDBRANCH 11 12
BRANCH 11 14
ATOM     14  CB  LYS D   4       0.171  10.974  31.465  1.00 18.02 LIG 0.03  C 
BRANCH 14 15
ATOM     15  CG  LYS D   4       0.497  11.511  32.840  1.00 21.48 LIG 0.00  C 
BRANCH 15 16
ATOM     16  CD  LYS D   4       1.124  10.464  33.729  1.00 25.56 LIG 0.03  C 
BRANCH 16 17
ATOM     17  CE  LYS D   4       1.905  11.143  34.877  1.00 25.12 LIG 0.23  C 
BRANCH 17 18
ATOM     18  NZ  LYS D   4       3.410  11.022  34.707  1.00 20.07 LIG-0.08  N 
ATOM     19 HZ1  LYS D   4       3.611  10.205  34.418  1.00 20.07 LIG 0.27  HD
ATOM     20 HZ2  LYS D   4       3.691  11.623  34.114  1.00 20.07 LIG 0.27  HD
ATOM     21 HZ3  LYS D   4       3.810  11.166  35.489  1.00 20.07 LIG 0.27  HD
ENDBRANCH 17 18
ENDBRANCH 16 17
ENDBRANCH 15 16
ENDBRANCH 14 15
ENDBRANCH 11 14
ENDBRANCH 8 11
ENDBRANCH 6 7
BRANCH 6 22
ATOM     22  CB  THR D   3       5.654  10.417  31.429  1.00 14.57 LIG 0.15  C 
ATOM     23  CG2 THR D   3       6.470  11.156  32.531  1.00 14.25 LIG 0.04  C 
BRANCH 22 24
ATOM     24 OG1  THR D   3       6.523   9.565  30.667  1.00 15.86 LIG-0.39  OA
ATOM     25 HG1  THR D   3       7.241   9.448  31.088  1.00 15.86 LIG 0.21  HD
ENDBRANCH 22 24
ENDBRANCH 6 22
ENDBRANCH 3 6
ENDBRANCH 1 2
BRANCH 1 26
ATOM     26  CB  ARG D   2       5.950   6.028  34.999  1.00  9.49 LIG 0.04  C 
BRANCH 26 27
ATOM     27  CG  ARG D   2       5.128   5.215  36.069  1.00 10.73 LIG 0.02  C 
BRANCH 27 28
ATOM     28  CD  ARG D   2       6.078   4.846  37.219  1.00 10.86 LIG 0.14  C 
BRANCH 28 29
ATOM     29  NE  ARG D   2       6.992   5.918  37.517  1.00 10.69 LIG-0.23  N 
ATOM     30  CZ  ARG D   2       8.340   5.883  37.320  1.00  9.43 LIG 0.67  C 
ATOM     31  NH1 ARG D   2       8.968   4.791  36.857  1.00 10.34 LIG-0.23  N 
ATOM     32  NH2 ARG D   2       9.067   6.915  37.688  1.00 11.18 LIG-0.23  N 
ATOM     33 2HH1 ARG D   2       9.820   4.801  36.743  1.00 10.34 LIG 0.17  HD
ATOM     34 1HH1 ARG D   2       8.518   4.081  36.674  1.00 10.34 LIG 0.17  HD
ATOM     35 2HH2 ARG D   2       9.919   6.906  37.570  1.00 11.18 LIG 0.17  HD
ATOM     36 1HH2 ARG D   2       8.691   7.599  38.048  1.00 11.18 LIG 0.17  HD
ATOM     37 HE   ARG D   2       6.661   6.640  37.846  1.00 10.69 LIG 0.18  HD
ENDBRANCH 28 29
ENDBRANCH 27 28
ENDBRANCH 26 27
ENDBRANCH 1 26
BRANCH 1 38
ATOM     38  N   ARG D   2       5.963   5.770  32.534  1.00  9.04 LIG-0.35  N 
ATOM     39 H    ARG D   2       6.356   6.406  32.109  1.00  9.04 LIG 0.16  HD
ATOM     40  C   ALA D   1       6.044   4.468  32.209  1.00 11.17 LIG 0.24  C 
ATOM     41 O    ALA D   1       5.458   3.609  32.866  1.00 13.49 LIG-0.27  OA
BRANCH 40 42
ATOM     42  CA  ALA D   1       6.928   4.066  31.045  1.00 12.65 LIG 0.17  C 
ATOM     43  CB  ALA D   1       7.523   5.297  30.323  1.00 13.08 LIG 0.04  C 
BRANCH 42 44
ATOM     44  N   ALA D   1       6.229   3.242  30.050  1.00 12.52 LIG-0.35  N 
ATOM     45  C   ACE D   0       4.863   3.515  29.411  1.00 13.59 LIG 0.21  C 
ATOM     46 O    ACE D   0       4.311   4.584  29.828  1.00 14.78 LIG-0.27  OA
ATOM     47  CH3 ACE D   0       4.312   2.546  28.401  1.00 14.73 LIG 0.12  C 
ATOM     48 H    ALA D   1       6.683   2.542  29.841  1.00 12.52 LIG 0.16  HD
ENDBRANCH 42 44
ENDBRANCH 40 42
ENDBRANCH 1 38
TORSDOF 19
ENDMDL
MODEL 41
USER: ADFR SOLUTION from run 146
USER: SCORE 16.688153 LL:  -3.607 LR: -13.690 RR:   0.000 FEB:  -8.022
USER: RMSD 4.202777
USER: SEED 145
USER: STATUS no improvement in best in 6 clusters for 5 generations
USER: GENES 21
USER: genes 0 Translation |==|  0.51149 0.49070 0.57314
USER: genes 1 Rotation |==|  0.82752 0.31371 0.59096 0.81584
USER: genes 2 Torsion [N]-CA--C-[N] |==|  0.09742
USER: genes 3 Torsion [C]-N--CA-[C] |==|  0.13542
USER: genes 4 Torsion [N]-CA--C-[N] |==|  0.11329
USER: genes 5 Torsion [C]-N--CA-[CB] |==|  0.33642
USER: genes 6 Torsion [N]-CA--C-[O] |==|  0.94351
USER: genes 7 Torsion [N]-CA--CB-[CG] |==|  0.25187
USER: genes 8 Torsion [CA]-CB--CG-[CD] |==|  0.36055
USER: genes 9 Torsion [CB]-CG--CD-[CE] |==|  0.86351
USER: genes 10 Torsion [CG]-CD--CE-[NZ] |==|  0.51214
USER: genes 11 Torsion [CD]-CE--NZ-[HZ1] |==|  0.39699
USER: genes 12 Torsion [N]-CA--CB-[CG2] |==|  0.86956
USER: genes 13 Torsion [CA]-CB--OG1-[HG1] |==|  0.01358
USER: genes 14 Torsion [C]-CA--CB-[CG] |==|  0.55764
USER: genes 15 Torsion [CA]-CB--CG-[CD] |==|  0.70883
USER: genes 16 Torsion [CB]-CG--CD-[NE] |==|  0.19251
USER: genes 17 Torsion [CG]-CD--NE-[CZ] |==|  0.61076
USER: genes 18 Torsion [C]-CA--N-[C] |==|  0.17222
USER: genes 19 Torsion [N]-C--CA-[N] |==|  0.18683
USER: genes 20 Torsion [C]-CA--N-[C] |==|  0.13162
ROOT
ATOM      1  CA  ARG D   2       5.134   7.271  34.810  1.00  9.56 LIG 0.18  C 
ENDROOT
BRANCH 1 2
ATOM      2  C   ARG D   2       5.023   7.766  33.343  1.00 11.06 LIG 0.24  C 
ATOM      3  N   THR D   3       4.568   9.003  33.170  1.00 11.45 LIG-0.34  N 
ATOM      4 H    THR D   3       4.384   9.553  33.805  1.00 11.45 LIG 0.16  HD
ATOM      5 O    ARG D   2       5.382   7.057  32.388  1.00  9.90 LIG-0.27  OA
BRANCH 3 6
ATOM      6  CA  THR D   3       4.350   9.505  31.838  1.00 13.43 LIG 0.20  C 
BRANCH 6 7
ATOM      7  C   THR D   3       3.554   8.531  30.981  1.00 15.00 LIG 0.24  C 
ATOM      8  N   LYS D   4       2.522   7.903  31.581  1.00 14.79 LIG-0.35  N 
ATOM      9 H    LYS D   4       2.266   8.062  32.387  1.00 14.79 LIG 0.16  HD
ATOM     10 O    THR D   3       3.899   8.357  29.796  1.00 15.79 LIG-0.27  OA
BRANCH 8 11
ATOM     11  CA  LYS D   4       1.726   6.856  30.873  1.00 18.13 LIG 0.16  C 
BRANCH 11 12
ATOM     12  C   LYS D   4       0.258   7.211  30.674  1.00 20.20 LIG 0.22  C 
ATOM     13 O    LYS D   4      -0.208   8.102  31.435  1.00 21.26 LIG-0.29  OA
ENDBRANCH 11 12
BRANCH 11 14
ATOM     14  CB  LYS D   4       1.799   5.523  31.661  1.00 18.02 LIG 0.03  C 
BRANCH 14 15
ATOM     15  CG  LYS D   4       0.690   5.372  32.677  1.00 21.48 LIG 0.00  C 
BRANCH 15 16
ATOM     16  CD  LYS D   4      -0.019   4.044  32.557  1.00 25.56 LIG 0.03  C 
BRANCH 16 17
ATOM     17  CE  LYS D   4      -0.407   3.783  31.084  1.00 25.12 LIG 0.23  C 
BRANCH 17 18
ATOM     18  NZ  LYS D   4      -1.218   2.509  30.914  1.00 20.07 LIG-0.08  N 
ATOM     19 HZ1  LYS D   4      -1.838   2.632  30.288  1.00 20.07 LIG 0.27  HD
ATOM     20 HZ2  LYS D   4      -0.679   1.845  30.671  1.00 20.07 LIG 0.27  HD
ATOM     21 HZ3  LYS D   4      -1.613   2.304  31.685  1.00 20.07 LIG 0.27  HD
ENDBRANCH 17 18
ENDBRANCH 16 17
ENDBRANCH 15 16
ENDBRANCH 14 15
ENDBRANCH 11 14
ENDBRANCH 8 11
ENDBRANCH 6 7
BRANCH 6 22
ATOM     22  CB  THR D   3       5.685   9.906  31.111  1.00 14.57 LIG 0.15  C 
ATOM     23  CG2 THR D   3       6.587  10.767  32.045  1.00 14.25 LIG 0.04  C 
BRANCH 22 24
ATOM     24 OG1  THR D   3       6.394   8.727  30.700  1.00 15.86 LIG-0.39  OA
ATOM     25 HG1  THR D   3       5.928   8.047  30.867  1.00 15.86 LIG 0.21  HD
ENDBRANCH 22 24
ENDBRANCH 6 22
ENDBRANCH 3 6
ENDBRANCH 1 2
BRANCH 1 26
ATOM     26  CB  ARG D   2       5.179   5.736  34.920  1.00  9.49 LIG 0.04  C 
BRANCH 26 27
ATOM     27  CG  ARG D   2       4.767   5.250  36.361  1.00 10.73 LIG 0.02  C 
BRANCH 27 28
ATOM     28  CD  ARG D   2       6.043   4.817  37.100  1.00 10.86 LIG 0.14  C 
BRANCH 28 29
ATOM     29  NE  ARG D   2       6.886   5.943  37.408  1.00 10.69 LIG-0.23  N 
ATOM     30  CZ  ARG D   2       8.246   5.958  37.322  1.00  9.43 LIG 0.67  C 
ATOM     31  NH1 ARG D   2       8.953   4.872  36.974  1.00 10.34 LIG-0.23  N 
ATOM     32  NH2 ARG D   2       8.897   7.040  37.688  1.00 11.18 LIG-0.23  N 
ATOM     33 2HH1 ARG D   2       9.811   4.914  36.928  1.00 10.34 LIG 0.17  HD
ATOM     34 1HH1 ARG D   2       8.549   4.134  36.796  1.00 10.34 LIG 0.17  HD
ATOM     35 2HH2 ARG D   2       9.756   7.063  37.639  1.00 11.18 LIG 0.17  HD
ATOM     36 1HH2 ARG D   2       8.466   7.725  37.978  1.00 11.18 LIG 0.17  HD
ATOM     37 HE   ARG D   2       6.500   6.666  37.669  1.00 10.69 LIG 0.18  HD
ENDBRANCH 28 29
ENDBRANCH 27 28
ENDBRANCH 26 27
ENDBRANCH 1 26
BRANCH 1 38
ATOM     38  N   ARG D   2       4.041   7.820  35.628  1.00  9.04 LIG-0.35  N 
ATOM     39 H    ARG D   2       4.290   8.325  36.278  1.00  9.04 LIG 0.16  HD
ATOM     40  C   ALA D   1       2.762   7.522  35.338  1.00 11.17 LIG 0.24  C 
ATOM     41 O    ALA D   1       2.476   6.795  34.388  1.00 13.49 LIG-0.27  OA
BRANCH 40 42
ATOM     42  CA  ALA D   1       1.664   8.152  36.173  1.00 12.65 LIG 0.17  C 
ATOM     43  CB  ALA D   1       0.283   7.526  35.873  1.00 13.08 LIG 0.04  C 
BRANCH 42 44
ATOM     44  N   ALA D   1       1.562   9.605  35.987  1.00 12.52 LIG-0.35  N 
ATOM     45  C   ACE D   0       1.540  10.373  34.661  1.00 13.59 LIG 0.21  C 
ATOM     46 O    ACE D   0       1.630   9.622  33.637  1.00 14.78 LIG-0.27  OA
ATOM     47  CH3 ACE D   0       1.425  11.873  34.676  1.00 14.73 LIG 0.12  C 
ATOM     48 H    ALA D   1       1.512  10.020  36.739  1.00 12.52 LIG 0.16  HD
ENDBRANCH 42 44
ENDBRANCH 40 42
ENDBRANCH 1 38
TORSDOF 19
ENDMDL
MODEL 42
USER: ADFR SOLUTION from run 12
USER: SCORE 14.842958 LL:  -2.444 LR: -13.656 RR:   0.000 FEB:  -7.988
USER: RMSD 4.791701
USER: SEED 630381
USER: STATUS no improvement in best in 3 clusters for 5 generations
USER: GENES 21
USER: genes 0 Translation |==|  0.52436 0.35408 0.51843
USER: genes 1 Rotation |==|  0.70733 0.47019 0.85554 0.78234
USER: genes 2 Torsion [N]-CA--C-[N] |==|  0.22900
USER: genes 3 Torsion [C]-N--CA-[C] |==|  0.57484
USER: genes 4 Torsion [N]-CA--C-[N] |==|  0.80341
USER: genes 5 Torsion [C]-N--CA-[CB] |==|  0.76517
USER: genes 6 Torsion [N]-CA--C-[O] |==|  0.33365
USER: genes 7 Torsion [N]-CA--CB-[CG] |==|  0.85157
USER: genes 8 Torsion [CA]-CB--CG-[CD] |==|  0.32315
USER: genes 9 Torsion [CB]-CG--CD-[CE] |==|  0.51051
USER: genes 10 Torsion [CG]-CD--CE-[NZ] |==|  0.72544
USER: genes 11 Torsion [CD]-CE--NZ-[HZ1] |==|  0.25427
USER: genes 12 Torsion [N]-CA--CB-[CG2] |==|  0.45035
USER: genes 13 Torsion [CA]-CB--OG1-[HG1] |==|  0.85500
USER: genes 14 Torsion [C]-CA--CB-[CG] |==|  0.52256
USER: genes 15 Torsion [CA]-CB--CG-[CD] |==|  0.51773
USER: genes 16 Torsion [CB]-CG--CD-[NE] |==|  0.21239
USER: genes 17 Torsion [CG]-CD--NE-[CZ] |==|  0.71434
USER: genes 18 Torsion [C]-CA--N-[C] |==|  0.77071
USER: genes 19 Torsion [N]-C--CA-[N] |==|  0.31667
USER: genes 20 Torsion [C]-CA--N-[C] |==|  0.84268
ROOT
ATOM      1  CA  ARG D   2       5.385   5.119  33.866  1.00  9.56 LIG 0.18  C 
ENDROOT
BRANCH 1 2
ATOM      2  C   ARG D   2       6.042   4.642  32.543  1.00 11.06 LIG 0.24  C 
ATOM      3  N   THR D   3       5.773   5.362  31.458  1.00 11.45 LIG-0.34  N 
ATOM      4 H    THR D   3       5.312   6.087  31.449  1.00 11.45 LIG 0.16  HD
ATOM      5 O    ARG D   2       6.810   3.667  32.513  1.00  9.90 LIG-0.27  OA
BRANCH 3 6
ATOM      6  CA  THR D   3       6.270   4.933  30.176  1.00 13.43 LIG 0.20  C 
BRANCH 6 7
ATOM      7  C   THR D   3       6.461   6.098  29.216  1.00 15.00 LIG 0.24  C 
ATOM      8  N   LYS D   4       5.341   6.682  28.744  1.00 14.79 LIG-0.35  N 
ATOM      9 H    LYS D   4       4.546   6.469  28.994  1.00 14.79 LIG 0.16  HD
ATOM     10 O    THR D   3       7.621   6.437  28.909  1.00 15.79 LIG-0.27  OA
BRANCH 8 11
ATOM     11  CA  LYS D   4       5.397   7.772  27.723  1.00 18.13 LIG 0.16  C 
BRANCH 11 12
ATOM     12  C   LYS D   4       6.485   7.592  26.672  1.00 20.20 LIG 0.22  C 
ATOM     13 O    LYS D   4       6.097   7.514  25.475  1.00 21.26 LIG-0.29  OA
ENDBRANCH 11 12
BRANCH 11 14
ATOM     14  CB  LYS D   4       5.624   9.135  28.426  1.00 18.02 LIG 0.03  C 
BRANCH 14 15
ATOM     15  CG  LYS D   4       4.617   9.414  29.519  1.00 21.48 LIG 0.00  C 
BRANCH 15 16
ATOM     16  CD  LYS D   4       5.262   9.508  30.880  1.00 25.56 LIG 0.03  C 
BRANCH 16 17
ATOM     17  CE  LYS D   4       4.179   9.699  31.967  1.00 25.12 LIG 0.23  C 
BRANCH 17 18
ATOM     18  NZ  LYS D   4       4.028  11.153  32.384  1.00 20.07 LIG-0.08  N 
ATOM     19 HZ1  LYS D   4       3.403  11.542  31.884  1.00 20.07 LIG 0.27  HD
ATOM     20 HZ2  LYS D   4       3.789  11.192  33.240  1.00 20.07 LIG 0.27  HD
ATOM     21 HZ3  LYS D   4       4.803  11.576  32.273  1.00 20.07 LIG 0.27  HD
ENDBRANCH 17 18
ENDBRANCH 16 17
ENDBRANCH 15 16
ENDBRANCH 14 15
ENDBRANCH 11 14
ENDBRANCH 8 11
ENDBRANCH 6 7
BRANCH 6 22
ATOM     22  CB  THR D   3       5.376   3.822  29.515  1.00 14.57 LIG 0.15  C 
ATOM     23  CG2 THR D   3       5.666   3.711  27.989  1.00 14.25 LIG 0.04  C 
BRANCH 22 24
ATOM     24 OG1  THR D   3       5.617   2.557  30.151  1.00 15.86 LIG-0.39  OA
ATOM     25 HG1  THR D   3       6.442   2.399  30.157  1.00 15.86 LIG 0.21  HD
ENDBRANCH 22 24
ENDBRANCH 6 22
ENDBRANCH 3 6
ENDBRANCH 1 2
BRANCH 1 26
ATOM     26  CB  ARG D   2       6.196   4.720  35.112  1.00  9.49 LIG 0.04  C 
BRANCH 26 27
ATOM     27  CG  ARG D   2       5.406   5.036  36.438  1.00 10.73 LIG 0.02  C 
BRANCH 27 28
ATOM     28  CD  ARG D   2       6.341   4.761  37.627  1.00 10.86 LIG 0.14  C 
BRANCH 28 29
ATOM     29  NE  ARG D   2       7.309   5.815  37.795  1.00 10.69 LIG-0.23  N 
ATOM     30  CZ  ARG D   2       8.618   5.750  37.422  1.00  9.43 LIG 0.67  C 
ATOM     31  NH1 ARG D   2       9.156   4.644  36.888  1.00 10.34 LIG-0.23  N 
ATOM     32  NH2 ARG D   2       9.408   6.769  37.685  1.00 11.18 LIG-0.23  N 
ATOM     33 2HH1 ARG D   2       9.986   4.635  36.663  1.00 10.34 LIG 0.17  HD
ATOM     34 1HH1 ARG D   2       8.672   3.943  36.770  1.00 10.34 LIG 0.17  HD
ATOM     35 2HH2 ARG D   2      10.236   6.741  37.455  1.00 11.18 LIG 0.17  HD
ATOM     36 1HH2 ARG D   2       9.097   7.462  38.087  1.00 11.18 LIG 0.17  HD
ATOM     37 HE   ARG D   2       7.039   6.545  38.160  1.00 10.69 LIG 0.18  HD
ENDBRANCH 28 29
ENDBRANCH 27 28
ENDBRANCH 26 27
ENDBRANCH 1 26
BRANCH 1 38
ATOM     38  N   ARG D   2       4.001   4.627  33.966  1.00  9.04 LIG-0.35  N 
ATOM     39 H    ARG D   2       3.901   3.914  34.436  1.00  9.04 LIG 0.16  HD
ATOM     40  C   ALA D   1       3.003   5.283  33.350  1.00 11.17 LIG 0.24  C 
ATOM     41 O    ALA D   1       3.217   6.304  32.697  1.00 13.49 LIG-0.27  OA
BRANCH 40 42
ATOM     42  CA  ALA D   1       1.585   4.774  33.523  1.00 12.65 LIG 0.17  C 
ATOM     43  CB  ALA D   1       0.915   4.465  32.165  1.00 13.08 LIG 0.04  C 
BRANCH 42 44
ATOM     44  N   ALA D   1       0.724   5.709  34.260  1.00 12.52 LIG-0.35  N 
ATOM     45  C   ACE D   0       0.961   6.282  35.661  1.00 13.59 LIG 0.21  C 
ATOM     46 O    ACE D   0       2.032   5.865  36.208  1.00 14.78 LIG-0.27  OA
ATOM     47  CH3 ACE D   0      -0.043   7.237  36.249  1.00 14.73 LIG 0.12  C 
ATOM     48 H    ALA D   1       0.026   5.923  33.806  1.00 12.52 LIG 0.16  HD
ENDBRANCH 42 44
ENDBRANCH 40 42
ENDBRANCH 1 38
TORSDOF 19
ENDMDL
MODEL 43
USER: ADFR SOLUTION from run 91
USER: SCORE 16.550130 LL:  -3.056 LR: -13.656 RR:   0.000 FEB:  -7.988
USER: RMSD 7.649078
USER: SEED 90
USER: STATUS no improvement in best in 2 clusters for 5 generations
USER: GENES 21
USER: genes 0 Translation |==|  0.32103 0.45041 0.51748
USER: genes 1 Rotation |==|  0.47063 0.03013 0.54259 0.66293
USER: genes 2 Torsion [N]-CA--C-[N] |==|  0.95801
USER: genes 3 Torsion [C]-N--CA-[C] |==|  0.77575
USER: genes 4 Torsion [N]-CA--C-[N] |==|  0.94464
USER: genes 5 Torsion [C]-N--CA-[CB] |==|  0.47635
USER: genes 6 Torsion [N]-CA--C-[O] |==|  0.62411
USER: genes 7 Torsion [N]-CA--CB-[CG] |==|  0.63335
USER: genes 8 Torsion [CA]-CB--CG-[CD] |==|  0.77997
USER: genes 9 Torsion [CB]-CG--CD-[CE] |==|  0.48639
USER: genes 10 Torsion [CG]-CD--CE-[NZ] |==|  0.68810
USER: genes 11 Torsion [CD]-CE--NZ-[HZ1] |==|  0.80642
USER: genes 12 Torsion [N]-CA--CB-[CG2] |==|  0.50422
USER: genes 13 Torsion [CA]-CB--OG1-[HG1] |==|  0.68113
USER: genes 14 Torsion [C]-CA--CB-[CG] |==|  0.84767
USER: genes 15 Torsion [CA]-CB--CG-[CD] |==|  0.44380
USER: genes 16 Torsion [CB]-CG--CD-[NE] |==|  0.84975
USER: genes 17 Torsion [CG]-CD--NE-[CZ] |==|  0.71562
USER: genes 18 Torsion [C]-CA--N-[C] |==|  0.74470
USER: genes 19 Torsion [N]-C--CA-[N] |==|  0.90952
USER: genes 20 Torsion [C]-CA--N-[C] |==|  0.84442
ROOT
ATOM      1  CA  ARG D   2       1.420   6.636  33.849  1.00  9.56 LIG 0.18  C 
ENDROOT
BRANCH 1 2
ATOM      2  C   ARG D   2       2.497   5.582  33.475  1.00 11.06 LIG 0.24  C 
ATOM      3  N   THR D   3       3.557   6.032  32.810  1.00 11.45 LIG-0.34  N 
ATOM      4 H    THR D   3       3.707   6.857  32.624  1.00 11.45 LIG 0.16  HD
ATOM      5 O    ARG D   2       2.390   4.394  33.818  1.00  9.90 LIG-0.27  OA
BRANCH 3 6
ATOM      6  CA  THR D   3       4.556   5.103  32.347  1.00 13.43 LIG 0.20  C 
BRANCH 6 7
ATOM      7  C   THR D   3       5.525   4.706  33.451  1.00 15.00 LIG 0.24  C 
ATOM      8  N   LYS D   4       5.600   5.531  34.515  1.00 14.79 LIG-0.35  N 
ATOM      9 H    LYS D   4       5.100   6.223  34.623  1.00 14.79 LIG 0.16  HD
ATOM     10 O    THR D   3       6.199   3.667  33.309  1.00 15.79 LIG-0.27  OA
BRANCH 8 11
ATOM     11  CA  LYS D   4       6.583   5.300  35.617  1.00 18.13 LIG 0.16  C 
BRANCH 11 12
ATOM     12  C   LYS D   4       6.322   4.042  36.436  1.00 20.20 LIG 0.22  C 
ATOM     13 O    LYS D   4       6.410   4.162  37.688  1.00 21.26 LIG-0.29  OA
ENDBRANCH 11 12
BRANCH 11 14
ATOM     14  CB  LYS D   4       6.582   6.514  36.581  1.00 18.02 LIG 0.03  C 
BRANCH 14 15
ATOM     15  CG  LYS D   4       7.970   7.015  36.907  1.00 21.48 LIG 0.00  C 
BRANCH 15 16
ATOM     16  CD  LYS D   4       8.653   6.166  37.952  1.00 25.56 LIG 0.03  C 
BRANCH 16 17
ATOM     17  CE  LYS D   4      10.108   6.648  38.156  1.00 25.12 LIG 0.23  C 
BRANCH 17 18
ATOM     18  NZ  LYS D   4      11.129   5.631  37.673  1.00 20.07 LIG-0.08  N 
ATOM     19 HZ1  LYS D   4      11.122   4.923  38.212  1.00 20.07 LIG 0.27  HD
ATOM     20 HZ2  LYS D   4      10.924   5.375  36.846  1.00 20.07 LIG 0.27  HD
ATOM     21 HZ3  LYS D   4      11.940   5.999  37.678  1.00 20.07 LIG 0.27  HD
ENDBRANCH 17 18
ENDBRANCH 16 17
ENDBRANCH 15 16
ENDBRANCH 14 15
ENDBRANCH 11 14
ENDBRANCH 8 11
ENDBRANCH 6 7
BRANCH 6 22
ATOM     22  CB  THR D   3       5.342   5.630  31.092  1.00 14.57 LIG 0.15  C 
ATOM     23  CG2 THR D   3       6.382   4.577  30.607  1.00 14.25 LIG 0.04  C 
BRANCH 22 24
ATOM     24 OG1  THR D   3       4.424   5.933  30.030  1.00 15.86 LIG-0.39  OA
ATOM     25 HG1  THR D   3       4.558   5.411  29.385  1.00 15.86 LIG 0.21  HD
ENDBRANCH 22 24
ENDBRANCH 6 22
ENDBRANCH 3 6
ENDBRANCH 1 2
BRANCH 1 26
ATOM     26  CB  ARG D   2       0.118   6.472  33.044  1.00  9.49 LIG 0.04  C 
BRANCH 26 27
ATOM     27  CG  ARG D   2       0.395   6.488  31.493  1.00 10.73 LIG 0.02  C 
BRANCH 27 28
ATOM     28  CD  ARG D   2      -0.802   5.829  30.789  1.00 10.86 LIG 0.14  C 
BRANCH 28 29
ATOM     29  NE  ARG D   2      -1.073   4.517  31.319  1.00 10.69 LIG-0.23  N 
ATOM     30  CZ  ARG D   2      -0.732   3.340  30.723  1.00  9.43 LIG 0.67  C 
ATOM     31  NH1 ARG D   2      -0.132   3.292  29.524  1.00 10.34 LIG-0.23  N 
ATOM     32  NH2 ARG D   2      -1.090   2.209  31.292  1.00 11.18 LIG-0.23  N 
ATOM     33 2HH1 ARG D   2       0.071   2.533  29.175  1.00 10.34 LIG 0.17  HD
ATOM     34 1HH1 ARG D   2       0.050   4.020  29.104  1.00 10.34 LIG 0.17  HD
ATOM     35 2HH2 ARG D   2      -0.881   1.459  30.926  1.00 11.18 LIG 0.17  HD
ATOM     36 1HH2 ARG D   2      -1.533   2.220  32.028  1.00 11.18 LIG 0.17  HD
ATOM     37 HE   ARG D   2      -1.483   4.473  32.073  1.00 10.69 LIG 0.18  HD
ENDBRANCH 28 29
ENDBRANCH 27 28
ENDBRANCH 26 27
ENDBRANCH 1 26
BRANCH 1 38
ATOM     38  N   ARG D   2       1.955   8.000  33.703  1.00  9.04 LIG-0.35  N 
ATOM     39 H    ARG D   2       1.868   8.344  32.920  1.00  9.04 LIG 0.16  HD
ATOM     40  C   ALA D   1       2.528   8.619  34.750  1.00 11.17 LIG 0.24  C 
ATOM     41 O    ALA D   1       2.614   8.069  35.847  1.00 13.49 LIG-0.27  OA
BRANCH 40 42
ATOM     42  CA  ALA D   1       3.016  10.043  34.572  1.00 12.65 LIG 0.17  C 
ATOM     43  CB  ALA D   1       1.918  11.075  34.915  1.00 13.08 LIG 0.04  C 
BRANCH 42 44
ATOM     44  N   ALA D   1       3.500  10.319  33.212  1.00 12.52 LIG-0.35  N 
ATOM     45  C   ACE D   0       4.592   9.567  32.445  1.00 13.59 LIG 0.21  C 
ATOM     46 O    ACE D   0       5.112   8.611  33.105  1.00 14.78 LIG-0.27  OA
ATOM     47  CH3 ACE D   0       4.947  10.001  31.048  1.00 14.73 LIG 0.12  C 
ATOM     48 H    ALA D   1       3.088  10.986  32.858  1.00 12.52 LIG 0.16  HD
ENDBRANCH 42 44
ENDBRANCH 40 42
ENDBRANCH 1 38
TORSDOF 19
ENDMDL
MODEL 44
USER: ADFR SOLUTION from run 144
USER: SCORE 15.456030 LL:  -2.738 LR: -13.629 RR:   0.000 FEB:  -7.962
USER: RMSD 5.646540
USER: SEED 143
USER: STATUS no improvement in best in 5 clusters for 5 generations
USER: GENES 21
USER: genes 0 Translation |==|  0.48444 0.32043 0.49554
USER: genes 1 Rotation |==|  0.23566 0.50172 0.39683 0.91167
USER: genes 2 Torsion [N]-CA--C-[N] |==|  0.82269
USER: genes 3 Torsion [C]-N--CA-[C] |==|  0.58283
USER: genes 4 Torsion [N]-CA--C-[N] |==|  0.44949
USER: genes 5 Torsion [C]-N--CA-[CB] |==|  0.16620
USER: genes 6 Torsion [N]-CA--C-[O] |==|  0.17675
USER: genes 7 Torsion [N]-CA--CB-[CG] |==|  0.17422
USER: genes 8 Torsion [CA]-CB--CG-[CD] |==|  0.67566
USER: genes 9 Torsion [CB]-CG--CD-[CE] |==|  0.31786
USER: genes 10 Torsion [CG]-CD--CE-[NZ] |==|  0.21893
USER: genes 11 Torsion [CD]-CE--NZ-[HZ1] |==|  0.46720
USER: genes 12 Torsion [N]-CA--CB-[CG2] |==|  0.87769
USER: genes 13 Torsion [CA]-CB--OG1-[HG1] |==|  0.20805
USER: genes 14 Torsion [C]-CA--CB-[CG] |==|  0.87238
USER: genes 15 Torsion [CA]-CB--CG-[CD] |==|  0.78580
USER: genes 16 Torsion [CB]-CG--CD-[NE] |==|  0.43605
USER: genes 17 Torsion [CG]-CD--NE-[CZ] |==|  0.31717
USER: genes 18 Torsion [C]-CA--N-[C] |==|  0.62456
USER: genes 19 Torsion [N]-C--CA-[N] |==|  0.35054
USER: genes 20 Torsion [C]-CA--N-[C] |==|  0.77186
ROOT
ATOM      1  CA  ARG D   2       4.607   4.589  33.471  1.00  9.56 LIG 0.18  C 
ENDROOT
BRANCH 1 2
ATOM      2  C   ARG D   2       3.113   4.476  33.879  1.00 11.06 LIG 0.24  C 
ATOM      3  N   THR D   3       2.374   5.570  33.720  1.00 11.45 LIG-0.34  N 
ATOM      4 H    THR D   3       2.649   6.303  33.365  1.00 11.45 LIG 0.16  HD
ATOM      5 O    ARG D   2       2.630   3.409  34.290  1.00  9.90 LIG-0.27  OA
BRANCH 3 6
ATOM      6  CA  THR D   3       1.002   5.575  34.159  1.00 13.43 LIG 0.20  C 
BRANCH 6 7
ATOM      7  C   THR D   3       0.135   6.503  33.322  1.00 15.00 LIG 0.24  C 
ATOM      8  N   LYS D   4      -1.198   6.307  33.388  1.00 14.79 LIG-0.35  N 
ATOM      9 H    LYS D   4      -1.575   5.735  33.908  1.00 14.79 LIG 0.16  HD
ATOM     10 O    THR D   3       0.691   7.370  32.619  1.00 15.79 LIG-0.27  OA
BRANCH 8 11
ATOM     11  CA  LYS D   4      -2.147   7.092  32.541  1.00 18.13 LIG 0.16  C 
BRANCH 11 12
ATOM     12  C   LYS D   4      -3.615   6.763  32.775  1.00 20.20 LIG 0.22  C 
ATOM     13 O    LYS D   4      -4.069   7.021  33.923  1.00 21.26 LIG-0.29  OA
ENDBRANCH 11 12
BRANCH 11 14
ATOM     14  CB  LYS D   4      -1.830   6.850  31.043  1.00 18.02 LIG 0.03  C 
BRANCH 14 15
ATOM     15  CG  LYS D   4      -2.013   5.410  30.621  1.00 21.48 LIG 0.00  C 
BRANCH 15 16
ATOM     16  CD  LYS D   4      -0.720   4.779  30.166  1.00 25.56 LIG 0.03  C 
BRANCH 16 17
ATOM     17  CE  LYS D   4      -0.312   3.648  31.138  1.00 25.12 LIG 0.23  C 
BRANCH 17 18
ATOM     18  NZ  LYS D   4      -1.090   2.365  30.896  1.00 20.07 LIG-0.08  N 
ATOM     19 HZ1  LYS D   4      -0.714   1.699  31.350  1.00 20.07 LIG 0.27  HD
ATOM     20 HZ2  LYS D   4      -1.930   2.472  31.168  1.00 20.07 LIG 0.27  HD
ATOM     21 HZ3  LYS D   4      -1.082   2.173  30.027  1.00 20.07 LIG 0.27  HD
ENDBRANCH 17 18
ENDBRANCH 16 17
ENDBRANCH 15 16
ENDBRANCH 14 15
ENDBRANCH 11 14
ENDBRANCH 8 11
ENDBRANCH 6 7
BRANCH 6 22
ATOM     22  CB  THR D   3       0.852   5.916  35.686  1.00 14.57 LIG 0.15  C 
ATOM     23  CG2 THR D   3       1.907   5.144  36.533  1.00 14.25 LIG 0.04  C 
BRANCH 22 24
ATOM     24 OG1  THR D   3       1.002   7.330  35.890  1.00 15.86 LIG-0.39  OA
ATOM     25 HG1  THR D   3       0.308   7.725  35.632  1.00 15.86 LIG 0.21  HD
ENDBRANCH 22 24
ENDBRANCH 6 22
ENDBRANCH 3 6
ENDBRANCH 1 2
BRANCH 1 26
ATOM     26  CB  ARG D   2       5.369   5.653  34.282  1.00  9.49 LIG 0.04  C 
BRANCH 26 27
ATOM     27  CG  ARG D   2       4.550   6.995  34.382  1.00 10.73 LIG 0.02  C 
BRANCH 27 28
ATOM     28  CD  ARG D   2       4.682   7.735  33.041  1.00 10.86 LIG 0.14  C 
BRANCH 28 29
ATOM     29  NE  ARG D   2       3.594   8.655  32.833  1.00 10.69 LIG-0.23  N 
ATOM     30  CZ  ARG D   2       3.707  10.011  32.774  1.00  9.43 LIG 0.67  C 
ATOM     31  NH1 ARG D   2       4.879  10.640  32.957  1.00 10.34 LIG-0.23  N 
ATOM     32  NH2 ARG D   2       2.620  10.738  32.633  1.00 11.18 LIG-0.23  N 
ATOM     33 2HH1 ARG D   2       4.917  11.498  32.913  1.00 10.34 LIG 0.17  HD
ATOM     34 1HH1 ARG D   2       5.591  10.185  33.118  1.00 10.34 LIG 0.17  HD
ATOM     35 2HH2 ARG D   2       2.678  11.596  32.595  1.00 11.18 LIG 0.17  HD
ATOM     36 1HH2 ARG D   2       1.852  10.357  32.581  1.00 11.18 LIG 0.17  HD
ATOM     37 HE   ARG D   2       2.807   8.321  32.738  1.00 10.69 LIG 0.18  HD
ENDBRANCH 28 29
ENDBRANCH 27 28
ENDBRANCH 26 27
ENDBRANCH 1 26
BRANCH 1 38
ATOM     38  N   ARG D   2       4.733   4.845  32.027  1.00  9.04 LIG-0.35  N 
ATOM     39 H    ARG D   2       4.200   5.443  31.714  1.00  9.04 LIG 0.16  HD
ATOM     40  C   ALA D   1       5.634   4.166  31.295  1.00 11.17 LIG 0.24  C 
ATOM     41 O    ALA D   1       6.371   3.326  31.809  1.00 13.49 LIG-0.27  OA
BRANCH 40 42
ATOM     42  CA  ALA D   1       5.769   4.499  29.822  1.00 12.65 LIG 0.17  C 
ATOM     43  CB  ALA D   1       5.263   3.347  28.924  1.00 13.08 LIG 0.04  C 
BRANCH 42 44
ATOM     44  N   ALA D   1       7.147   4.819  29.429  1.00 12.52 LIG-0.35  N 
ATOM     45  C   ACE D   0       7.869   6.161  29.582  1.00 13.59 LIG 0.21  C 
ATOM     46 O    ACE D   0       7.148   7.070  30.106  1.00 14.78 LIG-0.27  OA
ATOM     47  CH3 ACE D   0       9.294   6.292  29.118  1.00 14.73 LIG 0.12  C 
ATOM     48 H    ALA D   1       7.544   4.140  29.080  1.00 12.52 LIG 0.16  HD
ENDBRANCH 42 44
ENDBRANCH 40 42
ENDBRANCH 1 38
TORSDOF 19
ENDMDL
MODEL 45
USER: ADFR SOLUTION from run 24
USER: SCORE 15.668907 LL:  -2.822 LR: -13.622 RR:   0.000 FEB:  -7.954
USER: RMSD 4.101944
USER: SEED 23
USER: STATUS no improvement in best in 4 clusters for 5 generations
USER: GENES 21
USER: genes 0 Translation |==|  0.48764 0.49876 0.58570
USER: genes 1 Rotation |==|  0.72386 0.38407 0.71440 0.87480
USER: genes 2 Torsion [N]-CA--C-[N] |==|  0.68752
USER: genes 3 Torsion [C]-N--CA-[C] |==|  0.75136
USER: genes 4 Torsion [N]-CA--C-[N] |==|  0.46666
USER: genes 5 Torsion [C]-N--CA-[CB] |==|  0.21097
USER: genes 6 Torsion [N]-CA--C-[O] |==|  0.12145
USER: genes 7 Torsion [N]-CA--CB-[CG] |==|  0.69819
USER: genes 8 Torsion [CA]-CB--CG-[CD] |==|  0.97617
USER: genes 9 Torsion [CB]-CG--CD-[CE] |==|  0.70156
USER: genes 10 Torsion [CG]-CD--CE-[NZ] |==|  0.50278
USER: genes 11 Torsion [CD]-CE--NZ-[HZ1] |==|  0.15496
USER: genes 12 Torsion [N]-CA--CB-[CG2] |==|  0.62409
USER: genes 13 Torsion [CA]-CB--OG1-[HG1] |==|  0.09333
USER: genes 14 Torsion [C]-CA--CB-[CG] |==|  0.25694
USER: genes 15 Torsion [CA]-CB--CG-[CD] |==|  0.54814
USER: genes 16 Torsion [CB]-CG--CD-[NE] |==|  0.42611
USER: genes 17 Torsion [CG]-CD--NE-[CZ] |==|  0.15640
USER: genes 18 Torsion [C]-CA--N-[C] |==|  0.16938
USER: genes 19 Torsion [N]-C--CA-[N] |==|  0.42765
USER: genes 20 Torsion [C]-CA--N-[C] |==|  0.82131
ROOT
ATOM      1  CA  ARG D   2       4.669   7.398  35.026  1.00  9.56 LIG 0.18  C 
ENDROOT
BRANCH 1 2
ATOM      2  C   ARG D   2       4.772   6.869  33.570  1.00 11.06 LIG 0.24  C 
ATOM      3  N   THR D   3       4.915   5.555  33.428  1.00 11.45 LIG-0.34  N 
ATOM      4 H    THR D   3       4.902   4.985  34.072  1.00 11.45 LIG 0.16  HD
ATOM      5 O    ARG D   2       4.682   7.631  32.594  1.00  9.90 LIG-0.27  OA
BRANCH 3 6
ATOM      6  CA  THR D   3       5.109   4.995  32.116  1.00 13.43 LIG 0.20  C 
BRANCH 6 7
ATOM      7  C   THR D   3       3.790   4.648  31.439  1.00 15.00 LIG 0.24  C 
ATOM      8  N   LYS D   4       3.846   4.355  30.124  1.00 14.79 LIG-0.35  N 
ATOM      9 H    LYS D   4       4.576   4.303  29.673  1.00 14.79 LIG 0.16  HD
ATOM     10 O    THR D   3       2.746   4.667  32.120  1.00 15.79 LIG-0.27  OA
BRANCH 8 11
ATOM     11  CA  LYS D   4       2.608   4.091  29.329  1.00 18.13 LIG 0.16  C 
BRANCH 11 12
ATOM     12  C   LYS D   4       2.852   3.377  28.006  1.00 20.20 LIG 0.22  C 
ATOM     13 O    LYS D   4       3.661   2.410  28.035  1.00 21.26 LIG-0.29  OA
ENDBRANCH 11 12
BRANCH 11 14
ATOM     14  CB  LYS D   4       1.885   5.429  29.030  1.00 18.02 LIG 0.03  C 
BRANCH 14 15
ATOM     15  CG  LYS D   4       0.601   5.598  29.810  1.00 21.48 LIG 0.00  C 
BRANCH 15 16
ATOM     16  CD  LYS D   4       0.209   4.339  30.545  1.00 25.56 LIG 0.03  C 
BRANCH 16 17
ATOM     17  CE  LYS D   4      -1.008   3.681  29.854  1.00 25.12 LIG 0.23  C 
BRANCH 17 18
ATOM     18  NZ  LYS D   4      -1.465   2.417  30.565  1.00 20.07 LIG-0.08  N 
ATOM     19 HZ1  LYS D   4      -1.640   2.603  31.418  1.00 20.07 LIG 0.27  HD
ATOM     20 HZ2  LYS D   4      -2.200   2.106  30.173  1.00 20.07 LIG 0.27  HD
ATOM     21 HZ3  LYS D   4      -0.822   1.803  30.522  1.00 20.07 LIG 0.27  HD
ENDBRANCH 17 18
ENDBRANCH 16 17
ENDBRANCH 15 16
ENDBRANCH 14 15
ENDBRANCH 11 14
ENDBRANCH 8 11
ENDBRANCH 6 7
BRANCH 6 22
ATOM     22  CB  THR D   3       6.066   3.749  32.119  1.00 14.57 LIG 0.15  C 
ATOM     23  CG2 THR D   3       7.093   3.835  30.952  1.00 14.25 LIG 0.04  C 
BRANCH 22 24
ATOM     24 OG1  THR D   3       6.760   3.667  33.374  1.00 15.86 LIG-0.39  OA
ATOM     25 HG1  THR D   3       6.261   3.947  33.989  1.00 15.86 LIG 0.21  HD
ENDBRANCH 22 24
ENDBRANCH 6 22
ENDBRANCH 3 6
ENDBRANCH 1 2
BRANCH 1 26
ATOM     26  CB  ARG D   2       5.047   6.336  36.075  1.00  9.49 LIG 0.04  C 
BRANCH 26 27
ATOM     27  CG  ARG D   2       6.575   6.420  36.454  1.00 10.73 LIG 0.02  C 
BRANCH 27 28
ATOM     28  CD  ARG D   2       6.968   5.101  37.139  1.00 10.86 LIG 0.14  C 
BRANCH 28 29
ATOM     29  NE  ARG D   2       8.370   4.814  36.972  1.00 10.69 LIG-0.23  N 
ATOM     30  CZ  ARG D   2       9.392   5.637  37.335  1.00  9.43 LIG 0.67  C 
ATOM     31  NH1 ARG D   2       9.181   6.855  37.859  1.00 10.34 LIG-0.23  N 
ATOM     32  NH2 ARG D   2      10.629   5.273  37.074  1.00 11.18 LIG-0.23  N 
ATOM     33 2HH1 ARG D   2       9.848   7.350  38.078  1.00 10.34 LIG 0.17  HD
ATOM     34 1HH1 ARG D   2       8.377   7.139  37.975  1.00 10.34 LIG 0.17  HD
ATOM     35 2HH2 ARG D   2      11.284   5.784  37.298  1.00 11.18 LIG 0.17  HD
ATOM     36 1HH2 ARG D   2      10.783   4.526  36.678  1.00 11.18 LIG 0.17  HD
ATOM     37 HE   ARG D   2       8.578   4.061  36.613  1.00 10.69 LIG 0.18  HD
ENDBRANCH 28 29
ENDBRANCH 27 28
ENDBRANCH 26 27
ENDBRANCH 1 26
BRANCH 1 38
ATOM     38  N   ARG D   2       3.324   7.934  35.291  1.00  9.04 LIG-0.35  N 
ATOM     39 H    ARG D   2       3.299   8.768  35.500  1.00  9.04 LIG 0.16  HD
ATOM     40  C   ALA D   1       2.246   7.137  35.197  1.00 11.17 LIG 0.24  C 
ATOM     41 O    ALA D   1       2.354   5.951  34.886  1.00 13.49 LIG-0.27  OA
BRANCH 40 42
ATOM     42  CA  ALA D   1       0.874   7.742  35.424  1.00 12.65 LIG 0.17  C 
ATOM     43  CB  ALA D   1       0.522   7.819  36.927  1.00 13.08 LIG 0.04  C 
BRANCH 42 44
ATOM     44  N   ALA D   1      -0.198   7.012  34.736  1.00 12.52 LIG-0.35  N 
ATOM     45  C   ACE D   0      -0.387   6.845  33.225  1.00 13.59 LIG 0.21  C 
ATOM     46 O    ACE D   0       0.507   7.430  32.532  1.00 14.78 LIG-0.27  OA
ATOM     47  CH3 ACE D   0      -1.556   6.051  32.709  1.00 14.73 LIG 0.12  C 
ATOM     48 H    ALA D   1      -0.751   6.660  35.293  1.00 12.52 LIG 0.16  HD
ENDBRANCH 42 44
ENDBRANCH 40 42
ENDBRANCH 1 38
TORSDOF 19
ENDMDL
MODEL 46
USER: ADFR SOLUTION from run 15
USER: SCORE 16.018659 LL:  -2.622 LR: -13.623 RR:   0.000 FEB:  -7.955
USER: RMSD 6.949509
USER: SEED 334962
USER: STATUS no improvement in best in 4 clusters for 5 generations
USER: GENES 21
USER: genes 0 Translation |==|  0.54538 0.50736 0.34273
USER: genes 1 Rotation |==|  0.10949 0.38302 0.63068 0.75834
USER: genes 2 Torsion [N]-CA--C-[N] |==|  0.39739
USER: genes 3 Torsion [C]-N--CA-[C] |==|  0.79578
USER: genes 4 Torsion [N]-CA--C-[N] |==|  0.38861
USER: genes 5 Torsion [C]-N--CA-[CB] |==|  0.35997
USER: genes 6 Torsion [N]-CA--C-[O] |==|  0.25630
USER: genes 7 Torsion [N]-CA--CB-[CG] |==|  0.85665
USER: genes 8 Torsion [CA]-CB--CG-[CD] |==|  0.34218
USER: genes 9 Torsion [CB]-CG--CD-[CE] |==|  0.34371
USER: genes 10 Torsion [CG]-CD--CE-[NZ] |==|  0.66137
USER: genes 11 Torsion [CD]-CE--NZ-[HZ1] |==|  0.75294
USER: genes 12 Torsion [N]-CA--CB-[CG2] |==|  0.67407
USER: genes 13 Torsion [CA]-CB--OG1-[HG1] |==|  0.14203
USER: genes 14 Torsion [C]-CA--CB-[CG] |==|  0.11700
USER: genes 15 Torsion [CA]-CB--CG-[CD] |==|  0.69527
USER: genes 16 Torsion [CB]-CG--CD-[NE] |==|  0.70156
USER: genes 17 Torsion [CG]-CD--NE-[CZ] |==|  0.21875
USER: genes 18 Torsion [C]-CA--N-[C] |==|  0.69487
USER: genes 19 Torsion [N]-C--CA-[N] |==|  0.89615
USER: genes 20 Torsion [C]-CA--N-[C] |==|  0.84444
ROOT
ATOM      1  CA  ARG D   2       5.795   7.533  30.835  1.00  9.56 LIG 0.18  C 
ENDROOT
BRANCH 1 2
ATOM      2  C   ARG D   2       4.937   6.892  31.959  1.00 11.06 LIG 0.24  C 
ATOM      3  N   THR D   3       5.284   7.189  33.208  1.00 11.45 LIG-0.34  N 
ATOM      4 H    THR D   3       5.905   7.741  33.429  1.00 11.45 LIG 0.16  HD
ATOM      5 O    ARG D   2       3.956   6.177  31.700  1.00  9.90 LIG-0.27  OA
BRANCH 3 6
ATOM      6  CA  THR D   3       4.596   6.563  34.308  1.00 13.43 LIG 0.20  C 
BRANCH 6 7
ATOM      7  C   THR D   3       3.193   7.120  34.498  1.00 15.00 LIG 0.24  C 
ATOM      8  N   LYS D   4       2.227   6.230  34.805  1.00 14.79 LIG-0.35  N 
ATOM      9 H    LYS D   4       2.371   5.394  34.949  1.00 14.79 LIG 0.16  HD
ATOM     10 O    THR D   3       3.010   8.344  34.349  1.00 15.79 LIG-0.27  OA
BRANCH 8 11
ATOM     11  CA  LYS D   4       0.795   6.640  34.924  1.00 18.13 LIG 0.16  C 
BRANCH 11 12
ATOM     12  C   LYS D   4       0.258   6.642  36.349  1.00 20.20 LIG 0.22  C 
ATOM     13 O    LYS D   4       0.340   7.733  36.975  1.00 21.26 LIG-0.29  OA
ENDBRANCH 11 12
BRANCH 11 14
ATOM     14  CB  LYS D   4      -0.091   5.693  34.074  1.00 18.02 LIG 0.03  C 
BRANCH 14 15
ATOM     15  CG  LYS D   4       0.390   5.550  32.648  1.00 21.48 LIG 0.00  C 
BRANCH 15 16
ATOM     16  CD  LYS D   4       0.660   4.112  32.278  1.00 25.56 LIG 0.03  C 
BRANCH 16 17
ATOM     17  CE  LYS D   4      -0.170   3.721  31.033  1.00 25.12 LIG 0.23  C 
BRANCH 17 18
ATOM     18  NZ  LYS D   4      -1.090   2.540  31.296  1.00 20.07 LIG-0.08  N 
ATOM     19 HZ1  LYS D   4      -0.658   1.783  31.122  1.00 20.07 LIG 0.27  HD
ATOM     20 HZ2  LYS D   4      -1.346   2.547  32.148  1.00 20.07 LIG 0.27  HD
ATOM     21 HZ3  LYS D   4      -1.806   2.600  30.771  1.00 20.07 LIG 0.27  HD
ENDBRANCH 17 18
ENDBRANCH 16 17
ENDBRANCH 15 16
ENDBRANCH 14 15
ENDBRANCH 11 14
ENDBRANCH 8 11
ENDBRANCH 6 7
BRANCH 6 22
ATOM     22  CB  THR D   3       5.403   6.641  35.655  1.00 14.57 LIG 0.15  C 
ATOM     23  CG2 THR D   3       5.772   5.217  36.164  1.00 14.25 LIG 0.04  C 
BRANCH 22 24
ATOM     24 OG1  THR D   3       6.597   7.417  35.467  1.00 15.86 LIG-0.39  OA
ATOM     25 HG1  THR D   3       6.401   8.151  35.108  1.00 15.86 LIG 0.21  HD
ENDBRANCH 22 24
ENDBRANCH 6 22
ENDBRANCH 3 6
ENDBRANCH 1 2
BRANCH 1 26
ATOM     26  CB  ARG D   2       5.223   8.874  30.339  1.00  9.49 LIG 0.04  C 
BRANCH 26 27
ATOM     27  CG  ARG D   2       4.719   9.763  31.538  1.00 10.73 LIG 0.02  C 
BRANCH 27 28
ATOM     28  CD  ARG D   2       3.184   9.814  31.481  1.00 10.86 LIG 0.14  C 
BRANCH 28 29
ATOM     29  NE  ARG D   2       2.712  11.102  31.044  1.00 10.69 LIG-0.23  N 
ATOM     30  CZ  ARG D   2       2.685  11.537  29.753  1.00  9.43 LIG 0.67  C 
ATOM     31  NH1 ARG D   2       3.156  10.796  28.738  1.00 10.34 LIG-0.23  N 
ATOM     32  NH2 ARG D   2       2.279  12.762  29.499  1.00 11.18 LIG-0.23  N 
ATOM     33 2HH1 ARG D   2       3.125  11.098  27.934  1.00 10.34 LIG 0.17  HD
ATOM     34 1HH1 ARG D   2       3.489  10.018  28.892  1.00 10.34 LIG 0.17  HD
ATOM     35 2HH2 ARG D   2       2.257  13.049  28.688  1.00 11.18 LIG 0.17  HD
ATOM     36 1HH2 ARG D   2       2.035  13.276  30.143  1.00 11.18 LIG 0.17  HD
ATOM     37 HE   ARG D   2       2.423  11.643  31.647  1.00 10.69 LIG 0.18  HD
ENDBRANCH 28 29
ENDBRANCH 27 28
ENDBRANCH 26 27
ENDBRANCH 1 26
BRANCH 1 38
ATOM     38  N   ARG D   2       5.968   6.594  29.714  1.00  9.04 LIG-0.35  N 
ATOM     39 H    ARG D   2       5.259   6.444  29.251  1.00  9.04 LIG 0.16  HD
ATOM     40  C   ALA D   1       7.169   6.040  29.474  1.00 11.17 LIG 0.24  C 
ATOM     41 O    ALA D   1       8.145   6.304  30.175  1.00 13.49 LIG-0.27  OA
BRANCH 40 42
ATOM     42  CA  ALA D   1       7.317   5.121  28.277  1.00 12.65 LIG 0.17  C 
ATOM     43  CB  ALA D   1       7.610   5.910  26.980  1.00 13.08 LIG 0.04  C 
BRANCH 42 44
ATOM     44  N   ALA D   1       6.135   4.280  28.048  1.00 12.52 LIG-0.35  N 
ATOM     45  C   ACE D   0       5.474   3.317  29.040  1.00 13.59 LIG 0.21  C 
ATOM     46 O    ACE D   0       6.057   3.271  30.171  1.00 14.78 LIG-0.27  OA
ATOM     47  CH3 ACE D   0       4.258   2.539  28.617  1.00 14.73 LIG 0.12  C 
ATOM     48 H    ALA D   1       5.822   4.381  27.254  1.00 12.52 LIG 0.16  HD
ENDBRANCH 42 44
ENDBRANCH 40 42
ENDBRANCH 1 38
TORSDOF 19
ENDMDL
MODEL 47
USER: ADFR SOLUTION from run 144
USER: SCORE 16.347581 LL:  -3.717 LR: -13.611 RR:   0.000 FEB:  -7.943
USER: RMSD 5.315465
USER: SEED 143
USER: STATUS no improvement in best in 5 clusters for 5 generations
USER: GENES 21
USER: genes 0 Translation |==|  0.47532 0.34595 0.57445
USER: genes 1 Rotation |==|  0.19411 0.53012 0.35742 0.86769
USER: genes 2 Torsion [N]-CA--C-[N] |==|  0.89493
USER: genes 3 Torsion [C]-N--CA-[C] |==|  0.54790
USER: genes 4 Torsion [N]-CA--C-[N] |==|  0.41869
USER: genes 5 Torsion [C]-N--CA-[CB] |==|  0.14008
USER: genes 6 Torsion [N]-CA--C-[O] |==|  0.13910
USER: genes 7 Torsion [N]-CA--CB-[CG] |==|  0.20698
USER: genes 8 Torsion [CA]-CB--CG-[CD] |==|  0.67482
USER: genes 9 Torsion [CB]-CG--CD-[CE] |==|  0.59212
USER: genes 10 Torsion [CG]-CD--CE-[NZ] |==|  0.77678
USER: genes 11 Torsion [CD]-CE--NZ-[HZ1] |==|  0.01828
USER: genes 12 Torsion [N]-CA--CB-[CG2] |==|  0.19369
USER: genes 13 Torsion [CA]-CB--OG1-[HG1] |==|  0.38199
USER: genes 14 Torsion [C]-CA--CB-[CG] |==|  0.87913
USER: genes 15 Torsion [CA]-CB--CG-[CD] |==|  0.80871
USER: genes 16 Torsion [CB]-CG--CD-[NE] |==|  0.40264
USER: genes 17 Torsion [CG]-CD--NE-[CZ] |==|  0.31548
USER: genes 18 Torsion [C]-CA--N-[C] |==|  0.62555
USER: genes 19 Torsion [N]-C--CA-[N] |==|  0.98329
USER: genes 20 Torsion [C]-CA--N-[C] |==|  0.83878
ROOT
ATOM      1  CA  ARG D   2       4.429   4.991  34.832  1.00  9.56 LIG 0.18  C 
ENDROOT
BRANCH 1 2
ATOM      2  C   ARG D   2       2.978   5.305  35.287  1.00 11.06 LIG 0.24  C 
ATOM      3  N   THR D   3       2.296   6.161  34.533  1.00 11.45 LIG-0.34  N 
ATOM      4 H    THR D   3       2.580   6.506  33.798  1.00 11.45 LIG 0.16  HD
ATOM      5 O    ARG D   2       2.472   4.750  36.275  1.00  9.90 LIG-0.27  OA
BRANCH 3 6
ATOM      6  CA  THR D   3       0.977   6.574  34.936  1.00 13.43 LIG 0.20  C 
BRANCH 6 7
ATOM      7  C   THR D   3       0.195   7.198  33.790  1.00 15.00 LIG 0.24  C 
ATOM      8  N   LYS D   4      -1.147   7.065  33.831  1.00 14.79 LIG-0.35  N 
ATOM      9 H    LYS D   4      -1.574   6.702  34.483  1.00 14.79 LIG 0.16  HD
ATOM     10 O    THR D   3       0.823   7.776  32.882  1.00 15.79 LIG-0.27  OA
BRANCH 8 11
ATOM     11  CA  LYS D   4      -2.016   7.551  32.716  1.00 18.13 LIG 0.16  C 
BRANCH 11 12
ATOM     12  C   LYS D   4      -3.480   7.151  32.842  1.00 20.20 LIG 0.22  C 
ATOM     13 O    LYS D   4      -4.030   7.387  33.951  1.00 21.26 LIG-0.29  OA
ENDBRANCH 11 12
BRANCH 11 14
ATOM     14  CB  LYS D   4      -1.481   7.012  31.365  1.00 18.02 LIG 0.03  C 
BRANCH 14 15
ATOM     15  CG  LYS D   4      -1.773   5.544  31.153  1.00 21.48 LIG 0.00  C 
BRANCH 15 16
ATOM     16  CD  LYS D   4      -0.513   4.719  31.053  1.00 25.56 LIG 0.03  C 
BRANCH 16 17
ATOM     17  CE  LYS D   4      -0.730   3.537  30.080  1.00 25.12 LIG 0.23  C 
BRANCH 17 18
ATOM     18  NZ  LYS D   4      -1.465   2.377  30.731  1.00 20.07 LIG-0.08  N 
ATOM     19 HZ1  LYS D   4      -1.732   2.614  31.546  1.00 20.07 LIG 0.27  HD
ATOM     20 HZ2  LYS D   4      -2.173   2.160  30.239  1.00 20.07 LIG 0.27  HD
ATOM     21 HZ3  LYS D   4      -0.919   1.676  30.792  1.00 20.07 LIG 0.27  HD
ENDBRANCH 17 18
ENDBRANCH 16 17
ENDBRANCH 15 16
ENDBRANCH 14 15
ENDBRANCH 11 14
ENDBRANCH 8 11
ENDBRANCH 6 7
BRANCH 6 22
ATOM     22  CB  THR D   3       0.992   7.540  36.177  1.00 14.57 LIG 0.15  C 
ATOM     23  CG2 THR D   3       1.581   8.929  35.791  1.00 14.25 LIG 0.04  C 
BRANCH 22 24
ATOM     24 OG1  THR D   3      -0.340   7.700  36.690  1.00 15.86 LIG-0.39  OA
ATOM     25 HG1  THR D   3      -0.322   7.671  37.529  1.00 15.86 LIG 0.21  HD
ENDBRANCH 22 24
ENDBRANCH 6 22
ENDBRANCH 3 6
ENDBRANCH 1 2
BRANCH 1 26
ATOM     26  CB  ARG D   2       5.458   5.993  35.386  1.00  9.49 LIG 0.04  C 
BRANCH 26 27
ATOM     27  CG  ARG D   2       4.934   7.475  35.276  1.00 10.73 LIG 0.02  C 
BRANCH 27 28
ATOM     28  CD  ARG D   2       4.890   7.856  33.787  1.00 10.86 LIG 0.14  C 
BRANCH 28 29
ATOM     29  NE  ARG D   2       3.779   8.724  33.494  1.00 10.69 LIG-0.23  N 
ATOM     30  CZ  ARG D   2       3.878  10.023  33.097  1.00  9.43 LIG 0.67  C 
ATOM     31  NH1 ARG D   2       5.059  10.650  32.982  1.00 10.34 LIG-0.23  N 
ATOM     32  NH2 ARG D   2       2.777  10.721  32.915  1.00 11.18 LIG-0.23  N 
ATOM     33 2HH1 ARG D   2       5.087  11.471  32.728  1.00 10.34 LIG 0.17  HD
ATOM     34 1HH1 ARG D   2       5.788  10.230  33.162  1.00 10.34 LIG 0.17  HD
ATOM     35 2HH2 ARG D   2       2.825  11.543  32.664  1.00 11.18 LIG 0.17  HD
ATOM     36 1HH2 ARG D   2       2.010  10.357  33.048  1.00 11.18 LIG 0.17  HD
ATOM     37 HE   ARG D   2       2.989   8.396  33.577  1.00 10.69 LIG 0.18  HD
ENDBRANCH 28 29
ENDBRANCH 27 28
ENDBRANCH 26 27
ENDBRANCH 1 26
BRANCH 1 38
ATOM     38  N   ARG D   2       4.510   4.918  33.364  1.00  9.04 LIG-0.35  N 
ATOM     39 H    ARG D   2       4.104   5.549  32.945  1.00  9.04 LIG 0.16  HD
ATOM     40  C   ALA D   1       5.183   3.916  32.772  1.00 11.17 LIG 0.24  C 
ATOM     41 O    ALA D   1       5.746   3.046  33.434  1.00 13.49 LIG-0.27  OA
BRANCH 40 42
ATOM     42  CA  ALA D   1       5.287   3.909  31.259  1.00 12.65 LIG 0.17  C 
ATOM     43  CB  ALA D   1       6.751   4.049  30.784  1.00 13.08 LIG 0.04  C 
BRANCH 42 44
ATOM     44  N   ALA D   1       4.492   4.967  30.622  1.00 12.52 LIG-0.35  N 
ATOM     45  C   ACE D   0       2.983   5.197  30.747  1.00 13.59 LIG 0.21  C 
ATOM     46 O    ACE D   0       2.397   4.345  31.490  1.00 14.78 LIG-0.27  OA
ATOM     47  CH3 ACE D   0       2.347   6.347  30.015  1.00 14.73 LIG 0.12  C 
ATOM     48 H    ALA D   1       4.980   5.484  30.139  1.00 12.52 LIG 0.16  HD
ENDBRANCH 42 44
ENDBRANCH 40 42
ENDBRANCH 1 38
TORSDOF 19
ENDMDL
MODEL 48
USER: ADFR SOLUTION from run 107
USER: SCORE 15.763832 LL:  -3.156 LR: -13.598 RR:   0.000 FEB:  -7.931
USER: RMSD 4.394395
USER: SEED 106
USER: STATUS no improvement in best in 5 clusters for 5 generations
USER: GENES 21
USER: genes 0 Translation |==|  0.51246 0.28579 0.52489
USER: genes 1 Rotation |==|  0.23235 0.47704 0.22226 0.81732
USER: genes 2 Torsion [N]-CA--C-[N] |==|  0.66015
USER: genes 3 Torsion [C]-N--CA-[C] |==|  0.79642
USER: genes 4 Torsion [N]-CA--C-[N] |==|  0.34855
USER: genes 5 Torsion [C]-N--CA-[CB] |==|  0.27480
USER: genes 6 Torsion [N]-CA--C-[O] |==|  0.90300
USER: genes 7 Torsion [N]-CA--CB-[CG] |==|  0.05032
USER: genes 8 Torsion [CA]-CB--CG-[CD] |==|  0.26858
USER: genes 9 Torsion [CB]-CG--CD-[CE] |==|  0.62516
USER: genes 10 Torsion [CG]-CD--CE-[NZ] |==|  0.58956
USER: genes 11 Torsion [CD]-CE--NZ-[HZ1] |==|  0.18486
USER: genes 12 Torsion [N]-CA--CB-[CG2] |==|  0.68715
USER: genes 13 Torsion [CA]-CB--OG1-[HG1] |==|  0.22202
USER: genes 14 Torsion [C]-CA--CB-[CG] |==|  0.30527
USER: genes 15 Torsion [CA]-CB--CG-[CD] |==|  0.51237
USER: genes 16 Torsion [CB]-CG--CD-[NE] |==|  0.78879
USER: genes 17 Torsion [CG]-CD--NE-[CZ] |==|  0.43734
USER: genes 18 Torsion [C]-CA--N-[C] |==|  0.15649
USER: genes 19 Torsion [N]-C--CA-[N] |==|  0.16110
USER: genes 20 Torsion [C]-CA--N-[C] |==|  0.16484
ROOT
ATOM      1  CA  ARG D   2       5.153   4.043  33.977  1.00  9.56 LIG 0.18  C 
ENDROOT
BRANCH 1 2
ATOM      2  C   ARG D   2       3.871   4.844  33.625  1.00 11.06 LIG 0.24  C 
ATOM      3  N   THR D   3       3.761   6.052  34.169  1.00 11.45 LIG-0.34  N 
ATOM      4 H    THR D   3       4.363   6.432  34.650  1.00 11.45 LIG 0.16  HD
ATOM      5 O    ARG D   2       3.018   4.394  32.842  1.00  9.90 LIG-0.27  OA
BRANCH 3 6
ATOM      6  CA  THR D   3       2.561   6.821  33.964  1.00 13.43 LIG 0.20  C 
BRANCH 6 7
ATOM      7  C   THR D   3       2.468   7.375  32.550  1.00 15.00 LIG 0.24  C 
ATOM      8  N   LYS D   4       1.347   7.083  31.859  1.00 14.79 LIG-0.35  N 
ATOM      9 H    LYS D   4       0.677   6.656  32.188  1.00 14.79 LIG 0.16  HD
ATOM     10 O    THR D   3       3.421   8.045  32.107  1.00 15.79 LIG-0.27  OA
BRANCH 8 11
ATOM     11  CA  LYS D   4       1.181   7.489  30.430  1.00 18.13 LIG 0.16  C 
BRANCH 11 12
ATOM     12  C   LYS D   4      -0.211   7.998  30.081  1.00 20.20 LIG 0.22  C 
ATOM     13 O    LYS D   4      -1.174   7.445  30.679  1.00 21.26 LIG-0.29  OA
ENDBRANCH 11 12
BRANCH 11 14
ATOM     14  CB  LYS D   4       1.504   6.288  29.505  1.00 18.02 LIG 0.03  C 
BRANCH 14 15
ATOM     15  CG  LYS D   4       1.468   4.959  30.224  1.00 21.48 LIG 0.00  C 
BRANCH 15 16
ATOM     16  CD  LYS D   4       0.145   4.252  30.052  1.00 25.56 LIG 0.03  C 
BRANCH 16 17
ATOM     17  CE  LYS D   4      -0.335   3.691  31.411  1.00 25.12 LIG 0.23  C 
BRANCH 17 18
ATOM     18  NZ  LYS D   4      -1.129   2.404  31.259  1.00 20.07 LIG-0.08  N 
ATOM     19 HZ1  LYS D   4      -0.594   1.759  30.960  1.00 20.07 LIG 0.27  HD
ATOM     20 HZ2  LYS D   4      -1.465   2.168  32.048  1.00 20.07 LIG 0.27  HD
ATOM     21 HZ3  LYS D   4      -1.792   2.530  30.679  1.00 20.07 LIG 0.27  HD
ENDBRANCH 17 18
ENDBRANCH 16 17
ENDBRANCH 15 16
ENDBRANCH 14 15
ENDBRANCH 11 14
ENDBRANCH 8 11
ENDBRANCH 6 7
BRANCH 6 22
ATOM     22  CB  THR D   3       2.390   7.976  35.017  1.00 14.57 LIG 0.15  C 
ATOM     23  CG2 THR D   3       1.176   7.700  35.952  1.00 14.25 LIG 0.04  C 
BRANCH 22 24
ATOM     24 OG1  THR D   3       3.587   8.109  35.798  1.00 15.86 LIG-0.39  OA
ATOM     25 HG1  THR D   3       4.160   8.543  35.363  1.00 15.86 LIG 0.21  HD
ENDBRANCH 22 24
ENDBRANCH 6 22
ENDBRANCH 3 6
ENDBRANCH 1 2
BRANCH 1 26
ATOM     26  CB  ARG D   2       6.069   4.788  34.966  1.00  9.49 LIG 0.04  C 
BRANCH 26 27
ATOM     27  CG  ARG D   2       6.074   4.094  36.380  1.00 10.73 LIG 0.02  C 
BRANCH 27 28
ATOM     28  CD  ARG D   2       6.918   4.958  37.331  1.00 10.86 LIG 0.14  C 
BRANCH 28 29
ATOM     29  NE  ARG D   2       8.328   4.794  37.087  1.00 10.69 LIG-0.23  N 
ATOM     30  CZ  ARG D   2       9.296   5.691  37.424  1.00  9.43 LIG 0.67  C 
ATOM     31  NH1 ARG D   2       9.011   6.873  37.993  1.00 10.34 LIG-0.23  N 
ATOM     32  NH2 ARG D   2      10.543   5.440  37.091  1.00 11.18 LIG-0.23  N 
ATOM     33 2HH1 ARG D   2       9.645   7.417  38.195  1.00 10.34 LIG 0.17  HD
ATOM     34 1HH1 ARG D   2       8.194   7.085  38.158  1.00 10.34 LIG 0.17  HD
ATOM     35 2HH2 ARG D   2      11.165   5.998  37.298  1.00 11.18 LIG 0.17  HD
ATOM     36 1HH2 ARG D   2      10.738   4.719  36.667  1.00 11.18 LIG 0.17  HD
ATOM     37 HE   ARG D   2       8.579   4.071  36.696  1.00 10.69 LIG 0.18  HD
ENDBRANCH 28 29
ENDBRANCH 27 28
ENDBRANCH 26 27
ENDBRANCH 1 26
BRANCH 1 38
ATOM     38  N   ARG D   2       5.891   3.679  32.757  1.00  9.04 LIG-0.35  N 
ATOM     39 H    ARG D   2       6.038   2.838  32.656  1.00  9.04 LIG 0.16  HD
ATOM     40  C   ALA D   1       6.284   4.632  31.893  1.00 11.17 LIG 0.24  C 
ATOM     41 O    ALA D   1       6.035   5.819  32.096  1.00 13.49 LIG-0.27  OA
BRANCH 40 42
ATOM     42  CA  ALA D   1       6.994   4.209  30.622  1.00 12.65 LIG 0.17  C 
ATOM     43  CB  ALA D   1       7.387   5.425  29.752  1.00 13.08 LIG 0.04  C 
BRANCH 42 44
ATOM     44  N   ALA D   1       6.198   3.290  29.797  1.00 12.52 LIG-0.35  N 
ATOM     45  C   ACE D   0       4.816   3.548  29.188  1.00 13.59 LIG 0.21  C 
ATOM     46 O    ACE D   0       4.346   4.698  29.462  1.00 14.78 LIG-0.27  OA
ATOM     47  CH3 ACE D   0       4.159   2.474  28.363  1.00 14.73 LIG 0.12  C 
ATOM     48 H    ALA D   1       6.603   2.540  29.677  1.00 12.52 LIG 0.16  HD
ENDBRANCH 42 44
ENDBRANCH 40 42
ENDBRANCH 1 38
TORSDOF 19
ENDMDL
MODEL 49
USER: ADFR SOLUTION from run 31
USER: SCORE 15.895718 LL:  -2.529 LR: -13.575 RR:   0.000 FEB:  -7.907
USER: RMSD 4.982252
USER: SEED 30
USER: STATUS no improvement in best in 5 clusters for 5 generations
USER: GENES 21
USER: genes 0 Translation |==|  0.53376 0.31622 0.49789
USER: genes 1 Rotation |==|  0.30205 0.59186 0.20484 0.83950
USER: genes 2 Torsion [N]-CA--C-[N] |==|  0.44896
USER: genes 3 Torsion [C]-N--CA-[C] |==|  0.84597
USER: genes 4 Torsion [N]-CA--C-[N] |==|  0.37159
USER: genes 5 Torsion [C]-N--CA-[CB] |==|  0.31367
USER: genes 6 Torsion [N]-CA--C-[O] |==|  0.17801
USER: genes 7 Torsion [N]-CA--CB-[CG] |==|  0.82121
USER: genes 8 Torsion [CA]-CB--CG-[CD] |==|  0.51358
USER: genes 9 Torsion [CB]-CG--CD-[CE] |==|  0.87499
USER: genes 10 Torsion [CG]-CD--CE-[NZ] |==|  0.24676
USER: genes 11 Torsion [CD]-CE--NZ-[HZ1] |==|  0.71531
USER: genes 12 Torsion [N]-CA--CB-[CG2] |==|  0.62271
USER: genes 13 Torsion [CA]-CB--OG1-[HG1] |==|  0.47080
USER: genes 14 Torsion [C]-CA--CB-[CG] |==|  0.18666
USER: genes 15 Torsion [CA]-CB--CG-[CD] |==|  0.59797
USER: genes 16 Torsion [CB]-CG--CD-[NE] |==|  0.85442
USER: genes 17 Torsion [CG]-CD--NE-[CZ] |==|  0.42440
USER: genes 18 Torsion [C]-CA--N-[C] |==|  0.82778
USER: genes 19 Torsion [N]-C--CA-[N] |==|  0.98644
USER: genes 20 Torsion [C]-CA--N-[C] |==|  0.79194
ROOT
ATOM      1  CA  ARG D   2       5.568   4.522  33.512  1.00  9.56 LIG 0.18  C 
ENDROOT
BRANCH 1 2
ATOM      2  C   ARG D   2       4.506   5.626  33.763  1.00 11.06 LIG 0.24  C 
ATOM      3  N   THR D   3       3.658   5.412  34.764  1.00 11.45 LIG-0.34  N 
ATOM      4 H    THR D   3       3.690   4.743  35.302  1.00 11.45 LIG 0.16  HD
ATOM      5 O    ARG D   2       4.483   6.670  33.091  1.00  9.90 LIG-0.27  OA
BRANCH 3 6
ATOM      6  CA  THR D   3       2.587   6.345  35.004  1.00 13.43 LIG 0.20  C 
BRANCH 6 7
ATOM      7  C   THR D   3       3.095   7.766  35.195  1.00 15.00 LIG 0.24  C 
ATOM      8  N   LYS D   4       2.443   8.736  34.522  1.00 14.79 LIG-0.35  N 
ATOM      9 H    LYS D   4       1.740   8.601  34.046  1.00 14.79 LIG 0.16  HD
ATOM     10 O    THR D   3       4.078   7.955  35.938  1.00 15.79 LIG-0.27  OA
BRANCH 8 11
ATOM     11  CA  LYS D   4       2.907  10.157  34.553  1.00 18.13 LIG 0.16  C 
BRANCH 11 12
ATOM     12  C   LYS D   4       1.842  11.154  34.992  1.00 20.20 LIG 0.22  C 
ATOM     13 O    LYS D   4       1.418  11.034  36.173  1.00 21.26 LIG-0.29  OA
ENDBRANCH 11 12
BRANCH 11 14
ATOM     14  CB  LYS D   4       3.410  10.572  33.148  1.00 18.02 LIG 0.03  C 
BRANCH 14 15
ATOM     15  CG  LYS D   4       4.629   9.799  32.700  1.00 21.48 LIG 0.00  C 
BRANCH 15 16
ATOM     16  CD  LYS D   4       5.172  10.299  31.384  1.00 25.56 LIG 0.03  C 
BRANCH 16 17
ATOM     17  CE  LYS D   4       4.014  10.519  30.383  1.00 25.12 LIG 0.23  C 
BRANCH 17 18
ATOM     18  NZ  LYS D   4       3.425  11.917  30.475  1.00 20.07 LIG-0.08  N 
ATOM     19 HZ1  LYS D   4       2.657  11.887  30.923  1.00 20.07 LIG 0.27  HD
ATOM     20 HZ2  LYS D   4       3.995  12.452  30.899  1.00 20.07 LIG 0.27  HD
ATOM     21 HZ3  LYS D   4       3.277  12.231  29.655  1.00 20.07 LIG 0.27  HD
ENDBRANCH 17 18
ENDBRANCH 16 17
ENDBRANCH 15 16
ENDBRANCH 14 15
ENDBRANCH 11 14
ENDBRANCH 8 11
ENDBRANCH 6 7
BRANCH 6 22
ATOM     22  CB  THR D   3       1.671   5.924  36.211  1.00 14.57 LIG 0.15  C 
ATOM     23  CG2 THR D   3       0.166   6.105  35.855  1.00 14.25 LIG 0.04  C 
BRANCH 22 24
ATOM     24 OG1  THR D   3       1.927   4.557  36.567  1.00 15.86 LIG-0.39  OA
ATOM     25 HG1  THR D   3       1.547   4.381  37.295  1.00 15.86 LIG 0.21  HD
ENDBRANCH 22 24
ENDBRANCH 6 22
ENDBRANCH 3 6
ENDBRANCH 1 2
BRANCH 1 26
ATOM     26  CB  ARG D   2       6.681   4.512  34.575  1.00  9.49 LIG 0.04  C 
BRANCH 26 27
ATOM     27  CG  ARG D   2       6.126   4.080  35.985  1.00 10.73 LIG 0.02  C 
BRANCH 27 28
ATOM     28  CD  ARG D   2       6.884   4.876  37.060  1.00 10.86 LIG 0.14  C 
BRANCH 28 29
ATOM     29  NE  ARG D   2       8.311   4.757  36.901  1.00 10.69 LIG-0.23  N 
ATOM     30  CZ  ARG D   2       9.228   5.683  37.297  1.00  9.43 LIG 0.67  C 
ATOM     31  NH1 ARG D   2       8.873   6.853  37.849  1.00 10.34 LIG-0.23  N 
ATOM     32  NH2 ARG D   2      10.501   5.472  37.039  1.00 11.18 LIG-0.23  N 
ATOM     33 2HH1 ARG D   2       9.476   7.416  38.089  1.00 10.34 LIG 0.17  HD
ATOM     34 1HH1 ARG D   2       8.041   7.039  37.964  1.00 10.34 LIG 0.17  HD
ATOM     35 2HH2 ARG D   2      11.091   6.048  37.284  1.00 11.18 LIG 0.17  HD
ATOM     36 1HH2 ARG D   2      10.744   4.758  36.626  1.00 11.18 LIG 0.17  HD
ATOM     37 HE   ARG D   2       8.608   4.043  36.524  1.00 10.69 LIG 0.18  HD
ENDBRANCH 28 29
ENDBRANCH 27 28
ENDBRANCH 26 27
ENDBRANCH 1 26
BRANCH 1 38
ATOM     38  N   ARG D   2       6.140   4.648  32.161  1.00  9.04 LIG-0.35  N 
ATOM     39 H    ARG D   2       6.985   4.805  32.136  1.00  9.04 LIG 0.16  HD
ATOM     40  C   ALA D   1       5.354   4.519  31.078  1.00 11.17 LIG 0.24  C 
ATOM     41 O    ALA D   1       4.150   4.290  31.187  1.00 13.49 LIG-0.27  OA
BRANCH 40 42
ATOM     42  CA  ALA D   1       5.993   4.602  29.705  1.00 12.65 LIG 0.17  C 
ATOM     43  CB  ALA D   1       5.828   3.284  28.915  1.00 13.08 LIG 0.04  C 
BRANCH 42 44
ATOM     44  N   ALA D   1       7.422   4.935  29.755  1.00 12.52 LIG-0.35  N 
ATOM     45  C   ACE D   0       8.048   6.302  30.050  1.00 13.59 LIG 0.21  C 
ATOM     46 O    ACE D   0       7.191   7.219  30.260  1.00 14.78 LIG-0.27  OA
ATOM     47  CH3 ACE D   0       9.546   6.443  30.060  1.00 14.73 LIG 0.12  C 
ATOM     48 H    ALA D   1       7.914   4.248  29.593  1.00 12.52 LIG 0.16  HD
ENDBRANCH 42 44
ENDBRANCH 40 42
ENDBRANCH 1 38
TORSDOF 19
ENDMDL
MODEL 50
USER: ADFR SOLUTION from run 165
USER: SCORE 15.374923 LL:  -2.807 LR: -13.578 RR:   0.000 FEB:  -7.911
USER: RMSD 6.513336
USER: SEED 164
USER: STATUS no improvement in best in 6 clusters for 5 generations
USER: GENES 21
USER: genes 0 Translation |==|  0.50815 0.40892 0.50907
USER: genes 1 Rotation |==|  0.86782 0.38585 0.27451 0.72546
USER: genes 2 Torsion [N]-CA--C-[N] |==|  0.43720
USER: genes 3 Torsion [C]-N--CA-[C] |==|  0.70800
USER: genes 4 Torsion [N]-CA--C-[N] |==|  0.45895
USER: genes 5 Torsion [C]-N--CA-[CB] |==|  0.27494
USER: genes 6 Torsion [N]-CA--C-[O] |==|  0.48824
USER: genes 7 Torsion [N]-CA--CB-[CG] |==|  0.10680
USER: genes 8 Torsion [CA]-CB--CG-[CD] |==|  0.72024
USER: genes 9 Torsion [CB]-CG--CD-[CE] |==|  0.40347
USER: genes 10 Torsion [CG]-CD--CE-[NZ] |==|  0.79070
USER: genes 11 Torsion [CD]-CE--NZ-[HZ1] |==|  0.45316
USER: genes 12 Torsion [N]-CA--CB-[CG2] |==|  0.22705
USER: genes 13 Torsion [CA]-CB--OG1-[HG1] |==|  0.11693
USER: genes 14 Torsion [C]-CA--CB-[CG] |==|  0.26484
USER: genes 15 Torsion [CA]-CB--CG-[CD] |==|  0.19948
USER: genes 16 Torsion [CB]-CG--CD-[NE] |==|  0.49301
USER: genes 17 Torsion [CG]-CD--NE-[CZ] |==|  0.26925
USER: genes 18 Torsion [C]-CA--N-[C] |==|  0.60649
USER: genes 19 Torsion [N]-C--CA-[N] |==|  0.59355
USER: genes 20 Torsion [C]-CA--N-[C] |==|  0.19884
ROOT
ATOM      1  CA  ARG D   2       5.069   5.982  33.705  1.00  9.56 LIG 0.18  C 
ENDROOT
BRANCH 1 2
ATOM      2  C   ARG D   2       4.618   7.459  33.539  1.00 11.06 LIG 0.24  C 
ATOM      3  N   THR D   3       4.764   7.988  32.328  1.00 11.45 LIG-0.34  N 
ATOM      4 H    THR D   3       5.038   7.562  31.634  1.00 11.45 LIG 0.16  HD
ATOM      5 O    ARG D   2       4.107   8.091  34.477  1.00  9.90 LIG-0.27  OA
BRANCH 3 6
ATOM      6  CA  THR D   3       4.454   9.378  32.115  1.00 13.43 LIG 0.20  C 
BRANCH 6 7
ATOM      7  C   THR D   3       3.138   9.565  31.374  1.00 15.00 LIG 0.24  C 
ATOM      8  N   LYS D   4       2.606  10.804  31.393  1.00 14.79 LIG-0.35  N 
ATOM      9 H    LYS D   4       2.990  11.488  31.747  1.00 14.79 LIG 0.16  HD
ATOM     10 O    THR D   3       2.623   8.579  30.812  1.00 15.79 LIG-0.27  OA
BRANCH 8 11
ATOM     11  CA  LYS D   4       1.272  11.092  30.783  1.00 18.13 LIG 0.16  C 
BRANCH 11 12
ATOM     12  C   LYS D   4       1.202  12.407  30.018  1.00 20.20 LIG 0.22  C 
ATOM     13 O    LYS D   4       0.119  12.648  29.419  1.00 21.26 LIG-0.29  OA
ENDBRANCH 11 12
BRANCH 11 14
ATOM     14  CB  LYS D   4       0.187  11.117  31.890  1.00 18.02 LIG 0.03  C 
BRANCH 14 15
ATOM     15  CG  LYS D   4       0.663  11.758  33.174  1.00 21.48 LIG 0.00  C 
BRANCH 15 16
ATOM     16  CD  LYS D   4       1.042  10.735  34.217  1.00 25.56 LIG 0.03  C 
BRANCH 16 17
ATOM     17  CE  LYS D   4       2.235  11.249  35.054  1.00 25.12 LIG 0.23  C 
BRANCH 17 18
ATOM     18  NZ  LYS D   4       3.552  11.167  34.300  1.00 20.07 LIG-0.08  N 
ATOM     19 HZ1  LYS D   4       4.156  11.682  34.700  1.00 20.07 LIG 0.27  HD
ATOM     20 HZ2  LYS D   4       3.838  10.325  34.293  1.00 20.07 LIG 0.27  HD
ATOM     21 HZ3  LYS D   4       3.432  11.446  33.463  1.00 20.07 LIG 0.27  HD
ENDBRANCH 17 18
ENDBRANCH 16 17
ENDBRANCH 15 16
ENDBRANCH 14 15
ENDBRANCH 11 14
ENDBRANCH 8 11
ENDBRANCH 6 7
BRANCH 6 22
ATOM     22  CB  THR D   3       5.609  10.155  31.383  1.00 14.57 LIG 0.15  C 
ATOM     23  CG2 THR D   3       5.543   9.927  29.844  1.00 14.25 LIG 0.04  C 
BRANCH 22 24
ATOM     24 OG1  THR D   3       5.514  11.559  31.673  1.00 15.86 LIG-0.39  OA
ATOM     25 HG1  THR D   3       5.336  11.666  32.487  1.00 15.86 LIG 0.21  HD
ENDBRANCH 22 24
ENDBRANCH 6 22
ENDBRANCH 3 6
ENDBRANCH 1 2
BRANCH 1 26
ATOM     26  CB  ARG D   2       4.047   4.979  33.140  1.00  9.49 LIG 0.04  C 
BRANCH 26 27
ATOM     27  CG  ARG D   2       4.409   4.556  31.666  1.00 10.73 LIG 0.02  C 
BRANCH 27 28
ATOM     28  CD  ARG D   2       5.648   3.649  31.721  1.00 10.86 LIG 0.14  C 
BRANCH 28 29
ATOM     29  NE  ARG D   2       6.013   3.168  30.413  1.00 10.69 LIG-0.23  N 
ATOM     30  CZ  ARG D   2       6.966   3.717  29.609  1.00  9.43 LIG 0.67  C 
ATOM     31  NH1 ARG D   2       7.644   4.822  29.954  1.00 10.34 LIG-0.23  N 
ATOM     32  NH2 ARG D   2       7.160   3.210  28.411  1.00 11.18 LIG-0.23  N 
ATOM     33 2HH1 ARG D   2       8.240   5.143  29.424  1.00 10.34 LIG 0.17  HD
ATOM     34 1HH1 ARG D   2       7.483   5.209  30.705  1.00 10.34 LIG 0.17  HD
ATOM     35 2HH2 ARG D   2       7.759   3.546  27.893  1.00 11.18 LIG 0.17  HD
ATOM     36 1HH2 ARG D   2       6.689   2.542  28.145  1.00 11.18 LIG 0.17  HD
ATOM     37 HE   ARG D   2       5.595   2.479  30.115  1.00 10.69 LIG 0.18  HD
ENDBRANCH 28 29
ENDBRANCH 27 28
ENDBRANCH 26 27
ENDBRANCH 1 26
BRANCH 1 38
ATOM     38  N   ARG D   2       5.367   5.685  35.115  1.00  9.04 LIG-0.35  N 
ATOM     39 H    ARG D   2       4.838   6.053  35.685  1.00  9.04 LIG 0.16  HD
ATOM     40  C   ALA D   1       6.402   4.890  35.436  1.00 11.17 LIG 0.24  C 
ATOM     41 O    ALA D   1       7.117   4.391  34.567  1.00 13.49 LIG-0.27  OA
BRANCH 40 42
ATOM     42  CA  ALA D   1       6.641   4.565  36.898  1.00 12.65 LIG 0.17  C 
ATOM     43  CB  ALA D   1       6.035   5.638  37.831  1.00 13.08 LIG 0.04  C 
BRANCH 42 44
ATOM     44  N   ALA D   1       8.064   4.417  37.229  1.00 12.52 LIG-0.35  N 
ATOM     45  C   ACE D   0       9.119   5.525  37.312  1.00 13.59 LIG 0.21  C 
ATOM     46 O    ACE D   0       8.662   6.684  37.049  1.00 14.78 LIG-0.27  OA
ATOM     47  CH3 ACE D   0      10.536   5.172  37.673  1.00 14.73 LIG 0.12  C 
ATOM     48 H    ALA D   1       8.271   3.597  37.383  1.00 12.52 LIG 0.16  HD
ENDBRANCH 42 44
ENDBRANCH 40 42
ENDBRANCH 1 38
TORSDOF 19
ENDMDL
MODEL 51
USER: ADFR SOLUTION from run 185
USER: SCORE 15.009529 LL:  -2.382 LR: -13.567 RR:   0.000 FEB:  -7.899
USER: RMSD 6.117569
USER: SEED 184
USER: STATUS no improvement in best in 6 clusters for 5 generations
USER: GENES 21
USER: genes 0 Translation |==|  0.38612 0.49495 0.56754
USER: genes 1 Rotation |==|  0.55101 0.13563 0.77062 0.70347
USER: genes 2 Torsion [N]-CA--C-[N] |==|  0.53887
USER: genes 3 Torsion [C]-N--CA-[C] |==|  0.77117
USER: genes 4 Torsion [N]-CA--C-[N] |==|  0.18609
USER: genes 5 Torsion [C]-N--CA-[CB] |==|  0.38980
USER: genes 6 Torsion [N]-CA--C-[O] |==|  0.81868
USER: genes 7 Torsion [N]-CA--CB-[CG] |==|  0.53139
USER: genes 8 Torsion [CA]-CB--CG-[CD] |==|  0.63111
USER: genes 9 Torsion [CB]-CG--CD-[CE] |==|  0.23087
USER: genes 10 Torsion [CG]-CD--CE-[NZ] |==|  0.12508
USER: genes 11 Torsion [CD]-CE--NZ-[HZ1] |==|  0.86063
USER: genes 12 Torsion [N]-CA--CB-[CG2] |==|  0.61420
USER: genes 13 Torsion [CA]-CB--OG1-[HG1] |==|  0.32368
USER: genes 14 Torsion [C]-CA--CB-[CG] |==|  0.88118
USER: genes 15 Torsion [CA]-CB--CG-[CD] |==|  0.82061
USER: genes 16 Torsion [CB]-CG--CD-[NE] |==|  0.60594
USER: genes 17 Torsion [CG]-CD--NE-[CZ] |==|  0.19531
USER: genes 18 Torsion [C]-CA--N-[C] |==|  0.71331
USER: genes 19 Torsion [N]-C--CA-[N] |==|  0.42565
USER: genes 20 Torsion [C]-CA--N-[C] |==|  0.72309
ROOT
ATOM      1  CA  ARG D   2       2.689   7.337  34.713  1.00  9.56 LIG 0.18  C 
ENDROOT
BRANCH 1 2
ATOM      2  C   ARG D   2       4.144   6.842  34.495  1.00 11.06 LIG 0.24  C 
ATOM      3  N   THR D   3       4.569   5.881  35.309  1.00 11.45 LIG-0.34  N 
ATOM      4 H    THR D   3       4.085   5.488  35.901  1.00 11.45 LIG 0.16  HD
ATOM      5 O    ARG D   2       4.853   7.291  33.580  1.00  9.90 LIG-0.27  OA
BRANCH 3 6
ATOM      6  CA  THR D   3       5.934   5.430  35.231  1.00 13.43 LIG 0.20  C 
BRANCH 6 7
ATOM      7  C   THR D   3       6.139   4.410  34.120  1.00 15.00 LIG 0.24  C 
ATOM      8  N   LYS D   4       5.994   4.857  32.856  1.00 14.79 LIG-0.35  N 
ATOM      9 H    LYS D   4       5.849   5.680  32.650  1.00 14.79 LIG 0.16  HD
ATOM     10 O    THR D   3       6.410   3.234  34.430  1.00 15.79 LIG-0.27  OA
BRANCH 8 11
ATOM     11  CA  LYS D   4       6.077   3.932  31.684  1.00 18.13 LIG 0.16  C 
BRANCH 11 12
ATOM     12  C   LYS D   4       7.435   3.911  30.997  1.00 20.20 LIG 0.22  C 
ATOM     13 O    LYS D   4       7.792   4.981  30.433  1.00 21.26 LIG-0.29  OA
ENDBRANCH 11 12
BRANCH 11 14
ATOM     14  CB  LYS D   4       5.007   4.325  30.633  1.00 18.02 LIG 0.03  C 
BRANCH 14 15
ATOM     15  CG  LYS D   4       4.834   3.289  29.546  1.00 21.48 LIG 0.00  C 
BRANCH 15 16
ATOM     16  CD  LYS D   4       4.824   3.904  28.168  1.00 25.56 LIG 0.03  C 
BRANCH 16 17
ATOM     17  CE  LYS D   4       6.274   4.122  27.675  1.00 25.12 LIG 0.23  C 
BRANCH 17 18
ATOM     18  NZ  LYS D   4       7.162   2.917  27.935  1.00 20.07 LIG-0.08  N 
ATOM     19 HZ1  LYS D   4       7.081   2.665  28.784  1.00 20.07 LIG 0.27  HD
ATOM     20 HZ2  LYS D   4       6.918   2.248  27.402  1.00 20.07 LIG 0.27  HD
ATOM     21 HZ3  LYS D   4       8.010   3.133  27.771  1.00 20.07 LIG 0.27  HD
ENDBRANCH 17 18
ENDBRANCH 16 17
ENDBRANCH 15 16
ENDBRANCH 14 15
ENDBRANCH 11 14
ENDBRANCH 8 11
ENDBRANCH 6 7
BRANCH 6 22
ATOM     22  CB  THR D   3       6.469   4.865  36.597  1.00 14.57 LIG 0.15  C 
ATOM     23  CG2 THR D   3       7.931   5.333  36.856  1.00 14.25 LIG 0.04  C 
BRANCH 22 24
ATOM     24 OG1  THR D   3       5.621   5.297  37.672  1.00 15.86 LIG-0.39  OA
ATOM     25 HG1  THR D   3       5.259   4.628  38.030  1.00 15.86 LIG 0.21  HD
ENDBRANCH 22 24
ENDBRANCH 6 22
ENDBRANCH 3 6
ENDBRANCH 1 2
BRANCH 1 26
ATOM     26  CB  ARG D   2       1.704   6.189  34.998  1.00  9.49 LIG 0.04  C 
BRANCH 26 27
ATOM     27  CG  ARG D   2       1.963   4.959  34.048  1.00 10.73 LIG 0.02  C 
BRANCH 27 28
ATOM     28  CD  ARG D   2       1.671   5.402  32.605  1.00 10.86 LIG 0.14  C 
BRANCH 28 29
ATOM     29  NE  ARG D   2       1.029   4.358  31.849  1.00 10.69 LIG-0.23  N 
ATOM     30  CZ  ARG D   2      -0.248   3.921  32.034  1.00  9.43 LIG 0.67  C 
ATOM     31  NH1 ARG D   2      -1.038   4.408  33.003  1.00 10.34 LIG-0.23  N 
ATOM     32  NH2 ARG D   2      -0.692   2.918  31.308  1.00 11.18 LIG-0.23  N 
ATOM     33 2HH1 ARG D   2      -1.840   4.111  33.094  1.00 10.34 LIG 0.17  HD
ATOM     34 1HH1 ARG D   2      -0.743   5.017  33.533  1.00 10.34 LIG 0.17  HD
ATOM     35 2HH2 ARG D   2      -1.496   2.632  31.415  1.00 11.18 LIG 0.17  HD
ATOM     36 1HH2 ARG D   2      -0.178   2.548  30.727  1.00 11.18 LIG 0.17  HD
ATOM     37 HE   ARG D   2       1.489   3.979  31.230  1.00 10.69 LIG 0.18  HD
ENDBRANCH 28 29
ENDBRANCH 27 28
ENDBRANCH 26 27
ENDBRANCH 1 26
BRANCH 1 38
ATOM     38  N   ARG D   2       2.236   8.140  33.566  1.00  9.04 LIG-0.35  N 
ATOM     39 H    ARG D   2       2.017   7.688  32.868  1.00  9.04 LIG 0.16  HD
ATOM     40  C   ALA D   1       2.185   9.481  33.655  1.00 11.17 LIG 0.24  C 
ATOM     41 O    ALA D   1       2.509  10.064  34.688  1.00 13.49 LIG-0.27  OA
BRANCH 40 42
ATOM     42  CA  ALA D   1       1.661  10.266  32.468  1.00 12.65 LIG 0.17  C 
ATOM     43  CB  ALA D   1       2.765  10.526  31.418  1.00 13.08 LIG 0.04  C 
BRANCH 42 44
ATOM     44  N   ALA D   1       1.074  11.558  32.848  1.00 12.52 LIG-0.35  N 
ATOM     45  C   ACE D   0      -0.413  11.888  33.018  1.00 13.59 LIG 0.21  C 
ATOM     46 O    ACE D   0      -1.183  10.902  32.785  1.00 14.78 LIG-0.27  OA
ATOM     47  CH3 ACE D   0      -0.820  13.280  33.419  1.00 14.73 LIG 0.12  C 
ATOM     48 H    ALA D   1       1.678  12.157  32.976  1.00 12.52 LIG 0.16  HD
ENDBRANCH 42 44
ENDBRANCH 40 42
ENDBRANCH 1 38
TORSDOF 19
ENDMDL
MODEL 52
USER: ADFR SOLUTION from run 118
USER: SCORE 15.048183 LL:  -2.440 LR: -13.564 RR:   0.000 FEB:  -7.896
USER: RMSD 7.499813
USER: SEED 117
USER: STATUS no improvement in best in 5 clusters for 5 generations
USER: GENES 21
USER: genes 0 Translation |==|  0.25414 0.42358 0.51250
USER: genes 1 Rotation |==|  0.32935 0.90839 0.27784 0.56889
USER: genes 2 Torsion [N]-CA--C-[N] |==|  0.91747
USER: genes 3 Torsion [C]-N--CA-[C] |==|  0.14255
USER: genes 4 Torsion [N]-CA--C-[N] |==|  0.13400
USER: genes 5 Torsion [C]-N--CA-[CB] |==|  0.11551
USER: genes 6 Torsion [N]-CA--C-[O] |==|  0.34983
USER: genes 7 Torsion [N]-CA--CB-[CG] |==|  0.66984
USER: genes 8 Torsion [CA]-CB--CG-[CD] |==|  0.04393
USER: genes 9 Torsion [CB]-CG--CD-[CE] |==|  0.52483
USER: genes 10 Torsion [CG]-CD--CE-[NZ] |==|  0.68045
USER: genes 11 Torsion [CD]-CE--NZ-[HZ1] |==|  0.26977
USER: genes 12 Torsion [N]-CA--CB-[CG2] |==|  0.78614
USER: genes 13 Torsion [CA]-CB--OG1-[HG1] |==|  0.37163
USER: genes 14 Torsion [C]-CA--CB-[CG] |==|  0.81457
USER: genes 15 Torsion [CA]-CB--CG-[CD] |==|  0.62328
USER: genes 16 Torsion [CB]-CG--CD-[NE] |==|  0.16067
USER: genes 17 Torsion [CG]-CD--NE-[CZ] |==|  0.67437
USER: genes 18 Torsion [C]-CA--N-[C] |==|  0.70839
USER: genes 19 Torsion [N]-C--CA-[N] |==|  0.80200
USER: genes 20 Torsion [C]-CA--N-[C] |==|  0.68547
ROOT
ATOM      1  CA  ARG D   2       0.116   6.213  33.764  1.00  9.56 LIG 0.18  C 
ENDROOT
BRANCH 1 2
ATOM      2  C   ARG D   2       1.278   6.882  34.546  1.00 11.06 LIG 0.24  C 
ATOM      3  N   THR D   3       1.937   7.848  33.912  1.00 11.45 LIG-0.34  N 
ATOM      4 H    THR D   3       1.734   8.155  33.136  1.00 11.45 LIG 0.16  HD
ATOM      5 O    ARG D   2       1.545   6.560  35.715  1.00  9.90 LIG-0.27  OA
BRANCH 3 6
ATOM      6  CA  THR D   3       3.085   8.455  34.534  1.00 13.43 LIG 0.20  C 
BRANCH 6 7
ATOM      7  C   THR D   3       4.093   7.421  35.014  1.00 15.00 LIG 0.24  C 
ATOM      8  N   LYS D   4       4.432   6.456  34.135  1.00 14.79 LIG-0.35  N 
ATOM      9 H    LYS D   4       4.156   6.429  33.321  1.00 14.79 LIG 0.16  HD
ATOM     10 O    THR D   3       4.532   7.509  36.177  1.00 15.79 LIG-0.27  OA
BRANCH 8 11
ATOM     11  CA  LYS D   4       5.338   5.331  34.520  1.00 18.13 LIG 0.16  C 
BRANCH 11 12
ATOM     12  C   LYS D   4       5.300   4.142  33.570  1.00 20.20 LIG 0.22  C 
ATOM     13 O    LYS D   4       6.409   3.766  33.101  1.00 21.26 LIG-0.29  OA
ENDBRANCH 11 12
BRANCH 11 14
ATOM     14  CB  LYS D   4       4.971   4.829  35.940  1.00 18.02 LIG 0.03  C 
BRANCH 14 15
ATOM     15  CG  LYS D   4       6.102   4.974  36.932  1.00 21.48 LIG 0.00  C 
BRANCH 15 16
ATOM     16  CD  LYS D   4       7.181   5.907  36.437  1.00 25.56 LIG 0.03  C 
BRANCH 16 17
ATOM     17  CE  LYS D   4       8.406   5.846  37.378  1.00 25.12 LIG 0.23  C 
BRANCH 17 18
ATOM     18  NZ  LYS D   4       8.655   7.164  38.093  1.00 20.07 LIG-0.08  N 
ATOM     19 HZ1  LYS D   4       8.293   7.134  38.905  1.00 20.07 LIG 0.27  HD
ATOM     20 HZ2  LYS D   4       9.531   7.303  38.163  1.00 20.07 LIG 0.27  HD
ATOM     21 HZ3  LYS D   4       8.285   7.828  37.629  1.00 20.07 LIG 0.27  HD
ENDBRANCH 17 18
ENDBRANCH 16 17
ENDBRANCH 15 16
ENDBRANCH 14 15
ENDBRANCH 11 14
ENDBRANCH 8 11
ENDBRANCH 6 7
BRANCH 6 22
ATOM     22  CB  THR D   3       2.700   9.429  35.708  1.00 14.57 LIG 0.15  C 
ATOM     23  CG2 THR D   3       2.173  10.785  35.153  1.00 14.25 LIG 0.04  C 
BRANCH 22 24
ATOM     24 OG1  THR D   3       1.699   8.820  36.540  1.00 15.86 LIG-0.39  OA
ATOM     25 HG1  THR D   3       1.910   8.917  37.347  1.00 15.86 LIG 0.21  HD
ENDBRANCH 22 24
ENDBRANCH 6 22
ENDBRANCH 3 6
ENDBRANCH 1 2
BRANCH 1 26
ATOM     26  CB  ARG D   2       0.547   4.926  33.038  1.00  9.49 LIG 0.04  C 
BRANCH 26 27
ATOM     27  CG  ARG D   2       1.566   5.234  31.876  1.00 10.73 LIG 0.02  C 
BRANCH 27 28
ATOM     28  CD  ARG D   2       1.145   4.416  30.645  1.00 10.86 LIG 0.14  C 
BRANCH 28 29
ATOM     29  NE  ARG D   2      -0.203   4.722  30.240  1.00 10.69 LIG-0.23  N 
ATOM     30  CZ  ARG D   2      -1.242   3.842  30.227  1.00  9.43 LIG 0.67  C 
ATOM     31  NH1 ARG D   2      -1.090   2.550  30.559  1.00 10.34 LIG-0.23  N 
ATOM     32  NH2 ARG D   2      -2.413   4.241  29.780  1.00 11.18 LIG-0.23  N 
ATOM     33 2HH1 ARG D   2      -1.766   2.020  30.541  1.00 10.34 LIG 0.17  HD
ATOM     34 1HH1 ARG D   2      -0.316   2.253  30.790  1.00 10.34 LIG 0.17  HD
ATOM     35 2HH2 ARG D   2      -3.077   3.695  29.767  1.00 11.18 LIG 0.17  HD
ATOM     36 1HH2 ARG D   2      -2.514   5.047  29.500  1.00 11.18 LIG 0.17  HD
ATOM     37 HE   ARG D   2      -0.365   5.527  29.984  1.00 10.69 LIG 0.18  HD
ENDBRANCH 28 29
ENDBRANCH 27 28
ENDBRANCH 26 27
ENDBRANCH 1 26
BRANCH 1 38
ATOM     38  N   ARG D   2      -0.491   7.165  32.819  1.00  9.04 LIG-0.35  N 
ATOM     39 H    ARG D   2      -0.027   7.323  32.112  1.00  9.04 LIG 0.16  HD
ATOM     40  C   ALA D   1      -1.686   7.719  33.089  1.00 11.17 LIG 0.24  C 
ATOM     41 O    ALA D   1      -2.299   7.444  34.119  1.00 13.49 LIG-0.27  OA
BRANCH 40 42
ATOM     42  CA  ALA D   1      -2.299   8.653  32.063  1.00 12.65 LIG 0.17  C 
ATOM     43  CB  ALA D   1      -2.333   8.017  30.655  1.00 13.08 LIG 0.04  C 
BRANCH 42 44
ATOM     44  N   ALA D   1      -1.603   9.943  31.970  1.00 12.52 LIG-0.35  N 
ATOM     45  C   ACE D   0      -2.146  11.322  32.359  1.00 13.59 LIG 0.21  C 
ATOM     46 O    ACE D   0      -3.340  11.293  32.799  1.00 14.78 LIG-0.27  OA
ATOM     47  CH3 ACE D   0      -1.271  12.535  32.193  1.00 14.73 LIG 0.12  C 
ATOM     48 H    ALA D   1      -0.807   9.852  31.657  1.00 12.52 LIG 0.16  HD
ENDBRANCH 42 44
ENDBRANCH 40 42
ENDBRANCH 1 38
TORSDOF 19
ENDMDL
MODEL 53
USER: ADFR SOLUTION from run 101
USER: SCORE 16.459294 LL:  -3.202 LR: -13.562 RR:   0.000 FEB:  -7.894
USER: RMSD 6.081166
USER: SEED 100
USER: STATUS no improvement in best in 4 clusters for 5 generations
USER: GENES 21
USER: genes 0 Translation |==|  0.51124 0.57397 0.42534
USER: genes 1 Rotation |==|  0.22019 0.35221 0.67554 0.84504
USER: genes 2 Torsion [N]-CA--C-[N] |==|  0.48669
USER: genes 3 Torsion [C]-N--CA-[C] |==|  0.77623
USER: genes 4 Torsion [N]-CA--C-[N] |==|  0.00390
USER: genes 5 Torsion [C]-N--CA-[CB] |==|  0.80142
USER: genes 6 Torsion [N]-CA--C-[O] |==|  0.23979
USER: genes 7 Torsion [N]-CA--CB-[CG] |==|  0.84810
USER: genes 8 Torsion [CA]-CB--CG-[CD] |==|  0.42143
USER: genes 9 Torsion [CB]-CG--CD-[CE] |==|  0.34402
USER: genes 10 Torsion [CG]-CD--CE-[NZ] |==|  0.61514
USER: genes 11 Torsion [CD]-CE--NZ-[HZ1] |==|  0.77369
USER: genes 12 Torsion [N]-CA--CB-[CG2] |==|  0.58240
USER: genes 13 Torsion [CA]-CB--OG1-[HG1] |==|  0.42817
USER: genes 14 Torsion [C]-CA--CB-[CG] |==|  0.75801
USER: genes 15 Torsion [CA]-CB--CG-[CD] |==|  0.43500
USER: genes 16 Torsion [CB]-CG--CD-[NE] |==|  0.83018
USER: genes 17 Torsion [CG]-CD--NE-[CZ] |==|  0.24444
USER: genes 18 Torsion [C]-CA--N-[C] |==|  0.55881
USER: genes 19 Torsion [N]-C--CA-[N] |==|  0.90946
USER: genes 20 Torsion [C]-CA--N-[C] |==|  0.83889
ROOT
ATOM      1  CA  ARG D   2       5.129   8.582  32.260  1.00  9.56 LIG 0.18  C 
ENDROOT
BRANCH 1 2
ATOM      2  C   ARG D   2       4.751   7.314  33.071  1.00 11.06 LIG 0.24  C 
ATOM      3  N   THR D   3       4.869   7.401  34.393  1.00 11.45 LIG-0.34  N 
ATOM      4 H    THR D   3       5.086   8.114  34.822  1.00 11.45 LIG 0.16  HD
ATOM      5 O    ARG D   2       4.320   6.291  32.515  1.00  9.90 LIG-0.27  OA
BRANCH 3 6
ATOM      6  CA  THR D   3       4.624   6.241  35.210  1.00 13.43 LIG 0.20  C 
BRANCH 6 7
ATOM      7  C   THR D   3       3.139   6.005  35.443  1.00 15.00 LIG 0.24  C 
ATOM      8  N   LYS D   4       2.291   6.868  34.847  1.00 14.79 LIG-0.35  N 
ATOM      9 H    LYS D   4       2.538   7.495  34.312  1.00 14.79 LIG 0.16  HD
ATOM     10 O    THR D   3       2.791   5.055  36.170  1.00 15.79 LIG-0.27  OA
BRANCH 8 11
ATOM     11  CA  LYS D   4       0.815   6.798  35.077  1.00 18.13 LIG 0.16  C 
BRANCH 11 12
ATOM     12  C   LYS D   4       0.411   6.744  36.544  1.00 20.20 LIG 0.22  C 
ATOM     13 O    LYS D   4       0.284   7.853  37.130  1.00 21.26 LIG-0.29  OA
ENDBRANCH 11 12
BRANCH 11 14
ATOM     14  CB  LYS D   4       0.236   5.548  34.368  1.00 18.02 LIG 0.03  C 
BRANCH 14 15
ATOM     15  CG  LYS D   4       0.573   5.490  32.896  1.00 21.48 LIG 0.00  C 
BRANCH 15 16
ATOM     16  CD  LYS D   4       0.636   4.072  32.380  1.00 25.56 LIG 0.03  C 
BRANCH 16 17
ATOM     17  CE  LYS D   4      -0.336   3.899  31.189  1.00 25.12 LIG 0.23  C 
BRANCH 17 18
ATOM     18  NZ  LYS D   4      -1.090   2.581  31.243  1.00 20.07 LIG-0.08  N 
ATOM     19 HZ1  LYS D   4      -0.576   1.931  30.920  1.00 20.07 LIG 0.27  HD
ATOM     20 HZ2  LYS D   4      -1.306   2.397  32.086  1.00 20.07 LIG 0.27  HD
ATOM     21 HZ3  LYS D   4      -1.831   2.643  30.754  1.00 20.07 LIG 0.27  HD
ENDBRANCH 17 18
ENDBRANCH 16 17
ENDBRANCH 15 16
ENDBRANCH 14 15
ENDBRANCH 11 14
ENDBRANCH 8 11
ENDBRANCH 6 7
BRANCH 6 22
ATOM     22  CB  THR D   3       5.392   6.288  36.581  1.00 14.57 LIG 0.15  C 
ATOM     23  CG2 THR D   3       5.732   4.851  37.076  1.00 14.25 LIG 0.04  C 
BRANCH 22 24
ATOM     24 OG1  THR D   3       6.599   7.054  36.441  1.00 15.86 LIG-0.39  OA
ATOM     25 HG1  THR D   3       6.815   7.375  37.187  1.00 15.86 LIG 0.21  HD
ENDBRANCH 22 24
ENDBRANCH 6 22
ENDBRANCH 3 6
ENDBRANCH 1 2
BRANCH 1 26
ATOM     26  CB  ARG D   2       4.268   9.805  32.627  1.00  9.49 LIG 0.04  C 
BRANCH 26 27
ATOM     27  CG  ARG D   2       2.940   9.849  31.780  1.00 10.73 LIG 0.02  C 
BRANCH 27 28
ATOM     28  CD  ARG D   2       1.907  10.679  32.558  1.00 10.86 LIG 0.14  C 
BRANCH 28 29
ATOM     29  NE  ARG D   2       1.606  10.088  33.837  1.00 10.69 LIG-0.23  N 
ATOM     30  CZ  ARG D   2       2.286  10.322  34.994  1.00  9.43 LIG 0.67  C 
ATOM     31  NH1 ARG D   2       3.366  11.117  35.041  1.00 10.34 LIG-0.23  N 
ATOM     32  NH2 ARG D   2       1.938   9.671  36.083  1.00 11.18 LIG-0.23  N 
ATOM     33 2HH1 ARG D   2       3.773  11.244  35.788  1.00 10.34 LIG 0.17  HD
ATOM     34 1HH1 ARG D   2       3.651  11.499  34.325  1.00 10.34 LIG 0.17  HD
ATOM     35 2HH2 ARG D   2       2.359   9.809  36.820  1.00 11.18 LIG 0.17  HD
ATOM     36 1HH2 ARG D   2       1.290   9.107  36.058  1.00 11.18 LIG 0.17  HD
ATOM     37 HE   ARG D   2       0.942   9.542  33.873  1.00 10.69 LIG 0.18  HD
ENDBRANCH 28 29
ENDBRANCH 27 28
ENDBRANCH 26 27
ENDBRANCH 1 26
BRANCH 1 38
ATOM     38  N   ARG D   2       5.063   8.314  30.814  1.00  9.04 LIG-0.35  N 
ATOM     39 H    ARG D   2       4.575   7.642  30.590  1.00  9.04 LIG 0.16  HD
ATOM     40  C   ALA D   1       5.735   9.093  29.949  1.00 11.17 LIG 0.24  C 
ATOM     41 O    ALA D   1       6.412  10.043  30.339  1.00 13.49 LIG-0.27  OA
BRANCH 40 42
ATOM     42  CA  ALA D   1       5.596   8.815  28.465  1.00 12.65 LIG 0.17  C 
ATOM     43  CB  ALA D   1       4.424   9.604  27.840  1.00 13.08 LIG 0.04  C 
BRANCH 42 44
ATOM     44  N   ALA D   1       5.406   7.390  28.162  1.00 12.52 LIG-0.35  N 
ATOM     45  C   ACE D   0       6.338   6.230  28.527  1.00 13.59 LIG 0.21  C 
ATOM     46 O    ACE D   0       7.383   6.595  29.156  1.00 14.78 LIG-0.27  OA
ATOM     47  CH3 ACE D   0       5.965   4.828  28.129  1.00 14.73 LIG 0.12  C 
ATOM     48 H    ALA D   1       4.675   7.251  27.731  1.00 12.52 LIG 0.16  HD
ENDBRANCH 42 44
ENDBRANCH 40 42
ENDBRANCH 1 38
TORSDOF 19
ENDMDL
MODEL 54
USER: ADFR SOLUTION from run 91
USER: SCORE 15.589348 LL:  -2.302 LR: -13.534 RR:   0.000 FEB:  -7.866
USER: RMSD 7.646588
USER: SEED 90
USER: STATUS no improvement in best in 2 clusters for 5 generations
USER: GENES 21
USER: genes 0 Translation |==|  0.34960 0.43767 0.55791
USER: genes 1 Rotation |==|  0.44258 0.11917 0.68914 0.75671
USER: genes 2 Torsion [N]-CA--C-[N] |==|  0.03707
USER: genes 3 Torsion [C]-N--CA-[C] |==|  0.80046
USER: genes 4 Torsion [N]-CA--C-[N] |==|  0.96247
USER: genes 5 Torsion [C]-N--CA-[CB] |==|  0.32203
USER: genes 6 Torsion [N]-CA--C-[O] |==|  0.82012
USER: genes 7 Torsion [N]-CA--CB-[CG] |==|  0.46447
USER: genes 8 Torsion [CA]-CB--CG-[CD] |==|  0.30629
USER: genes 9 Torsion [CB]-CG--CD-[CE] |==|  0.78314
USER: genes 10 Torsion [CG]-CD--CE-[NZ] |==|  0.41930
USER: genes 11 Torsion [CD]-CE--NZ-[HZ1] |==|  0.89583
USER: genes 12 Torsion [N]-CA--CB-[CG2] |==|  0.06615
USER: genes 13 Torsion [CA]-CB--OG1-[HG1] |==|  0.77459
USER: genes 14 Torsion [C]-CA--CB-[CG] |==|  0.76095
USER: genes 15 Torsion [CA]-CB--CG-[CD] |==|  0.18137
USER: genes 16 Torsion [CB]-CG--CD-[NE] |==|  0.36930
USER: genes 17 Torsion [CG]-CD--NE-[CZ] |==|  0.36999
USER: genes 18 Torsion [C]-CA--N-[C] |==|  0.69294
USER: genes 19 Torsion [N]-C--CA-[N] |==|  0.33574
USER: genes 20 Torsion [C]-CA--N-[C] |==|  0.83792
ROOT
ATOM      1  CA  ARG D   2       1.977   6.435  34.547  1.00  9.56 LIG 0.18  C 
ENDROOT
BRANCH 1 2
ATOM      2  C   ARG D   2       2.942   5.234  34.354  1.00 11.06 LIG 0.24  C 
ATOM      3  N   THR D   3       3.910   5.393  33.457  1.00 11.45 LIG-0.34  N 
ATOM      4 H    THR D   3       4.065   6.118  33.023  1.00 11.45 LIG 0.16  HD
ATOM      5 O    ARG D   2       2.838   4.201  35.036  1.00  9.90 LIG-0.27  OA
BRANCH 3 6
ATOM      6  CA  THR D   3       4.790   4.294  33.155  1.00 13.43 LIG 0.20  C 
BRANCH 6 7
ATOM      7  C   THR D   3       5.759   4.005  34.292  1.00 15.00 LIG 0.24  C 
ATOM      8  N   LYS D   4       5.859   4.945  35.254  1.00 14.79 LIG-0.35  N 
ATOM      9 H    LYS D   4       5.375   5.656  35.283  1.00 14.79 LIG 0.16  HD
ATOM     10 O    THR D   3       6.409   2.941  34.268  1.00 15.79 LIG-0.27  OA
BRANCH 8 11
ATOM     11  CA  LYS D   4       6.844   4.820  36.371  1.00 18.13 LIG 0.16  C 
BRANCH 11 12
ATOM     12  C   LYS D   4       6.223   4.843  37.761  1.00 20.20 LIG 0.22  C 
ATOM     13 O    LYS D   4       5.656   5.917  38.101  1.00 21.26 LIG-0.29  OA
ENDBRANCH 11 12
BRANCH 11 14
ATOM     14  CB  LYS D   4       7.880   5.970  36.284  1.00 18.02 LIG 0.03  C 
BRANCH 14 15
ATOM     15  CG  LYS D   4       8.723   6.107  37.531  1.00 21.48 LIG 0.00  C 
BRANCH 15 16
ATOM     16  CD  LYS D   4      10.157   5.700  37.299  1.00 25.56 LIG 0.03  C 
BRANCH 16 17
ATOM     17  CE  LYS D   4      10.276   4.158  37.293  1.00 25.12 LIG 0.23  C 
BRANCH 17 18
ATOM     18  NZ  LYS D   4      11.418   3.667  36.418  1.00 20.07 LIG-0.08  N 
ATOM     19 HZ1  LYS D   4      11.476   4.177  35.691  1.00 20.07 LIG 0.27  HD
ATOM     20 HZ2  LYS D   4      12.181   3.712  36.873  1.00 20.07 LIG 0.27  HD
ATOM     21 HZ3  LYS D   4      11.265   2.824  36.176  1.00 20.07 LIG 0.27  HD
ENDBRANCH 17 18
ENDBRANCH 16 17
ENDBRANCH 15 16
ENDBRANCH 14 15
ENDBRANCH 11 14
ENDBRANCH 8 11
ENDBRANCH 6 7
BRANCH 6 22
ATOM     22  CB  THR D   3       5.574   4.493  31.806  1.00 14.57 LIG 0.15  C 
ATOM     23  CG2 THR D   3       5.681   6.004  31.445  1.00 14.25 LIG 0.04  C 
BRANCH 22 24
ATOM     24 OG1  THR D   3       6.888   3.923  31.915  1.00 15.86 LIG-0.39  OA
ATOM     25 HG1  THR D   3       7.395   4.462  32.312  1.00 15.86 LIG 0.21  HD
ENDBRANCH 22 24
ENDBRANCH 6 22
ENDBRANCH 3 6
ENDBRANCH 1 2
BRANCH 1 26
ATOM     26  CB  ARG D   2       0.505   6.004  34.676  1.00  9.49 LIG 0.04  C 
BRANCH 26 27
ATOM     27  CG  ARG D   2      -0.176   5.851  33.264  1.00 10.73 LIG 0.02  C 
BRANCH 27 28
ATOM     28  CD  ARG D   2       0.512   4.691  32.526  1.00 10.86 LIG 0.14  C 
BRANCH 28 29
ATOM     29  NE  ARG D   2      -0.448   3.795  31.935  1.00 10.69 LIG-0.23  N 
ATOM     30  CZ  ARG D   2      -0.397   3.313  30.662  1.00  9.43 LIG 0.67  C 
ATOM     31  NH1 ARG D   2       0.561   3.678  29.795  1.00 10.34 LIG-0.23  N 
ATOM     32  NH2 ARG D   2      -1.372   2.542  30.230  1.00 11.18 LIG-0.23  N 
ATOM     33 2HH1 ARG D   2       0.565   3.355  28.999  1.00 10.34 LIG 0.17  HD
ATOM     34 1HH1 ARG D   2       1.170   4.234  30.038  1.00 10.34 LIG 0.17  HD
ATOM     35 2HH2 ARG D   2      -1.352   2.231  29.429  1.00 11.18 LIG 0.17  HD
ATOM     36 1HH2 ARG D   2      -2.030   2.350  30.750  1.00 11.18 LIG 0.17  HD
ATOM     37 HE   ARG D   2      -1.108   3.543  32.425  1.00 10.69 LIG 0.18  HD
ENDBRANCH 28 29
ENDBRANCH 27 28
ENDBRANCH 26 27
ENDBRANCH 1 26
BRANCH 1 38
ATOM     38  N   ARG D   2       2.140   7.413  33.458  1.00  9.04 LIG-0.35  N 
ATOM     39 H    ARG D   2       1.863   7.150  32.688  1.00  9.04 LIG 0.16  HD
ATOM     40  C   ALA D   1       2.688   8.615  33.704  1.00 11.17 LIG 0.24  C 
ATOM     41 O    ALA D   1       3.059   8.929  34.834  1.00 13.49 LIG-0.27  OA
BRANCH 40 42
ATOM     42  CA  ALA D   1       2.787   9.612  32.565  1.00 12.65 LIG 0.17  C 
ATOM     43  CB  ALA D   1       4.256   9.950  32.224  1.00 13.08 LIG 0.04  C 
BRANCH 42 44
ATOM     44  N   ALA D   1       2.076  10.868  32.837  1.00 12.52 LIG-0.35  N 
ATOM     45  C   ACE D   0       0.588  11.043  33.159  1.00 13.59 LIG 0.21  C 
ATOM     46 O    ACE D   0      -0.061   9.948  33.173  1.00 14.78 LIG-0.27  OA
ATOM     47  CH3 ACE D   0       0.043  12.422  33.413  1.00 14.73 LIG 0.12  C 
ATOM     48 H    ALA D   1       2.603  11.547  32.797  1.00 12.52 LIG 0.16  HD
ENDBRANCH 42 44
ENDBRANCH 40 42
ENDBRANCH 1 38
TORSDOF 19
ENDMDL
MODEL 55
USER: ADFR SOLUTION from run 4
USER: SCORE 15.334173 LL:  -2.635 LR: -13.525 RR:   0.000 FEB:  -7.857
USER: RMSD 7.161098
USER: SEED 210606
USER: STATUS no improvement in best in 2 clusters for 5 generations
USER: GENES 21
USER: genes 0 Translation |==|  0.36679 0.68883 0.55122
USER: genes 1 Rotation |==|  0.02637 0.46851 0.34771 0.53862
USER: genes 2 Torsion [N]-CA--C-[N] |==|  0.88050
USER: genes 3 Torsion [C]-N--CA-[C] |==|  0.65674
USER: genes 4 Torsion [N]-CA--C-[N] |==|  0.93648
USER: genes 5 Torsion [C]-N--CA-[CB] |==|  0.54069
USER: genes 6 Torsion [N]-CA--C-[O] |==|  0.72051
USER: genes 7 Torsion [N]-CA--CB-[CG] |==|  0.81606
USER: genes 8 Torsion [CA]-CB--CG-[CD] |==|  0.46002
USER: genes 9 Torsion [CB]-CG--CD-[CE] |==|  0.41543
USER: genes 10 Torsion [CG]-CD--CE-[NZ] |==|  0.68805
USER: genes 11 Torsion [CD]-CE--NZ-[HZ1] |==|  0.92754
USER: genes 12 Torsion [N]-CA--CB-[CG2] |==|  0.42326
USER: genes 13 Torsion [CA]-CB--OG1-[HG1] |==|  0.17782
USER: genes 14 Torsion [C]-CA--CB-[CG] |==|  0.68660
USER: genes 15 Torsion [CA]-CB--CG-[CD] |==|  0.35034
USER: genes 16 Torsion [CB]-CG--CD-[NE] |==|  0.94243
USER: genes 17 Torsion [CG]-CD--NE-[CZ] |==|  0.52874
USER: genes 18 Torsion [C]-CA--N-[C] |==|  0.77605
USER: genes 19 Torsion [N]-C--CA-[N] |==|  0.19124
USER: genes 20 Torsion [C]-CA--N-[C] |==|  0.78758
ROOT
ATOM      1  CA  ARG D   2       2.312  10.391  34.432  1.00  9.56 LIG 0.18  C 
ENDROOT
BRANCH 1 2
ATOM      2  C   ARG D   2       1.019  11.135  34.003  1.00 11.06 LIG 0.24  C 
ATOM      3  N   THR D   3       0.358  10.622  32.970  1.00 11.45 LIG-0.34  N 
ATOM      4 H    THR D   3       0.566   9.892  32.565  1.00 11.45 LIG 0.16  HD
ATOM      5 O    ARG D   2       0.605  12.129  34.621  1.00  9.90 LIG-0.27  OA
BRANCH 3 6
ATOM      6  CA  THR D   3      -0.801  11.304  32.453  1.00 13.43 LIG 0.20  C 
BRANCH 6 7
ATOM      7  C   THR D   3      -2.035  10.414  32.448  1.00 15.00 LIG 0.24  C 
ATOM      8  N   LYS D   4      -1.820   9.083  32.442  1.00 14.79 LIG-0.35  N 
ATOM      9 H    LYS D   4      -1.041   8.721  32.495  1.00 14.79 LIG 0.16  HD
ATOM     10 O    THR D   3      -3.160  10.952  32.434  1.00 15.79 LIG-0.27  OA
BRANCH 8 11
ATOM     11  CA  LYS D   4      -2.949   8.108  32.341  1.00 18.13 LIG 0.16  C 
BRANCH 11 12
ATOM     12  C   LYS D   4      -4.148   8.445  33.217  1.00 20.20 LIG 0.22  C 
ATOM     13 O    LYS D   4      -4.248   7.804  34.298  1.00 21.26 LIG-0.29  OA
ENDBRANCH 11 12
BRANCH 11 14
ATOM     14  CB  LYS D   4      -2.451   6.692  32.726  1.00 18.02 LIG 0.03  C 
BRANCH 14 15
ATOM     15  CG  LYS D   4      -1.445   6.130  31.748  1.00 21.48 LIG 0.00  C 
BRANCH 15 16
ATOM     16  CD  LYS D   4      -0.719   4.928  32.302  1.00 25.56 LIG 0.03  C 
BRANCH 16 17
ATOM     17  CE  LYS D   4      -0.328   3.970  31.154  1.00 25.12 LIG 0.23  C 
BRANCH 17 18
ATOM     18  NZ  LYS D   4      -1.090   2.656  31.209  1.00 20.07 LIG-0.08  N 
ATOM     19 HZ1  LYS D   4      -1.336   2.490  32.048  1.00 20.07 LIG 0.27  HD
ATOM     20 HZ2  LYS D   4      -1.813   2.711  30.694  1.00 20.07 LIG 0.27  HD
ATOM     21 HZ3  LYS D   4      -0.567   1.997  30.919  1.00 20.07 LIG 0.27  HD
ENDBRANCH 17 18
ENDBRANCH 16 17
ENDBRANCH 15 16
ENDBRANCH 14 15
ENDBRANCH 11 14
ENDBRANCH 8 11
ENDBRANCH 6 7
BRANCH 6 22
ATOM     22  CB  THR D   3      -0.562  11.916  31.025  1.00 14.57 LIG 0.15  C 
ATOM     23  CG2 THR D   3      -1.898  12.008  30.231  1.00 14.25 LIG 0.04  C 
BRANCH 22 24
ATOM     24 OG1  THR D   3       0.026  13.221  31.144  1.00 15.86 LIG-0.39  OA
ATOM     25 HG1  THR D   3       0.786  13.155  31.496  1.00 15.86 LIG 0.21  HD
ENDBRANCH 22 24
ENDBRANCH 6 22
ENDBRANCH 3 6
ENDBRANCH 1 2
BRANCH 1 26
ATOM     26  CB  ARG D   2       3.531  10.766  33.569  1.00  9.49 LIG 0.04  C 
BRANCH 26 27
ATOM     27  CG  ARG D   2       4.017   9.547  32.697  1.00 10.73 LIG 0.02  C 
BRANCH 27 28
ATOM     28  CD  ARG D   2       4.071  10.003  31.230  1.00 10.86 LIG 0.14  C 
BRANCH 28 29
ATOM     29  NE  ARG D   2       3.248  11.164  31.004  1.00 10.69 LIG-0.23  N 
ATOM     30  CZ  ARG D   2       2.932  11.681  29.784  1.00  9.43 LIG 0.67  C 
ATOM     31  NH1 ARG D   2       3.411  11.166  28.642  1.00 10.34 LIG-0.23  N 
ATOM     32  NH2 ARG D   2       2.214  12.781  29.723  1.00 11.18 LIG-0.23  N 
ATOM     33 2HH1 ARG D   2       3.192  11.515  27.887  1.00 10.34 LIG 0.17  HD
ATOM     34 1HH1 ARG D   2       3.938  10.486  28.664  1.00 10.34 LIG 0.17  HD
ATOM     35 2HH2 ARG D   2       2.007  13.119  28.960  1.00 11.18 LIG 0.17  HD
ATOM     36 1HH2 ARG D   2       1.952  13.165  30.447  1.00 11.18 LIG 0.17  HD
ATOM     37 HE   ARG D   2       2.931  11.564  31.696  1.00 10.69 LIG 0.18  HD
ENDBRANCH 28 29
ENDBRANCH 27 28
ENDBRANCH 26 27
ENDBRANCH 1 26
BRANCH 1 38
ATOM     38  N   ARG D   2       2.100   8.934  34.427  1.00  9.04 LIG-0.35  N 
ATOM     39 H    ARG D   2       2.393   8.525  33.730  1.00  9.04 LIG 0.16  HD
ATOM     40  C   ALA D   1       1.487   8.336  35.463  1.00 11.17 LIG 0.24  C 
ATOM     41 O    ALA D   1       1.096   8.983  36.434  1.00 13.49 LIG-0.27  OA
BRANCH 40 42
ATOM     42  CA  ALA D   1       1.337   6.827  35.443  1.00 12.65 LIG 0.17  C 
ATOM     43  CB  ALA D   1       0.376   6.331  36.548  1.00 13.08 LIG 0.04  C 
BRANCH 42 44
ATOM     44  N   ALA D   1       2.615   6.120  35.592  1.00 12.52 LIG-0.35  N 
ATOM     45  C   ACE D   0       3.699   5.925  34.526  1.00 13.59 LIG 0.21  C 
ATOM     46 O    ACE D   0       3.406   6.445  33.402  1.00 14.78 LIG-0.27  OA
ATOM     47  CH3 ACE D   0       4.951   5.168  34.875  1.00 14.73 LIG 0.12  C 
ATOM     48 H    ALA D   1       2.712   5.802  36.386  1.00 12.52 LIG 0.16  HD
ENDBRANCH 42 44
ENDBRANCH 40 42
ENDBRANCH 1 38
TORSDOF 19
ENDMDL
MODEL 56
USER: ADFR SOLUTION from run 71
USER: SCORE 14.724704 LL:  -2.557 LR: -13.509 RR:   0.000 FEB:  -7.841
USER: RMSD 6.468563
USER: SEED 70
USER: STATUS no improvement in best in 8 clusters for 5 generations
USER: GENES 21
USER: genes 0 Translation |==|  0.46755 0.54833 0.51137
USER: genes 1 Rotation |==|  0.01165 0.40427 0.51290 0.54670
USER: genes 2 Torsion [N]-CA--C-[N] |==|  0.62718
USER: genes 3 Torsion [C]-N--CA-[C] |==|  0.69078
USER: genes 4 Torsion [N]-CA--C-[N] |==|  0.31195
USER: genes 5 Torsion [C]-N--CA-[CB] |==|  0.34682
USER: genes 6 Torsion [N]-CA--C-[O] |==|  0.75427
USER: genes 7 Torsion [N]-CA--CB-[CG] |==|  0.79383
USER: genes 8 Torsion [CA]-CB--CG-[CD] |==|  0.76554
USER: genes 9 Torsion [CB]-CG--CD-[CE] |==|  0.63044
USER: genes 10 Torsion [CG]-CD--CE-[NZ] |==|  0.24369
USER: genes 11 Torsion [CD]-CE--NZ-[HZ1] |==|  0.19600
USER: genes 12 Torsion [N]-CA--CB-[CG2] |==|  0.86740
USER: genes 13 Torsion [CA]-CB--OG1-[HG1] |==|  0.65084
USER: genes 14 Torsion [C]-CA--CB-[CG] |==|  0.35688
USER: genes 15 Torsion [CA]-CB--CG-[CD] |==|  0.60869
USER: genes 16 Torsion [CB]-CG--CD-[NE] |==|  0.09766
USER: genes 17 Torsion [CG]-CD--NE-[CZ] |==|  0.69855
USER: genes 18 Torsion [C]-CA--N-[C] |==|  0.70963
USER: genes 19 Torsion [N]-C--CA-[N] |==|  0.17125
USER: genes 20 Torsion [C]-CA--N-[C] |==|  0.79937
ROOT
ATOM      1  CA  ARG D   2       4.277   8.178  33.744  1.00  9.56 LIG 0.18  C 
ENDROOT
BRANCH 1 2
ATOM      2  C   ARG D   2       2.819   8.481  34.182  1.00 11.06 LIG 0.24  C 
ATOM      3  N   THR D   3       2.119   9.285  33.388  1.00 11.45 LIG-0.34  N 
ATOM      4 H    THR D   3       2.397   9.600  32.638  1.00 11.45 LIG 0.16  HD
ATOM      5 O    ARG D   2       2.324   7.963  35.196  1.00  9.90 LIG-0.27  OA
BRANCH 3 6
ATOM      6  CA  THR D   3       0.790   9.687  33.771  1.00 13.43 LIG 0.20  C 
BRANCH 6 7
ATOM      7  C   THR D   3      -0.275   9.078  32.872  1.00 15.00 LIG 0.24  C 
ATOM      8  N   LYS D   4      -1.094   8.168  33.437  1.00 14.79 LIG-0.35  N 
ATOM      9 H    LYS D   4      -1.079   7.960  34.272  1.00 14.79 LIG 0.16  HD
ATOM     10 O    THR D   3      -0.325   9.434  31.678  1.00 15.79 LIG-0.27  OA
BRANCH 8 11
ATOM     11  CA  LYS D   4      -2.117   7.430  32.634  1.00 18.13 LIG 0.16  C 
BRANCH 11 12
ATOM     12  C   LYS D   4      -3.558   7.767  32.994  1.00 20.20 LIG 0.22  C 
ATOM     13 O    LYS D   4      -4.079   7.079  33.913  1.00 21.26 LIG-0.29  OA
ENDBRANCH 11 12
BRANCH 11 14
ATOM     14  CB  LYS D   4      -1.917   5.903  32.812  1.00 18.02 LIG 0.03  C 
BRANCH 14 15
ATOM     15  CG  LYS D   4      -0.717   5.370  32.063  1.00 21.48 LIG 0.00  C 
BRANCH 15 16
ATOM     16  CD  LYS D   4      -1.035   5.060  30.620  1.00 25.56 LIG 0.03  C 
BRANCH 16 17
ATOM     17  CE  LYS D   4      -0.481   3.667  30.244  1.00 25.12 LIG 0.23  C 
BRANCH 17 18
ATOM     18  NZ  LYS D   4      -1.465   2.549  30.548  1.00 20.07 LIG-0.08  N 
ATOM     19 HZ1  LYS D   4      -2.148   2.592  29.979  1.00 20.07 LIG 0.27  HD
ATOM     20 HZ2  LYS D   4      -1.057   1.763  30.463  1.00 20.07 LIG 0.27  HD
ATOM     21 HZ3  LYS D   4      -1.767   2.638  31.380  1.00 20.07 LIG 0.27  HD
ENDBRANCH 17 18
ENDBRANCH 16 17
ENDBRANCH 15 16
ENDBRANCH 14 15
ENDBRANCH 11 14
ENDBRANCH 8 11
ENDBRANCH 6 7
BRANCH 6 22
ATOM     22  CB  THR D   3       0.621  11.249  33.838  1.00 14.57 LIG 0.15  C 
ATOM     23  CG2 THR D   3       1.791  11.900  34.633  1.00 14.25 LIG 0.04  C 
BRANCH 22 24
ATOM     24 OG1  THR D   3       0.571  11.794  32.510  1.00 15.86 LIG-0.39  OA
ATOM     25 HG1  THR D   3       1.153  12.394  32.431  1.00 15.86 LIG 0.21  HD
ENDBRANCH 22 24
ENDBRANCH 6 22
ENDBRANCH 3 6
ENDBRANCH 1 2
BRANCH 1 26
ATOM     26  CB  ARG D   2       4.592   8.685  32.325  1.00  9.49 LIG 0.04  C 
BRANCH 26 27
ATOM     27  CG  ARG D   2       5.901   9.562  32.304  1.00 10.73 LIG 0.02  C 
BRANCH 27 28
ATOM     28  CD  ARG D   2       5.672  10.737  31.339  1.00 10.86 LIG 0.14  C 
BRANCH 28 29
ATOM     29  NE  ARG D   2       4.308  11.198  31.380  1.00 10.69 LIG-0.23  N 
ATOM     30  CZ  ARG D   2       3.385  11.018  30.394  1.00  9.43 LIG 0.67  C 
ATOM     31  NH1 ARG D   2       3.684  10.414  29.234  1.00 10.34 LIG-0.23  N 
ATOM     32  NH2 ARG D   2       2.186  11.542  30.538  1.00 11.18 LIG-0.23  N 
ATOM     33 2HH1 ARG D   2       3.078  10.315  28.632  1.00 10.34 LIG 0.17  HD
ATOM     34 1HH1 ARG D   2       4.481  10.124  29.094  1.00 10.34 LIG 0.17  HD
ATOM     35 2HH2 ARG D   2       1.594  11.436  29.924  1.00 11.18 LIG 0.17  HD
ATOM     36 1HH2 ARG D   2       1.995  11.990  31.246  1.00 11.18 LIG 0.17  HD
ATOM     37 HE   ARG D   2       4.055  11.623  32.084  1.00 10.69 LIG 0.18  HD
ENDBRANCH 28 29
ENDBRANCH 27 28
ENDBRANCH 26 27
ENDBRANCH 1 26
BRANCH 1 38
ATOM     38  N   ARG D   2       4.567   6.739  33.859  1.00  9.04 LIG-0.35  N 
ATOM     39 H    ARG D   2       4.222   6.248  33.243  1.00  9.04 LIG 0.16  HD
ATOM     40  C   ALA D   1       5.320   6.279  34.872  1.00 11.17 LIG 0.24  C 
ATOM     41 O    ALA D   1       5.787   7.041  35.718  1.00 13.49 LIG-0.27  OA
BRANCH 40 42
ATOM     42  CA  ALA D   1       5.639   4.797  34.923  1.00 12.65 LIG 0.17  C 
ATOM     43  CB  ALA D   1       6.423   4.422  36.201  1.00 13.08 LIG 0.04  C 
BRANCH 42 44
ATOM     44  N   ALA D   1       6.405   4.334  33.759  1.00 12.52 LIG-0.35  N 
ATOM     45  C   ACE D   0       5.898   4.153  32.325  1.00 13.59 LIG 0.21  C 
ATOM     46 O    ACE D   0       4.667   4.444  32.180  1.00 14.78 LIG-0.27  OA
ATOM     47  CH3 ACE D   0       6.844   3.667  31.261  1.00 14.73 LIG 0.12  C 
ATOM     48 H    ALA D   1       7.222   4.159  33.965  1.00 12.52 LIG 0.16  HD
ENDBRANCH 42 44
ENDBRANCH 40 42
ENDBRANCH 1 38
TORSDOF 19
ENDMDL
MODEL 57
USER: ADFR SOLUTION from run 134
USER: SCORE 15.746285 LL:  -3.153 LR: -13.510 RR:   0.000 FEB:  -7.842
USER: RMSD 3.579933
USER: SEED 133
USER: STATUS no improvement in best in 3 clusters for 5 generations
USER: GENES 21
USER: genes 0 Translation |==|  0.48210 0.41746 0.60215
USER: genes 1 Rotation |==|  0.66530 0.41988 0.65636 0.93796
USER: genes 2 Torsion [N]-CA--C-[N] |==|  0.06141
USER: genes 3 Torsion [C]-N--CA-[C] |==|  0.79753
USER: genes 4 Torsion [N]-CA--C-[N] |==|  0.99289
USER: genes 5 Torsion [C]-N--CA-[CB] |==|  0.37504
USER: genes 6 Torsion [N]-CA--C-[O] |==|  0.02235
USER: genes 7 Torsion [N]-CA--CB-[CG] |==|  0.90138
USER: genes 8 Torsion [CA]-CB--CG-[CD] |==|  0.28237
USER: genes 9 Torsion [CB]-CG--CD-[CE] |==|  0.48589
USER: genes 10 Torsion [CG]-CD--CE-[NZ] |==|  0.56084
USER: genes 11 Torsion [CD]-CE--NZ-[HZ1] |==|  0.31070
USER: genes 12 Torsion [N]-CA--CB-[CG2] |==|  0.70808
USER: genes 13 Torsion [CA]-CB--OG1-[HG1] |==|  0.23775
USER: genes 14 Torsion [C]-CA--CB-[CG] |==|  0.18457
USER: genes 15 Torsion [CA]-CB--CG-[CD] |==|  0.35659
USER: genes 16 Torsion [CB]-CG--CD-[NE] |==|  0.58951
USER: genes 17 Torsion [CG]-CD--NE-[CZ] |==|  0.36008
USER: genes 18 Torsion [C]-CA--N-[C] |==|  0.16466
USER: genes 19 Torsion [N]-C--CA-[N] |==|  0.97382
USER: genes 20 Torsion [C]-CA--N-[C] |==|  0.19855
ROOT
ATOM      1  CA  ARG D   2       4.561   6.117  35.310  1.00  9.56 LIG 0.18  C 
ENDROOT
BRANCH 1 2
ATOM      2  C   ARG D   2       4.232   5.214  34.091  1.00 11.06 LIG 0.24  C 
ATOM      3  N   THR D   3       3.341   5.689  33.227  1.00 11.45 LIG-0.34  N 
ATOM      4 H    THR D   3       2.980   6.469  33.270  1.00 11.45 LIG 0.16  HD
ATOM      5 O    ARG D   2       4.806   4.127  33.914  1.00  9.90 LIG-0.27  OA
BRANCH 3 6
ATOM      6  CA  THR D   3       2.914   4.874  32.119  1.00 13.43 LIG 0.20  C 
BRANCH 6 7
ATOM      7  C   THR D   3       3.992   4.747  31.053  1.00 15.00 LIG 0.24  C 
ATOM      8  N   LYS D   4       5.133   5.435  31.261  1.00 14.79 LIG-0.35  N 
ATOM      9 H    LYS D   4       5.298   5.886  31.975  1.00 14.79 LIG 0.16  HD
ATOM     10 O    THR D   3       3.762   4.039  30.053  1.00 15.79 LIG-0.27  OA
BRANCH 8 11
ATOM     11  CA  LYS D   4       6.225   5.466  30.242  1.00 18.13 LIG 0.16  C 
BRANCH 11 12
ATOM     12  C   LYS D   4       7.414   4.571  30.569  1.00 20.20 LIG 0.22  C 
ATOM     13 O    LYS D   4       7.277   3.802  31.559  1.00 21.26 LIG-0.29  OA
ENDBRANCH 11 12
BRANCH 11 14
ATOM     14  CB  LYS D   4       6.743   6.917  30.076  1.00 18.02 LIG 0.03  C 
BRANCH 14 15
ATOM     15  CG  LYS D   4       5.652   7.956  30.207  1.00 21.48 LIG 0.00  C 
BRANCH 15 16
ATOM     16  CD  LYS D   4       5.660   8.625  31.560  1.00 25.56 LIG 0.03  C 
BRANCH 16 17
ATOM     17  CE  LYS D   4       4.612   9.761  31.595  1.00 25.12 LIG 0.23  C 
BRANCH 17 18
ATOM     18  NZ  LYS D   4       4.909  10.792  32.671  1.00 20.07 LIG-0.08  N 
ATOM     19 HZ1  LYS D   4       5.139  11.562  32.289  1.00 20.07 LIG 0.27  HD
ATOM     20 HZ2  LYS D   4       4.185  10.914  33.173  1.00 20.07 LIG 0.27  HD
ATOM     21 HZ3  LYS D   4       5.579  10.504  33.181  1.00 20.07 LIG 0.27  HD
ENDBRANCH 17 18
ENDBRANCH 16 17
ENDBRANCH 15 16
ENDBRANCH 14 15
ENDBRANCH 11 14
ENDBRANCH 8 11
ENDBRANCH 6 7
BRANCH 6 22
ATOM     22  CB  THR D   3       1.567   5.372  31.479  1.00 14.57 LIG 0.15  C 
ATOM     23  CG2 THR D   3       0.384   4.443  31.884  1.00 14.25 LIG 0.04  C 
BRANCH 22 24
ATOM     24 OG1  THR D   3       1.295   6.719  31.896  1.00 15.86 LIG-0.39  OA
ATOM     25 HG1  THR D   3       1.691   7.256  31.386  1.00 15.86 LIG 0.21  HD
ENDBRANCH 22 24
ENDBRANCH 6 22
ENDBRANCH 3 6
ENDBRANCH 1 2
BRANCH 1 26
ATOM     26  CB  ARG D   2       4.880   5.310  36.582  1.00  9.49 LIG 0.04  C 
BRANCH 26 27
ATOM     27  CG  ARG D   2       6.217   4.492  36.424  1.00 10.73 LIG 0.02  C 
BRANCH 27 28
ATOM     28  CD  ARG D   2       7.114   4.807  37.632  1.00 10.86 LIG 0.14  C 
BRANCH 28 29
ATOM     29  NE  ARG D   2       8.510   4.766  37.282  1.00 10.69 LIG-0.23  N 
ATOM     30  CZ  ARG D   2       9.422   5.740  37.558  1.00  9.43 LIG 0.67  C 
ATOM     31  NH1 ARG D   2       9.082   6.888  38.163  1.00 10.34 LIG-0.23  N 
ATOM     32  NH2 ARG D   2      10.658   5.599  37.130  1.00 11.18 LIG-0.23  N 
ATOM     33 2HH1 ARG D   2       9.681   7.483  38.324  1.00 10.34 LIG 0.17  HD
ATOM     34 1HH1 ARG D   2       8.264   7.029  38.391  1.00 10.34 LIG 0.17  HD
ATOM     35 2HH2 ARG D   2      11.244   6.206  37.298  1.00 11.18 LIG 0.17  HD
ATOM     36 1HH2 ARG D   2      10.880   4.899  36.683  1.00 11.18 LIG 0.17  HD
ATOM     37 HE   ARG D   2       8.792   4.070  36.863  1.00 10.69 LIG 0.18  HD
ENDBRANCH 28 29
ENDBRANCH 27 28
ENDBRANCH 26 27
ENDBRANCH 1 26
BRANCH 1 38
ATOM     38  N   ARG D   2       3.469   7.072  35.559  1.00  9.04 LIG-0.35  N 
ATOM     39 H    ARG D   2       3.694   7.901  35.522  1.00  9.04 LIG 0.16  HD
ATOM     40  C   ALA D   1       2.227   6.628  35.821  1.00 11.17 LIG 0.24  C 
ATOM     41 O    ALA D   1       1.974   5.424  35.854  1.00 13.49 LIG-0.27  OA
BRANCH 40 42
ATOM     42  CA  ALA D   1       1.120   7.645  36.019  1.00 12.65 LIG 0.17  C 
ATOM     43  CB  ALA D   1       0.071   7.580  34.885  1.00 13.08 LIG 0.04  C 
BRANCH 42 44
ATOM     44  N   ALA D   1       1.617   9.024  36.109  1.00 12.52 LIG-0.35  N 
ATOM     45  C   ACE D   0       2.192   9.881  34.976  1.00 13.59 LIG 0.21  C 
ATOM     46 O    ACE D   0       2.229   9.282  33.854  1.00 14.78 LIG-0.27  OA
ATOM     47  CH3 ACE D   0       2.648  11.285  35.268  1.00 14.73 LIG 0.12  C 
ATOM     48 H    ALA D   1       1.553   9.334  36.909  1.00 12.52 LIG 0.16  HD
ENDBRANCH 42 44
ENDBRANCH 40 42
ENDBRANCH 1 38
TORSDOF 19
ENDMDL
MODEL 58
USER: ADFR SOLUTION from run 80
USER: SCORE 16.484240 LL:  -3.436 LR: -13.502 RR:   0.000 FEB:  -7.834
USER: RMSD 6.642596
USER: SEED 79
USER: STATUS no improvement in best in 4 clusters for 5 generations
USER: GENES 21
USER: genes 0 Translation |==|  0.54424 0.55638 0.37156
USER: genes 1 Rotation |==|  0.08223 0.43174 0.56582 0.75783
USER: genes 2 Torsion [N]-CA--C-[N] |==|  0.39100
USER: genes 3 Torsion [C]-N--CA-[C] |==|  0.16670
USER: genes 4 Torsion [N]-CA--C-[N] |==|  0.06667
USER: genes 5 Torsion [C]-N--CA-[CB] |==|  0.13771
USER: genes 6 Torsion [N]-CA--C-[O] |==|  0.13290
USER: genes 7 Torsion [N]-CA--CB-[CG] |==|  0.13626
USER: genes 8 Torsion [CA]-CB--CG-[CD] |==|  0.49324
USER: genes 9 Torsion [CB]-CG--CD-[CE] |==|  0.06815
USER: genes 10 Torsion [CG]-CD--CE-[NZ] |==|  0.57400
USER: genes 11 Torsion [CD]-CE--NZ-[HZ1] |==|  0.77941
USER: genes 12 Torsion [N]-CA--CB-[CG2] |==|  0.55931
USER: genes 13 Torsion [CA]-CB--OG1-[HG1] |==|  0.92671
USER: genes 14 Torsion [C]-CA--CB-[CG] |==|  0.67278
USER: genes 15 Torsion [CA]-CB--CG-[CD] |==|  0.23940
USER: genes 16 Torsion [CB]-CG--CD-[NE] |==|  0.24906
USER: genes 17 Torsion [CG]-CD--NE-[CZ] |==|  0.74487
USER: genes 18 Torsion [C]-CA--N-[C] |==|  0.81167
USER: genes 19 Torsion [N]-C--CA-[N] |==|  0.21435
USER: genes 20 Torsion [C]-CA--N-[C] |==|  0.79571
ROOT
ATOM      1  CA  ARG D   2       5.773   8.305  31.332  1.00  9.56 LIG 0.18  C 
ENDROOT
BRANCH 1 2
ATOM      2  C   ARG D   2       4.629   8.032  32.346  1.00 11.06 LIG 0.24  C 
ATOM      3  N   THR D   3       4.911   8.249  33.627  1.00 11.45 LIG-0.34  N 
ATOM      4 H    THR D   3       5.652   8.572  33.920  1.00 11.45 LIG 0.16  HD
ATOM      5 O    ARG D   2       3.501   7.674  31.972  1.00  9.90 LIG-0.27  OA
BRANCH 3 6
ATOM      6  CA  THR D   3       3.934   7.934  34.637  1.00 13.43 LIG 0.20  C 
BRANCH 6 7
ATOM      7  C   THR D   3       3.557   6.460  34.630  1.00 15.00 LIG 0.24  C 
ATOM      8  N   LYS D   4       4.463   5.607  34.110  1.00 14.79 LIG-0.35  N 
ATOM      9 H    LYS D   4       5.245   5.842  33.840  1.00 14.79 LIG 0.16  HD
ATOM     10 O    THR D   3       2.445   6.125  35.082  1.00 15.79 LIG-0.27  OA
BRANCH 8 11
ATOM     11  CA  LYS D   4       4.170   4.149  33.961  1.00 18.13 LIG 0.16  C 
BRANCH 11 12
ATOM     12  C   LYS D   4       5.216   3.376  33.170  1.00 20.20 LIG 0.22  C 
ATOM     13 O    LYS D   4       6.419   3.574  33.493  1.00 21.26 LIG-0.29  OA
ENDBRANCH 11 12
BRANCH 11 14
ATOM     14  CB  LYS D   4       2.799   3.962  33.262  1.00 18.02 LIG 0.03  C 
BRANCH 14 15
ATOM     15  CG  LYS D   4       2.652   4.794  32.009  1.00 21.48 LIG 0.00  C 
BRANCH 15 16
ATOM     16  CD  LYS D   4       1.334   4.552  31.314  1.00 25.56 LIG 0.03  C 
BRANCH 16 17
ATOM     17  CE  LYS D   4       0.287   4.038  32.328  1.00 25.12 LIG 0.23  C 
BRANCH 17 18
ATOM     18  NZ  LYS D   4      -0.789   3.190  31.671  1.00 20.07 LIG-0.08  N 
ATOM     19 HZ1  LYS D   4      -1.387   3.720  31.279  1.00 20.07 LIG 0.27  HD
ATOM     20 HZ2  LYS D   4      -0.418   2.659  31.061  1.00 20.07 LIG 0.27  HD
ATOM     21 HZ3  LYS D   4      -1.195   2.693  32.289  1.00 20.07 LIG 0.27  HD
ENDBRANCH 17 18
ENDBRANCH 16 17
ENDBRANCH 15 16
ENDBRANCH 14 15
ENDBRANCH 11 14
ENDBRANCH 8 11
ENDBRANCH 6 7
BRANCH 6 22
ATOM     22  CB  THR D   3       2.645   8.829  34.539  1.00 14.57 LIG 0.15  C 
ATOM     23  CG2 THR D   3       1.882   8.852  35.896  1.00 14.25 LIG 0.04  C 
BRANCH 22 24
ATOM     24 OG1  THR D   3       3.005  10.166  34.158  1.00 15.86 LIG-0.39  OA
ATOM     25 HG1  THR D   3       3.793  10.324  34.401  1.00 15.86 LIG 0.21  HD
ENDBRANCH 22 24
ENDBRANCH 6 22
ENDBRANCH 3 6
ENDBRANCH 1 2
BRANCH 1 26
ATOM     26  CB  ARG D   2       5.710   9.719  30.727  1.00  9.49 LIG 0.04  C 
BRANCH 26 27
ATOM     27  CG  ARG D   2       5.497   9.669  29.167  1.00 10.73 LIG 0.02  C 
BRANCH 27 28
ATOM     28  CD  ARG D   2       3.987   9.575  28.894  1.00 10.86 LIG 0.14  C 
BRANCH 28 29
ATOM     29  NE  ARG D   2       3.388  10.880  28.775  1.00 10.69 LIG-0.23  N 
ATOM     30  CZ  ARG D   2       2.830  11.588  29.797  1.00  9.43 LIG 0.67  C 
ATOM     31  NH1 ARG D   2       2.743  11.099  31.043  1.00 10.34 LIG-0.23  N 
ATOM     32  NH2 ARG D   2       2.267  12.748  29.537  1.00 11.18 LIG-0.23  N 
ATOM     33 2HH1 ARG D   2       2.386  11.571  31.666  1.00 10.34 LIG 0.17  HD
ATOM     34 1HH1 ARG D   2       3.046  10.313  31.219  1.00 10.34 LIG 0.17  HD
ATOM     35 2HH2 ARG D   2       1.911  13.205  30.173  1.00 11.18 LIG 0.17  HD
ATOM     36 1HH2 ARG D   2       2.253  13.049  28.732  1.00 11.18 LIG 0.17  HD
ATOM     37 HE   ARG D   2       3.381  11.241  27.995  1.00 10.69 LIG 0.18  HD
ENDBRANCH 28 29
ENDBRANCH 27 28
ENDBRANCH 26 27
ENDBRANCH 1 26
BRANCH 1 38
ATOM     38  N   ARG D   2       5.782   7.284  30.271  1.00  9.04 LIG-0.35  N 
ATOM     39 H    ARG D   2       5.569   7.570  29.489  1.00  9.04 LIG 0.16  HD
ATOM     40  C   ALA D   1       6.107   6.012  30.558  1.00 11.17 LIG 0.24  C 
ATOM     41 O    ALA D   1       6.407   5.672  31.702  1.00 13.49 LIG-0.27  OA
BRANCH 40 42
ATOM     42  CA  ALA D   1       6.156   5.004  29.426  1.00 12.65 LIG 0.17  C 
ATOM     43  CB  ALA D   1       6.056   3.552  29.946  1.00 13.08 LIG 0.04  C 
BRANCH 42 44
ATOM     44  N   ALA D   1       7.370   5.118  28.607  1.00 12.52 LIG-0.35  N 
ATOM     45  C   ACE D   0       7.703   6.211  27.587  1.00 13.59 LIG 0.21  C 
ATOM     46 O    ACE D   0       6.790   7.091  27.467  1.00 14.78 LIG-0.27  OA
ATOM     47  CH3 ACE D   0       9.010   6.157  26.843  1.00 14.73 LIG 0.12  C 
ATOM     48 H    ALA D   1       7.918   4.473  28.760  1.00 12.52 LIG 0.16  HD
ENDBRANCH 42 44
ENDBRANCH 40 42
ENDBRANCH 1 38
TORSDOF 19
ENDMDL
MODEL 59
USER: ADFR SOLUTION from run 98
USER: SCORE 15.518578 LL:  -2.246 LR: -13.499 RR:   0.000 FEB:  -7.831
USER: RMSD 8.692997
USER: SEED 97
USER: STATUS no improvement in best in 2 clusters for 5 generations
USER: GENES 21
USER: genes 0 Translation |==|  0.53590 0.60418 0.32504
USER: genes 1 Rotation |==|  0.12349 0.45787 0.77513 0.67541
USER: genes 2 Torsion [N]-CA--C-[N] |==|  0.93669
USER: genes 3 Torsion [C]-N--CA-[C] |==|  0.67310
USER: genes 4 Torsion [N]-CA--C-[N] |==|  0.39527
USER: genes 5 Torsion [C]-N--CA-[CB] |==|  0.39826
USER: genes 6 Torsion [N]-CA--C-[O] |==|  0.05691
USER: genes 7 Torsion [N]-CA--CB-[CG] |==|  0.46107
USER: genes 8 Torsion [CA]-CB--CG-[CD] |==|  0.32924
USER: genes 9 Torsion [CB]-CG--CD-[CE] |==|  0.62727
USER: genes 10 Torsion [CG]-CD--CE-[NZ] |==|  0.35728
USER: genes 11 Torsion [CD]-CE--NZ-[HZ1] |==|  0.67988
USER: genes 12 Torsion [N]-CA--CB-[CG2] |==|  0.34026
USER: genes 13 Torsion [CA]-CB--OG1-[HG1] |==|  0.97560
USER: genes 14 Torsion [C]-CA--CB-[CG] |==|  0.60420
USER: genes 15 Torsion [CA]-CB--CG-[CD] |==|  0.42783
USER: genes 16 Torsion [CB]-CG--CD-[NE] |==|  0.14142
USER: genes 17 Torsion [CG]-CD--NE-[CZ] |==|  0.72557
USER: genes 18 Torsion [C]-CA--N-[C] |==|  0.77073
USER: genes 19 Torsion [N]-C--CA-[N] |==|  0.38143
USER: genes 20 Torsion [C]-CA--N-[C] |==|  0.83821
ROOT
ATOM      1  CA  ARG D   2       5.610   9.058  30.530  1.00  9.56 LIG 0.18  C 
ENDROOT
BRANCH 1 2
ATOM      2  C   ARG D   2       5.595   8.976  32.080  1.00 11.06 LIG 0.24  C 
ATOM      3  N   THR D   3       5.026   7.896  32.608  1.00 11.45 LIG-0.34  N 
ATOM      4 H    THR D   3       4.719   7.231  32.158  1.00 11.45 LIG 0.16  HD
ATOM      5 O    ARG D   2       6.125   9.851  32.782  1.00  9.90 LIG-0.27  OA
BRANCH 3 6
ATOM      6  CA  THR D   3       4.891   7.788  34.038  1.00 13.43 LIG 0.20  C 
BRANCH 6 7
ATOM      7  C   THR D   3       5.665   6.604  34.599  1.00 15.00 LIG 0.24  C 
ATOM      8  N   LYS D   4       6.270   6.789  35.790  1.00 14.79 LIG-0.35  N 
ATOM      9 H    LYS D   4       6.197   7.505  36.261  1.00 14.79 LIG 0.16  HD
ATOM     10 O    THR D   3       5.711   5.550  33.935  1.00 15.79 LIG-0.27  OA
BRANCH 8 11
ATOM     11  CA  LYS D   4       7.137   5.734  36.399  1.00 18.13 LIG 0.16  C 
BRANCH 11 12
ATOM     12  C   LYS D   4       6.420   4.828  37.391  1.00 20.20 LIG 0.22  C 
ATOM     13 O    LYS D   4       5.163   4.783  37.298  1.00 21.26 LIG-0.29  OA
ENDBRANCH 11 12
BRANCH 11 14
ATOM     14  CB  LYS D   4       8.333   6.399  37.128  1.00 18.02 LIG 0.03  C 
BRANCH 14 15
ATOM     15  CG  LYS D   4       9.070   5.451  38.047  1.00 21.48 LIG 0.00  C 
BRANCH 15 16
ATOM     16  CD  LYS D   4      10.510   5.263  37.638  1.00 25.56 LIG 0.03  C 
BRANCH 16 17
ATOM     17  CE  LYS D   4      10.876   3.761  37.667  1.00 25.12 LIG 0.23  C 
BRANCH 17 18
ATOM     18  NZ  LYS D   4      11.518   3.294  36.371  1.00 20.07 LIG-0.08  N 
ATOM     19 HZ1  LYS D   4      10.988   2.700  35.974  1.00 20.07 LIG 0.27  HD
ATOM     20 HZ2  LYS D   4      11.638   3.991  35.832  1.00 20.07 LIG 0.27  HD
ATOM     21 HZ3  LYS D   4      12.305   2.917  36.548  1.00 20.07 LIG 0.27  HD
ENDBRANCH 17 18
ENDBRANCH 16 17
ENDBRANCH 15 16
ENDBRANCH 14 15
ENDBRANCH 11 14
ENDBRANCH 8 11
ENDBRANCH 6 7
BRANCH 6 22
ATOM     22  CB  THR D   3       3.391   7.732  34.506  1.00 14.57 LIG 0.15  C 
ATOM     23  CG2 THR D   3       3.113   6.436  35.324  1.00 14.25 LIG 0.04  C 
BRANCH 22 24
ATOM     24 OG1  THR D   3       3.083   8.887  35.303  1.00 15.86 LIG-0.39  OA
ATOM     25 HG1  THR D   3       3.790   9.310  35.467  1.00 15.86 LIG 0.21  HD
ENDBRANCH 22 24
ENDBRANCH 6 22
ENDBRANCH 3 6
ENDBRANCH 1 2
BRANCH 1 26
ATOM     26  CB  ARG D   2       4.530  10.003  29.971  1.00  9.49 LIG 0.04  C 
BRANCH 26 27
ATOM     27  CG  ARG D   2       3.907   9.440  28.638  1.00 10.73 LIG 0.02  C 
BRANCH 27 28
ATOM     28  CD  ARG D   2       2.487  10.011  28.498  1.00 10.86 LIG 0.14  C 
BRANCH 28 29
ATOM     29  NE  ARG D   2       2.472  11.442  28.656  1.00 10.69 LIG-0.23  N 
ATOM     30  CZ  ARG D   2       2.142  12.107  29.798  1.00  9.43 LIG 0.67  C 
ATOM     31  NH1 ARG D   2       1.740  11.468  30.908  1.00 10.34 LIG-0.23  N 
ATOM     32  NH2 ARG D   2       2.116  13.422  29.788  1.00 11.18 LIG-0.23  N 
ATOM     33 2HH1 ARG D   2       1.539  11.917  31.613  1.00 10.34 LIG 0.17  HD
ATOM     34 1HH1 ARG D   2       1.685  10.610  30.914  1.00 10.34 LIG 0.17  HD
ATOM     35 2HH2 ARG D   2       1.909  13.854  30.502  1.00 11.18 LIG 0.17  HD
ATOM     36 1HH2 ARG D   2       2.306  13.850  29.067  1.00 11.18 LIG 0.17  HD
ATOM     37 HE   ARG D   2       2.690  11.917  27.972  1.00 10.69 LIG 0.18  HD
ENDBRANCH 28 29
ENDBRANCH 27 28
ENDBRANCH 26 27
ENDBRANCH 1 26
BRANCH 1 38
ATOM     38  N   ARG D   2       5.486   7.716  29.937  1.00  9.04 LIG-0.35  N 
ATOM     39 H    ARG D   2       4.690   7.498  29.693  1.00  9.04 LIG 0.16  HD
ATOM     40  C   ALA D   1       6.568   6.930  29.807  1.00 11.17 LIG 0.24  C 
ATOM     41 O    ALA D   1       7.680   7.309  30.173  1.00 13.49 LIG-0.27  OA
BRANCH 40 42
ATOM     42  CA  ALA D   1       6.405   5.577  29.142  1.00 12.65 LIG 0.17  C 
ATOM     43  CB  ALA D   1       6.315   4.434  30.178  1.00 13.08 LIG 0.04  C 
BRANCH 42 44
ATOM     44  N   ALA D   1       7.491   5.264  28.203  1.00 12.52 LIG-0.35  N 
ATOM     45  C   ACE D   0       7.917   6.071  26.973  1.00 13.59 LIG 0.21  C 
ATOM     46 O    ACE D   0       7.216   7.117  26.783  1.00 14.78 LIG-0.27  OA
ATOM     47  CH3 ACE D   0       9.065   5.585  26.130  1.00 14.73 LIG 0.12  C 
ATOM     48 H    ALA D   1       7.896   4.536  28.417  1.00 12.52 LIG 0.16  HD
ENDBRANCH 42 44
ENDBRANCH 40 42
ENDBRANCH 1 38
TORSDOF 19
ENDMDL
MODEL 60
USER: ADFR SOLUTION from run 20
USER: SCORE 16.448799 LL:  -3.349 LR: -13.476 RR:   0.000 FEB:  -7.808
USER: RMSD 4.376720
USER: SEED 19
USER: STATUS no improvement in best in 2 clusters for 5 generations
USER: GENES 21
USER: genes 0 Translation |==|  0.41727 0.37023 0.58842
USER: genes 1 Rotation |==|  0.33551 0.53982 0.19333 0.85681
USER: genes 2 Torsion [N]-CA--C-[N] |==|  0.93618
USER: genes 3 Torsion [C]-N--CA-[C] |==|  0.75547
USER: genes 4 Torsion [N]-CA--C-[N] |==|  0.27371
USER: genes 5 Torsion [C]-N--CA-[CB] |==|  0.26796
USER: genes 6 Torsion [N]-CA--C-[O] |==|  0.94713
USER: genes 7 Torsion [N]-CA--CB-[CG] |==|  0.04061
USER: genes 8 Torsion [CA]-CB--CG-[CD] |==|  0.64666
USER: genes 9 Torsion [CB]-CG--CD-[CE] |==|  0.90671
USER: genes 10 Torsion [CG]-CD--CE-[NZ] |==|  0.75694
USER: genes 11 Torsion [CD]-CE--NZ-[HZ1] |==|  0.39627
USER: genes 12 Torsion [N]-CA--CB-[CG2] |==|  0.67605
USER: genes 13 Torsion [CA]-CB--OG1-[HG1] |==|  0.73695
USER: genes 14 Torsion [C]-CA--CB-[CG] |==|  0.65004
USER: genes 15 Torsion [CA]-CB--CG-[CD] |==|  0.55280
USER: genes 16 Torsion [CB]-CG--CD-[NE] |==|  0.60942
USER: genes 17 Torsion [CG]-CD--NE-[CZ] |==|  0.70998
USER: genes 18 Torsion [C]-CA--N-[C] |==|  0.74696
USER: genes 19 Torsion [N]-C--CA-[N] |==|  0.90471
USER: genes 20 Torsion [C]-CA--N-[C] |==|  0.85000
ROOT
ATOM      1  CA  ARG D   2       3.297   5.373  35.073  1.00  9.56 LIG 0.18  C 
ENDROOT
BRANCH 1 2
ATOM      2  C   ARG D   2       2.136   6.403  35.029  1.00 11.06 LIG 0.24  C 
ATOM      3  N   THR D   3       2.347   7.499  34.307  1.00 11.45 LIG-0.34  N 
ATOM      4 H    THR D   3       3.047   7.649  33.831  1.00 11.45 LIG 0.16  HD
ATOM      5 O    ARG D   2       1.055   6.189  35.601  1.00  9.90 LIG-0.27  OA
BRANCH 3 6
ATOM      6  CA  THR D   3       1.355   8.543  34.288  1.00 13.43 LIG 0.20  C 
BRANCH 6 7
ATOM      7  C   THR D   3       0.311   8.324  33.203  1.00 15.00 LIG 0.24  C 
ATOM      8  N   LYS D   4      -0.855   7.767  33.591  1.00 14.79 LIG-0.35  N 
ATOM      9 H    LYS D   4      -1.052   7.585  34.408  1.00 14.79 LIG 0.16  HD
ATOM     10 O    THR D   3       0.587   8.650  32.032  1.00 15.79 LIG-0.27  OA
BRANCH 8 11
ATOM     11  CA  LYS D   4      -1.920   7.415  32.604  1.00 18.13 LIG 0.16  C 
BRANCH 11 12
ATOM     12  C   LYS D   4      -3.339   7.677  33.092  1.00 20.20 LIG 0.22  C 
ATOM     13 O    LYS D   4      -3.488   7.792  34.338  1.00 21.26 LIG-0.29  OA
ENDBRANCH 11 12
BRANCH 11 14
ATOM     14  CB  LYS D   4      -1.807   5.916  32.227  1.00 18.02 LIG 0.03  C 
BRANCH 14 15
ATOM     15  CG  LYS D   4      -0.928   5.130  33.173  1.00 21.48 LIG 0.00  C 
BRANCH 15 16
ATOM     16  CD  LYS D   4       0.147   4.359  32.446  1.00 25.56 LIG 0.03  C 
BRANCH 16 17
ATOM     17  CE  LYS D   4      -0.380   3.884  31.072  1.00 25.12 LIG 0.23  C 
BRANCH 17 18
ATOM     18  NZ  LYS D   4      -1.090   2.543  31.154  1.00 20.07 LIG-0.08  N 
ATOM     19 HZ1  LYS D   4      -1.787   2.541  30.601  1.00 20.07 LIG 0.27  HD
ATOM     20 HZ2  LYS D   4      -0.527   1.895  30.923  1.00 20.07 LIG 0.27  HD
ATOM     21 HZ3  LYS D   4      -1.373   2.407  31.987  1.00 20.07 LIG 0.27  HD
ENDBRANCH 17 18
ENDBRANCH 16 17
ENDBRANCH 15 16
ENDBRANCH 14 15
ENDBRANCH 11 14
ENDBRANCH 8 11
ENDBRANCH 6 7
BRANCH 6 22
ATOM     22  CB  THR D   3       1.984   9.979  34.159  1.00 14.57 LIG 0.15  C 
ATOM     23  CG2 THR D   3       1.675  10.834  35.423  1.00 14.25 LIG 0.04  C 
BRANCH 22 24
ATOM     24 OG1  THR D   3       3.404   9.877  33.973  1.00 15.86 LIG-0.39  OA
ATOM     25 HG1  THR D   3       3.790   9.946  34.717  1.00 15.86 LIG 0.21  HD
ENDBRANCH 22 24
ENDBRANCH 6 22
ENDBRANCH 3 6
ENDBRANCH 1 2
BRANCH 1 26
ATOM     26  CB  ARG D   2       4.107   5.444  36.380  1.00  9.49 LIG 0.04  C 
BRANCH 26 27
ATOM     27  CG  ARG D   2       5.645   5.631  36.094  1.00 10.73 LIG 0.02  C 
BRANCH 27 28
ATOM     28  CD  ARG D   2       6.418   5.218  37.357  1.00 10.86 LIG 0.14  C 
BRANCH 28 29
ATOM     29  NE  ARG D   2       7.534   6.094  37.606  1.00 10.69 LIG-0.23  N 
ATOM     30  CZ  ARG D   2       8.842   5.792  37.374  1.00  9.43 LIG 0.67  C 
ATOM     31  NH1 ARG D   2       9.229   4.590  36.918  1.00 10.34 LIG-0.23  N 
ATOM     32  NH2 ARG D   2       9.768   6.667  37.700  1.00 11.18 LIG-0.23  N 
ATOM     33 2HH1 ARG D   2      10.062   4.430  36.781  1.00 10.34 LIG 0.17  HD
ATOM     34 1HH1 ARG D   2       8.643   3.980  36.763  1.00 10.34 LIG 0.17  HD
ATOM     35 2HH2 ARG D   2      10.598   6.488  37.559  1.00 11.18 LIG 0.17  HD
ATOM     36 1HH2 ARG D   2       9.545   7.417  38.055  1.00 11.18 LIG 0.17  HD
ATOM     37 HE   ARG D   2       7.361   6.872  37.929  1.00 10.69 LIG 0.18  HD
ENDBRANCH 28 29
ENDBRANCH 27 28
ENDBRANCH 26 27
ENDBRANCH 1 26
BRANCH 1 38
ATOM     38  N   ARG D   2       4.178   5.532  33.905  1.00  9.04 LIG-0.35  N 
ATOM     39 H    ARG D   2       4.823   6.090  34.008  1.00  9.04 LIG 0.16  HD
ATOM     40  C   ALA D   1       3.946   4.830  32.781  1.00 11.17 LIG 0.24  C 
ATOM     41 O    ALA D   1       3.005   4.042  32.704  1.00 13.49 LIG-0.27  OA
BRANCH 40 42
ATOM     42  CA  ALA D   1       4.910   4.983  31.620  1.00 12.65 LIG 0.17  C 
ATOM     43  CB  ALA D   1       6.088   3.988  31.717  1.00 13.08 LIG 0.04  C 
BRANCH 42 44
ATOM     44  N   ALA D   1       5.460   6.340  31.504  1.00 12.52 LIG-0.35  N 
ATOM     45  C   ACE D   0       4.678   7.655  31.415  1.00 13.59 LIG 0.21  C 
ATOM     46 O    ACE D   0       3.415   7.499  31.440  1.00 14.78 LIG-0.27  OA
ATOM     47  CH3 ACE D   0       5.428   8.955  31.304  1.00 14.73 LIG 0.12  C 
ATOM     48 H    ALA D   1       6.320   6.334  31.490  1.00 12.52 LIG 0.16  HD
ENDBRANCH 42 44
ENDBRANCH 40 42
ENDBRANCH 1 38
TORSDOF 19
ENDMDL
MODEL 61
USER: ADFR SOLUTION from run 103
USER: SCORE 15.761071 LL:  -2.567 LR: -13.462 RR:   0.000 FEB:  -7.795
USER: RMSD 4.217684
USER: SEED 102
USER: STATUS no improvement in best in 3 clusters for 5 generations
USER: GENES 21
USER: genes 0 Translation |==|  0.52109 0.26515 0.48129
USER: genes 1 Rotation |==|  0.32841 0.59036 0.22983 0.87337
USER: genes 2 Torsion [N]-CA--C-[N] |==|  0.38235
USER: genes 3 Torsion [C]-N--CA-[C] |==|  0.13797
USER: genes 4 Torsion [N]-CA--C-[N] |==|  0.14209
USER: genes 5 Torsion [C]-N--CA-[CB] |==|  0.82958
USER: genes 6 Torsion [N]-CA--C-[O] |==|  0.69232
USER: genes 7 Torsion [N]-CA--CB-[CG] |==|  0.82177
USER: genes 8 Torsion [CA]-CB--CG-[CD] |==|  0.80504
USER: genes 9 Torsion [CB]-CG--CD-[CE] |==|  0.26291
USER: genes 10 Torsion [CG]-CD--CE-[NZ] |==|  0.18167
USER: genes 11 Torsion [CD]-CE--NZ-[HZ1] |==|  0.21721
USER: genes 12 Torsion [N]-CA--CB-[CG2] |==|  0.52824
USER: genes 13 Torsion [CA]-CB--OG1-[HG1] |==|  0.71494
USER: genes 14 Torsion [C]-CA--CB-[CG] |==|  0.92085
USER: genes 15 Torsion [CA]-CB--CG-[CD] |==|  0.42042
USER: genes 16 Torsion [CB]-CG--CD-[NE] |==|  0.23477
USER: genes 17 Torsion [CG]-CD--NE-[CZ] |==|  0.29024
USER: genes 18 Torsion [C]-CA--N-[C] |==|  0.85738
USER: genes 19 Torsion [N]-C--CA-[N] |==|  0.98448
USER: genes 20 Torsion [C]-CA--N-[C] |==|  0.75574
ROOT
ATOM      1  CA  ARG D   2       5.321   3.718  33.225  1.00  9.56 LIG 0.18  C 
ENDROOT
BRANCH 1 2
ATOM      2  C   ARG D   2       4.111   4.631  33.559  1.00 11.06 LIG 0.24  C 
ATOM      3  N   THR D   3       3.034   4.027  34.051  1.00 11.45 LIG-0.34  N 
ATOM      4 H    THR D   3       2.982   3.191  34.241  1.00 11.45 LIG 0.16  HD
ATOM      5 O    ARG D   2       4.167   5.863  33.415  1.00  9.90 LIG-0.27  OA
BRANCH 3 6
ATOM      6  CA  THR D   3       1.839   4.791  34.302  1.00 13.43 LIG 0.20  C 
BRANCH 6 7
ATOM      7  C   THR D   3       1.441   5.643  33.106  1.00 15.00 LIG 0.24  C 
ATOM      8  N   LYS D   4       1.359   5.013  31.916  1.00 14.79 LIG-0.35  N 
ATOM      9 H    LYS D   4       1.464   4.166  31.812  1.00 14.79 LIG 0.16  HD
ATOM     10 O    THR D   3       1.231   6.859  33.282  1.00 15.79 LIG-0.27  OA
BRANCH 8 11
ATOM     11  CA  LYS D   4       1.071   5.760  30.654  1.00 18.13 LIG 0.16  C 
BRANCH 11 12
ATOM     12  C   LYS D   4       2.099   6.828  30.308  1.00 20.20 LIG 0.22  C 
ATOM     13 O    LYS D   4       1.714   8.025  30.400  1.00 21.26 LIG-0.29  OA
ENDBRANCH 11 12
BRANCH 11 14
ATOM     14  CB  LYS D   4      -0.318   6.441  30.756  1.00 18.02 LIG 0.03  C 
BRANCH 14 15
ATOM     15  CG  LYS D   4      -1.457   5.453  30.871  1.00 21.48 LIG 0.00  C 
BRANCH 15 16
ATOM     16  CD  LYS D   4      -1.688   4.696  29.585  1.00 25.56 LIG 0.03  C 
BRANCH 16 17
ATOM     17  CE  LYS D   4      -0.927   3.350  29.621  1.00 25.12 LIG 0.23  C 
BRANCH 17 18
ATOM     18  NZ  LYS D   4      -1.465   2.407  30.685  1.00 20.07 LIG-0.08  N 
ATOM     19 HZ1  LYS D   4      -2.215   2.028  30.394  1.00 20.07 LIG 0.27  HD
ATOM     20 HZ2  LYS D   4      -0.861   1.777  30.856  1.00 20.07 LIG 0.27  HD
ATOM     21 HZ3  LYS D   4      -1.635   2.865  31.429  1.00 20.07 LIG 0.27  HD
ENDBRANCH 17 18
ENDBRANCH 16 17
ENDBRANCH 15 16
ENDBRANCH 14 15
ENDBRANCH 11 14
ENDBRANCH 8 11
ENDBRANCH 6 7
BRANCH 6 22
ATOM     22  CB  THR D   3       1.942   5.678  35.595  1.00 14.57 LIG 0.15  C 
ATOM     23  CG2 THR D   3       0.555   6.282  35.966  1.00 14.25 LIG 0.04  C 
BRANCH 22 24
ATOM     24 OG1  THR D   3       2.441   4.893  36.690  1.00 15.86 LIG-0.39  OA
ATOM     25 HG1  THR D   3       1.805   4.684  37.198  1.00 15.86 LIG 0.21  HD
ENDBRANCH 22 24
ENDBRANCH 6 22
ENDBRANCH 3 6
ENDBRANCH 1 2
BRANCH 1 26
ATOM     26  CB  ARG D   2       6.380   3.697  34.343  1.00  9.49 LIG 0.04  C 
BRANCH 26 27
ATOM     27  CG  ARG D   2       6.385   5.046  35.157  1.00 10.73 LIG 0.02  C 
BRANCH 27 28
ATOM     28  CD  ARG D   2       6.859   4.738  36.586  1.00 10.86 LIG 0.14  C 
BRANCH 28 29
ATOM     29  NE  ARG D   2       8.296   4.727  36.678  1.00 10.69 LIG-0.23  N 
ATOM     30  CZ  ARG D   2       9.059   5.713  37.228  1.00  9.43 LIG 0.67  C 
ATOM     31  NH1 ARG D   2       8.526   6.846  37.710  1.00 10.34 LIG-0.23  N 
ATOM     32  NH2 ARG D   2      10.369   5.599  37.196  1.00 11.18 LIG-0.23  N 
ATOM     33 2HH1 ARG D   2       9.035   7.449  38.051  1.00 10.34 LIG 0.17  HD
ATOM     34 1HH1 ARG D   2       7.676   6.969  37.678  1.00 10.34 LIG 0.17  HD
ATOM     35 2HH2 ARG D   2      10.863   6.215  37.539  1.00 11.18 LIG 0.17  HD
ATOM     36 1HH2 ARG D   2      10.733   4.911  36.831  1.00 11.18 LIG 0.17  HD
ATOM     37 HE   ARG D   2       8.707   4.042  36.359  1.00 10.69 LIG 0.18  HD
ENDBRANCH 28 29
ENDBRANCH 27 28
ENDBRANCH 26 27
ENDBRANCH 1 26
BRANCH 1 38
ATOM     38  N   ARG D   2       5.927   4.107  31.941  1.00  9.04 LIG-0.35  N 
ATOM     39 H    ARG D   2       6.778   4.233  31.963  1.00  9.04 LIG 0.16  HD
ATOM     40  C   ALA D   1       5.162   4.241  30.844  1.00 11.17 LIG 0.24  C 
ATOM     41 O    ALA D   1       3.949   4.040  30.883  1.00 13.49 LIG-0.27  OA
BRANCH 40 42
ATOM     42  CA  ALA D   1       5.834   4.590  29.530  1.00 12.65 LIG 0.17  C 
ATOM     43  CB  ALA D   1       5.658   3.471  28.480  1.00 13.08 LIG 0.04  C 
BRANCH 42 44
ATOM     44  N   ALA D   1       7.270   4.866  29.674  1.00 12.52 LIG-0.35  N 
ATOM     45  C   ACE D   0       7.930   6.211  29.996  1.00 13.59 LIG 0.21  C 
ATOM     46 O    ACE D   0       7.099   7.165  30.137  1.00 14.78 LIG-0.27  OA
ATOM     47  CH3 ACE D   0       9.428   6.292  30.107  1.00 14.73 LIG 0.12  C 
ATOM     48 H    ALA D   1       7.743   4.158  29.554  1.00 12.52 LIG 0.16  HD
ENDBRANCH 42 44
ENDBRANCH 40 42
ENDBRANCH 1 38
TORSDOF 19
ENDMDL
MODEL 62
USER: ADFR SOLUTION from run 84
USER: SCORE 16.161504 LL:  -3.057 LR: -13.456 RR:   0.000 FEB:  -7.788
USER: RMSD 3.674378
USER: SEED 83
USER: STATUS no improvement in best in 2 clusters for 5 generations
USER: GENES 21
USER: genes 0 Translation |==|  0.52934 0.35211 0.61766
USER: genes 1 Rotation |==|  0.25135 0.50708 0.30775 0.88880
USER: genes 2 Torsion [N]-CA--C-[N] |==|  0.91667
USER: genes 3 Torsion [C]-N--CA-[C] |==|  0.69288
USER: genes 4 Torsion [N]-CA--C-[N] |==|  0.06896
USER: genes 5 Torsion [C]-N--CA-[CB] |==|  0.86705
USER: genes 6 Torsion [N]-CA--C-[O] |==|  0.20333
USER: genes 7 Torsion [N]-CA--CB-[CG] |==|  0.34023
USER: genes 8 Torsion [CA]-CB--CG-[CD] |==|  0.28515
USER: genes 9 Torsion [CB]-CG--CD-[CE] |==|  0.89840
USER: genes 10 Torsion [CG]-CD--CE-[NZ] |==|  0.26326
USER: genes 11 Torsion [CD]-CE--NZ-[HZ1] |==|  0.22694
USER: genes 12 Torsion [N]-CA--CB-[CG2] |==|  0.65304
USER: genes 13 Torsion [CA]-CB--OG1-[HG1] |==|  0.93648
USER: genes 14 Torsion [C]-CA--CB-[CG] |==|  0.32931
USER: genes 15 Torsion [CA]-CB--CG-[CD] |==|  0.36005
USER: genes 16 Torsion [CB]-CG--CD-[NE] |==|  0.68475
USER: genes 17 Torsion [CG]-CD--NE-[CZ] |==|  0.55620
USER: genes 18 Torsion [C]-CA--N-[C] |==|  0.83667
USER: genes 19 Torsion [N]-C--CA-[N] |==|  0.85856
USER: genes 20 Torsion [C]-CA--N-[C] |==|  0.86102
ROOT
ATOM      1  CA  ARG D   2       5.482   5.088  35.578  1.00  9.56 LIG 0.18  C 
ENDROOT
BRANCH 1 2
ATOM      2  C   ARG D   2       3.982   5.467  35.707  1.00 11.06 LIG 0.24  C 
ATOM      3  N   THR D   3       3.534   6.395  34.869  1.00 11.45 LIG-0.34  N 
ATOM      4 H    THR D   3       3.995   6.755  34.239  1.00 11.45 LIG 0.16  HD
ATOM      5 O    ARG D   2       3.237   4.899  36.522  1.00  9.90 LIG-0.27  OA
BRANCH 3 6
ATOM      6  CA  THR D   3       2.178   6.867  34.985  1.00 13.43 LIG 0.20  C 
BRANCH 6 7
ATOM      7  C   THR D   3       1.312   6.418  33.817  1.00 15.00 LIG 0.24  C 
ATOM      8  N   LYS D   4       1.702   5.300  33.171  1.00 14.79 LIG-0.35  N 
ATOM      9 H    LYS D   4       2.368   4.812  33.414  1.00 14.79 LIG 0.16  HD
ATOM     10 O    THR D   3       0.314   7.101  33.515  1.00 15.79 LIG-0.27  OA
BRANCH 8 11
ATOM     11  CA  LYS D   4       0.989   4.812  31.952  1.00 18.13 LIG 0.16  C 
BRANCH 11 12
ATOM     12  C   LYS D   4       1.258   5.632  30.697  1.00 20.20 LIG 0.22  C 
ATOM     13 O    LYS D   4       2.395   5.491  30.171  1.00 21.26 LIG-0.29  OA
ENDBRANCH 11 12
BRANCH 11 14
ATOM     14  CB  LYS D   4      -0.540   4.807  32.209  1.00 18.02 LIG 0.03  C 
BRANCH 14 15
ATOM     15  CG  LYS D   4      -1.312   5.647  31.218  1.00 21.48 LIG 0.00  C 
BRANCH 15 16
ATOM     16  CD  LYS D   4      -1.999   4.806  30.169  1.00 25.56 LIG 0.03  C 
BRANCH 16 17
ATOM     17  CE  LYS D   4      -1.110   3.598  29.794  1.00 25.12 LIG 0.23  C 
BRANCH 17 18
ATOM     18  NZ  LYS D   4      -1.465   2.349  30.584  1.00 20.07 LIG-0.08  N 
ATOM     19 HZ1  LYS D   4      -2.165   1.949  30.208  1.00 20.07 LIG 0.27  HD
ATOM     20 HZ2  LYS D   4      -0.771   1.792  30.586  1.00 20.07 LIG 0.27  HD
ATOM     21 HZ3  LYS D   4      -1.667   2.575  31.421  1.00 20.07 LIG 0.27  HD
ENDBRANCH 17 18
ENDBRANCH 16 17
ENDBRANCH 15 16
ENDBRANCH 14 15
ENDBRANCH 11 14
ENDBRANCH 8 11
ENDBRANCH 6 7
BRANCH 6 22
ATOM     22  CB  THR D   3       2.088   8.427  35.163  1.00 14.57 LIG 0.15  C 
ATOM     23  CG2 THR D   3       1.281   8.793  36.443  1.00 14.25 LIG 0.04  C 
BRANCH 22 24
ATOM     24 OG1  THR D   3       3.408   8.988  35.240  1.00 15.86 LIG-0.39  OA
ATOM     25 HG1  THR D   3       3.950   8.396  35.488  1.00 15.86 LIG 0.21  HD
ENDBRANCH 22 24
ENDBRANCH 6 22
ENDBRANCH 3 6
ENDBRANCH 1 2
BRANCH 1 26
ATOM     26  CB  ARG D   2       6.382   5.872  36.549  1.00  9.49 LIG 0.04  C 
BRANCH 26 27
ATOM     27  CG  ARG D   2       7.125   4.909  37.551  1.00 10.73 LIG 0.02  C 
BRANCH 27 28
ATOM     28  CD  ARG D   2       8.621   5.262  37.530  1.00 10.86 LIG 0.14  C 
BRANCH 28 29
ATOM     29  NE  ARG D   2       9.411   4.194  36.973  1.00 10.69 LIG-0.23  N 
ATOM     30  CZ  ARG D   2      10.749   4.020  37.163  1.00  9.43 LIG 0.67  C 
ATOM     31  NH1 ARG D   2      11.489   4.885  37.873  1.00 10.34 LIG-0.23  N 
ATOM     32  NH2 ARG D   2      11.358   3.030  36.548  1.00 11.18 LIG-0.23  N 
ATOM     33 2HH1 ARG D   2      12.332   4.747  37.974  1.00 10.34 LIG 0.17  HD
ATOM     34 1HH1 ARG D   2      11.121   5.577  38.227  1.00 10.34 LIG 0.17  HD
ATOM     35 2HH2 ARG D   2      12.203   2.909  36.659  1.00 11.18 LIG 0.17  HD
ATOM     36 1HH2 ARG D   2      10.913   2.503  36.035  1.00 11.18 LIG 0.17  HD
ATOM     37 HE   ARG D   2       9.005   3.618  36.480  1.00 10.69 LIG 0.18  HD
ENDBRANCH 28 29
ENDBRANCH 27 28
ENDBRANCH 26 27
ENDBRANCH 1 26
BRANCH 1 38
ATOM     38  N   ARG D   2       5.943   5.256  34.190  1.00  9.04 LIG-0.35  N 
ATOM     39 H    ARG D   2       6.597   5.805  34.087  1.00  9.04 LIG 0.16  HD
ATOM     40  C   ALA D   1       5.350   4.578  33.192  1.00 11.17 LIG 0.24  C 
ATOM     41 O    ALA D   1       4.421   3.802  33.412  1.00 13.49 LIG-0.27  OA
BRANCH 40 42
ATOM     42  CA  ALA D   1       5.891   4.739  31.785  1.00 12.65 LIG 0.17  C 
ATOM     43  CB  ALA D   1       7.260   4.042  31.611  1.00 13.08 LIG 0.04  C 
BRANCH 42 44
ATOM     44  N   ALA D   1       6.035   6.144  31.382  1.00 12.52 LIG-0.35  N 
ATOM     45  C   ACE D   0       4.984   7.254  31.489  1.00 13.59 LIG 0.21  C 
ATOM     46 O    ACE D   0       3.878   6.861  31.982  1.00 14.78 LIG-0.27  OA
ATOM     47  CH3 ACE D   0       5.324   8.643  31.022  1.00 14.73 LIG 0.12  C 
ATOM     48 H    ALA D   1       6.815   6.303  31.057  1.00 12.52 LIG 0.16  HD
ENDBRANCH 42 44
ENDBRANCH 40 42
ENDBRANCH 1 38
TORSDOF 19
ENDMDL
MODEL 63
USER: ADFR SOLUTION from run 155
USER: SCORE 16.027658 LL:  -3.150 LR: -13.453 RR:   0.000 FEB:  -7.785
USER: RMSD 6.105346
USER: SEED 154
USER: STATUS no improvement in best in 2 clusters for 5 generations
USER: GENES 21
USER: genes 0 Translation |==|  0.39033 0.60821 0.56679
USER: genes 1 Rotation |==|  0.35802 0.10712 0.67326 0.71323
USER: genes 2 Torsion [N]-CA--C-[N] |==|  0.09241
USER: genes 3 Torsion [C]-N--CA-[C] |==|  0.15325
USER: genes 4 Torsion [N]-CA--C-[N] |==|  0.09023
USER: genes 5 Torsion [C]-N--CA-[CB] |==|  0.31957
USER: genes 6 Torsion [N]-CA--C-[O] |==|  0.30811
USER: genes 7 Torsion [N]-CA--CB-[CG] |==|  0.73361
USER: genes 8 Torsion [CA]-CB--CG-[CD] |==|  0.55754
USER: genes 9 Torsion [CB]-CG--CD-[CE] |==|  0.18254
USER: genes 10 Torsion [CG]-CD--CE-[NZ] |==|  0.31985
USER: genes 11 Torsion [CD]-CE--NZ-[HZ1] |==|  0.36683
USER: genes 12 Torsion [N]-CA--CB-[CG2] |==|  0.61042
USER: genes 13 Torsion [CA]-CB--OG1-[HG1] |==|  0.52346
USER: genes 14 Torsion [C]-CA--CB-[CG] |==|  0.58131
USER: genes 15 Torsion [CA]-CB--CG-[CD] |==|  0.82629
USER: genes 16 Torsion [CB]-CG--CD-[NE] |==|  0.64368
USER: genes 17 Torsion [CG]-CD--NE-[CZ] |==|  0.77149
USER: genes 18 Torsion [C]-CA--N-[C] |==|  0.17895
USER: genes 19 Torsion [N]-C--CA-[N] |==|  0.04655
USER: genes 20 Torsion [C]-CA--N-[C] |==|  0.15892
ROOT
ATOM      1  CA  ARG D   2       2.771   9.121  34.700  1.00  9.56 LIG 0.18  C 
ENDROOT
BRANCH 1 2
ATOM      2  C   ARG D   2       3.444   7.739  34.919  1.00 11.06 LIG 0.24  C 
ATOM      3  N   THR D   3       4.757   7.683  34.716  1.00 11.45 LIG-0.34  N 
ATOM      4 H    THR D   3       5.255   8.357  34.527  1.00 11.45 LIG 0.16  HD
ATOM      5 O    ARG D   2       2.794   6.754  35.305  1.00  9.90 LIG-0.27  OA
BRANCH 3 6
ATOM      6  CA  THR D   3       5.440   6.419  34.810  1.00 13.43 LIG 0.20  C 
BRANCH 6 7
ATOM      7  C   THR D   3       4.834   5.369  33.891  1.00 15.00 LIG 0.24  C 
ATOM      8  N   LYS D   4       4.309   5.813  32.731  1.00 14.79 LIG-0.35  N 
ATOM      9 H    LYS D   4       4.348   6.631  32.467  1.00 14.79 LIG 0.16  HD
ATOM     10 O    THR D   3       4.840   4.178  34.258  1.00 15.79 LIG-0.27  OA
BRANCH 8 11
ATOM     11  CA  LYS D   4       3.602   4.892  31.790  1.00 18.13 LIG 0.16  C 
BRANCH 11 12
ATOM     12  C   LYS D   4       4.182   4.866  30.382  1.00 20.20 LIG 0.22  C 
ATOM     13 O    LYS D   4       4.763   3.802  30.037  1.00 21.26 LIG-0.29  OA
ENDBRANCH 11 12
BRANCH 11 14
ATOM     14  CB  LYS D   4       2.108   5.295  31.690  1.00 18.02 LIG 0.03  C 
BRANCH 14 15
ATOM     15  CG  LYS D   4       1.215   4.497  32.612  1.00 21.48 LIG 0.00  C 
BRANCH 15 16
ATOM     16  CD  LYS D   4      -0.229   4.524  32.172  1.00 25.56 LIG 0.03  C 
BRANCH 16 17
ATOM     17  CE  LYS D   4      -0.383   3.798  30.816  1.00 25.12 LIG 0.23  C 
BRANCH 17 18
ATOM     18  NZ  LYS D   4      -1.233   2.542  30.923  1.00 20.07 LIG-0.08  N 
ATOM     19 HZ1  LYS D   4      -1.840   2.538  30.273  1.00 20.07 LIG 0.27  HD
ATOM     20 HZ2  LYS D   4      -0.713   1.824  30.847  1.00 20.07 LIG 0.27  HD
ATOM     21 HZ3  LYS D   4      -1.644   2.528  31.712  1.00 20.07 LIG 0.27  HD
ENDBRANCH 17 18
ENDBRANCH 16 17
ENDBRANCH 15 16
ENDBRANCH 14 15
ENDBRANCH 11 14
ENDBRANCH 8 11
ENDBRANCH 6 7
BRANCH 6 22
ATOM     22  CB  THR D   3       5.519   5.876  36.284  1.00 14.57 LIG 0.15  C 
ATOM     23  CG2 THR D   3       6.907   5.228  36.562  1.00 14.25 LIG 0.04  C 
BRANCH 22 24
ATOM     24 OG1  THR D   3       5.285   6.946  37.213  1.00 15.86 LIG-0.39  OA
ATOM     25 HG1  THR D   3       5.441   6.678  37.994  1.00 15.86 LIG 0.21  HD
ENDBRANCH 22 24
ENDBRANCH 6 22
ENDBRANCH 3 6
ENDBRANCH 1 2
BRANCH 1 26
ATOM     26  CB  ARG D   2       1.261   9.013  34.420  1.00  9.49 LIG 0.04  C 
BRANCH 26 27
ATOM     27  CG  ARG D   2       0.757  10.199  33.514  1.00 10.73 LIG 0.02  C 
BRANCH 27 28
ATOM     28  CD  ARG D   2       0.983  11.512  34.281  1.00 10.86 LIG 0.14  C 
BRANCH 28 29
ATOM     29  NE  ARG D   2      -0.216  12.309  34.334  1.00 10.69 LIG-0.23  N 
ATOM     30  CZ  ARG D   2      -0.656  13.139  33.348  1.00  9.43 LIG 0.67  C 
ATOM     31  NH1 ARG D   2       0.035  13.333  32.214  1.00 10.34 LIG-0.23  N 
ATOM     32  NH2 ARG D   2      -1.742  13.852  33.550  1.00 11.18 LIG-0.23  N 
ATOM     33 2HH1 ARG D   2      -0.270  13.863  31.610  1.00 10.34 LIG 0.17  HD
ATOM     34 1HH1 ARG D   2       0.783  12.926  32.091  1.00 10.34 LIG 0.17  HD
ATOM     35 2HH2 ARG D   2      -2.031  14.380  32.936  1.00 11.18 LIG 0.17  HD
ATOM     36 1HH2 ARG D   2      -2.163  13.792  34.297  1.00 11.18 LIG 0.17  HD
ATOM     37 HE   ARG D   2      -0.693  12.257  35.048  1.00 10.69 LIG 0.18  HD
ENDBRANCH 28 29
ENDBRANCH 27 28
ENDBRANCH 26 27
ENDBRANCH 1 26
BRANCH 1 38
ATOM     38  N   ARG D   2       3.449   9.865  33.625  1.00  9.04 LIG-0.35  N 
ATOM     39 H    ARG D   2       3.837  10.591  33.873  1.00  9.04 LIG 0.16  HD
ATOM     40  C   ALA D   1       3.431   9.399  32.364  1.00 11.17 LIG 0.24  C 
ATOM     41 O    ALA D   1       2.859   8.347  32.080  1.00 13.49 LIG-0.27  OA
BRANCH 40 42
ATOM     42  CA  ALA D   1       4.187  10.167  31.297  1.00 12.65 LIG 0.17  C 
ATOM     43  CB  ALA D   1       4.928   9.222  30.325  1.00 13.08 LIG 0.04  C 
BRANCH 42 44
ATOM     44  N   ALA D   1       5.162  11.114  31.853  1.00 12.52 LIG-0.35  N 
ATOM     45  C   ACE D   0       6.326  10.802  32.798  1.00 13.59 LIG 0.21  C 
ATOM     46 O    ACE D   0       6.410   9.571  33.113  1.00 14.78 LIG-0.27  OA
ATOM     47  CH3 ACE D   0       7.225  11.917  33.258  1.00 14.73 LIG 0.12  C 
ATOM     48 H    ALA D   1       5.013  11.918  31.583  1.00 12.52 LIG 0.16  HD
ENDBRANCH 42 44
ENDBRANCH 40 42
ENDBRANCH 1 38
TORSDOF 19
ENDMDL
MODEL 64
USER: ADFR SOLUTION from run 165
USER: SCORE 14.962104 LL:  -2.701 LR: -13.436 RR:   0.000 FEB:  -7.768
USER: RMSD 6.807796
USER: SEED 164
USER: STATUS no improvement in best in 6 clusters for 5 generations
USER: GENES 21
USER: genes 0 Translation |==|  0.51103 0.43020 0.47671
USER: genes 1 Rotation |==|  0.90778 0.41690 0.31979 0.71057
USER: genes 2 Torsion [N]-CA--C-[N] |==|  0.47759
USER: genes 3 Torsion [C]-N--CA-[C] |==|  0.76846
USER: genes 4 Torsion [N]-CA--C-[N] |==|  0.47958
USER: genes 5 Torsion [C]-N--CA-[CB] |==|  0.29863
USER: genes 6 Torsion [N]-CA--C-[O] |==|  0.34272
USER: genes 7 Torsion [N]-CA--CB-[CG] |==|  0.04832
USER: genes 8 Torsion [CA]-CB--CG-[CD] |==|  0.69326
USER: genes 9 Torsion [CB]-CG--CD-[CE] |==|  0.41061
USER: genes 10 Torsion [CG]-CD--CE-[NZ] |==|  0.87109
USER: genes 11 Torsion [CD]-CE--NZ-[HZ1] |==|  0.42813
USER: genes 12 Torsion [N]-CA--CB-[CG2] |==|  0.15810
USER: genes 13 Torsion [CA]-CB--OG1-[HG1] |==|  0.11250
USER: genes 14 Torsion [C]-CA--CB-[CG] |==|  0.77593
USER: genes 15 Torsion [CA]-CB--CG-[CD] |==|  0.37306
USER: genes 16 Torsion [CB]-CG--CD-[NE] |==|  0.62940
USER: genes 17 Torsion [CG]-CD--NE-[CZ] |==|  0.62629
USER: genes 18 Torsion [C]-CA--N-[C] |==|  0.54650
USER: genes 19 Torsion [N]-C--CA-[N] |==|  0.64998
USER: genes 20 Torsion [C]-CA--N-[C] |==|  0.18110
ROOT
ATOM      1  CA  ARG D   2       5.125   6.318  33.146  1.00  9.56 LIG 0.18  C 
ENDROOT
BRANCH 1 2
ATOM      2  C   ARG D   2       4.429   7.704  33.075  1.00 11.06 LIG 0.24  C 
ATOM      3  N   THR D   3       4.398   8.287  31.881  1.00 11.45 LIG-0.34  N 
ATOM      4 H    THR D   3       4.684   7.933  31.152  1.00 11.45 LIG 0.16  HD
ATOM      5 O    ARG D   2       3.894   8.214  34.072  1.00  9.90 LIG-0.27  OA
BRANCH 3 6
ATOM      6  CA  THR D   3       3.851   9.613  31.748  1.00 13.43 LIG 0.20  C 
BRANCH 6 7
ATOM      7  C   THR D   3       2.335   9.599  31.622  1.00 15.00 LIG 0.24  C 
ATOM      8  N   LYS D   4       1.716  10.797  31.647  1.00 14.79 LIG-0.35  N 
ATOM      9 H    LYS D   4       2.128  11.551  31.675  1.00 14.79 LIG 0.16  HD
ATOM     10 O    THR D   3       1.753   8.501  31.520  1.00 15.79 LIG-0.27  OA
BRANCH 8 11
ATOM     11  CA  LYS D   4       0.225  10.908  31.627  1.00 18.13 LIG 0.16  C 
BRANCH 11 12
ATOM     12  C   LYS D   4      -0.317  11.888  30.596  1.00 20.20 LIG 0.22  C 
ATOM     13 O    LYS D   4      -1.140  11.422  29.761  1.00 21.26 LIG-0.29  OA
ENDBRANCH 11 12
BRANCH 11 14
ATOM     14  CB  LYS D   4      -0.284  11.344  33.024  1.00 18.02 LIG 0.03  C 
BRANCH 14 15
ATOM     15  CG  LYS D   4       0.801  11.939  33.893  1.00 21.48 LIG 0.00  C 
BRANCH 15 16
ATOM     16  CD  LYS D   4       1.162  11.041  35.051  1.00 25.56 LIG 0.03  C 
BRANCH 16 17
ATOM     17  CE  LYS D   4       2.660  11.203  35.399  1.00 25.12 LIG 0.23  C 
BRANCH 17 18
ATOM     18  NZ  LYS D   4       3.549  11.167  34.167  1.00 20.07 LIG-0.08  N 
ATOM     19 HZ1  LYS D   4       4.300  11.616  34.329  1.00 20.07 LIG 0.27  HD
ATOM     20 HZ2  LYS D   4       3.746  10.323  33.967  1.00 20.07 LIG 0.27  HD
ATOM     21 HZ3  LYS D   4       3.122  11.542  33.482  1.00 20.07 LIG 0.27  HD
ENDBRANCH 17 18
ENDBRANCH 16 17
ENDBRANCH 15 16
ENDBRANCH 14 15
ENDBRANCH 11 14
ENDBRANCH 8 11
ENDBRANCH 6 7
BRANCH 6 22
ATOM     22  CB  THR D   3       4.491  10.420  30.561  1.00 14.57 LIG 0.15  C 
ATOM     23  CG2 THR D   3       4.322   9.655  29.215  1.00 14.25 LIG 0.04  C 
BRANCH 22 24
ATOM     24 OG1  THR D   3       3.880  11.717  30.464  1.00 15.86 LIG-0.39  OA
ATOM     25 HG1  THR D   3       3.761  12.029  31.235  1.00 15.86 LIG 0.21  HD
ENDBRANCH 22 24
ENDBRANCH 6 22
ENDBRANCH 3 6
ENDBRANCH 1 2
BRANCH 1 26
ATOM     26  CB  ARG D   2       4.410   5.246  32.302  1.00  9.49 LIG 0.04  C 
BRANCH 26 27
ATOM     27  CG  ARG D   2       3.162   4.655  33.060  1.00 10.73 LIG 0.02  C 
BRANCH 27 28
ATOM     28  CD  ARG D   2       1.986   4.602  32.072  1.00 10.86 LIG 0.14  C 
BRANCH 28 29
ATOM     29  NE  ARG D   2       0.779   5.128  32.656  1.00 10.69 LIG-0.23  N 
ATOM     30  CZ  ARG D   2      -0.453   4.552  32.574  1.00  9.43 LIG 0.67  C 
ATOM     31  NH1 ARG D   2      -0.672   3.425  31.878  1.00 10.34 LIG-0.23  N 
ATOM     32  NH2 ARG D   2      -1.484   5.170  33.108  1.00 11.18 LIG-0.23  N 
ATOM     33 2HH1 ARG D   2      -1.461   3.086  31.846  1.00 10.34 LIG 0.17  HD
ATOM     34 1HH1 ARG D   2      -0.022   3.042  31.465  1.00 10.34 LIG 0.17  HD
ATOM     35 2HH2 ARG D   2      -2.268   4.817  33.063  1.00 11.18 LIG 0.17  HD
ATOM     36 1HH2 ARG D   2      -1.376   5.926  33.501  1.00 11.18 LIG 0.17  HD
ATOM     37 HE   ARG D   2       0.840   5.867  33.091  1.00 10.69 LIG 0.18  HD
ENDBRANCH 28 29
ENDBRANCH 27 28
ENDBRANCH 26 27
ENDBRANCH 1 26
BRANCH 1 38
ATOM     38  N   ARG D   2       5.260   5.875  34.544  1.00  9.04 LIG-0.35  N 
ATOM     39 H    ARG D   2       4.762   6.291  35.108  1.00  9.04 LIG 0.16  HD
ATOM     40  C   ALA D   1       6.114   4.887  34.862  1.00 11.17 LIG 0.24  C 
ATOM     41 O    ALA D   1       6.795   4.330  34.001  1.00 13.49 LIG-0.27  OA
BRANCH 40 42
ATOM     42  CA  ALA D   1       6.183   4.425  36.304  1.00 12.65 LIG 0.17  C 
ATOM     43  CB  ALA D   1       5.270   5.269  37.222  1.00 13.08 LIG 0.04  C 
BRANCH 42 44
ATOM     44  N   ALA D   1       7.545   4.456  36.854  1.00 12.52 LIG-0.35  N 
ATOM     45  C   ACE D   0       8.422   5.689  37.095  1.00 13.59 LIG 0.21  C 
ATOM     46 O    ACE D   0       7.865   6.783  36.758  1.00 14.78 LIG-0.27  OA
ATOM     47  CH3 ACE D   0       9.799   5.515  37.674  1.00 14.73 LIG 0.12  C 
ATOM     48 H    ALA D   1       7.830   3.666  37.043  1.00 12.52 LIG 0.16  HD
ENDBRANCH 42 44
ENDBRANCH 40 42
ENDBRANCH 1 38
TORSDOF 19
ENDMDL
MODEL 65
USER: ADFR SOLUTION from run 7
USER: SCORE 14.610687 LL:  -2.537 LR: -13.434 RR:   0.000 FEB:  -7.766
USER: RMSD 6.643507
USER: SEED 291111
USER: STATUS no improvement in best in 7 clusters for 5 generations
USER: GENES 21
USER: genes 0 Translation |==|  0.38170 0.40312 0.41336
USER: genes 1 Rotation |==|  0.52478 0.04871 0.31424 0.60593
USER: genes 2 Torsion [N]-CA--C-[N] |==|  0.02700
USER: genes 3 Torsion [C]-N--CA-[C] |==|  0.20780
USER: genes 4 Torsion [N]-CA--C-[N] |==|  0.87773
USER: genes 5 Torsion [C]-N--CA-[CB] |==|  0.78800
USER: genes 6 Torsion [N]-CA--C-[O] |==|  0.61284
USER: genes 7 Torsion [N]-CA--CB-[CG] |==|  0.84726
USER: genes 8 Torsion [CA]-CB--CG-[CD] |==|  0.32190
USER: genes 9 Torsion [CB]-CG--CD-[CE] |==|  0.55837
USER: genes 10 Torsion [CG]-CD--CE-[NZ] |==|  0.69061
USER: genes 11 Torsion [CD]-CE--NZ-[HZ1] |==|  0.29065
USER: genes 12 Torsion [N]-CA--CB-[CG2] |==|  0.35852
USER: genes 13 Torsion [CA]-CB--OG1-[HG1] |==|  0.54942
USER: genes 14 Torsion [C]-CA--CB-[CG] |==|  0.42123
USER: genes 15 Torsion [CA]-CB--CG-[CD] |==|  0.67812
USER: genes 16 Torsion [CB]-CG--CD-[NE] |==|  0.30006
USER: genes 17 Torsion [CG]-CD--NE-[CZ] |==|  0.67855
USER: genes 18 Torsion [C]-CA--N-[C] |==|  0.61708
USER: genes 19 Torsion [N]-C--CA-[N] |==|  0.84770
USER: genes 20 Torsion [C]-CA--N-[C] |==|  0.81325
ROOT
ATOM      1  CA  ARG D   2       2.603   5.891  32.054  1.00  9.56 LIG 0.18  C 
ENDROOT
BRANCH 1 2
ATOM      2  C   ARG D   2       3.771   5.388  31.163  1.00 11.06 LIG 0.24  C 
ATOM      3  N   THR D   3       4.999   5.587  31.633  1.00 11.45 LIG-0.34  N 
ATOM      4 H    THR D   3       5.184   5.922  32.403  1.00 11.45 LIG 0.16  HD
ATOM      5 O    ARG D   2       3.564   4.794  30.093  1.00  9.90 LIG-0.27  OA
BRANCH 3 6
ATOM      6  CA  THR D   3       6.138   5.232  30.827  1.00 13.43 LIG 0.20  C 
BRANCH 6 7
ATOM      7  C   THR D   3       6.372   6.221  29.694  1.00 15.00 LIG 0.24  C 
ATOM      8  N   LYS D   4       5.282   6.620  29.007  1.00 14.79 LIG-0.35  N 
ATOM      9 H    LYS D   4       4.477   6.391  29.206  1.00 14.79 LIG 0.16  HD
ATOM     10 O    THR D   3       7.537   6.593  29.456  1.00 15.79 LIG-0.27  OA
BRANCH 8 11
ATOM     11  CA  LYS D   4       5.393   7.514  27.814  1.00 18.13 LIG 0.16  C 
BRANCH 11 12
ATOM     12  C   LYS D   4       6.489   7.117  26.834  1.00 20.20 LIG 0.22  C 
ATOM     13 O    LYS D   4       7.161   8.061  26.336  1.00 21.26 LIG-0.29  OA
ENDBRANCH 11 12
BRANCH 11 14
ATOM     14  CB  LYS D   4       5.660   8.969  28.276  1.00 18.02 LIG 0.03  C 
BRANCH 14 15
ATOM     15  CG  LYS D   4       4.627   9.481  29.254  1.00 21.48 LIG 0.00  C 
BRANCH 15 16
ATOM     16  CD  LYS D   4       5.221   9.778  30.610  1.00 25.56 LIG 0.03  C 
BRANCH 16 17
ATOM     17  CE  LYS D   4       4.111   9.780  31.685  1.00 25.12 LIG 0.23  C 
BRANCH 17 18
ATOM     18  NZ  LYS D   4       3.854  11.167  32.251  1.00 20.07 LIG-0.08  N 
ATOM     19 HZ1  LYS D   4       3.097  11.490  31.913  1.00 20.07 LIG 0.27  HD
ATOM     20 HZ2  LYS D   4       3.786  11.118  33.137  1.00 20.07 LIG 0.27  HD
ATOM     21 HZ3  LYS D   4       4.528  11.706  32.034  1.00 20.07 LIG 0.27  HD
ENDBRANCH 17 18
ENDBRANCH 16 17
ENDBRANCH 15 16
ENDBRANCH 14 15
ENDBRANCH 11 14
ENDBRANCH 8 11
ENDBRANCH 6 7
BRANCH 6 22
ATOM     22  CB  THR D   3       6.053   3.766  30.263  1.00 14.57 LIG 0.15  C 
ATOM     23  CG2 THR D   3       6.300   3.748  28.726  1.00 14.25 LIG 0.04  C 
BRANCH 22 24
ATOM     24 OG1  THR D   3       7.018   2.932  30.922  1.00 15.86 LIG-0.39  OA
ATOM     25 HG1  THR D   3       7.143   2.235  30.469  1.00 15.86 LIG 0.21  HD
ENDBRANCH 22 24
ENDBRANCH 6 22
ENDBRANCH 3 6
ENDBRANCH 1 2
BRANCH 1 26
ATOM     26  CB  ARG D   2       1.533   6.659  31.256  1.00  9.49 LIG 0.04  C 
BRANCH 26 27
ATOM     27  CG  ARG D   2       0.114   6.533  31.929  1.00 10.73 LIG 0.02  C 
BRANCH 27 28
ATOM     28  CD  ARG D   2      -0.808   5.779  30.958  1.00 10.86 LIG 0.14  C 
BRANCH 28 29
ATOM     29  NE  ARG D   2      -1.090   4.444  31.422  1.00 10.69 LIG-0.23  N 
ATOM     30  CZ  ARG D   2      -0.718   3.295  30.792  1.00  9.43 LIG 0.67  C 
ATOM     31  NH1 ARG D   2      -0.072   3.300  29.616  1.00 10.34 LIG-0.23  N 
ATOM     32  NH2 ARG D   2      -1.090   2.140  31.298  1.00 11.18 LIG-0.23  N 
ATOM     33 2HH1 ARG D   2       0.150   2.558  29.244  1.00 10.34 LIG 0.17  HD
ATOM     34 1HH1 ARG D   2       0.121   4.047  29.234  1.00 10.34 LIG 0.17  HD
ATOM     35 2HH2 ARG D   2      -0.862   1.406  30.910  1.00 11.18 LIG 0.17  HD
ATOM     36 1HH2 ARG D   2      -1.562   2.117  32.016  1.00 11.18 LIG 0.17  HD
ATOM     37 HE   ARG D   2      -1.530   4.366  32.157  1.00 10.69 LIG 0.18  HD
ENDBRANCH 28 29
ENDBRANCH 27 28
ENDBRANCH 26 27
ENDBRANCH 1 26
BRANCH 1 38
ATOM     38  N   ARG D   2       3.112   6.711  33.165  1.00  9.04 LIG-0.35  N 
ATOM     39 H    ARG D   2       3.736   7.264  32.955  1.00  9.04 LIG 0.16  HD
ATOM     40  C   ALA D   1       2.604   6.567  34.401  1.00 11.17 LIG 0.24  C 
ATOM     41 O    ALA D   1       1.706   5.758  34.632  1.00 13.49 LIG-0.27  OA
BRANCH 40 42
ATOM     42  CA  ALA D   1       3.119   7.469  35.506  1.00 12.65 LIG 0.17  C 
ATOM     43  CB  ALA D   1       2.704   8.941  35.286  1.00 13.08 LIG 0.04  C 
BRANCH 42 44
ATOM     44  N   ALA D   1       4.579   7.418  35.656  1.00 12.52 LIG-0.35  N 
ATOM     45  C   ACE D   0       5.423   6.232  36.134  1.00 13.59 LIG 0.21  C 
ATOM     46 O    ACE D   0       4.735   5.203  36.429  1.00 14.78 LIG-0.27  OA
ATOM     47  CH3 ACE D   0       6.919   6.375  36.218  1.00 14.73 LIG 0.12  C 
ATOM     48 H    ALA D   1       4.947   8.164  35.437  1.00 12.52 LIG 0.16  HD
ENDBRANCH 42 44
ENDBRANCH 40 42
ENDBRANCH 1 38
TORSDOF 19
ENDMDL
MODEL 66
USER: ADFR SOLUTION from run 11
USER: SCORE 15.244863 LL:  -2.693 LR: -13.430 RR:   0.000 FEB:  -7.762
USER: RMSD 6.642400
USER: SEED 571017
USER: STATUS no improvement in best in 12 clusters for 5 generations
USER: GENES 21
USER: genes 0 Translation |==|  0.44264 0.31967 0.40211
USER: genes 1 Rotation |==|  0.20660 0.85258 0.50851 0.69882
USER: genes 2 Torsion [N]-CA--C-[N] |==|  0.28333
USER: genes 3 Torsion [C]-N--CA-[C] |==|  0.14917
USER: genes 4 Torsion [N]-CA--C-[N] |==|  0.08909
USER: genes 5 Torsion [C]-N--CA-[CB] |==|  0.24642
USER: genes 6 Torsion [N]-CA--C-[O] |==|  0.37422
USER: genes 7 Torsion [N]-CA--CB-[CG] |==|  0.54965
USER: genes 8 Torsion [CA]-CB--CG-[CD] |==|  0.38586
USER: genes 9 Torsion [CB]-CG--CD-[CE] |==|  0.04810
USER: genes 10 Torsion [CG]-CD--CE-[NZ] |==|  0.37090
USER: genes 11 Torsion [CD]-CE--NZ-[HZ1] |==|  0.29252
USER: genes 12 Torsion [N]-CA--CB-[CG2] |==|  0.55179
USER: genes 13 Torsion [CA]-CB--OG1-[HG1] |==|  0.78649
USER: genes 14 Torsion [C]-CA--CB-[CG] |==|  0.04951
USER: genes 15 Torsion [CA]-CB--CG-[CD] |==|  0.27928
USER: genes 16 Torsion [CB]-CG--CD-[NE] |==|  0.10854
USER: genes 17 Torsion [CG]-CD--NE-[CZ] |==|  0.18631
USER: genes 18 Torsion [C]-CA--N-[C] |==|  0.80387
USER: genes 19 Torsion [N]-C--CA-[N] |==|  0.25852
USER: genes 20 Torsion [C]-CA--N-[C] |==|  0.79910
ROOT
ATOM      1  CA  ARG D   2       3.791   4.577  31.859  1.00  9.56 LIG 0.18  C 
ENDROOT
BRANCH 1 2
ATOM      2  C   ARG D   2       4.404   5.184  33.150  1.00 11.06 LIG 0.24  C 
ATOM      3  N   THR D   3       4.455   4.386  34.212  1.00 11.45 LIG-0.34  N 
ATOM      4 H    THR D   3       4.224   3.558  34.217  1.00 11.45 LIG 0.16  HD
ATOM      5 O    ARG D   2       4.861   6.339  33.171  1.00  9.90 LIG-0.27  OA
BRANCH 3 6
ATOM      6  CA  THR D   3       4.925   4.902  35.471  1.00 13.43 LIG 0.20  C 
BRANCH 6 7
ATOM      7  C   THR D   3       4.171   6.153  35.897  1.00 15.00 LIG 0.24  C 
ATOM      8  N   LYS D   4       2.877   6.233  35.526  1.00 14.79 LIG-0.35  N 
ATOM      9 H    LYS D   4       2.454   5.605  35.119  1.00 14.79 LIG 0.16  HD
ATOM     10 O    THR D   3       4.781   7.029  36.541  1.00 15.79 LIG-0.27  OA
BRANCH 8 11
ATOM     11  CA  LYS D   4       2.058   7.453  35.802  1.00 18.13 LIG 0.16  C 
BRANCH 11 12
ATOM     12  C   LYS D   4       0.576   7.179  36.014  1.00 20.20 LIG 0.22  C 
ATOM     13 O    LYS D   4       0.034   7.764  36.991  1.00 21.26 LIG-0.29  OA
ENDBRANCH 11 12
BRANCH 11 14
ATOM     14  CB  LYS D   4       2.202   8.454  34.627  1.00 18.02 LIG 0.03  C 
BRANCH 14 15
ATOM     15  CG  LYS D   4       1.779   9.860  34.989  1.00 21.48 LIG 0.00  C 
BRANCH 15 16
ATOM     16  CD  LYS D   4       2.709  10.902  34.417  1.00 25.56 LIG 0.03  C 
BRANCH 16 17
ATOM     17  CE  LYS D   4       3.563  10.285  33.285  1.00 25.12 LIG 0.23  C 
BRANCH 17 18
ATOM     18  NZ  LYS D   4       3.611  11.167  32.048  1.00 20.07 LIG-0.08  N 
ATOM     19 HZ1  LYS D   4       4.406  11.564  31.997  1.00 20.07 LIG 0.27  HD
ATOM     20 HZ2  LYS D   4       3.482  10.668  31.323  1.00 20.07 LIG 0.27  HD
ATOM     21 HZ3  LYS D   4       2.974  11.787  32.100  1.00 20.07 LIG 0.27  HD
ENDBRANCH 17 18
ENDBRANCH 16 17
ENDBRANCH 15 16
ENDBRANCH 14 15
ENDBRANCH 11 14
ENDBRANCH 8 11
ENDBRANCH 6 7
BRANCH 6 22
ATOM     22  CB  THR D   3       6.475   5.168  35.481  1.00 14.57 LIG 0.15  C 
ATOM     23  CG2 THR D   3       7.012   5.265  36.939  1.00 14.25 LIG 0.04  C 
BRANCH 22 24
ATOM     24 OG1  THR D   3       7.157   4.117  34.779  1.00 15.86 LIG-0.39  OA
ATOM     25 HG1  THR D   3       7.196   3.434  35.267  1.00 15.86 LIG 0.21  HD
ENDBRANCH 22 24
ENDBRANCH 6 22
ENDBRANCH 3 6
ENDBRANCH 1 2
BRANCH 1 26
ATOM     26  CB  ARG D   2       4.640   4.857  30.606  1.00  9.49 LIG 0.04  C 
BRANCH 26 27
ATOM     27  CG  ARG D   2       6.109   5.282  30.988  1.00 10.73 LIG 0.02  C 
BRANCH 27 28
ATOM     28  CD  ARG D   2       7.020   4.056  30.812  1.00 10.86 LIG 0.14  C 
BRANCH 28 29
ATOM     29  NE  ARG D   2       6.661   3.291  29.646  1.00 10.69 LIG-0.23  N 
ATOM     30  CZ  ARG D   2       6.788   3.712  28.356  1.00  9.43 LIG 0.67  C 
ATOM     31  NH1 ARG D   2       7.233   4.939  28.044  1.00 10.34 LIG-0.23  N 
ATOM     32  NH2 ARG D   2       6.368   2.931  27.385  1.00 11.18 LIG-0.23  N 
ATOM     33 2HH1 ARG D   2       7.303   5.174  27.220  1.00 10.34 LIG 0.17  HD
ATOM     34 1HH1 ARG D   2       7.449   5.490  28.668  1.00 10.34 LIG 0.17  HD
ATOM     35 2HH2 ARG D   2       6.443   3.184  26.566  1.00 11.18 LIG 0.17  HD
ATOM     36 1HH2 ARG D   2       6.019   2.167  27.568  1.00 11.18 LIG 0.17  HD
ATOM     37 HE   ARG D   2       6.338   2.504  29.774  1.00 10.69 LIG 0.18  HD
ENDBRANCH 28 29
ENDBRANCH 27 28
ENDBRANCH 26 27
ENDBRANCH 1 26
BRANCH 1 38
ATOM     38  N   ARG D   2       2.410   5.047  31.669  1.00  9.04 LIG-0.35  N 
ATOM     39 H    ARG D   2       2.298   5.597  31.016  1.00  9.04 LIG 0.16  HD
ATOM     40  C   ALA D   1       1.429   4.618  32.482  1.00 11.17 LIG 0.24  C 
ATOM     41 O    ALA D   1       1.659   3.826  33.395  1.00 13.49 LIG-0.27  OA
BRANCH 40 42
ATOM     42  CA  ALA D   1       0.011   5.085  32.217  1.00 12.65 LIG 0.17  C 
ATOM     43  CB  ALA D   1      -0.777   5.303  33.529  1.00 13.08 LIG 0.04  C 
BRANCH 42 44
ATOM     44  N   ALA D   1      -0.750   4.159  31.370  1.00 12.52 LIG-0.35  N 
ATOM     45  C   ACE D   0      -0.575   3.916  29.867  1.00 13.59 LIG 0.21  C 
ATOM     46 O    ACE D   0       0.341   4.626  29.341  1.00 14.78 LIG-0.27  OA
ATOM     47  CH3 ACE D   0      -1.456   2.915  29.172  1.00 14.73 LIG 0.12  C 
ATOM     48 H    ALA D   1      -1.347   3.733  31.820  1.00 12.52 LIG 0.16  HD
ENDBRANCH 42 44
ENDBRANCH 40 42
ENDBRANCH 1 38
TORSDOF 19
ENDMDL
MODEL 67
USER: ADFR SOLUTION from run 80
USER: SCORE 14.889135 LL:  -2.650 LR: -13.397 RR:   0.000 FEB:  -7.730
USER: RMSD 6.380427
USER: SEED 79
USER: STATUS no improvement in best in 4 clusters for 5 generations
USER: GENES 21
USER: genes 0 Translation |==|  0.42984 0.61081 0.51240
USER: genes 1 Rotation |==|  0.29810 0.26725 0.77427 0.78256
USER: genes 2 Torsion [N]-CA--C-[N] |==|  0.22346
USER: genes 3 Torsion [C]-N--CA-[C] |==|  0.17545
USER: genes 4 Torsion [N]-CA--C-[N] |==|  0.00000
USER: genes 5 Torsion [C]-N--CA-[CB] |==|  0.46439
USER: genes 6 Torsion [N]-CA--C-[O] |==|  0.08257
USER: genes 7 Torsion [N]-CA--CB-[CG] |==|  0.80315
USER: genes 8 Torsion [CA]-CB--CG-[CD] |==|  0.76706
USER: genes 9 Torsion [CB]-CG--CD-[CE] |==|  0.65834
USER: genes 10 Torsion [CG]-CD--CE-[NZ] |==|  0.43654
USER: genes 11 Torsion [CD]-CE--NZ-[HZ1] |==|  0.20924
USER: genes 12 Torsion [N]-CA--CB-[CG2] |==|  0.29517
USER: genes 13 Torsion [CA]-CB--OG1-[HG1] |==|  0.25447
USER: genes 14 Torsion [C]-CA--CB-[CG] |==|  0.32839
USER: genes 15 Torsion [CA]-CB--CG-[CD] |==|  0.41871
USER: genes 16 Torsion [CB]-CG--CD-[NE] |==|  0.72921
USER: genes 17 Torsion [CG]-CD--NE-[CZ] |==|  0.53233
USER: genes 18 Torsion [C]-CA--N-[C] |==|  0.65509
USER: genes 19 Torsion [N]-C--CA-[N] |==|  0.86165
USER: genes 20 Torsion [C]-CA--N-[C] |==|  0.83477
ROOT
ATOM      1  CA  ARG D   2       3.542   9.162  33.762  1.00  9.56 LIG 0.18  C 
ENDROOT
BRANCH 1 2
ATOM      2  C   ARG D   2       4.049   7.875  34.467  1.00 11.06 LIG 0.24  C 
ATOM      3  N   THR D   3       5.368   7.726  34.546  1.00 11.45 LIG-0.34  N 
ATOM      4 H    THR D   3       5.946   8.307  34.285  1.00 11.45 LIG 0.16  HD
ATOM      5 O    ARG D   2       3.262   7.055  34.966  1.00  9.90 LIG-0.27  OA
BRANCH 3 6
ATOM      6  CA  THR D   3       5.917   6.518  35.103  1.00 13.43 LIG 0.20  C 
BRANCH 6 7
ATOM      7  C   THR D   3       5.558   5.290  34.279  1.00 15.00 LIG 0.24  C 
ATOM      8  N   LYS D   4       4.802   5.499  33.182  1.00 14.79 LIG-0.35  N 
ATOM      9 H    LYS D   4       4.566   6.278  32.902  1.00 14.79 LIG 0.16  HD
ATOM     10 O    THR D   3       5.960   4.174  34.662  1.00 15.79 LIG-0.27  OA
BRANCH 8 11
ATOM     11  CA  LYS D   4       4.306   4.364  32.346  1.00 18.13 LIG 0.16  C 
BRANCH 11 12
ATOM     12  C   LYS D   4       5.387   3.663  31.534  1.00 20.20 LIG 0.22  C 
ATOM     13 O    LYS D   4       6.547   3.667  32.029  1.00 21.26 LIG-0.29  OA
ENDBRANCH 11 12
BRANCH 11 14
ATOM     14  CB  LYS D   4       3.219   4.875  31.366  1.00 18.02 LIG 0.03  C 
BRANCH 14 15
ATOM     15  CG  LYS D   4       1.922   5.238  32.053  1.00 21.48 LIG 0.00  C 
BRANCH 15 16
ATOM     16  CD  LYS D   4       1.036   4.036  32.271  1.00 25.56 LIG 0.03  C 
BRANCH 16 17
ATOM     17  CE  LYS D   4      -0.340   4.265  31.605  1.00 25.12 LIG 0.23  C 
BRANCH 17 18
ATOM     18  NZ  LYS D   4      -1.060   2.963  31.296  1.00 20.07 LIG-0.08  N 
ATOM     19 HZ1  LYS D   4      -1.388   2.619  32.048  1.00 20.07 LIG 0.27  HD
ATOM     20 HZ2  LYS D   4      -1.725   3.119  30.726  1.00 20.07 LIG 0.27  HD
ATOM     21 HZ3  LYS D   4      -0.487   2.386  30.932  1.00 20.07 LIG 0.27  HD
ENDBRANCH 17 18
ENDBRANCH 16 17
ENDBRANCH 15 16
ENDBRANCH 14 15
ENDBRANCH 11 14
ENDBRANCH 8 11
ENDBRANCH 6 7
BRANCH 6 22
ATOM     22  CB  THR D   3       5.516   6.302  36.608  1.00 14.57 LIG 0.15  C 
ATOM     23  CG2 THR D   3       4.450   5.175  36.742  1.00 14.25 LIG 0.04  C 
BRANCH 22 24
ATOM     24 OG1  THR D   3       6.679   5.969  37.382  1.00 15.86 LIG-0.39  OA
ATOM     25 HG1  THR D   3       7.019   6.671  37.695  1.00 15.86 LIG 0.21  HD
ENDBRANCH 22 24
ENDBRANCH 6 22
ENDBRANCH 3 6
ENDBRANCH 1 2
BRANCH 1 26
ATOM     26  CB  ARG D   2       2.134   9.580  34.223  1.00  9.49 LIG 0.04  C 
BRANCH 26 27
ATOM     27  CG  ARG D   2       2.149  11.000  34.905  1.00 10.73 LIG 0.02  C 
BRANCH 27 28
ATOM     28  CD  ARG D   2       0.779  11.656  34.670  1.00 10.86 LIG 0.14  C 
BRANCH 28 29
ATOM     29  NE  ARG D   2       0.809  12.561  33.549  1.00 10.69 LIG-0.23  N 
ATOM     30  CZ  ARG D   2      -0.170  13.452  33.229  1.00  9.43 LIG 0.67  C 
ATOM     31  NH1 ARG D   2      -1.313  13.542  33.926  1.00 10.34 LIG-0.23  N 
ATOM     32  NH2 ARG D   2      -0.038  14.182  32.143  1.00 11.18 LIG-0.23  N 
ATOM     33 2HH1 ARG D   2      -1.911  14.116  33.698  1.00 10.34 LIG 0.17  HD
ATOM     34 1HH1 ARG D   2      -1.447  13.025  34.600  1.00 10.34 LIG 0.17  HD
ATOM     35 2HH2 ARG D   2      -0.649  14.749  31.929  1.00 11.18 LIG 0.17  HD
ATOM     36 1HH2 ARG D   2       0.657  14.093  31.646  1.00 11.18 LIG 0.17  HD
ATOM     37 HE   ARG D   2       1.502  12.536  33.040  1.00 10.69 LIG 0.18  HD
ENDBRANCH 28 29
ENDBRANCH 27 28
ENDBRANCH 26 27
ENDBRANCH 1 26
BRANCH 1 38
ATOM     38  N   ARG D   2       3.586   9.006  32.299  1.00  9.04 LIG-0.35  N 
ATOM     39 H    ARG D   2       3.153   8.329  31.991  1.00  9.04 LIG 0.16  HD
ATOM     40  C   ALA D   1       4.267   9.885  31.544  1.00 11.17 LIG 0.24  C 
ATOM     41 O    ALA D   1       4.860  10.836  32.050  1.00 13.49 LIG-0.27  OA
BRANCH 40 42
ATOM     42  CA  ALA D   1       4.242   9.718  30.037  1.00 12.65 LIG 0.17  C 
ATOM     43  CB  ALA D   1       2.872  10.112  29.438  1.00 13.08 LIG 0.04  C 
BRANCH 42 44
ATOM     44  N   ALA D   1       4.558   8.351  29.604  1.00 12.52 LIG-0.35  N 
ATOM     45  C   ACE D   0       5.844   7.564  29.876  1.00 13.59 LIG 0.21  C 
ATOM     46 O    ACE D   0       6.706   8.216  30.550  1.00 14.78 LIG-0.27  OA
ATOM     47  CH3 ACE D   0       5.980   6.162  29.348  1.00 14.73 LIG 0.12  C 
ATOM     48 H    ALA D   1       3.913   8.003  29.152  1.00 12.52 LIG 0.16  HD
ENDBRANCH 42 44
ENDBRANCH 40 42
ENDBRANCH 1 38
TORSDOF 19
ENDMDL
MODEL 68
USER: ADFR SOLUTION from run 1
USER: SCORE 15.126219 LL:  -3.179 LR: -13.397 RR:   0.000 FEB:  -7.729
USER: RMSD 6.496346
USER: SEED 700287
USER: STATUS no improvement in best in 4 clusters for 5 generations
USER: GENES 21
USER: genes 0 Translation |==|  0.43834 0.28980 0.47496
USER: genes 1 Rotation |==|  0.63294 0.06581 0.32962 0.62154
USER: genes 2 Torsion [N]-CA--C-[N] |==|  0.71306
USER: genes 3 Torsion [C]-N--CA-[C] |==|  0.65231
USER: genes 4 Torsion [N]-CA--C-[N] |==|  0.99237
USER: genes 5 Torsion [C]-N--CA-[CB] |==|  0.30819
USER: genes 6 Torsion [N]-CA--C-[O] |==|  0.93490
USER: genes 7 Torsion [N]-CA--CB-[CG] |==|  0.08756
USER: genes 8 Torsion [CA]-CB--CG-[CD] |==|  0.31269
USER: genes 9 Torsion [CB]-CG--CD-[CE] |==|  0.76992
USER: genes 10 Torsion [CG]-CD--CE-[NZ] |==|  0.32722
USER: genes 11 Torsion [CD]-CE--NZ-[HZ1] |==|  0.66593
USER: genes 12 Torsion [N]-CA--CB-[CG2] |==|  0.91995
USER: genes 13 Torsion [CA]-CB--OG1-[HG1] |==|  0.38114
USER: genes 14 Torsion [C]-CA--CB-[CG] |==|  0.54382
USER: genes 15 Torsion [CA]-CB--CG-[CD] |==|  0.48229
USER: genes 16 Torsion [CB]-CG--CD-[NE] |==|  0.26173
USER: genes 17 Torsion [CG]-CD--NE-[CZ] |==|  0.74490
USER: genes 18 Torsion [C]-CA--N-[C] |==|  0.18273
USER: genes 19 Torsion [N]-C--CA-[N] |==|  0.23889
USER: genes 20 Torsion [C]-CA--N-[C] |==|  0.81350
ROOT
ATOM      1  CA  ARG D   2       3.708   4.106  33.116  1.00  9.56 LIG 0.18  C 
ENDROOT
BRANCH 1 2
ATOM      2  C   ARG D   2       5.045   4.206  32.333  1.00 11.06 LIG 0.24  C 
ATOM      3  N   THR D   3       5.025   4.937  31.223  1.00 11.45 LIG-0.34  N 
ATOM      4 H    THR D   3       4.351   5.390  30.943  1.00 11.45 LIG 0.16  HD
ATOM      5 O    ARG D   2       6.083   3.667  32.749  1.00  9.90 LIG-0.27  OA
BRANCH 3 6
ATOM      6  CA  THR D   3       6.200   5.005  30.392  1.00 13.43 LIG 0.20  C 
BRANCH 6 7
ATOM      7  C   THR D   3       6.644   6.439  30.144  1.00 15.00 LIG 0.24  C 
ATOM      8  N   LYS D   4       5.870   7.411  30.668  1.00 14.79 LIG-0.35  N 
ATOM      9 H    LYS D   4       5.186   7.263  31.169  1.00 14.79 LIG 0.16  HD
ATOM     10 O    THR D   3       7.673   6.638  29.468  1.00 15.79 LIG-0.27  OA
BRANCH 8 11
ATOM     11  CA  LYS D   4       6.149   8.857  30.413  1.00 18.13 LIG 0.16  C 
BRANCH 11 12
ATOM     12  C   LYS D   4       6.249   9.708  31.671  1.00 20.20 LIG 0.22  C 
ATOM     13 O    LYS D   4       5.662   9.263  32.694  1.00 21.26 LIG-0.29  OA
ENDBRANCH 11 12
BRANCH 11 14
ATOM     14  CB  LYS D   4       5.036   9.452  29.512  1.00 18.02 LIG 0.03  C 
BRANCH 14 15
ATOM     15  CG  LYS D   4       3.688   8.803  29.728  1.00 21.48 LIG 0.00  C 
BRANCH 15 16
ATOM     16  CD  LYS D   4       2.691   9.751  30.350  1.00 25.56 LIG 0.03  C 
BRANCH 16 17
ATOM     17  CE  LYS D   4       2.883   9.788  31.884  1.00 25.12 LIG 0.23  C 
BRANCH 17 18
ATOM     18  NZ  LYS D   4       3.275  11.167  32.387  1.00 20.07 LIG-0.08  N 
ATOM     19 HZ1  LYS D   4       4.063  11.120  32.798  1.00 20.07 LIG 0.27  HD
ATOM     20 HZ2  LYS D   4       3.333  11.728  31.699  1.00 20.07 LIG 0.27  HD
ATOM     21 HZ3  LYS D   4       2.660  11.461  32.959  1.00 20.07 LIG 0.27  HD
ENDBRANCH 17 18
ENDBRANCH 16 17
ENDBRANCH 15 16
ENDBRANCH 14 15
ENDBRANCH 11 14
ENDBRANCH 8 11
ENDBRANCH 6 7
BRANCH 6 22
ATOM     22  CB  THR D   3       6.028   4.242  29.029  1.00 14.57 LIG 0.15  C 
ATOM     23  CG2 THR D   3       5.025   3.060  29.177  1.00 14.25 LIG 0.04  C 
BRANCH 22 24
ATOM     24 OG1  THR D   3       5.567   5.149  28.015  1.00 15.86 LIG-0.39  OA
ATOM     25 HG1  THR D   3       5.987   5.007  27.300  1.00 15.86 LIG 0.21  HD
ENDBRANCH 22 24
ENDBRANCH 6 22
ENDBRANCH 3 6
ENDBRANCH 1 2
BRANCH 1 26
ATOM     26  CB  ARG D   2       2.479   4.417  32.242  1.00  9.49 LIG 0.04  C 
BRANCH 26 27
ATOM     27  CG  ARG D   2       1.203   4.701  33.122  1.00 10.73 LIG 0.02  C 
BRANCH 27 28
ATOM     28  CD  ARG D   2       0.072   5.157  32.186  1.00 10.86 LIG 0.14  C 
BRANCH 28 29
ATOM     29  NE  ARG D   2      -0.766   4.054  31.790  1.00 10.69 LIG-0.23  N 
ATOM     30  CZ  ARG D   2      -0.591   3.292  30.674  1.00  9.43 LIG 0.67  C 
ATOM     31  NH1 ARG D   2       0.386   3.536  29.786  1.00 10.34 LIG-0.23  N 
ATOM     32  NH2 ARG D   2      -1.465   2.348  30.402  1.00 11.18 LIG-0.23  N 
ATOM     33 2HH1 ARG D   2       0.470   3.036  29.092  1.00 10.34 LIG 0.17  HD
ATOM     34 1HH1 ARG D   2       0.927   4.192  29.912  1.00 10.34 LIG 0.17  HD
ATOM     35 2HH2 ARG D   2      -1.366   1.859  29.701  1.00 11.18 LIG 0.17  HD
ATOM     36 1HH2 ARG D   2      -2.135   2.219  30.924  1.00 11.18 LIG 0.17  HD
ATOM     37 HE   ARG D   2      -1.432   3.861  32.299  1.00 10.69 LIG 0.18  HD
ENDBRANCH 28 29
ENDBRANCH 27 28
ENDBRANCH 26 27
ENDBRANCH 1 26
BRANCH 1 38
ATOM     38  N   ARG D   2       3.735   4.975  34.304  1.00  9.04 LIG-0.35  N 
ATOM     39 H    ARG D   2       3.711   4.563  35.058  1.00  9.04 LIG 0.16  HD
ATOM     40  C   ALA D   1       3.793   6.311  34.165  1.00 11.17 LIG 0.24  C 
ATOM     41 O    ALA D   1       3.831   6.836  33.053  1.00 13.49 LIG-0.27  OA
BRANCH 40 42
ATOM     42  CA  ALA D   1       3.874   7.167  35.414  1.00 12.65 LIG 0.17  C 
ATOM     43  CB  ALA D   1       3.246   8.562  35.196  1.00 13.08 LIG 0.04  C 
BRANCH 42 44
ATOM     44  N   ALA D   1       5.248   7.350  35.898  1.00 12.52 LIG-0.35  N 
ATOM     45  C   ACE D   0       6.178   6.282  36.483  1.00 13.59 LIG 0.21  C 
ATOM     46 O    ACE D   0       5.650   5.125  36.541  1.00 14.78 LIG-0.27  OA
ATOM     47  CH3 ACE D   0       7.564   6.667  36.923  1.00 14.73 LIG 0.12  C 
ATOM     48 H    ALA D   1       5.507   8.167  35.820  1.00 12.52 LIG 0.16  HD
ENDBRANCH 42 44
ENDBRANCH 40 42
ENDBRANCH 1 38
TORSDOF 19
ENDMDL
MODEL 69
USER: ADFR SOLUTION from run 112
USER: SCORE 15.637936 LL:  -2.374 LR: -13.380 RR:   0.000 FEB:  -7.712
USER: RMSD 7.035050
USER: SEED 111
USER: STATUS no improvement in best in 5 clusters for 5 generations
USER: GENES 21
USER: genes 0 Translation |==|  0.55362 0.58454 0.31982
USER: genes 1 Rotation |==|  0.35776 0.50817 0.60438 0.96777
USER: genes 2 Torsion [N]-CA--C-[N] |==|  0.38725
USER: genes 3 Torsion [C]-N--CA-[C] |==|  0.77940
USER: genes 4 Torsion [N]-CA--C-[N] |==|  0.92170
USER: genes 5 Torsion [C]-N--CA-[CB] |==|  0.48814
USER: genes 6 Torsion [N]-CA--C-[O] |==|  0.34589
USER: genes 7 Torsion [N]-CA--CB-[CG] |==|  0.58972
USER: genes 8 Torsion [CA]-CB--CG-[CD] |==|  0.28244
USER: genes 9 Torsion [CB]-CG--CD-[CE] |==|  0.29911
USER: genes 10 Torsion [CG]-CD--CE-[NZ] |==|  0.99616
USER: genes 11 Torsion [CD]-CE--NZ-[HZ1] |==|  0.17915
USER: genes 12 Torsion [N]-CA--CB-[CG2] |==|  0.88016
USER: genes 13 Torsion [CA]-CB--OG1-[HG1] |==|  0.85946
USER: genes 14 Torsion [C]-CA--CB-[CG] |==|  0.69922
USER: genes 15 Torsion [CA]-CB--CG-[CD] |==|  0.19613
USER: genes 16 Torsion [CB]-CG--CD-[NE] |==|  0.19663
USER: genes 17 Torsion [CG]-CD--NE-[CZ] |==|  0.36683
USER: genes 18 Torsion [C]-CA--N-[C] |==|  0.82115
USER: genes 19 Torsion [N]-C--CA-[N] |==|  0.94189
USER: genes 20 Torsion [C]-CA--N-[C] |==|  0.83266
ROOT
ATOM      1  CA  ARG D   2       5.956   8.748  30.440  1.00  9.56 LIG 0.18  C 
ENDROOT
BRANCH 1 2
ATOM      2  C   ARG D   2       5.205   7.465  30.886  1.00 11.06 LIG 0.24  C 
ATOM      3  N   THR D   3       5.948   6.377  31.062  1.00 11.45 LIG-0.34  N 
ATOM      4 H    THR D   3       6.805   6.351  30.998  1.00 11.45 LIG 0.16  HD
ATOM      5 O    ARG D   2       3.983   7.471  31.108  1.00  9.90 LIG-0.27  OA
BRANCH 3 6
ATOM      6  CA  THR D   3       5.316   5.125  31.388  1.00 13.43 LIG 0.20  C 
BRANCH 6 7
ATOM      7  C   THR D   3       4.944   5.036  32.860  1.00 15.00 LIG 0.24  C 
ATOM      8  N   LYS D   4       5.703   5.746  33.720  1.00 14.79 LIG-0.35  N 
ATOM      9 H    LYS D   4       6.336   6.275  33.477  1.00 14.79 LIG 0.16  HD
ATOM     10 O    THR D   3       3.984   4.313  33.192  1.00 15.79 LIG-0.27  OA
BRANCH 8 11
ATOM     11  CA  LYS D   4       5.496   5.664  35.198  1.00 18.13 LIG 0.16  C 
BRANCH 11 12
ATOM     12  C   LYS D   4       4.130   6.146  35.667  1.00 20.20 LIG 0.22  C 
ATOM     13 O    LYS D   4       3.454   5.330  36.350  1.00 21.26 LIG-0.29  OA
ENDBRANCH 11 12
BRANCH 11 14
ATOM     14  CB  LYS D   4       6.580   6.502  35.923  1.00 18.02 LIG 0.03  C 
BRANCH 14 15
ATOM     15  CG  LYS D   4       6.971   5.931  37.267  1.00 21.48 LIG 0.00  C 
BRANCH 15 16
ATOM     16  CD  LYS D   4       8.280   5.182  37.211  1.00 25.56 LIG 0.03  C 
BRANCH 16 17
ATOM     17  CE  LYS D   4       9.387   5.997  37.919  1.00 25.12 LIG 0.23  C 
BRANCH 17 18
ATOM     18  NZ  LYS D   4       8.880   7.329  38.446  1.00 20.07 LIG-0.08  N 
ATOM     19 HZ1  LYS D   4       8.272   7.187  39.079  1.00 20.07 LIG 0.27  HD
ATOM     20 HZ2  LYS D   4       9.559   7.792  38.786  1.00 20.07 LIG 0.27  HD
ATOM     21 HZ3  LYS D   4       8.511   7.791  37.780  1.00 20.07 LIG 0.27  HD
ENDBRANCH 17 18
ENDBRANCH 16 17
ENDBRANCH 15 16
ENDBRANCH 14 15
ENDBRANCH 11 14
ENDBRANCH 8 11
ENDBRANCH 6 7
BRANCH 6 22
ATOM     22  CB  THR D   3       6.177   3.879  30.965  1.00 14.57 LIG 0.15  C 
ATOM     23  CG2 THR D   3       6.786   4.081  29.546  1.00 14.25 LIG 0.04  C 
BRANCH 22 24
ATOM     24 OG1  THR D   3       7.228   3.663  31.920  1.00 15.86 LIG-0.39  OA
ATOM     25 HG1  THR D   3       7.643   4.382  32.048  1.00 15.86 LIG 0.21  HD
ENDBRANCH 22 24
ENDBRANCH 6 22
ENDBRANCH 3 6
ENDBRANCH 1 2
BRANCH 1 26
ATOM     26  CB  ARG D   2       6.316   9.670  31.620  1.00  9.49 LIG 0.04  C 
BRANCH 26 27
ATOM     27  CG  ARG D   2       5.430  10.973  31.624  1.00 10.73 LIG 0.02  C 
BRANCH 27 28
ATOM     28  CD  ARG D   2       3.997  10.573  32.011  1.00 10.86 LIG 0.14  C 
BRANCH 28 29
ATOM     29  NE  ARG D   2       3.908  10.199  33.400  1.00 10.69 LIG-0.23  N 
ATOM     30  CZ  ARG D   2       2.966  10.646  34.277  1.00  9.43 LIG 0.67  C 
ATOM     31  NH1 ARG D   2       2.030  11.542  33.929  1.00 10.34 LIG-0.23  N 
ATOM     32  NH2 ARG D   2       3.034  10.266  35.535  1.00 11.18 LIG-0.23  N 
ATOM     33 2HH1 ARG D   2       1.450  11.804  34.507  1.00 10.34 LIG 0.17  HD
ATOM     34 1HH1 ARG D   2       2.011  11.855  33.128  1.00 10.34 LIG 0.17  HD
ATOM     35 2HH2 ARG D   2       2.446  10.540  36.100  1.00 11.18 LIG 0.17  HD
ATOM     36 1HH2 ARG D   2       3.666   9.743  35.793  1.00 11.18 LIG 0.17  HD
ATOM     37 HE   ARG D   2       4.497   9.649  33.699  1.00 10.69 LIG 0.18  HD
ENDBRANCH 28 29
ENDBRANCH 27 28
ENDBRANCH 26 27
ENDBRANCH 1 26
BRANCH 1 38
ATOM     38  N   ARG D   2       5.178   9.480  29.426  1.00  9.04 LIG-0.35  N 
ATOM     39 H    ARG D   2       4.907  10.260  29.668  1.00  9.04 LIG 0.16  HD
ATOM     40  C   ALA D   1       4.938   8.925  28.226  1.00 11.17 LIG 0.24  C 
ATOM     41 O    ALA D   1       5.361   7.805  27.945  1.00 13.49 LIG-0.27  OA
BRANCH 40 42
ATOM     42  CA  ALA D   1       4.179   9.734  27.192  1.00 12.65 LIG 0.17  C 
ATOM     43  CB  ALA D   1       5.125  10.340  26.130  1.00 13.08 LIG 0.04  C 
BRANCH 42 44
ATOM     44  N   ALA D   1       3.389  10.823  27.781  1.00 12.52 LIG-0.35  N 
ATOM     45  C   ACE D   0       2.252  10.699  28.800  1.00 13.59 LIG 0.21  C 
ATOM     46 O    ACE D   0       1.998   9.497  29.136  1.00 14.78 LIG-0.27  OA
ATOM     47  CH3 ACE D   0       1.559  11.941  29.291  1.00 14.73 LIG 0.12  C 
ATOM     48 H    ALA D   1       3.635  11.591  27.483  1.00 12.52 LIG 0.16  HD
ENDBRANCH 42 44
ENDBRANCH 40 42
ENDBRANCH 1 38
TORSDOF 19
ENDMDL
MODEL 70
USER: ADFR SOLUTION from run 70
USER: SCORE 15.842358 LL:  -3.147 LR: -13.361 RR:   0.000 FEB:  -7.693
USER: RMSD 5.921071
USER: SEED 69
USER: STATUS no improvement in best in 4 clusters for 5 generations
USER: GENES 21
USER: genes 0 Translation |==|  0.55526 0.35268 0.35634
USER: genes 1 Rotation |==|  0.43156 0.84725 0.47190 0.85205
USER: genes 2 Torsion [N]-CA--C-[N] |==|  0.97670
USER: genes 3 Torsion [C]-N--CA-[C] |==|  0.61667
USER: genes 4 Torsion [N]-CA--C-[N] |==|  0.92717
USER: genes 5 Torsion [C]-N--CA-[CB] |==|  0.48058
USER: genes 6 Torsion [N]-CA--C-[O] |==|  0.93930
USER: genes 7 Torsion [N]-CA--CB-[CG] |==|  0.65378
USER: genes 8 Torsion [CA]-CB--CG-[CD] |==|  0.43064
USER: genes 9 Torsion [CB]-CG--CD-[CE] |==|  0.08144
USER: genes 10 Torsion [CG]-CD--CE-[NZ] |==|  0.67829
USER: genes 11 Torsion [CD]-CE--NZ-[HZ1] |==|  0.32543
USER: genes 12 Torsion [N]-CA--CB-[CG2] |==|  0.43240
USER: genes 13 Torsion [CA]-CB--OG1-[HG1] |==|  0.79123
USER: genes 14 Torsion [C]-CA--CB-[CG] |==|  0.56859
USER: genes 15 Torsion [CA]-CB--CG-[CD] |==|  0.79158
USER: genes 16 Torsion [CB]-CG--CD-[NE] |==|  0.81973
USER: genes 17 Torsion [CG]-CD--NE-[CZ] |==|  0.32642
USER: genes 18 Torsion [C]-CA--N-[C] |==|  0.77880
USER: genes 19 Torsion [N]-C--CA-[N] |==|  0.96941
USER: genes 20 Torsion [C]-CA--N-[C] |==|  0.82528
ROOT
ATOM      1  CA  ARG D   2       5.988   5.097  31.070  1.00  9.56 LIG 0.18  C 
ENDROOT
BRANCH 1 2
ATOM      2  C   ARG D   2       5.801   4.543  32.508  1.00 11.06 LIG 0.24  C 
ATOM      3  N   THR D   3       5.364   5.406  33.420  1.00 11.45 LIG-0.34  N 
ATOM      4 H    THR D   3       5.133   6.218  33.259  1.00 11.45 LIG 0.16  HD
ATOM      5 O    ARG D   2       6.008   3.349  32.777  1.00  9.90 LIG-0.27  OA
BRANCH 3 6
ATOM      6  CA  THR D   3       5.251   4.995  34.796  1.00 13.43 LIG 0.20  C 
BRANCH 6 7
ATOM      7  C   THR D   3       3.970   5.502  35.443  1.00 15.00 LIG 0.24  C 
ATOM      8  N   LYS D   4       3.436   6.626  34.925  1.00 14.79 LIG-0.35  N 
ATOM      9 H    LYS D   4       3.744   7.030  34.231  1.00 14.79 LIG 0.16  HD
ATOM     10 O    THR D   3       3.499   4.872  36.410  1.00 15.79 LIG-0.27  OA
BRANCH 8 11
ATOM     11  CA  LYS D   4       2.234   7.274  35.534  1.00 18.13 LIG 0.16  C 
BRANCH 11 12
ATOM     12  C   LYS D   4       0.965   6.436  35.458  1.00 20.20 LIG 0.22  C 
ATOM     13 O    LYS D   4       0.936   5.545  34.567  1.00 21.26 LIG-0.29  OA
ENDBRANCH 11 12
BRANCH 11 14
ATOM     14  CB  LYS D   4       1.962   8.630  34.834  1.00 18.02 LIG 0.03  C 
BRANCH 14 15
ATOM     15  CG  LYS D   4       1.903   9.794  35.797  1.00 21.48 LIG 0.00  C 
BRANCH 15 16
ATOM     16  CD  LYS D   4       2.240  11.105  35.129  1.00 25.56 LIG 0.03  C 
BRANCH 16 17
ATOM     17  CE  LYS D   4       1.841  11.057  33.636  1.00 25.12 LIG 0.23  C 
BRANCH 17 18
ATOM     18  NZ  LYS D   4       3.041  11.167  32.711  1.00 20.07 LIG-0.08  N 
ATOM     19 HZ1  LYS D   4       3.116  10.422  32.231  1.00 20.07 LIG 0.27  HD
ATOM     20 HZ2  LYS D   4       2.932  11.861  32.165  1.00 20.07 LIG 0.27  HD
ATOM     21 HZ3  LYS D   4       3.779  11.283  33.194  1.00 20.07 LIG 0.27  HD
ENDBRANCH 17 18
ENDBRANCH 16 17
ENDBRANCH 15 16
ENDBRANCH 14 15
ENDBRANCH 11 14
ENDBRANCH 8 11
ENDBRANCH 6 7
BRANCH 6 22
ATOM     22  CB  THR D   3       6.499   5.405  35.660  1.00 14.57 LIG 0.15  C 
ATOM     23  CG2 THR D   3       6.119   5.515  37.166  1.00 14.25 LIG 0.04  C 
BRANCH 22 24
ATOM     24 OG1  THR D   3       7.550   4.440  35.490  1.00 15.86 LIG-0.39  OA
ATOM     25 HG1  THR D   3       7.362   3.743  35.919  1.00 15.86 LIG 0.21  HD
ENDBRANCH 22 24
ENDBRANCH 6 22
ENDBRANCH 3 6
ENDBRANCH 1 2
BRANCH 1 26
ATOM     26  CB  ARG D   2       7.454   5.059  30.601  1.00  9.49 LIG 0.04  C 
BRANCH 26 27
ATOM     27  CG  ARG D   2       7.729   6.136  29.485  1.00 10.73 LIG 0.02  C 
BRANCH 27 28
ATOM     28  CD  ARG D   2       7.110   5.630  28.172  1.00 10.86 LIG 0.14  C 
BRANCH 28 29
ATOM     29  NE  ARG D   2       7.759   4.431  27.706  1.00 10.69 LIG-0.23  N 
ATOM     30  CZ  ARG D   2       7.160   3.217  27.558  1.00  9.43 LIG 0.67  C 
ATOM     31  NH1 ARG D   2       5.877   3.006  27.888  1.00 10.34 LIG-0.23  N 
ATOM     32  NH2 ARG D   2       7.886   2.189  27.175  1.00 11.18 LIG-0.23  N 
ATOM     33 2HH1 ARG D   2       5.528   2.227  27.782  1.00 10.34 LIG 0.17  HD
ATOM     34 1HH1 ARG D   2       5.403   3.650  28.205  1.00 10.34 LIG 0.17  HD
ATOM     35 2HH2 ARG D   2       7.521   1.416  27.077  1.00 11.18 LIG 0.17  HD
ATOM     36 1HH2 ARG D   2       8.726   2.289  27.022  1.00 11.18 LIG 0.17  HD
ATOM     37 HE   ARG D   2       8.593   4.487  27.505  1.00 10.69 LIG 0.18  HD
ENDBRANCH 28 29
ENDBRANCH 27 28
ENDBRANCH 26 27
ENDBRANCH 1 26
BRANCH 1 38
ATOM     38  N   ARG D   2       5.442   6.460  30.962  1.00  9.04 LIG-0.35  N 
ATOM     39 H    ARG D   2       6.025   7.090  31.000  1.00  9.04 LIG 0.16  HD
ATOM     40  C   ALA D   1       4.119   6.650  30.816  1.00 11.17 LIG 0.24  C 
ATOM     41 O    ALA D   1       3.339   5.699  30.765  1.00 13.49 LIG-0.27  OA
BRANCH 40 42
ATOM     42  CA  ALA D   1       3.604   8.067  30.655  1.00 12.65 LIG 0.17  C 
ATOM     43  CB  ALA D   1       3.047   8.317  29.234  1.00 13.08 LIG 0.04  C 
BRANCH 42 44
ATOM     44  N   ALA D   1       4.624   9.085  30.936  1.00 12.52 LIG-0.35  N 
ATOM     45  C   ACE D   0       5.340   9.340  32.267  1.00 13.59 LIG 0.21  C 
ATOM     46 O    ACE D   0       4.968   8.560  33.202  1.00 14.78 LIG-0.27  OA
ATOM     47  CH3 ACE D   0       6.366  10.436  32.357  1.00 14.73 LIG 0.12  C 
ATOM     48 H    ALA D   1       4.799   9.561  30.241  1.00 12.52 LIG 0.16  HD
ENDBRANCH 42 44
ENDBRANCH 40 42
ENDBRANCH 1 38
TORSDOF 19
ENDMDL
MODEL 71
USER: ADFR SOLUTION from run 199
USER: SCORE 16.091252 LL:  -3.604 LR: -13.338 RR:   0.000 FEB:  -7.670
USER: RMSD 5.478592
USER: SEED 198
USER: STATUS no improvement in best in 3 clusters for 5 generations
USER: GENES 21
USER: genes 0 Translation |==|  0.50519 0.44265 0.36889
USER: genes 1 Rotation |==|  0.56303 0.83329 0.43104 0.86082
USER: genes 2 Torsion [N]-CA--C-[N] |==|  0.90750
USER: genes 3 Torsion [C]-N--CA-[C] |==|  0.80312
USER: genes 4 Torsion [N]-CA--C-[N] |==|  0.92803
USER: genes 5 Torsion [C]-N--CA-[CB] |==|  0.74745
USER: genes 6 Torsion [N]-CA--C-[O] |==|  0.25853
USER: genes 7 Torsion [N]-CA--CB-[CG] |==|  0.20983
USER: genes 8 Torsion [CA]-CB--CG-[CD] |==|  0.69746
USER: genes 9 Torsion [CB]-CG--CD-[CE] |==|  0.76259
USER: genes 10 Torsion [CG]-CD--CE-[NZ] |==|  0.73698
USER: genes 11 Torsion [CD]-CE--NZ-[HZ1] |==|  0.07507
USER: genes 12 Torsion [N]-CA--CB-[CG2] |==|  0.72161
USER: genes 13 Torsion [CA]-CB--OG1-[HG1] |==|  0.12191
USER: genes 14 Torsion [C]-CA--CB-[CG] |==|  0.09979
USER: genes 15 Torsion [CA]-CB--CG-[CD] |==|  0.25063
USER: genes 16 Torsion [CB]-CG--CD-[NE] |==|  0.21898
USER: genes 17 Torsion [CG]-CD--NE-[CZ] |==|  0.51132
USER: genes 18 Torsion [C]-CA--N-[C] |==|  0.81403
USER: genes 19 Torsion [N]-C--CA-[N] |==|  0.61783
USER: genes 20 Torsion [C]-CA--N-[C] |==|  0.11910
ROOT
ATOM      1  CA  ARG D   2       5.011   6.514  31.286  1.00  9.56 LIG 0.18  C 
ENDROOT
BRANCH 1 2
ATOM      2  C   ARG D   2       4.357   5.809  32.505  1.00 11.06 LIG 0.24  C 
ATOM      3  N   THR D   3       4.638   6.317  33.701  1.00 11.45 LIG-0.34  N 
ATOM      4 H    THR D   3       5.105   7.025  33.838  1.00 11.45 LIG 0.16  HD
ATOM      5 O    ARG D   2       3.580   4.851  32.362  1.00  9.90 LIG-0.27  OA
BRANCH 3 6
ATOM      6  CA  THR D   3       4.143   5.667  34.887  1.00 13.43 LIG 0.20  C 
BRANCH 6 7
ATOM      7  C   THR D   3       2.638   5.825  35.044  1.00 15.00 LIG 0.24  C 
ATOM      8  N   LYS D   4       2.081   6.907  34.461  1.00 14.79 LIG-0.35  N 
ATOM      9 H    LYS D   4       2.514   7.466  33.973  1.00 14.79 LIG 0.16  HD
ATOM     10 O    THR D   3       2.012   4.972  35.703  1.00 15.79 LIG-0.27  OA
BRANCH 8 11
ATOM     11  CA  LYS D   4       0.629   7.222  34.625  1.00 18.13 LIG 0.16  C 
BRANCH 11 12
ATOM     12  C   LYS D   4       0.036   6.775  35.954  1.00 20.20 LIG 0.22  C 
ATOM     13 O    LYS D   4       0.032   7.630  36.880  1.00 21.26 LIG-0.29  OA
ENDBRANCH 11 12
BRANCH 11 14
ATOM     14  CB  LYS D   4      -0.181   6.556  33.484  1.00 18.02 LIG 0.03  C 
BRANCH 14 15
ATOM     15  CG  LYS D   4      -0.353   5.065  33.669  1.00 21.48 LIG 0.00  C 
BRANCH 15 16
ATOM     16  CD  LYS D   4       0.465   4.268  32.683  1.00 25.56 LIG 0.03  C 
BRANCH 16 17
ATOM     17  CE  LYS D   4      -0.318   4.099  31.361  1.00 25.12 LIG 0.23  C 
BRANCH 17 18
ATOM     18  NZ  LYS D   4      -1.090   2.791  31.307  1.00 20.07 LIG-0.08  N 
ATOM     19 HZ1  LYS D   4      -1.290   2.530  32.134  1.00 20.07 LIG 0.27  HD
ATOM     20 HZ2  LYS D   4      -1.840   2.908  30.844  1.00 20.07 LIG 0.27  HD
ATOM     21 HZ3  LYS D   4      -0.592   2.167  30.913  1.00 20.07 LIG 0.27  HD
ENDBRANCH 17 18
ENDBRANCH 16 17
ENDBRANCH 15 16
ENDBRANCH 14 15
ENDBRANCH 11 14
ENDBRANCH 8 11
ENDBRANCH 6 7
BRANCH 6 22
ATOM     22  CB  THR D   3       4.881   6.137  36.193  1.00 14.57 LIG 0.15  C 
ATOM     23  CG2 THR D   3       5.960   5.100  36.625  1.00 14.25 LIG 0.04  C 
BRANCH 22 24
ATOM     24 OG1  THR D   3       5.495   7.417  35.976  1.00 15.86 LIG-0.39  OA
ATOM     25 HG1  THR D   3       4.959   7.919  35.567  1.00 15.86 LIG 0.21  HD
ENDBRANCH 22 24
ENDBRANCH 6 22
ENDBRANCH 3 6
ENDBRANCH 1 2
BRANCH 1 26
ATOM     26  CB  ARG D   2       6.369   5.900  30.900  1.00  9.49 LIG 0.04  C 
BRANCH 26 27
ATOM     27  CG  ARG D   2       6.376   4.338  31.111  1.00 10.73 LIG 0.02  C 
BRANCH 27 28
ATOM     28  CD  ARG D   2       5.908   3.679  29.803  1.00 10.86 LIG 0.14  C 
BRANCH 28 29
ATOM     29  NE  ARG D   2       6.965   3.635  28.824  1.00 10.69 LIG-0.23  N 
ATOM     30  CZ  ARG D   2       6.836   3.183  27.545  1.00  9.43 LIG 0.67  C 
ATOM     31  NH1 ARG D   2       5.685   2.678  27.076  1.00 10.34 LIG-0.23  N 
ATOM     32  NH2 ARG D   2       7.899   3.146  26.771  1.00 11.18 LIG-0.23  N 
ATOM     33 2HH1 ARG D   2       5.636   2.402  26.264  1.00 10.34 LIG 0.17  HD
ATOM     34 1HH1 ARG D   2       4.996   2.631  27.589  1.00 10.34 LIG 0.17  HD
ATOM     35 2HH2 ARG D   2       7.832   2.864  25.962  1.00 11.18 LIG 0.17  HD
ATOM     36 1HH2 ARG D   2       8.661   3.404  27.074  1.00 11.18 LIG 0.17  HD
ATOM     37 HE   ARG D   2       7.740   3.915  29.067  1.00 10.69 LIG 0.18  HD
ENDBRANCH 28 29
ENDBRANCH 27 28
ENDBRANCH 26 27
ENDBRANCH 1 26
BRANCH 1 38
ATOM     38  N   ARG D   2       5.144   7.959  31.531  1.00  9.04 LIG-0.35  N 
ATOM     39 H    ARG D   2       5.953   8.244  31.602  1.00  9.04 LIG 0.16  HD
ATOM     40  C   ALA D   1       4.049   8.733  31.628  1.00 11.17 LIG 0.24  C 
ATOM     41 O    ALA D   1       2.920   8.260  31.511  1.00 13.49 LIG-0.27  OA
BRANCH 40 42
ATOM     42  CA  ALA D   1       4.233  10.226  31.826  1.00 12.65 LIG 0.17  C 
ATOM     43  CB  ALA D   1       5.676  10.575  32.256  1.00 13.08 LIG 0.04  C 
BRANCH 42 44
ATOM     44  N   ALA D   1       3.307  10.792  32.816  1.00 12.52 LIG-0.35  N 
ATOM     45  C   ACE D   0       2.917  10.194  34.172  1.00 13.59 LIG 0.21  C 
ATOM     46 O    ACE D   0       3.479   9.079  34.417  1.00 14.78 LIG-0.27  OA
ATOM     47  CH3 ACE D   0       1.947  10.932  35.054  1.00 14.73 LIG 0.12  C 
ATOM     48 H    ALA D   1       2.978  11.542  32.552  1.00 12.52 LIG 0.16  HD
ENDBRANCH 42 44
ENDBRANCH 40 42
ENDBRANCH 1 38
TORSDOF 19
ENDMDL
MODEL 72
USER: ADFR SOLUTION from run 24
USER: SCORE 15.826026 LL:  -3.525 LR: -13.304 RR:   0.000 FEB:  -7.637
USER: RMSD 4.164975
USER: SEED 23
USER: STATUS no improvement in best in 4 clusters for 5 generations
USER: GENES 21
USER: genes 0 Translation |==|  0.50975 0.47072 0.61170
USER: genes 1 Rotation |==|  0.76156 0.30145 0.66454 0.83925
USER: genes 2 Torsion [N]-CA--C-[N] |==|  0.68448
USER: genes 3 Torsion [C]-N--CA-[C] |==|  0.82933
USER: genes 4 Torsion [N]-CA--C-[N] |==|  0.39579
USER: genes 5 Torsion [C]-N--CA-[CB] |==|  0.16387
USER: genes 6 Torsion [N]-CA--C-[O] |==|  0.52085
USER: genes 7 Torsion [N]-CA--CB-[CG] |==|  0.22771
USER: genes 8 Torsion [CA]-CB--CG-[CD] |==|  0.81990
USER: genes 9 Torsion [CB]-CG--CD-[CE] |==|  0.65923
USER: genes 10 Torsion [CG]-CD--CE-[NZ] |==|  0.14701
USER: genes 11 Torsion [CD]-CE--NZ-[HZ1] |==|  0.17172
USER: genes 12 Torsion [N]-CA--CB-[CG2] |==|  0.58768
USER: genes 13 Torsion [CA]-CB--OG1-[HG1] |==|  0.22003
USER: genes 14 Torsion [C]-CA--CB-[CG] |==|  0.18238
USER: genes 15 Torsion [CA]-CB--CG-[CD] |==|  0.27304
USER: genes 16 Torsion [CB]-CG--CD-[NE] |==|  0.54416
USER: genes 17 Torsion [CG]-CD--NE-[CZ] |==|  0.34675
USER: genes 18 Torsion [C]-CA--N-[C] |==|  0.19400
USER: genes 19 Torsion [N]-C--CA-[N] |==|  0.07471
USER: genes 20 Torsion [C]-CA--N-[C] |==|  0.14003
ROOT
ATOM      1  CA  ARG D   2       5.100   6.956  35.475  1.00  9.56 LIG 0.18  C 
ENDROOT
BRANCH 1 2
ATOM      2  C   ARG D   2       5.342   6.950  33.941  1.00 11.06 LIG 0.24  C 
ATOM      3  N   THR D   3       5.298   5.765  33.342  1.00 11.45 LIG-0.34  N 
ATOM      4 H    THR D   3       5.097   5.024  33.729  1.00 11.45 LIG 0.16  HD
ATOM      5 O    ARG D   2       5.523   8.002  33.308  1.00  9.90 LIG-0.27  OA
BRANCH 3 6
ATOM      6  CA  THR D   3       5.601   5.663  31.937  1.00 13.43 LIG 0.20  C 
BRANCH 6 7
ATOM      7  C   THR D   3       4.636   6.469  31.082  1.00 15.00 LIG 0.24  C 
ATOM      8  N   LYS D   4       5.159   7.094  30.007  1.00 14.79 LIG-0.35  N 
ATOM      9 H    LYS D   4       5.978   7.018  29.758  1.00 14.79 LIG 0.16  HD
ATOM     10 O    THR D   3       3.437   6.521  31.420  1.00 15.79 LIG-0.27  OA
BRANCH 8 11
ATOM     11  CA  LYS D   4       4.331   7.992  29.145  1.00 18.13 LIG 0.16  C 
BRANCH 11 12
ATOM     12  C   LYS D   4       5.083   8.599  27.968  1.00 20.20 LIG 0.22  C 
ATOM     13 O    LYS D   4       4.466   9.474  27.302  1.00 21.26 LIG-0.29  OA
ENDBRANCH 11 12
BRANCH 11 14
ATOM     14  CB  LYS D   4       3.755   9.150  30.000  1.00 18.02 LIG 0.03  C 
BRANCH 14 15
ATOM     15  CG  LYS D   4       4.736  10.281  30.207  1.00 21.48 LIG 0.00  C 
BRANCH 15 16
ATOM     16  CD  LYS D   4       5.938   9.854  31.013  1.00 25.56 LIG 0.03  C 
BRANCH 16 17
ATOM     17  CE  LYS D   4       6.075  10.743  32.270  1.00 25.12 LIG 0.23  C 
BRANCH 17 18
ATOM     18  NZ  LYS D   4       4.795  10.792  33.088  1.00 20.07 LIG-0.08  N 
ATOM     19 HZ1  LYS D   4       4.595   9.975  33.377  1.00 20.07 LIG 0.27  HD
ATOM     20 HZ2  LYS D   4       4.909  11.333  33.785  1.00 20.07 LIG 0.27  HD
ATOM     21 HZ3  LYS D   4       4.130  11.097  32.581  1.00 20.07 LIG 0.27  HD
ENDBRANCH 17 18
ENDBRANCH 16 17
ENDBRANCH 15 16
ENDBRANCH 14 15
ENDBRANCH 11 14
ENDBRANCH 8 11
ENDBRANCH 6 7
BRANCH 6 22
ATOM     22  CB  THR D   3       5.667   4.175  31.434  1.00 14.57 LIG 0.15  C 
ATOM     23  CG2 THR D   3       6.696   4.027  30.274  1.00 14.25 LIG 0.04  C 
BRANCH 22 24
ATOM     24 OG1  THR D   3       6.027   3.306  32.519  1.00 15.86 LIG-0.39  OA
ATOM     25 HG1  THR D   3       5.352   3.160  32.997  1.00 15.86 LIG 0.21  HD
ENDBRANCH 22 24
ENDBRANCH 6 22
ENDBRANCH 3 6
ENDBRANCH 1 2
BRANCH 1 26
ATOM     26  CB  ARG D   2       5.115   5.543  36.087  1.00  9.49 LIG 0.04  C 
BRANCH 26 27
ATOM     27  CG  ARG D   2       6.542   4.883  35.977  1.00 10.73 LIG 0.02  C 
BRANCH 27 28
ATOM     28  CD  ARG D   2       7.259   5.072  37.324  1.00 10.86 LIG 0.14  C 
BRANCH 28 29
ATOM     29  NE  ARG D   2       8.675   4.837  37.209  1.00 10.69 LIG-0.23  N 
ATOM     30  CZ  ARG D   2       9.652   5.714  37.571  1.00  9.43 LIG 0.67  C 
ATOM     31  NH1 ARG D   2       9.375   6.940  38.042  1.00 10.34 LIG-0.23  N 
ATOM     32  NH2 ARG D   2      10.910   5.393  37.359  1.00 11.18 LIG-0.23  N 
ATOM     33 2HH1 ARG D   2      10.015   7.470  38.263  1.00 10.34 LIG 0.17  HD
ATOM     34 1HH1 ARG D   2       8.558   7.194  38.124  1.00 10.34 LIG 0.17  HD
ATOM     35 2HH2 ARG D   2      11.537   5.937  37.584  1.00 11.18 LIG 0.17  HD
ATOM     36 1HH2 ARG D   2      11.106   4.638  36.997  1.00 11.18 LIG 0.17  HD
ATOM     37 HE   ARG D   2       8.925   4.080  36.884  1.00 10.69 LIG 0.18  HD
ENDBRANCH 28 29
ENDBRANCH 27 28
ENDBRANCH 26 27
ENDBRANCH 1 26
BRANCH 1 38
ATOM     38  N   ARG D   2       3.844   7.651  35.800  1.00  9.04 LIG-0.35  N 
ATOM     39 H    ARG D   2       3.938   8.408  36.197  1.00  9.04 LIG 0.16  HD
ATOM     40  C   ALA D   1       2.661   7.099  35.479  1.00 11.17 LIG 0.24  C 
ATOM     41 O    ALA D   1       2.599   6.012  34.906  1.00 13.49 LIG-0.27  OA
BRANCH 40 42
ATOM     42  CA  ALA D   1       1.393   7.873  35.783  1.00 12.65 LIG 0.17  C 
ATOM     43  CB  ALA D   1       0.270   7.558  34.769  1.00 13.08 LIG 0.04  C 
BRANCH 42 44
ATOM     44  N   ALA D   1       1.599   9.327  35.807  1.00 12.52 LIG-0.35  N 
ATOM     45  C   ACE D   0       2.287  10.185  34.740  1.00 13.59 LIG 0.21  C 
ATOM     46 O    ACE D   0       2.716   9.515  33.747  1.00 14.78 LIG-0.27  OA
ATOM     47  CH3 ACE D   0       2.398  11.671  34.945  1.00 14.73 LIG 0.12  C 
ATOM     48 H    ALA D   1       1.278   9.682  36.522  1.00 12.52 LIG 0.16  HD
ENDBRANCH 42 44
ENDBRANCH 40 42
ENDBRANCH 1 38
TORSDOF 19
ENDMDL
MODEL 73
USER: ADFR SOLUTION from run 101
USER: SCORE 16.219618 LL:  -3.272 LR: -13.298 RR:   0.000 FEB:  -7.630
USER: RMSD 6.330194
USER: SEED 100
USER: STATUS no improvement in best in 4 clusters for 5 generations
USER: GENES 21
USER: genes 0 Translation |==|  0.50969 0.58121 0.42144
USER: genes 1 Rotation |==|  0.24417 0.40207 0.67528 0.87979
USER: genes 2 Torsion [N]-CA--C-[N] |==|  0.51632
USER: genes 3 Torsion [C]-N--CA-[C] |==|  0.79687
USER: genes 4 Torsion [N]-CA--C-[N] |==|  0.97222
USER: genes 5 Torsion [C]-N--CA-[CB] |==|  0.82869
USER: genes 6 Torsion [N]-CA--C-[O] |==|  0.24504
USER: genes 7 Torsion [N]-CA--CB-[CG] |==|  0.81373
USER: genes 8 Torsion [CA]-CB--CG-[CD] |==|  0.41317
USER: genes 9 Torsion [CB]-CG--CD-[CE] |==|  0.34528
USER: genes 10 Torsion [CG]-CD--CE-[NZ] |==|  0.64567
USER: genes 11 Torsion [CD]-CE--NZ-[HZ1] |==|  0.78569
USER: genes 12 Torsion [N]-CA--CB-[CG2] |==|  0.57120
USER: genes 13 Torsion [CA]-CB--OG1-[HG1] |==|  0.42149
USER: genes 14 Torsion [C]-CA--CB-[CG] |==|  0.88623
USER: genes 15 Torsion [CA]-CB--CG-[CD] |==|  0.78378
USER: genes 16 Torsion [CB]-CG--CD-[NE] |==|  0.82359
USER: genes 17 Torsion [CG]-CD--NE-[CZ] |==|  0.35833
USER: genes 18 Torsion [C]-CA--N-[C] |==|  0.75068
USER: genes 19 Torsion [N]-C--CA-[N] |==|  0.91061
USER: genes 20 Torsion [C]-CA--N-[C] |==|  0.83883
ROOT
ATOM      1  CA  ARG D   2       5.099   8.696  32.193  1.00  9.56 LIG 0.18  C 
ENDROOT
BRANCH 1 2
ATOM      2  C   ARG D   2       4.722   7.418  32.989  1.00 11.06 LIG 0.24  C 
ATOM      3  N   THR D   3       4.921   7.461  34.303  1.00 11.45 LIG-0.34  N 
ATOM      4 H    THR D   3       5.190   8.152  34.738  1.00 11.45 LIG 0.16  HD
ATOM      5 O    ARG D   2       4.221   6.429  32.431  1.00  9.90 LIG-0.27  OA
BRANCH 3 6
ATOM      6  CA  THR D   3       4.682   6.286  35.101  1.00 13.43 LIG 0.20  C 
BRANCH 6 7
ATOM      7  C   THR D   3       3.197   5.996  35.264  1.00 15.00 LIG 0.24  C 
ATOM      8  N   LYS D   4       2.345   6.953  34.843  1.00 14.79 LIG-0.35  N 
ATOM      9 H    LYS D   4       2.591   7.676  34.448  1.00 14.79 LIG 0.16  HD
ATOM     10 O    THR D   3       2.853   4.916  35.782  1.00 15.79 LIG-0.27  OA
BRANCH 8 11
ATOM     11  CA  LYS D   4       0.868   6.826  35.037  1.00 18.13 LIG 0.16  C 
BRANCH 11 12
ATOM     12  C   LYS D   4       0.435   6.709  36.492  1.00 20.20 LIG 0.22  C 
ATOM     13 O    LYS D   4       0.221   7.793  37.100  1.00 21.26 LIG-0.29  OA
ENDBRANCH 11 12
BRANCH 11 14
ATOM     14  CB  LYS D   4       0.348   5.580  34.276  1.00 18.02 LIG 0.03  C 
BRANCH 14 15
ATOM     15  CG  LYS D   4       0.453   5.715  32.774  1.00 21.48 LIG 0.00  C 
BRANCH 15 16
ATOM     16  CD  LYS D   4       0.685   4.387  32.095  1.00 25.56 LIG 0.03  C 
BRANCH 16 17
ATOM     17  CE  LYS D   4      -0.409   4.137  31.032  1.00 25.12 LIG 0.23  C 
BRANCH 17 18
ATOM     18  NZ  LYS D   4      -1.090   2.790  31.206  1.00 20.07 LIG-0.08  N 
ATOM     19 HZ1  LYS D   4      -0.559   2.146  30.896  1.00 20.07 LIG 0.27  HD
ATOM     20 HZ2  LYS D   4      -1.254   2.649  32.069  1.00 20.07 LIG 0.27  HD
ATOM     21 HZ3  LYS D   4      -1.857   2.784  30.753  1.00 20.07 LIG 0.27  HD
ENDBRANCH 17 18
ENDBRANCH 16 17
ENDBRANCH 15 16
ENDBRANCH 14 15
ENDBRANCH 11 14
ENDBRANCH 8 11
ENDBRANCH 6 7
BRANCH 6 22
ATOM     22  CB  THR D   3       5.385   6.349  36.506  1.00 14.57 LIG 0.15  C 
ATOM     23  CG2 THR D   3       5.662   4.918  37.052  1.00 14.25 LIG 0.04  C 
BRANCH 22 24
ATOM     24 OG1  THR D   3       6.617   7.080  36.405  1.00 15.86 LIG-0.39  OA
ATOM     25 HG1  THR D   3       6.789   7.442  37.143  1.00 15.86 LIG 0.21  HD
ENDBRANCH 22 24
ENDBRANCH 6 22
ENDBRANCH 3 6
ENDBRANCH 1 2
BRANCH 1 26
ATOM     26  CB  ARG D   2       4.511   9.979  32.809  1.00  9.49 LIG 0.04  C 
BRANCH 26 27
ATOM     27  CG  ARG D   2       3.032   9.754  33.303  1.00 10.73 LIG 0.02  C 
BRANCH 27 28
ATOM     28  CD  ARG D   2       2.109   9.786  32.073  1.00 10.86 LIG 0.14  C 
BRANCH 28 29
ATOM     29  NE  ARG D   2       2.128  11.074  31.429  1.00 10.69 LIG-0.23  N 
ATOM     30  CZ  ARG D   2       2.339  11.288  30.100  1.00  9.43 LIG 0.67  C 
ATOM     31  NH1 ARG D   2       2.604  10.287  29.247  1.00 10.34 LIG-0.23  N 
ATOM     32  NH2 ARG D   2       2.386  12.524  29.651  1.00 11.18 LIG-0.23  N 
ATOM     33 2HH1 ARG D   2       2.732  10.455  28.413  1.00 10.34 LIG 0.17  HD
ATOM     34 1HH1 ARG D   2       2.645   9.477  29.533  1.00 10.34 LIG 0.17  HD
ATOM     35 2HH2 ARG D   2       2.519  12.673  28.814  1.00 11.18 LIG 0.17  HD
ATOM     36 1HH2 ARG D   2       2.285  13.182  30.194  1.00 11.18 LIG 0.17  HD
ATOM     37 HE   ARG D   2       1.996  11.765  31.923  1.00 10.69 LIG 0.18  HD
ENDBRANCH 28 29
ENDBRANCH 27 28
ENDBRANCH 26 27
ENDBRANCH 1 26
BRANCH 1 38
ATOM     38  N   ARG D   2       4.701   8.566  30.782  1.00  9.04 LIG-0.35  N 
ATOM     39 H    ARG D   2       3.909   8.846  30.599  1.00  9.04 LIG 0.16  HD
ATOM     40  C   ALA D   1       5.552   8.040  29.883  1.00 11.17 LIG 0.24  C 
ATOM     41 O    ALA D   1       6.675   7.663  30.213  1.00 13.49 LIG-0.27  OA
BRANCH 40 42
ATOM     42  CA  ALA D   1       5.122   7.974  28.431  1.00 12.65 LIG 0.17  C 
ATOM     43  CB  ALA D   1       5.531   9.245  27.652  1.00 13.08 LIG 0.04  C 
BRANCH 42 44
ATOM     44  N   ALA D   1       3.675   7.779  28.267  1.00 12.52 LIG-0.35  N 
ATOM     45  C   ACE D   0       2.826   6.626  28.811  1.00 13.59 LIG 0.21  C 
ATOM     46 O    ACE D   0       3.497   5.763  29.464  1.00 14.78 LIG-0.27  OA
ATOM     47  CH3 ACE D   0       1.346   6.604  28.539  1.00 14.73 LIG 0.12  C 
ATOM     48 H    ALA D   1       3.319   8.413  27.807  1.00 12.52 LIG 0.16  HD
ENDBRANCH 42 44
ENDBRANCH 40 42
ENDBRANCH 1 38
TORSDOF 19
ENDMDL
MODEL 74
USER: ADFR SOLUTION from run 65
USER: SCORE 15.238592 LL:  -2.184 LR: -13.290 RR:   0.000 FEB:  -7.622
USER: RMSD 5.609295
USER: SEED 64
USER: STATUS no improvement in best in 5 clusters for 5 generations
USER: GENES 21
USER: genes 0 Translation |==|  0.35859 0.50939 0.61198
USER: genes 1 Rotation |==|  0.47282 0.07844 0.68474 0.69344
USER: genes 2 Torsion [N]-CA--C-[N] |==|  0.09536
USER: genes 3 Torsion [C]-N--CA-[C] |==|  0.14581
USER: genes 4 Torsion [N]-CA--C-[N] |==|  0.13357
USER: genes 5 Torsion [C]-N--CA-[CB] |==|  0.45293
USER: genes 6 Torsion [N]-CA--C-[O] |==|  0.14399
USER: genes 7 Torsion [N]-CA--CB-[CG] |==|  0.40360
USER: genes 8 Torsion [CA]-CB--CG-[CD] |==|  0.21915
USER: genes 9 Torsion [CB]-CG--CD-[CE] |==|  0.29179
USER: genes 10 Torsion [CG]-CD--CE-[NZ] |==|  0.56555
USER: genes 11 Torsion [CD]-CE--NZ-[HZ1] |==|  0.86820
USER: genes 12 Torsion [N]-CA--CB-[CG2] |==|  0.62811
USER: genes 13 Torsion [CA]-CB--OG1-[HG1] |==|  0.58973
USER: genes 14 Torsion [C]-CA--CB-[CG] |==|  0.88068
USER: genes 15 Torsion [CA]-CB--CG-[CD] |==|  0.61659
USER: genes 16 Torsion [CB]-CG--CD-[NE] |==|  0.60761
USER: genes 17 Torsion [CG]-CD--NE-[CZ] |==|  0.80674
USER: genes 18 Torsion [C]-CA--N-[C] |==|  0.14478
USER: genes 19 Torsion [N]-C--CA-[N] |==|  0.92487
USER: genes 20 Torsion [C]-CA--N-[C] |==|  0.84962
ROOT
ATOM      1  CA  ARG D   2       2.153   7.565  35.480  1.00  9.56 LIG 0.18  C 
ENDROOT
BRANCH 1 2
ATOM      2  C   ARG D   2       3.364   6.595  35.425  1.00 11.06 LIG 0.24  C 
ATOM      3  N   THR D   3       4.553   7.148  35.211  1.00 11.45 LIG-0.34  N 
ATOM      4 H    THR D   3       4.701   7.993  35.153  1.00 11.45 LIG 0.16  HD
ATOM      5 O    ARG D   2       3.229   5.376  35.615  1.00  9.90 LIG-0.27  OA
BRANCH 3 6
ATOM      6  CA  THR D   3       5.714   6.309  35.056  1.00 13.43 LIG 0.20  C 
BRANCH 6 7
ATOM      7  C   THR D   3       5.508   5.235  33.999  1.00 15.00 LIG 0.24  C 
ATOM      8  N   LYS D   4       5.001   5.640  32.817  1.00 14.79 LIG-0.35  N 
ATOM      9 H    LYS D   4       4.843   6.462  32.618  1.00 14.79 LIG 0.16  HD
ATOM     10 O    THR D   3       5.800   4.056  34.279  1.00 15.79 LIG-0.27  OA
BRANCH 8 11
ATOM     11  CA  LYS D   4       4.665   4.666  31.734  1.00 18.13 LIG 0.16  C 
BRANCH 11 12
ATOM     12  C   LYS D   4       5.875   4.111  30.993  1.00 20.20 LIG 0.22  C 
ATOM     13 O    LYS D   4       6.792   3.624  31.708  1.00 21.26 LIG-0.29  OA
ENDBRANCH 11 12
BRANCH 11 14
ATOM     14  CB  LYS D   4       3.730   5.340  30.697  1.00 18.02 LIG 0.03  C 
BRANCH 14 15
ATOM     15  CG  LYS D   4       3.976   4.871  29.282  1.00 21.48 LIG 0.00  C 
BRANCH 15 16
ATOM     16  CD  LYS D   4       3.349   3.526  29.008  1.00 25.56 LIG 0.03  C 
BRANCH 16 17
ATOM     17  CE  LYS D   4       2.079   3.700  28.143  1.00 25.12 LIG 0.23  C 
BRANCH 17 18
ATOM     18  NZ  LYS D   4       1.107   2.542  28.298  1.00 20.07 LIG-0.08  N 
ATOM     19 HZ1  LYS D   4       1.548   1.773  28.229  1.00 20.07 LIG 0.27  HD
ATOM     20 HZ2  LYS D   4       0.715   2.588  29.095  1.00 20.07 LIG 0.27  HD
ATOM     21 HZ3  LYS D   4       0.488   2.586  27.660  1.00 20.07 LIG 0.27  HD
ENDBRANCH 17 18
ENDBRANCH 16 17
ENDBRANCH 15 16
ENDBRANCH 14 15
ENDBRANCH 11 14
ENDBRANCH 8 11
ENDBRANCH 6 7
BRANCH 6 22
ATOM     22  CB  THR D   3       6.183   5.662  36.410  1.00 14.57 LIG 0.15  C 
ATOM     23  CG2 THR D   3       7.724   5.796  36.584  1.00 14.25 LIG 0.04  C 
BRANCH 22 24
ATOM     24 OG1  THR D   3       5.510   6.290  37.512  1.00 15.86 LIG-0.39  OA
ATOM     25 HG1  THR D   3       6.017   6.297  38.183  1.00 15.86 LIG 0.21  HD
ENDBRANCH 22 24
ENDBRANCH 6 22
ENDBRANCH 3 6
ENDBRANCH 1 2
BRANCH 1 26
ATOM     26  CB  ARG D   2       0.810   6.859  35.215  1.00  9.49 LIG 0.04  C 
BRANCH 26 27
ATOM     27  CG  ARG D   2       0.922   5.840  34.019  1.00 10.73 LIG 0.02  C 
BRANCH 27 28
ATOM     28  CD  ARG D   2      -0.341   5.980  33.154  1.00 10.86 LIG 0.14  C 
BRANCH 28 29
ATOM     29  NE  ARG D   2      -0.802   4.702  32.675  1.00 10.69 LIG-0.23  N 
ATOM     30  CZ  ARG D   2      -0.168   3.932  31.748  1.00  9.43 LIG 0.67  C 
ATOM     31  NH1 ARG D   2       0.961   4.328  31.139  1.00 10.34 LIG-0.23  N 
ATOM     32  NH2 ARG D   2      -0.729   2.808  31.359  1.00 11.18 LIG-0.23  N 
ATOM     33 2HH1 ARG D   2       1.337   3.818  30.558  1.00 10.34 LIG 0.17  HD
ATOM     34 1HH1 ARG D   2       1.308   5.091  31.330  1.00 10.34 LIG 0.17  HD
ATOM     35 2HH2 ARG D   2      -0.339   2.312  30.774  1.00 11.18 LIG 0.17  HD
ATOM     36 1HH2 ARG D   2      -1.486   2.569  31.689  1.00 11.18 LIG 0.17  HD
ATOM     37 HE   ARG D   2      -1.538   4.401  33.001  1.00 10.69 LIG 0.18  HD
ENDBRANCH 28 29
ENDBRANCH 27 28
ENDBRANCH 26 27
ENDBRANCH 1 26
BRANCH 1 38
ATOM     38  N   ARG D   2       2.343   8.688  34.547  1.00  9.04 LIG-0.35  N 
ATOM     39 H    ARG D   2       2.246   9.469  34.893  1.00  9.04 LIG 0.16  HD
ATOM     40  C   ALA D   1       2.646   8.455  33.259  1.00 11.17 LIG 0.24  C 
ATOM     41 O    ALA D   1       2.776   7.309  32.831  1.00 13.49 LIG-0.27  OA
BRANCH 40 42
ATOM     42  CA  ALA D   1       2.888   9.641  32.345  1.00 12.65 LIG 0.17  C 
ATOM     43  CB  ALA D   1       4.391   9.978  32.226  1.00 13.08 LIG 0.04  C 
BRANCH 42 44
ATOM     44  N   ALA D   1       2.176  10.852  32.775  1.00 12.52 LIG-0.35  N 
ATOM     45  C   ACE D   0       0.677  10.999  33.056  1.00 13.59 LIG 0.21  C 
ATOM     46 O    ACE D   0       0.018   9.925  32.875  1.00 14.78 LIG-0.27  OA
ATOM     47  CH3 ACE D   0       0.134  12.331  33.494  1.00 14.73 LIG 0.12  C 
ATOM     48 H    ALA D   1       2.711  11.521  32.862  1.00 12.52 LIG 0.16  HD
ENDBRANCH 42 44
ENDBRANCH 40 42
ENDBRANCH 1 38
TORSDOF 19
ENDMDL
MODEL 75
USER: ADFR SOLUTION from run 70
USER: SCORE 15.043966 LL:  -2.739 LR: -13.276 RR:   0.000 FEB:  -7.608
USER: RMSD 4.964234
USER: SEED 69
USER: STATUS no improvement in best in 4 clusters for 5 generations
USER: GENES 21
USER: genes 0 Translation |==|  0.50240 0.26947 0.43988
USER: genes 1 Rotation |==|  0.33879 0.54264 0.31024 0.93149
USER: genes 2 Torsion [N]-CA--C-[N] |==|  0.99863
USER: genes 3 Torsion [C]-N--CA-[C] |==|  0.20096
USER: genes 4 Torsion [N]-CA--C-[N] |==|  0.84190
USER: genes 5 Torsion [C]-N--CA-[CB] |==|  0.83612
USER: genes 6 Torsion [N]-CA--C-[O] |==|  0.52732
USER: genes 7 Torsion [N]-CA--CB-[CG] |==|  0.88526
USER: genes 8 Torsion [CA]-CB--CG-[CD] |==|  0.33907
USER: genes 9 Torsion [CB]-CG--CD-[CE] |==|  0.06236
USER: genes 10 Torsion [CG]-CD--CE-[NZ] |==|  0.41357
USER: genes 11 Torsion [CD]-CE--NZ-[HZ1] |==|  0.15413
USER: genes 12 Torsion [N]-CA--CB-[CG2] |==|  0.41912
USER: genes 13 Torsion [CA]-CB--OG1-[HG1] |==|  0.38688
USER: genes 14 Torsion [C]-CA--CB-[CG] |==|  0.91770
USER: genes 15 Torsion [CA]-CB--CG-[CD] |==|  0.37029
USER: genes 16 Torsion [CB]-CG--CD-[NE] |==|  0.13477
USER: genes 17 Torsion [CG]-CD--NE-[CZ] |==|  0.34060
USER: genes 18 Torsion [C]-CA--N-[C] |==|  0.74546
USER: genes 19 Torsion [N]-C--CA-[N] |==|  0.16112
USER: genes 20 Torsion [C]-CA--N-[C] |==|  0.75747
ROOT
ATOM      1  CA  ARG D   2       4.957   3.786  32.511  1.00  9.56 LIG 0.18  C 
ENDROOT
BRANCH 1 2
ATOM      2  C   ARG D   2       3.454   4.091  32.752  1.00 11.06 LIG 0.24  C 
ATOM      3  N   THR D   3       2.873   4.917  31.888  1.00 11.45 LIG-0.34  N 
ATOM      4 H    THR D   3       3.252   5.246  31.190  1.00 11.45 LIG 0.16  HD
ATOM      5 O    ARG D   2       2.822   3.555  33.677  1.00  9.90 LIG-0.27  OA
BRANCH 3 6
ATOM      6  CA  THR D   3       1.506   5.321  32.093  1.00 13.43 LIG 0.20  C 
BRANCH 6 7
ATOM      7  C   THR D   3       1.364   6.295  33.253  1.00 15.00 LIG 0.24  C 
ATOM      8  N   LYS D   4       1.824   5.879  34.451  1.00 14.79 LIG-0.35  N 
ATOM      9 H    LYS D   4       2.232   5.133  34.577  1.00 14.79 LIG 0.16  HD
ATOM     10 O    THR D   3       0.827   7.400  33.044  1.00 15.79 LIG-0.27  OA
BRANCH 8 11
ATOM     11  CA  LYS D   4       1.655   6.707  35.685  1.00 18.13 LIG 0.16  C 
BRANCH 11 12
ATOM     12  C   LYS D   4       0.206   6.949  36.084  1.00 20.20 LIG 0.22  C 
ATOM     13 O    LYS D   4       0.012   7.794  36.999  1.00 21.26 LIG-0.29  OA
ENDBRANCH 11 12
BRANCH 11 14
ATOM     14  CB  LYS D   4       2.339   8.084  35.486  1.00 18.02 LIG 0.03  C 
BRANCH 14 15
ATOM     15  CG  LYS D   4       3.674   7.989  34.783  1.00 21.48 LIG 0.00  C 
BRANCH 15 16
ATOM     16  CD  LYS D   4       3.712   8.808  33.516  1.00 25.56 LIG 0.03  C 
BRANCH 16 17
ATOM     17  CE  LYS D   4       2.641   9.921  33.573  1.00 25.12 LIG 0.23  C 
BRANCH 17 18
ATOM     18  NZ  LYS D   4       3.058  11.167  32.808  1.00 20.07 LIG-0.08  N 
ATOM     19 HZ1  LYS D   4       3.255  10.948  31.969  1.00 20.07 LIG 0.27  HD
ATOM     20 HZ2  LYS D   4       2.390  11.755  32.812  1.00 20.07 LIG 0.27  HD
ATOM     21 HZ3  LYS D   4       3.773  11.528  33.196  1.00 20.07 LIG 0.27  HD
ENDBRANCH 17 18
ENDBRANCH 16 17
ENDBRANCH 15 16
ENDBRANCH 14 15
ENDBRANCH 11 14
ENDBRANCH 8 11
ENDBRANCH 6 7
BRANCH 6 22
ATOM     22  CB  THR D   3       0.532   4.102  32.281  1.00 14.57 LIG 0.15  C 
ATOM     23  CG2 THR D   3      -0.679   4.493  33.180  1.00 14.25 LIG 0.04  C 
BRANCH 22 24
ATOM     24 OG1  THR D   3       0.063   3.648  31.002  1.00 15.86 LIG-0.39  OA
ATOM     25 HG1  THR D   3       0.047   2.808  30.991  1.00 15.86 LIG 0.21  HD
ENDBRANCH 22 24
ENDBRANCH 6 22
ENDBRANCH 3 6
ENDBRANCH 1 2
BRANCH 1 26
ATOM     26  CB  ARG D   2       5.835   4.107  33.735  1.00  9.49 LIG 0.04  C 
BRANCH 26 27
ATOM     27  CG  ARG D   2       5.227   5.284  34.587  1.00 10.73 LIG 0.02  C 
BRANCH 27 28
ATOM     28  CD  ARG D   2       5.259   4.867  36.066  1.00 10.86 LIG 0.14  C 
BRANCH 28 29
ATOM     29  NE  ARG D   2       6.549   4.352  36.444  1.00 10.69 LIG-0.23  N 
ATOM     30  CZ  ARG D   2       7.332   4.842  37.446  1.00  9.43 LIG 0.67  C 
ATOM     31  NH1 ARG D   2       6.981   5.917  38.168  1.00 10.34 LIG-0.23  N 
ATOM     32  NH2 ARG D   2       8.517   4.309  37.649  1.00 11.18 LIG-0.23  N 
ATOM     33 2HH1 ARG D   2       7.497   6.201  38.794  1.00 10.34 LIG 0.17  HD
ATOM     34 1HH1 ARG D   2       6.240   6.322  38.004  1.00 10.34 LIG 0.17  HD
ATOM     35 2HH2 ARG D   2       9.021   4.608  38.278  1.00 11.18 LIG 0.17  HD
ATOM     36 1HH2 ARG D   2       8.788   3.661  37.154  1.00 11.18 LIG 0.17  HD
ATOM     37 HE   ARG D   2       6.851   3.679  36.001  1.00 10.69 LIG 0.18  HD
ENDBRANCH 28 29
ENDBRANCH 27 28
ENDBRANCH 26 27
ENDBRANCH 1 26
BRANCH 1 38
ATOM     38  N   ARG D   2       5.447   4.497  31.318  1.00  9.04 LIG-0.35  N 
ATOM     39 H    ARG D   2       5.743   5.291  31.463  1.00  9.04 LIG 0.16  HD
ATOM     40  C   ALA D   1       5.412   3.901  30.113  1.00 11.17 LIG 0.24  C 
ATOM     41 O    ALA D   1       4.979   2.758  29.979  1.00 13.49 LIG-0.27  OA
BRANCH 40 42
ATOM     42  CA  ALA D   1       5.977   4.648  28.920  1.00 12.65 LIG 0.17  C 
ATOM     43  CB  ALA D   1       5.846   3.828  27.616  1.00 13.08 LIG 0.04  C 
BRANCH 42 44
ATOM     44  N   ALA D   1       7.387   5.022  29.090  1.00 12.52 LIG-0.35  N 
ATOM     45  C   ACE D   0       7.938   6.290  29.749  1.00 13.59 LIG 0.21  C 
ATOM     46 O    ACE D   0       7.033   7.078  30.173  1.00 14.78 LIG-0.27  OA
ATOM     47  CH3 ACE D   0       9.427   6.494  29.832  1.00 14.73 LIG 0.12  C 
ATOM     48 H    ALA D   1       7.915   4.426  28.765  1.00 12.52 LIG 0.16  HD
ENDBRANCH 42 44
ENDBRANCH 40 42
ENDBRANCH 1 38
TORSDOF 19
ENDMDL
