MODEL 1
USER: ADFR SOLUTION from run 188
USER: SCORE 22.281636 LL:  -4.341 LR: -19.588 RR:   0.000 FEB: -12.727
USER: RMSD 2.121910
USER: SEED 187
USER: STATUS 1 or 2 clusters left
USER: GENES 25
USER: genes 0 Translation |==|  0.50995 0.30597 0.73481
USER: genes 1 Rotation |==|  0.47073 0.47040 0.50345 0.99825
USER: genes 2 Torsion [C]-CA--N-[C] |==|  0.68290
USER: genes 3 Torsion [N]-C--CA-[N] |==|  0.92936
USER: genes 4 Torsion [C]-CA--N-[C] |==|  0.75344
USER: genes 5 Torsion [N]-C--CA-[CB] |==|  0.78802
USER: genes 6 Torsion [N]-C--CA-[N] |==|  0.30076
USER: genes 7 Torsion [C]-CA--CB-[CG] |==|  0.73242
USER: genes 8 Torsion [CA]-CB--CG-[OD1] |==|  0.67262
USER: genes 9 Torsion [C]-CA--CB-[CG2] |==|  0.84080
USER: genes 10 Torsion [CA]-CB--CG1-[CD1] |==|  0.13549
USER: genes 11 Torsion [N]-CA--C-[N] |==|  0.21851
USER: genes 12 Torsion [C]-N--CA-[CB] |==|  0.23324
USER: genes 13 Torsion [N]-CA--CB-[CG] |==|  0.20834
USER: genes 14 Torsion [CA]-CB--CG-[OD1] |==|  0.85448
USER: genes 15 Torsion [N]-CA--C-[N] |==|  0.46110
USER: genes 16 Torsion [C]-N--CA-[C] |==|  0.76727
USER: genes 17 Torsion [N]-CA--C-[N] |==|  0.39480
USER: genes 18 Torsion [C]-N--CA-[CB] |==|  0.86070
USER: genes 19 Torsion [N]-CA--CB-[CG] |==|  0.71926
USER: genes 20 Torsion [CA]-CB--CG-[OD2] |==|  0.20007
USER: genes 21 Torsion [N]-CA--C-[O] |==|  0.78287
USER: genes 22 Torsion [N]-CA--CB-[CG1] |==|  0.30209
USER: genes 23 Torsion [N]-CA--CB-[OG] |==|  0.04971
USER: genes 24 Torsion [CA]-CB--OG-[HG] |==|  0.08973
ROOT
ATOM      1  CA  SER C 462      16.253   5.667  10.392  1.00 28.28 LIG 0.20  C 
ENDROOT
BRANCH 1 2
ATOM      2  N   SER C 462      15.041   5.319   9.653  1.00 22.18 LIG-0.34  N 
ATOM      3 H    SER C 462      15.078   4.581   9.213  1.00 22.18 LIG 0.16  HD
ATOM      4  C   ILE C 461      14.008   6.108   9.694  0.90 26.05 LIG 0.24  C 
ATOM      5 O    ILE C 461      14.021   7.132  10.293  1.00 25.33 LIG-0.27  OA
BRANCH 4 6
ATOM      6  CA  ILE C 461      12.779   5.682   8.910  1.00 25.76 LIG 0.18  C 
BRANCH 6 7
ATOM      7  N   ILE C 461      13.074   4.813   7.799  1.00 27.84 LIG-0.35  N 
ATOM      8 H    ILE C 461      13.055   3.970   7.966  1.00 27.84 LIG 0.16  HD
ATOM      9  C   PRO C 460      13.347   5.358   6.636  0.79 31.68 LIG 0.24  C 
ATOM     10 O    PRO C 460      13.463   6.568   6.500  0.87 32.12 LIG-0.27  OA
BRANCH 9 11
ATOM     11  CA  PRO C 460      13.528   4.440   5.409  1.00 30.82 LIG 0.18  C 
ATOM     12  N   PRO C 460      13.599   5.214   4.157  0.83 28.79 LIG-0.34  N 
ATOM     13  C   ASN C 459      12.518   5.762   3.601  1.00 34.90 LIG 0.26  C 
ATOM     14  CD  PRO C 460      14.992   5.338   3.692  0.88 33.76 LIG 0.13  C 
ATOM     15 O    ASN C 459      11.424   5.587   4.020  1.00 32.66 LIG-0.27  OA
ATOM     16  CG  PRO C 460      15.791   4.660   4.784  0.52 26.84 LIG 0.02  C 
ATOM     17  CB  PRO C 460      14.899   3.782   5.497  0.87 26.32 LIG 0.04  C 
BRANCH 13 18
ATOM     18  CA  ASN C 459      12.680   6.664   2.363  1.00 33.71 LIG 0.41  C 
ATOM     19  N   ASN C 459      12.194   6.020   1.164  1.00 33.83 LIG 0.61  N 
BRANCH 18 20
ATOM     20  CB  ASN C 459      11.890   7.928   2.580  1.00 30.86 LIG 0.15  C 
BRANCH 20 21
ATOM     21  CG  ASN C 459      10.522   7.878   1.951  1.00 37.39 LIG 0.22  C 
ATOM     22 OD1  ASN C 459      10.202   8.664   1.064  1.00 38.33 LIG-0.27  OA
ATOM     23  ND2 ASN C 459       9.706   6.970   2.417  1.00 33.08 LIG-0.37  N 
ATOM     24 21HD ASN C 459       8.909   6.905   2.101  1.00 33.08 LIG 0.16  HD
ATOM     25 22HD ASN C 459       9.966   6.437   3.040  1.00 33.08 LIG 0.16  HD
ENDBRANCH 20 21
ENDBRANCH 18 20
ENDBRANCH 13 18
ENDBRANCH 9 11
ENDBRANCH 6 7
BRANCH 6 26
ATOM     26  CB  ILE C 461      11.706   5.132   9.813  1.00 26.47 LIG 0.01  C 
ATOM     27  CG2 ILE C 461      12.217   3.964  10.622  1.00 25.39 LIG 0.01  C 
BRANCH 26 28
ATOM     28  CG1 ILE C 461      11.169   6.269  10.697  1.00 25.72 LIG 0.00  C 
ATOM     29  CD1 ILE C 461      10.854   7.391   9.990  1.00 23.87 LIG 0.01  C 
ENDBRANCH 26 28
ENDBRANCH 6 26
ENDBRANCH 4 6
ENDBRANCH 1 2
BRANCH 1 30
ATOM     30  C   SER C 462      17.393   5.945   9.434  1.00 25.50 LIG 0.24  C 
ATOM     31 O    SER C 462      18.254   5.096   9.187  0.83 24.32 LIG-0.27  OA
ATOM     32  N   ASP C 463      17.337   7.130   8.890  1.00 22.92 LIG-0.34  N 
ATOM     33 H    ASP C 463      16.726   7.701   9.088  1.00 22.92 LIG 0.16  HD
BRANCH 32 34
ATOM     34  CA  ASP C 463      18.254   7.611   7.928  1.00 22.73 LIG 0.19  C 
BRANCH 34 35
ATOM     35  CB  ASP C 463      17.872   7.156   6.526  1.00 28.12 LIG 0.15  C 
BRANCH 35 36
ATOM     36  CG  ASP C 463      16.682   7.921   5.953  1.00 33.32 LIG 0.17  C 
ATOM     37 OD1  ASP C 463      15.671   7.972   6.640  1.00 34.35 LIG-0.65  OA
ATOM     38 OD2  ASP C 463      16.759   8.406   4.840  1.00 29.24 LIG-0.65  OA
ENDBRANCH 35 36
ENDBRANCH 34 35
BRANCH 34 39
ATOM     39  C   ASP C 463      18.257   9.124   8.030  0.93 22.51 LIG 0.24  C 
ATOM     40 O    ASP C 463      17.436   9.740   8.624  0.95 19.76 LIG-0.27  OA
ATOM     41  N   VAL C 464      19.261   9.672   7.407  1.00 24.79 LIG-0.35  N 
ATOM     42 H    VAL C 464      19.843   9.219   6.963  1.00 24.79 LIG 0.16  HD
BRANCH 41 43
ATOM     43  CA  VAL C 464      19.503  11.079   7.393  1.00 23.67 LIG 0.18  C 
BRANCH 43 44
ATOM     44  C   VAL C 464      18.667  11.774   6.294  0.83 28.47 LIG 0.24  C 
ATOM     45  N   ASP C 465      18.169  12.955   6.586  1.00 23.35 LIG-0.34  N 
ATOM     46 H    ASP C 465      18.286  13.331   7.350  1.00 23.35 LIG 0.16  HD
ATOM     47 O    VAL C 464      18.425  11.216   5.265  0.85 31.06 LIG-0.27  OA
BRANCH 45 48
ATOM     48  CA  ASP C 465      17.384  13.743   5.678  0.96 24.34 LIG 0.20  C 
BRANCH 48 49
ATOM     49  CB  ASP C 465      18.061  13.878   4.323  1.00 26.52 LIG 0.15  C 
BRANCH 49 50
ATOM     50  CG  ASP C 465      18.767  15.216   4.126  1.00 29.54 LIG 0.17  C 
ATOM     51 OD2  ASP C 465      19.803  15.472   4.722  1.00 27.46 LIG-0.65  OA
ATOM     52 OD1  ASP C 465      18.294  15.971   3.332  1.00 31.86 LIG-0.65  OA
ENDBRANCH 49 50
ENDBRANCH 48 49
BRANCH 48 53
ATOM     53  C   ASP C 465      16.008  13.110   5.453  0.80 27.02 LIG 0.20  C 
ATOM     54 O    ASP C 465      15.952  12.165   4.696  0.89 29.01 LIG-0.65  OA
ATOM     55 OXT  ASP C 465      15.076  13.341   6.211  1.00 25.29 LIG-0.65  OA
ENDBRANCH 48 53
ENDBRANCH 45 48
ENDBRANCH 43 44
BRANCH 43 56
ATOM     56  CB  VAL C 464      21.016  11.095   7.246  1.00 20.27 LIG 0.01  C 
ATOM     57  CG1 VAL C 464      21.561  11.531   5.951  1.00 23.93 LIG 0.01  C 
ATOM     58  CG2 VAL C 464      21.735  11.211   8.476  0.99 20.75 LIG 0.01  C 
ENDBRANCH 43 56
ENDBRANCH 41 43
ENDBRANCH 34 39
ENDBRANCH 32 34
ENDBRANCH 1 30
BRANCH 1 59
ATOM     59  CB  SER C 462      16.643   4.577  11.382  1.00 26.51 LIG 0.20  C 
BRANCH 59 60
ATOM     60 OG   SER C 462      15.993   3.370  11.047  0.75 30.44 LIG-0.40  OA
ATOM     61 HG   SER C 462      15.897   3.325  10.214  0.75 30.44 LIG 0.21  HD
ENDBRANCH 59 60
ENDBRANCH 1 59
TORSDOF 23
ENDMDL
MODEL 2
USER: ADFR SOLUTION from run 40
USER: SCORE 21.515657 LL:  -3.391 LR: -19.372 RR:   0.000 FEB: -12.511
USER: RMSD 2.470914
USER: SEED 39
USER: STATUS searching
USER: GENES 25
USER: genes 0 Translation |==|  0.53474 0.33398 0.71845
USER: genes 1 Rotation |==|  0.57189 0.49146 0.41033 0.98654
USER: genes 2 Torsion [C]-CA--N-[C] |==|  0.16111
USER: genes 3 Torsion [N]-C--CA-[N] |==|  0.45757
USER: genes 4 Torsion [C]-CA--N-[C] |==|  0.67917
USER: genes 5 Torsion [N]-C--CA-[CB] |==|  0.37854
USER: genes 6 Torsion [N]-C--CA-[N] |==|  0.82697
USER: genes 7 Torsion [C]-CA--CB-[CG] |==|  0.62565
USER: genes 8 Torsion [CA]-CB--CG-[OD1] |==|  0.79058
USER: genes 9 Torsion [C]-CA--CB-[CG2] |==|  0.87711
USER: genes 10 Torsion [CA]-CB--CG1-[CD1] |==|  0.42710
USER: genes 11 Torsion [N]-CA--C-[N] |==|  0.12195
USER: genes 12 Torsion [C]-N--CA-[CB] |==|  0.22737
USER: genes 13 Torsion [N]-CA--CB-[CG] |==|  0.24295
USER: genes 14 Torsion [CA]-CB--CG-[OD1] |==|  0.81081
USER: genes 15 Torsion [N]-CA--C-[N] |==|  0.45820
USER: genes 16 Torsion [C]-N--CA-[C] |==|  0.75763
USER: genes 17 Torsion [N]-CA--C-[N] |==|  0.39390
USER: genes 18 Torsion [C]-N--CA-[CB] |==|  0.35774
USER: genes 19 Torsion [N]-CA--CB-[CG] |==|  0.86081
USER: genes 20 Torsion [CA]-CB--CG-[OD2] |==|  0.28709
USER: genes 21 Torsion [N]-CA--C-[O] |==|  0.54678
USER: genes 22 Torsion [N]-CA--CB-[CG1] |==|  0.79424
USER: genes 23 Torsion [N]-CA--CB-[OG] |==|  0.50819
USER: genes 24 Torsion [CA]-CB--OG-[HG] |==|  0.85537
ROOT
ATOM      1  CA  SER C 462      16.756   6.234  10.048  1.00 28.28 LIG 0.20  C 
ENDROOT
BRANCH 1 2
ATOM      2  N   SER C 462      15.509   6.641   9.402  1.00 22.18 LIG-0.34  N 
ATOM      3 H    SER C 462      15.048   7.228   9.830  1.00 22.18 LIG 0.16  HD
ATOM      4  C   ILE C 461      15.170   6.120   8.261  0.90 26.05 LIG 0.24  C 
ATOM      5 O    ILE C 461      15.828   5.289   7.727  1.00 25.33 LIG-0.27  OA
BRANCH 4 6
ATOM      6  CA  ILE C 461      13.867   6.593   7.641  1.00 25.76 LIG 0.18  C 
BRANCH 6 7
ATOM      7  N   ILE C 461      13.731   6.248   6.248  1.00 27.84 LIG-0.35  N 
ATOM      8 H    ILE C 461      13.690   5.407   6.071  1.00 27.84 LIG 0.16  HD
ATOM      9  C   PRO C 460      13.682   7.219   5.366  0.79 31.68 LIG 0.24  C 
ATOM     10 O    PRO C 460      13.856   8.388   5.681  0.87 32.12 LIG-0.27  OA
BRANCH 9 11
ATOM     11  CA  PRO C 460      13.398   6.870   3.890  1.00 30.82 LIG 0.18  C 
ATOM     12  N   PRO C 460      12.701   5.578   3.759  0.83 28.79 LIG-0.34  N 
ATOM     13  C   ASN C 459      13.332   4.414   3.925  1.00 34.90 LIG 0.26  C 
ATOM     14  CD  PRO C 460      11.263   5.778   3.509  0.88 33.76 LIG 0.13  C 
ATOM     15 O    ASN C 459      14.502   4.338   4.092  1.00 32.66 LIG-0.27  OA
ATOM     16  CG  PRO C 460      11.097   7.280   3.574  0.52 26.84 LIG 0.02  C 
ATOM     17  CB  PRO C 460      12.390   7.873   3.343  0.87 26.32 LIG 0.04  C 
BRANCH 13 18
ATOM     18  CA  ASN C 459      12.519   3.106   3.901  1.00 33.71 LIG 0.41  C 
ATOM     19  N   ASN C 459      11.552   3.057   4.973  1.00 33.83 LIG 0.61  N 
BRANCH 18 20
ATOM     20  CB  ASN C 459      11.783   3.020   2.589  1.00 30.86 LIG 0.15  C 
BRANCH 20 21
ATOM     21  CG  ASN C 459      10.346   2.599   2.751  1.00 37.39 LIG 0.22  C 
ATOM     22 OD1  ASN C 459      10.049   1.432   2.990  1.00 38.33 LIG-0.27  OA
ATOM     23  ND2 ASN C 459       9.450   3.540   2.603  1.00 33.08 LIG-0.37  N 
ATOM     24 21HD ASN C 459       8.614   3.352   2.674  1.00 33.08 LIG 0.16  HD
ATOM     25 22HD ASN C 459       9.697   4.346   2.436  1.00 33.08 LIG 0.16  HD
ENDBRANCH 20 21
ENDBRANCH 18 20
ENDBRANCH 13 18
ENDBRANCH 9 11
ENDBRANCH 6 7
BRANCH 6 26
ATOM     26  CB  ILE C 461      12.676   6.178   8.464  1.00 26.47 LIG 0.01  C 
ATOM     27  CG2 ILE C 461      12.794   4.743   8.916  1.00 25.39 LIG 0.01  C 
BRANCH 26 28
ATOM     28  CG1 ILE C 461      12.522   7.154   9.641  1.00 25.72 LIG 0.00  C 
ATOM     29  CD1 ILE C 461      11.240   7.246  10.096  1.00 23.87 LIG 0.01  C 
ENDBRANCH 26 28
ENDBRANCH 6 26
ENDBRANCH 4 6
ENDBRANCH 1 2
BRANCH 1 30
ATOM     30  C   SER C 462      17.934   6.499   9.135  1.00 25.50 LIG 0.24  C 
ATOM     31 O    SER C 462      18.820   5.658   8.960  0.83 24.32 LIG-0.27  OA
ATOM     32  N   ASP C 463      17.883   7.662   8.545  1.00 22.92 LIG-0.34  N 
ATOM     33 H    ASP C 463      17.253   8.228   8.693  1.00 22.92 LIG 0.16  HD
BRANCH 32 34
ATOM     34  CA  ASP C 463      18.836   8.125   7.609  1.00 22.73 LIG 0.19  C 
BRANCH 34 35
ATOM     35  CB  ASP C 463      18.558   7.570   6.218  1.00 28.12 LIG 0.15  C 
BRANCH 35 36
ATOM     36  CG  ASP C 463      17.586   8.431   5.415  1.00 33.32 LIG 0.17  C 
ATOM     37 OD1  ASP C 463      16.427   8.469   5.803  1.00 34.35 LIG-0.65  OA
ATOM     38 OD2  ASP C 463      17.976   9.002   4.414  1.00 29.24 LIG-0.65  OA
ENDBRANCH 35 36
ENDBRANCH 34 35
BRANCH 34 39
ATOM     39  C   ASP C 463      18.770   9.640   7.616  0.93 22.51 LIG 0.24  C 
ATOM     40 O    ASP C 463      17.881  10.252   8.106  0.95 19.76 LIG-0.27  OA
ATOM     41  N   VAL C 464      19.798  10.195   7.038  1.00 24.79 LIG-0.35  N 
ATOM     42 H    VAL C 464      20.430   9.743   6.669  1.00 24.79 LIG 0.16  HD
BRANCH 41 43
ATOM     43  CA  VAL C 464      19.983  11.608   6.955  1.00 23.67 LIG 0.18  C 
BRANCH 43 44
ATOM     44  C   VAL C 464      19.281  12.186   5.706  0.83 28.47 LIG 0.24  C 
ATOM     45  N   ASP C 465      18.696  13.355   5.843  1.00 23.35 LIG-0.34  N 
ATOM     46 H    ASP C 465      18.686  13.785   6.587  1.00 23.35 LIG 0.16  HD
ATOM     47 O    VAL C 464      19.210  11.552   4.695  0.85 31.06 LIG-0.27  OA
BRANCH 45 48
ATOM     48  CA  ASP C 465      18.012  14.042   4.783  0.96 24.34 LIG 0.20  C 
BRANCH 48 49
ATOM     49  CB  ASP C 465      16.616  14.471   5.202  1.00 26.52 LIG 0.15  C 
BRANCH 49 50
ATOM     50  CG  ASP C 465      15.796  13.346   5.828  1.00 29.54 LIG 0.17  C 
ATOM     51 OD2  ASP C 465      15.628  13.291   7.038  1.00 27.46 LIG-0.65  OA
ATOM     52 OD1  ASP C 465      15.288  12.563   5.086  1.00 31.86 LIG-0.65  OA
ENDBRANCH 49 50
ENDBRANCH 48 49
BRANCH 48 53
ATOM     53  C   ASP C 465      18.781  15.297   4.360  0.80 27.02 LIG 0.20  C 
ATOM     54 O    ASP C 465      18.175  16.124   3.711  0.89 29.01 LIG-0.65  OA
ATOM     55 OXT  ASP C 465      19.841  15.596   4.891  1.00 25.29 LIG-0.65  OA
ENDBRANCH 48 53
ENDBRANCH 45 48
ENDBRANCH 43 44
BRANCH 43 56
ATOM     56  CB  VAL C 464      21.500  11.688   7.013  1.00 20.27 LIG 0.01  C 
ATOM     57  CG1 VAL C 464      22.138  11.446   8.316  1.00 23.93 LIG 0.01  C 
ATOM     58  CG2 VAL C 464      22.158  11.456   5.765  0.99 20.75 LIG 0.01  C 
ENDBRANCH 43 56
ENDBRANCH 41 43
ENDBRANCH 34 39
ENDBRANCH 32 34
ENDBRANCH 1 30
BRANCH 1 59
ATOM     59  CB  SER C 462      16.723   4.770  10.467  1.00 26.51 LIG 0.20  C 
BRANCH 59 60
ATOM     60 OG   SER C 462      17.915   4.438  11.145  0.75 30.44 LIG-0.40  OA
ATOM     61 HG   SER C 462      18.576   4.667  10.679  0.75 30.44 LIG 0.21  HD
ENDBRANCH 59 60
ENDBRANCH 1 59
TORSDOF 23
ENDMDL
MODEL 3
USER: ADFR SOLUTION from run 126
USER: SCORE 22.072321 LL:  -4.469 LR: -19.342 RR:   0.000 FEB: -12.481
USER: RMSD 3.594828
USER: SEED 125
USER: STATUS 1 or 2 clusters left
USER: GENES 25
USER: genes 0 Translation |==|  0.52387 0.32846 0.71372
USER: genes 1 Rotation |==|  0.48789 0.45809 0.49397 0.99806
USER: genes 2 Torsion [C]-CA--N-[C] |==|  0.61535
USER: genes 3 Torsion [N]-C--CA-[N] |==|  0.97734
USER: genes 4 Torsion [C]-CA--N-[C] |==|  0.75606
USER: genes 5 Torsion [N]-C--CA-[CB] |==|  0.27546
USER: genes 6 Torsion [N]-C--CA-[N] |==|  0.24675
USER: genes 7 Torsion [C]-CA--CB-[CG] |==|  0.19190
USER: genes 8 Torsion [CA]-CB--CG-[OD1] |==|  0.88243
USER: genes 9 Torsion [C]-CA--CB-[CG2] |==|  0.91990
USER: genes 10 Torsion [CA]-CB--CG1-[CD1] |==|  0.77050
USER: genes 11 Torsion [N]-CA--C-[N] |==|  0.17971
USER: genes 12 Torsion [C]-N--CA-[CB] |==|  0.26913
USER: genes 13 Torsion [N]-CA--CB-[CG] |==|  0.21774
USER: genes 14 Torsion [CA]-CB--CG-[OD1] |==|  0.73318
USER: genes 15 Torsion [N]-CA--C-[N] |==|  0.45526
USER: genes 16 Torsion [C]-N--CA-[C] |==|  0.74895
USER: genes 17 Torsion [N]-CA--C-[N] |==|  0.34060
USER: genes 18 Torsion [C]-N--CA-[CB] |==|  0.41314
USER: genes 19 Torsion [N]-CA--CB-[CG] |==|  0.88272
USER: genes 20 Torsion [CA]-CB--CG-[OD2] |==|  0.70920
USER: genes 21 Torsion [N]-CA--C-[O] |==|  0.05644
USER: genes 22 Torsion [N]-CA--CB-[CG1] |==|  0.30346
USER: genes 23 Torsion [N]-CA--CB-[OG] |==|  0.93147
USER: genes 24 Torsion [CA]-CB--OG-[HG] |==|  0.18936
ROOT
ATOM      1  CA  SER C 462      16.535   6.122   9.949  1.00 28.28 LIG 0.20  C 
ENDROOT
BRANCH 1 2
ATOM      2  N   SER C 462      15.353   5.867   9.128  1.00 22.18 LIG-0.34  N 
ATOM      3 H    SER C 462      15.490   5.390   8.425  1.00 22.18 LIG 0.16  HD
ATOM      4  C   ILE C 461      14.200   6.353   9.482  0.90 26.05 LIG 0.24  C 
ATOM      5 O    ILE C 461      14.072   7.032  10.446  1.00 25.33 LIG-0.27  OA
BRANCH 4 6
ATOM      6  CA  ILE C 461      13.012   6.043   8.588  1.00 25.76 LIG 0.18  C 
BRANCH 6 7
ATOM      7  N   ILE C 461      13.373   5.393   7.353  1.00 27.84 LIG-0.35  N 
ATOM      8 H    ILE C 461      13.364   4.534   7.363  1.00 27.84 LIG 0.16  HD
ATOM      9  C   PRO C 460      13.685   6.143   6.322  0.79 31.68 LIG 0.24  C 
ATOM     10 O    PRO C 460      13.783   7.359   6.413  0.87 32.12 LIG-0.27  OA
BRANCH 9 11
ATOM     11  CA  PRO C 460      13.938   5.466   4.958  1.00 30.82 LIG 0.18  C 
ATOM     12  N   PRO C 460      14.113   4.010   5.097  0.83 28.79 LIG-0.34  N 
ATOM     13  C   ASN C 459      15.234   3.475   5.583  1.00 34.90 LIG 0.26  C 
ATOM     14  CD  PRO C 460      12.886   3.292   4.706  0.88 33.76 LIG 0.13  C 
ATOM     15 O    ASN C 459      16.191   4.121   5.845  1.00 32.66 LIG-0.27  OA
ATOM     16  CG  PRO C 460      11.910   4.405   4.393  0.52 26.84 LIG 0.02  C 
ATOM     17  CB  PRO C 460      12.675   5.593   4.115  0.87 26.32 LIG 0.04  C 
BRANCH 13 18
ATOM     18  CA  ASN C 459      15.302   1.954   5.821  1.00 33.71 LIG 0.41  C 
ATOM     19  N   ASN C 459      15.758   1.249   4.645  1.00 33.83 LIG 0.61  N 
BRANCH 18 20
ATOM     20  CB  ASN C 459      16.270   1.685   6.944  1.00 30.86 LIG 0.15  C 
BRANCH 20 21
ATOM     21  CG  ASN C 459      15.760   2.157   8.281  1.00 37.39 LIG 0.22  C 
ATOM     22 OD1  ASN C 459      15.194   3.241   8.399  1.00 38.33 LIG-0.27  OA
ATOM     23  ND2 ASN C 459      15.973   1.359   9.293  1.00 33.08 LIG-0.37  N 
ATOM     24 21HD ASN C 459      15.713   1.585  10.082  1.00 33.08 LIG 0.16  HD
ATOM     25 22HD ASN C 459      16.373   0.608   9.172  1.00 33.08 LIG 0.16  HD
ENDBRANCH 20 21
ENDBRANCH 18 20
ENDBRANCH 13 18
ENDBRANCH 9 11
ENDBRANCH 6 7
BRANCH 6 26
ATOM     26  CB  ILE C 461      11.928   5.312   9.337  1.00 26.47 LIG 0.01  C 
ATOM     27  CG2 ILE C 461      12.501   4.487  10.463  1.00 25.39 LIG 0.01  C 
BRANCH 26 28
ATOM     28  CG1 ILE C 461      10.888   6.333   9.825  1.00 25.72 LIG 0.00  C 
ATOM     29  CD1 ILE C 461      11.248   6.949  10.986  1.00 23.87 LIG 0.01  C 
ENDBRANCH 26 28
ENDBRANCH 6 26
ENDBRANCH 4 6
ENDBRANCH 1 2
BRANCH 1 30
ATOM     30  C   SER C 462      17.731   6.430   9.071  1.00 25.50 LIG 0.24  C 
ATOM     31 O    SER C 462      18.702   5.670   9.009  0.83 24.32 LIG-0.27  OA
ATOM     32  N   ASP C 463      17.601   7.531   8.384  1.00 22.92 LIG-0.34  N 
ATOM     33 H    ASP C 463      16.913   8.042   8.455  1.00 22.92 LIG 0.16  HD
BRANCH 32 34
ATOM     34  CA  ASP C 463      18.555   8.011   7.457  1.00 22.73 LIG 0.19  C 
BRANCH 34 35
ATOM     35  CB  ASP C 463      18.188   7.615   6.033  1.00 28.12 LIG 0.15  C 
BRANCH 35 36
ATOM     36  CG  ASP C 463      17.093   8.491   5.432  1.00 33.32 LIG 0.17  C 
ATOM     37 OD1  ASP C 463      15.946   8.071   5.498  1.00 34.35 LIG-0.65  OA
ATOM     38 OD2  ASP C 463      17.393   9.533   4.880  1.00 29.24 LIG-0.65  OA
ENDBRANCH 35 36
ENDBRANCH 34 35
BRANCH 34 39
ATOM     39  C   ASP C 463      18.606   9.519   7.608  0.93 22.51 LIG 0.24  C 
ATOM     40 O    ASP C 463      17.774  10.147   8.174  0.95 19.76 LIG-0.27  OA
ATOM     41  N   VAL C 464      19.664  10.048   7.062  1.00 24.79 LIG-0.35  N 
ATOM     42 H    VAL C 464      20.254   9.587   6.638  1.00 24.79 LIG 0.16  HD
BRANCH 41 43
ATOM     43  CA  VAL C 464      19.956  11.444   7.108  1.00 23.67 LIG 0.18  C 
BRANCH 43 44
ATOM     44  C   VAL C 464      19.346  12.178   5.892  0.83 28.47 LIG 0.24  C 
ATOM     45  N   ASP C 465      18.516  13.164   6.150  1.00 23.35 LIG-0.34  N 
ATOM     46 H    ASP C 465      18.304  13.395   6.950  1.00 23.35 LIG 0.16  HD
ATOM     47 O    VAL C 464      19.564  11.803   4.778  0.85 31.06 LIG-0.27  OA
BRANCH 45 48
ATOM     48  CA  ASP C 465      17.873  13.959   5.141  0.96 24.34 LIG 0.20  C 
BRANCH 48 49
ATOM     49  CB  ASP C 465      16.504  14.440   5.595  1.00 26.52 LIG 0.15  C 
BRANCH 49 50
ATOM     50  CG  ASP C 465      15.693  13.370   6.321  1.00 29.54 LIG 0.17  C 
ATOM     51 OD2  ASP C 465      14.762  12.805   5.765  1.00 27.46 LIG-0.65  OA
ATOM     52 OD1  ASP C 465      16.041  13.076   7.423  1.00 31.86 LIG-0.65  OA
ENDBRANCH 49 50
ENDBRANCH 48 49
BRANCH 48 53
ATOM     53  C   ASP C 465      18.714  15.193   4.801  0.80 27.02 LIG 0.20  C 
ATOM     54 O    ASP C 465      19.892  15.155   5.086  0.89 29.01 LIG-0.65  OA
ATOM     55 OXT  ASP C 465      18.302  16.042   4.023  1.00 25.29 LIG-0.65  OA
ENDBRANCH 48 53
ENDBRANCH 45 48
ENDBRANCH 43 44
BRANCH 43 56
ATOM     56  CB  VAL C 464      21.471  11.403   7.220  1.00 20.27 LIG 0.01  C 
ATOM     57  CG1 VAL C 464      22.245  11.837   6.047  1.00 23.93 LIG 0.01  C 
ATOM     58  CG2 VAL C 464      21.973  11.471   8.557  0.99 20.75 LIG 0.01  C 
ENDBRANCH 43 56
ENDBRANCH 41 43
ENDBRANCH 34 39
ENDBRANCH 32 34
ENDBRANCH 1 30
BRANCH 1 59
ATOM     59  CB  SER C 462      16.841   4.954  10.877  1.00 26.51 LIG 0.20  C 
BRANCH 59 60
ATOM     60 OG   SER C 462      15.663   4.217  11.124  0.75 30.44 LIG-0.40  OA
ATOM     61 HG   SER C 462      15.421   3.830  10.418  0.75 30.44 LIG 0.21  HD
ENDBRANCH 59 60
ENDBRANCH 1 59
TORSDOF 23
ENDMDL
MODEL 4
USER: ADFR SOLUTION from run 74
USER: SCORE 21.941172 LL:  -4.926 LR: -18.288 RR:   0.000 FEB: -11.427
USER: RMSD 3.941311
USER: SEED 73
USER: STATUS no improvement in best in 1 clusters for 5 generations
USER: GENES 25
USER: genes 0 Translation |==|  0.70252 0.27902 0.65906
USER: genes 1 Rotation |==|  0.55302 0.79760 0.41330 0.88873
USER: genes 2 Torsion [C]-CA--N-[C] |==|  0.15403
USER: genes 3 Torsion [N]-C--CA-[N] |==|  0.41585
USER: genes 4 Torsion [C]-CA--N-[C] |==|  0.80634
USER: genes 5 Torsion [N]-C--CA-[CB] |==|  0.07453
USER: genes 6 Torsion [N]-C--CA-[N] |==|  0.46384
USER: genes 7 Torsion [C]-CA--CB-[CG] |==|  0.50787
USER: genes 8 Torsion [CA]-CB--CG-[OD1] |==|  0.16370
USER: genes 9 Torsion [C]-CA--CB-[CG2] |==|  0.38489
USER: genes 10 Torsion [CA]-CB--CG1-[CD1] |==|  0.34939
USER: genes 11 Torsion [N]-CA--C-[N] |==|  0.12237
USER: genes 12 Torsion [C]-N--CA-[CB] |==|  0.22694
USER: genes 13 Torsion [N]-CA--CB-[CG] |==|  0.53676
USER: genes 14 Torsion [CA]-CB--CG-[OD1] |==|  0.26430
USER: genes 15 Torsion [N]-CA--C-[N] |==|  0.29779
USER: genes 16 Torsion [C]-N--CA-[C] |==|  0.73070
USER: genes 17 Torsion [N]-CA--C-[N] |==|  0.44030
USER: genes 18 Torsion [C]-N--CA-[CB] |==|  0.33237
USER: genes 19 Torsion [N]-CA--CB-[CG] |==|  0.87932
USER: genes 20 Torsion [CA]-CB--CG-[OD2] |==|  0.77263
USER: genes 21 Torsion [N]-CA--C-[O] |==|  0.03133
USER: genes 22 Torsion [N]-CA--CB-[CG1] |==|  0.21081
USER: genes 23 Torsion [N]-CA--CB-[OG] |==|  0.85715
USER: genes 24 Torsion [CA]-CB--OG-[HG] |==|  0.76128
ROOT
ATOM      1  CA  SER C 462      20.153   5.121   8.801  1.00 28.28 LIG 0.20  C 
ENDROOT
BRANCH 1 2
ATOM      2  N   SER C 462      19.198   5.310   9.893  1.00 22.18 LIG-0.34  N 
ATOM      3 H    SER C 462      19.509   5.714  10.586  1.00 22.18 LIG 0.16  HD
ATOM      4  C   ILE C 461      17.979   4.878   9.769  0.90 26.05 LIG 0.24  C 
ATOM      5 O    ILE C 461      17.611   4.299   8.801  1.00 25.33 LIG-0.27  OA
BRANCH 4 6
ATOM      6  CA  ILE C 461      17.037   5.114  10.937  1.00 25.76 LIG 0.18  C 
BRANCH 6 7
ATOM      7  N   ILE C 461      15.659   5.271  10.545  1.00 27.84 LIG-0.35  N 
ATOM      8 H    ILE C 461      15.131   4.629  10.763  1.00 27.84 LIG 0.16  HD
ATOM      9  C   PRO C 460      15.315   6.359   9.895  0.79 31.68 LIG 0.24  C 
ATOM     10 O    PRO C 460      16.143   7.179   9.522  0.87 32.12 LIG-0.27  OA
BRANCH 9 11
ATOM     11  CA  PRO C 460      13.822   6.604   9.591  1.00 30.82 LIG 0.18  C 
ATOM     12  N   PRO C 460      13.408   5.953   8.336  0.83 28.79 LIG-0.34  N 
ATOM     13  C   ASN C 459      13.743   6.442   7.141  1.00 34.90 LIG 0.26  C 
ATOM     14  CD  PRO C 460      12.672   4.705   8.607  0.88 33.76 LIG 0.13  C 
ATOM     15 O    ASN C 459      14.310   7.473   7.007  1.00 32.66 LIG-0.27  OA
ATOM     16  CG  PRO C 460      12.729   4.581  10.114  0.52 26.84 LIG 0.02  C 
ATOM     17  CB  PRO C 460      12.991   5.892  10.651  0.87 26.32 LIG 0.04  C 
BRANCH 13 18
ATOM     18  CA  ASN C 459      13.386   5.644   5.872  1.00 33.71 LIG 0.41  C 
ATOM     19  N   ASN C 459      13.543   6.440   4.677  1.00 33.83 LIG 0.61  N 
BRANCH 18 20
ATOM     20  CB  ASN C 459      14.305   4.454   5.777  1.00 30.86 LIG 0.15  C 
BRANCH 20 21
ATOM     21  CG  ASN C 459      14.083   3.640   4.530  1.00 37.39 LIG 0.22  C 
ATOM     22 OD1  ASN C 459      14.202   4.141   3.415  1.00 38.33 LIG-0.27  OA
ATOM     23  ND2 ASN C 459      13.742   2.391   4.709  1.00 33.08 LIG-0.37  N 
ATOM     24 21HD ASN C 459      13.592   1.885   4.030  1.00 33.08 LIG 0.16  HD
ATOM     25 22HD ASN C 459      13.669   2.076   5.505  1.00 33.08 LIG 0.16  HD
ENDBRANCH 20 21
ENDBRANCH 18 20
ENDBRANCH 13 18
ENDBRANCH 9 11
ENDBRANCH 6 7
BRANCH 6 26
ATOM     26  CB  ILE C 461      17.222   4.083  12.019  1.00 26.47 LIG 0.01  C 
ATOM     27  CG2 ILE C 461      17.174   4.713  13.390  1.00 25.39 LIG 0.01  C 
BRANCH 26 28
ATOM     28  CG1 ILE C 461      16.167   2.981  11.840  1.00 25.72 LIG 0.00  C 
ATOM     29  CD1 ILE C 461      16.706   1.731  11.763  1.00 23.87 LIG 0.01  C 
ENDBRANCH 26 28
ENDBRANCH 6 26
ENDBRANCH 4 6
ENDBRANCH 1 2
BRANCH 1 30
ATOM     30  C   SER C 462      19.610   5.713   7.517  1.00 25.50 LIG 0.24  C 
ATOM     31 O    SER C 462      19.661   5.099   6.448  0.83 24.32 LIG-0.27  OA
ATOM     32  N   ASP C 463      19.066   6.888   7.676  1.00 22.92 LIG-0.34  N 
ATOM     33 H    ASP C 463      19.052   7.292   8.435  1.00 22.92 LIG 0.16  HD
BRANCH 32 34
ATOM     34  CA  ASP C 463      18.445   7.627   6.643  1.00 22.73 LIG 0.19  C 
BRANCH 34 35
ATOM     35  CB  ASP C 463      17.016   7.155   6.410  1.00 28.12 LIG 0.15  C 
BRANCH 35 36
ATOM     36  CG  ASP C 463      16.415   7.688   5.112  1.00 33.32 LIG 0.17  C 
ATOM     37 OD1  ASP C 463      16.487   6.964   4.128  1.00 34.35 LIG-0.65  OA
ATOM     38 OD2  ASP C 463      15.935   8.805   5.086  1.00 29.24 LIG-0.65  OA
ENDBRANCH 35 36
ENDBRANCH 34 35
BRANCH 34 39
ATOM     39  C   ASP C 463      18.478   9.086   7.055  0.93 22.51 LIG 0.24  C 
ATOM     40 O    ASP C 463      17.798   9.537   7.917  0.95 19.76 LIG-0.27  OA
ATOM     41  N   VAL C 464      19.337   9.787   6.371  1.00 24.79 LIG-0.35  N 
ATOM     42 H    VAL C 464      19.813   9.456   5.736  1.00 24.79 LIG 0.16  HD
BRANCH 41 43
ATOM     43  CA  VAL C 464      19.578  11.175   6.603  1.00 23.67 LIG 0.18  C 
BRANCH 43 44
ATOM     44  C   VAL C 464      18.766  12.050   5.621  0.83 28.47 LIG 0.24  C 
ATOM     45  N   ASP C 465      18.547  13.295   5.980  1.00 23.35 LIG-0.34  N 
ATOM     46 H    ASP C 465      18.826  13.619   6.725  1.00 23.35 LIG 0.16  HD
ATOM     47 O    VAL C 464      18.297  11.580   4.627  0.85 31.06 LIG-0.27  OA
BRANCH 45 48
ATOM     48  CA  ASP C 465      17.825  14.247   5.182  0.96 24.34 LIG 0.20  C 
BRANCH 48 49
ATOM     49  CB  ASP C 465      16.592  14.763   5.905  1.00 26.52 LIG 0.15  C 
BRANCH 49 50
ATOM     50  CG  ASP C 465      15.799  13.669   6.614  1.00 29.54 LIG 0.17  C 
ATOM     51 OD2  ASP C 465      15.005  12.971   5.998  1.00 27.46 LIG-0.65  OA
ATOM     52 OD1  ASP C 465      16.026  13.492   7.771  1.00 31.86 LIG-0.65  OA
ENDBRANCH 49 50
ENDBRANCH 48 49
BRANCH 48 53
ATOM     53  C   ASP C 465      18.706  15.452   4.839  0.80 27.02 LIG 0.20  C 
ATOM     54 O    ASP C 465      19.891  15.356   5.079  0.89 29.01 LIG-0.65  OA
ATOM     55 OXT  ASP C 465      18.304  16.337   4.098  1.00 25.29 LIG-0.65  OA
ENDBRANCH 48 53
ENDBRANCH 45 48
ENDBRANCH 43 44
BRANCH 43 56
ATOM     56  CB  VAL C 464      21.094  11.210   6.491  1.00 20.27 LIG 0.01  C 
ATOM     57  CG1 VAL C 464      21.672  11.136   5.141  1.00 23.93 LIG 0.01  C 
ATOM     58  CG2 VAL C 464      21.760  11.832   7.594  0.99 20.75 LIG 0.01  C 
ENDBRANCH 43 56
ENDBRANCH 41 43
ENDBRANCH 34 39
ENDBRANCH 32 34
ENDBRANCH 1 30
BRANCH 1 59
ATOM     59  CB  SER C 462      20.503   3.652   8.606  1.00 26.51 LIG 0.20  C 
BRANCH 59 60
ATOM     60 OG   SER C 462      20.894   3.084   9.837  0.75 30.44 LIG-0.40  OA
ATOM     61 HG   SER C 462      21.713   3.218   9.961  0.75 30.44 LIG 0.21  HD
ENDBRANCH 59 60
ENDBRANCH 1 59
TORSDOF 23
ENDMDL
MODEL 5
USER: ADFR SOLUTION from run 130
USER: SCORE 20.804732 LL:  -4.881 LR: -17.754 RR:   0.000 FEB: -10.893
USER: RMSD 4.956504
USER: SEED 129
USER: STATUS no improvement in best in 1 clusters for 5 generations
USER: GENES 25
USER: genes 0 Translation |==|  0.72900 0.26482 0.64105
USER: genes 1 Rotation |==|  0.60200 0.73501 0.45224 0.92671
USER: genes 2 Torsion [C]-CA--N-[C] |==|  0.58228
USER: genes 3 Torsion [N]-C--CA-[N] |==|  0.99811
USER: genes 4 Torsion [C]-CA--N-[C] |==|  0.79004
USER: genes 5 Torsion [N]-C--CA-[CB] |==|  0.23917
USER: genes 6 Torsion [N]-C--CA-[N] |==|  0.43639
USER: genes 7 Torsion [C]-CA--CB-[CG] |==|  0.79510
USER: genes 8 Torsion [CA]-CB--CG-[OD1] |==|  0.19255
USER: genes 9 Torsion [C]-CA--CB-[CG2] |==|  0.89017
USER: genes 10 Torsion [CA]-CB--CG1-[CD1] |==|  0.25937
USER: genes 11 Torsion [N]-CA--C-[N] |==|  0.12228
USER: genes 12 Torsion [C]-N--CA-[CB] |==|  0.23023
USER: genes 13 Torsion [N]-CA--CB-[CG] |==|  0.27927
USER: genes 14 Torsion [CA]-CB--CG-[OD1] |==|  0.83375
USER: genes 15 Torsion [N]-CA--C-[N] |==|  0.39660
USER: genes 16 Torsion [C]-N--CA-[C] |==|  0.64991
USER: genes 17 Torsion [N]-CA--C-[N] |==|  0.36276
USER: genes 18 Torsion [C]-N--CA-[CB] |==|  0.44107
USER: genes 19 Torsion [N]-CA--CB-[CG] |==|  0.85262
USER: genes 20 Torsion [CA]-CB--CG-[OD2] |==|  0.81695
USER: genes 21 Torsion [N]-CA--C-[O] |==|  0.05697
USER: genes 22 Torsion [N]-CA--CB-[CG1] |==|  0.72777
USER: genes 23 Torsion [N]-CA--CB-[OG] |==|  0.81229
USER: genes 24 Torsion [CA]-CB--OG-[HG] |==|  0.01274
ROOT
ATOM      1  CA  SER C 462      20.689   4.834   8.423  1.00 28.28 LIG 0.20  C 
ENDROOT
BRANCH 1 2
ATOM      2  N   SER C 462      19.423   4.845   9.154  1.00 22.18 LIG-0.34  N 
ATOM      3 H    SER C 462      18.719   4.935   8.667  1.00 22.18 LIG 0.16  HD
ATOM      4  C   ILE C 461      19.419   4.725  10.448  0.90 26.05 LIG 0.24  C 
ATOM      5 O    ILE C 461      20.423   4.635  11.075  1.00 25.33 LIG-0.27  OA
BRANCH 4 6
ATOM      6  CA  ILE C 461      18.069   4.737  11.143  1.00 25.76 LIG 0.18  C 
BRANCH 6 7
ATOM      7  N   ILE C 461      16.957   4.900  10.240  1.00 27.84 LIG-0.35  N 
ATOM      8 H    ILE C 461      16.499   4.191  10.076  1.00 27.84 LIG 0.16  HD
ATOM      9  C   PRO C 460      16.727   6.092   9.743  0.79 31.68 LIG 0.24  C 
ATOM     10 O    PRO C 460      17.487   7.031   9.936  0.87 32.12 LIG-0.27  OA
BRANCH 9 11
ATOM     11  CA  PRO C 460      15.461   6.311   8.888  1.00 30.82 LIG 0.18  C 
ATOM     12  N   PRO C 460      15.030   5.067   8.225  0.83 28.79 LIG-0.34  N 
ATOM     13  C   ASN C 459      15.673   4.570   7.167  1.00 34.90 LIG 0.26  C 
ATOM     14  CD  PRO C 460      13.888   4.462   8.931  0.88 33.76 LIG 0.13  C 
ATOM     15 O    ASN C 459      16.566   5.138   6.636  1.00 32.66 LIG-0.27  OA
ATOM     16  CG  PRO C 460      13.690   5.368  10.127  0.52 26.84 LIG 0.02  C 
ATOM     17  CB  PRO C 460      14.300   6.636   9.819  0.87 26.32 LIG 0.04  C 
BRANCH 13 18
ATOM     18  CA  ASN C 459      15.248   3.201   6.601  1.00 33.71 LIG 0.41  C 
ATOM     19  N   ASN C 459      15.635   3.051   5.217  1.00 33.83 LIG 0.61  N 
BRANCH 18 20
ATOM     20  CB  ASN C 459      15.920   2.119   7.405  1.00 30.86 LIG 0.15  C 
BRANCH 20 21
ATOM     21  CG  ASN C 459      17.390   1.992   7.102  1.00 37.39 LIG 0.22  C 
ATOM     22 OD1  ASN C 459      18.186   2.865   7.435  1.00 38.33 LIG-0.27  OA
ATOM     23  ND2 ASN C 459      17.754   0.916   6.454  1.00 33.08 LIG-0.37  N 
ATOM     24 21HD ASN C 459      18.580   0.798   6.246  1.00 33.08 LIG 0.16  HD
ATOM     25 22HD ASN C 459      17.168   0.325   6.237  1.00 33.08 LIG 0.16  HD
ENDBRANCH 20 21
ENDBRANCH 18 20
ENDBRANCH 13 18
ENDBRANCH 9 11
ENDBRANCH 6 7
BRANCH 6 26
ATOM     26  CB  ILE C 461      17.906   3.555  12.063  1.00 26.47 LIG 0.01  C 
ATOM     27  CG2 ILE C 461      18.488   2.302  11.454  1.00 25.39 LIG 0.01  C 
BRANCH 26 28
ATOM     28  CG1 ILE C 461      18.535   3.895  13.423  1.00 25.72 LIG 0.00  C 
ATOM     29  CD1 ILE C 461      17.638   4.404  14.315  1.00 23.87 LIG 0.01  C 
ENDBRANCH 26 28
ENDBRANCH 6 26
ENDBRANCH 4 6
ENDBRANCH 1 2
BRANCH 1 30
ATOM     30  C   SER C 462      20.578   5.664   7.162  1.00 25.50 LIG 0.24  C 
ATOM     31 O    SER C 462      21.000   5.255   6.076  0.83 24.32 LIG-0.27  OA
ATOM     32  N   ASP C 463      19.970   6.805   7.342  1.00 22.92 LIG-0.34  N 
ATOM     33 H    ASP C 463      19.693   7.063   8.114  1.00 22.92 LIG 0.16  HD
BRANCH 32 34
ATOM     34  CA  ASP C 463      19.698   7.736   6.315  1.00 22.73 LIG 0.19  C 
BRANCH 34 35
ATOM     35  CB  ASP C 463      18.427   7.369   5.560  1.00 28.12 LIG 0.15  C 
BRANCH 35 36
ATOM     36  CG  ASP C 463      17.215   8.188   5.995  1.00 33.32 LIG 0.17  C 
ATOM     37 OD1  ASP C 463      16.883   8.107   7.170  1.00 34.35 LIG-0.65  OA
ATOM     38 OD2  ASP C 463      16.606   8.844   5.172  1.00 29.24 LIG-0.65  OA
ENDBRANCH 35 36
ENDBRANCH 34 35
BRANCH 34 39
ATOM     39  C   ASP C 463      19.570   9.099   6.968  0.93 22.51 LIG 0.24  C 
ATOM     40 O    ASP C 463      19.074   9.269   8.032  0.95 19.76 LIG-0.27  OA
ATOM     41  N   VAL C 464      20.072  10.058   6.243  1.00 24.79 LIG-0.35  N 
ATOM     42 H    VAL C 464      20.414   9.929   5.464  1.00 24.79 LIG 0.16  HD
BRANCH 41 43
ATOM     43  CA  VAL C 464      20.107  11.422   6.662  1.00 23.67 LIG 0.18  C 
BRANCH 43 44
ATOM     44  C   VAL C 464      19.453  12.343   5.608  0.83 28.47 LIG 0.24  C 
ATOM     45  N   ASP C 465      18.558  13.201   6.043  1.00 23.35 LIG-0.34  N 
ATOM     46 H    ASP C 465      18.328  13.252   6.869  1.00 23.35 LIG 0.16  HD
ATOM     47 O    VAL C 464      19.701  12.214   4.445  0.85 31.06 LIG-0.27  OA
BRANCH 45 48
ATOM     48  CA  ASP C 465      17.866  14.138   5.203  0.96 24.34 LIG 0.20  C 
BRANCH 48 49
ATOM     49  CB  ASP C 465      16.573  14.615   5.842  1.00 26.52 LIG 0.15  C 
BRANCH 49 50
ATOM     50  CG  ASP C 465      15.655  13.477   6.281  1.00 29.54 LIG 0.17  C 
ATOM     51 OD2  ASP C 465      15.142  12.732   5.457  1.00 27.46 LIG-0.65  OA
ATOM     52 OD1  ASP C 465      15.507  13.317   7.453  1.00 31.86 LIG-0.65  OA
ENDBRANCH 49 50
ENDBRANCH 48 49
BRANCH 48 53
ATOM     53  C   ASP C 465      18.735  15.369   4.928  0.80 27.02 LIG 0.20  C 
ATOM     54 O    ASP C 465      19.931  15.248   5.086  0.89 29.01 LIG-0.65  OA
ATOM     55 OXT  ASP C 465      18.296  16.324   4.302  1.00 25.29 LIG-0.65  OA
ENDBRANCH 48 53
ENDBRANCH 45 48
ENDBRANCH 43 44
BRANCH 43 56
ATOM     56  CB  VAL C 464      21.596  11.590   6.921  1.00 20.27 LIG 0.01  C 
ATOM     57  CG1 VAL C 464      22.056  11.464   8.312  1.00 23.93 LIG 0.01  C 
ATOM     58  CG2 VAL C 464      22.432  11.319   5.793  0.99 20.75 LIG 0.01  C 
ENDBRANCH 43 56
ENDBRANCH 41 43
ENDBRANCH 34 39
ENDBRANCH 32 34
ENDBRANCH 1 30
BRANCH 1 59
ATOM     59  CB  SER C 462      21.136   3.416   8.091  1.00 26.51 LIG 0.20  C 
BRANCH 59 60
ATOM     60 OG   SER C 462      21.476   2.730   9.276  0.75 30.44 LIG-0.40  OA
ATOM     61 HG   SER C 462      21.306   3.216   9.941  0.75 30.44 LIG 0.21  HD
ENDBRANCH 59 60
ENDBRANCH 1 59
TORSDOF 23
ENDMDL
