MODEL 1
USER: ADFR SOLUTION from run 68
USER: SCORE 24.607465 LL:  -5.184 LR: -22.126 RR:   0.000 FEB: -14.371
USER: RMSD 3.280614
USER: SEED 67
USER: STATUS 1 or 2 clusters left
USER: GENES 28
USER: genes 0 Translation |==|  0.42980 0.63482 0.65482
USER: genes 1 Rotation |==|  0.53619 0.47359 0.51703 0.99770
USER: genes 2 Torsion [N]-CA--C-[N] |==|  0.21763
USER: genes 3 Torsion [C]-N--CA-[CB] |==|  0.22927
USER: genes 4 Torsion [N]-CA--CB-[CG] |==|  0.26864
USER: genes 5 Torsion [CA]-CB--CG-[CD] |==|  0.66329
USER: genes 6 Torsion [CB]-CG--CD-[OE2] |==|  0.39180
USER: genes 7 Torsion [N]-CA--C-[N] |==|  0.41140
USER: genes 8 Torsion [C]-N--CA-[CB] |==|  0.43075
USER: genes 9 Torsion [N]-CA--C-[N] |==|  0.40130
USER: genes 10 Torsion [C]-N--CA-[C] |==|  0.70726
USER: genes 11 Torsion [N]-CA--C-[OXT] |==|  0.49195
USER: genes 12 Torsion [N]-CA--CB-[CG] |==|  0.85059
USER: genes 13 Torsion [CA]-CB--CG-[OD1] |==|  0.27870
USER: genes 14 Torsion [N]-CA--CB-[CG2] |==|  0.14240
USER: genes 15 Torsion [C]-CA--CB-[CG] |==|  0.82864
USER: genes 16 Torsion [CA]-CB--CG-[CD] |==|  0.39439
USER: genes 17 Torsion [CB]-CG--CD-[OE1] |==|  0.71326
USER: genes 18 Torsion [C]-CA--N-[C] |==|  0.74068
USER: genes 19 Torsion [N]-C--CA-[N] |==|  0.88889
USER: genes 20 Torsion [C]-CA--N-[C] |==|  0.77374
USER: genes 21 Torsion [N]-C--CA-[N] |==|  0.90136
USER: genes 22 Torsion [C]-CA--CB-[OG1] |==|  0.64030
USER: genes 23 Torsion [CA]-CB--OG1-[HG1] |==|  0.06723
USER: genes 24 Torsion [C]-CA--N-[C] |==|  0.81700
USER: genes 25 Torsion [N]-C--CA-[N] |==|  0.88531
USER: genes 26 Torsion [C]-CA--CB-[CG1] |==|  0.75108
USER: genes 27 Torsion [CA]-CB--CG1-[CD1] |==|  0.22501
ROOT
ATOM      1  CA  GLU C 638     -18.051  -5.773  10.752  1.00 17.54 LIG 0.18  C 
ENDROOT
BRANCH 1 2
ATOM      2  C   GLU C 638     -18.785  -6.180   9.479  0.98 18.52 LIG 0.24  C 
ATOM      3  N   GLU C 639     -18.494  -7.390   9.024  0.99 18.65 LIG-0.35  N 
ATOM      4 H    GLU C 639     -17.892  -7.898   9.370  0.99 18.65 LIG 0.16  HD
ATOM      5 O    GLU C 638     -19.584  -5.422   8.921  0.88 20.91 LIG-0.27  OA
BRANCH 3 6
ATOM      6  CA  GLU C 639     -19.177  -7.969   7.884  0.92 18.88 LIG 0.18  C 
BRANCH 6 7
ATOM      7  CB  GLU C 639     -18.574  -7.480   6.565  1.00 24.27 LIG 0.04  C 
BRANCH 7 8
ATOM      8  CG  GLU C 639     -17.550  -8.437   5.957  0.67 25.94 LIG 0.12  C 
BRANCH 8 9
ATOM      9  CD  GLU C 639     -16.175  -7.811   5.765  0.35 26.37 LIG 0.17  C 
ATOM     10 OE2  GLU C 639     -15.160  -8.498   5.996  0.36 27.92 LIG-0.65  OA
ATOM     11 OE1  GLU C 639     -16.102  -6.626   5.377  0.59 30.05 LIG-0.65  OA
ENDBRANCH 8 9
ENDBRANCH 7 8
ENDBRANCH 6 7
BRANCH 6 12
ATOM     12  C   GLU C 639     -19.104  -9.478   7.976  0.91 17.75 LIG 0.24  C 
ATOM     13  N   VAL C 640     -20.135 -10.138   7.475  1.00 17.26 LIG-0.35  N 
ATOM     14 H    VAL C 640     -20.815  -9.763   7.105  1.00 17.26 LIG 0.16  HD
ATOM     15 O    GLU C 639     -18.148 -10.030   8.512  0.96 15.43 LIG-0.27  OA
BRANCH 13 16
ATOM     16  CA  VAL C 640     -20.192 -11.588   7.513  0.98 17.07 LIG 0.18  C 
BRANCH 16 17
ATOM     17  C   VAL C 640     -19.414 -12.207   6.356  0.84 18.29 LIG 0.24  C 
ATOM     18 O    VAL C 640     -19.395 -11.672   5.247  0.87 20.22 LIG-0.27  OA
ATOM     19  N   ASP C 641     -18.781 -13.343   6.629  0.93 16.51 LIG-0.34  N 
ATOM     20 H    ASP C 641     -18.808 -13.723   7.401  0.93 16.51 LIG 0.16  HD
BRANCH 19 21
ATOM     21  CA  ASP C 641     -17.977 -14.065   5.650  0.98 21.00 LIG 0.20  C 
BRANCH 21 22
ATOM     22  C   ASP C 641     -18.684 -15.316   5.137  0.73 18.91 LIG 0.20  C 
ATOM     23 OXT  ASP C 641     -18.191 -16.036   4.261  0.98 17.70 LIG-0.65  OA
ATOM     24 O    ASP C 641     -19.789 -15.627   5.581  0.91 21.96 LIG-0.65  OA
ENDBRANCH 21 22
BRANCH 21 25
ATOM     25  CB  ASP C 641     -16.646 -14.477   6.274  0.96 19.58 LIG 0.15  C 
BRANCH 25 26
ATOM     26  CG  ASP C 641     -15.906 -13.310   6.883  0.90 21.89 LIG 0.17  C 
ATOM     27 OD1  ASP C 641     -15.968 -13.151   8.120  0.85 27.90 LIG-0.65  OA
ATOM     28 OD2  ASP C 641     -15.258 -12.562   6.123  0.93 20.35 LIG-0.65  OA
ENDBRANCH 25 26
ENDBRANCH 21 25
ENDBRANCH 19 21
ENDBRANCH 16 17
BRANCH 16 29
ATOM     29  CB  VAL C 640     -21.650 -12.077   7.467  1.00 16.33 LIG 0.01  C 
ATOM     30  CG2 VAL C 640     -22.379 -11.428   6.304  1.00 16.91 LIG 0.01  C 
ATOM     31  CG1 VAL C 640     -22.355 -11.774   8.777  1.00 16.01 LIG 0.01  C 
ENDBRANCH 16 29
ENDBRANCH 13 16
ENDBRANCH 6 12
ENDBRANCH 3 6
ENDBRANCH 1 2
BRANCH 1 32
ATOM     32  CB  GLU C 638     -18.805  -4.682  11.515  1.00 21.71 LIG 0.04  C 
BRANCH 32 33
ATOM     33  CG  GLU C 638     -18.949  -3.399  10.697  1.00 22.46 LIG 0.12  C 
BRANCH 33 34
ATOM     34  CD  GLU C 638     -20.287  -2.715  10.885  0.75 28.07 LIG 0.17  C 
ATOM     35 OE1  GLU C 638     -21.150  -2.826   9.989  0.87 31.25 LIG-0.65  OA
ATOM     36 OE2  GLU C 638     -20.476  -2.070  11.938  0.82 29.94 LIG-0.65  OA
ENDBRANCH 33 34
ENDBRANCH 32 33
ENDBRANCH 1 32
BRANCH 1 37
ATOM     37  N   GLU C 638     -16.679  -5.358  10.471  1.00 17.26 LIG-0.35  N 
ATOM     38  C   ILE C 637     -15.664  -6.215  10.542  0.84 18.48 LIG 0.24  C 
ATOM     39 O    ILE C 637     -15.820  -7.410  10.808  0.97 17.51 LIG-0.27  OA
ATOM     40 H    GLU C 638     -16.594  -4.528  10.262  1.00 17.26 LIG 0.16  HD
BRANCH 38 41
ATOM     41  CA  ILE C 637     -14.267  -5.655  10.247  1.00 18.14 LIG 0.18  C 
BRANCH 41 42
ATOM     42  N   ILE C 637     -14.302  -4.711   9.139  0.98 19.60 LIG-0.35  N 
ATOM     43 H    ILE C 637     -14.323  -3.884   9.375  0.98 19.60 LIG 0.16  HD
ATOM     44  C   THR C 636     -14.299  -5.125   7.877  0.88 23.50 LIG 0.24  C 
ATOM     45 O    THR C 636     -14.212  -6.316   7.563  0.88 24.24 LIG-0.27  OA
BRANCH 44 46
ATOM     46  CA  THR C 636     -14.403  -4.038   6.813  0.86 24.41 LIG 0.20  C 
BRANCH 46 47
ATOM     47  CB  THR C 636     -12.993  -3.532   6.428  1.00 21.14 LIG 0.15  C 
ATOM     48  CG2 THR C 636     -12.621  -3.978   5.021  0.94 24.86 LIG 0.04  C 
BRANCH 47 49
ATOM     49 OG1  THR C 636     -12.953  -2.100   6.493  0.91 21.02 LIG-0.39  OA
ATOM     50 HG1  THR C 636     -13.547  -1.826   7.019  0.91 21.02 LIG 0.21  HD
ENDBRANCH 47 49
ENDBRANCH 46 47
BRANCH 46 51
ATOM     51  N   THR C 636     -15.269  -2.959   7.274  1.00 28.35 LIG-0.34  N 
ATOM     52 H    THR C 636     -14.871  -2.207   7.397  1.00 28.35 LIG 0.16  HD
ATOM     53  C   PRO C 635     -16.567  -3.161   7.478  0.97 29.67 LIG 0.25  C 
ATOM     54 O    PRO C 635     -17.132  -4.223   7.215  0.74 30.58 LIG-0.27  OA
BRANCH 53 55
ATOM     55  CA  PRO C 635     -17.365  -1.994   8.049  0.83 29.80 LIG 0.35  C 
ATOM     56  N   PRO C 635     -16.628  -1.291   9.104  0.99 34.94 LIG 0.32  N 
ATOM     57  CD  PRO C 635     -15.985  -0.058   8.616  1.00 36.87 LIG 0.32  C 
ATOM     58  CG  PRO C 635     -16.415   0.023   7.181  0.65 32.23 LIG 0.04  C 
ATOM     59  CB  PRO C 635     -17.554  -0.916   6.983  0.86 32.79 LIG 0.05  C 
ENDBRANCH 53 55
ENDBRANCH 46 51
ENDBRANCH 44 46
ENDBRANCH 41 42
BRANCH 41 60
ATOM     60  CB  ILE C 637     -13.665  -5.002  11.517  0.96 16.96 LIG 0.01  C 
ATOM     61  CG2 ILE C 637     -12.159  -5.225  11.581  1.00 17.73 LIG 0.01  C 
BRANCH 60 62
ATOM     62  CG1 ILE C 637     -14.048  -3.515  11.593  0.90 16.94 LIG 0.00  C 
ATOM     63  CD1 ILE C 637     -15.435  -3.269  12.139  1.00 16.64 LIG 0.01  C 
ENDBRANCH 60 62
ENDBRANCH 41 60
ENDBRANCH 38 41
ENDBRANCH 1 37
TORSDOF 26
ENDMDL
MODEL 2
USER: ADFR SOLUTION from run 68
USER: SCORE 23.538450 LL:  -5.762 LR: -20.568 RR:   0.000 FEB: -12.812
USER: RMSD 2.344419
USER: SEED 67
USER: STATUS 1 or 2 clusters left
USER: GENES 28
USER: genes 0 Translation |==|  0.42968 0.63494 0.65491
USER: genes 1 Rotation |==|  0.53904 0.46999 0.52329 0.99702
USER: genes 2 Torsion [N]-CA--C-[N] |==|  0.22403
USER: genes 3 Torsion [C]-N--CA-[CB] |==|  0.22817
USER: genes 4 Torsion [N]-CA--CB-[CG] |==|  0.27412
USER: genes 5 Torsion [CA]-CB--CG-[CD] |==|  0.65370
USER: genes 6 Torsion [CB]-CG--CD-[OE2] |==|  0.39249
USER: genes 7 Torsion [N]-CA--C-[N] |==|  0.41128
USER: genes 8 Torsion [C]-N--CA-[CB] |==|  0.42859
USER: genes 9 Torsion [N]-CA--C-[N] |==|  0.40191
USER: genes 10 Torsion [C]-N--CA-[C] |==|  0.70769
USER: genes 11 Torsion [N]-CA--C-[OXT] |==|  0.49232
USER: genes 12 Torsion [N]-CA--CB-[CG] |==|  0.84685
USER: genes 13 Torsion [CA]-CB--CG-[OD1] |==|  0.31573
USER: genes 14 Torsion [N]-CA--CB-[CG2] |==|  0.13925
USER: genes 15 Torsion [C]-CA--CB-[CG] |==|  0.82192
USER: genes 16 Torsion [CA]-CB--CG-[CD] |==|  0.39680
USER: genes 17 Torsion [CB]-CG--CD-[OE1] |==|  0.72681
USER: genes 18 Torsion [C]-CA--N-[C] |==|  0.72869
USER: genes 19 Torsion [N]-C--CA-[N] |==|  0.88017
USER: genes 20 Torsion [C]-CA--N-[C] |==|  0.81597
USER: genes 21 Torsion [N]-C--CA-[N] |==|  0.41067
USER: genes 22 Torsion [C]-CA--CB-[OG1] |==|  0.64223
USER: genes 23 Torsion [CA]-CB--OG1-[HG1] |==|  0.20195
USER: genes 24 Torsion [C]-CA--N-[C] |==|  0.68608
USER: genes 25 Torsion [N]-C--CA-[N] |==|  0.79683
USER: genes 26 Torsion [C]-CA--CB-[CG1] |==|  0.77674
USER: genes 27 Torsion [CA]-CB--CG1-[CD1] |==|  0.26747
ROOT
ATOM      1  CA  GLU C 638     -18.054  -5.770  10.754  1.00 17.54 LIG 0.18  C 
ENDROOT
BRANCH 1 2
ATOM      2  C   GLU C 638     -18.757  -6.181   9.465  0.98 18.52 LIG 0.24  C 
ATOM      3  N   GLU C 639     -18.465  -7.397   9.028  0.99 18.65 LIG-0.35  N 
ATOM      4 H    GLU C 639     -17.877  -7.908   9.394  0.99 18.65 LIG 0.16  HD
ATOM      5 O    GLU C 638     -19.533  -5.421   8.880  0.88 20.91 LIG-0.27  OA
BRANCH 3 6
ATOM      6  CA  GLU C 639     -19.123  -7.980   7.874  0.92 18.88 LIG 0.18  C 
BRANCH 6 7
ATOM      7  CB  GLU C 639     -18.486  -7.499   6.568  1.00 24.27 LIG 0.04  C 
BRANCH 7 8
ATOM      8  CG  GLU C 639     -17.487  -8.485   5.964  0.67 25.94 LIG 0.12  C 
BRANCH 8 9
ATOM      9  CD  GLU C 639     -16.111  -7.878   5.719  0.35 26.37 LIG 0.17  C 
ATOM     10 OE2  GLU C 639     -15.097  -8.569   5.941  0.36 27.92 LIG-0.65  OA
ATOM     11 OE1  GLU C 639     -16.038  -6.705   5.296  0.59 30.05 LIG-0.65  OA
ENDBRANCH 8 9
ENDBRANCH 7 8
ENDBRANCH 6 7
BRANCH 6 12
ATOM     12  C   GLU C 639     -19.057  -9.489   7.976  0.91 17.75 LIG 0.24  C 
ATOM     13  N   VAL C 640     -20.079 -10.147   7.454  1.00 17.26 LIG-0.35  N 
ATOM     14 H    VAL C 640     -20.749  -9.772   7.067  1.00 17.26 LIG 0.16  HD
ATOM     15 O    GLU C 639     -18.117 -10.041   8.536  0.96 15.43 LIG-0.27  OA
BRANCH 13 16
ATOM     16  CA  VAL C 640     -20.142 -11.597   7.499  0.98 17.07 LIG 0.18  C 
BRANCH 16 17
ATOM     17  C   VAL C 640     -19.356 -12.225   6.351  0.84 18.29 LIG 0.24  C 
ATOM     18 O    VAL C 640     -19.321 -11.693   5.241  0.87 20.22 LIG-0.27  OA
ATOM     19  N   ASP C 641     -18.735 -13.364   6.635  0.93 16.51 LIG-0.34  N 
ATOM     20 H    ASP C 641     -18.773 -13.741   7.407  0.93 16.51 LIG 0.16  HD
BRANCH 19 21
ATOM     21  CA  ASP C 641     -17.924 -14.094   5.666  0.98 21.00 LIG 0.20  C 
BRANCH 21 22
ATOM     22  C   ASP C 641     -18.636 -15.339   5.146  0.73 18.91 LIG 0.20  C 
ATOM     23 OXT  ASP C 641     -18.137 -16.067   4.279  0.98 17.70 LIG-0.65  OA
ATOM     24 O    ASP C 641     -19.751 -15.639   5.575  0.91 21.96 LIG-0.65  OA
ENDBRANCH 21 22
BRANCH 21 25
ATOM     25  CB  ASP C 641     -16.605 -14.518   6.307  0.96 19.58 LIG 0.15  C 
BRANCH 25 26
ATOM     26  CG  ASP C 641     -15.847 -13.351   6.896  0.90 21.89 LIG 0.17  C 
ATOM     27 OD1  ASP C 641     -15.701 -13.306   8.135  0.85 27.90 LIG-0.65  OA
ATOM     28 OD2  ASP C 641     -15.393 -12.489   6.116  0.93 20.35 LIG-0.65  OA
ENDBRANCH 25 26
ENDBRANCH 21 25
ENDBRANCH 19 21
ENDBRANCH 16 17
BRANCH 16 29
ATOM     29  CB  VAL C 640     -21.602 -12.080   7.440  1.00 16.33 LIG 0.01  C 
ATOM     30  CG2 VAL C 640     -22.325 -11.412   6.285  1.00 16.91 LIG 0.01  C 
ATOM     31  CG1 VAL C 640     -22.311 -11.793   8.752  1.00 16.01 LIG 0.01  C 
ENDBRANCH 16 29
ENDBRANCH 13 16
ENDBRANCH 6 12
ENDBRANCH 3 6
ENDBRANCH 1 2
BRANCH 1 32
ATOM     32  CB  GLU C 638     -18.846  -4.706  11.516  1.00 21.71 LIG 0.04  C 
BRANCH 32 33
ATOM     33  CG  GLU C 638     -18.958  -3.398  10.733  1.00 22.46 LIG 0.12  C 
BRANCH 33 34
ATOM     34  CD  GLU C 638     -20.299  -2.714  10.899  0.75 28.07 LIG 0.17  C 
ATOM     35 OE1  GLU C 638     -21.166  -2.870  10.013  0.87 31.25 LIG-0.65  OA
ATOM     36 OE2  GLU C 638     -20.485  -2.024  11.923  0.82 29.94 LIG-0.65  OA
ENDBRANCH 33 34
ENDBRANCH 32 33
ENDBRANCH 1 32
BRANCH 1 37
ATOM     37  N   GLU C 638     -16.687  -5.319  10.500  1.00 17.26 LIG-0.35  N 
ATOM     38  C   ILE C 637     -15.645  -6.130  10.659  0.84 18.48 LIG 0.24  C 
ATOM     39 O    ILE C 637     -15.767  -7.312  10.992  0.97 17.51 LIG-0.27  OA
ATOM     40 H    GLU C 638     -16.625  -4.500  10.243  1.00 17.26 LIG 0.16  HD
BRANCH 38 41
ATOM     41  CA  ILE C 637     -14.260  -5.533  10.383  1.00 18.14 LIG 0.18  C 
BRANCH 41 42
ATOM     42  N   ILE C 637     -14.269  -4.717   9.177  0.98 19.60 LIG-0.35  N 
ATOM     43 H    ILE C 637     -14.135  -3.878   9.312  0.98 19.60 LIG 0.16  HD
ATOM     44  C   THR C 636     -14.470  -5.255   7.980  0.88 23.50 LIG 0.24  C 
ATOM     45 O    THR C 636     -14.604  -6.470   7.805  0.88 24.24 LIG-0.27  OA
BRANCH 44 46
ATOM     46  CA  THR C 636     -14.519  -4.282   6.806  0.86 24.41 LIG 0.20  C 
BRANCH 46 47
ATOM     47  CB  THR C 636     -15.961  -3.758   6.609  1.00 21.14 LIG 0.15  C 
ATOM     48  CG2 THR C 636     -16.060  -2.285   6.983  0.94 24.86 LIG 0.04  C 
BRANCH 47 49
ATOM     49 OG1  THR C 636     -16.358  -3.922   5.241  0.91 21.02 LIG-0.39  OA
ATOM     50 HG1  THR C 636     -16.498  -4.736   5.085  0.91 21.02 LIG 0.21  HD
ENDBRANCH 47 49
ENDBRANCH 46 47
BRANCH 46 51
ATOM     51  N   THR C 636     -13.994  -4.915   5.602  1.00 28.35 LIG-0.34  N 
ATOM     52 H    THR C 636     -14.472  -5.561   5.298  1.00 28.35 LIG 0.16  HD
ATOM     53  C   PRO C 635     -12.859  -4.498   5.048  0.97 29.67 LIG 0.25  C 
ATOM     54 O    PRO C 635     -12.235  -3.517   5.450  0.74 30.58 LIG-0.27  OA
BRANCH 53 55
ATOM     55  CA  PRO C 635     -12.349  -5.286   3.846  0.83 29.80 LIG 0.35  C 
ATOM     56  N   PRO C 635     -11.801  -6.589   4.239  0.99 34.94 LIG 0.32  N 
ATOM     57  CD  PRO C 635     -12.753  -7.691   4.018  1.00 36.87 LIG 0.32  C 
ATOM     58  CG  PRO C 635     -13.937  -7.017   3.390  0.65 32.23 LIG 0.04  C 
ATOM     59  CB  PRO C 635     -13.514  -5.664   2.932  0.86 32.79 LIG 0.05  C 
ENDBRANCH 53 55
ENDBRANCH 46 51
ENDBRANCH 44 46
ENDBRANCH 41 42
BRANCH 41 60
ATOM     60  CB  ILE C 637     -13.767  -4.717  11.604  0.96 16.96 LIG 0.01  C 
ATOM     61  CG2 ILE C 637     -12.244  -4.666  11.646  1.00 17.73 LIG 0.01  C 
BRANCH 60 62
ATOM     62  CG1 ILE C 637     -14.407  -3.319  11.614  0.90 16.94 LIG 0.00  C 
ATOM     63  CD1 ILE C 637     -15.633  -3.215  12.492  1.00 16.64 LIG 0.01  C 
ENDBRANCH 60 62
ENDBRANCH 41 60
ENDBRANCH 38 41
ENDBRANCH 1 37
TORSDOF 26
ENDMDL
MODEL 3
USER: ADFR SOLUTION from run 58
USER: SCORE 22.781171 LL:  -5.332 LR: -20.466 RR:   0.000 FEB: -12.710
USER: RMSD 3.816446
USER: SEED 57
USER: STATUS 1 or 2 clusters left
USER: GENES 28
USER: genes 0 Translation |==|  0.38414 0.63432 0.61009
USER: genes 1 Rotation |==|  0.43332 0.28698 0.58204 0.93982
USER: genes 2 Torsion [N]-CA--C-[N] |==|  0.58534
USER: genes 3 Torsion [C]-N--CA-[CB] |==|  0.85940
USER: genes 4 Torsion [N]-CA--CB-[CG] |==|  0.44541
USER: genes 5 Torsion [CA]-CB--CG-[CD] |==|  0.63929
USER: genes 6 Torsion [CB]-CG--CD-[OE2] |==|  0.32951
USER: genes 7 Torsion [N]-CA--C-[N] |==|  0.29444
USER: genes 8 Torsion [C]-N--CA-[CB] |==|  0.43967
USER: genes 9 Torsion [N]-CA--C-[N] |==|  0.43865
USER: genes 10 Torsion [C]-N--CA-[C] |==|  0.69415
USER: genes 11 Torsion [N]-CA--C-[OXT] |==|  0.95574
USER: genes 12 Torsion [N]-CA--CB-[CG] |==|  0.87641
USER: genes 13 Torsion [CA]-CB--CG-[OD1] |==|  0.72056
USER: genes 14 Torsion [N]-CA--CB-[CG2] |==|  0.10191
USER: genes 15 Torsion [C]-CA--CB-[CG] |==|  0.65752
USER: genes 16 Torsion [CA]-CB--CG-[CD] |==|  0.62702
USER: genes 17 Torsion [CB]-CG--CD-[OE1] |==|  0.85112
USER: genes 18 Torsion [C]-CA--N-[C] |==|  0.59868
USER: genes 19 Torsion [N]-C--CA-[N] |==|  0.91246
USER: genes 20 Torsion [C]-CA--N-[C] |==|  0.85523
USER: genes 21 Torsion [N]-C--CA-[N] |==|  0.83238
USER: genes 22 Torsion [C]-CA--CB-[OG1] |==|  0.64891
USER: genes 23 Torsion [CA]-CB--OG1-[HG1] |==|  0.17148
USER: genes 24 Torsion [C]-CA--N-[C] |==|  0.75236
USER: genes 25 Torsion [N]-C--CA-[N] |==|  0.84374
USER: genes 26 Torsion [C]-CA--CB-[CG1] |==|  0.69413
USER: genes 27 Torsion [CA]-CB--CG1-[CD1] |==|  0.23214
ROOT
ATOM      1  CA  GLU C 638     -18.907  -5.784   9.846  1.00 17.54 LIG 0.18  C 
ENDROOT
BRANCH 1 2
ATOM      2  C   GLU C 638     -18.448  -6.728   8.740  0.98 18.52 LIG 0.24  C 
ATOM      3  N   GLU C 639     -19.335  -6.943   7.780  0.99 18.65 LIG-0.35  N 
ATOM      4 H    GLU C 639     -20.138  -6.634   7.793  0.99 18.65 LIG 0.16  HD
ATOM      5 O    GLU C 638     -17.331  -7.252   8.758  0.88 20.91 LIG-0.27  OA
BRANCH 3 6
ATOM      6  CA  GLU C 639     -19.022  -7.734   6.605  0.92 18.88 LIG 0.18  C 
BRANCH 6 7
ATOM      7  CB  GLU C 639     -17.722  -7.263   5.948  1.00 24.27 LIG 0.04  C 
BRANCH 7 8
ATOM      8  CG  GLU C 639     -17.081  -8.300   5.025  0.67 25.94 LIG 0.12  C 
BRANCH 8 9
ATOM      9  CD  GLU C 639     -15.602  -8.530   5.308  0.35 26.37 LIG 0.17  C 
ATOM     10 OE2  GLU C 639     -15.222  -9.665   5.655  0.36 27.92 LIG-0.65  OA
ATOM     11 OE1  GLU C 639     -14.810  -7.573   5.178  0.59 30.05 LIG-0.65  OA
ENDBRANCH 8 9
ENDBRANCH 7 8
ENDBRANCH 6 7
BRANCH 6 12
ATOM     12  C   GLU C 639     -18.922  -9.191   7.001  0.91 17.75 LIG 0.24  C 
ATOM     13  N   VAL C 640     -19.934  -9.960   6.632  1.00 17.26 LIG-0.35  N 
ATOM     14 H    VAL C 640     -20.615  -9.681   6.187  1.00 17.26 LIG 0.16  HD
ATOM     15 O    GLU C 639     -17.965  -9.604   7.647  0.96 15.43 LIG-0.27  OA
BRANCH 13 16
ATOM     16  CA  VAL C 640     -19.965 -11.373   6.962  0.98 17.07 LIG 0.18  C 
BRANCH 16 17
ATOM     17  C   VAL C 640     -19.096 -12.187   6.008  0.84 18.29 LIG 0.24  C 
ATOM     18 O    VAL C 640     -18.811 -11.760   4.889  0.87 20.22 LIG-0.27  OA
ATOM     19  N   ASP C 641     -18.688 -13.367   6.465  0.93 16.51 LIG-0.34  N 
ATOM     20 H    ASP C 641     -18.901 -13.670   7.241  0.93 16.51 LIG 0.16  HD
BRANCH 19 21
ATOM     21  CA  ASP C 641     -17.838 -14.269   5.697  0.98 21.00 LIG 0.20  C 
BRANCH 21 22
ATOM     22  C   ASP C 641     -18.590 -15.517   5.242  0.73 18.91 LIG 0.20  C 
ATOM     23 OXT  ASP C 641     -19.672 -15.849   5.740  0.98 17.70 LIG-0.65  OA
ATOM     24 O    ASP C 641     -18.115 -16.240   4.367  0.91 21.96 LIG-0.65  OA
ENDBRANCH 21 22
BRANCH 21 25
ATOM     25  CB  ASP C 641     -16.642 -14.701   6.542  0.96 19.58 LIG 0.15  C 
BRANCH 25 26
ATOM     26  CG  ASP C 641     -16.014 -13.547   7.286  0.90 21.89 LIG 0.17  C 
ATOM     27 OD1  ASP C 641     -14.973 -13.039   6.819  0.85 27.90 LIG-0.65  OA
ATOM     28 OD2  ASP C 641     -16.568 -13.146   8.330  0.93 20.35 LIG-0.65  OA
ENDBRANCH 25 26
ENDBRANCH 21 25
ENDBRANCH 19 21
ENDBRANCH 16 17
BRANCH 16 29
ATOM     29  CB  VAL C 640     -21.407 -11.910   6.921  1.00 16.33 LIG 0.01  C 
ATOM     30  CG2 VAL C 640     -22.177 -11.246   5.794  1.00 16.91 LIG 0.01  C 
ATOM     31  CG1 VAL C 640     -22.100 -11.677   8.252  1.00 16.01 LIG 0.01  C 
ENDBRANCH 16 29
ENDBRANCH 13 16
ENDBRANCH 6 12
ENDBRANCH 3 6
ENDBRANCH 1 2
BRANCH 1 32
ATOM     32  CB  GLU C 638     -20.001  -4.831   9.360  1.00 21.71 LIG 0.04  C 
BRANCH 32 33
ATOM     33  CG  GLU C 638     -19.619  -3.365   9.556  1.00 22.46 LIG 0.12  C 
BRANCH 33 34
ATOM     34  CD  GLU C 638     -20.732  -2.530  10.153  0.75 28.07 LIG 0.17  C 
ATOM     35 OE1  GLU C 638     -21.852  -2.538   9.600  0.87 31.25 LIG-0.65  OA
ATOM     36 OE2  GLU C 638     -20.484  -1.869  11.184  0.82 29.94 LIG-0.65  OA
ENDBRANCH 33 34
ENDBRANCH 32 33
ENDBRANCH 1 32
BRANCH 1 37
ATOM     37  N   GLU C 638     -17.786  -5.041  10.418  1.00 17.26 LIG-0.35  N 
ATOM     38  C   ILE C 637     -17.740  -4.736  11.712  0.84 18.48 LIG 0.24  C 
ATOM     39 O    ILE C 637     -18.613  -5.089  12.510  0.97 17.51 LIG-0.27  OA
ATOM     40 H    GLU C 638     -17.176  -4.827   9.852  1.00 17.26 LIG 0.16  HD
BRANCH 38 41
ATOM     41  CA  ILE C 637     -16.523  -3.933  12.187  1.00 18.14 LIG 0.18  C 
BRANCH 41 42
ATOM     42  N   ILE C 637     -15.341  -4.256  11.401  0.98 19.60 LIG-0.35  N 
ATOM     43 H    ILE C 637     -14.934  -3.573  11.070  0.98 19.60 LIG 0.16  HD
ATOM     44  C   THR C 636     -14.947  -5.512  11.227  0.88 23.50 LIG 0.24  C 
ATOM     45 O    THR C 636     -15.515  -6.472  11.757  0.88 24.24 LIG-0.27  OA
BRANCH 44 46
ATOM     46  CA  THR C 636     -13.731  -5.717  10.329  0.86 24.41 LIG 0.20  C 
BRANCH 46 47
ATOM     47  CB  THR C 636     -12.483  -5.060  10.965  1.00 21.14 LIG 0.15  C 
ATOM     48  CG2 THR C 636     -11.467  -6.114  11.381  0.94 24.86 LIG 0.04  C 
BRANCH 47 49
ATOM     49 OG1  THR C 636     -11.872  -4.164  10.026  0.91 21.02 LIG-0.39  OA
ATOM     50 HG1  THR C 636     -12.412  -3.552   9.829  0.91 21.02 LIG 0.21  HD
ENDBRANCH 47 49
ENDBRANCH 46 47
BRANCH 46 51
ATOM     51  N   THR C 636     -14.000  -5.209   8.989  1.00 28.35 LIG-0.34  N 
ATOM     52 H    THR C 636     -13.783  -4.387   8.866  1.00 28.35 LIG 0.16  HD
ATOM     53  C   PRO C 635     -14.541  -5.987   8.057  0.97 29.67 LIG 0.25  C 
ATOM     54 O    PRO C 635     -14.766  -7.185   8.228  0.74 30.58 LIG-0.27  OA
BRANCH 53 55
ATOM     55  CA  PRO C 635     -14.867  -5.334   6.718  0.83 29.80 LIG 0.35  C 
ATOM     56  N   PRO C 635     -15.754  -4.176   6.876  0.99 34.94 LIG 0.32  N 
ATOM     57  CD  PRO C 635     -15.024  -2.897   6.838  1.00 36.87 LIG 0.32  C 
ATOM     58  CG  PRO C 635     -13.604  -3.307   6.577  0.65 32.23 LIG 0.04  C 
ATOM     59  CB  PRO C 635     -13.605  -4.722   6.111  0.86 32.79 LIG 0.05  C 
ENDBRANCH 53 55
ENDBRANCH 46 51
ENDBRANCH 44 46
ENDBRANCH 41 42
BRANCH 41 60
ATOM     60  CB  ILE C 637     -16.824  -2.414  12.145  0.96 16.96 LIG 0.01  C 
ATOM     61  CG2 ILE C 637     -16.594  -1.776  13.510  1.00 17.73 LIG 0.01  C 
BRANCH 60 62
ATOM     62  CG1 ILE C 637     -16.014  -1.735  11.029  0.90 16.94 LIG 0.00  C 
ATOM     63  CD1 ILE C 637     -16.656  -1.828   9.664  1.00 16.64 LIG 0.01  C 
ENDBRANCH 60 62
ENDBRANCH 41 60
ENDBRANCH 38 41
ENDBRANCH 1 37
TORSDOF 26
ENDMDL
MODEL 4
USER: ADFR SOLUTION from run 113
USER: SCORE 22.406746 LL:  -4.097 LR: -20.464 RR:   0.000 FEB: -12.708
USER: RMSD 1.637845
USER: SEED 112
USER: STATUS 1 or 2 clusters left
USER: GENES 28
USER: genes 0 Translation |==|  0.46366 0.62635 0.59729
USER: genes 1 Rotation |==|  0.43304 0.41401 0.54230 0.98614
USER: genes 2 Torsion [N]-CA--C-[N] |==|  0.54612
USER: genes 3 Torsion [C]-N--CA-[CB] |==|  0.85980
USER: genes 4 Torsion [N]-CA--CB-[CG] |==|  0.58988
USER: genes 5 Torsion [CA]-CB--CG-[CD] |==|  0.05537
USER: genes 6 Torsion [CB]-CG--CD-[OE2] |==|  0.19597
USER: genes 7 Torsion [N]-CA--C-[N] |==|  0.36969
USER: genes 8 Torsion [C]-N--CA-[CB] |==|  0.44493
USER: genes 9 Torsion [N]-CA--C-[N] |==|  0.40241
USER: genes 10 Torsion [C]-N--CA-[C] |==|  0.73889
USER: genes 11 Torsion [N]-CA--C-[OXT] |==|  0.48802
USER: genes 12 Torsion [N]-CA--CB-[CG] |==|  0.86622
USER: genes 13 Torsion [CA]-CB--CG-[OD1] |==|  0.20165
USER: genes 14 Torsion [N]-CA--CB-[CG2] |==|  0.13848
USER: genes 15 Torsion [C]-CA--CB-[CG] |==|  0.25471
USER: genes 16 Torsion [CA]-CB--CG-[CD] |==|  0.43423
USER: genes 17 Torsion [CB]-CG--CD-[OE1] |==|  0.22928
USER: genes 18 Torsion [C]-CA--N-[C] |==|  0.79206
USER: genes 19 Torsion [N]-C--CA-[N] |==|  0.93197
USER: genes 20 Torsion [C]-CA--N-[C] |==|  0.82751
USER: genes 21 Torsion [N]-C--CA-[N] |==|  0.37835
USER: genes 22 Torsion [C]-CA--CB-[OG1] |==|  0.22117
USER: genes 23 Torsion [CA]-CB--OG1-[HG1] |==|  0.04688
USER: genes 24 Torsion [C]-CA--N-[C] |==|  0.56180
USER: genes 25 Torsion [N]-C--CA-[N] |==|  0.33647
USER: genes 26 Torsion [C]-CA--CB-[CG1] |==|  0.19312
USER: genes 27 Torsion [CA]-CB--CG1-[CD1] |==|  0.21333
ROOT
ATOM      1  CA  GLU C 638     -17.416  -5.963   9.587  1.00 17.54 LIG 0.18  C 
ENDROOT
BRANCH 1 2
ATOM      2  C   GLU C 638     -17.782  -6.910   8.448  0.98 18.52 LIG 0.24  C 
ATOM      3  N   GLU C 639     -19.081  -7.071   8.246  0.99 18.65 LIG-0.35  N 
ATOM      4 H    GLU C 639     -19.689  -6.727   8.748  0.99 18.65 LIG 0.16  HD
ATOM      5 O    GLU C 638     -16.917  -7.482   7.779  0.88 20.91 LIG-0.27  OA
BRANCH 3 6
ATOM      6  CA  GLU C 639     -19.596  -7.857   7.141  0.92 18.88 LIG 0.18  C 
BRANCH 6 7
ATOM      7  CB  GLU C 639     -18.960  -7.436   5.814  1.00 24.27 LIG 0.04  C 
BRANCH 7 8
ATOM      8  CG  GLU C 639     -19.887  -7.576   4.608  0.67 25.94 LIG 0.12  C 
BRANCH 8 9
ATOM      9  CD  GLU C 639     -21.363  -7.634   4.983  0.35 26.37 LIG 0.17  C 
ATOM     10 OE2  GLU C 639     -21.920  -6.603   5.409  0.36 27.92 LIG-0.65  OA
ATOM     11 OE1  GLU C 639     -21.975  -8.714   4.847  0.59 30.05 LIG-0.65  OA
ENDBRANCH 8 9
ENDBRANCH 7 8
ENDBRANCH 6 7
BRANCH 6 12
ATOM     12  C   GLU C 639     -19.340  -9.323   7.414  0.91 17.75 LIG 0.24  C 
ATOM     13  N   VAL C 640     -20.365 -10.135   7.213  1.00 17.26 LIG-0.35  N 
ATOM     14 H    VAL C 640     -21.138  -9.878   6.936  1.00 17.26 LIG 0.16  HD
ATOM     15 O    GLU C 639     -18.249  -9.706   7.822  0.96 15.43 LIG-0.27  OA
BRANCH 13 16
ATOM     16  CA  VAL C 640     -20.253 -11.563   7.451  0.98 17.07 LIG 0.18  C 
BRANCH 16 17
ATOM     17  C   VAL C 640     -19.519 -12.262   6.310  0.84 18.29 LIG 0.24  C 
ATOM     18 O    VAL C 640     -19.658 -11.889   5.144  0.87 20.22 LIG-0.27  OA
ATOM     19  N   ASP C 641     -18.746 -13.283   6.663  0.93 16.51 LIG-0.34  N 
ATOM     20 H    ASP C 641     -18.662 -13.551   7.475  0.93 16.51 LIG 0.16  HD
BRANCH 19 21
ATOM     21  CA  ASP C 641     -17.959 -14.055   5.708  0.98 21.00 LIG 0.20  C 
BRANCH 21 22
ATOM     22  C   ASP C 641     -18.701 -15.299   5.227  0.73 18.91 LIG 0.20  C 
ATOM     23 OXT  ASP C 641     -18.237 -16.044   4.356  0.98 17.70 LIG-0.65  OA
ATOM     24 O    ASP C 641     -19.805 -15.579   5.693  0.91 21.96 LIG-0.65  OA
ENDBRANCH 21 22
BRANCH 21 25
ATOM     25  CB  ASP C 641     -16.643 -14.489   6.350  0.96 19.58 LIG 0.15  C 
BRANCH 25 26
ATOM     26  CG  ASP C 641     -15.937 -13.351   7.048  0.90 21.89 LIG 0.17  C 
ATOM     27 OD1  ASP C 641     -16.413 -12.930   8.123  0.85 27.90 LIG-0.65  OA
ATOM     28 OD2  ASP C 641     -14.904 -12.888   6.523  0.93 20.35 LIG-0.65  OA
ENDBRANCH 25 26
ENDBRANCH 21 25
ENDBRANCH 19 21
ENDBRANCH 16 17
BRANCH 16 29
ATOM     29  CB  VAL C 640     -21.644 -12.197   7.626  1.00 16.33 LIG 0.01  C 
ATOM     30  CG2 VAL C 640     -22.556 -11.770   6.491  1.00 16.91 LIG 0.01  C 
ATOM     31  CG1 VAL C 640     -22.241 -11.807   8.967  1.00 16.01 LIG 0.01  C 
ENDBRANCH 16 29
ENDBRANCH 13 16
ENDBRANCH 6 12
ENDBRANCH 3 6
ENDBRANCH 1 2
BRANCH 1 32
ATOM     32  CB  GLU C 638     -18.355  -4.756   9.643  1.00 21.71 LIG 0.04  C 
BRANCH 32 33
ATOM     33  CG  GLU C 638     -19.550  -4.997  10.565  1.00 22.46 LIG 0.12  C 
BRANCH 33 34
ATOM     34  CD  GLU C 638     -20.166  -3.718  11.093  0.75 28.07 LIG 0.17  C 
ATOM     35 OE1  GLU C 638     -20.981  -3.102  10.374  0.87 31.25 LIG-0.65  OA
ATOM     36 OE2  GLU C 638     -19.837  -3.334  12.236  0.82 29.94 LIG-0.65  OA
ENDBRANCH 33 34
ENDBRANCH 32 33
ENDBRANCH 1 32
BRANCH 1 37
ATOM     37  N   GLU C 638     -16.022  -5.535   9.503  1.00 17.26 LIG-0.35  N 
ATOM     38  C   ILE C 637     -15.022  -6.348   9.832  0.84 18.48 LIG 0.24  C 
ATOM     39 O    ILE C 637     -15.205  -7.515  10.190  0.97 17.51 LIG-0.27  OA
ATOM     40 H    GLU C 638     -15.914  -4.727   9.227  1.00 17.26 LIG 0.16  HD
BRANCH 38 41
ATOM     41  CA  ILE C 637     -13.604  -5.775   9.724  1.00 18.14 LIG 0.18  C 
BRANCH 41 42
ATOM     42  N   ILE C 637     -13.551  -4.678   8.767  0.98 19.60 LIG-0.35  N 
ATOM     43 H    ILE C 637     -13.323  -3.920   9.105  0.98 19.60 LIG 0.16  HD
ATOM     44  C   THR C 636     -13.838  -4.865   7.484  0.88 23.50 LIG 0.24  C 
ATOM     45 O    THR C 636     -14.110  -5.973   7.013  0.88 24.24 LIG-0.27  OA
BRANCH 44 46
ATOM     46  CA  THR C 636     -13.808  -3.622   6.601  0.86 24.41 LIG 0.20  C 
BRANCH 46 47
ATOM     47  CB  THR C 636     -15.243  -3.089   6.382  1.00 21.14 LIG 0.15  C 
ATOM     48  CG2 THR C 636     -16.219  -4.234   6.151  0.94 24.86 LIG 0.04  C 
BRANCH 47 49
ATOM     49 OG1  THR C 636     -15.665  -2.337   7.529  0.91 21.02 LIG-0.39  OA
ATOM     50 HG1  THR C 636     -14.995  -2.133   7.992  0.91 21.02 LIG 0.21  HD
ENDBRANCH 47 49
ENDBRANCH 46 47
BRANCH 46 51
ATOM     51  N   THR C 636     -13.129  -3.911   5.344  1.00 28.35 LIG-0.34  N 
ATOM     52 H    THR C 636     -13.110  -4.744   5.129  1.00 28.35 LIG 0.16  HD
ATOM     53  C   PRO C 635     -12.593  -2.938   4.613  0.97 29.67 LIG 0.25  C 
ATOM     54 O    PRO C 635     -12.706  -1.745   4.896  0.74 30.58 LIG-0.27  OA
BRANCH 53 55
ATOM     55  CA  PRO C 635     -11.826  -3.356   3.364  0.83 29.80 LIG 0.35  C 
ATOM     56  N   PRO C 635     -12.393  -2.760   2.149  0.99 34.94 LIG 0.32  N 
ATOM     57  CD  PRO C 635     -11.639  -1.577   1.697  1.00 36.87 LIG 0.32  C 
ATOM     58  CG  PRO C 635     -10.501  -1.489   2.671  0.65 32.23 LIG 0.04  C 
ATOM     59  CB  PRO C 635     -10.410  -2.784   3.401  0.86 32.79 LIG 0.05  C 
ENDBRANCH 53 55
ENDBRANCH 46 51
ENDBRANCH 44 46
ENDBRANCH 41 42
BRANCH 41 60
ATOM     60  CB  ILE C 637     -13.091  -5.326  11.115  0.96 16.96 LIG 0.01  C 
ATOM     61  CG2 ILE C 637     -14.045  -4.319  11.748  1.00 17.73 LIG 0.01  C 
BRANCH 60 62
ATOM     62  CG1 ILE C 637     -12.834  -6.545  12.015  0.90 16.94 LIG 0.00  C 
ATOM     63  CD1 ILE C 637     -11.556  -7.284  11.692  1.00 16.64 LIG 0.01  C 
ENDBRANCH 60 62
ENDBRANCH 41 60
ENDBRANCH 38 41
ENDBRANCH 1 37
TORSDOF 26
ENDMDL
MODEL 5
USER: ADFR SOLUTION from run 49
USER: SCORE 22.459834 LL:  -4.472 LR: -20.372 RR:   0.000 FEB: -12.616
USER: RMSD 3.980536
USER: SEED 48
USER: STATUS 1 or 2 clusters left
USER: GENES 28
USER: genes 0 Translation |==|  0.40836 0.63565 0.65048
USER: genes 1 Rotation |==|  0.45984 0.33926 0.60021 0.96098
USER: genes 2 Torsion [N]-CA--C-[N] |==|  0.58323
USER: genes 3 Torsion [C]-N--CA-[CB] |==|  0.87621
USER: genes 4 Torsion [N]-CA--CB-[CG] |==|  0.36440
USER: genes 5 Torsion [CA]-CB--CG-[CD] |==|  0.37775
USER: genes 6 Torsion [CB]-CG--CD-[OE2] |==|  0.32572
USER: genes 7 Torsion [N]-CA--C-[N] |==|  0.33388
USER: genes 8 Torsion [C]-N--CA-[CB] |==|  0.45319
USER: genes 9 Torsion [N]-CA--C-[N] |==|  0.39940
USER: genes 10 Torsion [C]-N--CA-[C] |==|  0.21453
USER: genes 11 Torsion [N]-CA--C-[OXT] |==|  0.27218
USER: genes 12 Torsion [N]-CA--CB-[CG] |==|  0.75927
USER: genes 13 Torsion [CA]-CB--CG-[OD1] |==|  0.18399
USER: genes 14 Torsion [N]-CA--CB-[CG2] |==|  0.10791
USER: genes 15 Torsion [C]-CA--CB-[CG] |==|  0.69533
USER: genes 16 Torsion [CA]-CB--CG-[CD] |==|  0.54817
USER: genes 17 Torsion [CB]-CG--CD-[OE1] |==|  0.30751
USER: genes 18 Torsion [C]-CA--N-[C] |==|  0.57325
USER: genes 19 Torsion [N]-C--CA-[N] |==|  0.91300
USER: genes 20 Torsion [C]-CA--N-[C] |==|  0.83580
USER: genes 21 Torsion [N]-C--CA-[N] |==|  0.92223
USER: genes 22 Torsion [C]-CA--CB-[OG1] |==|  0.25629
USER: genes 23 Torsion [CA]-CB--OG1-[HG1] |==|  0.22516
USER: genes 24 Torsion [C]-CA--N-[C] |==|  0.74061
USER: genes 25 Torsion [N]-C--CA-[N] |==|  0.14268
USER: genes 26 Torsion [C]-CA--CB-[CG1] |==|  0.79687
USER: genes 27 Torsion [CA]-CB--CG1-[CD1] |==|  0.53657
ROOT
ATOM      1  CA  GLU C 638     -18.453  -5.754  10.664  1.00 17.54 LIG 0.18  C 
ENDROOT
BRANCH 1 2
ATOM      2  C   GLU C 638     -18.223  -6.629   9.436  0.98 18.52 LIG 0.24  C 
ATOM      3  N   GLU C 639     -19.307  -6.890   8.721  0.99 18.65 LIG-0.35  N 
ATOM      4 H    GLU C 639     -20.100  -6.648   8.949  0.99 18.65 LIG 0.16  HD
ATOM      5 O    GLU C 638     -17.103  -7.060   9.149  0.88 20.91 LIG-0.27  OA
BRANCH 3 6
ATOM      6  CA  GLU C 639     -19.246  -7.621   7.470  0.92 18.88 LIG 0.18  C 
BRANCH 6 7
ATOM      7  CB  GLU C 639     -18.095  -7.126   6.591  1.00 24.27 LIG 0.04  C 
BRANCH 7 8
ATOM      8  CG  GLU C 639     -17.215  -8.243   6.032  0.67 25.94 LIG 0.12  C 
BRANCH 8 9
ATOM      9  CD  GLU C 639     -16.868  -8.062   4.560  0.35 26.37 LIG 0.17  C 
ATOM     10 OE2  GLU C 639     -15.674  -7.913   4.233  0.36 27.92 LIG-0.65  OA
ATOM     11 OE1  GLU C 639     -17.792  -8.072   3.719  0.59 30.05 LIG-0.65  OA
ENDBRANCH 8 9
ENDBRANCH 7 8
ENDBRANCH 6 7
BRANCH 6 12
ATOM     12  C   GLU C 639     -19.093  -9.098   7.766  0.91 17.75 LIG 0.24  C 
ATOM     13  N   VAL C 640     -20.053  -9.882   7.303  1.00 17.26 LIG-0.35  N 
ATOM     14 H    VAL C 640     -20.729  -9.602   6.851  1.00 17.26 LIG 0.16  HD
ATOM     15 O    GLU C 639     -18.143  -9.514   8.421  0.96 15.43 LIG-0.27  OA
BRANCH 13 16
ATOM     16  CA  VAL C 640     -20.031 -11.315   7.531  0.98 17.07 LIG 0.18  C 
BRANCH 16 17
ATOM     17  C   VAL C 640     -19.001 -12.005   6.641  0.84 18.29 LIG 0.24  C 
ATOM     18 O    VAL C 640     -18.800 -11.621   5.488  0.87 20.22 LIG-0.27  OA
ATOM     19  N   ASP C 641     -18.360 -13.031   7.191  0.93 16.51 LIG-0.34  N 
ATOM     20 H    ASP C 641     -18.512 -13.307   7.991  0.93 16.51 LIG 0.16  HD
BRANCH 19 21
ATOM     21  CA  ASP C 641     -17.332 -13.796   6.494  0.98 21.00 LIG 0.20  C 
BRANCH 21 22
ATOM     22  C   ASP C 641     -15.999 -13.055   6.448  0.73 18.91 LIG 0.20  C 
ATOM     23 OXT  ASP C 641     -15.088 -13.291   7.251  0.98 17.70 LIG-0.65  OA
ATOM     24 O    ASP C 641     -15.808 -12.178   5.605  0.91 21.96 LIG-0.65  OA
ENDBRANCH 21 22
BRANCH 21 25
ATOM     25  CB  ASP C 641     -17.780 -14.084   5.063  0.96 19.58 LIG 0.15  C 
BRANCH 25 26
ATOM     26  CG  ASP C 641     -18.613 -15.339   4.959  0.90 21.89 LIG 0.17  C 
ATOM     27 OD1  ASP C 641     -19.735 -15.351   5.508  0.85 27.90 LIG-0.65  OA
ATOM     28 OD2  ASP C 641     -18.147 -16.305   4.321  0.93 20.35 LIG-0.65  OA
ENDBRANCH 25 26
ENDBRANCH 21 25
ENDBRANCH 19 21
ENDBRANCH 16 17
BRANCH 16 29
ATOM     29  CB  VAL C 640     -21.419 -11.929   7.275  1.00 16.33 LIG 0.01  C 
ATOM     30  CG2 VAL C 640     -22.067 -11.265   6.074  1.00 16.91 LIG 0.01  C 
ATOM     31  CG1 VAL C 640     -22.298 -11.788   8.504  1.00 16.01 LIG 0.01  C 
ENDBRANCH 16 29
ENDBRANCH 13 16
ENDBRANCH 6 12
ENDBRANCH 3 6
ENDBRANCH 1 2
BRANCH 1 32
ATOM     32  CB  GLU C 638     -19.690  -4.868  10.504  1.00 21.71 LIG 0.04  C 
BRANCH 32 33
ATOM     33  CG  GLU C 638     -19.326  -3.393  10.337  1.00 22.46 LIG 0.12  C 
BRANCH 33 34
ATOM     34  CD  GLU C 638     -20.488  -2.456  10.592  0.75 28.07 LIG 0.17  C 
ATOM     35 OE1  GLU C 638     -20.464  -1.732  11.610  0.87 31.25 LIG-0.65  OA
ATOM     36 OE2  GLU C 638     -21.424  -2.441   9.766  0.82 29.94 LIG-0.65  OA
ENDBRANCH 33 34
ENDBRANCH 32 33
ENDBRANCH 1 32
BRANCH 1 37
ATOM     37  N   GLU C 638     -17.274  -4.951  10.980  1.00 17.26 LIG-0.35  N 
ATOM     38  C   ILE C 637     -17.028  -4.532  12.218  0.84 18.48 LIG 0.24  C 
ATOM     39 O    ILE C 637     -17.751  -4.823  13.175  0.97 17.51 LIG-0.27  OA
ATOM     40 H    GLU C 638     -16.769  -4.781  10.305  1.00 17.26 LIG 0.16  HD
BRANCH 38 41
ATOM     41  CA  ILE C 637     -15.771  -3.676  12.418  1.00 18.14 LIG 0.18  C 
BRANCH 41 42
ATOM     42  N   ILE C 637     -14.725  -4.050  11.477  0.98 19.60 LIG-0.35  N 
ATOM     43 H    ILE C 637     -14.462  -3.412  10.963  0.98 19.60 LIG 0.16  HD
ATOM     44  C   THR C 636     -14.236  -5.284  11.440  0.88 23.50 LIG 0.24  C 
ATOM     45 O    THR C 636     -14.589  -6.169  12.226  0.88 24.24 LIG-0.27  OA
BRANCH 44 46
ATOM     46  CA  THR C 636     -13.190  -5.561  10.365  0.86 24.41 LIG 0.20  C 
BRANCH 46 47
ATOM     47  CB  THR C 636     -11.768  -5.425  10.958  1.00 21.14 LIG 0.15  C 
ATOM     48  CG2 THR C 636     -11.754  -4.439  12.117  0.94 24.86 LIG 0.04  C 
BRANCH 47 49
ATOM     49 OG1  THR C 636     -11.309  -6.702  11.424  0.91 21.02 LIG-0.39  OA
ATOM     50 HG1  THR C 636     -11.018  -7.149  10.775  0.91 21.02 LIG 0.21  HD
ENDBRANCH 47 49
ENDBRANCH 46 47
BRANCH 46 51
ATOM     51  N   THR C 636     -13.397  -4.683   9.220  1.00 28.35 LIG-0.34  N 
ATOM     52 H    THR C 636     -13.012  -3.916   9.282  1.00 28.35 LIG 0.16  HD
ATOM     53  C   PRO C 635     -14.129  -5.071   8.181  0.97 29.67 LIG 0.25  C 
ATOM     54 O    PRO C 635     -14.599  -6.204   8.075  0.74 30.58 LIG-0.27  OA
BRANCH 53 55
ATOM     55  CA  PRO C 635     -14.360  -4.044   7.078  0.83 29.80 LIG 0.35  C 
ATOM     56  N   PRO C 635     -13.103  -3.441   6.620  0.99 34.94 LIG 0.32  N 
ATOM     57  CD  PRO C 635     -12.612  -4.043   5.368  1.00 36.87 LIG 0.32  C 
ATOM     58  CG  PRO C 635     -13.677  -5.038   5.011  0.65 32.23 LIG 0.04  C 
ATOM     59  CB  PRO C 635     -14.889  -4.733   5.821  0.86 32.79 LIG 0.05  C 
ENDBRANCH 53 55
ENDBRANCH 46 51
ENDBRANCH 44 46
ENDBRANCH 41 42
BRANCH 41 60
ATOM     60  CB  ILE C 637     -16.114  -2.170  12.301  0.96 16.96 LIG 0.01  C 
ATOM     61  CG2 ILE C 637     -15.027  -1.314  12.939  1.00 17.73 LIG 0.01  C 
BRANCH 60 62
ATOM     62  CG1 ILE C 637     -16.386  -1.791  10.837  0.90 16.94 LIG 0.00  C 
ATOM     63  CD1 ILE C 637     -16.417  -0.301  10.588  1.00 16.64 LIG 0.01  C 
ENDBRANCH 60 62
ENDBRANCH 41 60
ENDBRANCH 38 41
ENDBRANCH 1 37
TORSDOF 26
ENDMDL
