MODEL 1
USER: ADFR SOLUTION from run 200
USER: SCORE 15.032647 LL:  -0.586 LR: -15.816 RR:   0.000 FEB: -10.148
USER: RMSD 6.468217
USER: SEED 199
USER: STATUS no improvement in best in 6 clusters for 5 generations
USER: GENES 21
USER: genes 0 Translation |==|  0.65550 0.36631 0.62501
USER: genes 1 Rotation |==|  0.49301 0.04128 0.40770 0.67609
USER: genes 2 Torsion [C]-N--CA-[CB] |==|  0.16113
USER: genes 3 Torsion [N]-CA--CB-[CG] |==|  0.17134
USER: genes 4 Torsion [CA]-CB--CG-[CD] |==|  0.75650
USER: genes 5 Torsion [CB]-CG--CD-[CE] |==|  0.71718
USER: genes 6 Torsion [CG]-CD--CE-[NZ] |==|  0.56831
USER: genes 7 Torsion [CD]-CE--NZ-[HZ1] |==|  0.54075
USER: genes 8 Torsion [N]-CA--C-[N] |==|  0.54045
USER: genes 9 Torsion [C]-N--CA-[CB] |==|  0.46309
USER: genes 10 Torsion [N]-CA--CB-[CG] |==|  0.32668
USER: genes 11 Torsion [CA]-CB--CG-[CD2] |==|  0.61029
USER: genes 12 Torsion [N]-CA--C-[O] |==|  0.93107
USER: genes 13 Torsion [N]-C--CA-[N] |==|  0.20347
USER: genes 14 Torsion [C]-CA--N-[C] |==|  0.63540
USER: genes 15 Torsion [N]-C--CA-[N] |==|  0.21632
USER: genes 16 Torsion [C]-CA--CB-[CG] |==|  0.65692
USER: genes 17 Torsion [CA]-CB--CG-[CD] |==|  0.37536
USER: genes 18 Torsion [CB]-CG--CD-[CE] |==|  0.75387
USER: genes 19 Torsion [CG]-CD--CE-[NZ] |==|  0.88448
USER: genes 20 Torsion [CD]-CE--NZ-[HZ2] |==|  0.86629
ROOT
ATOM      1  C   LYS L   5     -21.864 -78.889 -25.527  1.00 61.96 LIG 0.24  C 
ATOM      2 O    LYS L   5     -21.702 -78.868 -24.299  1.00 44.78 LIG-0.27  OA
ATOM      3  N   LYS L   6     -21.625 -77.834 -26.302  1.00 60.12 LIG-0.35  N 
ATOM      4 H    LYS L   6     -21.592 -77.866 -27.161  1.00 60.12 LIG 0.16  HD
ENDROOT
BRANCH 3 5
ATOM      5  CA  LYS L   6     -21.396 -76.509 -25.736  1.00 64.44 LIG 0.18  C 
BRANCH 5 6
ATOM      6  CB  LYS L   6     -20.209 -76.520 -24.773  1.00 71.41 LIG 0.04  C 
BRANCH 6 7
ATOM      7  CG  LYS L   6     -18.887 -76.905 -25.431  1.00 72.05 LIG 0.00  C 
BRANCH 7 8
ATOM      8  CD  LYS L   6     -18.670 -78.410 -25.436  1.00 65.16 LIG 0.03  C 
BRANCH 8 9
ATOM      9  CE  LYS L   6     -17.697 -78.818 -24.340  1.00 70.38 LIG 0.23  C 
BRANCH 9 10
ATOM     10  NZ  LYS L   6     -17.021 -80.107 -24.664  1.00 74.13 LIG-0.08  N 
ATOM     11 HZ2  LYS L   6     -17.623 -80.692 -24.959  1.00 74.13 LIG 0.27  HD
ATOM     12 HZ1  LYS L   6     -16.629 -80.428 -23.933  1.00 74.13 LIG 0.27  HD
ATOM     13 HZ3  LYS L   6     -16.407 -79.969 -25.293  1.00 74.13 LIG 0.27  HD
ENDBRANCH 9 10
ENDBRANCH 8 9
ENDBRANCH 7 8
ENDBRANCH 6 7
ENDBRANCH 5 6
BRANCH 5 14
ATOM     14  C   LYS L   6     -21.134 -75.551 -26.888  1.00 59.21 LIG 0.24  C 
ATOM     15  N   LEU L   7     -20.613 -74.367 -26.586  1.00 55.77 LIG-0.35  N 
ATOM     16 H    LEU L   7     -20.366 -74.136 -25.794  1.00 55.77 LIG 0.16  HD
ATOM     17 O    LYS L   6     -21.414 -75.877 -28.038  1.00 62.62 LIG-0.27  OA
BRANCH 15 18
ATOM     18  CA  LEU L   7     -20.416 -73.341 -27.612  1.00 55.07 LIG 0.16  C 
BRANCH 18 19
ATOM     19  CB  LEU L   7     -20.118 -71.981 -26.970  1.00 49.39 LIG 0.04  C 
BRANCH 19 20
ATOM     20  CG  LEU L   7     -18.749 -71.391 -27.300  1.00 45.34 LIG-0.02  C 
ATOM     21  CD2 LEU L   7     -18.146 -70.726 -26.058  1.00 40.01 LIG 0.01  C 
ATOM     22  CD1 LEU L   7     -18.897 -70.397 -28.435  1.00 33.03 LIG 0.01  C 
ENDBRANCH 19 20
ENDBRANCH 18 19
BRANCH 18 23
ATOM     23  C   LEU L   7     -19.308 -73.707 -28.597  1.00 52.26 LIG 0.22  C 
ATOM     24 O    LEU L   7     -18.409 -74.481 -28.264  1.00 59.22 LIG-0.29  OA
ENDBRANCH 18 23
ENDBRANCH 15 18
ENDBRANCH 5 14
ENDBRANCH 3 5
BRANCH 1 25
ATOM     25  CA  LYS L   5     -22.350 -80.159 -26.242  1.00 63.64 LIG 0.18  C 
BRANCH 25 26
ATOM     26  N   LYS L   5     -21.303 -80.843 -27.002  1.00 68.83 LIG-0.35  N 
ATOM     27  C   ALA L   4     -21.489 -81.231 -28.264  1.00 74.38 LIG 0.26  C 
ATOM     28 O    ALA L   4     -22.508 -80.961 -28.906  1.00 71.28 LIG-0.27  OA
ATOM     29 H    LYS L   5     -20.572 -80.968 -26.565  1.00 68.83 LIG 0.16  HD
BRANCH 27 30
ATOM     30  CA  ALA L   4     -20.359 -82.048 -28.903  1.00 68.81 LIG 0.40  C 
ATOM     31  N   ALA L   4     -20.397 -83.434 -28.446  1.00 73.56 LIG 0.61  N 
ATOM     32  CB  ALA L   4     -20.434 -81.984 -30.435  1.00 57.48 LIG 0.06  C 
ENDBRANCH 27 30
ENDBRANCH 25 26
BRANCH 25 33
ATOM     33  CB  LYS L   5     -22.958 -81.125 -25.221  1.00 69.62 LIG 0.04  C 
BRANCH 33 34
ATOM     34  CG  LYS L   5     -22.327 -82.505 -25.199  1.00 80.66 LIG 0.00  C 
BRANCH 34 35
ATOM     35  CD  LYS L   5     -22.075 -82.966 -23.767  1.00 85.15 LIG 0.03  C 
BRANCH 35 36
ATOM     36  CE  LYS L   5     -20.708 -82.515 -23.271  1.00 90.30 LIG 0.23  C 
BRANCH 36 37
ATOM     37  NZ  LYS L   5     -19.646 -82.668 -24.308  1.00 90.68 LIG-0.08  N 
ATOM     38 HZ3  LYS L   5     -19.760 -82.055 -24.943  1.00 90.68 LIG 0.27  HD
ATOM     39 HZ2  LYS L   5     -19.697 -83.480 -24.668  1.00 90.68 LIG 0.27  HD
ATOM     40 HZ1  LYS L   5     -18.846 -82.560 -23.932  1.00 90.68 LIG 0.27  HD
ENDBRANCH 36 37
ENDBRANCH 35 36
ENDBRANCH 34 35
ENDBRANCH 33 34
ENDBRANCH 25 33
ENDBRANCH 1 25
TORSDOF 19
ENDMDL
MODEL 2
USER: ADFR SOLUTION from run 32
USER: SCORE 15.691606 LL:  -1.377 LR: -15.266 RR:   0.000 FEB:  -9.598
USER: RMSD 6.233406
USER: SEED 31
USER: STATUS no improvement in best in 5 clusters for 5 generations
USER: GENES 21
USER: genes 0 Translation |==|  0.57196 0.44816 0.46855
USER: genes 1 Rotation |==|  0.68473 0.82770 0.50127 0.82938
USER: genes 2 Torsion [C]-N--CA-[CB] |==|  0.50890
USER: genes 3 Torsion [N]-CA--CB-[CG] |==|  0.19228
USER: genes 4 Torsion [CA]-CB--CG-[CD] |==|  0.62366
USER: genes 5 Torsion [CB]-CG--CD-[CE] |==|  0.64439
USER: genes 6 Torsion [CG]-CD--CE-[NZ] |==|  0.67212
USER: genes 7 Torsion [CD]-CE--NZ-[HZ1] |==|  0.69137
USER: genes 8 Torsion [N]-CA--C-[N] |==|  0.45833
USER: genes 9 Torsion [C]-N--CA-[CB] |==|  0.49210
USER: genes 10 Torsion [N]-CA--CB-[CG] |==|  0.33998
USER: genes 11 Torsion [CA]-CB--CG-[CD2] |==|  0.60846
USER: genes 12 Torsion [N]-CA--C-[O] |==|  0.92047
USER: genes 13 Torsion [N]-C--CA-[N] |==|  0.03111
USER: genes 14 Torsion [C]-CA--N-[C] |==|  0.59449
USER: genes 15 Torsion [N]-C--CA-[N] |==|  0.24060
USER: genes 16 Torsion [C]-CA--CB-[CG] |==|  0.89149
USER: genes 17 Torsion [CA]-CB--CG-[CD] |==|  0.29960
USER: genes 18 Torsion [CB]-CG--CD-[CE] |==|  0.47513
USER: genes 19 Torsion [CG]-CD--CE-[NZ] |==|  0.80557
USER: genes 20 Torsion [CD]-CE--NZ-[HZ2] |==|  0.74652
ROOT
ATOM      1  C   LYS L   5     -23.493 -77.109 -27.756  1.00 61.96 LIG 0.24  C 
ATOM      2 O    LYS L   5     -23.992 -76.001 -27.995  1.00 44.78 LIG-0.27  OA
ATOM      3  N   LYS L   6     -22.592 -77.300 -26.796  1.00 60.12 LIG-0.35  N 
ATOM      4 H    LYS L   6     -22.341 -78.075 -26.519  1.00 60.12 LIG 0.16  HD
ENDROOT
BRANCH 3 5
ATOM      5  CA  LYS L   6     -21.946 -76.178 -26.122  1.00 64.44 LIG 0.18  C 
BRANCH 5 6
ATOM      6  CB  LYS L   6     -20.900 -76.667 -25.120  1.00 71.41 LIG 0.04  C 
BRANCH 6 7
ATOM      7  CG  LYS L   6     -19.673 -77.297 -25.771  1.00 72.05 LIG 0.00  C 
BRANCH 7 8
ATOM      8  CD  LYS L   6     -19.258 -78.586 -25.078  1.00 65.16 LIG 0.03  C 
BRANCH 8 9
ATOM      9  CE  LYS L   6     -17.783 -78.550 -24.709  1.00 70.38 LIG 0.23  C 
BRANCH 9 10
ATOM     10  NZ  LYS L   6     -17.021 -79.626 -25.404  1.00 74.13 LIG-0.08  N 
ATOM     11 HZ2  LYS L   6     -17.544 -80.017 -26.010  1.00 74.13 LIG 0.27  HD
ATOM     12 HZ1  LYS L   6     -16.753 -80.232 -24.810  1.00 74.13 LIG 0.27  HD
ATOM     13 HZ3  LYS L   6     -16.311 -79.274 -25.808  1.00 74.13 LIG 0.27  HD
ENDBRANCH 9 10
ENDBRANCH 8 9
ENDBRANCH 7 8
ENDBRANCH 6 7
ENDBRANCH 5 6
BRANCH 5 14
ATOM     14  C   LYS L   6     -21.293 -75.311 -27.188  1.00 59.21 LIG 0.24  C 
ATOM     15  N   LEU L   7     -20.917 -74.089 -26.828  1.00 55.77 LIG-0.35  N 
ATOM     16 H    LEU L   7     -20.968 -73.785 -26.025  1.00 55.77 LIG 0.16  HD
ATOM     17 O    LYS L   6     -21.146 -75.741 -28.328  1.00 62.62 LIG-0.27  OA
BRANCH 15 18
ATOM     18  CA  LEU L   7     -20.370 -73.145 -27.806  1.00 55.07 LIG 0.16  C 
BRANCH 18 19
ATOM     19  CB  LEU L   7     -20.082 -71.790 -27.150  1.00 49.39 LIG 0.04  C 
BRANCH 19 20
ATOM     20  CG  LEU L   7     -18.637 -71.308 -27.259  1.00 45.34 LIG-0.02  C 
ATOM     21  CD2 LEU L   7     -18.204 -70.634 -25.953  1.00 40.01 LIG 0.01  C 
ATOM     22  CD1 LEU L   7     -18.518 -70.356 -28.432  1.00 33.03 LIG 0.01  C 
ENDBRANCH 19 20
ENDBRANCH 18 19
BRANCH 18 23
ATOM     23  C   LEU L   7     -19.110 -73.676 -28.486  1.00 52.26 LIG 0.22  C 
ATOM     24 O    LEU L   7     -18.369 -74.464 -27.897  1.00 59.22 LIG-0.29  OA
ENDBRANCH 18 23
ENDBRANCH 15 18
ENDBRANCH 5 14
ENDBRANCH 3 5
BRANCH 1 25
ATOM     25  CA  LYS L   5     -23.897 -78.352 -28.563  1.00 63.64 LIG 0.18  C 
BRANCH 25 26
ATOM     26  N   LYS L   5     -23.422 -79.609 -27.984  1.00 68.83 LIG-0.35  N 
ATOM     27  C   ALA L   4     -23.063 -80.643 -28.746  1.00 74.38 LIG 0.26  C 
ATOM     28 O    ALA L   4     -23.015 -80.585 -29.978  1.00 71.28 LIG-0.27  OA
ATOM     29 H    LYS L   5     -23.396 -79.616 -27.124  1.00 68.83 LIG 0.16  HD
BRANCH 27 30
ATOM     30  CA  ALA L   4     -22.703 -81.942 -28.013  1.00 68.81 LIG 0.40  C 
ATOM     31  N   ALA L   4     -23.897 -82.745 -27.764  1.00 73.56 LIG 0.61  N 
ATOM     32  CB  ALA L   4     -21.665 -82.750 -28.804  1.00 57.48 LIG 0.06  C 
ENDBRANCH 27 30
ENDBRANCH 25 26
BRANCH 25 33
ATOM     33  CB  LYS L   5     -25.421 -78.399 -28.711  1.00 69.62 LIG 0.04  C 
BRANCH 33 34
ATOM     34  CG  LYS L   5     -26.191 -77.969 -27.476  1.00 80.66 LIG 0.00  C 
BRANCH 34 35
ATOM     35  CD  LYS L   5     -26.841 -76.605 -27.687  1.00 85.15 LIG 0.03  C 
BRANCH 35 36
ATOM     36  CE  LYS L   5     -27.792 -76.260 -26.549  1.00 90.30 LIG 0.23  C 
BRANCH 36 37
ATOM     37  NZ  LYS L   5     -29.021 -77.106 -26.558  1.00 90.68 LIG-0.08  N 
ATOM     38 HZ3  LYS L   5     -28.836 -77.897 -26.920  1.00 90.68 LIG 0.27  HD
ATOM     39 HZ2  LYS L   5     -29.656 -76.703 -27.035  1.00 90.68 LIG 0.27  HD
ATOM     40 HZ1  LYS L   5     -29.308 -77.222 -25.723  1.00 90.68 LIG 0.27  HD
ENDBRANCH 36 37
ENDBRANCH 35 36
ENDBRANCH 34 35
ENDBRANCH 33 34
ENDBRANCH 25 33
ENDBRANCH 1 25
TORSDOF 19
ENDMDL
MODEL 3
USER: ADFR SOLUTION from run 80
USER: SCORE 15.601619 LL:  -1.285 LR: -15.121 RR:   0.000 FEB:  -9.454
USER: RMSD 6.380371
USER: SEED 79
USER: STATUS no improvement in best in 1 clusters for 5 generations
USER: GENES 21
USER: genes 0 Translation |==|  0.57185 0.43904 0.48823
USER: genes 1 Rotation |==|  0.67590 0.81371 0.48643 0.84707
USER: genes 2 Torsion [C]-N--CA-[CB] |==|  0.51947
USER: genes 3 Torsion [N]-CA--CB-[CG] |==|  0.24554
USER: genes 4 Torsion [CA]-CB--CG-[CD] |==|  0.60843
USER: genes 5 Torsion [CB]-CG--CD-[CE] |==|  0.48487
USER: genes 6 Torsion [CG]-CD--CE-[NZ] |==|  0.52889
USER: genes 7 Torsion [CD]-CE--NZ-[HZ1] |==|  0.77186
USER: genes 8 Torsion [N]-CA--C-[N] |==|  0.46005
USER: genes 9 Torsion [C]-N--CA-[CB] |==|  0.46552
USER: genes 10 Torsion [N]-CA--CB-[CG] |==|  0.42195
USER: genes 11 Torsion [CA]-CB--CG-[CD2] |==|  0.72431
USER: genes 12 Torsion [N]-CA--C-[O] |==|  0.92072
USER: genes 13 Torsion [N]-C--CA-[N] |==|  0.99206
USER: genes 14 Torsion [C]-CA--N-[C] |==|  0.61667
USER: genes 15 Torsion [N]-C--CA-[N] |==|  0.68966
USER: genes 16 Torsion [C]-CA--CB-[CG] |==|  0.41958
USER: genes 17 Torsion [CA]-CB--CG-[CD] |==|  0.24026
USER: genes 18 Torsion [CB]-CG--CD-[CE] |==|  0.48654
USER: genes 19 Torsion [CG]-CD--CE-[NZ] |==|  0.97252
USER: genes 20 Torsion [CD]-CE--NZ-[HZ2] |==|  0.83228
ROOT
ATOM      1  C   LYS L   5     -23.495 -77.307 -27.476  1.00 61.96 LIG 0.24  C 
ATOM      2 O    LYS L   5     -23.935 -76.208 -27.841  1.00 44.78 LIG-0.27  OA
ATOM      3  N   LYS L   6     -22.661 -77.442 -26.447  1.00 60.12 LIG-0.35  N 
ATOM      4 H    LYS L   6     -22.458 -78.197 -26.089  1.00 60.12 LIG 0.16  HD
ENDROOT
BRANCH 3 5
ATOM      5  CA  LYS L   6     -22.013 -76.288 -25.835  1.00 64.44 LIG 0.18  C 
BRANCH 5 6
ATOM      6  CB  LYS L   6     -20.980 -76.724 -24.795  1.00 71.41 LIG 0.04  C 
BRANCH 6 7
ATOM      7  CG  LYS L   6     -19.589 -76.965 -25.374  1.00 72.05 LIG 0.00  C 
BRANCH 7 8
ATOM      8  CD  LYS L   6     -18.910 -78.171 -24.743  1.00 65.16 LIG 0.03  C 
BRANCH 8 9
ATOM      9  CE  LYS L   6     -17.586 -78.466 -25.432  1.00 70.38 LIG 0.23  C 
BRANCH 9 10
ATOM     10  NZ  LYS L   6     -17.028 -79.779 -25.000  1.00 74.13 LIG-0.08  N 
ATOM     11 HZ2  LYS L   6     -17.691 -80.365 -24.901  1.00 74.13 LIG 0.27  HD
ATOM     12 HZ1  LYS L   6     -16.602 -79.680 -24.225  1.00 74.13 LIG 0.27  HD
ATOM     13 HZ3  LYS L   6     -16.458 -80.076 -25.615  1.00 74.13 LIG 0.27  HD
ENDBRANCH 9 10
ENDBRANCH 8 9
ENDBRANCH 7 8
ENDBRANCH 6 7
ENDBRANCH 5 6
BRANCH 5 14
ATOM     14  C   LYS L   6     -21.343 -75.490 -26.944  1.00 59.21 LIG 0.24  C 
ATOM     15  N   LEU L   7     -20.949 -74.256 -26.648  1.00 55.77 LIG-0.35  N 
ATOM     16 H    LEU L   7     -20.999 -73.907 -25.863  1.00 55.77 LIG 0.16  HD
ATOM     17 O    LYS L   6     -21.199 -75.982 -28.058  1.00 62.62 LIG-0.27  OA
BRANCH 15 18
ATOM     18  CA  LEU L   7     -20.385 -73.374 -27.673  1.00 55.07 LIG 0.16  C 
BRANCH 18 19
ATOM     19  CB  LEU L   7     -20.299 -71.932 -27.162  1.00 49.39 LIG 0.04  C 
BRANCH 19 20
ATOM     20  CG  LEU L   7     -19.188 -71.087 -27.782  1.00 45.34 LIG-0.02  C 
ATOM     21  CD2 LEU L   7     -17.979 -71.030 -26.842  1.00 40.01 LIG 0.01  C 
ATOM     22  CD1 LEU L   7     -19.723 -69.699 -28.071  1.00 33.03 LIG 0.01  C 
ENDBRANCH 19 20
ENDBRANCH 18 19
BRANCH 18 23
ATOM     23  C   LEU L   7     -19.013 -73.842 -28.152  1.00 52.26 LIG 0.22  C 
ATOM     24 O    LEU L   7     -18.275 -74.480 -27.401  1.00 59.22 LIG-0.29  OA
ENDBRANCH 18 23
ENDBRANCH 15 18
ENDBRANCH 5 14
ENDBRANCH 3 5
BRANCH 1 25
ATOM     25  CA  LYS L   5     -23.899 -78.603 -28.196  1.00 63.64 LIG 0.18  C 
BRANCH 25 26
ATOM     26  N   LYS L   5     -23.240 -79.799 -27.668  1.00 68.83 LIG-0.35  N 
ATOM     27  C   ALA L   4     -22.763 -80.751 -28.470  1.00 74.38 LIG 0.26  C 
ATOM     28 O    ALA L   4     -22.757 -80.651 -29.701  1.00 71.28 LIG-0.27  OA
ATOM     29 H    LYS L   5     -23.192 -79.826 -26.810  1.00 68.83 LIG 0.16  HD
BRANCH 27 30
ATOM     30  CA  ALA L   4     -22.210 -82.008 -27.787  1.00 68.81 LIG 0.40  C 
ATOM     31  N   ALA L   4     -20.763 -82.097 -27.957  1.00 73.56 LIG 0.61  N 
ATOM     32  CB  ALA L   4     -22.580 -82.031 -26.297  1.00 57.48 LIG 0.06  C 
ENDBRANCH 27 30
ENDBRANCH 25 26
BRANCH 25 33
ATOM     33  CB  LYS L   5     -25.419 -78.781 -28.125  1.00 69.62 LIG 0.04  C 
BRANCH 33 34
ATOM     34  CG  LYS L   5     -26.023 -79.547 -29.287  1.00 80.66 LIG 0.00  C 
BRANCH 34 35
ATOM     35  CD  LYS L   5     -25.985 -81.050 -29.027  1.00 85.15 LIG 0.03  C 
BRANCH 35 36
ATOM     36  CE  LYS L   5     -26.694 -81.822 -30.130  1.00 90.30 LIG 0.23  C 
BRANCH 36 37
ATOM     37  NZ  LYS L   5     -27.448 -80.929 -31.058  1.00 90.68 LIG-0.08  N 
ATOM     38 HZ3  LYS L   5     -26.886 -80.353 -31.439  1.00 90.68 LIG 0.27  HD
ATOM     39 HZ2  LYS L   5     -28.067 -80.481 -30.602  1.00 90.68 LIG 0.27  HD
ATOM     40 HZ1  LYS L   5     -27.842 -81.419 -31.689  1.00 90.68 LIG 0.27  HD
ENDBRANCH 36 37
ENDBRANCH 35 36
ENDBRANCH 34 35
ENDBRANCH 33 34
ENDBRANCH 25 33
ENDBRANCH 1 25
TORSDOF 19
ENDMDL
MODEL 4
USER: ADFR SOLUTION from run 66
USER: SCORE 15.771132 LL:  -1.029 LR: -15.027 RR:   0.000 FEB:  -9.359
USER: RMSD 4.874495
USER: SEED 65
USER: STATUS searching
USER: GENES 21
USER: genes 0 Translation |==|  0.54906 0.33405 0.41331
USER: genes 1 Rotation |==|  0.58595 0.03618 0.41776 0.64395
USER: genes 2 Torsion [C]-N--CA-[CB] |==|  0.86667
USER: genes 3 Torsion [N]-CA--CB-[CG] |==|  0.61327
USER: genes 4 Torsion [CA]-CB--CG-[CD] |==|  0.46754
USER: genes 5 Torsion [CB]-CG--CD-[CE] |==|  0.51616
USER: genes 6 Torsion [CG]-CD--CE-[NZ] |==|  0.22439
USER: genes 7 Torsion [CD]-CE--NZ-[HZ1] |==|  0.58214
USER: genes 8 Torsion [N]-CA--C-[N] |==|  0.38006
USER: genes 9 Torsion [C]-N--CA-[CB] |==|  0.46105
USER: genes 10 Torsion [N]-CA--CB-[CG] |==|  0.59723
USER: genes 11 Torsion [CA]-CB--CG-[CD2] |==|  0.55341
USER: genes 12 Torsion [N]-CA--C-[O] |==|  0.94613
USER: genes 13 Torsion [N]-C--CA-[N] |==|  0.33422
USER: genes 14 Torsion [C]-CA--N-[C] |==|  0.71786
USER: genes 15 Torsion [N]-C--CA-[N] |==|  0.90222
USER: genes 16 Torsion [C]-CA--CB-[CG] |==|  0.17488
USER: genes 17 Torsion [CA]-CB--CG-[CD] |==|  0.34782
USER: genes 18 Torsion [CB]-CG--CD-[CE] |==|  0.38659
USER: genes 19 Torsion [CG]-CD--CE-[NZ] |==|  0.27076
USER: genes 20 Torsion [CD]-CE--NZ-[HZ2] |==|  0.55707
ROOT
ATOM      1  C   LYS L   5     -23.939 -79.590 -28.543  1.00 61.96 LIG 0.24  C 
ATOM      2 O    LYS L   5     -24.011 -79.666 -27.309  1.00 44.78 LIG-0.27  OA
ATOM      3  N   LYS L   6     -23.936 -78.430 -29.195  1.00 60.12 LIG-0.35  N 
ATOM      4 H    LYS L   6     -23.744 -78.347 -30.029  1.00 60.12 LIG 0.16  HD
ENDROOT
BRANCH 3 5
ATOM      5  CA  LYS L   6     -24.264 -77.178 -28.522  1.00 64.44 LIG 0.18  C 
BRANCH 5 6
ATOM      6  CB  LYS L   6     -25.546 -77.315 -27.699  1.00 71.41 LIG 0.04  C 
BRANCH 6 7
ATOM      7  CG  LYS L   6     -26.466 -76.102 -27.788  1.00 72.05 LIG 0.00  C 
BRANCH 7 8
ATOM      8  CD  LYS L   6     -27.840 -76.385 -27.199  1.00 65.16 LIG 0.03  C 
BRANCH 8 9
ATOM      9  CE  LYS L   6     -28.778 -75.209 -27.430  1.00 70.38 LIG 0.23  C 
BRANCH 9 10
ATOM     10  NZ  LYS L   6     -29.348 -75.231 -28.807  1.00 74.13 LIG-0.08  N 
ATOM     11 HZ2  LYS L   6     -28.764 -75.606 -29.364  1.00 74.13 LIG 0.27  HD
ATOM     12 HZ1  LYS L   6     -29.517 -74.398 -29.071  1.00 74.13 LIG 0.27  HD
ATOM     13 HZ3  LYS L   6     -30.104 -75.701 -28.808  1.00 74.13 LIG 0.27  HD
ENDBRANCH 9 10
ENDBRANCH 8 9
ENDBRANCH 7 8
ENDBRANCH 6 7
ENDBRANCH 5 6
BRANCH 5 14
ATOM     14  C   LYS L   6     -23.093 -76.813 -27.623  1.00 59.21 LIG 0.24  C 
ATOM     15  N   LEU L   7     -22.706 -75.542 -27.618  1.00 55.77 LIG-0.35  N 
ATOM     16 H    LEU L   7     -23.109 -74.913 -28.044  1.00 55.77 LIG 0.16  HD
ATOM     17 O    LYS L   6     -22.538 -77.677 -26.951  1.00 62.62 LIG-0.27  OA
BRANCH 15 18
ATOM     18  CA  LEU L   7     -21.528 -75.111 -26.861  1.00 55.07 LIG 0.16  C 
BRANCH 18 19
ATOM     19  CB  LEU L   7     -21.094 -73.704 -27.287  1.00 49.39 LIG 0.04  C 
BRANCH 19 20
ATOM     20  CG  LEU L   7     -19.587 -73.457 -27.279  1.00 45.34 LIG-0.02  C 
ATOM     21  CD2 LEU L   7     -19.297 -71.953 -27.245  1.00 40.01 LIG 0.01  C 
ATOM     22  CD1 LEU L   7     -18.971 -74.107 -28.501  1.00 33.03 LIG 0.01  C 
ENDBRANCH 19 20
ENDBRANCH 18 19
BRANCH 18 23
ATOM     23  C   LEU L   7     -21.757 -75.154 -25.352  1.00 52.26 LIG 0.22  C 
ATOM     24 O    LEU L   7     -22.901 -75.170 -24.896  1.00 59.22 LIG-0.29  OA
ENDBRANCH 18 23
ENDBRANCH 15 18
ENDBRANCH 5 14
ENDBRANCH 3 5
BRANCH 1 25
ATOM     25  CA  LYS L   5     -23.841 -80.855 -29.411  1.00 63.64 LIG 0.18  C 
BRANCH 25 26
ATOM     26  N   LYS L   5     -22.673 -81.684 -29.112  1.00 68.83 LIG-0.35  N 
ATOM     27  C   ALA L   4     -21.583 -81.669 -29.880  1.00 74.38 LIG 0.26  C 
ATOM     28 O    ALA L   4     -21.443 -80.895 -30.832  1.00 71.28 LIG-0.27  OA
ATOM     29 H    LYS L   5     -22.756 -82.171 -28.407  1.00 68.83 LIG 0.16  HD
BRANCH 27 30
ATOM     30  CA  ALA L   4     -20.482 -82.676 -29.526  1.00 68.81 LIG 0.40  C 
ATOM     31  N   ALA L   4     -20.398 -82.868 -28.082  1.00 73.56 LIG 0.61  N 
ATOM     32  CB  ALA L   4     -20.717 -84.018 -30.235  1.00 57.48 LIG 0.06  C 
ENDBRANCH 27 30
ENDBRANCH 25 26
BRANCH 25 33
ATOM     33  CB  LYS L   5     -25.116 -81.689 -29.255  1.00 69.62 LIG 0.04  C 
BRANCH 33 34
ATOM     34  CG  LYS L   5     -26.384 -81.004 -29.731  1.00 80.66 LIG 0.00  C 
BRANCH 34 35
ATOM     35  CD  LYS L   5     -27.117 -81.865 -30.755  1.00 85.15 LIG 0.03  C 
BRANCH 35 36
ATOM     36  CE  LYS L   5     -28.622 -81.837 -30.530  1.00 90.30 LIG 0.23  C 
BRANCH 36 37
ATOM     37  NZ  LYS L   5     -29.313 -80.856 -31.419  1.00 90.68 LIG-0.08  N 
ATOM     38 HZ3  LYS L   5     -28.819 -80.119 -31.489  1.00 90.68 LIG 0.27  HD
ATOM     39 HZ2  LYS L   5     -30.106 -80.649 -31.073  1.00 90.68 LIG 0.27  HD
ATOM     40 HZ1  LYS L   5     -29.426 -81.215 -32.226  1.00 90.68 LIG 0.27  HD
ENDBRANCH 36 37
ENDBRANCH 35 36
ENDBRANCH 34 35
ENDBRANCH 33 34
ENDBRANCH 25 33
ENDBRANCH 1 25
TORSDOF 19
ENDMDL
MODEL 5
USER: ADFR SOLUTION from run 46
USER: SCORE 15.879050 LL:  -1.522 LR: -14.997 RR:   0.000 FEB:  -9.329
USER: RMSD 6.885431
USER: SEED 45
USER: STATUS no improvement in best in 4 clusters for 5 generations
USER: GENES 21
USER: genes 0 Translation |==|  0.60817 0.56531 0.54255
USER: genes 1 Rotation |==|  0.81040 0.82985 0.40901 0.69123
USER: genes 2 Torsion [C]-N--CA-[CB] |==|  0.53333
USER: genes 3 Torsion [N]-CA--CB-[CG] |==|  0.65427
USER: genes 4 Torsion [CA]-CB--CG-[CD] |==|  0.55131
USER: genes 5 Torsion [CB]-CG--CD-[CE] |==|  0.68277
USER: genes 6 Torsion [CG]-CD--CE-[NZ] |==|  0.43672
USER: genes 7 Torsion [CD]-CE--NZ-[HZ1] |==|  0.33618
USER: genes 8 Torsion [N]-CA--C-[N] |==|  0.36737
USER: genes 9 Torsion [C]-N--CA-[CB] |==|  0.19300
USER: genes 10 Torsion [N]-CA--CB-[CG] |==|  0.25533
USER: genes 11 Torsion [CA]-CB--CG-[CD2] |==|  0.80846
USER: genes 12 Torsion [N]-CA--C-[O] |==|  0.97220
USER: genes 13 Torsion [N]-C--CA-[N] |==|  0.03012
USER: genes 14 Torsion [C]-CA--N-[C] |==|  0.65637
USER: genes 15 Torsion [N]-C--CA-[N] |==|  0.33046
USER: genes 16 Torsion [C]-CA--CB-[CG] |==|  0.43063
USER: genes 17 Torsion [CA]-CB--CG-[CD] |==|  0.22567
USER: genes 18 Torsion [CB]-CG--CD-[CE] |==|  0.40411
USER: genes 19 Torsion [CG]-CD--CE-[NZ] |==|  0.24756
USER: genes 20 Torsion [CD]-CE--NZ-[HZ2] |==|  0.72468
ROOT
ATOM      1  C   LYS L   5     -22.787 -74.560 -26.702  1.00 61.96 LIG 0.24  C 
ATOM      2 O    LYS L   5     -22.575 -73.359 -26.490  1.00 44.78 LIG-0.27  OA
ATOM      3  N   LYS L   6     -21.896 -75.508 -26.420  1.00 60.12 LIG-0.35  N 
ATOM      4 H    LYS L   6     -22.073 -76.350 -26.423  1.00 60.12 LIG 0.16  HD
ENDROOT
BRANCH 3 5
ATOM      5  CA  LYS L   6     -20.517 -75.180 -26.074  1.00 64.44 LIG 0.18  C 
BRANCH 5 6
ATOM      6  CB  LYS L   6     -19.635 -76.429 -26.086  1.00 71.41 LIG 0.04  C 
BRANCH 6 7
ATOM      7  CG  LYS L   6     -18.893 -76.669 -24.775  1.00 72.05 LIG 0.00  C 
BRANCH 7 8
ATOM      8  CD  LYS L   6     -17.715 -77.616 -24.952  1.00 65.16 LIG 0.03  C 
BRANCH 8 9
ATOM      9  CE  LYS L   6     -17.948 -78.914 -24.193  1.00 70.38 LIG 0.23  C 
BRANCH 9 10
ATOM     10  NZ  LYS L   6     -17.133 -80.027 -24.757  1.00 74.13 LIG-0.08  N 
ATOM     11 HZ2  LYS L   6     -17.673 -80.672 -25.049  1.00 74.13 LIG 0.27  HD
ATOM     12 HZ1  LYS L   6     -16.598 -80.353 -24.125  1.00 74.13 LIG 0.27  HD
ATOM     13 HZ3  LYS L   6     -16.641 -79.723 -25.433  1.00 74.13 LIG 0.27  HD
ENDBRANCH 9 10
ENDBRANCH 8 9
ENDBRANCH 7 8
ENDBRANCH 6 7
ENDBRANCH 5 6
BRANCH 5 14
ATOM     14  C   LYS L   6     -20.014 -74.166 -27.090  1.00 59.21 LIG 0.24  C 
ATOM     15  N   LEU L   7     -19.391 -73.092 -26.616  1.00 55.77 LIG-0.35  N 
ATOM     16 H    LEU L   7     -19.210 -72.966 -25.785  1.00 55.77 LIG 0.16  HD
ATOM     17 O    LYS L   6     -20.200 -74.348 -28.289  1.00 62.62 LIG-0.27  OA
BRANCH 15 18
ATOM     18  CA  LEU L   7     -18.958 -72.012 -27.506  1.00 55.07 LIG 0.16  C 
BRANCH 18 19
ATOM     19  CB  LEU L   7     -20.164 -71.251 -28.064  1.00 49.39 LIG 0.04  C 
BRANCH 19 20
ATOM     20  CG  LEU L   7     -20.599 -70.033 -27.251  1.00 45.34 LIG-0.02  C 
ATOM     21  CD2 LEU L   7     -21.193 -70.477 -25.910  1.00 40.01 LIG 0.01  C 
ATOM     22  CD1 LEU L   7     -21.602 -69.231 -28.056  1.00 33.03 LIG 0.01  C 
ENDBRANCH 19 20
ENDBRANCH 18 19
BRANCH 18 23
ATOM     23  C   LEU L   7     -17.998 -71.043 -26.820  1.00 52.26 LIG 0.22  C 
ATOM     24 O    LEU L   7     -17.814 -71.104 -25.604  1.00 59.22 LIG-0.29  OA
ENDBRANCH 18 23
ENDBRANCH 15 18
ENDBRANCH 5 14
ENDBRANCH 3 5
BRANCH 1 25
ATOM     25  CA  LYS L   5     -24.117 -75.038 -27.305  1.00 63.64 LIG 0.18  C 
BRANCH 25 26
ATOM     26  N   LYS L   5     -24.301 -76.489 -27.248  1.00 68.83 LIG-0.35  N 
ATOM     27  C   ALA L   4     -24.536 -77.212 -28.343  1.00 74.38 LIG 0.26  C 
ATOM     28 O    ALA L   4     -24.521 -76.732 -29.481  1.00 71.28 LIG-0.27  OA
ATOM     29 H    LYS L   5     -24.244 -76.822 -26.457  1.00 68.83 LIG 0.16  HD
BRANCH 27 30
ATOM     30  CA  ALA L   4     -24.835 -78.701 -28.130  1.00 68.81 LIG 0.40  C 
ATOM     31  N   ALA L   4     -26.167 -79.039 -28.623  1.00 73.56 LIG 0.61  N 
ATOM     32  CB  ALA L   4     -23.772 -79.577 -28.807  1.00 57.48 LIG 0.06  C 
ENDBRANCH 27 30
ENDBRANCH 25 26
BRANCH 25 33
ATOM     33  CB  LYS L   5     -25.284 -74.344 -26.597  1.00 69.62 LIG 0.04  C 
BRANCH 33 34
ATOM     34  CG  LYS L   5     -26.554 -74.239 -27.421  1.00 80.66 LIG 0.00  C 
BRANCH 34 35
ATOM     35  CD  LYS L   5     -27.343 -75.545 -27.375  1.00 85.15 LIG 0.03  C 
BRANCH 35 36
ATOM     36  CE  LYS L   5     -28.843 -75.289 -27.404  1.00 90.30 LIG 0.23  C 
BRANCH 36 37
ATOM     37  NZ  LYS L   5     -29.385 -75.231 -28.793  1.00 90.68 LIG-0.08  N 
ATOM     38 HZ3  LYS L   5     -28.825 -75.644 -29.348  1.00 90.68 LIG 0.27  HD
ATOM     39 HZ2  LYS L   5     -29.475 -74.381 -29.042  1.00 90.68 LIG 0.27  HD
ATOM     40 HZ1  LYS L   5     -30.179 -75.633 -28.819  1.00 90.68 LIG 0.27  HD
ENDBRANCH 36 37
ENDBRANCH 35 36
ENDBRANCH 34 35
ENDBRANCH 33 34
ENDBRANCH 25 33
ENDBRANCH 1 25
TORSDOF 19
ENDMDL
MODEL 6
USER: ADFR SOLUTION from run 6
USER: SCORE 15.324440 LL:  -1.670 LR: -14.957 RR:   0.000 FEB:  -9.290
USER: RMSD 5.884988
USER: SEED 491260
USER: STATUS no improvement in best in 4 clusters for 5 generations
USER: GENES 21
USER: genes 0 Translation |==|  0.61632 0.27381 0.47638
USER: genes 1 Rotation |==|  0.30835 0.45229 0.63777 0.93819
USER: genes 2 Torsion [C]-N--CA-[CB] |==|  0.43527
USER: genes 3 Torsion [N]-CA--CB-[CG] |==|  0.71379
USER: genes 4 Torsion [CA]-CB--CG-[CD] |==|  0.43138
USER: genes 5 Torsion [CB]-CG--CD-[CE] |==|  0.46596
USER: genes 6 Torsion [CG]-CD--CE-[NZ] |==|  0.68866
USER: genes 7 Torsion [CD]-CE--NZ-[HZ1] |==|  0.64254
USER: genes 8 Torsion [N]-CA--C-[N] |==|  0.93336
USER: genes 9 Torsion [C]-N--CA-[CB] |==|  0.82901
USER: genes 10 Torsion [N]-CA--CB-[CG] |==|  0.62268
USER: genes 11 Torsion [CA]-CB--CG-[CD2] |==|  0.54797
USER: genes 12 Torsion [N]-CA--C-[O] |==|  0.81976
USER: genes 13 Torsion [N]-C--CA-[N] |==|  0.43072
USER: genes 14 Torsion [C]-CA--N-[C] |==|  0.80874
USER: genes 15 Torsion [N]-C--CA-[N] |==|  0.18030
USER: genes 16 Torsion [C]-CA--CB-[CG] |==|  0.80412
USER: genes 17 Torsion [CA]-CB--CG-[CD] |==|  0.64524
USER: genes 18 Torsion [CB]-CG--CD-[CE] |==|  0.50850
USER: genes 19 Torsion [CG]-CD--CE-[NZ] |==|  0.72230
USER: genes 20 Torsion [CD]-CE--NZ-[HZ2] |==|  0.14163
ROOT
ATOM      1  C   LYS L   5     -22.628 -80.901 -27.645  1.00 61.96 LIG 0.24  C 
ATOM      2 O    LYS L   5     -21.896 -80.856 -28.643  1.00 44.78 LIG-0.27  OA
ATOM      3  N   LYS L   6     -23.882 -80.457 -27.651  1.00 60.12 LIG-0.35  N 
ATOM      4 H    LYS L   6     -24.449 -80.606 -27.022  1.00 60.12 LIG 0.16  HD
ENDROOT
BRANCH 3 5
ATOM      5  CA  LYS L   6     -24.403 -79.662 -28.758  1.00 64.44 LIG 0.18  C 
BRANCH 5 6
ATOM      6  CB  LYS L   6     -25.928 -79.759 -28.835  1.00 71.41 LIG 0.04  C 
BRANCH 6 7
ATOM      7  CG  LYS L   6     -26.429 -80.683 -29.941  1.00 72.05 LIG 0.00  C 
BRANCH 7 8
ATOM      8  CD  LYS L   6     -27.816 -81.231 -29.641  1.00 65.16 LIG 0.03  C 
BRANCH 8 9
ATOM      9  CE  LYS L   6     -28.412 -81.894 -30.874  1.00 70.38 LIG 0.23  C 
BRANCH 9 10
ATOM     10  NZ  LYS L   6     -29.576 -81.124 -31.398  1.00 74.13 LIG-0.08  N 
ATOM     11 HZ2  LYS L   6     -29.790 -80.481 -30.820  1.00 74.13 LIG 0.27  HD
ATOM     12 HZ1  LYS L   6     -30.270 -81.670 -31.504  1.00 74.13 LIG 0.27  HD
ATOM     13 HZ3  LYS L   6     -29.363 -80.760 -32.181  1.00 74.13 LIG 0.27  HD
ENDBRANCH 9 10
ENDBRANCH 8 9
ENDBRANCH 7 8
ENDBRANCH 6 7
ENDBRANCH 5 6
BRANCH 5 14
ATOM     14  C   LYS L   6     -23.976 -78.220 -28.535  1.00 59.21 LIG 0.24  C 
ATOM     15  N   LEU L   7     -23.706 -77.854 -27.286  1.00 55.77 LIG-0.35  N 
ATOM     16 H    LEU L   7     -23.705 -78.392 -26.615  1.00 55.77 LIG 0.16  HD
ATOM     17 O    LYS L   6     -23.904 -77.443 -29.482  1.00 62.62 LIG-0.27  OA
BRANCH 15 18
ATOM     18  CA  LEU L   7     -23.382 -76.465 -26.956  1.00 55.07 LIG 0.16  C 
BRANCH 18 19
ATOM     19  CB  LEU L   7     -22.110 -76.016 -27.683  1.00 49.39 LIG 0.04  C 
BRANCH 19 20
ATOM     20  CG  LEU L   7     -21.115 -75.230 -26.831  1.00 45.34 LIG-0.02  C 
ATOM     21  CD2 LEU L   7     -20.125 -74.482 -27.729  1.00 40.01 LIG 0.01  C 
ATOM     22  CD1 LEU L   7     -20.397 -76.186 -25.899  1.00 33.03 LIG 0.01  C 
ENDBRANCH 19 20
ENDBRANCH 18 19
BRANCH 18 23
ATOM     23  C   LEU L   7     -24.530 -75.508 -27.270  1.00 52.26 LIG 0.22  C 
ATOM     24 O    LEU L   7     -24.896 -75.335 -28.433  1.00 59.22 LIG-0.29  OA
ENDBRANCH 18 23
ENDBRANCH 15 18
ENDBRANCH 5 14
ENDBRANCH 3 5
BRANCH 1 25
ATOM     25  CA  LYS L   5     -22.124 -81.489 -26.317  1.00 63.64 LIG 0.18  C 
BRANCH 25 26
ATOM     26  N   LYS L   5     -21.031 -82.449 -26.476  1.00 68.83 LIG-0.35  N 
ATOM     27  C   ALA L   4     -21.219 -83.643 -27.040  1.00 74.38 LIG 0.26  C 
ATOM     28 O    ALA L   4     -22.292 -83.984 -27.548  1.00 71.28 LIG-0.27  OA
ATOM     29 H    LYS L   5     -20.273 -82.174 -26.178  1.00 68.83 LIG 0.16  HD
BRANCH 27 30
ATOM     30  CA  ALA L   4     -20.021 -84.601 -27.032  1.00 68.81 LIG 0.40  C 
ATOM     31  N   ALA L   4     -19.670 -84.981 -25.667  1.00 73.56 LIG 0.61  N 
ATOM     32  CB  ALA L   4     -20.308 -85.847 -27.882  1.00 57.48 LIG 0.06  C 
ENDBRANCH 27 30
ENDBRANCH 25 26
BRANCH 25 33
ATOM     33  CB  LYS L   5     -21.682 -80.357 -25.385  1.00 69.62 LIG 0.04  C 
BRANCH 33 34
ATOM     34  CG  LYS L   5     -20.407 -79.649 -25.808  1.00 80.66 LIG 0.00  C 
BRANCH 34 35
ATOM     35  CD  LYS L   5     -19.402 -79.607 -24.661  1.00 85.15 LIG 0.03  C 
BRANCH 35 36
ATOM     36  CE  LYS L   5     -18.150 -78.833 -25.049  1.00 90.30 LIG 0.23  C 
BRANCH 36 37
ATOM     37  NZ  LYS L   5     -17.021 -79.731 -25.433  1.00 90.68 LIG-0.08  N 
ATOM     38 HZ3  LYS L   5     -16.358 -79.246 -25.775  1.00 90.68 LIG 0.27  HD
ATOM     39 HZ2  LYS L   5     -17.301 -80.318 -26.040  1.00 90.68 LIG 0.27  HD
ATOM     40 HZ1  LYS L   5     -16.729 -80.166 -24.713  1.00 90.68 LIG 0.27  HD
ENDBRANCH 36 37
ENDBRANCH 35 36
ENDBRANCH 34 35
ENDBRANCH 33 34
ENDBRANCH 25 33
ENDBRANCH 1 25
TORSDOF 19
ENDMDL
MODEL 7
USER: ADFR SOLUTION from run 32
USER: SCORE 15.925260 LL:  -1.407 LR: -14.848 RR:   0.000 FEB:  -9.180
USER: RMSD 6.719831
USER: SEED 31
USER: STATUS no improvement in best in 5 clusters for 5 generations
USER: GENES 21
USER: genes 0 Translation |==|  0.56758 0.41214 0.51945
USER: genes 1 Rotation |==|  0.54837 0.42558 0.21682 0.90241
USER: genes 2 Torsion [C]-N--CA-[CB] |==|  0.87736
USER: genes 3 Torsion [N]-CA--CB-[CG] |==|  0.44316
USER: genes 4 Torsion [CA]-CB--CG-[CD] |==|  0.42706
USER: genes 5 Torsion [CB]-CG--CD-[CE] |==|  0.44109
USER: genes 6 Torsion [CG]-CD--CE-[NZ] |==|  0.67190
USER: genes 7 Torsion [CD]-CE--NZ-[HZ1] |==|  0.11490
USER: genes 8 Torsion [N]-CA--C-[N] |==|  0.36975
USER: genes 9 Torsion [C]-N--CA-[CB] |==|  0.44736
USER: genes 10 Torsion [N]-CA--CB-[CG] |==|  0.39964
USER: genes 11 Torsion [CA]-CB--CG-[CD2] |==|  0.69312
USER: genes 12 Torsion [N]-CA--C-[O] |==|  0.87370
USER: genes 13 Torsion [N]-C--CA-[N] |==|  0.11711
USER: genes 14 Torsion [C]-CA--N-[C] |==|  0.13334
USER: genes 15 Torsion [N]-C--CA-[N] |==|  0.90430
USER: genes 16 Torsion [C]-CA--CB-[CG] |==|  0.47041
USER: genes 17 Torsion [CA]-CB--CG-[CD] |==|  0.44155
USER: genes 18 Torsion [CB]-CG--CD-[CE] |==|  0.49030
USER: genes 19 Torsion [CG]-CD--CE-[NZ] |==|  0.34565
USER: genes 20 Torsion [CD]-CE--NZ-[HZ2] |==|  0.33704
ROOT
ATOM      1  C   LYS L   5     -23.578 -77.892 -27.031  1.00 61.96 LIG 0.24  C 
ATOM      2 O    LYS L   5     -22.643 -78.388 -27.675  1.00 44.78 LIG-0.27  OA
ATOM      3  N   LYS L   6     -23.412 -76.876 -26.188  1.00 60.12 LIG-0.35  N 
ATOM      4 H    LYS L   6     -24.060 -76.427 -25.843  1.00 60.12 LIG 0.16  HD
ENDROOT
BRANCH 3 5
ATOM      5  CA  LYS L   6     -22.084 -76.437 -25.776  1.00 64.44 LIG 0.18  C 
BRANCH 5 6
ATOM      6  CB  LYS L   6     -21.190 -77.630 -25.437  1.00 71.41 LIG 0.04  C 
BRANCH 6 7
ATOM      7  CG  LYS L   6     -19.699 -77.313 -25.480  1.00 72.05 LIG 0.00  C 
BRANCH 7 8
ATOM      8  CD  LYS L   6     -18.894 -78.230 -24.571  1.00 65.16 LIG 0.03  C 
BRANCH 8 9
ATOM      9  CE  LYS L   6     -17.434 -78.267 -24.998  1.00 70.38 LIG 0.23  C 
BRANCH 9 10
ATOM     10  NZ  LYS L   6     -17.021 -79.641 -25.403  1.00 74.13 LIG-0.08  N 
ATOM     11 HZ2  LYS L   6     -16.278 -79.596 -25.891  1.00 74.13 LIG 0.27  HD
ATOM     12 HZ1  LYS L   6     -17.669 -80.017 -25.884  1.00 74.13 LIG 0.27  HD
ATOM     13 HZ3  LYS L   6     -16.869 -80.132 -24.677  1.00 74.13 LIG 0.27  HD
ENDBRANCH 9 10
ENDBRANCH 8 9
ENDBRANCH 7 8
ENDBRANCH 6 7
ENDBRANCH 5 6
BRANCH 5 14
ATOM     14  C   LYS L   6     -21.484 -75.635 -26.921  1.00 59.21 LIG 0.24  C 
ATOM     15  N   LEU L   7     -20.915 -74.474 -26.615  1.00 55.77 LIG-0.35  N 
ATOM     16 H    LEU L   7     -20.817 -74.180 -25.812  1.00 55.77 LIG 0.16  HD
ATOM     17 O    LYS L   6     -21.550 -76.058 -28.071  1.00 62.62 LIG-0.27  OA
BRANCH 15 18
ATOM     18  CA  LEU L   7     -20.398 -73.585 -27.658  1.00 55.07 LIG 0.16  C 
BRANCH 18 19
ATOM     19  CB  LEU L   7     -20.231 -72.159 -27.122  1.00 49.39 LIG 0.04  C 
BRANCH 19 20
ATOM     20  CG  LEU L   7     -19.023 -71.397 -27.663  1.00 45.34 LIG-0.02  C 
ATOM     21  CD2 LEU L   7     -17.981 -71.202 -26.557  1.00 40.01 LIG 0.01  C 
ATOM     22  CD1 LEU L   7     -19.485 -70.065 -28.221  1.00 33.03 LIG 0.01  C 
ENDBRANCH 19 20
ENDBRANCH 18 19
BRANCH 18 23
ATOM     23  C   LEU L   7     -19.078 -74.081 -28.244  1.00 52.26 LIG 0.22  C 
ATOM     24 O    LEU L   7     -18.178 -74.480 -27.504  1.00 59.22 LIG-0.29  OA
ENDBRANCH 18 23
ENDBRANCH 15 18
ENDBRANCH 5 14
ENDBRANCH 3 5
BRANCH 1 25
ATOM     25  CA  LYS L   5     -25.012 -78.425 -27.176  1.00 63.64 LIG 0.18  C 
BRANCH 25 26
ATOM     26  N   LYS L   5     -26.027 -77.373 -27.247  1.00 68.83 LIG-0.35  N 
ATOM     27  C   ALA L   4     -25.895 -76.322 -28.057  1.00 74.38 LIG 0.26  C 
ATOM     28 O    ALA L   4     -24.967 -76.209 -28.865  1.00 71.28 LIG-0.27  OA
ATOM     29 H    LYS L   5     -26.701 -77.495 -26.727  1.00 68.83 LIG 0.16  HD
BRANCH 27 30
ATOM     30  CA  ALA L   4     -26.967 -75.231 -27.944  1.00 68.81 LIG 0.40  C 
ATOM     31  N   ALA L   4     -28.270 -75.813 -27.635  1.00 73.56 LIG 0.61  N 
ATOM     32  CB  ALA L   4     -26.579 -74.188 -26.886  1.00 57.48 LIG 0.06  C 
ENDBRANCH 27 30
ENDBRANCH 25 26
BRANCH 25 33
ATOM     33  CB  LYS L   5     -25.109 -79.316 -28.418  1.00 69.62 LIG 0.04  C 
BRANCH 33 34
ATOM     34  CG  LYS L   5     -26.400 -80.105 -28.534  1.00 80.66 LIG 0.00  C 
BRANCH 34 35
ATOM     35  CD  LYS L   5     -26.647 -80.536 -29.977  1.00 85.15 LIG 0.03  C 
BRANCH 35 36
ATOM     36  CE  LYS L   5     -27.894 -81.401 -30.092  1.00 90.30 LIG 0.23  C 
BRANCH 36 37
ATOM     37  NZ  LYS L   5     -28.877 -80.856 -31.074  1.00 90.68 LIG-0.08  N 
ATOM     38 HZ3  LYS L   5     -29.640 -80.666 -30.657  1.00 90.68 LIG 0.27  HD
ATOM     39 HZ2  LYS L   5     -29.030 -81.461 -31.709  1.00 90.68 LIG 0.27  HD
ATOM     40 HZ1  LYS L   5     -28.549 -80.115 -31.443  1.00 90.68 LIG 0.27  HD
ENDBRANCH 36 37
ENDBRANCH 35 36
ENDBRANCH 34 35
ENDBRANCH 33 34
ENDBRANCH 25 33
ENDBRANCH 1 25
TORSDOF 19
ENDMDL
MODEL 8
USER: ADFR SOLUTION from run 195
USER: SCORE 15.237962 LL:  -1.289 LR: -14.747 RR:   0.000 FEB:  -9.079
USER: RMSD 8.925714
USER: SEED 194
USER: STATUS no improvement in best in 6 clusters for 5 generations
USER: GENES 21
USER: genes 0 Translation |==|  0.55131 0.33190 0.44629
USER: genes 1 Rotation |==|  0.64081 0.56807 0.11558 0.77886
USER: genes 2 Torsion [C]-N--CA-[CB] |==|  0.54444
USER: genes 3 Torsion [N]-CA--CB-[CG] |==|  0.73436
USER: genes 4 Torsion [CA]-CB--CG-[CD] |==|  0.83395
USER: genes 5 Torsion [CB]-CG--CD-[CE] |==|  0.66439
USER: genes 6 Torsion [CG]-CD--CE-[NZ] |==|  0.39346
USER: genes 7 Torsion [CD]-CE--NZ-[HZ1] |==|  0.62669
USER: genes 8 Torsion [N]-CA--C-[N] |==|  0.42896
USER: genes 9 Torsion [C]-N--CA-[CB] |==|  0.85062
USER: genes 10 Torsion [N]-CA--CB-[CG] |==|  0.63336
USER: genes 11 Torsion [CA]-CB--CG-[CD2] |==|  0.22479
USER: genes 12 Torsion [N]-CA--C-[O] |==|  0.11328
USER: genes 13 Torsion [N]-C--CA-[N] |==|  0.19879
USER: genes 14 Torsion [C]-CA--N-[C] |==|  0.13616
USER: genes 15 Torsion [N]-C--CA-[N] |==|  0.61062
USER: genes 16 Torsion [C]-CA--CB-[CG] |==|  0.24680
USER: genes 17 Torsion [CA]-CB--CG-[CD] |==|  0.49077
USER: genes 18 Torsion [CB]-CG--CD-[CE] |==|  0.68766
USER: genes 19 Torsion [CG]-CD--CE-[NZ] |==|  0.39183
USER: genes 20 Torsion [CD]-CE--NZ-[HZ2] |==|  0.65197
ROOT
ATOM      1  C   LYS L   5     -23.895 -79.637 -28.073  1.00 61.96 LIG 0.24  C 
ATOM      2 O    LYS L   5     -23.362 -79.828 -29.175  1.00 44.78 LIG-0.27  OA
ATOM      3  N   LYS L   6     -23.216 -79.668 -26.930  1.00 60.12 LIG-0.35  N 
ATOM      4 H    LYS L   6     -23.532 -79.400 -26.176  1.00 60.12 LIG 0.16  HD
ENDROOT
BRANCH 3 5
ATOM      5  CA  LYS L   6     -21.848 -80.172 -26.869  1.00 64.44 LIG 0.18  C 
BRANCH 5 6
ATOM      6  CB  LYS L   6     -21.436 -80.471 -25.427  1.00 71.41 LIG 0.04  C 
BRANCH 6 7
ATOM      7  CG  LYS L   6     -20.674 -79.331 -24.758  1.00 72.05 LIG 0.00  C 
BRANCH 7 8
ATOM      8  CD  LYS L   6     -19.391 -78.990 -25.500  1.00 65.16 LIG 0.03  C 
BRANCH 8 9
ATOM      9  CE  LYS L   6     -18.182 -79.157 -24.591  1.00 70.38 LIG 0.23  C 
BRANCH 9 10
ATOM     10  NZ  LYS L   6     -17.021 -79.731 -25.330  1.00 74.13 LIG-0.08  N 
ATOM     11 HZ2  LYS L   6     -17.299 -80.065 -26.107  1.00 74.13 LIG 0.27  HD
ATOM     12 HZ1  LYS L   6     -16.651 -80.379 -24.845  1.00 74.13 LIG 0.27  HD
ATOM     13 HZ3  LYS L   6     -16.419 -79.093 -25.479  1.00 74.13 LIG 0.27  HD
ENDBRANCH 9 10
ENDBRANCH 8 9
ENDBRANCH 7 8
ENDBRANCH 6 7
ENDBRANCH 5 6
BRANCH 5 14
ATOM     14  C   LYS L   6     -21.782 -81.437 -27.711  1.00 59.21 LIG 0.24  C 
ATOM     15  N   LEU L   7     -20.600 -81.764 -28.221  1.00 55.77 LIG-0.35  N 
ATOM     16 H    LEU L   7     -19.869 -81.340 -28.058  1.00 55.77 LIG 0.16  HD
ATOM     17 O    LYS L   6     -22.795 -82.100 -27.909  1.00 62.62 LIG-0.27  OA
BRANCH 15 18
ATOM     18  CA  LEU L   7     -20.453 -82.907 -29.125  1.00 55.07 LIG 0.16  C 
BRANCH 18 19
ATOM     19  CB  LEU L   7     -21.030 -84.178 -28.492  1.00 49.39 LIG 0.04  C 
BRANCH 19 20
ATOM     20  CG  LEU L   7     -20.128 -85.408 -28.564  1.00 45.34 LIG-0.02  C 
ATOM     21  CD2 LEU L   7     -19.074 -85.358 -27.454  1.00 40.01 LIG 0.01  C 
ATOM     22  CD1 LEU L   7     -19.480 -85.469 -29.933  1.00 33.03 LIG 0.01  C 
ENDBRANCH 19 20
ENDBRANCH 18 19
BRANCH 18 23
ATOM     23  C   LEU L   7     -21.101 -82.660 -30.486  1.00 52.26 LIG 0.22  C 
ATOM     24 O    LEU L   7     -20.996 -81.563 -31.036  1.00 59.22 LIG-0.29  OA
ENDBRANCH 18 23
ENDBRANCH 15 18
ENDBRANCH 5 14
ENDBRANCH 3 5
BRANCH 1 25
ATOM     25  CA  LYS L   5     -25.399 -79.340 -27.961  1.00 63.64 LIG 0.18  C 
BRANCH 25 26
ATOM     26  N   LYS L   5     -25.700 -77.953 -27.604  1.00 68.83 LIG-0.35  N 
ATOM     27  C   ALA L   4     -25.139 -76.926 -28.242  1.00 74.38 LIG 0.26  C 
ATOM     28 O    ALA L   4     -24.408 -77.065 -29.228  1.00 71.28 LIG-0.27  OA
ATOM     29 H    LYS L   5     -26.261 -77.867 -26.958  1.00 68.83 LIG 0.16  HD
BRANCH 27 30
ATOM     30  CA  ALA L   4     -25.442 -75.527 -27.688  1.00 68.81 LIG 0.40  C 
ATOM     31  N   ALA L   4     -25.646 -74.572 -28.773  1.00 73.56 LIG 0.61  N 
ATOM     32  CB  ALA L   4     -26.666 -75.558 -26.761  1.00 57.48 LIG 0.06  C 
ENDBRANCH 27 30
ENDBRANCH 25 26
BRANCH 25 33
ATOM     33  CB  LYS L   5     -26.095 -79.694 -29.278  1.00 69.62 LIG 0.04  C 
BRANCH 33 34
ATOM     34  CG  LYS L   5     -26.578 -81.130 -29.376  1.00 80.66 LIG 0.00  C 
BRANCH 34 35
ATOM     35  CD  LYS L   5     -27.327 -81.364 -30.684  1.00 85.15 LIG 0.03  C 
BRANCH 35 36
ATOM     36  CE  LYS L   5     -28.806 -81.628 -30.437  1.00 90.30 LIG 0.23  C 
BRANCH 36 37
ATOM     37  NZ  LYS L   5     -29.679 -80.981 -31.461  1.00 90.68 LIG-0.08  N 
ATOM     38 HZ3  LYS L   5     -29.181 -80.483 -32.005  1.00 90.68 LIG 0.27  HD
ATOM     39 HZ2  LYS L   5     -30.281 -80.466 -31.056  1.00 90.68 LIG 0.27  HD
ATOM     40 HZ1  LYS L   5     -30.097 -81.609 -31.934  1.00 90.68 LIG 0.27  HD
ENDBRANCH 36 37
ENDBRANCH 35 36
ENDBRANCH 34 35
ENDBRANCH 33 34
ENDBRANCH 25 33
ENDBRANCH 1 25
TORSDOF 19
ENDMDL
MODEL 9
USER: ADFR SOLUTION from run 24
USER: SCORE 15.014897 LL:  -1.407 LR: -14.706 RR:   0.000 FEB:  -9.038
USER: RMSD 6.139772
USER: SEED 23
USER: STATUS no improvement in best in 5 clusters for 5 generations
USER: GENES 21
USER: genes 0 Translation |==|  0.59112 0.41651 0.51385
USER: genes 1 Rotation |==|  0.44127 0.13858 0.19065 0.64221
USER: genes 2 Torsion [C]-N--CA-[CB] |==|  0.23889
USER: genes 3 Torsion [N]-CA--CB-[CG] |==|  0.35074
USER: genes 4 Torsion [CA]-CB--CG-[CD] |==|  0.46046
USER: genes 5 Torsion [CB]-CG--CD-[CE] |==|  0.99788
USER: genes 6 Torsion [CG]-CD--CE-[NZ] |==|  0.41582
USER: genes 7 Torsion [CD]-CE--NZ-[HZ1] |==|  0.62524
USER: genes 8 Torsion [N]-CA--C-[N] |==|  0.91137
USER: genes 9 Torsion [C]-N--CA-[CB] |==|  0.40408
USER: genes 10 Torsion [N]-CA--CB-[CG] |==|  0.59473
USER: genes 11 Torsion [CA]-CB--CG-[CD2] |==|  0.03673
USER: genes 12 Torsion [N]-CA--C-[O] |==|  0.65051
USER: genes 13 Torsion [N]-C--CA-[N] |==|  0.49319
USER: genes 14 Torsion [C]-CA--N-[C] |==|  0.75620
USER: genes 15 Torsion [N]-C--CA-[N] |==|  0.20306
USER: genes 16 Torsion [C]-CA--CB-[CG] |==|  0.70043
USER: genes 17 Torsion [CA]-CB--CG-[CD] |==|  0.45776
USER: genes 18 Torsion [CB]-CG--CD-[CE] |==|  0.48053
USER: genes 19 Torsion [CG]-CD--CE-[NZ] |==|  0.73660
USER: genes 20 Torsion [CD]-CE--NZ-[HZ2] |==|  0.76768
ROOT
ATOM      1  C   LYS L   5     -23.119 -77.797 -27.111  1.00 61.96 LIG 0.24  C 
ATOM      2 O    LYS L   5     -23.185 -78.727 -26.296  1.00 44.78 LIG-0.27  OA
ATOM      3  N   LYS L   6     -22.275 -76.778 -26.973  1.00 60.12 LIG-0.35  N 
ATOM      4 H    LYS L   6     -22.111 -76.202 -27.591  1.00 60.12 LIG 0.16  HD
ENDROOT
BRANCH 3 5
ATOM      5  CA  LYS L   6     -21.543 -76.557 -25.731  1.00 64.44 LIG 0.18  C 
BRANCH 5 6
ATOM      6  CB  LYS L   6     -20.248 -77.369 -25.703  1.00 71.41 LIG 0.04  C 
BRANCH 6 7
ATOM      7  CG  LYS L   6     -19.004 -76.533 -25.420  1.00 72.05 LIG 0.00  C 
BRANCH 7 8
ATOM      8  CD  LYS L   6     -17.805 -77.398 -25.059  1.00 65.16 LIG 0.03  C 
BRANCH 8 9
ATOM      9  CE  LYS L   6     -18.184 -78.871 -25.060  1.00 70.38 LIG 0.23  C 
BRANCH 9 10
ATOM     10  NZ  LYS L   6     -17.024 -79.730 -25.433  1.00 74.13 LIG-0.08  N 
ATOM     11 HZ2  LYS L   6     -16.385 -79.227 -25.794  1.00 74.13 LIG 0.27  HD
ATOM     12 HZ1  LYS L   6     -17.286 -80.344 -26.022  1.00 74.13 LIG 0.27  HD
ATOM     13 HZ3  LYS L   6     -16.708 -80.135 -24.706  1.00 74.13 LIG 0.27  HD
ENDBRANCH 9 10
ENDBRANCH 8 9
ENDBRANCH 7 8
ENDBRANCH 6 7
ENDBRANCH 5 6
BRANCH 5 14
ATOM     14  C   LYS L   6     -21.237 -75.070 -25.632  1.00 59.21 LIG 0.24  C 
ATOM     15  N   LEU L   7     -21.040 -74.415 -26.771  1.00 55.77 LIG-0.35  N 
ATOM     16 H    LEU L   7     -21.129 -74.765 -27.551  1.00 55.77 LIG 0.16  HD
ATOM     17 O    LYS L   6     -21.166 -74.526 -24.534  1.00 62.62 LIG-0.27  OA
BRANCH 15 18
ATOM     18  CA  LEU L   7     -20.643 -73.005 -26.776  1.00 55.07 LIG 0.16  C 
BRANCH 18 19
ATOM     19  CB  LEU L   7     -19.703 -72.709 -27.949  1.00 49.39 LIG 0.04  C 
BRANCH 19 20
ATOM     20  CG  LEU L   7     -18.628 -71.659 -27.674  1.00 45.34 LIG-0.02  C 
ATOM     21  CD2 LEU L   7     -18.537 -71.377 -26.170  1.00 40.01 LIG 0.01  C 
ATOM     22  CD1 LEU L   7     -18.955 -70.399 -28.450  1.00 33.03 LIG 0.01  C 
ENDBRANCH 19 20
ENDBRANCH 18 19
BRANCH 18 23
ATOM     23  C   LEU L   7     -21.844 -72.062 -26.817  1.00 52.26 LIG 0.22  C 
ATOM     24 O    LEU L   7     -21.927 -71.198 -27.691  1.00 59.22 LIG-0.29  OA
ENDBRANCH 18 23
ENDBRANCH 15 18
ENDBRANCH 5 14
ENDBRANCH 3 5
BRANCH 1 25
ATOM     25  CA  LYS L   5     -24.020 -77.768 -28.355  1.00 63.64 LIG 0.18  C 
BRANCH 25 26
ATOM     26  N   LYS L   5     -24.886 -78.940 -28.482  1.00 68.83 LIG-0.35  N 
ATOM     27  C   ALA L   4     -24.482 -80.050 -29.100  1.00 74.38 LIG 0.26  C 
ATOM     28 O    ALA L   4     -23.331 -80.203 -29.521  1.00 71.28 LIG-0.27  OA
ATOM     29 H    LYS L   5     -25.664 -78.846 -28.127  1.00 68.83 LIG 0.16  HD
BRANCH 27 30
ATOM     30  CA  ALA L   4     -25.529 -81.158 -29.274  1.00 68.81 LIG 0.40  C 
ATOM     31  N   ALA L   4     -26.504 -80.795 -30.298  1.00 73.56 LIG 0.61  N 
ATOM     32  CB  ALA L   4     -24.861 -82.497 -29.617  1.00 57.48 LIG 0.06  C 
ENDBRANCH 27 30
ENDBRANCH 25 26
BRANCH 25 33
ATOM     33  CB  LYS L   5     -24.875 -76.497 -28.344  1.00 69.62 LIG 0.04  C 
BRANCH 33 34
ATOM     34  CG  LYS L   5     -26.345 -76.723 -28.041  1.00 80.66 LIG 0.00  C 
BRANCH 34 35
ATOM     35  CD  LYS L   5     -27.035 -75.411 -27.683  1.00 85.15 LIG 0.03  C 
BRANCH 35 36
ATOM     36  CE  LYS L   5     -28.540 -75.595 -27.545  1.00 90.30 LIG 0.23  C 
BRANCH 36 37
ATOM     37  NZ  LYS L   5     -29.272 -75.269 -28.804  1.00 90.68 LIG-0.08  N 
ATOM     38 HZ3  LYS L   5     -28.788 -75.528 -29.505  1.00 90.68 LIG 0.27  HD
ATOM     39 HZ2  LYS L   5     -29.412 -74.392 -28.848  1.00 90.68 LIG 0.27  HD
ATOM     40 HZ1  LYS L   5     -30.055 -75.694 -28.811  1.00 90.68 LIG 0.27  HD
ENDBRANCH 36 37
ENDBRANCH 35 36
ENDBRANCH 34 35
ENDBRANCH 33 34
ENDBRANCH 25 33
ENDBRANCH 1 25
TORSDOF 19
ENDMDL
MODEL 10
USER: ADFR SOLUTION from run 186
USER: SCORE 14.654338 LL:  -1.464 LR: -14.642 RR:   0.000 FEB:  -8.975
USER: RMSD 4.236047
USER: SEED 185
USER: STATUS no improvement in best in 5 clusters for 5 generations
USER: GENES 21
USER: genes 0 Translation |==|  0.50097 0.42022 0.39017
USER: genes 1 Rotation |==|  0.54774 0.46414 0.49209 0.99636
USER: genes 2 Torsion [C]-N--CA-[CB] |==|  0.48333
USER: genes 3 Torsion [N]-CA--CB-[CG] |==|  0.86614
USER: genes 4 Torsion [CA]-CB--CG-[CD] |==|  0.51734
USER: genes 5 Torsion [CB]-CG--CD-[CE] |==|  0.40752
USER: genes 6 Torsion [CG]-CD--CE-[NZ] |==|  0.23490
USER: genes 7 Torsion [CD]-CE--NZ-[HZ1] |==|  0.35652
USER: genes 8 Torsion [N]-CA--C-[N] |==|  0.42194
USER: genes 9 Torsion [C]-N--CA-[CB] |==|  0.18772
USER: genes 10 Torsion [N]-CA--CB-[CG] |==|  0.45519
USER: genes 11 Torsion [CA]-CB--CG-[CD2] |==|  0.66006
USER: genes 12 Torsion [N]-CA--C-[O] |==|  0.01754
USER: genes 13 Torsion [N]-C--CA-[N] |==|  0.73933
USER: genes 14 Torsion [C]-CA--N-[C] |==|  0.68399
USER: genes 15 Torsion [N]-C--CA-[N] |==|  0.50835
USER: genes 16 Torsion [C]-CA--CB-[CG] |==|  0.41924
USER: genes 17 Torsion [CA]-CB--CG-[CD] |==|  0.75803
USER: genes 18 Torsion [CB]-CG--CD-[CE] |==|  0.63373
USER: genes 19 Torsion [CG]-CD--CE-[NZ] |==|  0.38084
USER: genes 20 Torsion [CD]-CE--NZ-[HZ2] |==|  0.75289
ROOT
ATOM      1  C   LYS L   5     -24.877 -77.716 -28.873  1.00 61.96 LIG 0.24  C 
ATOM      2 O    LYS L   5     -24.064 -77.132 -29.602  1.00 44.78 LIG-0.27  OA
ATOM      3  N   LYS L   6     -25.757 -77.069 -28.113  1.00 60.12 LIG-0.35  N 
ATOM      4 H    LYS L   6     -26.418 -77.448 -27.714  1.00 60.12 LIG 0.16  HD
ENDROOT
BRANCH 3 5
ATOM      5  CA  LYS L   6     -25.664 -75.630 -27.896  1.00 64.44 LIG 0.18  C 
BRANCH 5 6
ATOM      6  CB  LYS L   6     -26.871 -75.112 -27.113  1.00 71.41 LIG 0.04  C 
BRANCH 6 7
ATOM      7  CG  LYS L   6     -28.210 -75.599 -27.656  1.00 72.05 LIG 0.00  C 
BRANCH 7 8
ATOM      8  CD  LYS L   6     -29.386 -74.944 -26.948  1.00 65.16 LIG 0.03  C 
BRANCH 8 9
ATOM      9  CE  LYS L   6     -30.553 -74.752 -27.904  1.00 70.38 LIG 0.23  C 
BRANCH 9 10
ATOM     10  NZ  LYS L   6     -31.388 -75.983 -27.998  1.00 74.13 LIG-0.08  N 
ATOM     11 HZ2  LYS L   6     -31.299 -76.341 -28.809  1.00 74.13 LIG 0.27  HD
ATOM     12 HZ1  LYS L   6     -32.241 -75.775 -27.858  1.00 74.13 LIG 0.27  HD
ATOM     13 HZ3  LYS L   6     -31.122 -76.570 -27.385  1.00 74.13 LIG 0.27  HD
ENDBRANCH 9 10
ENDBRANCH 8 9
ENDBRANCH 7 8
ENDBRANCH 6 7
ENDBRANCH 5 6
BRANCH 5 14
ATOM     14  C   LYS L   6     -24.379 -75.360 -27.128  1.00 59.21 LIG 0.24  C 
ATOM     15  N   LEU L   7     -23.803 -74.176 -27.308  1.00 55.77 LIG-0.35  N 
ATOM     16 H    LEU L   7     -24.139 -73.542 -27.783  1.00 55.77 LIG 0.16  HD
ATOM     17 O    LYS L   6     -23.907 -76.220 -26.391  1.00 62.62 LIG-0.27  OA
BRANCH 15 18
ATOM     18  CA  LEU L   7     -22.513 -73.858 -26.691  1.00 55.07 LIG 0.16  C 
BRANCH 18 19
ATOM     19  CB  LEU L   7     -21.394 -74.705 -27.304  1.00 49.39 LIG 0.04  C 
BRANCH 19 20
ATOM     20  CG  LEU L   7     -19.976 -74.207 -27.030  1.00 45.34 LIG-0.02  C 
ATOM     21  CD2 LEU L   7     -19.241 -73.948 -28.350  1.00 40.01 LIG 0.01  C 
ATOM     22  CD1 LEU L   7     -19.244 -75.233 -26.188  1.00 33.03 LIG 0.01  C 
ENDBRANCH 19 20
ENDBRANCH 18 19
BRANCH 18 23
ATOM     23  C   LEU L   7     -22.166 -72.374 -26.798  1.00 52.26 LIG 0.22  C 
ATOM     24 O    LEU L   7     -22.985 -71.574 -27.252  1.00 59.22 LIG-0.29  OA
ENDBRANCH 18 23
ENDBRANCH 15 18
ENDBRANCH 5 14
ENDBRANCH 3 5
BRANCH 1 25
ATOM     25  CA  LYS L   5     -24.924 -79.251 -28.807  1.00 63.64 LIG 0.18  C 
BRANCH 25 26
ATOM     26  N   LYS L   5     -23.994 -79.827 -27.835  1.00 68.83 LIG-0.35  N 
ATOM     27  C   ALA L   4     -22.958 -80.576 -28.211  1.00 74.38 LIG 0.26  C 
ATOM     28 O    ALA L   4     -22.655 -80.758 -29.395  1.00 71.28 LIG-0.27  OA
ATOM     29 H    LYS L   5     -24.177 -79.639 -27.016  1.00 68.83 LIG 0.16  HD
BRANCH 27 30
ATOM     30  CA  ALA L   4     -22.135 -81.221 -27.088  1.00 68.81 LIG 0.40  C 
ATOM     31  N   ALA L   4     -20.995 -81.952 -27.634  1.00 73.56 LIG 0.61  N 
ATOM     32  CB  ALA L   4     -21.665 -80.166 -26.077  1.00 57.48 LIG 0.06  C 
ENDBRANCH 27 30
ENDBRANCH 25 26
BRANCH 25 33
ATOM     33  CB  LYS L   5     -26.350 -79.711 -28.488  1.00 69.62 LIG 0.04  C 
BRANCH 33 34
ATOM     34  CG  LYS L   5     -26.717 -81.073 -29.046  1.00 80.66 LIG 0.00  C 
BRANCH 34 35
ATOM     35  CD  LYS L   5     -27.249 -80.953 -30.471  1.00 85.15 LIG 0.03  C 
BRANCH 35 36
ATOM     36  CE  LYS L   5     -28.542 -81.737 -30.649  1.00 90.30 LIG 0.23  C 
BRANCH 36 37
ATOM     37  NZ  LYS L   5     -29.562 -80.982 -31.434  1.00 90.68 LIG-0.08  N 
ATOM     38 HZ3  LYS L   5     -29.154 -80.453 -32.022  1.00 90.68 LIG 0.27  HD
ATOM     39 HZ2  LYS L   5     -30.055 -80.487 -30.883  1.00 90.68 LIG 0.27  HD
ATOM     40 HZ1  LYS L   5     -30.088 -81.556 -31.867  1.00 90.68 LIG 0.27  HD
ENDBRANCH 36 37
ENDBRANCH 35 36
ENDBRANCH 34 35
ENDBRANCH 33 34
ENDBRANCH 25 33
ENDBRANCH 1 25
TORSDOF 19
ENDMDL
MODEL 11
USER: ADFR SOLUTION from run 195
USER: SCORE 15.276291 LL:  -1.459 LR: -14.621 RR:   0.000 FEB:  -8.953
USER: RMSD 9.161088
USER: SEED 194
USER: STATUS no improvement in best in 6 clusters for 5 generations
USER: GENES 21
USER: genes 0 Translation |==|  0.55972 0.30338 0.40591
USER: genes 1 Rotation |==|  0.66777 0.53950 0.12529 0.78264
USER: genes 2 Torsion [C]-N--CA-[CB] |==|  0.49722
USER: genes 3 Torsion [N]-CA--CB-[CG] |==|  0.71686
USER: genes 4 Torsion [CA]-CB--CG-[CD] |==|  0.63767
USER: genes 5 Torsion [CB]-CG--CD-[CE] |==|  0.39905
USER: genes 6 Torsion [CG]-CD--CE-[NZ] |==|  0.60289
USER: genes 7 Torsion [CD]-CE--NZ-[HZ1] |==|  0.37304
USER: genes 8 Torsion [N]-CA--C-[N] |==|  0.45265
USER: genes 9 Torsion [C]-N--CA-[CB] |==|  0.28239
USER: genes 10 Torsion [N]-CA--CB-[CG] |==|  0.89624
USER: genes 11 Torsion [CA]-CB--CG-[CD2] |==|  0.56281
USER: genes 12 Torsion [N]-CA--C-[O] |==|  0.57262
USER: genes 13 Torsion [N]-C--CA-[N] |==|  0.26115
USER: genes 14 Torsion [C]-CA--N-[C] |==|  0.76082
USER: genes 15 Torsion [N]-C--CA-[N] |==|  0.31499
USER: genes 16 Torsion [C]-CA--CB-[CG] |==|  0.39166
USER: genes 17 Torsion [CA]-CB--CG-[CD] |==|  0.45134
USER: genes 18 Torsion [CB]-CG--CD-[CE] |==|  0.56987
USER: genes 19 Torsion [CG]-CD--CE-[NZ] |==|  0.34247
USER: genes 20 Torsion [CD]-CE--NZ-[HZ2] |==|  0.65198
ROOT
ATOM      1  C   LYS L   5     -23.731 -80.257 -28.649  1.00 61.96 LIG 0.24  C 
ATOM      2 O    LYS L   5     -23.033 -80.485 -29.646  1.00 44.78 LIG-0.27  OA
ATOM      3  N   LYS L   6     -23.243 -80.264 -27.411  1.00 60.12 LIG-0.35  N 
ATOM      4 H    LYS L   6     -23.670 -79.972 -26.724  1.00 60.12 LIG 0.16  HD
ENDROOT
BRANCH 3 5
ATOM      5  CA  LYS L   6     -21.910 -80.782 -27.120  1.00 64.44 LIG 0.18  C 
BRANCH 5 6
ATOM      6  CB  LYS L   6     -21.583 -80.653 -25.632  1.00 71.41 LIG 0.04  C 
BRANCH 6 7
ATOM      7  CG  LYS L   6     -20.662 -79.481 -25.305  1.00 72.05 LIG 0.00  C 
BRANCH 7 8
ATOM      8  CD  LYS L   6     -19.492 -79.902 -24.430  1.00 65.16 LIG 0.03  C 
BRANCH 8 9
ATOM      9  CE  LYS L   6     -18.232 -79.139 -24.811  1.00 70.38 LIG 0.23  C 
BRANCH 9 10
ATOM     10  NZ  LYS L   6     -17.021 -80.004 -24.711  1.00 74.13 LIG-0.08  N 
ATOM     11 HZ2  LYS L   6     -16.554 -79.777 -23.988  1.00 74.13 LIG 0.27  HD
ATOM     12 HZ1  LYS L   6     -16.517 -79.894 -25.436  1.00 74.13 LIG 0.27  HD
ATOM     13 HZ3  LYS L   6     -17.269 -80.856 -24.649  1.00 74.13 LIG 0.27  HD
ENDBRANCH 9 10
ENDBRANCH 8 9
ENDBRANCH 7 8
ENDBRANCH 6 7
ENDBRANCH 5 6
BRANCH 5 14
ATOM     14  C   LYS L   6     -21.877 -82.242 -27.545  1.00 59.21 LIG 0.24  C 
ATOM     15  N   LEU L   7     -20.682 -82.803 -27.693  1.00 55.77 LIG-0.35  N 
ATOM     16 H    LEU L   7     -19.938 -82.410 -27.511  1.00 55.77 LIG 0.16  HD
ATOM     17 O    LYS L   6     -22.923 -82.849 -27.750  1.00 62.62 LIG-0.27  OA
BRANCH 15 18
ATOM     18  CA  LEU L   7     -20.543 -84.172 -28.193  1.00 55.07 LIG 0.16  C 
BRANCH 18 19
ATOM     19  CB  LEU L   7     -20.138 -84.173 -29.671  1.00 49.39 LIG 0.04  C 
BRANCH 19 20
ATOM     20  CG  LEU L   7     -20.776 -83.075 -30.521  1.00 45.34 LIG-0.02  C 
ATOM     21  CD2 LEU L   7     -20.771 -83.481 -31.999  1.00 40.01 LIG 0.01  C 
ATOM     22  CD1 LEU L   7     -20.020 -81.779 -30.306  1.00 33.03 LIG 0.01  C 
ENDBRANCH 19 20
ENDBRANCH 18 19
BRANCH 18 23
ATOM     23  C   LEU L   7     -19.547 -84.992 -27.377  1.00 52.26 LIG 0.22  C 
ATOM     24 O    LEU L   7     -18.953 -85.942 -27.890  1.00 59.22 LIG-0.29  OA
ENDBRANCH 18 23
ENDBRANCH 15 18
ENDBRANCH 5 14
ENDBRANCH 3 5
BRANCH 1 25
ATOM     25  CA  LYS L   5     -25.229 -79.941 -28.785  1.00 63.64 LIG 0.18  C 
BRANCH 25 26
ATOM     26  N   LYS L   5     -25.511 -78.526 -29.035  1.00 68.83 LIG-0.35  N 
ATOM     27  C   ALA L   4     -25.633 -77.646 -28.041  1.00 74.38 LIG 0.26  C 
ATOM     28 O    ALA L   4     -25.426 -77.936 -26.858  1.00 71.28 LIG-0.27  OA
ATOM     29 H    LYS L   5     -25.588 -78.323 -29.867  1.00 68.83 LIG 0.16  HD
BRANCH 27 30
ATOM     30  CA  ALA L   4     -26.052 -76.224 -28.433  1.00 68.81 LIG 0.40  C 
ATOM     31  N   ALA L   4     -27.379 -75.912 -27.911  1.00 73.56 LIG 0.61  N 
ATOM     32  CB  ALA L   4     -25.024 -75.194 -27.943  1.00 57.48 LIG 0.06  C 
ENDBRANCH 27 30
ENDBRANCH 25 26
BRANCH 25 33
ATOM     33  CB  LYS L   5     -25.837 -80.791 -29.904  1.00 69.62 LIG 0.04  C 
BRANCH 33 34
ATOM     34  CG  LYS L   5     -27.230 -81.320 -29.614  1.00 80.66 LIG 0.00  C 
BRANCH 34 35
ATOM     35  CD  LYS L   5     -27.920 -81.770 -30.898  1.00 85.15 LIG 0.03  C 
BRANCH 35 36
ATOM     36  CE  LYS L   5     -29.435 -81.713 -30.763  1.00 90.30 LIG 0.23  C 
BRANCH 36 37
ATOM     37  NZ  LYS L   5     -30.069 -80.856 -31.808  1.00 90.68 LIG-0.08  N 
ATOM     38 HZ3  LYS L   5     -29.436 -80.459 -32.291  1.00 90.68 LIG 0.27  HD
ATOM     39 HZ2  LYS L   5     -30.575 -80.237 -31.417  1.00 90.68 LIG 0.27  HD
ATOM     40 HZ1  LYS L   5     -30.575 -81.360 -32.340  1.00 90.68 LIG 0.27  HD
ENDBRANCH 36 37
ENDBRANCH 35 36
ENDBRANCH 34 35
ENDBRANCH 33 34
ENDBRANCH 25 33
ENDBRANCH 1 25
TORSDOF 19
ENDMDL
MODEL 12
USER: ADFR SOLUTION from run 172
USER: SCORE 15.191874 LL:  -1.431 LR: -14.563 RR:   0.000 FEB:  -8.895
USER: RMSD 9.058777
USER: SEED 171
USER: STATUS no improvement in best in 2 clusters for 5 generations
USER: GENES 21
USER: genes 0 Translation |==|  0.66122 0.31419 0.55258
USER: genes 1 Rotation |==|  0.54567 0.20434 0.89582 0.56186
USER: genes 2 Torsion [C]-N--CA-[CB] |==|  0.51886
USER: genes 3 Torsion [N]-CA--CB-[CG] |==|  0.62709
USER: genes 4 Torsion [CA]-CB--CG-[CD] |==|  0.56046
USER: genes 5 Torsion [CB]-CG--CD-[CE] |==|  0.90648
USER: genes 6 Torsion [CG]-CD--CE-[NZ] |==|  0.36000
USER: genes 7 Torsion [CD]-CE--NZ-[HZ1] |==|  0.33346
USER: genes 8 Torsion [N]-CA--C-[N] |==|  0.37426
USER: genes 9 Torsion [C]-N--CA-[CB] |==|  0.31888
USER: genes 10 Torsion [N]-CA--CB-[CG] |==|  0.89378
USER: genes 11 Torsion [CA]-CB--CG-[CD2] |==|  0.68351
USER: genes 12 Torsion [N]-CA--C-[O] |==|  0.21001
USER: genes 13 Torsion [N]-C--CA-[N] |==|  0.97965
USER: genes 14 Torsion [C]-CA--N-[C] |==|  0.66667
USER: genes 15 Torsion [N]-C--CA-[N] |==|  0.81367
USER: genes 16 Torsion [C]-CA--CB-[CG] |==|  0.54212
USER: genes 17 Torsion [CA]-CB--CG-[CD] |==|  0.35751
USER: genes 18 Torsion [CB]-CG--CD-[CE] |==|  0.94852
USER: genes 19 Torsion [CG]-CD--CE-[NZ] |==|  0.70198
USER: genes 20 Torsion [CD]-CE--NZ-[HZ2] |==|  0.66164
ROOT
ATOM      1  C   LYS L   5     -21.752 -80.022 -26.559  1.00 61.96 LIG 0.24  C 
ATOM      2 O    LYS L   5     -22.531 -79.187 -27.037  1.00 44.78 LIG-0.27  OA
ATOM      3  N   LYS L   6     -21.230 -81.013 -27.277  1.00 60.12 LIG-0.35  N 
ATOM      4 H    LYS L   6     -20.584 -81.513 -27.008  1.00 60.12 LIG 0.16  HD
ENDROOT
BRANCH 3 5
ATOM      5  CA  LYS L   6     -21.727 -81.332 -28.611  1.00 64.44 LIG 0.18  C 
BRANCH 5 6
ATOM      6  CB  LYS L   6     -21.077 -82.607 -29.150  1.00 71.41 LIG 0.04  C 
BRANCH 6 7
ATOM      7  CG  LYS L   6     -20.598 -82.489 -30.593  1.00 72.05 LIG 0.00  C 
BRANCH 7 8
ATOM      8  CD  LYS L   6     -20.458 -83.849 -31.261  1.00 65.16 LIG 0.03  C 
BRANCH 8 9
ATOM      9  CE  LYS L   6     -20.017 -84.901 -30.254  1.00 70.38 LIG 0.23  C 
BRANCH 9 10
ATOM     10  NZ  LYS L   6     -20.894 -86.106 -30.308  1.00 74.13 LIG-0.08  N 
ATOM     11 HZ2  LYS L   6     -21.279 -86.229 -29.515  1.00 74.13 LIG 0.27  HD
ATOM     12 HZ1  LYS L   6     -20.404 -86.820 -30.514  1.00 74.13 LIG 0.27  HD
ATOM     13 HZ3  LYS L   6     -21.521 -85.989 -30.928  1.00 74.13 LIG 0.27  HD
ENDBRANCH 9 10
ENDBRANCH 8 9
ENDBRANCH 7 8
ENDBRANCH 6 7
ENDBRANCH 5 6
BRANCH 5 14
ATOM     14  C   LYS L   6     -23.235 -81.507 -28.514  1.00 59.21 LIG 0.24  C 
ATOM     15  N   LEU L   7     -23.974 -80.918 -29.448  1.00 55.77 LIG-0.35  N 
ATOM     16 H    LEU L   7     -23.652 -80.498 -30.125  1.00 55.77 LIG 0.16  HD
ATOM     17 O    LYS L   6     -23.724 -82.156 -27.594  1.00 62.62 LIG-0.27  OA
BRANCH 15 18
ATOM     18  CA  LEU L   7     -25.438 -80.945 -29.385  1.00 55.07 LIG 0.16  C 
BRANCH 18 19
ATOM     19  CB  LEU L   7     -25.999 -79.534 -29.183  1.00 49.39 LIG 0.04  C 
BRANCH 19 20
ATOM     20  CG  LEU L   7     -25.191 -78.640 -28.244  1.00 45.34 LIG-0.02  C 
ATOM     21  CD2 LEU L   7     -26.003 -78.325 -26.984  1.00 40.01 LIG 0.01  C 
ATOM     22  CD1 LEU L   7     -24.804 -77.371 -28.978  1.00 33.03 LIG 0.01  C 
ENDBRANCH 19 20
ENDBRANCH 18 19
BRANCH 18 23
ATOM     23  C   LEU L   7     -26.062 -81.584 -30.624  1.00 52.26 LIG 0.22  C 
ATOM     24 O    LEU L   7     -26.039 -82.806 -30.773  1.00 59.22 LIG-0.29  OA
ENDBRANCH 18 23
ENDBRANCH 15 18
ENDBRANCH 5 14
ENDBRANCH 3 5
BRANCH 1 25
ATOM     25  CA  LYS L   5     -21.329 -79.959 -25.083  1.00 63.64 LIG 0.18  C 
BRANCH 25 26
ATOM     26  N   LYS L   5     -20.538 -81.111 -24.648  1.00 68.83 LIG-0.35  N 
ATOM     27  C   ALA L   4     -20.944 -81.912 -23.663  1.00 74.38 LIG 0.26  C 
ATOM     28 O    ALA L   4     -22.046 -81.800 -23.117  1.00 71.28 LIG-0.27  OA
ATOM     29 H    LYS L   5     -19.802 -81.218 -25.080  1.00 68.83 LIG 0.16  HD
BRANCH 27 30
ATOM     30  CA  ALA L   4     -19.964 -83.007 -23.221  1.00 68.81 LIG 0.40  C 
ATOM     31  N   ALA L   4     -19.779 -83.995 -24.279  1.00 73.56 LIG 0.61  N 
ATOM     32  CB  ALA L   4     -18.615 -82.401 -22.808  1.00 57.48 LIG 0.06  C 
ENDBRANCH 27 30
ENDBRANCH 25 26
BRANCH 25 33
ATOM     33  CB  LYS L   5     -20.543 -78.670 -24.826  1.00 69.62 LIG 0.04  C 
BRANCH 33 34
ATOM     34  CG  LYS L   5     -19.766 -78.650 -23.522  1.00 80.66 LIG 0.00  C 
BRANCH 34 35
ATOM     35  CD  LYS L   5     -18.311 -78.257 -23.761  1.00 85.15 LIG 0.03  C 
BRANCH 35 36
ATOM     36  CE  LYS L   5     -17.921 -78.434 -25.222  1.00 90.30 LIG 0.23  C 
BRANCH 36 37
ATOM     37  NZ  LYS L   5     -17.021 -79.605 -25.434  1.00 90.68 LIG-0.08  N 
ATOM     38 HZ3  LYS L   5     -16.844 -79.990 -24.651  1.00 90.68 LIG 0.27  HD
ATOM     39 HZ2  LYS L   5     -16.261 -79.333 -25.808  1.00 90.68 LIG 0.27  HD
ATOM     40 HZ1  LYS L   5     -17.420 -80.194 -25.969  1.00 90.68 LIG 0.27  HD
ENDBRANCH 36 37
ENDBRANCH 35 36
ENDBRANCH 34 35
ENDBRANCH 33 34
ENDBRANCH 25 33
ENDBRANCH 1 25
TORSDOF 19
ENDMDL
MODEL 13
USER: ADFR SOLUTION from run 51
USER: SCORE 14.282737 LL:  -1.044 LR: -14.522 RR:   0.000 FEB:  -8.854
USER: RMSD 6.809003
USER: SEED 50
USER: STATUS no improvement in best in 7 clusters for 5 generations
USER: GENES 21
USER: genes 0 Translation |==|  0.63605 0.29280 0.59985
USER: genes 1 Rotation |==|  0.64494 0.95802 0.62459 0.56072
USER: genes 2 Torsion [C]-N--CA-[CB] |==|  0.51808
USER: genes 3 Torsion [N]-CA--CB-[CG] |==|  0.47308
USER: genes 4 Torsion [CA]-CB--CG-[CD] |==|  0.29889
USER: genes 5 Torsion [CB]-CG--CD-[CE] |==|  0.91668
USER: genes 6 Torsion [CG]-CD--CE-[NZ] |==|  0.23030
USER: genes 7 Torsion [CD]-CE--NZ-[HZ1] |==|  0.00693
USER: genes 8 Torsion [N]-CA--C-[N] |==|  0.87559
USER: genes 9 Torsion [C]-N--CA-[CB] |==|  0.31104
USER: genes 10 Torsion [N]-CA--CB-[CG] |==|  0.88236
USER: genes 11 Torsion [CA]-CB--CG-[CD2] |==|  0.82887
USER: genes 12 Torsion [N]-CA--C-[O] |==|  0.78258
USER: genes 13 Torsion [N]-C--CA-[N] |==|  0.01245
USER: genes 14 Torsion [C]-CA--N-[C] |==|  0.67225
USER: genes 15 Torsion [N]-C--CA-[N] |==|  0.82494
USER: genes 16 Torsion [C]-CA--CB-[CG] |==|  0.69827
USER: genes 17 Torsion [CA]-CB--CG-[CD] |==|  0.30150
USER: genes 18 Torsion [CB]-CG--CD-[CE] |==|  0.69473
USER: genes 19 Torsion [CG]-CD--CE-[NZ] |==|  0.27716
USER: genes 20 Torsion [CD]-CE--NZ-[HZ2] |==|  0.40241
ROOT
ATOM      1  C   LYS L   5     -22.243 -80.487 -25.885  1.00 61.96 LIG 0.24  C 
ATOM      2 O    LYS L   5     -22.918 -80.132 -24.910  1.00 44.78 LIG-0.27  OA
ATOM      3  N   LYS L   6     -20.973 -80.128 -26.051  1.00 60.12 LIG-0.35  N 
ATOM      4 H    LYS L   6     -20.447 -80.475 -26.637  1.00 60.12 LIG 0.16  HD
ENDROOT
BRANCH 3 5
ATOM      5  CA  LYS L   6     -20.360 -79.091 -25.227  1.00 64.44 LIG 0.18  C 
BRANCH 5 6
ATOM      6  CB  LYS L   6     -18.952 -78.756 -25.721  1.00 71.41 LIG 0.04  C 
BRANCH 6 7
ATOM      7  CG  LYS L   6     -18.345 -77.524 -25.057  1.00 72.05 LIG 0.00  C 
BRANCH 7 8
ATOM      8  CD  LYS L   6     -17.241 -77.891 -24.077  1.00 65.16 LIG 0.03  C 
BRANCH 8 9
ATOM      9  CE  LYS L   6     -17.497 -79.259 -23.463  1.00 70.38 LIG 0.23  C 
BRANCH 9 10
ATOM     10  NZ  LYS L   6     -17.021 -80.353 -24.357  1.00 74.13 LIG-0.08  N 
ATOM     11 HZ2  LYS L   6     -16.429 -80.856 -23.922  1.00 74.13 LIG 0.27  HD
ATOM     12 HZ1  LYS L   6     -16.638 -80.001 -25.079  1.00 74.13 LIG 0.27  HD
ATOM     13 HZ3  LYS L   6     -17.712 -80.856 -24.605  1.00 74.13 LIG 0.27  HD
ENDBRANCH 9 10
ENDBRANCH 8 9
ENDBRANCH 7 8
ENDBRANCH 6 7
ENDBRANCH 5 6
BRANCH 5 14
ATOM     14  C   LYS L   6     -21.251 -77.860 -25.294  1.00 59.21 LIG 0.24  C 
ATOM     15  N   LEU L   7     -21.706 -77.506 -26.491  1.00 55.77 LIG-0.35  N 
ATOM     16 H    LEU L   7     -21.575 -77.958 -27.211  1.00 55.77 LIG 0.16  HD
ATOM     17 O    LYS L   6     -21.512 -77.230 -24.274  1.00 62.62 LIG-0.27  OA
BRANCH 15 18
ATOM     18  CA  LEU L   7     -22.489 -76.281 -26.673  1.00 55.07 LIG 0.16  C 
BRANCH 18 19
ATOM     19  CB  LEU L   7     -21.703 -75.250 -27.488  1.00 49.39 LIG 0.04  C 
BRANCH 19 20
ATOM     20  CG  LEU L   7     -20.226 -75.117 -27.119  1.00 45.34 LIG-0.02  C 
ATOM     21  CD2 LEU L   7     -20.083 -74.659 -25.664  1.00 40.01 LIG 0.01  C 
ATOM     22  CD1 LEU L   7     -19.564 -74.139 -28.069  1.00 33.03 LIG 0.01  C 
ENDBRANCH 19 20
ENDBRANCH 18 19
BRANCH 18 23
ATOM     23  C   LEU L   7     -23.842 -76.547 -27.330  1.00 52.26 LIG 0.22  C 
ATOM     24 O    LEU L   7     -23.918 -76.731 -28.546  1.00 59.22 LIG-0.29  OA
ENDBRANCH 18 23
ENDBRANCH 15 18
ENDBRANCH 5 14
ENDBRANCH 3 5
BRANCH 1 25
ATOM     25  CA  LYS L   5     -22.840 -81.388 -26.978  1.00 63.64 LIG 0.18  C 
BRANCH 25 26
ATOM     26  N   LYS L   5     -21.872 -81.800 -27.995  1.00 68.83 LIG-0.35  N 
ATOM     27  C   ALA L   4     -22.013 -81.463 -29.277  1.00 74.38 LIG 0.26  C 
ATOM     28 O    ALA L   4     -22.905 -80.711 -29.680  1.00 71.28 LIG-0.27  OA
ATOM     29 H    LYS L   5     -21.218 -82.269 -27.692  1.00 68.83 LIG 0.16  HD
BRANCH 27 30
ATOM     30  CA  ALA L   4     -20.998 -82.064 -30.258  1.00 68.81 LIG 0.40  C 
ATOM     31  N   ALA L   4     -19.646 -81.606 -29.952  1.00 73.56 LIG 0.61  N 
ATOM     32  CB  ALA L   4     -21.063 -83.598 -30.246  1.00 57.48 LIG 0.06  C 
ENDBRANCH 27 30
ENDBRANCH 25 26
BRANCH 25 33
ATOM     33  CB  LYS L   5     -23.471 -82.628 -26.337  1.00 69.62 LIG 0.04  C 
BRANCH 33 34
ATOM     34  CG  LYS L   5     -22.710 -83.920 -26.573  1.00 80.66 LIG 0.00  C 
BRANCH 34 35
ATOM     35  CD  LYS L   5     -22.031 -84.393 -25.291  1.00 85.15 LIG 0.03  C 
BRANCH 35 36
ATOM     36  CE  LYS L   5     -20.518 -84.249 -25.378  1.00 90.30 LIG 0.23  C 
BRANCH 36 37
ATOM     37  NZ  LYS L   5     -20.021 -83.025 -24.683  1.00 90.68 LIG-0.08  N 
ATOM     38 HZ3  LYS L   5     -19.934 -82.363 -25.271  1.00 90.68 LIG 0.27  HD
ATOM     39 HZ2  LYS L   5     -19.231 -83.195 -24.310  1.00 90.68 LIG 0.27  HD
ATOM     40 HZ1  LYS L   5     -20.601 -82.786 -24.051  1.00 90.68 LIG 0.27  HD
ENDBRANCH 36 37
ENDBRANCH 35 36
ENDBRANCH 34 35
ENDBRANCH 33 34
ENDBRANCH 25 33
ENDBRANCH 1 25
TORSDOF 19
ENDMDL
MODEL 14
USER: ADFR SOLUTION from run 193
USER: SCORE 15.634246 LL:  -1.887 LR: -14.506 RR:   0.000 FEB:  -8.839
USER: RMSD 7.909949
USER: SEED 192
USER: STATUS no improvement in best in 8 clusters for 5 generations
USER: GENES 21
USER: genes 0 Translation |==|  0.64381 0.50613 0.50838
USER: genes 1 Rotation |==|  0.68205 0.36311 0.88564 0.72225
USER: genes 2 Torsion [C]-N--CA-[CB] |==|  0.17763
USER: genes 3 Torsion [N]-CA--CB-[CG] |==|  0.54348
USER: genes 4 Torsion [CA]-CB--CG-[CD] |==|  0.17733
USER: genes 5 Torsion [CB]-CG--CD-[CE] |==|  0.66727
USER: genes 6 Torsion [CG]-CD--CE-[NZ] |==|  0.65387
USER: genes 7 Torsion [CD]-CE--NZ-[HZ1] |==|  0.46179
USER: genes 8 Torsion [N]-CA--C-[N] |==|  0.66659
USER: genes 9 Torsion [C]-N--CA-[CB] |==|  0.40005
USER: genes 10 Torsion [N]-CA--CB-[CG] |==|  0.92318
USER: genes 11 Torsion [CA]-CB--CG-[CD2] |==|  0.81893
USER: genes 12 Torsion [N]-CA--C-[O] |==|  0.92660
USER: genes 13 Torsion [N]-C--CA-[N] |==|  0.47054
USER: genes 14 Torsion [C]-CA--N-[C] |==|  0.63875
USER: genes 15 Torsion [N]-C--CA-[N] |==|  0.30595
USER: genes 16 Torsion [C]-CA--CB-[CG] |==|  0.37299
USER: genes 17 Torsion [CA]-CB--CG-[CD] |==|  0.70589
USER: genes 18 Torsion [CB]-CG--CD-[CE] |==|  0.59158
USER: genes 19 Torsion [CG]-CD--CE-[NZ] |==|  0.66334
USER: genes 20 Torsion [CD]-CE--NZ-[HZ2] |==|  0.24718
ROOT
ATOM      1  C   LYS L   5     -22.092 -75.848 -27.189  1.00 61.96 LIG 0.24  C 
ATOM      2 O    LYS L   5     -23.016 -75.024 -27.236  1.00 44.78 LIG-0.27  OA
ATOM      3  N   LYS L   6     -22.262 -77.138 -27.467  1.00 60.12 LIG-0.35  N 
ATOM      4 H    LYS L   6     -21.616 -77.695 -27.580  1.00 60.12 LIG 0.16  HD
ENDROOT
BRANCH 3 5
ATOM      5  CA  LYS L   6     -23.593 -77.718 -27.607  1.00 64.44 LIG 0.18  C 
BRANCH 5 6
ATOM      6  CB  LYS L   6     -24.338 -77.108 -28.795  1.00 71.41 LIG 0.04  C 
BRANCH 6 7
ATOM      7  CG  LYS L   6     -25.840 -77.375 -28.781  1.00 72.05 LIG 0.00  C 
BRANCH 7 8
ATOM      8  CD  LYS L   6     -26.523 -76.731 -27.585  1.00 65.16 LIG 0.03  C 
BRANCH 8 9
ATOM      9  CE  LYS L   6     -27.199 -77.783 -26.718  1.00 70.38 LIG 0.23  C 
BRANCH 9 10
ATOM     10  NZ  LYS L   6     -28.646 -77.481 -26.525  1.00 74.13 LIG-0.08  N 
ATOM     11 HZ2  LYS L   6     -28.734 -76.799 -25.960  1.00 74.13 LIG 0.27  HD
ATOM     12 HZ1  LYS L   6     -29.057 -78.197 -26.193  1.00 74.13 LIG 0.27  HD
ATOM     13 HZ3  LYS L   6     -29.012 -77.267 -27.308  1.00 74.13 LIG 0.27  HD
ENDBRANCH 9 10
ENDBRANCH 8 9
ENDBRANCH 7 8
ENDBRANCH 6 7
ENDBRANCH 5 6
BRANCH 5 14
ATOM     14  C   LYS L   6     -23.427 -79.218 -27.799  1.00 59.21 LIG 0.24  C 
ATOM     15  N   LEU L   7     -23.902 -79.740 -28.925  1.00 55.77 LIG-0.35  N 
ATOM     16 H    LEU L   7     -24.242 -79.278 -29.566  1.00 55.77 LIG 0.16  HD
ATOM     17 O    LYS L   6     -22.888 -79.896 -26.931  1.00 62.62 LIG-0.27  OA
BRANCH 15 18
ATOM     18  CA  LEU L   7     -23.879 -81.186 -29.159  1.00 55.07 LIG 0.16  C 
BRANCH 18 19
ATOM     19  CB  LEU L   7     -25.126 -81.631 -29.929  1.00 49.39 LIG 0.04  C 
BRANCH 19 20
ATOM     20  CG  LEU L   7     -26.363 -80.759 -29.726  1.00 45.34 LIG-0.02  C 
ATOM     21  CD2 LEU L   7     -26.838 -80.843 -28.271  1.00 40.01 LIG 0.01  C 
ATOM     22  CD1 LEU L   7     -27.450 -81.207 -30.683  1.00 33.03 LIG 0.01  C 
ENDBRANCH 19 20
ENDBRANCH 18 19
BRANCH 18 23
ATOM     23  C   LEU L   7     -22.620 -81.636 -29.897  1.00 52.26 LIG 0.22  C 
ATOM     24 O    LEU L   7     -22.019 -80.856 -30.637  1.00 59.22 LIG-0.29  OA
ENDBRANCH 18 23
ENDBRANCH 15 18
ENDBRANCH 5 14
ENDBRANCH 3 5
BRANCH 1 25
ATOM     25  CA  LYS L   5     -20.666 -75.420 -26.806  1.00 63.64 LIG 0.18  C 
BRANCH 25 26
ATOM     26  N   LYS L   5     -20.483 -73.969 -26.750  1.00 68.83 LIG-0.35  N 
ATOM     27  C   ALA L   4     -19.473 -73.363 -27.375  1.00 74.38 LIG 0.26  C 
ATOM     28 O    ALA L   4     -18.685 -73.961 -28.114  1.00 71.28 LIG-0.27  OA
ATOM     29 H    LYS L   5     -21.077 -73.554 -26.286  1.00 68.83 LIG 0.16  HD
BRANCH 27 30
ATOM     30  CA  ALA L   4     -19.323 -71.855 -27.133  1.00 68.81 LIG 0.40  C 
ATOM     31  N   ALA L   4     -18.136 -71.574 -26.332  1.00 73.56 LIG 0.61  N 
ATOM     32  CB  ALA L   4     -19.271 -71.089 -28.462  1.00 57.48 LIG 0.06  C 
ENDBRANCH 27 30
ENDBRANCH 25 26
BRANCH 25 33
ATOM     33  CB  LYS L   5     -20.286 -76.037 -25.457  1.00 69.62 LIG 0.04  C 
BRANCH 33 34
ATOM     34  CG  LYS L   5     -18.904 -76.661 -25.411  1.00 80.66 LIG 0.00  C 
BRANCH 34 35
ATOM     35  CD  LYS L   5     -18.993 -78.184 -25.422  1.00 85.15 LIG 0.03  C 
BRANCH 35 36
ATOM     36  CE  LYS L   5     -17.866 -78.812 -24.614  1.00 90.30 LIG 0.23  C 
BRANCH 36 37
ATOM     37  NZ  LYS L   5     -17.021 -79.731 -25.432  1.00 90.68 LIG-0.08  N 
ATOM     38 HZ3  LYS L   5     -16.680 -80.366 -24.910  1.00 90.68 LIG 0.27  HD
ATOM     39 HZ2  LYS L   5     -16.359 -79.270 -25.808  1.00 90.68 LIG 0.27  HD
ATOM     40 HZ1  LYS L   5     -17.519 -80.106 -26.068  1.00 90.68 LIG 0.27  HD
ENDBRANCH 36 37
ENDBRANCH 35 36
ENDBRANCH 34 35
ENDBRANCH 33 34
ENDBRANCH 25 33
ENDBRANCH 1 25
TORSDOF 19
ENDMDL
MODEL 15
USER: ADFR SOLUTION from run 165
USER: SCORE 14.892644 LL:  -1.930 LR: -14.503 RR:   0.000 FEB:  -8.836
USER: RMSD 6.975095
USER: SEED 164
USER: STATUS no improvement in best in 4 clusters for 5 generations
USER: GENES 21
USER: genes 0 Translation |==|  0.53705 0.28425 0.46994
USER: genes 1 Rotation |==|  0.63732 0.89312 0.76521 0.57915
USER: genes 2 Torsion [C]-N--CA-[CB] |==|  0.42093
USER: genes 3 Torsion [N]-CA--CB-[CG] |==|  0.27279
USER: genes 4 Torsion [CA]-CB--CG-[CD] |==|  0.37173
USER: genes 5 Torsion [CB]-CG--CD-[CE] |==|  0.37688
USER: genes 6 Torsion [CG]-CD--CE-[NZ] |==|  0.70638
USER: genes 7 Torsion [CD]-CE--NZ-[HZ1] |==|  0.72027
USER: genes 8 Torsion [N]-CA--C-[N] |==|  0.93802
USER: genes 9 Torsion [C]-N--CA-[CB] |==|  0.34298
USER: genes 10 Torsion [N]-CA--CB-[CG] |==|  0.77120
USER: genes 11 Torsion [CA]-CB--CG-[CD2] |==|  0.92329
USER: genes 12 Torsion [N]-CA--C-[O] |==|  0.89547
USER: genes 13 Torsion [N]-C--CA-[N] |==|  0.04414
USER: genes 14 Torsion [C]-CA--N-[C] |==|  0.17222
USER: genes 15 Torsion [N]-C--CA-[N] |==|  0.28890
USER: genes 16 Torsion [C]-CA--CB-[CG] |==|  0.40005
USER: genes 17 Torsion [CA]-CB--CG-[CD] |==|  0.76194
USER: genes 18 Torsion [CB]-CG--CD-[CE] |==|  0.63109
USER: genes 19 Torsion [CG]-CD--CE-[NZ] |==|  0.64336
USER: genes 20 Torsion [CD]-CE--NZ-[HZ2] |==|  0.88626
ROOT
ATOM      1  C   LYS L   5     -24.173 -80.674 -27.736  1.00 61.96 LIG 0.24  C 
ATOM      2 O    LYS L   5     -25.101 -80.839 -26.933  1.00 44.78 LIG-0.27  OA
ATOM      3  N   LYS L   6     -22.935 -80.374 -27.354  1.00 60.12 LIG-0.35  N 
ATOM      4 H    LYS L   6     -22.252 -80.396 -27.876  1.00 60.12 LIG 0.16  HD
ENDROOT
BRANCH 3 5
ATOM      5  CA  LYS L   6     -22.636 -79.976 -25.983  1.00 64.44 LIG 0.18  C 
BRANCH 5 6
ATOM      6  CB  LYS L   6     -21.205 -80.355 -25.599  1.00 71.41 LIG 0.04  C 
BRANCH 6 7
ATOM      7  CG  LYS L   6     -20.211 -79.204 -25.717  1.00 72.05 LIG 0.00  C 
BRANCH 7 8
ATOM      8  CD  LYS L   6     -19.310 -79.100 -24.496  1.00 65.16 LIG 0.03  C 
BRANCH 8 9
ATOM      9  CE  LYS L   6     -17.864 -78.872 -24.911  1.00 70.38 LIG 0.23  C 
BRANCH 9 10
ATOM     10  NZ  LYS L   6     -17.046 -80.106 -24.732  1.00 74.13 LIG-0.08  N 
ATOM     11 HZ2  LYS L   6     -17.583 -80.814 -24.686  1.00 74.13 LIG 0.27  HD
ATOM     12 HZ1  LYS L   6     -16.574 -80.043 -23.980  1.00 74.13 LIG 0.27  HD
ATOM     13 HZ3  LYS L   6     -16.492 -80.197 -25.422  1.00 74.13 LIG 0.27  HD
ENDBRANCH 9 10
ENDBRANCH 8 9
ENDBRANCH 7 8
ENDBRANCH 6 7
ENDBRANCH 5 6
BRANCH 5 14
ATOM     14  C   LYS L   6     -22.828 -78.470 -25.884  1.00 59.21 LIG 0.24  C 
ATOM     15  N   LEU L   7     -22.755 -77.775 -27.015  1.00 55.77 LIG-0.35  N 
ATOM     16 H    LEU L   7     -22.662 -78.128 -27.794  1.00 55.77 LIG 0.16  HD
ATOM     17 O    LYS L   6     -23.027 -77.943 -24.795  1.00 62.62 LIG-0.27  OA
BRANCH 15 18
ATOM     18  CA  LEU L   7     -22.829 -76.313 -27.012  1.00 55.07 LIG 0.16  C 
BRANCH 18 19
ATOM     19  CB  LEU L   7     -21.593 -75.705 -27.683  1.00 49.39 LIG 0.04  C 
BRANCH 19 20
ATOM     20  CG  LEU L   7     -20.359 -75.585 -26.790  1.00 45.34 LIG-0.02  C 
ATOM     21  CD2 LEU L   7     -20.779 -75.447 -25.323  1.00 40.01 LIG 0.01  C 
ATOM     22  CD1 LEU L   7     -19.536 -74.394 -27.239  1.00 33.03 LIG 0.01  C 
ENDBRANCH 19 20
ENDBRANCH 18 19
BRANCH 18 23
ATOM     23  C   LEU L   7     -24.098 -75.792 -27.683  1.00 52.26 LIG 0.22  C 
ATOM     24 O    LEU L   7     -24.550 -76.354 -28.681  1.00 59.22 LIG-0.29  OA
ENDBRANCH 18 23
ENDBRANCH 15 18
ENDBRANCH 5 14
ENDBRANCH 3 5
BRANCH 1 25
ATOM     25  CA  LYS L   5     -24.400 -80.815 -29.250  1.00 63.64 LIG 0.18  C 
BRANCH 25 26
ATOM     26  N   LYS L   5     -23.163 -80.961 -30.018  1.00 68.83 LIG-0.35  N 
ATOM     27  C   ALA L   4     -22.341 -81.995 -29.838  1.00 74.38 LIG 0.26  C 
ATOM     28 O    ALA L   4     -22.605 -82.940 -29.088  1.00 71.28 LIG-0.27  OA
ATOM     29 H    LYS L   5     -23.022 -80.330 -30.586  1.00 68.83 LIG 0.16  HD
BRANCH 27 30
ATOM     30  CA  ALA L   4     -21.020 -81.964 -30.617  1.00 68.81 LIG 0.40  C 
ATOM     31  N   ALA L   4     -19.909 -81.607 -29.740  1.00 73.56 LIG 0.61  N 
ATOM     32  CB  ALA L   4     -20.754 -83.312 -31.302  1.00 57.48 LIG 0.06  C 
ENDBRANCH 27 30
ENDBRANCH 25 26
BRANCH 25 33
ATOM     33  CB  LYS L   5     -25.320 -82.008 -29.525  1.00 69.62 LIG 0.04  C 
BRANCH 33 34
ATOM     34  CG  LYS L   5     -26.282 -81.815 -30.683  1.00 80.66 LIG 0.00  C 
BRANCH 34 35
ATOM     35  CD  LYS L   5     -27.553 -81.109 -30.222  1.00 85.15 LIG 0.03  C 
BRANCH 35 36
ATOM     36  CE  LYS L   5     -28.799 -81.811 -30.744  1.00 90.30 LIG 0.23  C 
BRANCH 36 37
ATOM     37  NZ  LYS L   5     -29.735 -80.875 -31.433  1.00 90.68 LIG-0.08  N 
ATOM     38 HZ3  LYS L   5     -29.440 -80.713 -32.257  1.00 90.68 LIG 0.27  HD
ATOM     39 HZ2  LYS L   5     -29.779 -80.111 -30.979  1.00 90.68 LIG 0.27  HD
ATOM     40 HZ1  LYS L   5     -30.545 -81.243 -31.475  1.00 90.68 LIG 0.27  HD
ENDBRANCH 36 37
ENDBRANCH 35 36
ENDBRANCH 34 35
ENDBRANCH 33 34
ENDBRANCH 25 33
ENDBRANCH 1 25
TORSDOF 19
ENDMDL
MODEL 16
USER: ADFR SOLUTION from run 129
USER: SCORE 14.736666 LL:  -1.398 LR: -14.484 RR:   0.000 FEB:  -8.816
USER: RMSD 5.601460
USER: SEED 128
USER: STATUS no improvement in best in 7 clusters for 5 generations
USER: GENES 21
USER: genes 0 Translation |==|  0.75166 0.51978 0.61676
USER: genes 1 Rotation |==|  0.53951 0.09007 0.69597 0.70492
USER: genes 2 Torsion [C]-N--CA-[CB] |==|  0.88458
USER: genes 3 Torsion [N]-CA--CB-[CG] |==|  0.79983
USER: genes 4 Torsion [CA]-CB--CG-[CD] |==|  0.52180
USER: genes 5 Torsion [CB]-CG--CD-[CE] |==|  0.36097
USER: genes 6 Torsion [CG]-CD--CE-[NZ] |==|  0.80196
USER: genes 7 Torsion [CD]-CE--NZ-[HZ1] |==|  0.57885
USER: genes 8 Torsion [N]-CA--C-[N] |==|  0.75557
USER: genes 9 Torsion [C]-N--CA-[CB] |==|  0.28049
USER: genes 10 Torsion [N]-CA--CB-[CG] |==|  0.11765
USER: genes 11 Torsion [CA]-CB--CG-[CD2] |==|  0.63397
USER: genes 12 Torsion [N]-CA--C-[O] |==|  0.72241
USER: genes 13 Torsion [N]-C--CA-[N] |==|  0.96409
USER: genes 14 Torsion [C]-CA--N-[C] |==|  0.73532
USER: genes 15 Torsion [N]-C--CA-[N] |==|  0.29382
USER: genes 16 Torsion [C]-CA--CB-[CG] |==|  0.60233
USER: genes 17 Torsion [CA]-CB--CG-[CD] |==|  0.71084
USER: genes 18 Torsion [CB]-CG--CD-[CE] |==|  0.35747
USER: genes 19 Torsion [CG]-CD--CE-[NZ] |==|  0.18998
USER: genes 20 Torsion [CD]-CE--NZ-[HZ2] |==|  0.86542
ROOT
ATOM      1  C   LYS L   5     -19.989 -75.551 -25.644  1.00 61.96 LIG 0.24  C 
ATOM      2 O    LYS L   5     -20.060 -74.454 -25.073  1.00 44.78 LIG-0.27  OA
ATOM      3  N   LYS L   6     -20.271 -75.710 -26.935  1.00 60.12 LIG-0.35  N 
ATOM      4 H    LYS L   6     -20.092 -76.422 -27.382  1.00 60.12 LIG 0.16  HD
ENDROOT
BRANCH 3 5
ATOM      5  CA  LYS L   6     -20.921 -74.657 -27.708  1.00 64.44 LIG 0.18  C 
BRANCH 5 6
ATOM      6  CB  LYS L   6     -22.039 -73.994 -26.903  1.00 71.41 LIG 0.04  C 
BRANCH 6 7
ATOM      7  CG  LYS L   6     -23.272 -74.874 -26.724  1.00 72.05 LIG 0.00  C 
BRANCH 7 8
ATOM      8  CD  LYS L   6     -24.427 -74.116 -26.088  1.00 65.16 LIG 0.03  C 
BRANCH 8 9
ATOM      9  CE  LYS L   6     -25.705 -74.307 -26.891  1.00 70.38 LIG 0.23  C 
BRANCH 9 10
ATOM     10  NZ  LYS L   6     -25.646 -73.576 -28.189  1.00 74.13 LIG-0.08  N 
ATOM     11 HZ2  LYS L   6     -25.152 -72.842 -28.095  1.00 74.13 LIG 0.27  HD
ATOM     12 HZ1  LYS L   6     -26.469 -73.350 -28.440  1.00 74.13 LIG 0.27  HD
ATOM     13 HZ3  LYS L   6     -25.282 -74.101 -28.809  1.00 74.13 LIG 0.27  HD
ENDBRANCH 9 10
ENDBRANCH 8 9
ENDBRANCH 7 8
ENDBRANCH 6 7
ENDBRANCH 5 6
BRANCH 5 14
ATOM     14  C   LYS L   6     -19.860 -73.634 -28.082  1.00 59.21 LIG 0.24  C 
ATOM     15  N   LEU L   7     -19.630 -72.654 -27.215  1.00 55.77 LIG-0.35  N 
ATOM     16 H    LEU L   7     -20.002 -72.597 -26.440  1.00 55.77 LIG 0.16  HD
ATOM     17 O    LYS L   6     -19.265 -73.723 -29.152  1.00 62.62 LIG-0.27  OA
BRANCH 15 18
ATOM     18  CA  LEU L   7     -18.700 -71.567 -27.527  1.00 55.07 LIG 0.16  C 
BRANCH 18 19
ATOM     19  CB  LEU L   7     -19.460 -70.308 -27.959  1.00 49.39 LIG 0.04  C 
BRANCH 19 20
ATOM     20  CG  LEU L   7     -20.703 -69.982 -27.134  1.00 45.34 LIG-0.02  C 
ATOM     21  CD2 LEU L   7     -21.889 -69.686 -28.057  1.00 40.01 LIG 0.01  C 
ATOM     22  CD1 LEU L   7     -20.403 -68.802 -26.231  1.00 33.03 LIG 0.01  C 
ENDBRANCH 19 20
ENDBRANCH 18 19
BRANCH 18 23
ATOM     23  C   LEU L   7     -17.771 -71.242 -26.359  1.00 52.26 LIG 0.22  C 
ATOM     24 O    LEU L   7     -18.006 -70.281 -25.625  1.00 59.22 LIG-0.29  OA
ENDBRANCH 18 23
ENDBRANCH 15 18
ENDBRANCH 5 14
ENDBRANCH 3 5
BRANCH 1 25
ATOM     25  CA  LYS L   5     -19.554 -76.814 -24.885  1.00 63.64 LIG 0.18  C 
BRANCH 25 26
ATOM     26  N   LYS L   5     -19.801 -78.056 -25.619  1.00 68.83 LIG-0.35  N 
ATOM     27  C   ALA L   4     -20.904 -78.780 -25.427  1.00 74.38 LIG 0.26  C 
ATOM     28 O    ALA L   4     -21.830 -78.412 -24.696  1.00 71.28 LIG-0.27  OA
ATOM     29 H    LYS L   5     -19.180 -78.268 -26.175  1.00 68.83 LIG 0.16  HD
BRANCH 27 30
ATOM     30  CA  ALA L   4     -20.981 -80.121 -26.167  1.00 68.81 LIG 0.40  C 
ATOM     31  N   ALA L   4     -20.771 -81.234 -25.246  1.00 73.56 LIG 0.61  N 
ATOM     32  CB  ALA L   4     -22.324 -80.271 -26.896  1.00 57.48 LIG 0.06  C 
ENDBRANCH 27 30
ENDBRANCH 25 26
BRANCH 25 33
ATOM     33  CB  LYS L   5     -18.068 -76.717 -24.528  1.00 69.62 LIG 0.04  C 
BRANCH 33 34
ATOM     34  CG  LYS L   5     -17.308 -78.028 -24.609  1.00 80.66 LIG 0.00  C 
BRANCH 34 35
ATOM     35  CD  LYS L   5     -17.046 -78.593 -23.216  1.00 85.15 LIG 0.03  C 
BRANCH 35 36
ATOM     36  CE  LYS L   5     -17.492 -80.045 -23.113  1.00 90.30 LIG 0.23  C 
BRANCH 36 37
ATOM     37  NZ  LYS L   5     -16.646 -80.960 -23.934  1.00 90.68 LIG-0.08  N 
ATOM     38 HZ3  LYS L   5     -15.844 -81.042 -23.557  1.00 90.68 LIG 0.27  HD
ATOM     39 HZ2  LYS L   5     -16.555 -80.627 -24.754  1.00 90.68 LIG 0.27  HD
ATOM     40 HZ1  LYS L   5     -17.034 -81.761 -23.981  1.00 90.68 LIG 0.27  HD
ENDBRANCH 36 37
ENDBRANCH 35 36
ENDBRANCH 34 35
ENDBRANCH 33 34
ENDBRANCH 25 33
ENDBRANCH 1 25
TORSDOF 19
ENDMDL
MODEL 17
USER: ADFR SOLUTION from run 191
USER: SCORE 14.065576 LL:  -1.772 LR: -14.466 RR:   0.000 FEB:  -8.799
USER: RMSD 4.638124
USER: SEED 190
USER: STATUS searching
USER: GENES 21
USER: genes 0 Translation |==|  0.51393 0.43293 0.40843
USER: genes 1 Rotation |==|  0.57355 0.72827 0.48853 0.93858
USER: genes 2 Torsion [C]-N--CA-[CB] |==|  0.33189
USER: genes 3 Torsion [N]-CA--CB-[CG] |==|  0.90550
USER: genes 4 Torsion [CA]-CB--CG-[CD] |==|  0.80744
USER: genes 5 Torsion [CB]-CG--CD-[CE] |==|  0.55063
USER: genes 6 Torsion [CG]-CD--CE-[NZ] |==|  0.51303
USER: genes 7 Torsion [CD]-CE--NZ-[HZ1] |==|  0.45752
USER: genes 8 Torsion [N]-CA--C-[N] |==|  0.19815
USER: genes 9 Torsion [C]-N--CA-[CB] |==|  0.81023
USER: genes 10 Torsion [N]-CA--CB-[CG] |==|  0.70083
USER: genes 11 Torsion [CA]-CB--CG-[CD2] |==|  0.48829
USER: genes 12 Torsion [N]-CA--C-[O] |==|  0.11063
USER: genes 13 Torsion [N]-C--CA-[N] |==|  0.92422
USER: genes 14 Torsion [C]-CA--N-[C] |==|  0.62970
USER: genes 15 Torsion [N]-C--CA-[N] |==|  0.57037
USER: genes 16 Torsion [C]-CA--CB-[CG] |==|  0.36459
USER: genes 17 Torsion [CA]-CB--CG-[CD] |==|  0.46722
USER: genes 18 Torsion [CB]-CG--CD-[CE] |==|  0.45092
USER: genes 19 Torsion [CG]-CD--CE-[NZ] |==|  0.76731
USER: genes 20 Torsion [CD]-CE--NZ-[HZ2] |==|  0.80334
ROOT
ATOM      1  C   LYS L   5     -24.624 -77.440 -28.613  1.00 61.96 LIG 0.24  C 
ATOM      2 O    LYS L   5     -24.896 -76.687 -29.558  1.00 44.78 LIG-0.27  OA
ATOM      3  N   LYS L   6     -24.361 -76.991 -27.388  1.00 60.12 LIG-0.35  N 
ATOM      4 H    LYS L   6     -24.312 -77.494 -26.692  1.00 60.12 LIG 0.16  HD
ENDROOT
BRANCH 3 5
ATOM      5  CA  LYS L   6     -24.131 -75.574 -27.129  1.00 64.44 LIG 0.18  C 
BRANCH 5 6
ATOM      6  CB  LYS L   6     -25.164 -75.019 -26.147  1.00 71.41 LIG 0.04  C 
BRANCH 6 7
ATOM      7  CG  LYS L   6     -26.544 -75.654 -26.285  1.00 72.05 LIG 0.00  C 
BRANCH 7 8
ATOM      8  CD  LYS L   6     -27.228 -75.255 -27.583  1.00 65.16 LIG 0.03  C 
BRANCH 8 9
ATOM      9  CE  LYS L   6     -28.726 -75.511 -27.505  1.00 70.38 LIG 0.23  C 
BRANCH 9 10
ATOM     10  NZ  LYS L   6     -29.395 -75.231 -28.808  1.00 74.13 LIG-0.08  N 
ATOM     11 HZ2  LYS L   6     -29.460 -74.351 -28.925  1.00 74.13 LIG 0.27  HD
ATOM     12 HZ1  LYS L   6     -30.208 -75.591 -28.807  1.00 74.13 LIG 0.27  HD
ATOM     13 HZ3  LYS L   6     -28.916 -75.584 -29.470  1.00 74.13 LIG 0.27  HD
ENDBRANCH 9 10
ENDBRANCH 8 9
ENDBRANCH 7 8
ENDBRANCH 6 7
ENDBRANCH 5 6
BRANCH 5 14
ATOM     14  C   LYS L   6     -22.728 -75.430 -26.558  1.00 59.21 LIG 0.24  C 
ATOM     15  N   LEU L   7     -21.712 -75.624 -27.393  1.00 55.77 LIG-0.35  N 
ATOM     16 H    LEU L   7     -21.800 -75.768 -28.236  1.00 55.77 LIG 0.16  HD
ATOM     17 O    LYS L   6     -22.568 -75.160 -25.372  1.00 62.62 LIG-0.27  OA
BRANCH 15 18
ATOM     18  CA  LEU L   7     -20.326 -75.604 -26.918  1.00 55.07 LIG 0.16  C 
BRANCH 18 19
ATOM     19  CB  LEU L   7     -19.922 -74.192 -26.480  1.00 49.39 LIG 0.04  C 
BRANCH 19 20
ATOM     20  CG  LEU L   7     -18.952 -73.473 -27.416  1.00 45.34 LIG-0.02  C 
ATOM     21  CD2 LEU L   7     -18.709 -72.042 -26.927  1.00 40.01 LIG 0.01  C 
ATOM     22  CD1 LEU L   7     -19.519 -73.483 -28.822  1.00 33.03 LIG 0.01  C 
ENDBRANCH 19 20
ENDBRANCH 18 19
BRANCH 18 23
ATOM     23  C   LEU L   7     -20.086 -76.594 -25.780  1.00 52.26 LIG 0.22  C 
ATOM     24 O    LEU L   7     -20.609 -77.709 -25.804  1.00 59.22 LIG-0.29  OA
ENDBRANCH 18 23
ENDBRANCH 15 18
ENDBRANCH 5 14
ENDBRANCH 3 5
BRANCH 1 25
ATOM     25  CA  LYS L   5     -24.582 -78.964 -28.800  1.00 63.64 LIG 0.18  C 
BRANCH 25 26
ATOM     26  N   LYS L   5     -23.691 -79.648 -27.862  1.00 68.83 LIG-0.35  N 
ATOM     27  C   ALA L   4     -22.823 -80.576 -28.265  1.00 74.38 LIG 0.26  C 
ATOM     28 O    ALA L   4     -22.643 -80.856 -29.454  1.00 71.28 LIG-0.27  OA
ATOM     29 H    LYS L   5     -23.779 -79.397 -27.043  1.00 68.83 LIG 0.16  HD
BRANCH 27 30
ATOM     30  CA  ALA L   4     -22.038 -81.303 -27.166  1.00 68.81 LIG 0.40  C 
ATOM     31  N   ALA L   4     -20.771 -81.812 -27.683  1.00 73.56 LIG 0.61  N 
ATOM     32  CB  ALA L   4     -21.796 -80.381 -25.962  1.00 57.48 LIG 0.06  C 
ENDBRANCH 27 30
ENDBRANCH 25 26
BRANCH 25 33
ATOM     33  CB  LYS L   5     -25.996 -79.539 -28.675  1.00 69.62 LIG 0.04  C 
BRANCH 33 34
ATOM     34  CG  LYS L   5     -26.395 -80.492 -29.787  1.00 80.66 LIG 0.00  C 
BRANCH 34 35
ATOM     35  CD  LYS L   5     -27.682 -81.231 -29.436  1.00 85.15 LIG 0.03  C 
BRANCH 35 36
ATOM     36  CE  LYS L   5     -28.325 -81.845 -30.672  1.00 90.30 LIG 0.23  C 
BRANCH 36 37
ATOM     37  NZ  LYS L   5     -29.171 -80.869 -31.419  1.00 90.68 LIG-0.08  N 
ATOM     38 HZ3  LYS L   5     -28.713 -80.116 -31.547  1.00 90.68 LIG 0.27  HD
ATOM     39 HZ2  LYS L   5     -29.906 -80.692 -30.951  1.00 90.68 LIG 0.27  HD
ATOM     40 HZ1  LYS L   5     -29.398 -81.215 -32.208  1.00 90.68 LIG 0.27  HD
ENDBRANCH 36 37
ENDBRANCH 35 36
ENDBRANCH 34 35
ENDBRANCH 33 34
ENDBRANCH 25 33
ENDBRANCH 1 25
TORSDOF 19
ENDMDL
MODEL 18
USER: ADFR SOLUTION from run 187
USER: SCORE 15.805056 LL:  -1.736 LR: -14.443 RR:   0.000 FEB:  -8.775
USER: RMSD 6.231961
USER: SEED 186
USER: STATUS no improvement in best in 6 clusters for 5 generations
USER: GENES 21
USER: genes 0 Translation |==|  0.58186 0.41368 0.53957
USER: genes 1 Rotation |==|  0.54477 0.38372 0.23249 0.90362
USER: genes 2 Torsion [C]-N--CA-[CB] |==|  0.88329
USER: genes 3 Torsion [N]-CA--CB-[CG] |==|  0.36916
USER: genes 4 Torsion [CA]-CB--CG-[CD] |==|  0.58021
USER: genes 5 Torsion [CB]-CG--CD-[CE] |==|  0.62683
USER: genes 6 Torsion [CG]-CD--CE-[NZ] |==|  0.48463
USER: genes 7 Torsion [CD]-CE--NZ-[HZ1] |==|  0.28829
USER: genes 8 Torsion [N]-CA--C-[N] |==|  0.36319
USER: genes 9 Torsion [C]-N--CA-[CB] |==|  0.49109
USER: genes 10 Torsion [N]-CA--CB-[CG] |==|  0.39154
USER: genes 11 Torsion [CA]-CB--CG-[CD2] |==|  0.58683
USER: genes 12 Torsion [N]-CA--C-[O] |==|  0.85902
USER: genes 13 Torsion [N]-C--CA-[N] |==|  0.09487
USER: genes 14 Torsion [C]-CA--N-[C] |==|  0.15054
USER: genes 15 Torsion [N]-C--CA-[N] |==|  0.91113
USER: genes 16 Torsion [C]-CA--CB-[CG] |==|  0.23321
USER: genes 17 Torsion [CA]-CB--CG-[CD] |==|  0.70710
USER: genes 18 Torsion [CB]-CG--CD-[CE] |==|  0.38065
USER: genes 19 Torsion [CG]-CD--CE-[NZ] |==|  0.68334
USER: genes 20 Torsion [CD]-CE--NZ-[HZ2] |==|  0.43065
ROOT
ATOM      1  C   LYS L   5     -23.300 -77.859 -26.744  1.00 61.96 LIG 0.24  C 
ATOM      2 O    LYS L   5     -22.274 -78.384 -27.199  1.00 44.78 LIG-0.27  OA
ATOM      3  N   LYS L   6     -23.275 -76.747 -26.013  1.00 60.12 LIG-0.35  N 
ATOM      4 H    LYS L   6     -23.975 -76.289 -25.810  1.00 60.12 LIG 0.16  HD
ENDROOT
BRANCH 3 5
ATOM      5  CA  LYS L   6     -22.026 -76.208 -25.487  1.00 64.44 LIG 0.18  C 
BRANCH 5 6
ATOM      6  CB  LYS L   6     -21.131 -77.323 -24.944  1.00 71.41 LIG 0.04  C 
BRANCH 6 7
ATOM      7  CG  LYS L   6     -19.682 -77.229 -25.411  1.00 72.05 LIG 0.00  C 
BRANCH 7 8
ATOM      8  CD  LYS L   6     -19.016 -78.595 -25.482  1.00 65.16 LIG 0.03  C 
BRANCH 8 9
ATOM      9  CE  LYS L   6     -17.633 -78.555 -24.851  1.00 70.38 LIG 0.23  C 
BRANCH 9 10
ATOM     10  NZ  LYS L   6     -17.021 -79.913 -24.794  1.00 74.13 LIG-0.08  N 
ATOM     11 HZ2  LYS L   6     -16.641 -80.035 -23.998  1.00 74.13 LIG 0.27  HD
ATOM     12 HZ1  LYS L   6     -16.404 -79.988 -25.431  1.00 74.13 LIG 0.27  HD
ATOM     13 HZ3  LYS L   6     -17.652 -80.528 -24.919  1.00 74.13 LIG 0.27  HD
ENDBRANCH 9 10
ENDBRANCH 8 9
ENDBRANCH 7 8
ENDBRANCH 6 7
ENDBRANCH 5 6
BRANCH 5 14
ATOM     14  C   LYS L   6     -21.326 -75.471 -26.619  1.00 59.21 LIG 0.24  C 
ATOM     15  N   LEU L   7     -20.890 -74.242 -26.363  1.00 55.77 LIG-0.35  N 
ATOM     16 H    LEU L   7     -20.929 -73.867 -25.590  1.00 55.77 LIG 0.16  HD
ATOM     17 O    LYS L   6     -21.196 -76.005 -27.716  1.00 62.62 LIG-0.27  OA
BRANCH 15 18
ATOM     18  CA  LEU L   7     -20.292 -73.416 -27.414  1.00 55.07 LIG 0.16  C 
BRANCH 18 19
ATOM     19  CB  LEU L   7     -19.947 -72.022 -26.879  1.00 49.39 LIG 0.04  C 
BRANCH 19 20
ATOM     20  CG  LEU L   7     -18.633 -71.435 -27.390  1.00 45.34 LIG-0.02  C 
ATOM     21  CD2 LEU L   7     -18.009 -70.528 -26.324  1.00 40.01 LIG 0.01  C 
ATOM     22  CD1 LEU L   7     -18.896 -70.672 -28.673  1.00 33.03 LIG 0.01  C 
ENDBRANCH 19 20
ENDBRANCH 18 19
BRANCH 18 23
ATOM     23  C   LEU L   7     -19.053 -74.062 -28.029  1.00 52.26 LIG 0.22  C 
ATOM     24 O    LEU L   7     -18.146 -74.481 -27.308  1.00 59.22 LIG-0.29  OA
ENDBRANCH 18 23
ENDBRANCH 15 18
ENDBRANCH 5 14
ENDBRANCH 3 5
BRANCH 1 25
ATOM     25  CA  LYS L   5     -24.686 -78.465 -27.009  1.00 63.64 LIG 0.18  C 
BRANCH 25 26
ATOM     26  N   LYS L   5     -25.747 -77.467 -27.152  1.00 68.83 LIG-0.35  N 
ATOM     27  C   ALA L   4     -25.659 -76.466 -28.028  1.00 74.38 LIG 0.26  C 
ATOM     28 O    ALA L   4     -24.733 -76.362 -28.838  1.00 71.28 LIG-0.27  OA
ATOM     29 H    LYS L   5     -26.419 -77.587 -26.627  1.00 68.83 LIG 0.16  HD
BRANCH 27 30
ATOM     30  CA  ALA L   4     -26.780 -75.420 -27.988  1.00 68.81 LIG 0.40  C 
ATOM     31  N   ALA L   4     -28.045 -76.030 -27.590  1.00 73.56 LIG 0.61  N 
ATOM     32  CB  ALA L   4     -26.420 -74.263 -27.045  1.00 57.48 LIG 0.06  C 
ENDBRANCH 27 30
ENDBRANCH 25 26
BRANCH 25 33
ATOM     33  CB  LYS L   5     -24.635 -79.342 -28.264  1.00 69.62 LIG 0.04  C 
BRANCH 33 34
ATOM     34  CG  LYS L   5     -24.146 -80.759 -28.029  1.00 80.66 LIG 0.00  C 
BRANCH 34 35
ATOM     35  CD  LYS L   5     -22.722 -80.937 -28.545  1.00 85.15 LIG 0.03  C 
BRANCH 35 36
ATOM     36  CE  LYS L   5     -21.870 -81.729 -27.564  1.00 90.30 LIG 0.23  C 
BRANCH 36 37
ATOM     37  NZ  LYS L   5     -20.771 -80.911 -26.972  1.00 90.68 LIG-0.08  N 
ATOM     38 HZ3  LYS L   5     -20.068 -80.918 -27.517  1.00 90.68 LIG 0.27  HD
ATOM     39 HZ2  LYS L   5     -20.538 -81.252 -26.184  1.00 90.68 LIG 0.27  HD
ATOM     40 HZ1  LYS L   5     -21.051 -80.073 -26.861  1.00 90.68 LIG 0.27  HD
ENDBRANCH 36 37
ENDBRANCH 35 36
ENDBRANCH 34 35
ENDBRANCH 33 34
ENDBRANCH 25 33
ENDBRANCH 1 25
TORSDOF 19
ENDMDL
MODEL 19
USER: ADFR SOLUTION from run 54
USER: SCORE 14.883615 LL:  -1.738 LR: -14.436 RR:   0.000 FEB:  -8.768
USER: RMSD 5.980613
USER: SEED 53
USER: STATUS no improvement in best in 4 clusters for 5 generations
USER: GENES 21
USER: genes 0 Translation |==|  0.59826 0.28950 0.44769
USER: genes 1 Rotation |==|  0.29300 0.54866 0.63892 0.93068
USER: genes 2 Torsion [C]-N--CA-[CB] |==|  0.38994
USER: genes 3 Torsion [N]-CA--CB-[CG] |==|  0.79411
USER: genes 4 Torsion [CA]-CB--CG-[CD] |==|  0.75666
USER: genes 5 Torsion [CB]-CG--CD-[CE] |==|  0.59017
USER: genes 6 Torsion [CG]-CD--CE-[NZ] |==|  0.33250
USER: genes 7 Torsion [CD]-CE--NZ-[HZ1] |==|  0.47060
USER: genes 8 Torsion [N]-CA--C-[N] |==|  0.91001
USER: genes 9 Torsion [C]-N--CA-[CB] |==|  0.34079
USER: genes 10 Torsion [N]-CA--CB-[CG] |==|  0.73564
USER: genes 11 Torsion [CA]-CB--CG-[CD2] |==|  0.16244
USER: genes 12 Torsion [N]-CA--C-[O] |==|  0.14499
USER: genes 13 Torsion [N]-C--CA-[N] |==|  0.47059
USER: genes 14 Torsion [C]-CA--N-[C] |==|  0.79444
USER: genes 15 Torsion [N]-C--CA-[N] |==|  0.27384
USER: genes 16 Torsion [C]-CA--CB-[CG] |==|  0.54704
USER: genes 17 Torsion [CA]-CB--CG-[CD] |==|  0.40088
USER: genes 18 Torsion [CB]-CG--CD-[CE] |==|  0.51593
USER: genes 19 Torsion [CG]-CD--CE-[NZ] |==|  0.28245
USER: genes 20 Torsion [CD]-CE--NZ-[HZ2] |==|  0.57432
ROOT
ATOM      1  C   LYS L   5     -22.980 -80.559 -28.053  1.00 61.96 LIG 0.24  C 
ATOM      2 O    LYS L   5     -22.613 -80.783 -29.215  1.00 44.78 LIG-0.27  OA
ATOM      3  N   LYS L   6     -24.111 -79.919 -27.766  1.00 60.12 LIG-0.35  N 
ATOM      4 H    LYS L   6     -24.454 -79.879 -26.979  1.00 60.12 LIG 0.16  HD
ENDROOT
BRANCH 3 5
ATOM      5  CA  LYS L   6     -24.872 -79.219 -28.795  1.00 64.44 LIG 0.18  C 
BRANCH 5 6
ATOM      6  CB  LYS L   6     -26.376 -79.418 -28.597  1.00 71.41 LIG 0.04  C 
BRANCH 6 7
ATOM      7  CG  LYS L   6     -26.868 -80.808 -28.986  1.00 72.05 LIG 0.00  C 
BRANCH 7 8
ATOM      8  CD  LYS L   6     -27.230 -80.893 -30.461  1.00 65.16 LIG 0.03  C 
BRANCH 8 9
ATOM      9  CE  LYS L   6     -28.377 -81.868 -30.680  1.00 70.38 LIG 0.23  C 
BRANCH 9 10
ATOM     10  NZ  LYS L   6     -29.556 -81.192 -31.292  1.00 74.13 LIG-0.08  N 
ATOM     11 HZ2  LYS L   6     -29.931 -80.650 -30.694  1.00 74.13 LIG 0.27  HD
ATOM     12 HZ1  LYS L   6     -30.149 -81.805 -31.549  1.00 74.13 LIG 0.27  HD
ATOM     13 HZ3  LYS L   6     -29.294 -80.720 -31.998  1.00 74.13 LIG 0.27  HD
ENDBRANCH 9 10
ENDBRANCH 8 9
ENDBRANCH 7 8
ENDBRANCH 6 7
ENDBRANCH 5 6
BRANCH 5 14
ATOM     14  C   LYS L   6     -24.518 -77.743 -28.710  1.00 59.21 LIG 0.24  C 
ATOM     15  N   LEU L   7     -24.228 -77.257 -27.508  1.00 55.77 LIG-0.35  N 
ATOM     16 H    LEU L   7     -24.174 -77.735 -26.794  1.00 55.77 LIG 0.16  HD
ATOM     17 O    LYS L   6     -24.521 -77.048 -29.721  1.00 62.62 LIG-0.27  OA
BRANCH 15 18
ATOM     18  CA  LEU L   7     -23.970 -75.829 -27.308  1.00 55.07 LIG 0.16  C 
BRANCH 18 19
ATOM     19  CB  LEU L   7     -24.933 -75.244 -26.270  1.00 49.39 LIG 0.04  C 
BRANCH 19 20
ATOM     20  CG  LEU L   7     -26.184 -74.581 -26.843  1.00 45.34 LIG-0.02  C 
ATOM     21  CD2 LEU L   7     -26.978 -75.587 -27.682  1.00 40.01 LIG 0.01  C 
ATOM     22  CD1 LEU L   7     -25.775 -73.379 -27.671  1.00 33.03 LIG 0.01  C 
ENDBRANCH 19 20
ENDBRANCH 18 19
BRANCH 18 23
ATOM     23  C   LEU L   7     -22.526 -75.550 -26.899  1.00 52.26 LIG 0.22  C 
ATOM     24 O    LEU L   7     -21.592 -75.999 -27.564  1.00 59.22 LIG-0.29  OA
ENDBRANCH 18 23
ENDBRANCH 15 18
ENDBRANCH 5 14
ENDBRANCH 3 5
BRANCH 1 25
ATOM     25  CA  LYS L   5     -22.140 -81.023 -26.853  1.00 63.64 LIG 0.18  C 
BRANCH 25 26
ATOM     26  N   LYS L   5     -21.046 -81.926 -27.214  1.00 68.83 LIG-0.35  N 
ATOM     27  C   ALA L   4     -21.266 -83.196 -27.555  1.00 74.38 LIG 0.26  C 
ATOM     28 O    ALA L   4     -22.398 -83.671 -27.682  1.00 71.28 LIG-0.27  OA
ATOM     29 H    LYS L   5     -20.266 -81.565 -27.185  1.00 68.83 LIG 0.16  HD
BRANCH 27 30
ATOM     30  CA  ALA L   4     -20.025 -84.067 -27.788  1.00 68.81 LIG 0.40  C 
ATOM     31  N   ALA L   4     -19.725 -84.870 -26.606  1.00 73.56 LIG 0.61  N 
ATOM     32  CB  ALA L   4     -20.208 -84.966 -29.019  1.00 57.48 LIG 0.06  C 
ENDBRANCH 27 30
ENDBRANCH 25 26
BRANCH 25 33
ATOM     33  CB  LYS L   5     -21.578 -79.805 -26.115  1.00 69.62 LIG 0.04  C 
BRANCH 33 34
ATOM     34  CG  LYS L   5     -20.425 -80.108 -25.175  1.00 80.66 LIG 0.00  C 
BRANCH 34 35
ATOM     35  CD  LYS L   5     -19.409 -78.970 -25.174  1.00 85.15 LIG 0.03  C 
BRANCH 35 36
ATOM     36  CE  LYS L   5     -18.182 -79.323 -24.345  1.00 90.30 LIG 0.23  C 
BRANCH 36 37
ATOM     37  NZ  LYS L   5     -17.021 -79.731 -25.189  1.00 90.68 LIG-0.08  N 
ATOM     38 HZ3  LYS L   5     -17.316 -80.153 -25.915  1.00 90.68 LIG 0.27  HD
ATOM     39 HZ2  LYS L   5     -16.492 -80.274 -24.724  1.00 90.68 LIG 0.27  HD
ATOM     40 HZ1  LYS L   5     -16.562 -79.007 -25.433  1.00 90.68 LIG 0.27  HD
ENDBRANCH 36 37
ENDBRANCH 35 36
ENDBRANCH 34 35
ENDBRANCH 33 34
ENDBRANCH 25 33
ENDBRANCH 1 25
TORSDOF 19
ENDMDL
MODEL 20
USER: ADFR SOLUTION from run 84
USER: SCORE 14.434366 LL:  -1.004 LR: -14.433 RR:   0.000 FEB:  -8.765
USER: RMSD 6.428748
USER: SEED 83
USER: STATUS searching
USER: GENES 21
USER: genes 0 Translation |==|  0.56344 0.46501 0.46627
USER: genes 1 Rotation |==|  0.61447 0.46382 0.18772 0.87158
USER: genes 2 Torsion [C]-N--CA-[CB] |==|  0.85169
USER: genes 3 Torsion [N]-CA--CB-[CG] |==|  0.49752
USER: genes 4 Torsion [CA]-CB--CG-[CD] |==|  0.53137
USER: genes 5 Torsion [CB]-CG--CD-[CE] |==|  0.49725
USER: genes 6 Torsion [CG]-CD--CE-[NZ] |==|  0.54795
USER: genes 7 Torsion [CD]-CE--NZ-[HZ1] |==|  0.02348
USER: genes 8 Torsion [N]-CA--C-[N] |==|  0.31707
USER: genes 9 Torsion [C]-N--CA-[CB] |==|  0.49728
USER: genes 10 Torsion [N]-CA--CB-[CG] |==|  0.40071
USER: genes 11 Torsion [CA]-CB--CG-[CD2] |==|  0.54112
USER: genes 12 Torsion [N]-CA--C-[O] |==|  0.92606
USER: genes 13 Torsion [N]-C--CA-[N] |==|  0.78366
USER: genes 14 Torsion [C]-CA--N-[C] |==|  0.64577
USER: genes 15 Torsion [N]-C--CA-[N] |==|  0.22536
USER: genes 16 Torsion [C]-CA--CB-[CG] |==|  0.63370
USER: genes 17 Torsion [CA]-CB--CG-[CD] |==|  0.61519
USER: genes 18 Torsion [CB]-CG--CD-[CE] |==|  0.46405
USER: genes 19 Torsion [CG]-CD--CE-[NZ] |==|  0.62945
USER: genes 20 Torsion [CD]-CE--NZ-[HZ2] |==|  0.58801
ROOT
ATOM      1  C   LYS L   5     -23.659 -76.742 -27.789  1.00 61.96 LIG 0.24  C 
ATOM      2 O    LYS L   5     -22.748 -77.107 -28.544  1.00 44.78 LIG-0.27  OA
ATOM      3  N   LYS L   6     -23.434 -76.077 -26.658  1.00 60.12 LIG-0.35  N 
ATOM      4 H    LYS L   6     -24.049 -75.692 -26.196  1.00 60.12 LIG 0.16  HD
ENDROOT
BRANCH 3 5
ATOM      5  CA  LYS L   6     -22.090 -75.947 -26.105  1.00 64.44 LIG 0.18  C 
BRANCH 5 6
ATOM      6  CB  LYS L   6     -21.425 -77.315 -25.949  1.00 71.41 LIG 0.04  C 
BRANCH 6 7
ATOM      7  CG  LYS L   6     -20.006 -77.249 -25.394  1.00 72.05 LIG 0.00  C 
BRANCH 7 8
ATOM      8  CD  LYS L   6     -19.285 -78.583 -25.510  1.00 65.16 LIG 0.03  C 
BRANCH 8 9
ATOM      9  CE  LYS L   6     -17.866 -78.478 -24.971  1.00 70.38 LIG 0.23  C 
BRANCH 9 10
ATOM     10  NZ  LYS L   6     -17.021 -79.614 -25.439  1.00 74.13 LIG-0.08  N 
ATOM     11 HZ2  LYS L   6     -16.271 -79.298 -25.799  1.00 74.13 LIG 0.27  HD
ATOM     12 HZ1  LYS L   6     -17.467 -80.084 -26.049  1.00 74.13 LIG 0.27  HD
ATOM     13 HZ3  LYS L   6     -16.821 -80.139 -24.749  1.00 74.13 LIG 0.27  HD
ENDBRANCH 9 10
ENDBRANCH 8 9
ENDBRANCH 7 8
ENDBRANCH 6 7
ENDBRANCH 5 6
BRANCH 5 14
ATOM     14  C   LYS L   6     -21.282 -75.071 -27.051  1.00 59.21 LIG 0.24  C 
ATOM     15  N   LEU L   7     -20.885 -73.890 -26.591  1.00 55.77 LIG-0.35  N 
ATOM     16 H    LEU L   7     -21.007 -73.619 -25.784  1.00 55.77 LIG 0.16  HD
ATOM     17 O    LYS L   6     -21.034 -75.456 -28.189  1.00 62.62 LIG-0.27  OA
BRANCH 15 18
ATOM     18  CA  LEU L   7     -20.188 -72.935 -27.456  1.00 55.07 LIG 0.16  C 
BRANCH 18 19
ATOM     19  CB  LEU L   7     -19.862 -71.647 -26.692  1.00 49.39 LIG 0.04  C 
BRANCH 19 20
ATOM     20  CG  LEU L   7     -18.535 -70.988 -27.061  1.00 45.34 LIG-0.02  C 
ATOM     21  CD2 LEU L   7     -18.148 -69.948 -26.005  1.00 40.01 LIG 0.01  C 
ATOM     22  CD1 LEU L   7     -18.659 -70.356 -28.433  1.00 33.03 LIG 0.01  C 
ENDBRANCH 19 20
ENDBRANCH 18 19
BRANCH 18 23
ATOM     23  C   LEU L   7     -18.914 -73.520 -28.061  1.00 52.26 LIG 0.22  C 
ATOM     24 O    LEU L   7     -18.307 -74.422 -27.483  1.00 59.22 LIG-0.29  OA
ENDBRANCH 18 23
ENDBRANCH 15 18
ENDBRANCH 5 14
ENDBRANCH 3 5
BRANCH 1 25
ATOM     25  CA  LYS L   5     -25.131 -77.034 -28.121  1.00 63.64 LIG 0.18  C 
BRANCH 25 26
ATOM     26  N   LYS L   5     -25.695 -78.149 -27.360  1.00 68.83 LIG-0.35  N 
ATOM     27  C   ALA L   4     -26.313 -79.168 -27.959  1.00 74.38 LIG 0.26  C 
ATOM     28 O    ALA L   4     -26.369 -79.292 -29.186  1.00 71.28 LIG-0.27  OA
ATOM     29 H    LYS L   5     -25.592 -78.085 -26.509  1.00 68.83 LIG 0.16  HD
BRANCH 27 30
ATOM     30  CA  ALA L   4     -26.969 -80.207 -27.040  1.00 68.81 LIG 0.40  C 
ATOM     31  N   ALA L   4     -28.274 -79.743 -26.580  1.00 73.56 LIG 0.61  N 
ATOM     32  CB  ALA L   4     -27.098 -81.563 -27.748  1.00 57.48 LIG 0.06  C 
ENDBRANCH 27 30
ENDBRANCH 25 26
BRANCH 25 33
ATOM     33  CB  LYS L   5     -25.972 -75.776 -27.888  1.00 69.62 LIG 0.04  C 
BRANCH 33 34
ATOM     34  CG  LYS L   5     -27.238 -75.999 -27.081  1.00 80.66 LIG 0.00  C 
BRANCH 34 35
ATOM     35  CD  LYS L   5     -28.405 -75.213 -27.670  1.00 85.15 LIG 0.03  C 
BRANCH 35 36
ATOM     36  CE  LYS L   5     -29.733 -75.664 -27.079  1.00 90.30 LIG 0.23  C 
BRANCH 36 37
ATOM     37  NZ  LYS L   5     -30.778 -75.880 -28.123  1.00 90.68 LIG-0.08  N 
ATOM     38 HZ3  LYS L   5     -30.616 -75.351 -28.820  1.00 90.68 LIG 0.27  HD
ATOM     39 HZ2  LYS L   5     -31.579 -75.689 -27.786  1.00 90.68 LIG 0.27  HD
ATOM     40 HZ1  LYS L   5     -30.763 -76.731 -28.386  1.00 90.68 LIG 0.27  HD
ENDBRANCH 36 37
ENDBRANCH 35 36
ENDBRANCH 34 35
ENDBRANCH 33 34
ENDBRANCH 25 33
ENDBRANCH 1 25
TORSDOF 19
ENDMDL
MODEL 21
USER: ADFR SOLUTION from run 187
USER: SCORE 15.141854 LL:  -1.763 LR: -14.394 RR:   0.000 FEB:  -8.726
USER: RMSD 7.363371
USER: SEED 186
USER: STATUS no improvement in best in 6 clusters for 5 generations
USER: GENES 21
USER: genes 0 Translation |==|  0.62896 0.52215 0.51489
USER: genes 1 Rotation |==|  0.56385 0.48387 0.15855 0.85927
USER: genes 2 Torsion [C]-N--CA-[CB] |==|  0.87423
USER: genes 3 Torsion [N]-CA--CB-[CG] |==|  0.64201
USER: genes 4 Torsion [CA]-CB--CG-[CD] |==|  0.61046
USER: genes 5 Torsion [CB]-CG--CD-[CE] |==|  0.70091
USER: genes 6 Torsion [CG]-CD--CE-[NZ] |==|  0.44119
USER: genes 7 Torsion [CD]-CE--NZ-[HZ1] |==|  0.39763
USER: genes 8 Torsion [N]-CA--C-[N] |==|  0.31200
USER: genes 9 Torsion [C]-N--CA-[CB] |==|  0.19697
USER: genes 10 Torsion [N]-CA--CB-[CG] |==|  0.14020
USER: genes 11 Torsion [CA]-CB--CG-[CD2] |==|  0.73508
USER: genes 12 Torsion [N]-CA--C-[O] |==|  0.95146
USER: genes 13 Torsion [N]-C--CA-[N] |==|  0.22915
USER: genes 14 Torsion [C]-CA--N-[C] |==|  0.70308
USER: genes 15 Torsion [N]-C--CA-[N] |==|  0.36773
USER: genes 16 Torsion [C]-CA--CB-[CG] |==|  0.55691
USER: genes 17 Torsion [CA]-CB--CG-[CD] |==|  0.83712
USER: genes 18 Torsion [CB]-CG--CD-[CE] |==|  0.73609
USER: genes 19 Torsion [CG]-CD--CE-[NZ] |==|  0.59454
USER: genes 20 Torsion [CD]-CE--NZ-[HZ2] |==|  0.43297
ROOT
ATOM      1  C   LYS L   5     -22.381 -75.499 -27.096  1.00 61.96 LIG 0.24  C 
ATOM      2 O    LYS L   5     -21.695 -76.022 -27.984  1.00 44.78 LIG-0.27  OA
ATOM      3  N   LYS L   6     -21.853 -74.791 -26.101  1.00 60.12 LIG-0.35  N 
ATOM      4 H    LYS L   6     -22.312 -74.304 -25.561  1.00 60.12 LIG 0.16  HD
ENDROOT
BRANCH 3 5
ATOM      5  CA  LYS L   6     -20.416 -74.788 -25.847  1.00 64.44 LIG 0.18  C 
BRANCH 5 6
ATOM      6  CB  LYS L   6     -19.845 -76.205 -25.901  1.00 71.41 LIG 0.04  C 
BRANCH 6 7
ATOM      7  CG  LYS L   6     -19.005 -76.576 -24.683  1.00 72.05 LIG 0.00  C 
BRANCH 7 8
ATOM      8  CD  LYS L   6     -17.773 -77.383 -25.064  1.00 65.16 LIG 0.03  C 
BRANCH 8 9
ATOM      9  CE  LYS L   6     -17.930 -78.837 -24.645  1.00 70.38 LIG 0.23  C 
BRANCH 9 10
ATOM     10  NZ  LYS L   6     -17.021 -79.728 -25.421  1.00 74.13 LIG-0.08  N 
ATOM     11 HZ2  LYS L   6     -17.468 -80.087 -26.102  1.00 74.13 LIG 0.27  HD
ATOM     12 HZ1  LYS L   6     -16.717 -80.375 -24.892  1.00 74.13 LIG 0.27  HD
ATOM     13 HZ3  LYS L   6     -16.335 -79.254 -25.733  1.00 74.13 LIG 0.27  HD
ENDBRANCH 9 10
ENDBRANCH 8 9
ENDBRANCH 7 8
ENDBRANCH 6 7
ENDBRANCH 5 6
BRANCH 5 14
ATOM     14  C   LYS L   6     -19.761 -73.911 -26.903  1.00 59.21 LIG 0.24  C 
ATOM     15  N   LEU L   7     -19.214 -72.772 -26.490  1.00 55.77 LIG-0.35  N 
ATOM     16 H    LEU L   7     -19.161 -72.532 -25.666  1.00 55.77 LIG 0.16  HD
ATOM     17 O    LYS L   6     -19.762 -74.256 -28.080  1.00 62.62 LIG-0.27  OA
BRANCH 15 18
ATOM     18  CA  LEU L   7     -18.647 -71.815 -27.442  1.00 55.07 LIG 0.16  C 
BRANCH 18 19
ATOM     19  CB  LEU L   7     -19.754 -71.131 -28.250  1.00 49.39 LIG 0.04  C 
BRANCH 19 20
ATOM     20  CG  LEU L   7     -20.892 -70.537 -27.423  1.00 45.34 LIG-0.02  C 
ATOM     21  CD2 LEU L   7     -22.054 -71.531 -27.331  1.00 40.01 LIG 0.01  C 
ATOM     22  CD1 LEU L   7     -21.336 -69.232 -28.053  1.00 33.03 LIG 0.01  C 
ENDBRANCH 19 20
ENDBRANCH 18 19
BRANCH 18 23
ATOM     23  C   LEU L   7     -17.771 -70.765 -26.761  1.00 52.26 LIG 0.22  C 
ATOM     24 O    LEU L   7     -17.854 -70.578 -25.547  1.00 59.22 LIG-0.29  OA
ENDBRANCH 18 23
ENDBRANCH 15 18
ENDBRANCH 5 14
ENDBRANCH 3 5
BRANCH 1 25
ATOM     25  CA  LYS L   5     -23.912 -75.633 -27.094  1.00 63.64 LIG 0.18  C 
BRANCH 25 26
ATOM     26  N   LYS L   5     -24.603 -74.484 -27.682  1.00 68.83 LIG-0.35  N 
ATOM     27  C   ALA L   4     -25.266 -73.603 -26.932  1.00 74.38 LIG 0.26  C 
ATOM     28 O    ALA L   4     -25.265 -73.636 -25.698  1.00 71.28 LIG-0.27  OA
ATOM     29 H    LYS L   5     -24.542 -74.434 -28.539  1.00 68.83 LIG 0.16  HD
BRANCH 27 30
ATOM     30  CA  ALA L   4     -26.050 -72.518 -27.682  1.00 68.81 LIG 0.40  C 
ATOM     31  N   ALA L   4     -27.403 -72.394 -27.149  1.00 73.56 LIG 0.61  N 
ATOM     32  CB  ALA L   4     -25.319 -71.170 -27.619  1.00 57.48 LIG 0.06  C 
ENDBRANCH 27 30
ENDBRANCH 25 26
BRANCH 25 33
ATOM     33  CB  LYS L   5     -24.320 -76.910 -27.834  1.00 69.62 LIG 0.04  C 
BRANCH 33 34
ATOM     34  CG  LYS L   5     -25.754 -76.926 -28.330  1.00 80.66 LIG 0.00  C 
BRANCH 34 35
ATOM     35  CD  LYS L   5     -26.732 -76.750 -27.173  1.00 85.15 LIG 0.03  C 
BRANCH 35 36
ATOM     36  CE  LYS L   5     -27.229 -78.092 -26.655  1.00 90.30 LIG 0.23  C 
BRANCH 36 37
ATOM     37  NZ  LYS L   5     -28.643 -78.034 -26.183  1.00 90.68 LIG-0.08  N 
ATOM     38 HZ3  LYS L   5     -28.664 -77.741 -25.343  1.00 90.68 LIG 0.27  HD
ATOM     39 HZ2  LYS L   5     -29.003 -78.847 -26.222  1.00 90.68 LIG 0.27  HD
ATOM     40 HZ1  LYS L   5     -29.107 -77.479 -26.702  1.00 90.68 LIG 0.27  HD
ENDBRANCH 36 37
ENDBRANCH 35 36
ENDBRANCH 34 35
ENDBRANCH 33 34
ENDBRANCH 25 33
ENDBRANCH 1 25
TORSDOF 19
ENDMDL
MODEL 22
USER: ADFR SOLUTION from run 149
USER: SCORE 14.424285 LL:  -1.357 LR: -14.353 RR:   0.000 FEB:  -8.685
USER: RMSD 6.388934
USER: SEED 148
USER: STATUS no improvement in best in 9 clusters for 5 generations
USER: GENES 21
USER: genes 0 Translation |==|  0.67115 0.34829 0.61898
USER: genes 1 Rotation |==|  0.44753 0.20541 0.32282 0.85926
USER: genes 2 Torsion [C]-N--CA-[CB] |==|  0.12549
USER: genes 3 Torsion [N]-CA--CB-[CG] |==|  0.54897
USER: genes 4 Torsion [CA]-CB--CG-[CD] |==|  0.39387
USER: genes 5 Torsion [CB]-CG--CD-[CE] |==|  0.90016
USER: genes 6 Torsion [CG]-CD--CE-[NZ] |==|  0.34153
USER: genes 7 Torsion [CD]-CE--NZ-[HZ1] |==|  0.30826
USER: genes 8 Torsion [N]-CA--C-[N] |==|  0.59438
USER: genes 9 Torsion [C]-N--CA-[CB] |==|  0.36024
USER: genes 10 Torsion [N]-CA--CB-[CG] |==|  0.54287
USER: genes 11 Torsion [CA]-CB--CG-[CD2] |==|  0.07787
USER: genes 12 Torsion [N]-CA--C-[O] |==|  0.83557
USER: genes 13 Torsion [N]-C--CA-[N] |==|  0.03664
USER: genes 14 Torsion [C]-CA--N-[C] |==|  0.22778
USER: genes 15 Torsion [N]-C--CA-[N] |==|  0.81222
USER: genes 16 Torsion [C]-CA--CB-[CG] |==|  0.27758
USER: genes 17 Torsion [CA]-CB--CG-[CD] |==|  0.94215
USER: genes 18 Torsion [CB]-CG--CD-[CE] |==|  0.65396
USER: genes 19 Torsion [CG]-CD--CE-[NZ] |==|  0.12937
USER: genes 20 Torsion [CD]-CE--NZ-[HZ2] |==|  0.77843
ROOT
ATOM      1  C   LYS L   5     -21.559 -79.281 -25.613  1.00 61.96 LIG 0.24  C 
ATOM      2 O    LYS L   5     -20.515 -79.748 -25.136  1.00 44.78 LIG-0.27  OA
ATOM      3  N   LYS L   6     -21.693 -77.995 -25.929  1.00 60.12 LIG-0.35  N 
ATOM      4 H    LYS L   6     -22.348 -77.679 -26.388  1.00 60.12 LIG 0.16  HD
ENDROOT
BRANCH 3 5
ATOM      5  CA  LYS L   6     -20.713 -77.000 -25.507  1.00 64.44 LIG 0.18  C 
BRANCH 5 6
ATOM      6  CB  LYS L   6     -19.287 -77.499 -25.743  1.00 71.41 LIG 0.04  C 
BRANCH 6 7
ATOM      7  CG  LYS L   6     -18.229 -76.728 -24.958  1.00 72.05 LIG 0.00  C 
BRANCH 7 8
ATOM      8  CD  LYS L   6     -17.128 -77.640 -24.438  1.00 65.16 LIG 0.03  C 
BRANCH 8 9
ATOM      9  CE  LYS L   6     -17.695 -78.991 -24.029  1.00 70.38 LIG 0.23  C 
BRANCH 9 10
ATOM     10  NZ  LYS L   6     -17.029 -80.105 -24.762  1.00 74.13 LIG-0.08  N 
ATOM     11 HZ2  LYS L   6     -17.647 -80.632 -25.126  1.00 74.13 LIG 0.27  HD
ATOM     12 HZ1  LYS L   6     -16.533 -80.579 -24.195  1.00 74.13 LIG 0.27  HD
ATOM     13 HZ3  LYS L   6     -16.509 -79.770 -25.401  1.00 74.13 LIG 0.27  HD
ENDBRANCH 9 10
ENDBRANCH 8 9
ENDBRANCH 7 8
ENDBRANCH 6 7
ENDBRANCH 5 6
BRANCH 5 14
ATOM     14  C   LYS L   6     -20.968 -75.731 -26.305  1.00 59.21 LIG 0.24  C 
ATOM     15  N   LEU L   7     -19.910 -74.996 -26.630  1.00 55.77 LIG-0.35  N 
ATOM     16 H    LEU L   7     -19.096 -75.222 -26.466  1.00 55.77 LIG 0.16  HD
ATOM     17 O    LYS L   6     -22.113 -75.414 -26.611  1.00 62.62 LIG-0.27  OA
BRANCH 15 18
ATOM     18  CA  LEU L   7     -20.060 -73.708 -27.311  1.00 55.07 LIG 0.16  C 
BRANCH 18 19
ATOM     19  CB  LEU L   7     -19.262 -72.616 -26.591  1.00 49.39 LIG 0.04  C 
BRANCH 19 20
ATOM     20  CG  LEU L   7     -19.625 -71.183 -26.975  1.00 45.34 LIG-0.02  C 
ATOM     21  CD2 LEU L   7     -21.088 -71.111 -27.427  1.00 40.01 LIG 0.01  C 
ATOM     22  CD1 LEU L   7     -18.689 -70.711 -28.070  1.00 33.03 LIG 0.01  C 
ENDBRANCH 19 20
ENDBRANCH 18 19
BRANCH 18 23
ATOM     23  C   LEU L   7     -19.649 -73.774 -28.780  1.00 52.26 LIG 0.22  C 
ATOM     24 O    LEU L   7     -18.505 -74.108 -29.092  1.00 59.22 LIG-0.29  OA
ENDBRANCH 18 23
ENDBRANCH 15 18
ENDBRANCH 5 14
ENDBRANCH 3 5
BRANCH 1 25
ATOM     25  CA  LYS L   5     -22.779 -80.175 -25.880  1.00 63.64 LIG 0.18  C 
BRANCH 25 26
ATOM     26  N   LYS L   5     -23.798 -79.545 -26.721  1.00 68.83 LIG-0.35  N 
ATOM     27  C   ALA L   4     -23.698 -79.522 -28.050  1.00 74.38 LIG 0.26  C 
ATOM     28 O    ALA L   4     -22.800 -80.105 -28.666  1.00 71.28 LIG-0.27  OA
ATOM     29 H    LYS L   5     -24.453 -79.199 -26.284  1.00 68.83 LIG 0.16  HD
BRANCH 27 30
ATOM     30  CA  ALA L   4     -24.767 -78.722 -28.804  1.00 68.81 LIG 0.40  C 
ATOM     31  N   ALA L   4     -26.075 -79.358 -28.679  1.00 73.56 LIG 0.61  N 
ATOM     32  CB  ALA L   4     -24.823 -77.272 -28.302  1.00 57.48 LIG 0.06  C 
ENDBRANCH 27 30
ENDBRANCH 25 26
BRANCH 25 33
ATOM     33  CB  LYS L   5     -22.325 -81.489 -26.523  1.00 69.62 LIG 0.04  C 
BRANCH 33 34
ATOM     34  CG  LYS L   5     -22.225 -82.663 -25.566  1.00 80.66 LIG 0.00  C 
BRANCH 34 35
ATOM     35  CD  LYS L   5     -22.101 -82.181 -24.124  1.00 85.15 LIG 0.03  C 
BRANCH 35 36
ATOM     36  CE  LYS L   5     -20.862 -82.755 -23.451  1.00 90.30 LIG 0.23  C 
BRANCH 36 37
ATOM     37  NZ  LYS L   5     -19.645 -82.643 -24.306  1.00 90.68 LIG-0.08  N 
ATOM     38 HZ3  LYS L   5     -19.643 -81.854 -24.719  1.00 90.68 LIG 0.27  HD
ATOM     39 HZ2  LYS L   5     -19.647 -83.294 -24.913  1.00 90.68 LIG 0.27  HD
ATOM     40 HZ1  LYS L   5     -18.917 -82.713 -23.798  1.00 90.68 LIG 0.27  HD
ENDBRANCH 36 37
ENDBRANCH 35 36
ENDBRANCH 34 35
ENDBRANCH 33 34
ENDBRANCH 25 33
ENDBRANCH 1 25
TORSDOF 19
ENDMDL
MODEL 23
USER: ADFR SOLUTION from run 97
USER: SCORE 14.610385 LL:  -1.127 LR: -14.350 RR:   0.000 FEB:  -8.683
USER: RMSD 4.492133
USER: SEED 96
USER: STATUS no improvement in best in 9 clusters for 5 generations
USER: GENES 21
USER: genes 0 Translation |==|  0.66192 0.52759 0.56869
USER: genes 1 Rotation |==|  0.41010 0.40159 0.64862 0.95841
USER: genes 2 Torsion [C]-N--CA-[CB] |==|  0.51111
USER: genes 3 Torsion [N]-CA--CB-[CG] |==|  0.74640
USER: genes 4 Torsion [CA]-CB--CG-[CD] |==|  0.50899
USER: genes 5 Torsion [CB]-CG--CD-[CE] |==|  0.57220
USER: genes 6 Torsion [CG]-CD--CE-[NZ] |==|  0.69009
USER: genes 7 Torsion [CD]-CE--NZ-[HZ1] |==|  0.60453
USER: genes 8 Torsion [N]-CA--C-[N] |==|  0.42846
USER: genes 9 Torsion [C]-N--CA-[CB] |==|  0.23197
USER: genes 10 Torsion [N]-CA--CB-[CG] |==|  0.63633
USER: genes 11 Torsion [CA]-CB--CG-[CD2] |==|  0.79012
USER: genes 12 Torsion [N]-CA--C-[O] |==|  0.71205
USER: genes 13 Torsion [N]-C--CA-[N] |==|  0.27284
USER: genes 14 Torsion [C]-CA--N-[C] |==|  0.63248
USER: genes 15 Torsion [N]-C--CA-[N] |==|  0.40529
USER: genes 16 Torsion [C]-CA--CB-[CG] |==|  0.51044
USER: genes 17 Torsion [CA]-CB--CG-[CD] |==|  0.30032
USER: genes 18 Torsion [CB]-CG--CD-[CE] |==|  0.60330
USER: genes 19 Torsion [CG]-CD--CE-[NZ] |==|  0.43015
USER: genes 20 Torsion [CD]-CE--NZ-[HZ2] |==|  0.76598
ROOT
ATOM      1  C   LYS L   5     -21.739 -75.381 -26.329  1.00 61.96 LIG 0.24  C 
ATOM      2 O    LYS L   5     -21.009 -74.824 -27.161  1.00 44.78 LIG-0.27  OA
ATOM      3  N   LYS L   6     -23.042 -75.131 -26.234  1.00 60.12 LIG-0.35  N 
ATOM      4 H    LYS L   6     -23.589 -75.604 -25.768  1.00 60.12 LIG 0.16  HD
ENDROOT
BRANCH 3 5
ATOM      5  CA  LYS L   6     -23.656 -74.006 -26.931  1.00 64.44 LIG 0.18  C 
BRANCH 5 6
ATOM      6  CB  LYS L   6     -25.139 -73.883 -26.578  1.00 71.41 LIG 0.04  C 
BRANCH 6 7
ATOM      7  CG  LYS L   6     -26.060 -74.647 -27.523  1.00 72.05 LIG 0.00  C 
BRANCH 7 8
ATOM      8  CD  LYS L   6     -27.528 -74.434 -27.184  1.00 65.16 LIG 0.03  C 
BRANCH 8 9
ATOM      9  CE  LYS L   6     -28.366 -75.614 -27.652  1.00 70.38 LIG 0.23  C 
BRANCH 9 10
ATOM     10  NZ  LYS L   6     -29.265 -75.231 -28.778  1.00 74.13 LIG-0.08  N 
ATOM     11 HZ2  LYS L   6     -29.396 -74.351 -28.767  1.00 74.13 LIG 0.27  HD
ATOM     12 HZ1  LYS L   6     -30.046 -75.648 -28.690  1.00 74.13 LIG 0.27  HD
ATOM     13 HZ3  LYS L   6     -28.890 -75.466 -29.550  1.00 74.13 LIG 0.27  HD
ENDBRANCH 9 10
ENDBRANCH 8 9
ENDBRANCH 7 8
ENDBRANCH 6 7
ENDBRANCH 5 6
BRANCH 5 14
ATOM     14  C   LYS L   6     -22.908 -72.745 -26.525  1.00 59.21 LIG 0.24  C 
ATOM     15  N   LEU L   7     -22.923 -71.729 -27.381  1.00 55.77 LIG-0.35  N 
ATOM     16 H    LEU L   7     -23.372 -71.723 -28.116  1.00 55.77 LIG 0.16  HD
ATOM     17 O    LYS L   6     -22.312 -72.699 -25.453  1.00 62.62 LIG-0.27  OA
BRANCH 15 18
ATOM     18  CA  LEU L   7     -22.153 -70.510 -27.126  1.00 55.07 LIG 0.16  C 
BRANCH 18 19
ATOM     19  CB  LEU L   7     -20.699 -70.682 -27.577  1.00 49.39 LIG 0.04  C 
BRANCH 19 20
ATOM     20  CG  LEU L   7     -19.645 -70.269 -26.551  1.00 45.34 LIG-0.02  C 
ATOM     21  CD2 LEU L   7     -19.546 -68.742 -26.480  1.00 40.01 LIG 0.01  C 
ATOM     22  CD1 LEU L   7     -18.314 -70.887 -26.930  1.00 33.03 LIG 0.01  C 
ENDBRANCH 19 20
ENDBRANCH 18 19
BRANCH 18 23
ATOM     23  C   LEU L   7     -22.767 -69.282 -27.795  1.00 52.26 LIG 0.22  C 
ATOM     24 O    LEU L   7     -22.269 -68.818 -28.821  1.00 59.22 LIG-0.29  OA
ENDBRANCH 18 23
ENDBRANCH 15 18
ENDBRANCH 5 14
ENDBRANCH 3 5
BRANCH 1 25
ATOM     25  CA  LYS L   5     -21.174 -76.418 -25.347  1.00 63.64 LIG 0.18  C 
BRANCH 25 26
ATOM     26  N   LYS L   5     -21.032 -77.757 -25.921  1.00 68.83 LIG-0.35  N 
ATOM     27  C   ALA L   4     -21.468 -78.845 -25.286  1.00 74.38 LIG 0.26  C 
ATOM     28 O    ALA L   4     -22.099 -78.796 -24.226  1.00 71.28 LIG-0.27  OA
ATOM     29 H    LYS L   5     -20.649 -77.773 -26.692  1.00 68.83 LIG 0.16  HD
BRANCH 27 30
ATOM     30  CA  ALA L   4     -21.145 -80.195 -25.939  1.00 68.81 LIG 0.40  C 
ATOM     31  N   ALA L   4     -20.912 -81.219 -24.926  1.00 73.56 LIG 0.61  N 
ATOM     32  CB  ALA L   4     -22.269 -80.626 -26.892  1.00 57.48 LIG 0.06  C 
ENDBRANCH 27 30
ENDBRANCH 25 26
BRANCH 25 33
ATOM     33  CB  LYS L   5     -19.818 -75.942 -24.816  1.00 69.62 LIG 0.04  C 
BRANCH 33 34
ATOM     34  CG  LYS L   5     -19.114 -76.927 -23.900  1.00 80.66 LIG 0.00  C 
BRANCH 34 35
ATOM     35  CD  LYS L   5     -17.909 -77.552 -24.597  1.00 85.15 LIG 0.03  C 
BRANCH 35 36
ATOM     36  CE  LYS L   5     -17.748 -79.017 -24.220  1.00 90.30 LIG 0.23  C 
BRANCH 36 37
ATOM     37  NZ  LYS L   5     -17.021 -79.798 -25.263  1.00 90.68 LIG-0.08  N 
ATOM     38 HZ3  LYS L   5     -16.391 -79.288 -25.631  1.00 90.68 LIG 0.27  HD
ATOM     39 HZ2  LYS L   5     -17.594 -80.060 -25.892  1.00 90.68 LIG 0.27  HD
ATOM     40 HZ1  LYS L   5     -16.643 -80.513 -24.890  1.00 90.68 LIG 0.27  HD
ENDBRANCH 36 37
ENDBRANCH 35 36
ENDBRANCH 34 35
ENDBRANCH 33 34
ENDBRANCH 25 33
ENDBRANCH 1 25
TORSDOF 19
ENDMDL
MODEL 24
USER: ADFR SOLUTION from run 64
USER: SCORE 14.302400 LL:  -2.043 LR: -14.337 RR:   0.000 FEB:  -8.669
USER: RMSD 6.943628
USER: SEED 63
USER: STATUS no improvement in best in 8 clusters for 5 generations
USER: GENES 21
USER: genes 0 Translation |==|  0.64086 0.24627 0.56357
USER: genes 1 Rotation |==|  0.52836 0.94496 0.69500 0.61482
USER: genes 2 Torsion [C]-N--CA-[CB] |==|  0.48662
USER: genes 3 Torsion [N]-CA--CB-[CG] |==|  0.08957
USER: genes 4 Torsion [CA]-CB--CG-[CD] |==|  0.59995
USER: genes 5 Torsion [CB]-CG--CD-[CE] |==|  0.04581
USER: genes 6 Torsion [CG]-CD--CE-[NZ] |==|  0.34743
USER: genes 7 Torsion [CD]-CE--NZ-[HZ1] |==|  0.68851
USER: genes 8 Torsion [N]-CA--C-[N] |==|  0.85317
USER: genes 9 Torsion [C]-N--CA-[CB] |==|  0.33391
USER: genes 10 Torsion [N]-CA--CB-[CG] |==|  0.99363
USER: genes 11 Torsion [CA]-CB--CG-[CD2] |==|  0.77204
USER: genes 12 Torsion [N]-CA--C-[O] |==|  0.51166
USER: genes 13 Torsion [N]-C--CA-[N] |==|  0.60556
USER: genes 14 Torsion [C]-CA--N-[C] |==|  0.18777
USER: genes 15 Torsion [N]-C--CA-[N] |==|  0.02513
USER: genes 16 Torsion [C]-CA--CB-[CG] |==|  0.49738
USER: genes 17 Torsion [CA]-CB--CG-[CD] |==|  0.85947
USER: genes 18 Torsion [CB]-CG--CD-[CE] |==|  0.37369
USER: genes 19 Torsion [CG]-CD--CE-[NZ] |==|  0.52563
USER: genes 20 Torsion [CD]-CE--NZ-[HZ2] |==|  0.00997
ROOT
ATOM      1  C   LYS L   5     -22.149 -81.500 -26.402  1.00 61.96 LIG 0.24  C 
ATOM      2 O    LYS L   5     -23.209 -81.627 -25.773  1.00 44.78 LIG-0.27  OA
ATOM      3  N   LYS L   6     -21.167 -80.697 -26.002  1.00 60.12 LIG-0.35  N 
ATOM      4 H    LYS L   6     -20.375 -80.700 -26.339  1.00 60.12 LIG 0.16  HD
ENDROOT
BRANCH 3 5
ATOM      5  CA  LYS L   6     -21.364 -79.725 -24.932  1.00 64.44 LIG 0.18  C 
BRANCH 5 6
ATOM      6  CB  LYS L   6     -20.055 -79.015 -24.585  1.00 71.41 LIG 0.04  C 
BRANCH 6 7
ATOM      7  CG  LYS L   6     -19.119 -78.835 -25.776  1.00 72.05 LIG 0.00  C 
BRANCH 7 8
ATOM      8  CD  LYS L   6     -17.658 -78.979 -25.380  1.00 65.16 LIG 0.03  C 
BRANCH 8 9
ATOM      9  CE  LYS L   6     -17.531 -79.652 -24.021  1.00 70.38 LIG 0.23  C 
BRANCH 9 10
ATOM     10  NZ  LYS L   6     -16.654 -80.856 -24.090  1.00 74.13 LIG-0.08  N 
ATOM     11 HZ2  LYS L   6     -16.271 -80.899 -24.891  1.00 74.13 LIG 0.27  HD
ATOM     12 HZ1  LYS L   6     -17.143 -81.587 -23.955  1.00 74.13 LIG 0.27  HD
ATOM     13 HZ3  LYS L   6     -16.026 -80.801 -23.462  1.00 74.13 LIG 0.27  HD
ENDBRANCH 9 10
ENDBRANCH 8 9
ENDBRANCH 7 8
ENDBRANCH 6 7
ENDBRANCH 5 6
BRANCH 5 14
ATOM     14  C   LYS L   6     -22.403 -78.720 -25.405  1.00 59.21 LIG 0.24  C 
ATOM     15  N   LEU L   7     -22.186 -78.130 -26.576  1.00 55.77 LIG-0.35  N 
ATOM     16 H    LEU L   7     -21.531 -78.323 -27.100  1.00 55.77 LIG 0.16  HD
ATOM     17 O    LYS L   6     -23.383 -78.470 -24.710  1.00 62.62 LIG-0.27  OA
BRANCH 15 18
ATOM     18  CA  LEU L   7     -23.075 -77.077 -27.072  1.00 55.07 LIG 0.16  C 
BRANCH 18 19
ATOM     19  CB  LEU L   7     -22.303 -75.772 -27.291  1.00 49.39 LIG 0.04  C 
BRANCH 19 20
ATOM     20  CG  LEU L   7     -20.825 -75.818 -26.907  1.00 45.34 LIG-0.02  C 
ATOM     21  CD2 LEU L   7     -20.663 -75.606 -25.398  1.00 40.01 LIG 0.01  C 
ATOM     22  CD1 LEU L   7     -20.075 -74.760 -27.692  1.00 33.03 LIG 0.01  C 
ENDBRANCH 19 20
ENDBRANCH 18 19
BRANCH 18 23
ATOM     23  C   LEU L   7     -23.796 -77.480 -28.356  1.00 52.26 LIG 0.22  C 
ATOM     24 O    LEU L   7     -24.521 -76.676 -28.942  1.00 59.22 LIG-0.29  OA
ENDBRANCH 18 23
ENDBRANCH 15 18
ENDBRANCH 5 14
ENDBRANCH 3 5
BRANCH 1 25
ATOM     25  CA  LYS L   5     -21.899 -82.281 -27.701  1.00 63.64 LIG 0.18  C 
BRANCH 25 26
ATOM     26  N   LYS L   5     -23.084 -82.408 -28.550  1.00 68.83 LIG-0.35  N 
ATOM     27  C   ALA L   4     -23.631 -81.353 -29.157  1.00 74.38 LIG 0.26  C 
ATOM     28 O    ALA L   4     -23.129 -80.226 -29.125  1.00 71.28 LIG-0.27  OA
ATOM     29 H    LYS L   5     -23.387 -83.210 -28.618  1.00 68.83 LIG 0.16  HD
BRANCH 27 30
ATOM     30  CA  ALA L   4     -24.941 -81.602 -29.914  1.00 68.81 LIG 0.40  C 
ATOM     31  N   ALA L   4     -25.453 -82.941 -29.639  1.00 73.56 LIG 0.61  N 
ATOM     32  CB  ALA L   4     -25.991 -80.540 -29.558  1.00 57.48 LIG 0.06  C 
ENDBRANCH 27 30
ENDBRANCH 25 26
BRANCH 25 33
ATOM     33  CB  LYS L   5     -20.769 -81.617 -28.494  1.00 69.62 LIG 0.04  C 
BRANCH 33 34
ATOM     34  CG  LYS L   5     -20.411 -82.314 -29.794  1.00 80.66 LIG 0.00  C 
BRANCH 34 35
ATOM     35  CD  LYS L   5     -20.181 -83.805 -29.567  1.00 85.15 LIG 0.03  C 
BRANCH 35 36
ATOM     36  CE  LYS L   5     -20.882 -84.643 -30.627  1.00 90.30 LIG 0.23  C 
BRANCH 36 37
ATOM     37  NZ  LYS L   5     -20.860 -86.101 -30.309  1.00 90.68 LIG-0.08  N 
ATOM     38 HZ3  LYS L   5     -21.693 -86.414 -30.289  1.00 90.68 LIG 0.27  HD
ATOM     39 HZ2  LYS L   5     -20.478 -86.226 -29.515  1.00 90.68 LIG 0.27  HD
ATOM     40 HZ1  LYS L   5     -20.395 -86.534 -30.933  1.00 90.68 LIG 0.27  HD
ENDBRANCH 36 37
ENDBRANCH 35 36
ENDBRANCH 34 35
ENDBRANCH 33 34
ENDBRANCH 25 33
ENDBRANCH 1 25
TORSDOF 19
ENDMDL
MODEL 25
USER: ADFR SOLUTION from run 6
USER: SCORE 14.842096 LL:  -1.925 LR: -14.276 RR:   0.000 FEB:  -8.608
USER: RMSD 4.736886
USER: SEED 491260
USER: STATUS no improvement in best in 4 clusters for 5 generations
USER: GENES 21
USER: genes 0 Translation |==|  0.60166 0.28563 0.48173
USER: genes 1 Rotation |==|  0.31175 0.51720 0.62034 0.94697
USER: genes 2 Torsion [C]-N--CA-[CB] |==|  0.43121
USER: genes 3 Torsion [N]-CA--CB-[CG] |==|  0.11265
USER: genes 4 Torsion [CA]-CB--CG-[CD] |==|  0.24375
USER: genes 5 Torsion [CB]-CG--CD-[CE] |==|  0.18725
USER: genes 6 Torsion [CG]-CD--CE-[NZ] |==|  0.17805
USER: genes 7 Torsion [CD]-CE--NZ-[HZ1] |==|  0.91317
USER: genes 8 Torsion [N]-CA--C-[N] |==|  0.90729
USER: genes 9 Torsion [C]-N--CA-[CB] |==|  0.82470
USER: genes 10 Torsion [N]-CA--CB-[CG] |==|  0.58697
USER: genes 11 Torsion [CA]-CB--CG-[CD2] |==|  0.59309
USER: genes 12 Torsion [N]-CA--C-[O] |==|  0.92876
USER: genes 13 Torsion [N]-C--CA-[N] |==|  0.47024
USER: genes 14 Torsion [C]-CA--N-[C] |==|  0.80218
USER: genes 15 Torsion [N]-C--CA-[N] |==|  0.22710
USER: genes 16 Torsion [C]-CA--CB-[CG] |==|  0.77857
USER: genes 17 Torsion [CA]-CB--CG-[CD] |==|  0.65217
USER: genes 18 Torsion [CB]-CG--CD-[CE] |==|  0.52007
USER: genes 19 Torsion [CG]-CD--CE-[NZ] |==|  0.71645
USER: genes 20 Torsion [CD]-CE--NZ-[HZ2] |==|  0.12798
ROOT
ATOM      1  C   LYS L   5     -22.914 -80.644 -27.568  1.00 61.96 LIG 0.24  C 
ATOM      2 O    LYS L   5     -22.410 -80.747 -28.695  1.00 44.78 LIG-0.27  OA
ATOM      3  N   LYS L   6     -24.052 -79.991 -27.346  1.00 60.12 LIG-0.35  N 
ATOM      4 H    LYS L   6     -24.491 -80.028 -26.607  1.00 60.12 LIG 0.16  HD
ENDROOT
BRANCH 3 5
ATOM      5  CA  LYS L   6     -24.656 -79.143 -28.367  1.00 64.44 LIG 0.18  C 
BRANCH 5 6
ATOM      6  CB  LYS L   6     -26.164 -79.008 -28.149  1.00 71.41 LIG 0.04  C 
BRANCH 6 7
ATOM      7  CG  LYS L   6     -26.561 -78.850 -26.684  1.00 72.05 LIG 0.00  C 
BRANCH 7 8
ATOM      8  CD  LYS L   6     -26.548 -77.394 -26.244  1.00 65.16 LIG 0.03  C 
BRANCH 8 9
ATOM      9  CE  LYS L   6     -27.648 -76.610 -26.944  1.00 70.38 LIG 0.23  C 
BRANCH 9 10
ATOM     10  NZ  LYS L   6     -29.000 -77.106 -26.558  1.00 74.13 LIG-0.08  N 
ATOM     11 HZ2  LYS L   6     -29.279 -76.673 -25.832  1.00 74.13 LIG 0.27  HD
ATOM     12 HZ1  LYS L   6     -28.958 -77.978 -26.385  1.00 74.13 LIG 0.27  HD
ATOM     13 HZ3  LYS L   6     -29.570 -76.964 -27.226  1.00 74.13 LIG 0.27  HD
ENDBRANCH 9 10
ENDBRANCH 8 9
ENDBRANCH 7 8
ENDBRANCH 6 7
ENDBRANCH 5 6
BRANCH 5 14
ATOM     14  C   LYS L   6     -23.987 -77.779 -28.293  1.00 59.21 LIG 0.24  C 
ATOM     15  N   LEU L   7     -23.599 -77.359 -27.093  1.00 55.77 LIG-0.35  N 
ATOM     16 H    LEU L   7     -23.654 -77.831 -26.376  1.00 55.77 LIG 0.16  HD
ATOM     17 O    LYS L   6     -23.836 -77.109 -29.310  1.00 62.62 LIG-0.27  OA
BRANCH 15 18
ATOM     18  CA  LEU L   7     -23.035 -76.021 -26.904  1.00 55.07 LIG 0.16  C 
BRANCH 18 19
ATOM     19  CB  LEU L   7     -21.725 -75.869 -27.683  1.00 49.39 LIG 0.04  C 
BRANCH 19 20
ATOM     20  CG  LEU L   7     -20.698 -74.930 -27.053  1.00 45.34 LIG-0.02  C 
ATOM     21  CD2 LEU L   7     -19.898 -74.211 -28.144  1.00 40.01 LIG 0.01  C 
ATOM     22  CD1 LEU L   7     -19.786 -75.730 -26.143  1.00 33.03 LIG 0.01  C 
ENDBRANCH 19 20
ENDBRANCH 18 19
BRANCH 18 23
ATOM     23  C   LEU L   7     -24.011 -74.916 -27.301  1.00 52.26 LIG 0.22  C 
ATOM     24 O    LEU L   7     -24.896 -75.135 -28.129  1.00 59.22 LIG-0.29  OA
ENDBRANCH 18 23
ENDBRANCH 15 18
ENDBRANCH 5 14
ENDBRANCH 3 5
BRANCH 1 25
ATOM     25  CA  LYS L   5     -22.247 -81.281 -26.339  1.00 63.64 LIG 0.18  C 
BRANCH 25 26
ATOM     26  N   LYS L   5     -21.145 -82.186 -26.671  1.00 68.83 LIG-0.35  N 
ATOM     27  C   ALA L   4     -21.357 -83.374 -27.237  1.00 74.38 LIG 0.26  C 
ATOM     28 O    ALA L   4     -22.473 -83.754 -27.604  1.00 71.28 LIG-0.27  OA
ATOM     29 H    LYS L   5     -20.365 -81.883 -26.470  1.00 68.83 LIG 0.16  HD
BRANCH 27 30
ATOM     30  CA  ALA L   4     -20.129 -84.276 -27.416  1.00 68.81 LIG 0.40  C 
ATOM     31  N   ALA L   4     -19.819 -84.984 -26.178  1.00 73.56 LIG 0.61  N 
ATOM     32  CB  ALA L   4     -20.341 -85.270 -28.567  1.00 57.48 LIG 0.06  C 
ENDBRANCH 27 30
ENDBRANCH 25 26
BRANCH 25 33
ATOM     33  CB  LYS L   5     -21.743 -80.183 -25.398  1.00 69.62 LIG 0.04  C 
BRANCH 33 34
ATOM     34  CG  LYS L   5     -20.425 -79.551 -25.807  1.00 80.66 LIG 0.00  C 
BRANCH 34 35
ATOM     35  CD  LYS L   5     -19.407 -79.631 -24.674  1.00 85.15 LIG 0.03  C 
BRANCH 35 36
ATOM     36  CE  LYS L   5     -18.145 -78.847 -25.004  1.00 90.30 LIG 0.23  C 
BRANCH 36 37
ATOM     37  NZ  LYS L   5     -17.022 -79.731 -25.434  1.00 90.68 LIG-0.08  N 
ATOM     38 HZ3  LYS L   5     -16.381 -79.238 -25.806  1.00 90.68 LIG 0.27  HD
ATOM     39 HZ2  LYS L   5     -17.320 -80.324 -26.026  1.00 90.68 LIG 0.27  HD
ATOM     40 HZ1  LYS L   5     -16.692 -80.159 -24.726  1.00 90.68 LIG 0.27  HD
ENDBRANCH 36 37
ENDBRANCH 35 36
ENDBRANCH 34 35
ENDBRANCH 33 34
ENDBRANCH 25 33
ENDBRANCH 1 25
TORSDOF 19
ENDMDL
MODEL 26
USER: ADFR SOLUTION from run 29
USER: SCORE 14.611960 LL:  -1.561 LR: -14.266 RR:   0.000 FEB:  -8.598
USER: RMSD 8.318550
USER: SEED 28
USER: STATUS no improvement in best in 4 clusters for 5 generations
USER: GENES 21
USER: genes 0 Translation |==|  0.46045 0.33640 0.42598
USER: genes 1 Rotation |==|  0.17603 0.52329 0.12473 0.56059
USER: genes 2 Torsion [C]-N--CA-[CB] |==|  0.24742
USER: genes 3 Torsion [N]-CA--CB-[CG] |==|  0.73840
USER: genes 4 Torsion [CA]-CB--CG-[CD] |==|  0.27226
USER: genes 5 Torsion [CB]-CG--CD-[CE] |==|  0.41043
USER: genes 6 Torsion [CG]-CD--CE-[NZ] |==|  0.59068
USER: genes 7 Torsion [CD]-CE--NZ-[HZ1] |==|  0.78486
USER: genes 8 Torsion [N]-CA--C-[N] |==|  0.47163
USER: genes 9 Torsion [C]-N--CA-[CB] |==|  0.50938
USER: genes 10 Torsion [N]-CA--CB-[CG] |==|  0.65056
USER: genes 11 Torsion [CA]-CB--CG-[CD2] |==|  0.04077
USER: genes 12 Torsion [N]-CA--C-[O] |==|  0.68270
USER: genes 13 Torsion [N]-C--CA-[N] |==|  0.43338
USER: genes 14 Torsion [C]-CA--N-[C] |==|  0.58131
USER: genes 15 Torsion [N]-C--CA-[N] |==|  0.73428
USER: genes 16 Torsion [C]-CA--CB-[CG] |==|  0.20171
USER: genes 17 Torsion [CA]-CB--CG-[CD] |==|  0.71891
USER: genes 18 Torsion [CB]-CG--CD-[CE] |==|  0.69510
USER: genes 19 Torsion [CG]-CD--CE-[NZ] |==|  0.62721
USER: genes 20 Torsion [CD]-CE--NZ-[HZ2] |==|  0.02295
ROOT
ATOM      1  C   LYS L   5     -25.667 -79.539 -28.363  1.00 61.96 LIG 0.24  C 
ATOM      2 O    LYS L   5     -26.622 -80.218 -27.961  1.00 44.78 LIG-0.27  OA
ATOM      3  N   LYS L   6     -24.737 -80.021 -29.184  1.00 60.12 LIG-0.35  N 
ATOM      4 H    LYS L   6     -24.152 -79.536 -29.586  1.00 60.12 LIG 0.16  HD
ENDROOT
BRANCH 3 5
ATOM      5  CA  LYS L   6     -24.639 -81.449 -29.469  1.00 64.44 LIG 0.18  C 
BRANCH 5 6
ATOM      6  CB  LYS L   6     -25.510 -81.831 -30.666  1.00 71.41 LIG 0.04  C 
BRANCH 6 7
ATOM      7  CG  LYS L   6     -26.900 -82.327 -30.280  1.00 72.05 LIG 0.00  C 
BRANCH 7 8
ATOM      8  CD  LYS L   6     -27.948 -81.231 -30.391  1.00 65.16 LIG 0.03  C 
BRANCH 8 9
ATOM      9  CE  LYS L   6     -29.297 -81.812 -30.788  1.00 70.38 LIG 0.23  C 
BRANCH 9 10
ATOM     10  NZ  LYS L   6     -30.075 -80.857 -31.627  1.00 74.13 LIG-0.08  N 
ATOM     11 HZ2  LYS L   6     -29.535 -80.479 -32.226  1.00 74.13 LIG 0.27  HD
ATOM     12 HZ1  LYS L   6     -30.430 -80.226 -31.109  1.00 74.13 LIG 0.27  HD
ATOM     13 HZ3  LYS L   6     -30.726 -81.294 -32.049  1.00 74.13 LIG 0.27  HD
ENDBRANCH 9 10
ENDBRANCH 8 9
ENDBRANCH 7 8
ENDBRANCH 6 7
ENDBRANCH 5 6
BRANCH 5 14
ATOM     14  C   LYS L   6     -23.178 -81.764 -29.755  1.00 59.21 LIG 0.24  C 
ATOM     15  N   LEU L   7     -22.841 -83.047 -29.835  1.00 55.77 LIG-0.35  N 
ATOM     16 H    LEU L   7     -23.401 -83.698 -29.791  1.00 55.77 LIG 0.16  HD
ATOM     17 O    LYS L   6     -22.365 -80.856 -29.888  1.00 62.62 LIG-0.27  OA
BRANCH 15 18
ATOM     18  CA  LEU L   7     -21.444 -83.454 -30.009  1.00 55.07 LIG 0.16  C 
BRANCH 18 19
ATOM     19  CB  LEU L   7     -21.336 -84.976 -30.154  1.00 49.39 LIG 0.04  C 
BRANCH 19 20
ATOM     20  CG  LEU L   7     -20.378 -85.657 -29.179  1.00 45.34 LIG-0.02  C 
ATOM     21  CD2 LEU L   7     -20.017 -84.701 -28.037  1.00 40.01 LIG 0.01  C 
ATOM     22  CD1 LEU L   7     -19.141 -86.106 -29.930  1.00 33.03 LIG 0.01  C 
ENDBRANCH 19 20
ENDBRANCH 18 19
BRANCH 18 23
ATOM     23  C   LEU L   7     -20.781 -82.766 -31.199  1.00 52.26 LIG 0.22  C 
ATOM     24 O    LEU L   7     -20.422 -83.422 -32.177  1.00 59.22 LIG-0.29  OA
ENDBRANCH 18 23
ENDBRANCH 15 18
ENDBRANCH 5 14
ENDBRANCH 3 5
BRANCH 1 25
ATOM     25  CA  LYS L   5     -25.501 -78.072 -27.937  1.00 63.64 LIG 0.18  C 
BRANCH 25 26
ATOM     26  N   LYS L   5     -26.752 -77.433 -27.528  1.00 68.83 LIG-0.35  N 
ATOM     27  C   ALA L   4     -26.954 -76.123 -27.676  1.00 74.38 LIG 0.26  C 
ATOM     28 O    ALA L   4     -26.150 -75.380 -28.248  1.00 71.28 LIG-0.27  OA
ATOM     29 H    LYS L   5     -27.331 -77.972 -27.191  1.00 68.83 LIG 0.16  HD
BRANCH 27 30
ATOM     30  CA  ALA L   4     -28.256 -75.561 -27.093  1.00 68.81 LIG 0.40  C 
ATOM     31  N   ALA L   4     -29.291 -75.478 -28.119  1.00 73.56 LIG 0.61  N 
ATOM     32  CB  ALA L   4     -28.739 -76.409 -25.908  1.00 57.48 LIG 0.06  C 
ENDBRANCH 27 30
ENDBRANCH 25 26
BRANCH 25 33
ATOM     33  CB  LYS L   5     -24.480 -77.978 -26.799  1.00 69.62 LIG 0.04  C 
BRANCH 33 34
ATOM     34  CG  LYS L   5     -23.039 -78.202 -27.218  1.00 80.66 LIG 0.00  C 
BRANCH 34 35
ATOM     35  CD  LYS L   5     -22.582 -79.614 -26.866  1.00 85.15 LIG 0.03  C 
BRANCH 35 36
ATOM     36  CE  LYS L   5     -21.570 -79.603 -25.729  1.00 90.30 LIG 0.23  C 
BRANCH 36 37
ATOM     37  NZ  LYS L   5     -20.396 -80.483 -26.003  1.00 90.68 LIG-0.08  N 
ATOM     38 HZ3  LYS L   5     -19.644 -80.023 -25.882  1.00 90.68 LIG 0.27  HD
ATOM     39 HZ2  LYS L   5     -20.433 -80.775 -26.842  1.00 90.68 LIG 0.27  HD
ATOM     40 HZ1  LYS L   5     -20.410 -81.179 -25.446  1.00 90.68 LIG 0.27  HD
ENDBRANCH 36 37
ENDBRANCH 35 36
ENDBRANCH 34 35
ENDBRANCH 33 34
ENDBRANCH 25 33
ENDBRANCH 1 25
TORSDOF 19
ENDMDL
MODEL 27
USER: ADFR SOLUTION from run 22
USER: SCORE 14.528274 LL:  -1.115 LR: -14.243 RR:   0.000 FEB:  -8.576
USER: RMSD 6.929782
USER: SEED 21
USER: STATUS no improvement in best in 6 clusters for 5 generations
USER: GENES 21
USER: genes 0 Translation |==|  0.54665 0.33604 0.46870
USER: genes 1 Rotation |==|  0.59939 0.92084 0.64112 0.70760
USER: genes 2 Torsion [C]-N--CA-[CB] |==|  0.53506
USER: genes 3 Torsion [N]-CA--CB-[CG] |==|  0.82912
USER: genes 4 Torsion [CA]-CB--CG-[CD] |==|  0.44884
USER: genes 5 Torsion [CB]-CG--CD-[CE] |==|  0.44702
USER: genes 6 Torsion [CG]-CD--CE-[NZ] |==|  0.38271
USER: genes 7 Torsion [CD]-CE--NZ-[HZ1] |==|  0.51896
USER: genes 8 Torsion [N]-CA--C-[N] |==|  0.31202
USER: genes 9 Torsion [C]-N--CA-[CB] |==|  0.82634
USER: genes 10 Torsion [N]-CA--CB-[CG] |==|  0.51204
USER: genes 11 Torsion [CA]-CB--CG-[CD2] |==|  0.46866
USER: genes 12 Torsion [N]-CA--C-[O] |==|  0.81672
USER: genes 13 Torsion [N]-C--CA-[N] |==|  0.08550
USER: genes 14 Torsion [C]-CA--N-[C] |==|  0.65557
USER: genes 15 Torsion [N]-C--CA-[N] |==|  0.90158
USER: genes 16 Torsion [C]-CA--CB-[CG] |==|  0.19198
USER: genes 17 Torsion [CA]-CB--CG-[CD] |==|  0.36149
USER: genes 18 Torsion [CB]-CG--CD-[CE] |==|  0.32257
USER: genes 19 Torsion [CG]-CD--CE-[NZ] |==|  0.34474
USER: genes 20 Torsion [CD]-CE--NZ-[HZ2] |==|  0.35767
ROOT
ATOM      1  C   LYS L   5     -23.986 -79.547 -27.754  1.00 61.96 LIG 0.24  C 
ATOM      2 O    LYS L   5     -25.090 -79.111 -27.400  1.00 44.78 LIG-0.27  OA
ATOM      3  N   LYS L   6     -22.848 -79.185 -27.168  1.00 60.12 LIG-0.35  N 
ATOM      4 H    LYS L   6     -22.094 -79.578 -27.299  1.00 60.12 LIG 0.16  HD
ENDROOT
BRANCH 3 5
ATOM      5  CA  LYS L   6     -22.794 -78.066 -26.234  1.00 64.44 LIG 0.18  C 
BRANCH 5 6
ATOM      6  CB  LYS L   6     -21.348 -77.660 -25.945  1.00 71.41 LIG 0.04  C 
BRANCH 6 7
ATOM      7  CG  LYS L   6     -20.518 -78.763 -25.296  1.00 72.05 LIG 0.00  C 
BRANCH 7 8
ATOM      8  CD  LYS L   6     -19.025 -78.508 -25.430  1.00 65.16 LIG 0.03  C 
BRANCH 8 9
ATOM      9  CE  LYS L   6     -18.244 -79.324 -24.411  1.00 70.38 LIG 0.23  C 
BRANCH 9 10
ATOM     10  NZ  LYS L   6     -17.021 -79.924 -25.016  1.00 74.13 LIG-0.08  N 
ATOM     11 HZ2  LYS L   6     -17.244 -80.380 -25.747  1.00 74.13 LIG 0.27  HD
ATOM     12 HZ1  LYS L   6     -16.639 -80.473 -24.429  1.00 74.13 LIG 0.27  HD
ATOM     13 HZ3  LYS L   6     -16.449 -79.278 -25.232  1.00 74.13 LIG 0.27  HD
ENDBRANCH 9 10
ENDBRANCH 8 9
ENDBRANCH 7 8
ENDBRANCH 6 7
ENDBRANCH 5 6
BRANCH 5 14
ATOM     14  C   LYS L   6     -23.555 -76.905 -26.857  1.00 59.21 LIG 0.24  C 
ATOM     15  N   LEU L   7     -24.690 -76.541 -26.270  1.00 55.77 LIG-0.35  N 
ATOM     16 H    LEU L   7     -24.986 -76.882 -25.538  1.00 55.77 LIG 0.16  HD
ATOM     17 O    LYS L   6     -23.125 -76.355 -27.866  1.00 62.62 LIG-0.27  OA
BRANCH 15 18
ATOM     18  CA  LEU L   7     -25.544 -75.502 -26.850  1.00 55.07 LIG 0.16  C 
BRANCH 18 19
ATOM     19  CB  LEU L   7     -24.807 -74.159 -26.901  1.00 49.39 LIG 0.04  C 
BRANCH 19 20
ATOM     20  CG  LEU L   7     -25.640 -72.977 -27.393  1.00 45.34 LIG-0.02  C 
ATOM     21  CD2 LEU L   7     -24.897 -71.663 -27.136  1.00 40.01 LIG 0.01  C 
ATOM     22  CD1 LEU L   7     -26.985 -72.992 -26.693  1.00 33.03 LIG 0.01  C 
ENDBRANCH 19 20
ENDBRANCH 18 19
BRANCH 18 23
ATOM     23  C   LEU L   7     -26.051 -75.873 -28.242  1.00 52.26 LIG 0.22  C 
ATOM     24 O    LEU L   7     -25.264 -75.981 -29.183  1.00 59.22 LIG-0.29  OA
ENDBRANCH 18 23
ENDBRANCH 15 18
ENDBRANCH 5 14
ENDBRANCH 3 5
BRANCH 1 25
ATOM     25  CA  LYS L   5     -23.864 -80.556 -28.907  1.00 63.64 LIG 0.18  C 
BRANCH 25 26
ATOM     26  N   LYS L   5     -22.740 -81.482 -28.762  1.00 68.83 LIG-0.35  N 
ATOM     27  C   ALA L   4     -21.805 -81.606 -29.704  1.00 74.38 LIG 0.26  C 
ATOM     28 O    ALA L   4     -21.766 -80.891 -30.710  1.00 71.28 LIG-0.27  OA
ATOM     29 H    LYS L   5     -22.741 -81.927 -28.026  1.00 68.83 LIG 0.16  HD
BRANCH 27 30
ATOM     30  CA  ALA L   4     -20.752 -82.700 -29.484  1.00 68.81 LIG 0.40  C 
ATOM     31  N   ALA L   4     -20.430 -82.833 -28.067  1.00 73.56 LIG 0.61  N 
ATOM     32  CB  ALA L   4     -21.228 -84.043 -30.056  1.00 57.48 LIG 0.06  C 
ENDBRANCH 27 30
ENDBRANCH 25 26
BRANCH 25 33
ATOM     33  CB  LYS L   5     -25.168 -81.349 -29.039  1.00 69.62 LIG 0.04  C 
BRANCH 33 34
ATOM     34  CG  LYS L   5     -26.353 -80.542 -29.539  1.00 80.66 LIG 0.00  C 
BRANCH 34 35
ATOM     35  CD  LYS L   5     -27.049 -81.256 -30.693  1.00 85.15 LIG 0.03  C 
BRANCH 35 36
ATOM     36  CE  LYS L   5     -28.473 -81.650 -30.325  1.00 90.30 LIG 0.23  C 
BRANCH 36 37
ATOM     37  NZ  LYS L   5     -29.481 -81.104 -31.281  1.00 90.68 LIG-0.08  N 
ATOM     38 HZ3  LYS L   5     -29.970 -80.481 -30.874  1.00 90.68 LIG 0.27  HD
ATOM     39 HZ2  LYS L   5     -30.012 -81.761 -31.561  1.00 90.68 LIG 0.27  HD
ATOM     40 HZ1  LYS L   5     -29.063 -80.743 -31.980  1.00 90.68 LIG 0.27  HD
ENDBRANCH 36 37
ENDBRANCH 35 36
ENDBRANCH 34 35
ENDBRANCH 33 34
ENDBRANCH 25 33
ENDBRANCH 1 25
TORSDOF 19
ENDMDL
MODEL 28
USER: ADFR SOLUTION from run 9
USER: SCORE 14.640947 LL:  -1.669 LR: -14.240 RR:   0.000 FEB:  -8.573
USER: RMSD 8.198052
USER: SEED 28353
USER: STATUS no improvement in best in 10 clusters for 5 generations
USER: GENES 21
USER: genes 0 Translation |==|  0.54561 0.33355 0.41074
USER: genes 1 Rotation |==|  0.63604 0.48734 0.11409 0.78706
USER: genes 2 Torsion [C]-N--CA-[CB] |==|  0.50167
USER: genes 3 Torsion [N]-CA--CB-[CG] |==|  0.50250
USER: genes 4 Torsion [CA]-CB--CG-[CD] |==|  0.22761
USER: genes 5 Torsion [CB]-CG--CD-[CE] |==|  0.43654
USER: genes 6 Torsion [CG]-CD--CE-[NZ] |==|  0.33065
USER: genes 7 Torsion [CD]-CE--NZ-[HZ1] |==|  0.95460
USER: genes 8 Torsion [N]-CA--C-[N] |==|  0.43847
USER: genes 9 Torsion [C]-N--CA-[CB] |==|  0.32865
USER: genes 10 Torsion [N]-CA--CB-[CG] |==|  0.85460
USER: genes 11 Torsion [CA]-CB--CG-[CD2] |==|  0.62607
USER: genes 12 Torsion [N]-CA--C-[O] |==|  0.36302
USER: genes 13 Torsion [N]-C--CA-[N] |==|  0.72820
USER: genes 14 Torsion [C]-CA--N-[C] |==|  0.69930
USER: genes 15 Torsion [N]-C--CA-[N] |==|  0.33806
USER: genes 16 Torsion [C]-CA--CB-[CG] |==|  0.22099
USER: genes 17 Torsion [CA]-CB--CG-[CD] |==|  0.40897
USER: genes 18 Torsion [CB]-CG--CD-[CE] |==|  0.38651
USER: genes 19 Torsion [CG]-CD--CE-[NZ] |==|  0.27150
USER: genes 20 Torsion [CD]-CE--NZ-[HZ2] |==|  0.20653
ROOT
ATOM      1  C   LYS L   5     -24.007 -79.601 -28.580  1.00 61.96 LIG 0.24  C 
ATOM      2 O    LYS L   5     -23.326 -80.106 -29.483  1.00 44.78 LIG-0.27  OA
ATOM      3  N   LYS L   6     -23.521 -79.350 -27.367  1.00 60.12 LIG-0.35  N 
ATOM      4 H    LYS L   6     -23.926 -78.874 -26.776  1.00 60.12 LIG 0.16  HD
ENDROOT
BRANCH 3 5
ATOM      5  CA  LYS L   6     -22.229 -79.877 -26.939  1.00 64.44 LIG 0.18  C 
BRANCH 5 6
ATOM      6  CB  LYS L   6     -21.912 -79.456 -25.504  1.00 71.41 LIG 0.04  C 
BRANCH 6 7
ATOM      7  CG  LYS L   6     -20.562 -79.957 -25.001  1.00 72.05 LIG 0.00  C 
BRANCH 7 8
ATOM      8  CD  LYS L   6     -19.416 -79.070 -25.463  1.00 65.16 LIG 0.03  C 
BRANCH 8 9
ATOM      9  CE  LYS L   6     -18.213 -79.221 -24.544  1.00 70.38 LIG 0.23  C 
BRANCH 9 10
ATOM     10  NZ  LYS L   6     -17.024 -79.731 -25.285  1.00 74.13 LIG-0.08  N 
ATOM     11 HZ2  LYS L   6     -16.456 -79.062 -25.433  1.00 74.13 LIG 0.27  HD
ATOM     12 HZ1  LYS L   6     -17.284 -80.076 -26.063  1.00 74.13 LIG 0.27  HD
ATOM     13 HZ3  LYS L   6     -16.621 -80.361 -24.802  1.00 74.13 LIG 0.27  HD
ENDBRANCH 9 10
ENDBRANCH 8 9
ENDBRANCH 7 8
ENDBRANCH 6 7
ENDBRANCH 5 6
BRANCH 5 14
ATOM     14  C   LYS L   6     -22.289 -81.393 -27.046  1.00 59.21 LIG 0.24  C 
ATOM     15  N   LEU L   7     -21.132 -82.039 -27.146  1.00 55.77 LIG-0.35  N 
ATOM     16 H    LEU L   7     -20.361 -81.660 -27.098  1.00 55.77 LIG 0.16  HD
ATOM     17 O    LYS L   6     -23.372 -81.970 -27.051  1.00 62.62 LIG-0.27  OA
BRANCH 15 18
ATOM     18  CA  LEU L   7     -21.088 -83.488 -27.352  1.00 55.07 LIG 0.16  C 
BRANCH 18 19
ATOM     19  CB  LEU L   7     -20.402 -83.828 -28.679  1.00 49.39 LIG 0.04  C 
BRANCH 19 20
ATOM     20  CG  LEU L   7     -20.960 -83.107 -29.904  1.00 45.34 LIG-0.02  C 
ATOM     21  CD2 LEU L   7     -21.144 -84.094 -31.062  1.00 40.01 LIG 0.01  C 
ATOM     22  CD1 LEU L   7     -20.021 -81.981 -30.288  1.00 33.03 LIG 0.01  C 
ENDBRANCH 19 20
ENDBRANCH 18 19
BRANCH 18 23
ATOM     23  C   LEU L   7     -20.396 -84.219 -26.203  1.00 52.26 LIG 0.22  C 
ATOM     24 O    LEU L   7     -20.929 -85.197 -25.677  1.00 59.22 LIG-0.29  OA
ENDBRANCH 18 23
ENDBRANCH 15 18
ENDBRANCH 5 14
ENDBRANCH 3 5
BRANCH 1 25
ATOM     25  CA  LYS L   5     -25.477 -79.221 -28.813  1.00 63.64 LIG 0.18  C 
BRANCH 25 26
ATOM     26  N   LYS L   5     -26.405 -80.344 -28.674  1.00 68.83 LIG-0.35  N 
ATOM     27  C   ALA L   4     -27.014 -80.889 -29.727  1.00 74.38 LIG 0.26  C 
ATOM     28 O    ALA L   4     -26.771 -80.553 -30.891  1.00 71.28 LIG-0.27  OA
ATOM     29 H    LYS L   5     -26.516 -80.613 -27.864  1.00 68.83 LIG 0.16  HD
BRANCH 27 30
ATOM     30  CA  ALA L   4     -28.055 -81.975 -29.430  1.00 68.81 LIG 0.40  C 
ATOM     31  N   ALA L   4     -29.359 -81.606 -29.973  1.00 73.56 LIG 0.61  N 
ATOM     32  CB  ALA L   4     -27.605 -83.334 -29.987  1.00 57.48 LIG 0.06  C 
ENDBRANCH 27 30
ENDBRANCH 25 26
BRANCH 25 33
ATOM     33  CB  LYS L   5     -25.879 -78.100 -27.849  1.00 69.62 LIG 0.04  C 
BRANCH 33 34
ATOM     34  CG  LYS L   5     -25.431 -76.712 -28.268  1.00 80.66 LIG 0.00  C 
BRANCH 34 35
ATOM     35  CD  LYS L   5     -26.440 -75.657 -27.823  1.00 85.15 LIG 0.03  C 
BRANCH 35 36
ATOM     36  CE  LYS L   5     -25.744 -74.411 -27.294  1.00 90.30 LIG 0.23  C 
BRANCH 36 37
ATOM     37  NZ  LYS L   5     -25.646 -73.333 -28.322  1.00 90.68 LIG-0.08  N 
ATOM     38 HZ3  LYS L   5     -25.063 -72.717 -28.052  1.00 90.68 LIG 0.27  HD
ATOM     39 HZ2  LYS L   5     -26.444 -72.956 -28.434  1.00 90.68 LIG 0.27  HD
ATOM     40 HZ1  LYS L   5     -25.372 -73.682 -29.094  1.00 90.68 LIG 0.27  HD
ENDBRANCH 36 37
ENDBRANCH 35 36
ENDBRANCH 34 35
ENDBRANCH 33 34
ENDBRANCH 25 33
ENDBRANCH 1 25
TORSDOF 19
ENDMDL
MODEL 29
USER: ADFR SOLUTION from run 35
USER: SCORE 14.439731 LL:  -1.292 LR: -14.186 RR:   0.000 FEB:  -8.518
USER: RMSD 6.643047
USER: SEED 34
USER: STATUS no improvement in best in 16 clusters for 5 generations
USER: GENES 21
USER: genes 0 Translation |==|  0.65630 0.46280 0.54943
USER: genes 1 Rotation |==|  0.39467 0.08297 0.31692 0.67740
USER: genes 2 Torsion [C]-N--CA-[CB] |==|  0.22020
USER: genes 3 Torsion [N]-CA--CB-[CG] |==|  0.74853
USER: genes 4 Torsion [CA]-CB--CG-[CD] |==|  0.45811
USER: genes 5 Torsion [CB]-CG--CD-[CE] |==|  0.70161
USER: genes 6 Torsion [CG]-CD--CE-[NZ] |==|  0.43735
USER: genes 7 Torsion [CD]-CE--NZ-[HZ1] |==|  0.63232
USER: genes 8 Torsion [N]-CA--C-[N] |==|  0.42100
USER: genes 9 Torsion [C]-N--CA-[CB] |==|  0.39891
USER: genes 10 Torsion [N]-CA--CB-[CG] |==|  0.27184
USER: genes 11 Torsion [CA]-CB--CG-[CD2] |==|  0.65333
USER: genes 12 Torsion [N]-CA--C-[O] |==|  0.88938
USER: genes 13 Torsion [N]-C--CA-[N] |==|  0.42266
USER: genes 14 Torsion [C]-CA--N-[C] |==|  0.60628
USER: genes 15 Torsion [N]-C--CA-[N] |==|  0.75341
USER: genes 16 Torsion [C]-CA--CB-[CG] |==|  0.45685
USER: genes 17 Torsion [CA]-CB--CG-[CD] |==|  0.43461
USER: genes 18 Torsion [CB]-CG--CD-[CE] |==|  0.78762
USER: genes 19 Torsion [CG]-CD--CE-[NZ] |==|  0.52188
USER: genes 20 Torsion [CD]-CE--NZ-[HZ2] |==|  0.08465
ROOT
ATOM      1  C   LYS L   5     -21.848 -76.790 -26.604  1.00 61.96 LIG 0.24  C 
ATOM      2 O    LYS L   5     -21.610 -77.152 -25.443  1.00 44.78 LIG-0.27  OA
ATOM      3  N   LYS L   6     -21.183 -75.804 -27.201  1.00 60.12 LIG-0.35  N 
ATOM      4 H    LYS L   6     -21.230 -75.633 -28.042  1.00 60.12 LIG 0.16  HD
ENDROOT
BRANCH 3 5
ATOM      5  CA  LYS L   6     -20.300 -74.918 -26.451  1.00 64.44 LIG 0.18  C 
BRANCH 5 6
ATOM      6  CB  LYS L   6     -18.950 -75.584 -26.183  1.00 71.41 LIG 0.04  C 
BRANCH 6 7
ATOM      7  CG  LYS L   6     -18.898 -76.361 -24.871  1.00 72.05 LIG 0.00  C 
BRANCH 7 8
ATOM      8  CD  LYS L   6     -17.700 -77.296 -24.809  1.00 65.16 LIG 0.03  C 
BRANCH 8 9
ATOM      9  CE  LYS L   6     -18.140 -78.745 -24.955  1.00 70.38 LIG 0.23  C 
BRANCH 9 10
ATOM     10  NZ  LYS L   6     -17.021 -79.607 -25.433  1.00 74.13 LIG-0.08  N 
ATOM     11 HZ2  LYS L   6     -16.351 -79.095 -25.717  1.00 74.13 LIG 0.27  HD
ATOM     12 HZ1  LYS L   6     -17.306 -80.119 -26.103  1.00 74.13 LIG 0.27  HD
ATOM     13 HZ3  LYS L   6     -16.738 -80.124 -24.766  1.00 74.13 LIG 0.27  HD
ENDBRANCH 9 10
ENDBRANCH 8 9
ENDBRANCH 7 8
ENDBRANCH 6 7
ENDBRANCH 5 6
BRANCH 5 14
ATOM     14  C   LYS L   6     -20.111 -73.650 -27.271  1.00 59.21 LIG 0.24  C 
ATOM     15  N   LEU L   7     -19.863 -72.528 -26.603  1.00 55.77 LIG-0.35  N 
ATOM     16 H    LEU L   7     -19.749 -72.488 -25.752  1.00 55.77 LIG 0.16  HD
ATOM     17 O    LYS L   6     -20.203 -73.686 -28.494  1.00 62.62 LIG-0.27  OA
BRANCH 15 18
ATOM     18  CA  LEU L   7     -19.764 -71.241 -27.294  1.00 55.07 LIG 0.16  C 
BRANCH 18 19
ATOM     19  CB  LEU L   7     -20.357 -70.117 -26.438  1.00 49.39 LIG 0.04  C 
BRANCH 19 20
ATOM     20  CG  LEU L   7     -19.342 -69.303 -25.638  1.00 45.34 LIG-0.02  C 
ATOM     21  CD2 LEU L   7     -19.711 -69.311 -24.151  1.00 40.01 LIG 0.01  C 
ATOM     22  CD1 LEU L   7     -19.300 -67.889 -26.184  1.00 33.03 LIG 0.01  C 
ENDBRANCH 19 20
ENDBRANCH 18 19
BRANCH 18 23
ATOM     23  C   LEU L   7     -18.328 -70.898 -27.685  1.00 52.26 LIG 0.22  C 
ATOM     24 O    LEU L   7     -17.398 -71.145 -26.917  1.00 59.22 LIG-0.29  OA
ENDBRANCH 18 23
ENDBRANCH 15 18
ENDBRANCH 5 14
ENDBRANCH 3 5
BRANCH 1 25
ATOM     25  CA  LYS L   5     -22.939 -77.476 -27.441  1.00 63.64 LIG 0.18  C 
BRANCH 25 26
ATOM     26  N   LYS L   5     -23.182 -78.869 -27.063  1.00 68.83 LIG-0.35  N 
ATOM     27  C   ALA L   4     -23.439 -79.810 -27.972  1.00 74.38 LIG 0.26  C 
ATOM     28 O    ALA L   4     -23.396 -79.598 -29.188  1.00 71.28 LIG-0.27  OA
ATOM     29 H    LYS L   5     -23.144 -79.018 -26.217  1.00 68.83 LIG 0.16  HD
BRANCH 27 30
ATOM     30  CA  ALA L   4     -23.799 -81.201 -27.435  1.00 68.81 LIG 0.40  C 
ATOM     31  N   ALA L   4     -22.599 -82.008 -27.239  1.00 73.56 LIG 0.61  N 
ATOM     32  CB  ALA L   4     -24.597 -81.095 -26.127  1.00 57.48 LIG 0.06  C 
ENDBRANCH 27 30
ENDBRANCH 25 26
BRANCH 25 33
ATOM     33  CB  LYS L   5     -24.244 -76.681 -27.338  1.00 69.62 LIG 0.04  C 
BRANCH 33 34
ATOM     34  CG  LYS L   5     -25.282 -77.027 -28.390  1.00 80.66 LIG 0.00  C 
BRANCH 34 35
ATOM     35  CD  LYS L   5     -26.685 -76.666 -27.910  1.00 85.15 LIG 0.03  C 
BRANCH 35 36
ATOM     36  CE  LYS L   5     -27.205 -77.681 -26.902  1.00 90.30 LIG 0.23  C 
BRANCH 36 37
ATOM     37  NZ  LYS L   5     -28.640 -77.459 -26.558  1.00 90.68 LIG-0.08  N 
ATOM     38 HZ3  LYS L   5     -29.019 -78.236 -26.345  1.00 90.68 LIG 0.27  HD
ATOM     39 HZ2  LYS L   5     -29.062 -77.106 -27.257  1.00 90.68 LIG 0.27  HD
ATOM     40 HZ1  LYS L   5     -28.698 -76.902 -25.865  1.00 90.68 LIG 0.27  HD
ENDBRANCH 36 37
ENDBRANCH 35 36
ENDBRANCH 34 35
ENDBRANCH 33 34
ENDBRANCH 25 33
ENDBRANCH 1 25
TORSDOF 19
ENDMDL
MODEL 30
USER: ADFR SOLUTION from run 64
USER: SCORE 14.323961 LL:  -1.903 LR: -14.149 RR:   0.000 FEB:  -8.481
USER: RMSD 7.336774
USER: SEED 63
USER: STATUS no improvement in best in 8 clusters for 5 generations
USER: GENES 21
USER: genes 0 Translation |==|  0.64645 0.26733 0.51279
USER: genes 1 Rotation |==|  0.55594 0.90153 0.73489 0.67455
USER: genes 2 Torsion [C]-N--CA-[CB] |==|  0.52778
USER: genes 3 Torsion [N]-CA--CB-[CG] |==|  0.08627
USER: genes 4 Torsion [CA]-CB--CG-[CD] |==|  0.60387
USER: genes 5 Torsion [CB]-CG--CD-[CE] |==|  0.04163
USER: genes 6 Torsion [CG]-CD--CE-[NZ] |==|  0.36342
USER: genes 7 Torsion [CD]-CE--NZ-[HZ1] |==|  0.65077
USER: genes 8 Torsion [N]-CA--C-[N] |==|  0.88655
USER: genes 9 Torsion [C]-N--CA-[CB] |==|  0.33390
USER: genes 10 Torsion [N]-CA--CB-[CG] |==|  0.96421
USER: genes 11 Torsion [CA]-CB--CG-[CD2] |==|  0.76843
USER: genes 12 Torsion [N]-CA--C-[O] |==|  0.55707
USER: genes 13 Torsion [N]-C--CA-[N] |==|  0.26860
USER: genes 14 Torsion [C]-CA--N-[C] |==|  0.54390
USER: genes 15 Torsion [N]-C--CA-[N] |==|  0.26611
USER: genes 16 Torsion [C]-CA--CB-[CG] |==|  0.81577
USER: genes 17 Torsion [CA]-CB--CG-[CD] |==|  0.37030
USER: genes 18 Torsion [CB]-CG--CD-[CE] |==|  0.43447
USER: genes 19 Torsion [CG]-CD--CE-[NZ] |==|  0.63506
USER: genes 20 Torsion [CD]-CE--NZ-[HZ2] |==|  0.99519
ROOT
ATOM      1  C   LYS L   5     -22.040 -81.042 -27.126  1.00 61.96 LIG 0.24  C 
ATOM      2 O    LYS L   5     -23.224 -81.092 -26.766  1.00 44.78 LIG-0.27  OA
ATOM      3  N   LYS L   6     -21.077 -80.533 -26.362  1.00 60.12 LIG-0.35  N 
ATOM      4 H    LYS L   6     -20.237 -80.616 -26.527  1.00 60.12 LIG 0.16  HD
ENDROOT
BRANCH 3 5
ATOM      5  CA  LYS L   6     -21.383 -79.775 -25.153  1.00 64.44 LIG 0.18  C 
BRANCH 5 6
ATOM      6  CB  LYS L   6     -20.131 -79.097 -24.597  1.00 71.41 LIG 0.04  C 
BRANCH 6 7
ATOM      7  CG  LYS L   6     -19.119 -78.703 -25.668  1.00 72.05 LIG 0.00  C 
BRANCH 7 8
ATOM      8  CD  LYS L   6     -17.685 -78.904 -25.200  1.00 65.16 LIG 0.03  C 
BRANCH 8 9
ATOM      9  CE  LYS L   6     -17.642 -79.775 -23.953  1.00 70.38 LIG 0.23  C 
BRANCH 9 10
ATOM     10  NZ  LYS L   6     -16.646 -80.875 -24.092  1.00 74.13 LIG-0.08  N 
ATOM     11 HZ2  LYS L   6     -16.313 -80.872 -24.918  1.00 74.13 LIG 0.27  HD
ATOM     12 HZ1  LYS L   6     -17.043 -81.656 -23.936  1.00 74.13 LIG 0.27  HD
ATOM     13 HZ3  LYS L   6     -15.988 -80.755 -23.506  1.00 74.13 LIG 0.27  HD
ENDBRANCH 9 10
ENDBRANCH 8 9
ENDBRANCH 7 8
ENDBRANCH 6 7
ENDBRANCH 5 6
BRANCH 5 14
ATOM     14  C   LYS L   6     -22.434 -78.735 -25.512  1.00 59.21 LIG 0.24  C 
ATOM     15  N   LEU L   7     -22.293 -78.108 -26.675  1.00 55.77 LIG-0.35  N 
ATOM     16 H    LEU L   7     -21.683 -78.294 -27.253  1.00 55.77 LIG 0.16  HD
ATOM     17 O    LYS L   6     -23.353 -78.493 -24.736  1.00 62.62 LIG-0.27  OA
BRANCH 15 18
ATOM     18  CA  LEU L   7     -23.195 -77.022 -27.066  1.00 55.07 LIG 0.16  C 
BRANCH 18 19
ATOM     19  CB  LEU L   7     -22.415 -75.724 -27.297  1.00 49.39 LIG 0.04  C 
BRANCH 19 20
ATOM     20  CG  LEU L   7     -20.973 -75.732 -26.793  1.00 45.34 LIG-0.02  C 
ATOM     21  CD2 LEU L   7     -20.934 -75.400 -25.298  1.00 40.01 LIG 0.01  C 
ATOM     22  CD1 LEU L   7     -20.160 -74.737 -27.597  1.00 33.03 LIG 0.01  C 
ENDBRANCH 19 20
ENDBRANCH 18 19
BRANCH 18 23
ATOM     23  C   LEU L   7     -24.018 -77.366 -28.305  1.00 52.26 LIG 0.22  C 
ATOM     24 O    LEU L   7     -24.529 -76.473 -28.981  1.00 59.22 LIG-0.29  OA
ENDBRANCH 18 23
ENDBRANCH 15 18
ENDBRANCH 5 14
ENDBRANCH 3 5
BRANCH 1 25
ATOM     25  CA  LYS L   5     -21.604 -81.580 -28.497  1.00 63.64 LIG 0.18  C 
BRANCH 25 26
ATOM     26  N   LYS L   5     -21.377 -83.026 -28.516  1.00 68.83 LIG-0.35  N 
ATOM     27  C   ALA L   4     -20.708 -83.620 -29.505  1.00 74.38 LIG 0.26  C 
ATOM     28 O    ALA L   4     -20.157 -82.993 -30.415  1.00 71.28 LIG-0.27  OA
ATOM     29 H    LYS L   5     -21.708 -83.445 -27.842  1.00 68.83 LIG 0.16  HD
BRANCH 27 30
ATOM     30  CA  ALA L   4     -20.650 -85.153 -29.468  1.00 68.81 LIG 0.40  C 
ATOM     31  N   ALA L   4     -21.695 -85.733 -30.305  1.00 73.56 LIG 0.61  N 
ATOM     32  CB  ALA L   4     -19.268 -85.660 -29.903  1.00 57.48 LIG 0.06  C 
ENDBRANCH 27 30
ENDBRANCH 25 26
BRANCH 25 33
ATOM     33  CB  LYS L   5     -22.649 -81.211 -29.553  1.00 69.62 LIG 0.04  C 
BRANCH 33 34
ATOM     34  CG  LYS L   5     -23.998 -81.884 -29.374  1.00 80.66 LIG 0.00  C 
BRANCH 34 35
ATOM     35  CD  LYS L   5     -25.133 -80.875 -29.515  1.00 85.15 LIG 0.03  C 
BRANCH 35 36
ATOM     36  CE  LYS L   5     -26.435 -81.556 -29.913  1.00 90.30 LIG 0.23  C 
BRANCH 36 37
ATOM     37  NZ  LYS L   5     -27.108 -80.875 -31.058  1.00 90.68 LIG-0.08  N 
ATOM     38 HZ3  LYS L   5     -27.166 -81.437 -31.746  1.00 90.68 LIG 0.27  HD
ATOM     39 HZ2  LYS L   5     -26.635 -80.161 -31.299  1.00 90.68 LIG 0.27  HD
ATOM     40 HZ1  LYS L   5     -27.926 -80.620 -30.814  1.00 90.68 LIG 0.27  HD
ENDBRANCH 36 37
ENDBRANCH 35 36
ENDBRANCH 34 35
ENDBRANCH 33 34
ENDBRANCH 25 33
ENDBRANCH 1 25
TORSDOF 19
ENDMDL
MODEL 31
USER: ADFR SOLUTION from run 93
USER: SCORE 14.746203 LL:  -1.379 LR: -14.116 RR:   0.000 FEB:  -8.449
USER: RMSD 2.839346
USER: SEED 92
USER: STATUS searching
USER: GENES 21
USER: genes 0 Translation |==|  0.51549 0.34800 0.43764
USER: genes 1 Rotation |==|  0.57838 0.03394 0.45151 0.65585
USER: genes 2 Torsion [C]-N--CA-[CB] |==|  0.86433
USER: genes 3 Torsion [N]-CA--CB-[CG] |==|  0.54715
USER: genes 4 Torsion [CA]-CB--CG-[CD] |==|  0.45649
USER: genes 5 Torsion [CB]-CG--CD-[CE] |==|  0.69896
USER: genes 6 Torsion [CG]-CD--CE-[NZ] |==|  0.42092
USER: genes 7 Torsion [CD]-CE--NZ-[HZ1] |==|  0.28217
USER: genes 8 Torsion [N]-CA--C-[N] |==|  0.42751
USER: genes 9 Torsion [C]-N--CA-[CB] |==|  0.19276
USER: genes 10 Torsion [N]-CA--CB-[CG] |==|  0.50721
USER: genes 11 Torsion [CA]-CB--CG-[CD2] |==|  0.59176
USER: genes 12 Torsion [N]-CA--C-[O] |==|  0.00898
USER: genes 13 Torsion [N]-C--CA-[N] |==|  0.85031
USER: genes 14 Torsion [C]-CA--N-[C] |==|  0.81470
USER: genes 15 Torsion [N]-C--CA-[N] |==|  0.10350
USER: genes 16 Torsion [C]-CA--CB-[CG] |==|  0.36095
USER: genes 17 Torsion [CA]-CB--CG-[CD] |==|  0.70925
USER: genes 18 Torsion [CB]-CG--CD-[CE] |==|  0.19476
USER: genes 19 Torsion [CG]-CD--CE-[NZ] |==|  0.50148
USER: genes 20 Torsion [CD]-CE--NZ-[HZ2] |==|  0.78522
ROOT
ATOM      1  C   LYS L   5     -24.594 -79.287 -28.197  1.00 61.96 LIG 0.24  C 
ATOM      2 O    LYS L   5     -24.637 -79.186 -26.963  1.00 44.78 LIG-0.27  OA
ATOM      3  N   LYS L   6     -24.626 -78.232 -29.007  1.00 60.12 LIG-0.35  N 
ATOM      4 H    LYS L   6     -24.455 -78.267 -29.849  1.00 60.12 LIG 0.16  HD
ENDROOT
BRANCH 3 5
ATOM      5  CA  LYS L   6     -24.963 -76.901 -28.513  1.00 64.44 LIG 0.18  C 
BRANCH 5 6
ATOM      6  CB  LYS L   6     -26.235 -76.936 -27.664  1.00 71.41 LIG 0.04  C 
BRANCH 6 7
ATOM      7  CG  LYS L   6     -26.873 -75.566 -27.458  1.00 72.05 LIG 0.00  C 
BRANCH 7 8
ATOM      8  CD  LYS L   6     -28.304 -75.673 -26.953  1.00 65.16 LIG 0.03  C 
BRANCH 8 9
ATOM      9  CE  LYS L   6     -29.291 -75.281 -28.042  1.00 70.38 LIG 0.23  C 
BRANCH 9 10
ATOM     10  NZ  LYS L   6     -30.596 -75.981 -27.871  1.00 74.13 LIG-0.08  N 
ATOM     11 HZ2  LYS L   6     -30.895 -76.250 -28.665  1.00 74.13 LIG 0.27  HD
ATOM     12 HZ1  LYS L   6     -31.186 -75.424 -27.506  1.00 74.13 LIG 0.27  HD
ATOM     13 HZ3  LYS L   6     -30.487 -76.686 -27.339  1.00 74.13 LIG 0.27  HD
ENDBRANCH 9 10
ENDBRANCH 8 9
ENDBRANCH 7 8
ENDBRANCH 6 7
ENDBRANCH 5 6
BRANCH 5 14
ATOM     14  C   LYS L   6     -23.788 -76.402 -27.686  1.00 59.21 LIG 0.24  C 
ATOM     15  N   LEU L   7     -23.631 -75.086 -27.590  1.00 55.77 LIG-0.35  N 
ATOM     16 H    LEU L   7     -24.179 -74.509 -27.917  1.00 55.77 LIG 0.16  HD
ATOM     17 O    LYS L   6     -23.025 -77.201 -27.153  1.00 62.62 LIG-0.27  OA
BRANCH 15 18
ATOM     18  CA  LEU L   7     -22.475 -74.509 -26.900  1.00 55.07 LIG 0.16  C 
BRANCH 18 19
ATOM     19  CB  LEU L   7     -21.188 -74.757 -27.694  1.00 49.39 LIG 0.04  C 
BRANCH 19 20
ATOM     20  CG  LEU L   7     -19.908 -74.250 -27.033  1.00 45.34 LIG-0.02  C 
ATOM     21  CD2 LEU L   7     -18.909 -73.788 -28.100  1.00 40.01 LIG 0.01  C 
ATOM     22  CD1 LEU L   7     -19.321 -75.354 -26.176  1.00 33.03 LIG 0.01  C 
ENDBRANCH 19 20
ENDBRANCH 18 19
BRANCH 18 23
ATOM     23  C   LEU L   7     -22.644 -73.016 -26.630  1.00 52.26 LIG 0.22  C 
ATOM     24 O    LEU L   7     -23.692 -72.443 -26.930  1.00 59.22 LIG-0.29  OA
ENDBRANCH 18 23
ENDBRANCH 15 18
ENDBRANCH 5 14
ENDBRANCH 3 5
BRANCH 1 25
ATOM     25  CA  LYS L   5     -24.491 -80.661 -28.877  1.00 63.64 LIG 0.18  C 
BRANCH 25 26
ATOM     26  N   LYS L   5     -25.527 -80.899 -29.883  1.00 68.83 LIG-0.35  N 
ATOM     27  C   ALA L   4     -26.813 -81.016 -29.554  1.00 74.38 LIG 0.26  C 
ATOM     28 O    ALA L   4     -27.232 -80.840 -28.405  1.00 71.28 LIG-0.27  OA
ATOM     29 H    LYS L   5     -25.231 -80.954 -30.689  1.00 68.83 LIG 0.16  HD
BRANCH 27 30
ATOM     30  CA  ALA L   4     -27.779 -81.388 -30.687  1.00 68.81 LIG 0.40  C 
ATOM     31  N   ALA L   4     -27.160 -82.340 -31.604  1.00 73.56 LIG 0.61  N 
ATOM     32  CB  ALA L   4     -29.091 -81.955 -30.126  1.00 57.48 LIG 0.06  C 
ENDBRANCH 27 30
ENDBRANCH 25 26
BRANCH 25 33
ATOM     33  CB  LYS L   5     -23.108 -80.818 -29.517  1.00 69.62 LIG 0.04  C 
BRANCH 33 34
ATOM     34  CG  LYS L   5     -22.389 -82.108 -29.168  1.00 80.66 LIG 0.00  C 
BRANCH 34 35
ATOM     35  CD  LYS L   5     -21.276 -81.854 -28.155  1.00 85.15 LIG 0.03  C 
BRANCH 35 36
ATOM     36  CE  LYS L   5     -21.841 -81.501 -26.786  1.00 90.30 LIG 0.23  C 
BRANCH 36 37
ATOM     37  NZ  LYS L   5     -20.771 -81.236 -25.780  1.00 90.68 LIG-0.08  N 
ATOM     38 HZ3  LYS L   5     -20.130 -80.742 -26.151  1.00 90.68 LIG 0.27  HD
ATOM     39 HZ2  LYS L   5     -20.426 -82.008 -25.502  1.00 90.68 LIG 0.27  HD
ATOM     40 HZ1  LYS L   5     -21.118 -80.799 -25.086  1.00 90.68 LIG 0.27  HD
ENDBRANCH 36 37
ENDBRANCH 35 36
ENDBRANCH 34 35
ENDBRANCH 33 34
ENDBRANCH 25 33
ENDBRANCH 1 25
TORSDOF 19
ENDMDL
MODEL 32
USER: ADFR SOLUTION from run 53
USER: SCORE 14.437219 LL:  -1.091 LR: -14.091 RR:   0.000 FEB:  -8.424
USER: RMSD 6.583452
USER: SEED 52
USER: STATUS no improvement in best in 22 clusters for 5 generations
USER: GENES 21
USER: genes 0 Translation |==|  0.63178 0.48710 0.52302
USER: genes 1 Rotation |==|  0.56596 0.54778 0.23879 0.91849
USER: genes 2 Torsion [C]-N--CA-[CB] |==|  0.86110
USER: genes 3 Torsion [N]-CA--CB-[CG] |==|  0.80531
USER: genes 4 Torsion [CA]-CB--CG-[CD] |==|  0.44600
USER: genes 5 Torsion [CB]-CG--CD-[CE] |==|  0.36816
USER: genes 6 Torsion [CG]-CD--CE-[NZ] |==|  0.48570
USER: genes 7 Torsion [CD]-CE--NZ-[HZ1] |==|  0.55533
USER: genes 8 Torsion [N]-CA--C-[N] |==|  0.38256
USER: genes 9 Torsion [C]-N--CA-[CB] |==|  0.28819
USER: genes 10 Torsion [N]-CA--CB-[CG] |==|  0.74093
USER: genes 11 Torsion [CA]-CB--CG-[CD2] |==|  0.65190
USER: genes 12 Torsion [N]-CA--C-[O] |==|  0.41955
USER: genes 13 Torsion [N]-C--CA-[N] |==|  0.15962
USER: genes 14 Torsion [C]-CA--N-[C] |==|  0.19554
USER: genes 15 Torsion [N]-C--CA-[N] |==|  0.39480
USER: genes 16 Torsion [C]-CA--CB-[CG] |==|  0.28694
USER: genes 17 Torsion [CA]-CB--CG-[CD] |==|  0.93195
USER: genes 18 Torsion [CB]-CG--CD-[CE] |==|  0.55833
USER: genes 19 Torsion [CG]-CD--CE-[NZ] |==|  0.47071
USER: genes 20 Torsion [CD]-CE--NZ-[HZ2] |==|  0.81698
ROOT
ATOM      1  C   LYS L   5     -22.326 -76.262 -26.980  1.00 61.96 LIG 0.24  C 
ATOM      2 O    LYS L   5     -21.649 -76.348 -28.013  1.00 44.78 LIG-0.27  OA
ATOM      3  N   LYS L   6     -21.968 -75.505 -25.945  1.00 60.12 LIG-0.35  N 
ATOM      4 H    LYS L   6     -22.485 -75.319 -25.284  1.00 60.12 LIG 0.16  HD
ENDROOT
BRANCH 3 5
ATOM      5  CA  LYS L   6     -20.634 -74.921 -25.855  1.00 64.44 LIG 0.18  C 
BRANCH 5 6
ATOM      6  CB  LYS L   6     -19.553 -75.976 -26.094  1.00 71.41 LIG 0.04  C 
BRANCH 6 7
ATOM      7  CG  LYS L   6     -19.428 -76.994 -24.965  1.00 72.05 LIG 0.00  C 
BRANCH 7 8
ATOM      8  CD  LYS L   6     -18.718 -78.262 -25.416  1.00 65.16 LIG 0.03  C 
BRANCH 8 9
ATOM      9  CE  LYS L   6     -17.642 -78.661 -24.418  1.00 70.38 LIG 0.23  C 
BRANCH 9 10
ATOM     10  NZ  LYS L   6     -17.021 -79.967 -24.781  1.00 74.13 LIG-0.08  N 
ATOM     11 HZ2  LYS L   6     -17.651 -80.525 -25.070  1.00 74.13 LIG 0.27  HD
ATOM     12 HZ1  LYS L   6     -16.623 -80.315 -24.065  1.00 74.13 LIG 0.27  HD
ATOM     13 HZ3  LYS L   6     -16.418 -79.841 -25.422  1.00 74.13 LIG 0.27  HD
ENDBRANCH 9 10
ENDBRANCH 8 9
ENDBRANCH 7 8
ENDBRANCH 6 7
ENDBRANCH 5 6
BRANCH 5 14
ATOM     14  C   LYS L   6     -20.538 -73.819 -26.899  1.00 59.21 LIG 0.24  C 
ATOM     15  N   LEU L   7     -19.946 -72.688 -26.533  1.00 55.77 LIG-0.35  N 
ATOM     16 H    LEU L   7     -19.568 -72.565 -25.770  1.00 55.77 LIG 0.16  HD
ATOM     17 O    LYS L   6     -21.010 -73.988 -28.019  1.00 62.62 LIG-0.27  OA
BRANCH 15 18
ATOM     18  CA  LEU L   7     -19.892 -71.534 -27.434  1.00 55.07 LIG 0.16  C 
BRANCH 18 19
ATOM     19  CB  LEU L   7     -20.906 -70.467 -27.011  1.00 49.39 LIG 0.04  C 
BRANCH 19 20
ATOM     20  CG  LEU L   7     -22.268 -70.553 -27.699  1.00 45.34 LIG-0.02  C 
ATOM     21  CD2 LEU L   7     -22.613 -69.215 -28.361  1.00 40.01 LIG 0.01  C 
ATOM     22  CD1 LEU L   7     -23.316 -70.945 -26.676  1.00 33.03 LIG 0.01  C 
ENDBRANCH 19 20
ENDBRANCH 18 19
BRANCH 18 23
ATOM     23  C   LEU L   7     -18.494 -70.924 -27.517  1.00 52.26 LIG 0.22  C 
ATOM     24 O    LEU L   7     -18.126 -70.349 -28.541  1.00 59.22 LIG-0.29  OA
ENDBRANCH 18 23
ENDBRANCH 15 18
ENDBRANCH 5 14
ENDBRANCH 3 5
BRANCH 1 25
ATOM     25  CA  LYS L   5     -23.649 -77.030 -26.831  1.00 63.64 LIG 0.18  C 
BRANCH 25 26
ATOM     26  N   LYS L   5     -24.802 -76.170 -26.562  1.00 68.83 LIG-0.35  N 
ATOM     27  C   ALA L   4     -25.304 -75.355 -27.490  1.00 74.38 LIG 0.26  C 
ATOM     28 O    ALA L   4     -24.900 -75.336 -28.656  1.00 71.28 LIG-0.27  OA
ATOM     29 H    LYS L   5     -25.117 -76.240 -25.764  1.00 68.83 LIG 0.16  HD
BRANCH 27 30
ATOM     30  CA  ALA L   4     -26.432 -74.418 -27.040  1.00 68.81 LIG 0.40  C 
ATOM     31  N   ALA L   4     -26.306 -73.111 -27.678  1.00 73.56 LIG 0.61  N 
ATOM     32  CB  ALA L   4     -27.807 -75.032 -27.337  1.00 57.48 LIG 0.06  C 
ENDBRANCH 27 30
ENDBRANCH 25 26
BRANCH 25 33
ATOM     33  CB  LYS L   5     -23.910 -77.857 -28.093  1.00 69.62 LIG 0.04  C 
BRANCH 33 34
ATOM     34  CG  LYS L   5     -23.626 -79.342 -27.949  1.00 80.66 LIG 0.00  C 
BRANCH 34 35
ATOM     35  CD  LYS L   5     -22.612 -79.597 -26.838  1.00 85.15 LIG 0.03  C 
BRANCH 35 36
ATOM     36  CE  LYS L   5     -21.937 -80.951 -27.004  1.00 90.30 LIG 0.23  C 
BRANCH 36 37
ATOM     37  NZ  LYS L   5     -20.771 -81.122 -26.088  1.00 90.68 LIG-0.08  N 
ATOM     38 HZ3  LYS L   5     -21.027 -80.970 -25.249  1.00 90.68 LIG 0.27  HD
ATOM     39 HZ2  LYS L   5     -20.130 -80.547 -26.311  1.00 90.68 LIG 0.27  HD
ATOM     40 HZ1  LYS L   5     -20.459 -81.954 -26.156  1.00 90.68 LIG 0.27  HD
ENDBRANCH 36 37
ENDBRANCH 35 36
ENDBRANCH 34 35
ENDBRANCH 33 34
ENDBRANCH 25 33
ENDBRANCH 1 25
TORSDOF 19
ENDMDL
MODEL 33
USER: ADFR SOLUTION from run 89
USER: SCORE 15.050334 LL:  -1.702 LR: -14.092 RR:   0.000 FEB:  -8.424
USER: RMSD 8.057448
USER: SEED 88
USER: STATUS no improvement in best in 9 clusters for 5 generations
USER: GENES 21
USER: genes 0 Translation |==|  0.59243 0.32862 0.50014
USER: genes 1 Rotation |==|  0.04194 0.58163 0.62117 0.63725
USER: genes 2 Torsion [C]-N--CA-[CB] |==|  0.55016
USER: genes 3 Torsion [N]-CA--CB-[CG] |==|  0.36619
USER: genes 4 Torsion [CA]-CB--CG-[CD] |==|  0.33395
USER: genes 5 Torsion [CB]-CG--CD-[CE] |==|  0.12180
USER: genes 6 Torsion [CG]-CD--CE-[NZ] |==|  0.29756
USER: genes 7 Torsion [CD]-CE--NZ-[HZ1] |==|  0.23402
USER: genes 8 Torsion [N]-CA--C-[N] |==|  0.40253
USER: genes 9 Torsion [C]-N--CA-[CB] |==|  0.21152
USER: genes 10 Torsion [N]-CA--CB-[CG] |==|  0.63761
USER: genes 11 Torsion [CA]-CB--CG-[CD2] |==|  0.26566
USER: genes 12 Torsion [N]-CA--C-[O] |==|  0.86216
USER: genes 13 Torsion [N]-C--CA-[N] |==|  0.04444
USER: genes 14 Torsion [C]-CA--N-[C] |==|  0.78216
USER: genes 15 Torsion [N]-C--CA-[N] |==|  0.49163
USER: genes 16 Torsion [C]-CA--CB-[CG] |==|  0.16951
USER: genes 17 Torsion [CA]-CB--CG-[CD] |==|  0.33208
USER: genes 18 Torsion [CB]-CG--CD-[CE] |==|  0.38172
USER: genes 19 Torsion [CG]-CD--CE-[NZ] |==|  0.31395
USER: genes 20 Torsion [CD]-CE--NZ-[HZ2] |==|  0.88200
ROOT
ATOM      1  C   LYS L   5     -23.094 -79.708 -27.306  1.00 61.96 LIG 0.24  C 
ATOM      2 O    LYS L   5     -22.395 -80.722 -27.172  1.00 44.78 LIG-0.27  OA
ATOM      3  N   LYS L   6     -24.347 -79.752 -27.752  1.00 60.12 LIG-0.35  N 
ATOM      4 H    LYS L   6     -24.892 -79.088 -27.718  1.00 60.12 LIG 0.16  HD
ENDROOT
BRANCH 3 5
ATOM      5  CA  LYS L   6     -24.902 -80.962 -28.347  1.00 64.44 LIG 0.18  C 
BRANCH 5 6
ATOM      6  CB  LYS L   6     -26.156 -80.648 -29.164  1.00 71.41 LIG 0.04  C 
BRANCH 6 7
ATOM      7  CG  LYS L   6     -26.158 -81.277 -30.554  1.00 72.05 LIG 0.00  C 
BRANCH 7 8
ATOM      8  CD  LYS L   6     -27.336 -82.218 -30.753  1.00 65.16 LIG 0.03  C 
BRANCH 8 9
ATOM      9  CE  LYS L   6     -28.616 -81.601 -30.209  1.00 70.38 LIG 0.23  C 
BRANCH 9 10
ATOM     10  NZ  LYS L   6     -29.521 -81.164 -31.310  1.00 74.13 LIG-0.08  N 
ATOM     11 HZ2  LYS L   6     -30.061 -80.521 -31.014  1.00 74.13 LIG 0.27  HD
ATOM     12 HZ1  LYS L   6     -30.007 -81.856 -31.587  1.00 74.13 LIG 0.27  HD
ATOM     13 HZ3  LYS L   6     -29.035 -80.855 -31.988  1.00 74.13 LIG 0.27  HD
ENDBRANCH 9 10
ENDBRANCH 8 9
ENDBRANCH 7 8
ENDBRANCH 6 7
ENDBRANCH 5 6
BRANCH 5 14
ATOM     14  C   LYS L   6     -23.831 -81.576 -29.236  1.00 59.21 LIG 0.24  C 
ATOM     15  N   LEU L   7     -23.781 -82.902 -29.297  1.00 55.77 LIG-0.35  N 
ATOM     16 H    LEU L   7     -24.346 -83.425 -28.913  1.00 55.77 LIG 0.16  HD
ATOM     17 O    LYS L   6     -23.050 -80.855 -29.848  1.00 62.62 LIG-0.27  OA
BRANCH 15 18
ATOM     18  CA  LEU L   7     -22.725 -83.588 -30.046  1.00 55.07 LIG 0.16  C 
BRANCH 18 19
ATOM     19  CB  LEU L   7     -21.404 -83.561 -29.270  1.00 49.39 LIG 0.04  C 
BRANCH 19 20
ATOM     20  CG  LEU L   7     -20.188 -83.099 -30.070  1.00 45.34 LIG-0.02  C 
ATOM     21  CD2 LEU L   7     -19.942 -81.604 -29.843  1.00 40.01 LIG 0.01  C 
ATOM     22  CD1 LEU L   7     -20.417 -83.399 -31.538  1.00 33.03 LIG 0.01  C 
ENDBRANCH 19 20
ENDBRANCH 18 19
BRANCH 18 23
ATOM     23  C   LEU L   7     -23.099 -85.027 -30.394  1.00 52.26 LIG 0.22  C 
ATOM     24 O    LEU L   7     -23.529 -85.786 -29.526  1.00 59.22 LIG-0.29  OA
ENDBRANCH 18 23
ENDBRANCH 15 18
ENDBRANCH 5 14
ENDBRANCH 3 5
BRANCH 1 25
ATOM     25  CA  LYS L   5     -22.548 -78.316 -26.952  1.00 63.64 LIG 0.18  C 
BRANCH 25 26
ATOM     26  N   LYS L   5     -23.588 -77.297 -26.805  1.00 68.83 LIG-0.35  N 
ATOM     27  C   ALA L   4     -24.163 -76.721 -27.861  1.00 74.38 LIG 0.26  C 
ATOM     28 O    ALA L   4     -23.932 -77.067 -29.023  1.00 71.28 LIG-0.27  OA
ATOM     29 H    LYS L   5     -23.788 -77.110 -25.989  1.00 68.83 LIG 0.16  HD
BRANCH 27 30
ATOM     30  CA  ALA L   4     -25.146 -75.580 -27.568  1.00 68.81 LIG 0.40  C 
ATOM     31  N   ALA L   4     -25.646 -74.995 -28.809  1.00 73.56 LIG 0.61  N 
ATOM     32  CB  ALA L   4     -26.311 -76.070 -26.696  1.00 57.48 LIG 0.06  C 
ENDBRANCH 27 30
ENDBRANCH 25 26
BRANCH 25 33
ATOM     33  CB  LYS L   5     -21.723 -78.397 -25.664  1.00 69.62 LIG 0.04  C 
BRANCH 33 34
ATOM     34  CG  LYS L   5     -20.513 -79.309 -25.742  1.00 80.66 LIG 0.00  C 
BRANCH 34 35
ATOM     35  CD  LYS L   5     -19.226 -78.530 -25.487  1.00 85.15 LIG 0.03  C 
BRANCH 35 36
ATOM     36  CE  LYS L   5     -18.280 -79.303 -24.579  1.00 90.30 LIG 0.23  C 
BRANCH 36 37
ATOM     37  NZ  LYS L   5     -17.037 -79.733 -25.285  1.00 90.68 LIG-0.08  N 
ATOM     38 HZ3  LYS L   5     -16.484 -79.040 -25.362  1.00 90.68 LIG 0.27  HD
ATOM     39 HZ2  LYS L   5     -17.245 -80.037 -26.095  1.00 90.68 LIG 0.27  HD
ATOM     40 HZ1  LYS L   5     -16.639 -80.379 -24.819  1.00 90.68 LIG 0.27  HD
ENDBRANCH 36 37
ENDBRANCH 35 36
ENDBRANCH 34 35
ENDBRANCH 33 34
ENDBRANCH 25 33
ENDBRANCH 1 25
TORSDOF 19
ENDMDL
MODEL 34
USER: ADFR SOLUTION from run 193
USER: SCORE 14.939241 LL:  -1.710 LR: -14.066 RR:   0.000 FEB:  -8.398
USER: RMSD 7.766968
USER: SEED 192
USER: STATUS no improvement in best in 8 clusters for 5 generations
USER: GENES 21
USER: genes 0 Translation |==|  0.64273 0.50604 0.51060
USER: genes 1 Rotation |==|  0.69497 0.36011 0.88014 0.71889
USER: genes 2 Torsion [C]-N--CA-[CB] |==|  0.17040
USER: genes 3 Torsion [N]-CA--CB-[CG] |==|  0.58310
USER: genes 4 Torsion [CA]-CB--CG-[CD] |==|  0.06666
USER: genes 5 Torsion [CB]-CG--CD-[CE] |==|  0.65690
USER: genes 6 Torsion [CG]-CD--CE-[NZ] |==|  0.69507
USER: genes 7 Torsion [CD]-CE--NZ-[HZ1] |==|  0.49531
USER: genes 8 Torsion [N]-CA--C-[N] |==|  0.70556
USER: genes 9 Torsion [C]-N--CA-[CB] |==|  0.85461
USER: genes 10 Torsion [N]-CA--CB-[CG] |==|  0.69338
USER: genes 11 Torsion [CA]-CB--CG-[CD2] |==|  0.72546
USER: genes 12 Torsion [N]-CA--C-[O] |==|  0.06267
USER: genes 13 Torsion [N]-C--CA-[N] |==|  0.46009
USER: genes 14 Torsion [C]-CA--N-[C] |==|  0.61627
USER: genes 15 Torsion [N]-C--CA-[N] |==|  0.34590
USER: genes 16 Torsion [C]-CA--CB-[CG] |==|  0.37183
USER: genes 17 Torsion [CA]-CB--CG-[CD] |==|  0.70236
USER: genes 18 Torsion [CB]-CG--CD-[CE] |==|  0.58950
USER: genes 19 Torsion [CG]-CD--CE-[NZ] |==|  0.66948
USER: genes 20 Torsion [CD]-CE--NZ-[HZ2] |==|  0.25247
ROOT
ATOM      1  C   LYS L   5     -22.113 -75.850 -27.157  1.00 61.96 LIG 0.24  C 
ATOM      2 O    LYS L   5     -23.046 -75.035 -27.133  1.00 44.78 LIG-0.27  OA
ATOM      3  N   LYS L   6     -22.282 -77.128 -27.485  1.00 60.12 LIG-0.35  N 
ATOM      4 H    LYS L   6     -21.636 -77.672 -27.646  1.00 60.12 LIG 0.16  HD
ENDROOT
BRANCH 3 5
ATOM      5  CA  LYS L   6     -23.612 -77.717 -27.597  1.00 64.44 LIG 0.18  C 
BRANCH 5 6
ATOM      6  CB  LYS L   6     -24.431 -77.022 -28.685  1.00 71.41 LIG 0.04  C 
BRANCH 6 7
ATOM      7  CG  LYS L   6     -25.933 -77.025 -28.420  1.00 72.05 LIG 0.00  C 
BRANCH 7 8
ATOM      8  CD  LYS L   6     -26.250 -77.169 -26.939  1.00 65.16 LIG 0.03  C 
BRANCH 8 9
ATOM      9  CE  LYS L   6     -27.149 -78.372 -26.695  1.00 70.38 LIG 0.23  C 
BRANCH 9 10
ATOM     10  NZ  LYS L   6     -28.524 -77.952 -26.299  1.00 74.13 LIG-0.08  N 
ATOM     11 HZ2  LYS L   6     -28.487 -77.493 -25.537  1.00 74.13 LIG 0.27  HD
ATOM     12 HZ1  LYS L   6     -29.034 -78.672 -26.187  1.00 74.13 LIG 0.27  HD
ATOM     13 HZ3  LYS L   6     -28.873 -77.439 -26.938  1.00 74.13 LIG 0.27  HD
ENDBRANCH 9 10
ENDBRANCH 8 9
ENDBRANCH 7 8
ENDBRANCH 6 7
ENDBRANCH 5 6
BRANCH 5 14
ATOM     14  C   LYS L   6     -23.439 -79.192 -27.925  1.00 59.21 LIG 0.24  C 
ATOM     15  N   LEU L   7     -23.709 -79.571 -29.170  1.00 55.77 LIG-0.35  N 
ATOM     16 H    LEU L   7     -23.918 -79.030 -29.805  1.00 55.77 LIG 0.16  HD
ATOM     17 O    LYS L   6     -23.080 -79.980 -27.056  1.00 62.62 LIG-0.27  OA
BRANCH 15 18
ATOM     18  CA  LEU L   7     -23.668 -80.983 -29.558  1.00 55.07 LIG 0.16  C 
BRANCH 18 19
ATOM     19  CB  LEU L   7     -22.334 -81.619 -29.155  1.00 49.39 LIG 0.04  C 
BRANCH 19 20
ATOM     20  CG  LEU L   7     -21.407 -81.980 -30.314  1.00 45.34 LIG-0.02  C 
ATOM     21  CD2 LEU L   7     -21.530 -83.471 -30.645  1.00 40.01 LIG 0.01  C 
ATOM     22  CD1 LEU L   7     -19.984 -81.616 -29.943  1.00 33.03 LIG 0.01  C 
ENDBRANCH 19 20
ENDBRANCH 18 19
BRANCH 18 23
ATOM     23  C   LEU L   7     -24.829 -81.783 -28.970  1.00 52.26 LIG 0.22  C 
ATOM     24 O    LEU L   7     -25.864 -81.214 -28.623  1.00 59.22 LIG-0.29  OA
ENDBRANCH 18 23
ENDBRANCH 15 18
ENDBRANCH 5 14
ENDBRANCH 3 5
BRANCH 1 25
ATOM     25  CA  LYS L   5     -20.678 -75.422 -26.812  1.00 63.64 LIG 0.18  C 
BRANCH 25 26
ATOM     26  N   LYS L   5     -20.486 -73.972 -26.786  1.00 68.83 LIG-0.35  N 
ATOM     27  C   ALA L   4     -19.402 -73.396 -27.307  1.00 74.38 LIG 0.26  C 
ATOM     28 O    ALA L   4     -18.538 -74.026 -27.925  1.00 71.28 LIG-0.27  OA
ATOM     29 H    LYS L   5     -21.126 -73.536 -26.411  1.00 68.83 LIG 0.16  HD
BRANCH 27 30
ATOM     30  CA  ALA L   4     -19.265 -71.882 -27.102  1.00 68.81 LIG 0.40  C 
ATOM     31  N   ALA L   4     -17.994 -71.557 -26.463  1.00 73.56 LIG 0.61  N 
ATOM     32  CB  ALA L   4     -19.404 -71.133 -28.436  1.00 57.48 LIG 0.06  C 
ENDBRANCH 27 30
ENDBRANCH 25 26
BRANCH 25 33
ATOM     33  CB  LYS L   5     -20.273 -76.017 -25.459  1.00 69.62 LIG 0.04  C 
BRANCH 33 34
ATOM     34  CG  LYS L   5     -18.897 -76.657 -25.434  1.00 80.66 LIG 0.00  C 
BRANCH 34 35
ATOM     35  CD  LYS L   5     -19.004 -78.178 -25.380  1.00 85.15 LIG 0.03  C 
BRANCH 35 36
ATOM     36  CE  LYS L   5     -17.849 -78.789 -24.600  1.00 90.30 LIG 0.23  C 
BRANCH 36 37
ATOM     37  NZ  LYS L   5     -17.021 -79.709 -25.434  1.00 90.68 LIG-0.08  N 
ATOM     38 HZ3  LYS L   5     -16.682 -80.352 -24.920  1.00 90.68 LIG 0.27  HD
ATOM     39 HZ2  LYS L   5     -16.358 -79.252 -25.812  1.00 90.68 LIG 0.27  HD
ATOM     40 HZ1  LYS L   5     -17.529 -80.074 -26.068  1.00 90.68 LIG 0.27  HD
ENDBRANCH 36 37
ENDBRANCH 35 36
ENDBRANCH 34 35
ENDBRANCH 33 34
ENDBRANCH 25 33
ENDBRANCH 1 25
TORSDOF 19
ENDMDL
MODEL 35
USER: ADFR SOLUTION from run 7
USER: SCORE 15.083478 LL:  -1.594 LR: -14.067 RR:   0.000 FEB:  -8.399
USER: RMSD 9.819574
USER: SEED 975644
USER: STATUS no improvement in best in 7 clusters for 5 generations
USER: GENES 21
USER: genes 0 Translation |==|  0.55465 0.27863 0.39604
USER: genes 1 Rotation |==|  0.75503 0.61828 0.17534 0.75605
USER: genes 2 Torsion [C]-N--CA-[CB] |==|  0.52849
USER: genes 3 Torsion [N]-CA--CB-[CG] |==|  0.34036
USER: genes 4 Torsion [CA]-CB--CG-[CD] |==|  0.39563
USER: genes 5 Torsion [CB]-CG--CD-[CE] |==|  0.01800
USER: genes 6 Torsion [CG]-CD--CE-[NZ] |==|  0.76515
USER: genes 7 Torsion [CD]-CE--NZ-[HZ1] |==|  0.11116
USER: genes 8 Torsion [N]-CA--C-[N] |==|  0.39902
USER: genes 9 Torsion [C]-N--CA-[CB] |==|  0.82590
USER: genes 10 Torsion [N]-CA--CB-[CG] |==|  0.74567
USER: genes 11 Torsion [CA]-CB--CG-[CD2] |==|  0.63620
USER: genes 12 Torsion [N]-CA--C-[O] |==|  0.51798
USER: genes 13 Torsion [N]-C--CA-[N] |==|  0.31169
USER: genes 14 Torsion [C]-CA--N-[C] |==|  0.76764
USER: genes 15 Torsion [N]-C--CA-[N] |==|  0.43305
USER: genes 16 Torsion [C]-CA--CB-[CG] |==|  0.36486
USER: genes 17 Torsion [CA]-CB--CG-[CD] |==|  0.21310
USER: genes 18 Torsion [CB]-CG--CD-[CE] |==|  0.39173
USER: genes 19 Torsion [CG]-CD--CE-[NZ] |==|  0.62874
USER: genes 20 Torsion [CD]-CE--NZ-[HZ2] |==|  0.48381
ROOT
ATOM      1  C   LYS L   5     -23.830 -80.796 -28.789  1.00 61.96 LIG 0.24  C 
ATOM      2 O    LYS L   5     -23.001 -80.469 -29.649  1.00 44.78 LIG-0.27  OA
ATOM      3  N   LYS L   6     -23.486 -81.356 -27.633  1.00 60.12 LIG-0.35  N 
ATOM      4 H    LYS L   6     -24.023 -81.458 -26.969  1.00 60.12 LIG 0.16  HD
ENDROOT
BRANCH 3 5
ATOM      5  CA  LYS L   6     -22.133 -81.850 -27.398  1.00 64.44 LIG 0.18  C 
BRANCH 5 6
ATOM      6  CB  LYS L   6     -22.061 -82.665 -26.106  1.00 71.41 LIG 0.04  C 
BRANCH 6 7
ATOM      7  CG  LYS L   6     -21.553 -84.090 -26.307  1.00 72.05 LIG 0.00  C 
BRANCH 7 8
ATOM      8  CD  LYS L   6     -20.663 -84.544 -25.160  1.00 65.16 LIG 0.03  C 
BRANCH 8 9
ATOM      9  CE  LYS L   6     -20.650 -83.509 -24.045  1.00 70.38 LIG 0.23  C 
BRANCH 9 10
ATOM     10  NZ  LYS L   6     -19.646 -82.439 -24.308  1.00 74.13 LIG-0.08  N 
ATOM     11 HZ2  LYS L   6     -19.846 -81.719 -23.824  1.00 74.13 LIG 0.27  HD
ATOM     12 HZ1  LYS L   6     -19.657 -82.228 -25.172  1.00 74.13 LIG 0.27  HD
ATOM     13 HZ3  LYS L   6     -18.836 -82.731 -24.085  1.00 74.13 LIG 0.27  HD
ENDBRANCH 9 10
ENDBRANCH 8 9
ENDBRANCH 7 8
ENDBRANCH 6 7
ENDBRANCH 5 6
BRANCH 5 14
ATOM     14  C   LYS L   6     -21.741 -82.710 -28.590  1.00 59.21 LIG 0.24  C 
ATOM     15  N   LEU L   7     -20.474 -82.654 -28.986  1.00 55.77 LIG-0.35  N 
ATOM     16 H    LEU L   7     -19.859 -82.210 -28.580  1.00 55.77 LIG 0.16  HD
ATOM     17 O    LYS L   6     -22.580 -83.406 -29.152  1.00 62.62 LIG-0.27  OA
BRANCH 15 18
ATOM     18  CA  LEU L   7     -20.021 -83.368 -30.182  1.00 55.07 LIG 0.16  C 
BRANCH 18 19
ATOM     19  CB  LEU L   7     -20.195 -84.881 -30.011  1.00 49.39 LIG 0.04  C 
BRANCH 19 20
ATOM     20  CG  LEU L   7     -18.984 -85.615 -29.440  1.00 45.34 LIG-0.02  C 
ATOM     21  CD2 LEU L   7     -18.657 -86.843 -30.296  1.00 40.01 LIG 0.01  C 
ATOM     22  CD1 LEU L   7     -19.274 -86.009 -28.005  1.00 33.03 LIG 0.01  C 
ENDBRANCH 19 20
ENDBRANCH 18 19
BRANCH 18 23
ATOM     23  C   LEU L   7     -20.738 -82.899 -31.447  1.00 52.26 LIG 0.22  C 
ATOM     24 O    LEU L   7     -20.557 -83.481 -32.517  1.00 59.22 LIG-0.29  OA
ENDBRANCH 18 23
ENDBRANCH 15 18
ENDBRANCH 5 14
ENDBRANCH 3 5
BRANCH 1 25
ATOM     25  CA  LYS L   5     -25.333 -80.563 -29.008  1.00 63.64 LIG 0.18  C 
BRANCH 25 26
ATOM     26  N   LYS L   5     -25.713 -79.150 -29.033  1.00 68.83 LIG-0.35  N 
ATOM     27  C   ALA L   4     -25.941 -78.463 -27.913  1.00 74.38 LIG 0.26  C 
ATOM     28 O    ALA L   4     -25.760 -78.936 -26.786  1.00 71.28 LIG-0.27  OA
ATOM     29 H    LYS L   5     -25.772 -78.813 -29.822  1.00 68.83 LIG 0.16  HD
BRANCH 27 30
ATOM     30  CA  ALA L   4     -26.453 -77.027 -28.082  1.00 68.81 LIG 0.40  C 
ATOM     31  N   ALA L   4     -27.182 -76.592 -26.895  1.00 73.56 LIG 0.61  N 
ATOM     32  CB  ALA L   4     -25.296 -76.065 -28.386  1.00 57.48 LIG 0.06  C 
ENDBRANCH 27 30
ENDBRANCH 25 26
BRANCH 25 33
ATOM     33  CB  LYS L   5     -25.776 -81.236 -30.311  1.00 69.62 LIG 0.04  C 
BRANCH 33 34
ATOM     34  CG  LYS L   5     -27.021 -82.094 -30.192  1.00 80.66 LIG 0.00  C 
BRANCH 34 35
ATOM     35  CD  LYS L   5     -28.276 -81.229 -30.131  1.00 85.15 LIG 0.03  C 
BRANCH 35 36
ATOM     36  CE  LYS L   5     -29.419 -81.850 -30.921  1.00 90.30 LIG 0.23  C 
BRANCH 36 37
ATOM     37  NZ  LYS L   5     -30.109 -80.861 -31.799  1.00 90.68 LIG-0.08  N 
ATOM     38 HZ3  LYS L   5     -30.518 -80.251 -31.296  1.00 90.68 LIG 0.27  HD
ATOM     39 HZ2  LYS L   5     -30.711 -81.280 -32.303  1.00 90.68 LIG 0.27  HD
ATOM     40 HZ1  LYS L   5     -29.511 -80.460 -32.324  1.00 90.68 LIG 0.27  HD
ENDBRANCH 36 37
ENDBRANCH 35 36
ENDBRANCH 34 35
ENDBRANCH 33 34
ENDBRANCH 25 33
ENDBRANCH 1 25
TORSDOF 19
ENDMDL
MODEL 36
USER: ADFR SOLUTION from run 116
USER: SCORE 13.787810 LL:  -1.541 LR: -14.064 RR:   0.000 FEB:  -8.397
USER: RMSD 8.230778
USER: SEED 115
USER: STATUS no improvement in best in 8 clusters for 5 generations
USER: GENES 21
USER: genes 0 Translation |==|  0.53855 0.39537 0.46191
USER: genes 1 Rotation |==|  0.80098 0.70759 0.24185 0.72288
USER: genes 2 Torsion [C]-N--CA-[CB] |==|  0.40598
USER: genes 3 Torsion [N]-CA--CB-[CG] |==|  0.65310
USER: genes 4 Torsion [CA]-CB--CG-[CD] |==|  0.81991
USER: genes 5 Torsion [CB]-CG--CD-[CE] |==|  0.59897
USER: genes 6 Torsion [CG]-CD--CE-[NZ] |==|  0.46302
USER: genes 7 Torsion [CD]-CE--NZ-[HZ1] |==|  0.30373
USER: genes 8 Torsion [N]-CA--C-[N] |==|  0.55575
USER: genes 9 Torsion [C]-N--CA-[CB] |==|  0.84061
USER: genes 10 Torsion [N]-CA--CB-[CG] |==|  0.44592
USER: genes 11 Torsion [CA]-CB--CG-[CD2] |==|  0.53571
USER: genes 12 Torsion [N]-CA--C-[O] |==|  0.78643
USER: genes 13 Torsion [N]-C--CA-[N] |==|  0.93340
USER: genes 14 Torsion [C]-CA--N-[C] |==|  0.74712
USER: genes 15 Torsion [N]-C--CA-[N] |==|  0.28568
USER: genes 16 Torsion [C]-CA--CB-[CG] |==|  0.27482
USER: genes 17 Torsion [CA]-CB--CG-[CD] |==|  0.44717
USER: genes 18 Torsion [CB]-CG--CD-[CE] |==|  0.77247
USER: genes 19 Torsion [CG]-CD--CE-[NZ] |==|  0.82373
USER: genes 20 Torsion [CD]-CE--NZ-[HZ2] |==|  0.48148
ROOT
ATOM      1  C   LYS L   5     -24.144 -78.257 -27.851  1.00 61.96 LIG 0.24  C 
ATOM      2 O    LYS L   5     -23.396 -77.442 -28.408  1.00 44.78 LIG-0.27  OA
ATOM      3  N   LYS L   6     -23.694 -79.205 -27.033  1.00 60.12 LIG-0.35  N 
ATOM      4 H    LYS L   6     -24.199 -79.684 -26.528  1.00 60.12 LIG 0.16  HD
ENDROOT
BRANCH 3 5
ATOM      5  CA  LYS L   6     -22.271 -79.508 -26.928  1.00 64.44 LIG 0.18  C 
BRANCH 5 6
ATOM      6  CB  LYS L   6     -21.901 -79.925 -25.504  1.00 71.41 LIG 0.04  C 
BRANCH 6 7
ATOM      7  CG  LYS L   6     -20.778 -79.093 -24.893  1.00 72.05 LIG 0.00  C 
BRANCH 7 8
ATOM      8  CD  LYS L   6     -19.462 -79.280 -25.632  1.00 65.16 LIG 0.03  C 
BRANCH 8 9
ATOM      9  CE  LYS L   6     -18.289 -79.238 -24.665  1.00 70.38 LIG 0.23  C 
BRANCH 9 10
ATOM     10  NZ  LYS L   6     -17.036 -79.731 -25.307  1.00 74.13 LIG-0.08  N 
ATOM     11 HZ2  LYS L   6     -16.650 -80.334 -24.779  1.00 74.13 LIG 0.27  HD
ATOM     12 HZ1  LYS L   6     -16.480 -79.048 -25.434  1.00 74.13 LIG 0.27  HD
ATOM     13 HZ3  LYS L   6     -17.231 -80.104 -26.091  1.00 74.13 LIG 0.27  HD
ENDBRANCH 9 10
ENDBRANCH 8 9
ENDBRANCH 7 8
ENDBRANCH 6 7
ENDBRANCH 5 6
BRANCH 5 14
ATOM     14  C   LYS L   6     -21.964 -80.632 -27.906  1.00 59.21 LIG 0.24  C 
ATOM     15  N   LEU L   7     -20.855 -81.333 -27.693  1.00 55.77 LIG-0.35  N 
ATOM     16 H    LEU L   7     -20.338 -81.227 -27.014  1.00 55.77 LIG 0.16  HD
ATOM     17 O    LYS L   6     -22.715 -80.852 -28.850  1.00 62.62 LIG-0.27  OA
BRANCH 15 18
ATOM     18  CA  LEU L   7     -20.421 -82.370 -28.633  1.00 55.07 LIG 0.16  C 
BRANCH 18 19
ATOM     19  CB  LEU L   7     -21.512 -83.431 -28.813  1.00 49.39 LIG 0.04  C 
BRANCH 19 20
ATOM     20  CG  LEU L   7     -21.390 -84.283 -30.075  1.00 45.34 LIG-0.02  C 
ATOM     21  CD2 LEU L   7     -22.683 -85.071 -30.308  1.00 40.01 LIG 0.01  C 
ATOM     22  CD1 LEU L   7     -20.200 -85.212 -29.932  1.00 33.03 LIG 0.01  C 
ENDBRANCH 19 20
ENDBRANCH 18 19
BRANCH 18 23
ATOM     23  C   LEU L   7     -20.021 -81.795 -29.990  1.00 52.26 LIG 0.22  C 
ATOM     24 O    LEU L   7     -20.883 -81.445 -30.797  1.00 59.22 LIG-0.29  OA
ENDBRANCH 18 23
ENDBRANCH 15 18
ENDBRANCH 5 14
ENDBRANCH 3 5
BRANCH 1 25
ATOM     25  CA  LYS L   5     -25.665 -78.216 -28.069  1.00 63.64 LIG 0.18  C 
BRANCH 25 26
ATOM     26  N   LYS L   5     -26.329 -79.496 -27.821  1.00 68.83 LIG-0.35  N 
ATOM     27  C   ALA L   4     -26.519 -80.390 -28.791  1.00 74.38 LIG 0.26  C 
ATOM     28 O    ALA L   4     -26.070 -80.247 -29.933  1.00 71.28 LIG-0.27  OA
ATOM     29 H    LYS L   5     -26.579 -79.613 -27.006  1.00 68.83 LIG 0.16  HD
BRANCH 27 30
ATOM     30  CA  ALA L   4     -27.338 -81.634 -28.426  1.00 68.81 LIG 0.40  C 
ATOM     31  N   ALA L   4     -28.699 -81.531 -28.946  1.00 73.56 LIG 0.61  N 
ATOM     32  CB  ALA L   4     -26.659 -82.910 -28.943  1.00 57.48 LIG 0.06  C 
ENDBRANCH 27 30
ENDBRANCH 25 26
BRANCH 25 33
ATOM     33  CB  LYS L   5     -26.285 -77.135 -27.178  1.00 69.62 LIG 0.04  C 
BRANCH 33 34
ATOM     34  CG  LYS L   5     -26.569 -75.820 -27.881  1.00 80.66 LIG 0.00  C 
BRANCH 34 35
ATOM     35  CD  LYS L   5     -27.580 -74.990 -27.096  1.00 85.15 LIG 0.03  C 
BRANCH 35 36
ATOM     36  CE  LYS L   5     -29.007 -75.437 -27.381  1.00 90.30 LIG 0.23  C 
BRANCH 36 37
ATOM     37  NZ  LYS L   5     -29.394 -75.231 -28.808  1.00 90.68 LIG-0.08  N 
ATOM     38 HZ3  LYS L   5     -29.425 -74.359 -28.985  1.00 90.68 LIG 0.27  HD
ATOM     39 HZ2  LYS L   5     -30.194 -75.591 -28.954  1.00 90.68 LIG 0.27  HD
ATOM     40 HZ1  LYS L   5     -28.793 -75.620 -29.338  1.00 90.68 LIG 0.27  HD
ENDBRANCH 36 37
ENDBRANCH 35 36
ENDBRANCH 34 35
ENDBRANCH 33 34
ENDBRANCH 25 33
ENDBRANCH 1 25
TORSDOF 19
ENDMDL
MODEL 37
USER: ADFR SOLUTION from run 50
USER: SCORE 15.012604 LL:  -1.676 LR: -14.024 RR:   0.000 FEB:  -8.356
USER: RMSD 5.197849
USER: SEED 49
USER: STATUS searching
USER: GENES 21
USER: genes 0 Translation |==|  0.52507 0.33631 0.42176
USER: genes 1 Rotation |==|  0.62740 0.03574 0.44888 0.62496
USER: genes 2 Torsion [C]-N--CA-[CB] |==|  0.88889
USER: genes 3 Torsion [N]-CA--CB-[CG] |==|  0.43549
USER: genes 4 Torsion [CA]-CB--CG-[CD] |==|  0.21455
USER: genes 5 Torsion [CB]-CG--CD-[CE] |==|  0.24120
USER: genes 6 Torsion [CG]-CD--CE-[NZ] |==|  0.63023
USER: genes 7 Torsion [CD]-CE--NZ-[HZ1] |==|  0.79271
USER: genes 8 Torsion [N]-CA--C-[N] |==|  0.89663
USER: genes 9 Torsion [C]-N--CA-[CB] |==|  0.45511
USER: genes 10 Torsion [N]-CA--CB-[CG] |==|  0.17794
USER: genes 11 Torsion [CA]-CB--CG-[CD2] |==|  0.65509
USER: genes 12 Torsion [N]-CA--C-[O] |==|  0.08015
USER: genes 13 Torsion [N]-C--CA-[N] |==|  0.34044
USER: genes 14 Torsion [C]-CA--N-[C] |==|  0.65620
USER: genes 15 Torsion [N]-C--CA-[N] |==|  0.98143
USER: genes 16 Torsion [C]-CA--CB-[CG] |==|  0.29273
USER: genes 17 Torsion [CA]-CB--CG-[CD] |==|  0.75950
USER: genes 18 Torsion [CB]-CG--CD-[CE] |==|  0.71507
USER: genes 19 Torsion [CG]-CD--CE-[NZ] |==|  0.62059
USER: genes 20 Torsion [CD]-CE--NZ-[HZ2] |==|  0.04193
ROOT
ATOM      1  C   LYS L   5     -24.407 -79.541 -28.423  1.00 61.96 LIG 0.24  C 
ATOM      2 O    LYS L   5     -24.617 -79.574 -27.203  1.00 44.78 LIG-0.27  OA
ATOM      3  N   LYS L   6     -24.523 -78.429 -29.144  1.00 60.12 LIG-0.35  N 
ATOM      4 H    LYS L   6     -24.247 -78.350 -29.955  1.00 60.12 LIG 0.16  HD
ENDROOT
BRANCH 3 5
ATOM      5  CA  LYS L   6     -25.144 -77.227 -28.596  1.00 64.44 LIG 0.18  C 
BRANCH 5 6
ATOM      6  CB  LYS L   6     -26.368 -77.577 -27.750  1.00 71.41 LIG 0.04  C 
BRANCH 6 7
ATOM      7  CG  LYS L   6     -26.729 -76.510 -26.721  1.00 72.05 LIG 0.00  C 
BRANCH 7 8
ATOM      8  CD  LYS L   6     -27.438 -75.323 -27.356  1.00 65.16 LIG 0.03  C 
BRANCH 8 9
ATOM      9  CE  LYS L   6     -28.937 -75.569 -27.435  1.00 70.38 LIG 0.23  C 
BRANCH 9 10
ATOM     10  NZ  LYS L   6     -29.474 -75.226 -28.783  1.00 74.13 LIG-0.08  N 
ATOM     11 HZ2  LYS L   6     -28.939 -75.562 -29.410  1.00 74.13 LIG 0.27  HD
ATOM     12 HZ1  LYS L   6     -29.514 -74.341 -28.870  1.00 74.13 LIG 0.27  HD
ATOM     13 HZ3  LYS L   6     -30.290 -75.570 -28.873  1.00 74.13 LIG 0.27  HD
ENDBRANCH 9 10
ENDBRANCH 8 9
ENDBRANCH 7 8
ENDBRANCH 6 7
ENDBRANCH 5 6
BRANCH 5 14
ATOM     14  C   LYS L   6     -24.102 -76.512 -27.750  1.00 59.21 LIG 0.24  C 
ATOM     15  N   LEU L   7     -23.271 -77.271 -27.042  1.00 55.77 LIG-0.35  N 
ATOM     16 H    LEU L   7     -23.253 -78.130 -27.078  1.00 55.77 LIG 0.16  HD
ATOM     17 O    LYS L   6     -24.060 -75.286 -27.727  1.00 62.62 LIG-0.27  OA
BRANCH 15 18
ATOM     18  CA  LEU L   7     -22.299 -76.676 -26.122  1.00 55.07 LIG 0.16  C 
BRANCH 18 19
ATOM     19  CB  LEU L   7     -21.754 -77.731 -25.152  1.00 49.39 LIG 0.04  C 
BRANCH 19 20
ATOM     20  CG  LEU L   7     -20.955 -78.860 -25.800  1.00 45.34 LIG-0.02  C 
ATOM     21  CD2 LEU L   7     -21.558 -80.217 -25.426  1.00 40.01 LIG 0.01  C 
ATOM     22  CD1 LEU L   7     -19.509 -78.762 -25.356  1.00 33.03 LIG 0.01  C 
ENDBRANCH 19 20
ENDBRANCH 18 19
BRANCH 18 23
ATOM     23  C   LEU L   7     -21.147 -75.993 -26.854  1.00 52.26 LIG 0.22  C 
ATOM     24 O    LEU L   7     -21.319 -75.511 -27.974  1.00 59.22 LIG-0.29  OA
ENDBRANCH 18 23
ENDBRANCH 15 18
ENDBRANCH 5 14
ENDBRANCH 3 5
BRANCH 1 25
ATOM     25  CA  LYS L   5     -23.985 -80.804 -29.189  1.00 63.64 LIG 0.18  C 
BRANCH 25 26
ATOM     26  N   LYS L   5     -22.766 -81.427 -28.672  1.00 68.83 LIG-0.35  N 
ATOM     27  C   ALA L   4     -21.704 -81.646 -29.448  1.00 74.38 LIG 0.26  C 
ATOM     28 O    ALA L   4     -21.637 -81.260 -30.619  1.00 71.28 LIG-0.27  OA
ATOM     29 H    LYS L   5     -22.800 -81.632 -27.837  1.00 68.83 LIG 0.16  HD
BRANCH 27 30
ATOM     30  CA  ALA L   4     -20.540 -82.418 -28.814  1.00 68.81 LIG 0.40  C 
ATOM     31  N   ALA L   4     -20.775 -82.633 -27.389  1.00 73.56 LIG 0.61  N 
ATOM     32  CB  ALA L   4     -20.313 -83.757 -29.531  1.00 57.48 LIG 0.06  C 
ENDBRANCH 27 30
ENDBRANCH 25 26
BRANCH 25 33
ATOM     33  CB  LYS L   5     -25.128 -81.824 -29.174  1.00 69.62 LIG 0.04  C 
BRANCH 33 34
ATOM     34  CG  LYS L   5     -25.878 -81.957 -30.486  1.00 80.66 LIG 0.00  C 
BRANCH 34 35
ATOM     35  CD  LYS L   5     -27.000 -80.927 -30.579  1.00 85.15 LIG 0.03  C 
BRANCH 35 36
ATOM     36  CE  LYS L   5     -28.357 -81.558 -30.302  1.00 90.30 LIG 0.23  C 
BRANCH 36 37
ATOM     37  NZ  LYS L   5     -29.406 -81.097 -31.258  1.00 90.68 LIG-0.08  N 
ATOM     38 HZ3  LYS L   5     -29.882 -81.795 -31.538  1.00 90.68 LIG 0.27  HD
ATOM     39 HZ2  LYS L   5     -29.020 -80.704 -31.957  1.00 90.68 LIG 0.27  HD
ATOM     40 HZ1  LYS L   5     -29.945 -80.515 -30.852  1.00 90.68 LIG 0.27  HD
ENDBRANCH 36 37
ENDBRANCH 35 36
ENDBRANCH 34 35
ENDBRANCH 33 34
ENDBRANCH 25 33
ENDBRANCH 1 25
TORSDOF 19
ENDMDL
MODEL 38
USER: ADFR SOLUTION from run 85
USER: SCORE 14.310282 LL:  -1.515 LR: -13.982 RR:   0.000 FEB:  -8.315
USER: RMSD 6.529265
USER: SEED 84
USER: STATUS no improvement in best in 7 clusters for 5 generations
USER: GENES 21
USER: genes 0 Translation |==|  0.57837 0.31677 0.49789
USER: genes 1 Rotation |==|  0.50138 0.05653 0.27721 0.56079
USER: genes 2 Torsion [C]-N--CA-[CB] |==|  0.19968
USER: genes 3 Torsion [N]-CA--CB-[CG] |==|  0.11555
USER: genes 4 Torsion [CA]-CB--CG-[CD] |==|  0.29047
USER: genes 5 Torsion [CB]-CG--CD-[CE] |==|  0.32333
USER: genes 6 Torsion [CG]-CD--CE-[NZ] |==|  0.29051
USER: genes 7 Torsion [CD]-CE--NZ-[HZ1] |==|  0.23008
USER: genes 8 Torsion [N]-CA--C-[N] |==|  0.52494
USER: genes 9 Torsion [C]-N--CA-[CB] |==|  0.80655
USER: genes 10 Torsion [N]-CA--CB-[CG] |==|  0.38954
USER: genes 11 Torsion [CA]-CB--CG-[CD2] |==|  0.61564
USER: genes 12 Torsion [N]-CA--C-[O] |==|  0.12271
USER: genes 13 Torsion [N]-C--CA-[N] |==|  0.31756
USER: genes 14 Torsion [C]-CA--N-[C] |==|  0.66257
USER: genes 15 Torsion [N]-C--CA-[N] |==|  0.18600
USER: genes 16 Torsion [C]-CA--CB-[CG] |==|  0.58853
USER: genes 17 Torsion [CA]-CB--CG-[CD] |==|  0.62732
USER: genes 18 Torsion [CB]-CG--CD-[CE] |==|  0.77442
USER: genes 19 Torsion [CG]-CD--CE-[NZ] |==|  0.47272
USER: genes 20 Torsion [CD]-CE--NZ-[HZ2] |==|  0.19049
ROOT
ATOM      1  C   LYS L   5     -23.368 -79.966 -27.338  1.00 61.96 LIG 0.24  C 
ATOM      2 O    LYS L   5     -23.773 -80.512 -26.303  1.00 44.78 LIG-0.27  OA
ATOM      3  N   LYS L   6     -22.681 -78.827 -27.329  1.00 60.12 LIG-0.35  N 
ATOM      4 H    LYS L   6     -22.270 -78.508 -28.014  1.00 60.12 LIG 0.16  HD
ENDROOT
BRANCH 3 5
ATOM      5  CA  LYS L   6     -22.571 -78.012 -26.124  1.00 64.44 LIG 0.18  C 
BRANCH 5 6
ATOM      6  CB  LYS L   6     -21.658 -78.677 -25.093  1.00 71.41 LIG 0.04  C 
BRANCH 6 7
ATOM      7  CG  LYS L   6     -20.404 -79.304 -25.695  1.00 72.05 LIG 0.00  C 
BRANCH 7 8
ATOM      8  CD  LYS L   6     -19.164 -78.465 -25.431  1.00 65.16 LIG 0.03  C 
BRANCH 8 9
ATOM      9  CE  LYS L   6     -18.170 -79.228 -24.568  1.00 70.38 LIG 0.23  C 
BRANCH 9 10
ATOM     10  NZ  LYS L   6     -17.022 -79.731 -25.374  1.00 74.13 LIG-0.08  N 
ATOM     11 HZ2  LYS L   6     -16.646 -80.422 -24.958  1.00 74.13 LIG 0.27  HD
ATOM     12 HZ1  LYS L   6     -16.421 -79.082 -25.472  1.00 74.13 LIG 0.27  HD
ATOM     13 HZ3  LYS L   6     -17.312 -79.989 -26.175  1.00 74.13 LIG 0.27  HD
ENDBRANCH 9 10
ENDBRANCH 8 9
ENDBRANCH 7 8
ENDBRANCH 6 7
ENDBRANCH 5 6
BRANCH 5 14
ATOM     14  C   LYS L   6     -22.012 -76.657 -26.530  1.00 59.21 LIG 0.24  C 
ATOM     15  N   LEU L   7     -21.663 -75.828 -25.551  1.00 55.77 LIG-0.35  N 
ATOM     16 H    LEU L   7     -21.681 -76.032 -24.716  1.00 55.77 LIG 0.16  HD
ATOM     17 O    LYS L   6     -21.913 -76.360 -27.716  1.00 62.62 LIG-0.27  OA
BRANCH 15 18
ATOM     18  CA  LEU L   7     -21.208 -74.466 -25.838  1.00 55.07 LIG 0.16  C 
BRANCH 18 19
ATOM     19  CB  LEU L   7     -19.832 -74.482 -26.512  1.00 49.39 LIG 0.04  C 
BRANCH 19 20
ATOM     20  CG  LEU L   7     -19.645 -73.465 -27.636  1.00 45.34 LIG-0.02  C 
ATOM     21  CD2 LEU L   7     -18.893 -74.105 -28.808  1.00 40.01 LIG 0.01  C 
ATOM     22  CD1 LEU L   7     -18.899 -72.262 -27.097  1.00 33.03 LIG 0.01  C 
ENDBRANCH 19 20
ENDBRANCH 18 19
BRANCH 18 23
ATOM     23  C   LEU L   7     -22.203 -73.688 -26.697  1.00 52.26 LIG 0.22  C 
ATOM     24 O    LEU L   7     -23.409 -73.736 -26.452  1.00 59.22 LIG-0.29  OA
ENDBRANCH 18 23
ENDBRANCH 15 18
ENDBRANCH 5 14
ENDBRANCH 3 5
BRANCH 1 25
ATOM     25  CA  LYS L   5     -23.631 -80.588 -28.718  1.00 63.64 LIG 0.18  C 
BRANCH 25 26
ATOM     26  N   LYS L   5     -22.961 -81.872 -28.923  1.00 68.83 LIG-0.35  N 
ATOM     27  C   ALA L   4     -22.096 -82.064 -29.920  1.00 74.38 LIG 0.26  C 
ATOM     28 O    ALA L   4     -21.730 -81.157 -30.675  1.00 71.28 LIG-0.27  OA
ATOM     29 H    LYS L   5     -23.173 -82.478 -28.350  1.00 68.83 LIG 0.16  HD
BRANCH 27 30
ATOM     30  CA  ALA L   4     -21.560 -83.490 -30.097  1.00 68.81 LIG 0.40  C 
ATOM     31  N   ALA L   4     -22.624 -84.396 -30.518  1.00 73.56 LIG 0.61  N 
ATOM     32  CB  ALA L   4     -20.399 -83.519 -31.102  1.00 57.48 LIG 0.06  C 
ENDBRANCH 27 30
ENDBRANCH 25 26
BRANCH 25 33
ATOM     33  CB  LYS L   5     -25.139 -80.757 -28.929  1.00 69.62 LIG 0.04  C 
BRANCH 33 34
ATOM     34  CG  LYS L   5     -25.531 -81.950 -29.782  1.00 80.66 LIG 0.00  C 
BRANCH 34 35
ATOM     35  CD  LYS L   5     -26.578 -81.557 -30.820  1.00 85.15 LIG 0.03  C 
BRANCH 35 36
ATOM     36  CE  LYS L   5     -27.974 -81.526 -30.215  1.00 90.30 LIG 0.23  C 
BRANCH 36 37
ATOM     37  NZ  LYS L   5     -28.981 -80.922 -31.136  1.00 90.68 LIG-0.08  N 
ATOM     38 HZ3  LYS L   5     -29.751 -80.809 -30.703  1.00 90.68 LIG 0.27  HD
ATOM     39 HZ2  LYS L   5     -29.110 -81.462 -31.832  1.00 90.68 LIG 0.27  HD
ATOM     40 HZ1  LYS L   5     -28.685 -80.133 -31.425  1.00 90.68 LIG 0.27  HD
ENDBRANCH 36 37
ENDBRANCH 35 36
ENDBRANCH 34 35
ENDBRANCH 33 34
ENDBRANCH 25 33
ENDBRANCH 1 25
TORSDOF 19
ENDMDL
MODEL 39
USER: ADFR SOLUTION from run 92
USER: SCORE 13.786710 LL:  -1.287 LR: -13.940 RR:   0.000 FEB:  -8.272
USER: RMSD 5.452483
USER: SEED 91
USER: STATUS no improvement in best in 4 clusters for 5 generations
USER: GENES 21
USER: genes 0 Translation |==|  0.71471 0.59697 0.49262
USER: genes 1 Rotation |==|  0.41186 0.45634 0.46969 0.98929
USER: genes 2 Torsion [C]-N--CA-[CB] |==|  0.49293
USER: genes 3 Torsion [N]-CA--CB-[CG] |==|  0.78338
USER: genes 4 Torsion [CA]-CB--CG-[CD] |==|  0.41874
USER: genes 5 Torsion [CB]-CG--CD-[CE] |==|  0.66356
USER: genes 6 Torsion [CG]-CD--CE-[NZ] |==|  0.93167
USER: genes 7 Torsion [CD]-CE--NZ-[HZ1] |==|  0.25299
USER: genes 8 Torsion [N]-CA--C-[N] |==|  0.82041
USER: genes 9 Torsion [C]-N--CA-[CB] |==|  0.17012
USER: genes 10 Torsion [N]-CA--CB-[CG] |==|  0.10342
USER: genes 11 Torsion [CA]-CB--CG-[CD2] |==|  0.47556
USER: genes 12 Torsion [N]-CA--C-[O] |==|  0.56349
USER: genes 13 Torsion [N]-C--CA-[N] |==|  0.30236
USER: genes 14 Torsion [C]-CA--N-[C] |==|  0.76100
USER: genes 15 Torsion [N]-C--CA-[N] |==|  0.28115
USER: genes 16 Torsion [C]-CA--CB-[CG] |==|  0.55047
USER: genes 17 Torsion [CA]-CB--CG-[CD] |==|  0.48434
USER: genes 18 Torsion [CB]-CG--CD-[CE] |==|  0.52308
USER: genes 19 Torsion [CG]-CD--CE-[NZ] |==|  0.36909
USER: genes 20 Torsion [CD]-CE--NZ-[HZ2] |==|  0.71313
ROOT
ATOM      1  C   LYS L   5     -20.709 -73.872 -27.413  1.00 61.96 LIG 0.24  C 
ATOM      2 O    LYS L   5     -19.841 -73.847 -28.297  1.00 44.78 LIG-0.27  OA
ATOM      3  N   LYS L   6     -21.482 -72.825 -27.134  1.00 60.12 LIG-0.35  N 
ATOM      4 H    LYS L   6     -22.179 -72.863 -26.631  1.00 60.12 LIG 0.16  HD
ENDROOT
BRANCH 3 5
ATOM      5  CA  LYS L   6     -21.197 -71.501 -27.676  1.00 64.44 LIG 0.18  C 
BRANCH 5 6
ATOM      6  CB  LYS L   6     -22.267 -70.493 -27.257  1.00 71.41 LIG 0.04  C 
BRANCH 6 7
ATOM      7  CG  LYS L   6     -23.560 -70.599 -28.060  1.00 72.05 LIG 0.00  C 
BRANCH 7 8
ATOM      8  CD  LYS L   6     -24.772 -70.167 -27.249  1.00 65.16 LIG 0.03  C 
BRANCH 8 9
ATOM      9  CE  LYS L   6     -25.785 -71.299 -27.149  1.00 70.38 LIG 0.23  C 
BRANCH 9 10
ATOM     10  NZ  LYS L   6     -25.646 -72.255 -28.284  1.00 74.13 LIG-0.08  N 
ATOM     11 HZ2  LYS L   6     -26.441 -72.606 -28.476  1.00 74.13 LIG 0.27  HD
ATOM     12 HZ1  LYS L   6     -25.082 -72.905 -28.057  1.00 74.13 LIG 0.27  HD
ATOM     13 HZ3  LYS L   6     -25.331 -71.826 -28.997  1.00 74.13 LIG 0.27  HD
ENDBRANCH 9 10
ENDBRANCH 8 9
ENDBRANCH 7 8
ENDBRANCH 6 7
ENDBRANCH 5 6
BRANCH 5 14
ATOM     14  C   LYS L   6     -19.833 -71.072 -27.158  1.00 59.21 LIG 0.24  C 
ATOM     15  N   LEU L   7     -19.713 -70.889 -25.848  1.00 55.77 LIG-0.35  N 
ATOM     16 H    LEU L   7     -20.337 -71.052 -25.278  1.00 55.77 LIG 0.16  HD
ATOM     17 O    LYS L   6     -18.904 -70.895 -27.939  1.00 62.62 LIG-0.27  OA
BRANCH 15 18
ATOM     18  CA  LEU L   7     -18.469 -70.382 -25.263  1.00 55.07 LIG 0.16  C 
BRANCH 18 19
ATOM     19  CB  LEU L   7     -18.148 -68.983 -25.800  1.00 49.39 LIG 0.04  C 
BRANCH 19 20
ATOM     20  CG  LEU L   7     -19.356 -68.075 -26.017  1.00 45.34 LIG-0.02  C 
ATOM     21  CD2 LEU L   7     -18.896 -66.650 -26.341  1.00 40.01 LIG 0.01  C 
ATOM     22  CD1 LEU L   7     -20.225 -68.100 -24.775  1.00 33.03 LIG 0.01  C 
ENDBRANCH 19 20
ENDBRANCH 18 19
BRANCH 18 23
ATOM     23  C   LEU L   7     -18.510 -70.360 -23.737  1.00 52.26 LIG 0.22  C 
ATOM     24 O    LEU L   7     -17.768 -69.606 -23.105  1.00 59.22 LIG-0.29  OA
ENDBRANCH 18 23
ENDBRANCH 15 18
ENDBRANCH 5 14
ENDBRANCH 3 5
BRANCH 1 25
ATOM     25  CA  LYS L   5     -20.955 -75.138 -26.577  1.00 63.64 LIG 0.18  C 
BRANCH 25 26
ATOM     26  N   LYS L   5     -21.583 -76.226 -27.327  1.00 68.83 LIG-0.35  N 
ATOM     27  C   ALA L   4     -22.906 -76.315 -27.463  1.00 74.38 LIG 0.26  C 
ATOM     28 O    ALA L   4     -23.683 -75.447 -27.052  1.00 71.28 LIG-0.27  OA
ATOM     29 H    LYS L   5     -21.028 -76.789 -27.666  1.00 68.83 LIG 0.16  HD
BRANCH 27 30
ATOM     30  CA  ALA L   4     -23.440 -77.570 -28.165  1.00 68.81 LIG 0.40  C 
ATOM     31  N   ALA L   4     -23.947 -78.533 -27.192  1.00 73.56 LIG 0.61  N 
ATOM     32  CB  ALA L   4     -24.531 -77.207 -29.183  1.00 57.48 LIG 0.06  C 
ENDBRANCH 27 30
ENDBRANCH 25 26
BRANCH 25 33
ATOM     33  CB  LYS L   5     -19.632 -75.625 -25.977  1.00 69.62 LIG 0.04  C 
BRANCH 33 34
ATOM     34  CG  LYS L   5     -19.643 -77.067 -25.503  1.00 80.66 LIG 0.00  C 
BRANCH 34 35
ATOM     35  CD  LYS L   5     -18.252 -77.502 -25.053  1.00 85.15 LIG 0.03  C 
BRANCH 35 36
ATOM     36  CE  LYS L   5     -18.203 -78.997 -24.768  1.00 90.30 LIG 0.23  C 
BRANCH 36 37
ATOM     37  NZ  LYS L   5     -17.021 -79.658 -25.394  1.00 90.68 LIG-0.08  N 
ATOM     38 HZ3  LYS L   5     -16.421 -79.041 -25.621  1.00 90.68 LIG 0.27  HD
ATOM     39 HZ2  LYS L   5     -17.279 -80.102 -26.121  1.00 90.68 LIG 0.27  HD
ATOM     40 HZ1  LYS L   5     -16.656 -80.227 -24.814  1.00 90.68 LIG 0.27  HD
ENDBRANCH 36 37
ENDBRANCH 35 36
ENDBRANCH 34 35
ENDBRANCH 33 34
ENDBRANCH 25 33
ENDBRANCH 1 25
TORSDOF 19
ENDMDL
MODEL 40
USER: ADFR SOLUTION from run 53
USER: SCORE 14.733692 LL:  -1.298 LR: -13.907 RR:   0.000 FEB:  -8.239
USER: RMSD 6.587390
USER: SEED 52
USER: STATUS no improvement in best in 22 clusters for 5 generations
USER: GENES 21
USER: genes 0 Translation |==|  0.54771 0.29702 0.44871
USER: genes 1 Rotation |==|  0.63785 0.50954 0.27855 0.92646
USER: genes 2 Torsion [C]-N--CA-[CB] |==|  0.88158
USER: genes 3 Torsion [N]-CA--CB-[CG] |==|  0.58494
USER: genes 4 Torsion [CA]-CB--CG-[CD] |==|  0.70784
USER: genes 5 Torsion [CB]-CG--CD-[CE] |==|  0.53192
USER: genes 6 Torsion [CG]-CD--CE-[NZ] |==|  0.31667
USER: genes 7 Torsion [CD]-CE--NZ-[HZ1] |==|  0.96938
USER: genes 8 Torsion [N]-CA--C-[N] |==|  0.36536
USER: genes 9 Torsion [C]-N--CA-[CB] |==|  0.83111
USER: genes 10 Torsion [N]-CA--CB-[CG] |==|  0.72531
USER: genes 11 Torsion [CA]-CB--CG-[CD2] |==|  0.54842
USER: genes 12 Torsion [N]-CA--C-[O] |==|  0.88370
USER: genes 13 Torsion [N]-C--CA-[N] |==|  0.07778
USER: genes 14 Torsion [C]-CA--N-[C] |==|  0.69471
USER: genes 15 Torsion [N]-C--CA-[N] |==|  0.92310
USER: genes 16 Torsion [C]-CA--CB-[CG] |==|  0.63770
USER: genes 17 Torsion [CA]-CB--CG-[CD] |==|  0.73408
USER: genes 18 Torsion [CB]-CG--CD-[CE] |==|  0.44203
USER: genes 19 Torsion [CG]-CD--CE-[NZ] |==|  0.13073
USER: genes 20 Torsion [CD]-CE--NZ-[HZ2] |==|  0.93156
ROOT
ATOM      1  C   LYS L   5     -23.966 -80.396 -28.039  1.00 61.96 LIG 0.24  C 
ATOM      2 O    LYS L   5     -23.014 -80.239 -28.816  1.00 44.78 LIG-0.27  OA
ATOM      3  N   LYS L   6     -24.019 -79.819 -26.841  1.00 60.12 LIG-0.35  N 
ATOM      4 H    LYS L   6     -24.724 -79.796 -26.349  1.00 60.12 LIG 0.16  HD
ENDROOT
BRANCH 3 5
ATOM      5  CA  LYS L   6     -22.853 -79.163 -26.258  1.00 64.44 LIG 0.18  C 
BRANCH 5 6
ATOM      6  CB  LYS L   6     -21.589 -79.995 -26.476  1.00 71.41 LIG 0.04  C 
BRANCH 6 7
ATOM      7  CG  LYS L   6     -20.551 -79.836 -25.369  1.00 72.05 LIG 0.00  C 
BRANCH 7 8
ATOM      8  CD  LYS L   6     -19.375 -78.977 -25.808  1.00 65.16 LIG 0.03  C 
BRANCH 8 9
ATOM      9  CE  LYS L   6     -18.237 -79.066 -24.803  1.00 70.38 LIG 0.23  C 
BRANCH 9 10
ATOM     10  NZ  LYS L   6     -17.040 -79.730 -25.394  1.00 74.13 LIG-0.08  N 
ATOM     11 HZ2  LYS L   6     -16.398 -79.127 -25.519  1.00 74.13 LIG 0.27  HD
ATOM     12 HZ1  LYS L   6     -17.259 -80.096 -26.175  1.00 74.13 LIG 0.27  HD
ATOM     13 HZ3  LYS L   6     -16.749 -80.363 -24.841  1.00 74.13 LIG 0.27  HD
ENDBRANCH 9 10
ENDBRANCH 8 9
ENDBRANCH 7 8
ENDBRANCH 6 7
ENDBRANCH 5 6
BRANCH 5 14
ATOM     14  C   LYS L   6     -22.711 -77.800 -26.916  1.00 59.21 LIG 0.24  C 
ATOM     15  N   LEU L   7     -22.533 -76.755 -26.114  1.00 55.77 LIG-0.35  N 
ATOM     16 H    LEU L   7     -22.439 -76.812 -25.261  1.00 55.77 LIG 0.16  HD
ATOM     17 O    LYS L   6     -22.775 -77.693 -28.137  1.00 62.62 LIG-0.27  OA
BRANCH 15 18
ATOM     18  CA  LEU L   7     -22.484 -75.391 -26.644  1.00 55.07 LIG 0.16  C 
BRANCH 18 19
ATOM     19  CB  LEU L   7     -21.322 -75.233 -27.631  1.00 49.39 LIG 0.04  C 
BRANCH 19 20
ATOM     20  CG  LEU L   7     -20.061 -74.593 -27.054  1.00 45.34 LIG-0.02  C 
ATOM     21  CD2 LEU L   7     -19.155 -74.097 -28.186  1.00 40.01 LIG 0.01  C 
ATOM     22  CD1 LEU L   7     -19.344 -75.604 -26.182  1.00 33.03 LIG 0.01  C 
ENDBRANCH 19 20
ENDBRANCH 18 19
BRANCH 18 23
ATOM     23  C   LEU L   7     -23.794 -74.977 -27.309  1.00 52.26 LIG 0.22  C 
ATOM     24 O    LEU L   7     -24.402 -75.766 -28.033  1.00 59.22 LIG-0.29  OA
ENDBRANCH 18 23
ENDBRANCH 15 18
ENDBRANCH 5 14
ENDBRANCH 3 5
BRANCH 1 25
ATOM     25  CA  LYS L   5     -25.166 -81.275 -28.422  1.00 63.64 LIG 0.18  C 
BRANCH 25 26
ATOM     26  N   LYS L   5     -26.419 -80.872 -27.780  1.00 68.83 LIG-0.35  N 
ATOM     27  C   ALA L   4     -26.993 -81.612 -26.832  1.00 74.38 LIG 0.26  C 
ATOM     28 O    ALA L   4     -26.470 -82.628 -26.364  1.00 71.28 LIG-0.27  OA
ATOM     29 H    LYS L   5     -26.740 -80.128 -28.068  1.00 68.83 LIG 0.16  HD
BRANCH 27 30
ATOM     30  CA  ALA L   4     -28.365 -81.141 -26.332  1.00 68.81 LIG 0.40  C 
ATOM     31  N   ALA L   4     -28.503 -79.696 -26.482  1.00 73.56 LIG 0.61  N 
ATOM     32  CB  ALA L   4     -29.498 -81.870 -27.068  1.00 57.48 LIG 0.06  C 
ENDBRANCH 27 30
ENDBRANCH 25 26
BRANCH 25 33
ATOM     33  CB  LYS L   5     -25.345 -81.271 -29.943  1.00 69.62 LIG 0.04  C 
BRANCH 33 34
ATOM     34  CG  LYS L   5     -26.758 -80.980 -30.416  1.00 80.66 LIG 0.00  C 
BRANCH 34 35
ATOM     35  CD  LYS L   5     -27.517 -82.275 -30.689  1.00 85.15 LIG 0.03  C 
BRANCH 35 36
ATOM     36  CE  LYS L   5     -29.023 -82.052 -30.661  1.00 90.30 LIG 0.23  C 
BRANCH 36 37
ATOM     37  NZ  LYS L   5     -29.437 -80.856 -31.452  1.00 90.68 LIG-0.08  N 
ATOM     38 HZ3  LYS L   5     -29.678 -81.109 -32.271  1.00 90.68 LIG 0.27  HD
ATOM     39 HZ2  LYS L   5     -28.756 -80.286 -31.507  1.00 90.68 LIG 0.27  HD
ATOM     40 HZ1  LYS L   5     -30.125 -80.458 -31.051  1.00 90.68 LIG 0.27  HD
ENDBRANCH 36 37
ENDBRANCH 35 36
ENDBRANCH 34 35
ENDBRANCH 33 34
ENDBRANCH 25 33
ENDBRANCH 1 25
TORSDOF 19
ENDMDL
MODEL 41
USER: ADFR SOLUTION from run 101
USER: SCORE 14.804038 LL:  -1.628 LR: -13.840 RR:   0.000 FEB:  -8.172
USER: RMSD 7.644113
USER: SEED 100
USER: STATUS no improvement in best in 17 clusters for 5 generations
USER: GENES 21
USER: genes 0 Translation |==|  0.58707 0.25776 0.39465
USER: genes 1 Rotation |==|  0.71258 0.66266 0.48904 0.92218
USER: genes 2 Torsion [C]-N--CA-[CB] |==|  0.79350
USER: genes 3 Torsion [N]-CA--CB-[CG] |==|  0.56531
USER: genes 4 Torsion [CA]-CB--CG-[CD] |==|  0.59634
USER: genes 5 Torsion [CB]-CG--CD-[CE] |==|  0.62716
USER: genes 6 Torsion [CG]-CD--CE-[NZ] |==|  0.33709
USER: genes 7 Torsion [CD]-CE--NZ-[HZ1] |==|  0.59550
USER: genes 8 Torsion [N]-CA--C-[N] |==|  0.13889
USER: genes 9 Torsion [C]-N--CA-[CB] |==|  0.84542
USER: genes 10 Torsion [N]-CA--CB-[CG] |==|  0.55881
USER: genes 11 Torsion [CA]-CB--CG-[CD2] |==|  0.07526
USER: genes 12 Torsion [N]-CA--C-[O] |==|  0.73260
USER: genes 13 Torsion [N]-C--CA-[N] |==|  0.88499
USER: genes 14 Torsion [C]-CA--N-[C] |==|  0.79055
USER: genes 15 Torsion [N]-C--CA-[N] |==|  0.32798
USER: genes 16 Torsion [C]-CA--CB-[CG] |==|  0.11455
USER: genes 17 Torsion [CA]-CB--CG-[CD] |==|  0.38791
USER: genes 18 Torsion [CB]-CG--CD-[CE] |==|  0.34497
USER: genes 19 Torsion [CG]-CD--CE-[NZ] |==|  0.44760
USER: genes 20 Torsion [CD]-CE--NZ-[HZ2] |==|  0.24428
ROOT
ATOM      1  C   LYS L   5     -23.198 -81.250 -28.809  1.00 61.96 LIG 0.24  C 
ATOM      2 O    LYS L   5     -23.022 -80.117 -29.277  1.00 44.78 LIG-0.27  OA
ATOM      3  N   LYS L   6     -23.188 -81.498 -27.502  1.00 60.12 LIG-0.35  N 
ATOM      4 H    LYS L   6     -23.447 -82.239 -27.151  1.00 60.12 LIG 0.16  HD
ENDROOT
BRANCH 3 5
ATOM      5  CA  LYS L   6     -22.724 -80.503 -26.541  1.00 64.44 LIG 0.18  C 
BRANCH 5 6
ATOM      6  CB  LYS L   6     -21.200 -80.378 -26.571  1.00 71.41 LIG 0.04  C 
BRANCH 6 7
ATOM      7  CG  LYS L   6     -20.603 -79.828 -25.279  1.00 72.05 LIG 0.00  C 
BRANCH 7 8
ATOM      8  CD  LYS L   6     -19.384 -78.957 -25.540  1.00 65.16 LIG 0.03  C 
BRANCH 8 9
ATOM      9  CE  LYS L   6     -18.253 -79.312 -24.587  1.00 70.38 LIG 0.23  C 
BRANCH 9 10
ATOM     10  NZ  LYS L   6     -17.029 -79.731 -25.327  1.00 74.13 LIG-0.08  N 
ATOM     11 HZ2  LYS L   6     -17.259 -80.053 -26.124  1.00 74.13 LIG 0.27  HD
ATOM     12 HZ1  LYS L   6     -16.604 -80.361 -24.864  1.00 74.13 LIG 0.27  HD
ATOM     13 HZ3  LYS L   6     -16.492 -79.030 -25.433  1.00 74.13 LIG 0.27  HD
ENDBRANCH 9 10
ENDBRANCH 8 9
ENDBRANCH 7 8
ENDBRANCH 6 7
ENDBRANCH 5 6
BRANCH 5 14
ATOM     14  C   LYS L   6     -23.371 -79.174 -26.900  1.00 59.21 LIG 0.24  C 
ATOM     15  N   LEU L   7     -24.687 -79.172 -27.086  1.00 55.77 LIG-0.35  N 
ATOM     16 H    LEU L   7     -25.194 -79.856 -26.962  1.00 55.77 LIG 0.16  HD
ATOM     17 O    LYS L   6     -22.684 -78.165 -27.022  1.00 62.62 LIG-0.27  OA
BRANCH 15 18
ATOM     18  CA  LEU L   7     -25.388 -77.965 -27.531  1.00 55.07 LIG 0.16  C 
BRANCH 18 19
ATOM     19  CB  LEU L   7     -25.105 -76.793 -26.585  1.00 49.39 LIG 0.04  C 
BRANCH 19 20
ATOM     20  CG  LEU L   7     -26.130 -75.661 -26.626  1.00 45.34 LIG-0.02  C 
ATOM     21  CD2 LEU L   7     -27.497 -76.201 -27.059  1.00 40.01 LIG 0.01  C 
ATOM     22  CD1 LEU L   7     -25.641 -74.583 -27.572  1.00 33.03 LIG 0.01  C 
ENDBRANCH 19 20
ENDBRANCH 18 19
BRANCH 18 23
ATOM     23  C   LEU L   7     -25.031 -77.579 -28.964  1.00 52.26 LIG 0.22  C 
ATOM     24 O    LEU L   7     -24.161 -76.735 -29.183  1.00 59.22 LIG-0.29  OA
ENDBRANCH 18 23
ENDBRANCH 15 18
ENDBRANCH 5 14
ENDBRANCH 3 5
BRANCH 1 25
ATOM     25  CA  LYS L   5     -23.452 -82.457 -29.726  1.00 63.64 LIG 0.18  C 
BRANCH 25 26
ATOM     26  N   LYS L   5     -22.750 -83.671 -29.308  1.00 68.83 LIG-0.35  N 
ATOM     27  C   ALA L   4     -21.440 -83.828 -29.499  1.00 74.38 LIG 0.26  C 
ATOM     28 O    ALA L   4     -20.715 -82.935 -29.951  1.00 71.28 LIG-0.27  OA
ATOM     29 H    LYS L   5     -23.253 -84.260 -28.934  1.00 68.83 LIG 0.16  HD
BRANCH 27 30
ATOM     30  CA  ALA L   4     -20.852 -85.195 -29.129  1.00 68.81 LIG 0.40  C 
ATOM     31  N   ALA L   4     -20.281 -85.850 -30.303  1.00 73.56 LIG 0.61  N 
ATOM     32  CB  ALA L   4     -19.797 -85.059 -28.022  1.00 57.48 LIG 0.06  C 
ENDBRANCH 27 30
ENDBRANCH 25 26
BRANCH 25 33
ATOM     33  CB  LYS L   5     -24.955 -82.736 -29.808  1.00 69.62 LIG 0.04  C 
BRANCH 33 34
ATOM     34  CG  LYS L   5     -25.826 -81.497 -29.920  1.00 80.66 LIG 0.00  C 
BRANCH 34 35
ATOM     35  CD  LYS L   5     -26.967 -81.722 -30.908  1.00 85.15 LIG 0.03  C 
BRANCH 35 36
ATOM     36  CE  LYS L   5     -28.320 -81.459 -30.262  1.00 90.30 LIG 0.23  C 
BRANCH 36 37
ATOM     37  NZ  LYS L   5     -29.397 -81.227 -31.268  1.00 90.68 LIG-0.08  N 
ATOM     38 HZ3  LYS L   5     -30.026 -80.705 -30.916  1.00 90.68 LIG 0.27  HD
ATOM     39 HZ2  LYS L   5     -29.757 -82.006 -31.503  1.00 90.68 LIG 0.27  HD
ATOM     40 HZ1  LYS L   5     -29.052 -80.831 -31.988  1.00 90.68 LIG 0.27  HD
ENDBRANCH 36 37
ENDBRANCH 35 36
ENDBRANCH 34 35
ENDBRANCH 33 34
ENDBRANCH 25 33
ENDBRANCH 1 25
TORSDOF 19
ENDMDL
MODEL 42
USER: ADFR SOLUTION from run 53
USER: SCORE 14.392768 LL:  -1.530 LR: -13.840 RR:   0.000 FEB:  -8.172
USER: RMSD 7.397819
USER: SEED 52
USER: STATUS no improvement in best in 22 clusters for 5 generations
USER: GENES 21
USER: genes 0 Translation |==|  0.62328 0.37513 0.59436
USER: genes 1 Rotation |==|  0.70304 0.16262 0.77528 0.63845
USER: genes 2 Torsion [C]-N--CA-[CB] |==|  0.22771
USER: genes 3 Torsion [N]-CA--CB-[CG] |==|  0.61129
USER: genes 4 Torsion [CA]-CB--CG-[CD] |==|  0.02412
USER: genes 5 Torsion [CB]-CG--CD-[CE] |==|  0.39868
USER: genes 6 Torsion [CG]-CD--CE-[NZ] |==|  0.38662
USER: genes 7 Torsion [CD]-CE--NZ-[HZ1] |==|  0.40805
USER: genes 8 Torsion [N]-CA--C-[N] |==|  0.40279
USER: genes 9 Torsion [C]-N--CA-[CB] |==|  0.23156
USER: genes 10 Torsion [N]-CA--CB-[CG] |==|  0.57739
USER: genes 11 Torsion [CA]-CB--CG-[CD2] |==|  0.67276
USER: genes 12 Torsion [N]-CA--C-[O] |==|  0.43346
USER: genes 13 Torsion [N]-C--CA-[N] |==|  0.91743
USER: genes 14 Torsion [C]-CA--N-[C] |==|  0.82869
USER: genes 15 Torsion [N]-C--CA-[N] |==|  0.27590
USER: genes 16 Torsion [C]-CA--CB-[CG] |==|  0.33391
USER: genes 17 Torsion [CA]-CB--CG-[CD] |==|  0.29479
USER: genes 18 Torsion [CB]-CG--CD-[CE] |==|  0.03887
USER: genes 19 Torsion [CG]-CD--CE-[NZ] |==|  0.63454
USER: genes 20 Torsion [CD]-CE--NZ-[HZ2] |==|  0.90032
ROOT
ATOM      1  C   LYS L   5     -22.492 -78.697 -25.963  1.00 61.96 LIG 0.24  C 
ATOM      2 O    LYS L   5     -23.292 -77.927 -25.416  1.00 44.78 LIG-0.27  OA
ATOM      3  N   LYS L   6     -22.679 -79.176 -27.191  1.00 60.12 LIG-0.35  N 
ATOM      4 H    LYS L   6     -22.076 -79.592 -27.642  1.00 60.12 LIG 0.16  HD
ENDROOT
BRANCH 3 5
ATOM      5  CA  LYS L   6     -23.956 -79.027 -27.880  1.00 64.44 LIG 0.18  C 
BRANCH 5 6
ATOM      6  CB  LYS L   6     -24.074 -77.647 -28.528  1.00 71.41 LIG 0.04  C 
BRANCH 6 7
ATOM      7  CG  LYS L   6     -25.462 -77.026 -28.402  1.00 72.05 LIG 0.00  C 
BRANCH 7 8
ATOM      8  CD  LYS L   6     -26.363 -77.827 -27.475  1.00 65.16 LIG 0.03  C 
BRANCH 8 9
ATOM      9  CE  LYS L   6     -27.264 -76.903 -26.668  1.00 70.38 LIG 0.23  C 
BRANCH 9 10
ATOM     10  NZ  LYS L   6     -28.646 -77.452 -26.558  1.00 74.13 LIG-0.08  N 
ATOM     11 HZ2  LYS L   6     -29.150 -77.123 -27.214  1.00 74.13 LIG 0.27  HD
ATOM     12 HZ1  LYS L   6     -28.995 -77.222 -25.772  1.00 74.13 LIG 0.27  HD
ATOM     13 HZ3  LYS L   6     -28.619 -78.339 -26.621  1.00 74.13 LIG 0.27  HD
ENDBRANCH 9 10
ENDBRANCH 8 9
ENDBRANCH 7 8
ENDBRANCH 6 7
ENDBRANCH 5 6
BRANCH 5 14
ATOM     14  C   LYS L   6     -24.042 -80.118 -28.937  1.00 59.21 LIG 0.24  C 
ATOM     15  N   LEU L   7     -25.241 -80.640 -29.172  1.00 55.77 LIG-0.35  N 
ATOM     16 H    LEU L   7     -25.969 -80.363 -28.807  1.00 55.77 LIG 0.16  HD
ATOM     17 O    LYS L   6     -23.031 -80.492 -29.522  1.00 62.62 LIG-0.27  OA
BRANCH 15 18
ATOM     18  CA  LEU L   7     -25.412 -81.762 -30.099  1.00 55.07 LIG 0.16  C 
BRANCH 18 19
ATOM     19  CB  LEU L   7     -25.123 -83.094 -29.398  1.00 49.39 LIG 0.04  C 
BRANCH 19 20
ATOM     20  CG  LEU L   7     -24.618 -84.212 -30.308  1.00 45.34 LIG-0.02  C 
ATOM     21  CD2 LEU L   7     -25.607 -85.383 -30.306  1.00 40.01 LIG 0.01  C 
ATOM     22  CD1 LEU L   7     -23.246 -84.652 -29.838  1.00 33.03 LIG 0.01  C 
ENDBRANCH 19 20
ENDBRANCH 18 19
BRANCH 18 23
ATOM     23  C   LEU L   7     -26.803 -81.792 -30.728  1.00 52.26 LIG 0.22  C 
ATOM     24 O    LEU L   7     -26.986 -82.354 -31.808  1.00 59.22 LIG-0.29  OA
ENDBRANCH 18 23
ENDBRANCH 15 18
ENDBRANCH 5 14
ENDBRANCH 3 5
BRANCH 1 25
ATOM     25  CA  LYS L   5     -21.208 -79.147 -25.249  1.00 63.64 LIG 0.18  C 
BRANCH 25 26
ATOM     26  N   LYS L   5     -20.745 -80.475 -25.652  1.00 68.83 LIG-0.35  N 
ATOM     27  C   ALA L   4     -21.485 -81.567 -25.459  1.00 74.38 LIG 0.26  C 
ATOM     28 O    ALA L   4     -22.639 -81.527 -25.019  1.00 71.28 LIG-0.27  OA
ATOM     29 H    LYS L   5     -19.967 -80.483 -26.018  1.00 68.83 LIG 0.16  HD
BRANCH 27 30
ATOM     30  CA  ALA L   4     -20.832 -82.909 -25.812  1.00 68.81 LIG 0.40  C 
ATOM     31  N   ALA L   4     -20.320 -83.569 -24.614  1.00 73.56 LIG 0.61  N 
ATOM     32  CB  ALA L   4     -21.820 -83.824 -26.550  1.00 57.48 LIG 0.06  C 
ENDBRANCH 27 30
ENDBRANCH 25 26
BRANCH 25 33
ATOM     33  CB  LYS L   5     -20.096 -78.121 -25.491  1.00 69.62 LIG 0.04  C 
BRANCH 33 34
ATOM     34  CG  LYS L   5     -19.536 -77.485 -24.232  1.00 80.66 LIG 0.00  C 
BRANCH 34 35
ATOM     35  CD  LYS L   5     -18.149 -78.035 -23.914  1.00 85.15 LIG 0.03  C 
BRANCH 35 36
ATOM     36  CE  LYS L   5     -17.569 -78.795 -25.098  1.00 90.30 LIG 0.23  C 
BRANCH 36 37
ATOM     37  NZ  LYS L   5     -17.021 -80.127 -24.708  1.00 90.68 LIG-0.08  N 
ATOM     38 HZ3  LYS L   5     -17.679 -80.726 -24.691  1.00 90.68 LIG 0.27  HD
ATOM     39 HZ2  LYS L   5     -16.650 -80.072 -23.901  1.00 90.68 LIG 0.27  HD
ATOM     40 HZ1  LYS L   5     -16.406 -80.381 -25.300  1.00 90.68 LIG 0.27  HD
ENDBRANCH 36 37
ENDBRANCH 35 36
ENDBRANCH 34 35
ENDBRANCH 33 34
ENDBRANCH 25 33
ENDBRANCH 1 25
TORSDOF 19
ENDMDL
MODEL 43
USER: ADFR SOLUTION from run 79
USER: SCORE 14.354976 LL:  -1.065 LR: -13.844 RR:   0.000 FEB:  -8.176
USER: RMSD 4.225286
USER: SEED 78
USER: STATUS no improvement in best in 6 clusters for 5 generations
USER: GENES 21
USER: genes 0 Translation |==|  0.56304 0.31588 0.42570
USER: genes 1 Rotation |==|  0.58138 0.04774 0.41225 0.67647
USER: genes 2 Torsion [C]-N--CA-[CB] |==|  0.86482
USER: genes 3 Torsion [N]-CA--CB-[CG] |==|  0.72933
USER: genes 4 Torsion [CA]-CB--CG-[CD] |==|  0.69758
USER: genes 5 Torsion [CB]-CG--CD-[CE] |==|  0.72661
USER: genes 6 Torsion [CG]-CD--CE-[NZ] |==|  0.86655
USER: genes 7 Torsion [CD]-CE--NZ-[HZ1] |==|  0.51097
USER: genes 8 Torsion [N]-CA--C-[N] |==|  0.37150
USER: genes 9 Torsion [C]-N--CA-[CB] |==|  0.49812
USER: genes 10 Torsion [N]-CA--CB-[CG] |==|  0.58729
USER: genes 11 Torsion [CA]-CB--CG-[CD2] |==|  0.54783
USER: genes 12 Torsion [N]-CA--C-[O] |==|  0.64626
USER: genes 13 Torsion [N]-C--CA-[N] |==|  0.82910
USER: genes 14 Torsion [C]-CA--N-[C] |==|  0.69924
USER: genes 15 Torsion [N]-C--CA-[N] |==|  0.48097
USER: genes 16 Torsion [C]-CA--CB-[CG] |==|  0.28732
USER: genes 17 Torsion [CA]-CB--CG-[CD] |==|  0.28446
USER: genes 18 Torsion [CB]-CG--CD-[CE] |==|  0.55348
USER: genes 19 Torsion [CG]-CD--CE-[NZ] |==|  0.41764
USER: genes 20 Torsion [CD]-CE--NZ-[HZ2] |==|  0.00582
ROOT
ATOM      1  C   LYS L   5     -23.667 -79.986 -28.367  1.00 61.96 LIG 0.24  C 
ATOM      2 O    LYS L   5     -23.564 -80.061 -27.135  1.00 44.78 LIG-0.27  OA
ATOM      3  N   LYS L   6     -23.761 -78.825 -29.011  1.00 60.12 LIG-0.35  N 
ATOM      4 H    LYS L   6     -23.690 -78.741 -29.864  1.00 60.12 LIG 0.16  HD
ENDROOT
BRANCH 3 5
ATOM      5  CA  LYS L   6     -24.000 -77.575 -28.298  1.00 64.44 LIG 0.18  C 
BRANCH 5 6
ATOM      6  CB  LYS L   6     -25.163 -77.716 -27.315  1.00 71.41 LIG 0.04  C 
BRANCH 6 7
ATOM      7  CG  LYS L   6     -26.493 -77.204 -27.859  1.00 72.05 LIG 0.00  C 
BRANCH 7 8
ATOM      8  CD  LYS L   6     -26.928 -75.914 -27.183  1.00 65.16 LIG 0.03  C 
BRANCH 8 9
ATOM      9  CE  LYS L   6     -27.940 -76.196 -26.082  1.00 70.38 LIG 0.23  C 
BRANCH 9 10
ATOM     10  NZ  LYS L   6     -29.021 -77.106 -26.558  1.00 74.13 LIG-0.08  N 
ATOM     11 HZ2  LYS L   6     -29.409 -76.755 -27.278  1.00 74.13 LIG 0.27  HD
ATOM     12 HZ1  LYS L   6     -29.627 -77.208 -25.915  1.00 74.13 LIG 0.27  HD
ATOM     13 HZ3  LYS L   6     -28.673 -77.898 -26.764  1.00 74.13 LIG 0.27  HD
ENDBRANCH 9 10
ENDBRANCH 8 9
ENDBRANCH 7 8
ENDBRANCH 6 7
ENDBRANCH 5 6
BRANCH 5 14
ATOM     14  C   LYS L   6     -22.722 -77.212 -27.558  1.00 59.21 LIG 0.24  C 
ATOM     15  N   LEU L   7     -22.304 -75.954 -27.653  1.00 55.77 LIG-0.35  N 
ATOM     16 H    LEU L   7     -22.737 -75.330 -28.055  1.00 55.77 LIG 0.16  HD
ATOM     17 O    LYS L   6     -22.113 -78.066 -26.921  1.00 62.62 LIG-0.27  OA
BRANCH 15 18
ATOM     18  CA  LEU L   7     -21.034 -75.530 -27.058  1.00 55.07 LIG 0.16  C 
BRANCH 18 19
ATOM     19  CB  LEU L   7     -20.779 -74.043 -27.323  1.00 49.39 LIG 0.04  C 
BRANCH 19 20
ATOM     20  CG  LEU L   7     -19.310 -73.647 -27.458  1.00 45.34 LIG-0.02  C 
ATOM     21  CD2 LEU L   7     -19.153 -72.132 -27.291  1.00 40.01 LIG 0.01  C 
ATOM     22  CD1 LEU L   7     -18.795 -74.106 -28.808  1.00 33.03 LIG 0.01  C 
ENDBRANCH 19 20
ENDBRANCH 18 19
BRANCH 18 23
ATOM     23  C   LEU L   7     -20.969 -75.814 -25.559  1.00 52.26 LIG 0.22  C 
ATOM     24 O    LEU L   7     -20.677 -74.916 -24.768  1.00 59.22 LIG-0.29  OA
ENDBRANCH 18 23
ENDBRANCH 15 18
ENDBRANCH 5 14
ENDBRANCH 3 5
BRANCH 1 25
ATOM     25  CA  LYS L   5     -23.683 -81.249 -29.241  1.00 63.64 LIG 0.18  C 
BRANCH 25 26
ATOM     26  N   LYS L   5     -24.917 -81.417 -30.010  1.00 68.83 LIG-0.35  N 
ATOM     27  C   ALA L   4     -25.814 -82.355 -29.705  1.00 74.38 LIG 0.26  C 
ATOM     28 O    ALA L   4     -25.717 -83.079 -28.709  1.00 71.28 LIG-0.27  OA
ATOM     29 H    LYS L   5     -25.006 -80.863 -30.662  1.00 68.83 LIG 0.16  HD
BRANCH 27 30
ATOM     30  CA  ALA L   4     -27.001 -82.505 -30.665  1.00 68.81 LIG 0.40  C 
ATOM     31  N   ALA L   4     -27.814 -83.664 -30.308  1.00 73.56 LIG 0.61  N 
ATOM     32  CB  ALA L   4     -27.858 -81.231 -30.683  1.00 57.48 LIG 0.06  C 
ENDBRANCH 27 30
ENDBRANCH 25 26
BRANCH 25 33
ATOM     33  CB  LYS L   5     -22.484 -81.234 -30.193  1.00 69.62 LIG 0.04  C 
BRANCH 33 34
ATOM     34  CG  LYS L   5     -21.344 -82.153 -29.792  1.00 80.66 LIG 0.00  C 
BRANCH 34 35
ATOM     35  CD  LYS L   5     -21.349 -83.426 -30.633  1.00 85.15 LIG 0.03  C 
BRANCH 35 36
ATOM     36  CE  LYS L   5     -20.551 -84.536 -29.965  1.00 90.30 LIG 0.23  C 
BRANCH 36 37
ATOM     37  NZ  LYS L   5     -21.066 -85.895 -30.308  1.00 90.68 LIG-0.08  N 
ATOM     38 HZ3  LYS L   5     -20.416 -86.373 -30.683  1.00 90.68 LIG 0.27  HD
ATOM     39 HZ2  LYS L   5     -21.745 -85.820 -30.878  1.00 90.68 LIG 0.27  HD
ATOM     40 HZ1  LYS L   5     -21.345 -86.303 -29.567  1.00 90.68 LIG 0.27  HD
ENDBRANCH 36 37
ENDBRANCH 35 36
ENDBRANCH 34 35
ENDBRANCH 33 34
ENDBRANCH 25 33
ENDBRANCH 1 25
TORSDOF 19
ENDMDL
MODEL 44
USER: ADFR SOLUTION from run 4
USER: SCORE 14.120959 LL:  -2.092 LR: -13.828 RR:   0.000 FEB:  -8.160
USER: RMSD 2.690946
USER: SEED 15718
USER: STATUS no improvement in best in 3 clusters for 5 generations
USER: GENES 21
USER: genes 0 Translation |==|  0.52686 0.42651 0.43213
USER: genes 1 Rotation |==|  0.51916 0.66624 0.45884 0.96936
USER: genes 2 Torsion [C]-N--CA-[CB] |==|  0.36141
USER: genes 3 Torsion [N]-CA--CB-[CG] |==|  0.76813
USER: genes 4 Torsion [CA]-CB--CG-[CD] |==|  0.19520
USER: genes 5 Torsion [CB]-CG--CD-[CE] |==|  0.38910
USER: genes 6 Torsion [CG]-CD--CE-[NZ] |==|  0.28455
USER: genes 7 Torsion [CD]-CE--NZ-[HZ1] |==|  0.04321
USER: genes 8 Torsion [N]-CA--C-[N] |==|  0.21532
USER: genes 9 Torsion [C]-N--CA-[CB] |==|  0.82634
USER: genes 10 Torsion [N]-CA--CB-[CG] |==|  0.78807
USER: genes 11 Torsion [CA]-CB--CG-[CD2] |==|  0.93958
USER: genes 12 Torsion [N]-CA--C-[O] |==|  0.29150
USER: genes 13 Torsion [N]-C--CA-[N] |==|  0.43629
USER: genes 14 Torsion [C]-CA--N-[C] |==|  0.65000
USER: genes 15 Torsion [N]-C--CA-[N] |==|  0.31236
USER: genes 16 Torsion [C]-CA--CB-[CG] |==|  0.30683
USER: genes 17 Torsion [CA]-CB--CG-[CD] |==|  0.70745
USER: genes 18 Torsion [CB]-CG--CD-[CE] |==|  0.61361
USER: genes 19 Torsion [CG]-CD--CE-[NZ] |==|  0.16959
USER: genes 20 Torsion [CD]-CE--NZ-[HZ2] |==|  0.89176
ROOT
ATOM      1  C   LYS L   5     -24.372 -77.580 -28.275  1.00 61.96 LIG 0.24  C 
ATOM      2 O    LYS L   5     -24.353 -77.108 -29.420  1.00 44.78 LIG-0.27  OA
ATOM      3  N   LYS L   6     -24.382 -76.819 -27.183  1.00 60.12 LIG-0.35  N 
ATOM      4 H    LYS L   6     -24.539 -77.116 -26.392  1.00 60.12 LIG 0.16  HD
ENDROOT
BRANCH 3 5
ATOM      5  CA  LYS L   6     -24.120 -75.385 -27.251  1.00 64.44 LIG 0.18  C 
BRANCH 5 6
ATOM      6  CB  LYS L   6     -25.196 -74.594 -26.506  1.00 71.41 LIG 0.04  C 
BRANCH 6 7
ATOM      7  CG  LYS L   6     -26.449 -74.330 -27.335  1.00 72.05 LIG 0.00  C 
BRANCH 7 8
ATOM      8  CD  LYS L   6     -27.253 -75.599 -27.573  1.00 65.16 LIG 0.03  C 
BRANCH 8 9
ATOM      9  CE  LYS L   6     -28.745 -75.320 -27.463  1.00 70.38 LIG 0.23  C 
BRANCH 9 10
ATOM     10  NZ  LYS L   6     -29.382 -75.231 -28.808  1.00 74.13 LIG-0.08  N 
ATOM     11 HZ2  LYS L   6     -30.146 -75.687 -28.805  1.00 74.13 LIG 0.27  HD
ATOM     12 HZ1  LYS L   6     -28.834 -75.574 -29.419  1.00 74.13 LIG 0.27  HD
ATOM     13 HZ3  LYS L   6     -29.545 -74.378 -29.003  1.00 74.13 LIG 0.27  HD
ENDBRANCH 9 10
ENDBRANCH 8 9
ENDBRANCH 7 8
ENDBRANCH 6 7
ENDBRANCH 5 6
BRANCH 5 14
ATOM     14  C   LYS L   6     -22.754 -75.134 -26.631  1.00 59.21 LIG 0.24  C 
ATOM     15  N   LEU L   7     -21.690 -75.424 -27.373  1.00 55.77 LIG-0.35  N 
ATOM     16 H    LEU L   7     -21.728 -75.687 -28.191  1.00 55.77 LIG 0.16  HD
ATOM     17 O    LYS L   6     -22.665 -74.697 -25.488  1.00 62.62 LIG-0.27  OA
BRANCH 15 18
ATOM     18  CA  LEU L   7     -20.334 -75.310 -26.831  1.00 55.07 LIG 0.16  C 
BRANCH 18 19
ATOM     19  CB  LEU L   7     -20.024 -73.861 -26.442  1.00 49.39 LIG 0.04  C 
BRANCH 19 20
ATOM     20  CG  LEU L   7     -19.717 -72.925 -27.610  1.00 45.34 LIG-0.02  C 
ATOM     21  CD2 LEU L   7     -19.265 -73.732 -28.831  1.00 40.01 LIG 0.01  C 
ATOM     22  CD1 LEU L   7     -18.652 -71.933 -27.184  1.00 33.03 LIG 0.01  C 
ENDBRANCH 19 20
ENDBRANCH 18 19
BRANCH 18 23
ATOM     23  C   LEU L   7     -20.105 -76.233 -25.636  1.00 52.26 LIG 0.22  C 
ATOM     24 O    LEU L   7     -19.438 -77.260 -25.761  1.00 59.22 LIG-0.29  OA
ENDBRANCH 18 23
ENDBRANCH 15 18
ENDBRANCH 5 14
ENDBRANCH 3 5
BRANCH 1 25
ATOM     25  CA  LYS L   5     -24.396 -79.098 -28.043  1.00 63.64 LIG 0.18  C 
BRANCH 25 26
ATOM     26  N   LYS L   5     -24.907 -79.860 -29.183  1.00 68.83 LIG-0.35  N 
ATOM     27  C   ALA L   4     -25.911 -80.728 -29.056  1.00 74.38 LIG 0.26  C 
ATOM     28 O    ALA L   4     -26.537 -80.881 -28.002  1.00 71.28 LIG-0.27  OA
ATOM     29 H    LYS L   5     -24.507 -79.696 -29.927  1.00 68.83 LIG 0.16  HD
BRANCH 27 30
ATOM     30  CA  ALA L   4     -26.267 -81.551 -30.301  1.00 68.81 LIG 0.40  C 
ATOM     31  N   ALA L   4     -25.949 -82.961 -30.099  1.00 73.56 LIG 0.61  N 
ATOM     32  CB  ALA L   4     -27.748 -81.380 -30.667  1.00 57.48 LIG 0.06  C 
ENDBRANCH 27 30
ENDBRANCH 25 26
BRANCH 25 33
ATOM     33  CB  LYS L   5     -22.988 -79.588 -27.689  1.00 69.62 LIG 0.04  C 
BRANCH 33 34
ATOM     34  CG  LYS L   5     -22.818 -80.047 -26.253  1.00 80.66 LIG 0.00  C 
BRANCH 34 35
ATOM     35  CD  LYS L   5     -22.043 -79.014 -25.439  1.00 85.15 LIG 0.03  C 
BRANCH 35 36
ATOM     36  CE  LYS L   5     -21.044 -79.681 -24.504  1.00 90.30 LIG 0.23  C 
BRANCH 36 37
ATOM     37  NZ  LYS L   5     -20.021 -80.481 -25.238  1.00 90.68 LIG-0.08  N 
ATOM     38 HZ3  LYS L   5     -19.384 -79.940 -25.545  1.00 90.68 LIG 0.27  HD
ATOM     39 HZ2  LYS L   5     -20.407 -80.901 -25.921  1.00 90.68 LIG 0.27  HD
ATOM     40 HZ1  LYS L   5     -19.661 -81.080 -24.687  1.00 90.68 LIG 0.27  HD
ENDBRANCH 36 37
ENDBRANCH 35 36
ENDBRANCH 34 35
ENDBRANCH 33 34
ENDBRANCH 25 33
ENDBRANCH 1 25
TORSDOF 19
ENDMDL
