MODEL 1
USER: ADFR SOLUTION from run 2
USER: SCORE 13.696523 LL:  -2.240 LR: -12.919 RR:   0.000 FEB:  -7.550
USER: RMSD 11.973584
USER: SEED 16335
USER: STATUS no improvement in best in 8 clusters for 5 generations
USER: GENES 20
USER: genes 0 Translation |==|  0.56637 0.56799 0.44023
USER: genes 1 Rotation |==|  0.48262 0.38629 0.01788 0.56581
USER: genes 2 Torsion [C]-N--CA-[CB] |==|  0.48673
USER: genes 3 Torsion [N]-CA--CB-[CG2] |==|  0.78603
USER: genes 4 Torsion [CA]-CB--OG1-[HG1] |==|  0.89003
USER: genes 5 Torsion [N]-CA--C-[N] |==|  0.46768
USER: genes 6 Torsion [N]-CA--C-[O] |==|  0.97766
USER: genes 7 Torsion [C]-N--CA-[CB] |==|  0.29621
USER: genes 8 Torsion [N]-CA--C-[O] |==|  0.94163
USER: genes 9 Torsion [N]-CA--CB-[SG] |==|  0.80021
USER: genes 10 Torsion [CA]-CB--SG-[HG] |==|  0.95846
USER: genes 11 Torsion [N]-C--CA-[N] |==|  0.35769
USER: genes 12 Torsion [C]-CA--N-[C] |==|  0.56469
USER: genes 13 Torsion [N]-C--CA-[N] |==|  0.46041
USER: genes 14 Torsion [C]-CA--N-[C] |==|  0.51462
USER: genes 15 Torsion [N]-C--CA-[N] |==|  0.31601
USER: genes 16 Torsion [C]-CA--CB-[OG] |==|  0.92111
USER: genes 17 Torsion [CA]-CB--OG-[HG] |==|  0.69856
USER: genes 18 Torsion [C]-CA--CB-[OG] |==|  0.55853
USER: genes 19 Torsion [CA]-CB--OG-[HG] |==|  0.53034
ROOT
ATOM      1  C   SER B   4     -17.655  -6.831  14.183  1.00 56.97 LIG 0.24  C 
ATOM      2 O    SER B   4     -17.541  -7.078  12.978  1.00 57.23 LIG-0.27  OA
ATOM      3  N   THR B   5     -18.608  -7.372  14.948  1.00 55.89 LIG-0.34  N 
ATOM      4 H    THR B   5     -18.708  -7.198  15.785  1.00 55.89 LIG 0.16  HD
ENDROOT
BRANCH 3 5
ATOM      5  CA  THR B   5     -19.587  -8.329  14.405  1.00 55.10 LIG 0.20  C 
BRANCH 5 6
ATOM      6  CB  THR B   5     -20.521  -8.905  15.529  1.00 55.33 LIG 0.15  C 
ATOM      7  CG2 THR B   5     -19.808  -9.975  16.367  1.00 55.26 LIG 0.04  C 
BRANCH 6 8
ATOM      8 OG1  THR B   5     -20.973  -7.848  16.394  1.00 55.55 LIG-0.39  OA
ATOM      9 HG1  THR B   5     -20.343  -7.309  16.530  1.00 55.55 LIG 0.21  HD
ENDBRANCH 6 8
ENDBRANCH 5 6
BRANCH 5 10
ATOM     10  C   THR B   5     -20.439  -7.762  13.254  1.00 54.13 LIG 0.24  C 
ATOM     11  N   PRO B   6     -21.185  -8.637  12.544  1.00 52.90 LIG-0.34  N 
ATOM     12  CD  PRO B   6     -21.217 -10.107  12.677  1.00 52.89 LIG 0.13  C 
ATOM     13  CA  PRO B   6     -22.095  -8.162  11.493  1.00 51.99 LIG 0.18  C 
ATOM     14  CG  PRO B   6     -22.115 -10.553  11.550  1.00 52.79 LIG 0.02  C 
ATOM     15  CB  PRO B   6     -22.951  -9.393  11.176  1.00 51.93 LIG 0.04  C 
ATOM     16 O    THR B   5     -20.442  -6.544  13.022  1.00 54.19 LIG-0.27  OA
BRANCH 13 17
ATOM     17  C   PRO B   6     -22.968  -7.019  12.002  1.00 51.04 LIG 0.24  C 
ATOM     18 O    PRO B   6     -22.947  -6.727  13.202  1.00 50.92 LIG-0.27  OA
ATOM     19  N   CYS B   7     -23.721  -6.377  11.108  1.00 49.72 LIG-0.34  N 
ATOM     20 H    CYS B   7     -23.817  -6.624  10.291  1.00 49.72 LIG 0.16  HD
BRANCH 19 21
ATOM     21  CA  CYS B   7     -24.468  -5.156  11.475  1.00 48.85 LIG 0.19  C 
BRANCH 21 22
ATOM     22  C   CYS B   7     -25.951  -5.206  11.110  1.00 48.04 LIG 0.20  C 
ATOM     23 OXT  CYS B   7     -26.773  -4.476  11.660  1.00 47.16 LIG-0.65  OA
ATOM     24 O    CYS B   7     -26.350  -5.985  10.249  1.00 47.51 LIG-0.65  OA
ENDBRANCH 21 22
BRANCH 21 25
ATOM     25  CB  CYS B   7     -23.802  -3.915  10.865  1.00 48.98 LIG 0.11  C 
BRANCH 25 26
ATOM     26 SG   CYS B   7     -22.245  -3.502  11.677  1.00 48.50 LIG-0.18  SA
ATOM     27 HG   CYS B   7     -22.168  -4.093  12.719  1.00 48.50 LIG 0.10  HD
ENDBRANCH 25 26
ENDBRANCH 21 25
ENDBRANCH 19 21
ENDBRANCH 13 17
ENDBRANCH 5 10
ENDBRANCH 3 5
BRANCH 1 28
ATOM     28  CA  SER B   4     -16.685  -5.859  14.866  1.00 57.59 LIG 0.20  C 
BRANCH 28 29
ATOM     29  N   SER B   4     -15.278  -6.195  14.615  1.00 58.14 LIG-0.34  N 
ATOM     30  C   SER B   3     -14.295  -5.808  15.428  1.00 58.75 LIG 0.24  C 
ATOM     31 O    SER B   3     -14.510  -5.282  16.524  1.00 58.75 LIG-0.27  OA
ATOM     32 H    SER B   4     -15.150  -6.659  13.902  1.00 58.14 LIG 0.16  HD
BRANCH 30 33
ATOM     33  CA  SER B   3     -12.850  -6.067  14.948  1.00 59.17 LIG 0.20  C 
BRANCH 33 34
ATOM     34  N   SER B   3     -11.885  -5.305  15.755  1.00 59.50 LIG-0.34  N 
ATOM     35  C   PRO B   2     -10.566  -5.236  15.529  1.00 59.86 LIG 0.25  C 
ATOM     36 O    PRO B   2      -9.801  -4.650  16.304  1.00 59.80 LIG-0.27  OA
ATOM     37 H    SER B   3     -12.257  -4.891  16.412  1.00 59.50 LIG 0.16  HD
BRANCH 35 38
ATOM     38  CA  PRO B   2      -9.976  -5.908  14.278  1.00 60.11 LIG 0.35  C 
ATOM     39  CB  PRO B   2      -8.751  -6.768  14.629  1.00 60.16 LIG 0.05  C 
ATOM     40  CG  PRO B   2      -7.753  -6.508  13.552  1.00 60.30 LIG 0.04  C 
ATOM     41  CD  PRO B   2      -7.996  -5.113  13.081  1.00 60.25 LIG 0.32  C 
ATOM     42  N   PRO B   2      -9.432  -4.913  13.340  1.00 60.27 LIG 0.32  N 
ENDBRANCH 35 38
ENDBRANCH 33 34
BRANCH 33 43
ATOM     43  CB  SER B   3     -12.538  -7.566  15.027  1.00 59.26 LIG 0.20  C 
BRANCH 43 44
ATOM     44 OG   SER B   3     -13.298  -8.191  16.048  1.00 59.53 LIG-0.40  OA
ATOM     45 HG   SER B   3     -12.793  -8.395  16.688  1.00 59.53 LIG 0.21  HD
ENDBRANCH 43 44
ENDBRANCH 33 43
ENDBRANCH 30 33
ENDBRANCH 28 29
BRANCH 28 46
ATOM     46  CB  SER B   4     -16.943  -4.432  14.376  1.00 57.64 LIG 0.20  C 
BRANCH 46 47
ATOM     47 OG   SER B   4     -15.804  -3.610  14.592  1.00 57.32 LIG-0.40  OA
ATOM     48 HG   SER B   4     -16.009  -2.807  14.459  1.00 57.32 LIG 0.21  HD
ENDBRANCH 46 47
ENDBRANCH 28 46
ENDBRANCH 1 28
TORSDOF 18
ENDMDL
MODEL 2
USER: ADFR SOLUTION from run 187
USER: SCORE 14.522910 LL:  -2.561 LR: -12.851 RR:   0.000 FEB:  -7.482
USER: RMSD 9.430248
USER: SEED 186
USER: STATUS no improvement in best in 7 clusters for 5 generations
USER: GENES 20
USER: genes 0 Translation |==|  0.69447 0.64735 0.47367
USER: genes 1 Rotation |==|  0.94951 0.64947 0.43819 0.64758
USER: genes 2 Torsion [C]-N--CA-[CB] |==|  0.13338
USER: genes 3 Torsion [N]-CA--CB-[CG2] |==|  0.12961
USER: genes 4 Torsion [CA]-CB--OG1-[HG1] |==|  0.32863
USER: genes 5 Torsion [N]-CA--C-[N] |==|  0.12599
USER: genes 6 Torsion [N]-CA--C-[O] |==|  0.25653
USER: genes 7 Torsion [C]-N--CA-[CB] |==|  0.30213
USER: genes 8 Torsion [N]-CA--C-[O] |==|  0.36853
USER: genes 9 Torsion [N]-CA--CB-[SG] |==|  0.99163
USER: genes 10 Torsion [CA]-CB--SG-[HG] |==|  0.57405
USER: genes 11 Torsion [N]-C--CA-[N] |==|  0.16667
USER: genes 12 Torsion [C]-CA--N-[C] |==|  0.77406
USER: genes 13 Torsion [N]-C--CA-[N] |==|  0.03601
USER: genes 14 Torsion [C]-CA--N-[C] |==|  0.59591
USER: genes 15 Torsion [N]-C--CA-[N] |==|  0.46381
USER: genes 16 Torsion [C]-CA--CB-[OG] |==|  0.59426
USER: genes 17 Torsion [CA]-CB--OG-[HG] |==|  0.02630
USER: genes 18 Torsion [C]-CA--CB-[OG] |==|  0.70117
USER: genes 19 Torsion [CA]-CB--OG-[HG] |==|  0.53261
ROOT
ATOM      1  C   SER B   4     -14.004  -5.641  14.660  1.00 56.97 LIG 0.24  C 
ATOM      2 O    SER B   4     -14.277  -4.840  15.559  1.00 57.23 LIG-0.27  OA
ATOM      3  N   THR B   5     -12.791  -5.720  14.103  1.00 55.89 LIG-0.34  N 
ATOM      4 H    THR B   5     -12.590  -6.262  13.466  1.00 55.89 LIG 0.16  HD
ENDROOT
BRANCH 3 5
ATOM      5  CA  THR B   5     -11.678  -4.864  14.546  1.00 55.10 LIG 0.20  C 
BRANCH 5 6
ATOM      6  CB  THR B   5     -11.538  -4.857  16.111  1.00 55.33 LIG 0.15  C 
ATOM      7  CG2 THR B   5     -11.604  -6.276  16.693  1.00 55.26 LIG 0.04  C 
BRANCH 6 8
ATOM      8 OG1  THR B   5     -10.297  -4.242  16.499  1.00 55.55 LIG-0.39  OA
ATOM      9 HG1  THR B   5     -10.455  -3.559  16.962  1.00 55.55 LIG 0.21  HD
ENDBRANCH 6 8
ENDBRANCH 5 6
BRANCH 5 10
ATOM     10  C   THR B   5     -10.326  -5.217  13.900  1.00 54.13 LIG 0.24  C 
ATOM     11  N   PRO B   6     -10.313  -5.439  12.567  1.00 52.90 LIG-0.34  N 
ATOM     12  CD  PRO B   6     -11.469  -5.474  11.649  1.00 52.89 LIG 0.13  C 
ATOM     13  CA  PRO B   6      -9.047  -5.689  11.864  1.00 51.99 LIG 0.18  C 
ATOM     14  CG  PRO B   6     -10.870  -5.892  10.330  1.00 52.79 LIG 0.02  C 
ATOM     15  CB  PRO B   6      -9.428  -5.570  10.384  1.00 51.93 LIG 0.04  C 
ATOM     16 O    THR B   5      -9.299  -5.269  14.593  1.00 54.19 LIG-0.27  OA
BRANCH 13 17
ATOM     17  C   PRO B   6      -8.001  -4.642  12.233  1.00 51.04 LIG 0.24  C 
ATOM     18 O    PRO B   6      -7.225  -4.861  13.168  1.00 50.92 LIG-0.27  OA
ATOM     19  N   CYS B   7      -7.973  -3.521  11.510  1.00 49.72 LIG-0.34  N 
ATOM     20 H    CYS B   7      -8.561  -3.314  10.918  1.00 49.72 LIG 0.16  HD
BRANCH 19 21
ATOM     21  CA  CYS B   7      -6.895  -2.527  11.683  1.00 48.85 LIG 0.19  C 
BRANCH 21 22
ATOM     22  C   CYS B   7      -7.398  -1.113  11.969  1.00 48.04 LIG 0.20  C 
ATOM     23 OXT  CYS B   7      -8.296  -0.603  11.303  1.00 47.16 LIG-0.65  OA
ATOM     24 O    CYS B   7      -6.907  -0.455  12.883  1.00 47.51 LIG-0.65  OA
ENDBRANCH 21 22
BRANCH 21 25
ATOM     25  CB  CYS B   7      -5.958  -2.532  10.467  1.00 48.98 LIG 0.11  C 
BRANCH 25 26
ATOM     26 SG   CYS B   7      -6.408  -3.795   9.260  1.00 48.50 LIG-0.18  SA
ATOM     27 HG   CYS B   7      -5.434  -4.121   8.639  1.00 48.50 LIG 0.10  HD
ENDBRANCH 25 26
ENDBRANCH 21 25
ENDBRANCH 19 21
ENDBRANCH 13 17
ENDBRANCH 5 10
ENDBRANCH 3 5
BRANCH 1 28
ATOM     28  CA  SER B   4     -15.077  -6.595  14.123  1.00 57.59 LIG 0.20  C 
BRANCH 28 29
ATOM     29  N   SER B   4     -14.709  -8.008  14.286  1.00 58.14 LIG-0.34  N 
ATOM     30  C   SER B   3     -13.895  -8.635  13.438  1.00 58.75 LIG 0.24  C 
ATOM     31 O    SER B   3     -13.271  -8.041  12.555  1.00 58.75 LIG-0.27  OA
ATOM     32 H    SER B   4     -15.065  -8.386  14.972  1.00 58.14 LIG 0.16  HD
BRANCH 30 33
ATOM     33  CA  SER B   3     -13.742 -10.161  13.619  1.00 59.17 LIG 0.20  C 
BRANCH 33 34
ATOM     34  N   SER B   3     -14.775 -10.689  14.523  1.00 59.50 LIG-0.34  N 
ATOM     35  C   PRO B   2     -14.611 -11.700  15.386  1.00 59.86 LIG 0.25  C 
ATOM     36 O    PRO B   2     -15.552 -12.151  16.049  1.00 59.80 LIG-0.27  OA
ATOM     37 H    SER B   3     -15.525 -10.273  14.445  1.00 59.50 LIG 0.16  HD
BRANCH 35 38
ATOM     38  CA  PRO B   2     -13.219 -12.332  15.557  1.00 60.11 LIG 0.35  C 
ATOM     39  CB  PRO B   2     -12.894 -13.294  14.404  1.00 60.16 LIG 0.05  C 
ATOM     40  CG  PRO B   2     -12.243 -14.477  15.037  1.00 60.30 LIG 0.04  C 
ATOM     41  CD  PRO B   2     -12.816 -14.589  16.410  1.00 60.25 LIG 0.32  C 
ATOM     42  N   PRO B   2     -13.165 -13.198  16.745  1.00 60.27 LIG 0.32  N 
ENDBRANCH 35 38
ENDBRANCH 33 34
BRANCH 33 43
ATOM     43  CB  SER B   3     -13.827 -10.858  12.255  1.00 59.26 LIG 0.20  C 
BRANCH 43 44
ATOM     44 OG   SER B   3     -14.449 -12.127  12.371  1.00 59.53 LIG-0.40  OA
ATOM     45 HG   SER B   3     -14.773 -12.210  13.141  1.00 59.53 LIG 0.21  HD
ENDBRANCH 43 44
ENDBRANCH 33 43
ENDBRANCH 30 33
ENDBRANCH 28 29
BRANCH 28 46
ATOM     46  CB  SER B   4     -16.404  -6.349  14.845  1.00 57.64 LIG 0.20  C 
BRANCH 46 47
ATOM     47 OG   SER B   4     -16.695  -7.410  15.744  1.00 57.32 LIG-0.40  OA
ATOM     48 HG   SER B   4     -17.489  -7.343  16.008  1.00 57.32 LIG 0.21  HD
ENDBRANCH 46 47
ENDBRANCH 28 46
ENDBRANCH 1 28
TORSDOF 18
ENDMDL
MODEL 3
USER: ADFR SOLUTION from run 171
USER: SCORE 14.440035 LL:  -3.662 LR: -12.840 RR:   0.000 FEB:  -7.470
USER: RMSD 6.275626
USER: SEED 170
USER: STATUS no improvement in best in 4 clusters for 5 generations
USER: GENES 20
USER: genes 0 Translation |==|  0.62173 0.57009 0.48859
USER: genes 1 Rotation |==|  0.97245 0.45699 0.38303 0.60614
USER: genes 2 Torsion [C]-N--CA-[CB] |==|  0.44744
USER: genes 3 Torsion [N]-CA--CB-[CG2] |==|  0.68396
USER: genes 4 Torsion [CA]-CB--OG1-[HG1] |==|  0.33089
USER: genes 5 Torsion [N]-CA--C-[N] |==|  0.32260
USER: genes 6 Torsion [N]-CA--C-[O] |==|  0.89154
USER: genes 7 Torsion [C]-N--CA-[CB] |==|  0.17103
USER: genes 8 Torsion [N]-CA--C-[O] |==|  0.55792
USER: genes 9 Torsion [N]-CA--CB-[SG] |==|  0.75690
USER: genes 10 Torsion [CA]-CB--SG-[HG] |==|  0.83906
USER: genes 11 Torsion [N]-C--CA-[N] |==|  0.23338
USER: genes 12 Torsion [C]-CA--N-[C] |==|  0.60000
USER: genes 13 Torsion [N]-C--CA-[N] |==|  0.00709
USER: genes 14 Torsion [C]-CA--N-[C] |==|  0.72946
USER: genes 15 Torsion [N]-C--CA-[N] |==|  0.16400
USER: genes 16 Torsion [C]-CA--CB-[OG] |==|  0.73390
USER: genes 17 Torsion [CA]-CB--OG-[HG] |==|  0.45683
USER: genes 18 Torsion [C]-CA--CB-[OG] |==|  0.66701
USER: genes 19 Torsion [CA]-CB--OG-[HG] |==|  0.81554
ROOT
ATOM      1  C   SER B   4     -16.077  -6.800  14.872  1.00 56.97 LIG 0.24  C 
ATOM      2 O    SER B   4     -15.669  -6.073  15.784  1.00 57.23 LIG-0.27  OA
ATOM      3  N   THR B   5     -15.317  -7.737  14.297  1.00 55.89 LIG-0.34  N 
ATOM      4 H    THR B   5     -15.582  -8.241  13.652  1.00 55.89 LIG 0.16  HD
ENDROOT
BRANCH 3 5
ATOM      5  CA  THR B   5     -13.933  -7.986  14.733  1.00 55.10 LIG 0.20  C 
BRANCH 5 6
ATOM      6  CB  THR B   5     -13.422  -9.397  14.267  1.00 55.33 LIG 0.15  C 
ATOM      7  CG2 THR B   5     -13.174 -10.334  15.457  1.00 55.26 LIG 0.04  C 
BRANCH 6 8
ATOM      8 OG1  THR B   5     -14.375 -10.004  13.376  1.00 55.55 LIG-0.39  OA
ATOM      9 HG1  THR B   5     -14.016 -10.138  12.629  1.00 55.55 LIG 0.21  HD
ENDBRANCH 6 8
ENDBRANCH 5 6
BRANCH 5 10
ATOM     10  C   THR B   5     -12.936  -6.897  14.293  1.00 54.13 LIG 0.24  C 
ATOM     11  N   PRO B   6     -12.331  -6.180  15.266  1.00 52.90 LIG-0.34  N 
ATOM     12  CD  PRO B   6     -12.577  -6.248  16.720  1.00 52.89 LIG 0.13  C 
ATOM     13  CA  PRO B   6     -11.300  -5.188  14.931  1.00 51.99 LIG 0.18  C 
ATOM     14  CG  PRO B   6     -11.724  -5.139  17.284  1.00 52.79 LIG 0.02  C 
ATOM     15  CB  PRO B   6     -10.671  -4.851  16.287  1.00 51.93 LIG 0.04  C 
ATOM     16 O    THR B   5     -12.698  -6.719  13.090  1.00 54.19 LIG-0.27  OA
BRANCH 13 17
ATOM     17  C   PRO B   6     -10.257  -5.783  13.990  1.00 51.04 LIG 0.24  C 
ATOM     18 O    PRO B   6      -9.884  -6.948  14.155  1.00 50.92 LIG-0.27  OA
ATOM     19  N   CYS B   7      -9.795  -5.000  13.013  1.00 49.72 LIG-0.34  N 
ATOM     20 H    CYS B   7      -9.974  -4.163  12.939  1.00 49.72 LIG 0.16  HD
BRANCH 19 21
ATOM     21  CA  CYS B   7      -8.913  -5.537  11.957  1.00 48.85 LIG 0.19  C 
BRANCH 21 22
ATOM     22  C   CYS B   7      -8.350  -4.469  11.020  1.00 48.04 LIG 0.20  C 
ATOM     23 OXT  CYS B   7      -8.296  -3.287  11.351  1.00 47.16 LIG-0.65  OA
ATOM     24 O    CYS B   7      -7.934  -4.780   9.907  1.00 47.51 LIG-0.65  OA
ENDBRANCH 21 22
BRANCH 21 25
ATOM     25  CB  CYS B   7      -9.634  -6.631  11.158  1.00 48.98 LIG 0.11  C 
BRANCH 25 26
ATOM     26 SG   CYS B   7      -9.444  -8.263  11.904  1.00 48.50 LIG-0.18  SA
ATOM     27 HG   CYS B   7      -8.278  -8.530  11.992  1.00 48.50 LIG 0.10  HD
ENDBRANCH 25 26
ENDBRANCH 21 25
ENDBRANCH 19 21
ENDBRANCH 13 17
ENDBRANCH 5 10
ENDBRANCH 3 5
BRANCH 1 28
ATOM     28  CA  SER B   4     -17.507  -6.644  14.342  1.00 57.59 LIG 0.20  C 
BRANCH 28 29
ATOM     29  N   SER B   4     -18.443  -7.595  14.955  1.00 58.14 LIG-0.34  N 
ATOM     30  C   SER B   3     -19.446  -8.149  14.274  1.00 58.75 LIG 0.24  C 
ATOM     31 O    SER B   3     -19.564  -8.028  13.052  1.00 58.75 LIG-0.27  OA
ATOM     32 H    SER B   4     -18.284  -7.758  15.785  1.00 58.14 LIG 0.16  HD
BRANCH 30 33
ATOM     33  CA  SER B   3     -20.463  -8.982  15.085  1.00 59.17 LIG 0.20  C 
BRANCH 33 34
ATOM     34  N   SER B   3     -20.142  -8.950  16.519  1.00 59.50 LIG-0.34  N 
ATOM     35  C   PRO B   2     -19.460  -9.893  17.184  1.00 59.86 LIG 0.25  C 
ATOM     36 O    PRO B   2     -19.306  -9.845  18.410  1.00 59.80 LIG-0.27  OA
ATOM     37 H    SER B   3     -20.442  -8.245  16.910  1.00 59.50 LIG 0.16  HD
BRANCH 35 38
ATOM     38  CA  PRO B   2     -18.854 -11.077  16.412  1.00 60.11 LIG 0.35  C 
ATOM     39  CB  PRO B   2     -17.988 -11.958  17.326  1.00 60.16 LIG 0.05  C 
ATOM     40  CG  PRO B   2     -16.779 -12.306  16.524  1.00 60.30 LIG 0.04  C 
ATOM     41  CD  PRO B   2     -16.552 -11.165  15.589  1.00 60.25 LIG 0.32  C 
ATOM     42  N   PRO B   2     -17.906 -10.620  15.385  1.00 60.27 LIG 0.32  N 
ENDBRANCH 35 38
ENDBRANCH 33 34
BRANCH 33 43
ATOM     43  CB  SER B   3     -21.880  -8.445  14.848  1.00 59.26 LIG 0.20  C 
BRANCH 43 44
ATOM     44 OG   SER B   3     -22.258  -7.540  15.873  1.00 59.53 LIG-0.40  OA
ATOM     45 HG   SER B   3     -22.929  -7.101  15.625  1.00 59.53 LIG 0.21  HD
ENDBRANCH 43 44
ENDBRANCH 33 43
ENDBRANCH 30 33
ENDBRANCH 28 29
BRANCH 28 46
ATOM     46  CB  SER B   4     -18.010  -5.223  14.605  1.00 57.64 LIG 0.20  C 
BRANCH 46 47
ATOM     47 OG   SER B   4     -19.169  -5.242  15.428  1.00 57.32 LIG-0.40  OA
ATOM     48 HG   SER B   4     -19.803  -5.600  15.010  1.00 57.32 LIG 0.21  HD
ENDBRANCH 46 47
ENDBRANCH 28 46
ENDBRANCH 1 28
TORSDOF 18
ENDMDL
MODEL 4
USER: ADFR SOLUTION from run 127
USER: SCORE 14.025216 LL:  -2.626 LR: -12.785 RR:   0.000 FEB:  -7.416
USER: RMSD 11.678392
USER: SEED 126
USER: STATUS no improvement in best in 9 clusters for 5 generations
USER: GENES 20
USER: genes 0 Translation |==|  0.72997 0.56566 0.54934
USER: genes 1 Rotation |==|  0.37890 0.85455 0.31326 0.77342
USER: genes 2 Torsion [C]-N--CA-[CB] |==|  0.66179
USER: genes 3 Torsion [N]-CA--CB-[CG2] |==|  0.09861
USER: genes 4 Torsion [CA]-CB--OG1-[HG1] |==|  0.81793
USER: genes 5 Torsion [N]-CA--C-[N] |==|  0.20894
USER: genes 6 Torsion [N]-CA--C-[O] |==|  0.85090
USER: genes 7 Torsion [C]-N--CA-[CB] |==|  0.22679
USER: genes 8 Torsion [N]-CA--C-[O] |==|  0.31429
USER: genes 9 Torsion [N]-CA--CB-[SG] |==|  0.07426
USER: genes 10 Torsion [CA]-CB--SG-[HG] |==|  0.99286
USER: genes 11 Torsion [N]-C--CA-[N] |==|  0.03150
USER: genes 12 Torsion [C]-CA--N-[C] |==|  0.20556
USER: genes 13 Torsion [N]-C--CA-[N] |==|  0.54046
USER: genes 14 Torsion [C]-CA--N-[C] |==|  0.70940
USER: genes 15 Torsion [N]-C--CA-[N] |==|  0.84882
USER: genes 16 Torsion [C]-CA--CB-[OG] |==|  0.38412
USER: genes 17 Torsion [CA]-CB--OG-[HG] |==|  0.20888
USER: genes 18 Torsion [C]-CA--CB-[OG] |==|  0.58963
USER: genes 19 Torsion [CA]-CB--OG-[HG] |==|  0.44973
ROOT
ATOM      1  C   SER B   4     -12.992  -6.866  15.738  1.00 56.97 LIG 0.24  C 
ATOM      2 O    SER B   4     -14.087  -6.565  16.223  1.00 57.23 LIG-0.27  OA
ATOM      3  N   THR B   5     -12.867  -7.517  14.578  1.00 55.89 LIG-0.34  N 
ATOM      4 H    THR B   5     -12.111  -7.746  14.235  1.00 55.89 LIG 0.16  HD
ENDROOT
BRANCH 3 5
ATOM      5  CA  THR B   5     -14.040  -7.903  13.776  1.00 55.10 LIG 0.20  C 
BRANCH 5 6
ATOM      6  CB  THR B   5     -14.094  -9.455  13.536  1.00 55.33 LIG 0.15  C 
ATOM      7  CG2 THR B   5     -13.579 -10.236  14.753  1.00 55.26 LIG 0.04  C 
BRANCH 6 8
ATOM      8 OG1  THR B   5     -15.440  -9.868  13.243  1.00 55.55 LIG-0.39  OA
ATOM      9 HG1  THR B   5     -15.926  -9.743  13.917  1.00 55.55 LIG 0.21  HD
ENDBRANCH 6 8
ENDBRANCH 5 6
BRANCH 5 10
ATOM     10  C   THR B   5     -15.379  -7.415  14.358  1.00 54.13 LIG 0.24  C 
ATOM     11  N   PRO B   6     -15.678  -6.104  14.216  1.00 52.90 LIG-0.34  N 
ATOM     12  CD  PRO B   6     -14.825  -5.044  13.644  1.00 52.89 LIG 0.13  C 
ATOM     13  CA  PRO B   6     -16.977  -5.582  14.662  1.00 51.99 LIG 0.18  C 
ATOM     14  CG  PRO B   6     -15.617  -3.781  13.870  1.00 52.79 LIG 0.02  C 
ATOM     15  CB  PRO B   6     -17.030  -4.180  14.047  1.00 51.93 LIG 0.04  C 
ATOM     16 O    THR B   5     -16.148  -8.216  14.910  1.00 54.19 LIG-0.27  OA
BRANCH 13 17
ATOM     17  C   PRO B   6     -18.121  -6.442  14.133  1.00 51.04 LIG 0.24  C 
ATOM     18 O    PRO B   6     -18.201  -6.669  12.922  1.00 50.92 LIG-0.27  OA
ATOM     19  N   CYS B   7     -18.992  -6.919  15.024  1.00 49.72 LIG-0.34  N 
ATOM     20 H    CYS B   7     -19.004  -6.697  15.854  1.00 49.72 LIG 0.16  HD
BRANCH 19 21
ATOM     21  CA  CYS B   7     -20.030  -7.893  14.630  1.00 48.85 LIG 0.19  C 
BRANCH 21 22
ATOM     22  C   CYS B   7     -21.282  -7.850  15.506  1.00 48.04 LIG 0.20  C 
ATOM     23 OXT  CYS B   7     -21.251  -8.182  16.689  1.00 47.16 LIG-0.65  OA
ATOM     24 O    CYS B   7     -22.353  -7.476  15.035  1.00 47.51 LIG-0.65  OA
ENDBRANCH 21 22
BRANCH 21 25
ATOM     25  CB  CYS B   7     -19.448  -9.313  14.589  1.00 48.98 LIG 0.11  C 
BRANCH 25 26
ATOM     26 SG   CYS B   7     -18.041  -9.510  15.700  1.00 48.50 LIG-0.18  SA
ATOM     27 HG   CYS B   7     -17.798  -8.460  16.229  1.00 48.50 LIG 0.10  HD
ENDBRANCH 25 26
ENDBRANCH 21 25
ENDBRANCH 19 21
ENDBRANCH 13 17
ENDBRANCH 5 10
ENDBRANCH 3 5
BRANCH 1 28
ATOM     28  CA  SER B   4     -11.696  -6.505  16.475  1.00 57.59 LIG 0.20  C 
BRANCH 28 29
ATOM     29  N   SER B   4     -10.501  -6.707  15.646  1.00 58.14 LIG-0.34  N 
ATOM     30  C   SER B   3     -10.177  -5.884  14.648  1.00 58.75 LIG 0.24  C 
ATOM     31 O    SER B   3     -10.764  -4.817  14.452  1.00 58.75 LIG-0.27  OA
ATOM     32 H    SER B   4     -10.036  -7.398  15.863  1.00 58.14 LIG 0.16  HD
BRANCH 30 33
ATOM     33  CA  SER B   3      -9.004  -6.316  13.741  1.00 59.17 LIG 0.20  C 
BRANCH 33 34
ATOM     34  N   SER B   3      -8.533  -5.190  12.920  1.00 59.50 LIG-0.34  N 
ATOM     35  C   PRO B   2      -8.779  -5.026  11.613  1.00 59.86 LIG 0.25  C 
ATOM     36 O    PRO B   2      -8.273  -4.102  10.966  1.00 59.80 LIG-0.27  OA
ATOM     37 H    SER B   3      -8.068  -4.624  13.372  1.00 59.50 LIG 0.16  HD
BRANCH 35 38
ATOM     38  CA  PRO B   2      -9.706  -6.013  10.886  1.00 60.11 LIG 0.35  C 
ATOM     39  CB  PRO B   2     -11.115  -6.014  11.499  1.00 60.16 LIG 0.05  C 
ATOM     40  CG  PRO B   2     -11.532  -7.445  11.550  1.00 60.30 LIG 0.04  C 
ATOM     41  CD  PRO B   2     -10.281  -8.243  11.713  1.00 60.25 LIG 0.32  C 
ATOM     42  N   PRO B   2      -9.258  -7.403  11.066  1.00 60.27 LIG 0.32  N 
ENDBRANCH 35 38
ENDBRANCH 33 34
BRANCH 33 43
ATOM     43  CB  SER B   3      -7.856  -6.859  14.601  1.00 59.26 LIG 0.20  C 
BRANCH 43 44
ATOM     44 OG   SER B   3      -7.285  -8.017  14.014  1.00 59.53 LIG-0.40  OA
ATOM     45 HG   SER B   3      -6.808  -7.793  13.360  1.00 59.53 LIG 0.21  HD
ENDBRANCH 43 44
ENDBRANCH 33 43
ENDBRANCH 30 33
ENDBRANCH 28 29
BRANCH 28 46
ATOM     46  CB  SER B   4     -11.740  -5.042  16.922  1.00 57.64 LIG 0.20  C 
BRANCH 46 47
ATOM     47 OG   SER B   4     -10.438  -4.471  16.910  1.00 57.32 LIG-0.40  OA
ATOM     48 HG   SER B   4     -10.500  -3.634  16.913  1.00 57.32 LIG 0.21  HD
ENDBRANCH 46 47
ENDBRANCH 28 46
ENDBRANCH 1 28
TORSDOF 18
ENDMDL
MODEL 5
USER: ADFR SOLUTION from run 148
USER: SCORE 14.513775 LL:  -3.212 LR: -12.688 RR:   0.000 FEB:  -7.318
USER: RMSD 8.869228
USER: SEED 147
USER: STATUS no improvement in best in 5 clusters for 5 generations
USER: GENES 20
USER: genes 0 Translation |==|  0.74231 0.51897 0.40702
USER: genes 1 Rotation |==|  0.75981 0.54809 0.67502 0.88672
USER: genes 2 Torsion [C]-N--CA-[CB] |==|  0.38918
USER: genes 3 Torsion [N]-CA--CB-[CG2] |==|  0.99773
USER: genes 4 Torsion [CA]-CB--OG1-[HG1] |==|  0.32983
USER: genes 5 Torsion [N]-CA--C-[N] |==|  0.85971
USER: genes 6 Torsion [N]-CA--C-[O] |==|  0.31782
USER: genes 7 Torsion [C]-N--CA-[CB] |==|  0.50170
USER: genes 8 Torsion [N]-CA--C-[O] |==|  0.89822
USER: genes 9 Torsion [N]-CA--CB-[SG] |==|  0.99730
USER: genes 10 Torsion [CA]-CB--SG-[HG] |==|  0.83587
USER: genes 11 Torsion [N]-C--CA-[N] |==|  0.37303
USER: genes 12 Torsion [C]-CA--N-[C] |==|  0.84107
USER: genes 13 Torsion [N]-C--CA-[N] |==|  0.33350
USER: genes 14 Torsion [C]-CA--N-[C] |==|  0.79933
USER: genes 15 Torsion [N]-C--CA-[N] |==|  0.24013
USER: genes 16 Torsion [C]-CA--CB-[OG] |==|  0.68845
USER: genes 17 Torsion [CA]-CB--OG-[HG] |==|  0.21554
USER: genes 18 Torsion [C]-CA--CB-[OG] |==|  0.50452
USER: genes 19 Torsion [CA]-CB--OG-[HG] |==|  0.43838
ROOT
ATOM      1  C   SER B   4     -12.640  -7.566  13.710  1.00 56.97 LIG 0.24  C 
ATOM      2 O    SER B   4     -13.277  -6.881  12.904  1.00 57.23 LIG-0.27  OA
ATOM      3  N   THR B   5     -11.812  -7.038  14.616  1.00 55.89 LIG-0.34  N 
ATOM      4 H    THR B   5     -11.351  -7.503  15.174  1.00 55.89 LIG 0.16  HD
ENDROOT
BRANCH 3 5
ATOM      5  CA  THR B   5     -11.618  -5.583  14.732  1.00 55.10 LIG 0.20  C 
BRANCH 5 6
ATOM      6  CB  THR B   5     -11.519  -5.127  16.232  1.00 55.33 LIG 0.15  C 
ATOM      7  CG2 THR B   5     -11.670  -6.312  17.196  1.00 55.26 LIG 0.04  C 
BRANCH 6 8
ATOM      8 OG1  THR B   5     -10.260  -4.476  16.475  1.00 55.55 LIG-0.39  OA
ATOM      9 HG1  THR B   5     -10.397  -3.684  16.720  1.00 55.55 LIG 0.21  HD
ENDBRANCH 6 8
ENDBRANCH 5 6
BRANCH 5 10
ATOM     10  C   THR B   5     -10.407  -5.051  13.942  1.00 54.13 LIG 0.24  C 
ATOM     11  N   PRO B   6      -9.222  -5.676  14.126  1.00 52.90 LIG-0.34  N 
ATOM     12  CD  PRO B   6      -8.918  -6.767  15.073  1.00 52.89 LIG 0.13  C 
ATOM     13  CA  PRO B   6      -8.043  -5.288  13.339  1.00 51.99 LIG 0.18  C 
ATOM     14  CG  PRO B   6      -7.429  -6.964  14.932  1.00 52.79 LIG 0.02  C 
ATOM     15  CB  PRO B   6      -7.041  -6.414  13.615  1.00 51.93 LIG 0.04  C 
ATOM     16 O    THR B   5     -10.542  -4.101  13.158  1.00 54.19 LIG-0.27  OA
BRANCH 13 17
ATOM     17  C   PRO B   6      -8.377  -5.220  11.853  1.00 51.04 LIG 0.24  C 
ATOM     18 O    PRO B   6      -8.337  -4.133  11.270  1.00 50.92 LIG-0.27  OA
ATOM     19  N   CYS B   7      -8.698  -6.363  11.243  1.00 49.72 LIG-0.34  N 
ATOM     20 H    CYS B   7      -8.820  -7.110  11.651  1.00 49.72 LIG 0.16  HD
BRANCH 19 21
ATOM     21  CA  CYS B   7      -8.873  -6.424   9.778  1.00 48.85 LIG 0.19  C 
BRANCH 21 22
ATOM     22  C   CYS B   7      -9.874  -5.407   9.232  1.00 48.04 LIG 0.20  C 
ATOM     23 OXT  CYS B   7      -9.700  -4.851   8.150  1.00 47.16 LIG-0.65  OA
ATOM     24 O    CYS B   7     -10.883  -5.127   9.873  1.00 47.51 LIG-0.65  OA
ENDBRANCH 21 22
BRANCH 21 25
ATOM     25  CB  CYS B   7      -9.253  -7.845   9.341  1.00 48.98 LIG 0.11  C 
BRANCH 25 26
ATOM     26 SG   CYS B   7      -9.339  -8.991  10.731  1.00 48.50 LIG-0.18  SA
ATOM     27 HG   CYS B   7      -8.275  -9.030  11.285  1.00 48.50 LIG 0.10  HD
ENDBRANCH 25 26
ENDBRANCH 21 25
ENDBRANCH 19 21
ENDBRANCH 13 17
ENDBRANCH 5 10
ENDBRANCH 3 5
BRANCH 1 28
ATOM     28  CA  SER B   4     -12.769  -9.094  13.697  1.00 57.59 LIG 0.20  C 
BRANCH 28 29
ATOM     29  N   SER B   4     -14.166  -9.542  13.612  1.00 58.14 LIG-0.34  N 
ATOM     30  C   SER B   3     -15.086  -9.182  14.507  1.00 58.75 LIG 0.24  C 
ATOM     31 O    SER B   3     -14.871  -8.328  15.371  1.00 58.75 LIG-0.27  OA
ATOM     32 H    SER B   4     -14.331 -10.052  12.939  1.00 58.14 LIG 0.16  HD
BRANCH 30 33
ATOM     33  CA  SER B   3     -16.464  -9.872  14.406  1.00 59.17 LIG 0.20  C 
BRANCH 33 34
ATOM     34  N   SER B   3     -16.777 -10.602  15.644  1.00 59.50 LIG-0.34  N 
ATOM     35  C   PRO B   2     -16.197 -11.742  16.042  1.00 59.86 LIG 0.25  C 
ATOM     36 O    PRO B   2     -16.577 -12.349  17.050  1.00 59.80 LIG-0.27  OA
ATOM     37 H    SER B   3     -17.390 -10.216  16.108  1.00 59.50 LIG 0.16  HD
BRANCH 35 38
ATOM     38  CA  PRO B   2     -15.033 -12.326  15.225  1.00 60.11 LIG 0.35  C 
ATOM     39  CB  PRO B   2     -14.854 -13.828  15.499  1.00 60.16 LIG 0.05  C 
ATOM     40  CG  PRO B   2     -13.382 -14.047  15.597  1.00 60.30 LIG 0.04  C 
ATOM     41  CD  PRO B   2     -12.800 -12.776  16.118  1.00 60.25 LIG 0.32  C 
ATOM     42  N   PRO B   2     -13.744 -11.751  15.640  1.00 60.27 LIG 0.32  N 
ENDBRANCH 35 38
ENDBRANCH 33 34
BRANCH 33 43
ATOM     43  CB  SER B   3     -17.548  -8.827  14.120  1.00 59.26 LIG 0.20  C 
BRANCH 43 44
ATOM     44 OG   SER B   3     -18.421  -8.683  15.228  1.00 59.53 LIG-0.40  OA
ATOM     45 HG   SER B   3     -18.048  -8.219  15.820  1.00 59.53 LIG 0.21  HD
ENDBRANCH 43 44
ENDBRANCH 33 43
ENDBRANCH 30 33
ENDBRANCH 28 29
BRANCH 28 46
ATOM     46  CB  SER B   4     -11.997  -9.674  12.509  1.00 57.64 LIG 0.20  C 
BRANCH 46 47
ATOM     47 OG   SER B   4     -12.135 -11.087  12.457  1.00 57.32 LIG-0.40  OA
ATOM     48 HG   SER B   4     -11.982 -11.355  11.677  1.00 57.32 LIG 0.21  HD
ENDBRANCH 46 47
ENDBRANCH 28 46
ENDBRANCH 1 28
TORSDOF 18
ENDMDL
MODEL 6
USER: ADFR SOLUTION from run 83
USER: SCORE 13.550871 LL:  -2.704 LR: -12.588 RR:   0.000 FEB:  -7.219
USER: RMSD 5.624692
USER: SEED 82
USER: STATUS no improvement in best in 9 clusters for 5 generations
USER: GENES 20
USER: genes 0 Translation |==|  0.65221 0.57392 0.41602
USER: genes 1 Rotation |==|  0.42048 0.37477 0.74741 0.90839
USER: genes 2 Torsion [C]-N--CA-[CB] |==|  0.45709
USER: genes 3 Torsion [N]-CA--CB-[CG2] |==|  0.17508
USER: genes 4 Torsion [CA]-CB--OG1-[HG1] |==|  0.67481
USER: genes 5 Torsion [N]-CA--C-[N] |==|  0.92015
USER: genes 6 Torsion [N]-CA--C-[O] |==|  0.90401
USER: genes 7 Torsion [C]-N--CA-[CB] |==|  0.85938
USER: genes 8 Torsion [N]-CA--C-[O] |==|  0.21996
USER: genes 9 Torsion [N]-CA--CB-[SG] |==|  0.79520
USER: genes 10 Torsion [CA]-CB--SG-[HG] |==|  0.62995
USER: genes 11 Torsion [N]-C--CA-[N] |==|  0.23128
USER: genes 12 Torsion [C]-CA--N-[C] |==|  0.78664
USER: genes 13 Torsion [N]-C--CA-[N] |==|  0.37743
USER: genes 14 Torsion [C]-CA--N-[C] |==|  0.74533
USER: genes 15 Torsion [N]-C--CA-[N] |==|  0.18254
USER: genes 16 Torsion [C]-CA--CB-[OG] |==|  0.58055
USER: genes 17 Torsion [CA]-CB--OG-[HG] |==|  0.11327
USER: genes 18 Torsion [C]-CA--CB-[OG] |==|  0.57480
USER: genes 19 Torsion [CA]-CB--OG-[HG] |==|  0.34998
ROOT
ATOM      1  C   SER B   4     -15.208  -6.742  13.838  1.00 56.97 LIG 0.24  C 
ATOM      2 O    SER B   4     -14.414  -7.063  12.948  1.00 57.23 LIG-0.27  OA
ATOM      3  N   THR B   5     -15.405  -5.474  14.212  1.00 55.89 LIG-0.34  N 
ATOM      4 H    THR B   5     -15.944  -5.237  14.840  1.00 55.89 LIG 0.16  HD
ENDROOT
BRANCH 3 5
ATOM      5  CA  THR B   5     -14.699  -4.357  13.564  1.00 55.10 LIG 0.20  C 
BRANCH 5 6
ATOM      6  CB  THR B   5     -15.370  -2.975  13.895  1.00 55.33 LIG 0.15  C 
ATOM      7  CG2 THR B   5     -15.309  -2.659  15.395  1.00 55.26 LIG 0.04  C 
BRANCH 6 8
ATOM      8 OG1  THR B   5     -14.727  -1.919  13.160  1.00 55.55 LIG-0.39  OA
ATOM      9 HG1  THR B   5     -14.372  -1.380  13.697  1.00 55.55 LIG 0.21  HD
ENDBRANCH 6 8
ENDBRANCH 5 6
BRANCH 5 10
ATOM     10  C   THR B   5     -13.194  -4.300  13.889  1.00 54.13 LIG 0.24  C 
ATOM     11  N   PRO B   6     -12.796  -4.797  15.081  1.00 52.90 LIG-0.34  N 
ATOM     12  CD  PRO B   6     -13.649  -5.316  16.169  1.00 52.89 LIG 0.13  C 
ATOM     13  CA  PRO B   6     -11.369  -4.863  15.423  1.00 51.99 LIG 0.18  C 
ATOM     14  CG  PRO B   6     -12.676  -5.600  17.286  1.00 52.79 LIG 0.02  C 
ATOM     15  CB  PRO B   6     -11.340  -5.753  16.671  1.00 51.93 LIG 0.04  C 
ATOM     16 O    THR B   5     -12.396  -3.831  13.064  1.00 54.19 LIG-0.27  OA
BRANCH 13 17
ATOM     17  C   PRO B   6     -10.566  -5.499  14.293  1.00 51.04 LIG 0.24  C 
ATOM     18 O    PRO B   6     -11.073  -6.402  13.620  1.00 50.92 LIG-0.27  OA
ATOM     19  N   CYS B   7      -9.333  -5.037  14.081  1.00 49.72 LIG-0.34  N 
ATOM     20 H    CYS B   7      -8.932  -4.476  14.594  1.00 49.72 LIG 0.16  HD
BRANCH 19 21
ATOM     21  CA  CYS B   7      -8.545  -5.472  12.909  1.00 48.85 LIG 0.19  C 
BRANCH 21 22
ATOM     22  C   CYS B   7      -9.002  -4.849  11.591  1.00 48.04 LIG 0.20  C 
ATOM     23 OXT  CYS B   7      -9.705  -5.470  10.797  1.00 47.16 LIG-0.65  OA
ATOM     24 O    CYS B   7      -8.672  -3.702  11.302  1.00 47.51 LIG-0.65  OA
ENDBRANCH 21 22
BRANCH 21 25
ATOM     25  CB  CYS B   7      -8.531  -7.003  12.808  1.00 48.98 LIG 0.11  C 
BRANCH 25 26
ATOM     26 SG   CYS B   7      -7.469  -7.763  14.053  1.00 48.50 LIG-0.18  SA
ATOM     27 HG   CYS B   7      -6.775  -8.593  13.535  1.00 48.50 LIG 0.10  HD
ENDBRANCH 25 26
ENDBRANCH 21 25
ENDBRANCH 19 21
ENDBRANCH 13 17
ENDBRANCH 5 10
ENDBRANCH 3 5
BRANCH 1 28
ATOM     28  CA  SER B   4     -16.013  -7.817  14.578  1.00 57.59 LIG 0.20  C 
BRANCH 28 29
ATOM     29  N   SER B   4     -17.366  -7.986  14.031  1.00 58.14 LIG-0.34  N 
ATOM     30  C   SER B   3     -18.351  -7.125  14.286  1.00 58.75 LIG 0.24  C 
ATOM     31 O    SER B   3     -18.160  -6.051  14.862  1.00 58.75 LIG-0.27  OA
ATOM     32 H    SER B   4     -17.460  -8.684  13.537  1.00 58.14 LIG 0.16  HD
BRANCH 30 33
ATOM     33  CA  SER B   3     -19.764  -7.520  13.804  1.00 59.17 LIG 0.20  C 
BRANCH 33 34
ATOM     34  N   SER B   3     -20.768  -7.248  14.843  1.00 59.50 LIG-0.34  N 
ATOM     35  C   PRO B   2     -21.178  -8.119  15.775  1.00 59.86 LIG 0.25  C 
ATOM     36 O    PRO B   2     -22.094  -7.851  16.561  1.00 59.80 LIG-0.27  OA
ATOM     37 H    SER B   3     -21.082  -6.448  14.798  1.00 59.50 LIG 0.16  HD
BRANCH 35 38
ATOM     38  CA  PRO B   2     -20.503  -9.498  15.873  1.00 60.11 LIG 0.35  C 
ATOM     39  CB  PRO B   2     -21.124 -10.347  16.994  1.00 60.16 LIG 0.05  C 
ATOM     40  CG  PRO B   2     -19.978 -11.016  17.675  1.00 60.30 LIG 0.04  C 
ATOM     41  CD  PRO B   2     -18.810 -10.098  17.534  1.00 60.25 LIG 0.32  C 
ATOM     42  N   PRO B   2     -19.095  -9.378  16.280  1.00 60.27 LIG 0.32  N 
ENDBRANCH 35 38
ENDBRANCH 33 34
BRANCH 33 43
ATOM     43  CB  SER B   3     -20.109  -6.753  12.521  1.00 59.26 LIG 0.20  C 
BRANCH 43 44
ATOM     44 OG   SER B   3     -21.508  -6.549  12.413  1.00 59.53 LIG-0.40  OA
ATOM     45 HG   SER B   3     -21.821  -6.350  13.166  1.00 59.53 LIG 0.21  HD
ENDBRANCH 43 44
ENDBRANCH 33 43
ENDBRANCH 30 33
ENDBRANCH 28 29
BRANCH 28 46
ATOM     46  CB  SER B   4     -15.284  -9.161  14.503  1.00 57.64 LIG 0.20  C 
BRANCH 46 47
ATOM     47 OG   SER B   4     -16.203 -10.240  14.599  1.00 57.32 LIG-0.40  OA
ATOM     48 HG   SER B   4     -16.098 -10.756  13.945  1.00 57.32 LIG 0.21  HD
ENDBRANCH 46 47
ENDBRANCH 28 46
ENDBRANCH 1 28
TORSDOF 18
ENDMDL
MODEL 7
USER: ADFR SOLUTION from run 3
USER: SCORE 12.826109 LL:  -2.121 LR: -12.577 RR:   0.000 FEB:  -7.208
USER: RMSD 6.529317
USER: SEED 33462
USER: STATUS no improvement in best in 12 clusters for 5 generations
USER: GENES 20
USER: genes 0 Translation |==|  0.68024 0.67919 0.45700
USER: genes 1 Rotation |==|  0.23434 0.30038 0.50483 0.87357
USER: genes 2 Torsion [C]-N--CA-[CB] |==|  0.77387
USER: genes 3 Torsion [N]-CA--CB-[CG2] |==|  0.19842
USER: genes 4 Torsion [CA]-CB--OG1-[HG1] |==|  0.20687
USER: genes 5 Torsion [N]-CA--C-[N] |==|  0.11370
USER: genes 6 Torsion [N]-CA--C-[O] |==|  0.42261
USER: genes 7 Torsion [C]-N--CA-[CB] |==|  0.85017
USER: genes 8 Torsion [N]-CA--C-[O] |==|  0.48279
USER: genes 9 Torsion [N]-CA--CB-[SG] |==|  0.86008
USER: genes 10 Torsion [CA]-CB--SG-[HG] |==|  0.03209
USER: genes 11 Torsion [N]-C--CA-[N] |==|  0.56386
USER: genes 12 Torsion [C]-CA--N-[C] |==|  0.52467
USER: genes 13 Torsion [N]-C--CA-[N] |==|  0.38705
USER: genes 14 Torsion [C]-CA--N-[C] |==|  0.52222
USER: genes 15 Torsion [N]-C--CA-[N] |==|  0.14583
USER: genes 16 Torsion [C]-CA--CB-[OG] |==|  0.37812
USER: genes 17 Torsion [CA]-CB--OG-[HG] |==|  0.69670
USER: genes 18 Torsion [C]-CA--CB-[OG] |==|  0.16438
USER: genes 19 Torsion [CA]-CB--OG-[HG] |==|  0.51920
ROOT
ATOM      1  C   SER B   4     -14.409  -5.163  14.422  1.00 56.97 LIG 0.24  C 
ATOM      2 O    SER B   4     -13.939  -6.305  14.384  1.00 57.23 LIG-0.27  OA
ATOM      3  N   THR B   5     -13.674  -4.086  14.713  1.00 55.89 LIG-0.34  N 
ATOM      4 H    THR B   5     -13.990  -3.287  14.757  1.00 55.89 LIG 0.16  HD
ENDROOT
BRANCH 3 5
ATOM      5  CA  THR B   5     -12.231  -4.184  14.988  1.00 55.10 LIG 0.20  C 
BRANCH 5 6
ATOM      6  CB  THR B   5     -11.951  -4.626  16.470  1.00 55.33 LIG 0.15  C 
ATOM      7  CG2 THR B   5     -12.311  -6.100  16.700  1.00 55.26 LIG 0.04  C 
BRANCH 6 8
ATOM      8 OG1  THR B   5     -10.566  -4.419  16.800  1.00 55.55 LIG-0.39  OA
ATOM      9 HG1  THR B   5     -10.424  -3.599  16.910  1.00 55.55 LIG 0.21  HD
ENDBRANCH 6 8
ENDBRANCH 5 6
BRANCH 5 10
ATOM     10  C   THR B   5     -11.473  -5.105  14.014  1.00 54.13 LIG 0.24  C 
ATOM     11  N   PRO B   6     -11.809  -5.038  12.707  1.00 52.90 LIG-0.34  N 
ATOM     12  CD  PRO B   6     -12.893  -4.244  12.096  1.00 52.89 LIG 0.13  C 
ATOM     13  CA  PRO B   6     -11.068  -5.817  11.704  1.00 51.99 LIG 0.18  C 
ATOM     14  CG  PRO B   6     -12.880  -4.667  10.648  1.00 52.79 LIG 0.02  C 
ATOM     15  CB  PRO B   6     -11.540  -5.226  10.371  1.00 51.93 LIG 0.04  C 
ATOM     16 O    THR B   5     -10.578  -5.854  14.433  1.00 54.19 LIG-0.27  OA
BRANCH 13 17
ATOM     17  C   PRO B   6      -9.563  -5.629  11.871  1.00 51.04 LIG 0.24  C 
ATOM     18 O    PRO B   6      -8.796  -6.529  11.518  1.00 50.92 LIG-0.27  OA
ATOM     19  N   CYS B   7      -9.144  -4.476  12.395  1.00 49.72 LIG-0.34  N 
ATOM     20 H    CYS B   7      -9.664  -3.879  12.729  1.00 49.72 LIG 0.16  HD
BRANCH 19 21
ATOM     21  CA  CYS B   7      -7.707  -4.136  12.441  1.00 48.85 LIG 0.19  C 
BRANCH 21 22
ATOM     22  C   CYS B   7      -7.106  -3.807  11.075  1.00 48.04 LIG 0.20  C 
ATOM     23 OXT  CYS B   7      -7.754  -3.939  10.039  1.00 47.16 LIG-0.65  OA
ATOM     24 O    CYS B   7      -5.951  -3.398  10.990  1.00 47.51 LIG-0.65  OA
ENDBRANCH 21 22
BRANCH 21 25
ATOM     25  CB  CYS B   7      -6.910  -5.254  13.126  1.00 48.98 LIG 0.11  C 
BRANCH 25 26
ATOM     26 SG   CYS B   7      -7.625  -5.732  14.713  1.00 48.50 LIG-0.18  SA
ATOM     27 HG   CYS B   7      -8.714  -5.240  14.826  1.00 48.50 LIG 0.10  HD
ENDBRANCH 25 26
ENDBRANCH 21 25
ENDBRANCH 19 21
ENDBRANCH 13 17
ENDBRANCH 5 10
ENDBRANCH 3 5
BRANCH 1 28
ATOM     28  CA  SER B   4     -15.898  -4.931  14.140  1.00 57.59 LIG 0.20  C 
BRANCH 28 29
ATOM     29  N   SER B   4     -16.709  -6.136  14.362  1.00 58.14 LIG-0.34  N 
ATOM     30  C   SER B   3     -17.994  -6.205  14.012  1.00 58.75 LIG 0.24  C 
ATOM     31 O    SER B   3     -18.546  -5.331  13.339  1.00 58.75 LIG-0.27  OA
ATOM     32 H    SER B   4     -16.282  -6.783  14.734  1.00 58.14 LIG 0.16  HD
BRANCH 30 33
ATOM     33  CA  SER B   3     -18.774  -7.456  14.471  1.00 59.17 LIG 0.20  C 
BRANCH 33 34
ATOM     34  N   SER B   3     -20.127  -7.095  14.921  1.00 59.50 LIG-0.34  N 
ATOM     35  C   PRO B   2     -20.995  -7.924  15.518  1.00 59.86 LIG 0.25  C 
ATOM     36 O    PRO B   2     -22.151  -7.575  15.785  1.00 59.80 LIG-0.27  OA
ATOM     37 H    SER B   3     -20.320  -6.272  14.760  1.00 59.50 LIG 0.16  HD
BRANCH 35 38
ATOM     38  CA  PRO B   2     -20.555  -9.353  15.876  1.00 60.11 LIG 0.35  C 
ATOM     39  CB  PRO B   2     -21.562 -10.029  16.820  1.00 60.16 LIG 0.05  C 
ATOM     40  CG  PRO B   2     -20.741 -10.756  17.831  1.00 60.30 LIG 0.04  C 
ATOM     41  CD  PRO B   2     -19.472  -9.985  17.977  1.00 60.25 LIG 0.32  C 
ATOM     42  N   PRO B   2     -19.308  -9.351  16.657  1.00 60.27 LIG 0.32  N 
ENDBRANCH 35 38
ENDBRANCH 33 34
BRANCH 33 43
ATOM     43  CB  SER B   3     -18.852  -8.471  13.324  1.00 59.26 LIG 0.20  C 
BRANCH 43 44
ATOM     44 OG   SER B   3     -18.589  -9.785  13.788  1.00 59.53 LIG-0.40  OA
ATOM     45 HG   SER B   3     -17.841 -10.038  13.503  1.00 59.53 LIG 0.21  HD
ENDBRANCH 43 44
ENDBRANCH 33 43
ENDBRANCH 30 33
ENDBRANCH 28 29
BRANCH 28 46
ATOM     46  CB  SER B   4     -16.432  -3.810  15.035  1.00 57.64 LIG 0.20  C 
BRANCH 46 47
ATOM     47 OG   SER B   4     -15.720  -2.601  14.809  1.00 57.32 LIG-0.40  OA
ATOM     48 HG   SER B   4     -15.960  -2.026  15.372  1.00 57.32 LIG 0.21  HD
ENDBRANCH 46 47
ENDBRANCH 28 46
ENDBRANCH 1 28
TORSDOF 18
ENDMDL
MODEL 8
USER: ADFR SOLUTION from run 109
USER: SCORE 14.215023 LL:  -2.749 LR: -12.571 RR:   0.000 FEB:  -7.201
USER: RMSD 8.271911
USER: SEED 108
USER: STATUS no improvement in best in 10 clusters for 5 generations
USER: GENES 20
USER: genes 0 Translation |==|  0.63647 0.59419 0.45810
USER: genes 1 Rotation |==|  0.12876 0.22577 0.67191 0.58616
USER: genes 2 Torsion [C]-N--CA-[CB] |==|  0.77333
USER: genes 3 Torsion [N]-CA--CB-[CG2] |==|  0.20863
USER: genes 4 Torsion [CA]-CB--OG1-[HG1] |==|  0.56851
USER: genes 5 Torsion [N]-CA--C-[N] |==|  0.13585
USER: genes 6 Torsion [N]-CA--C-[O] |==|  0.24654
USER: genes 7 Torsion [C]-N--CA-[CB] |==|  0.27543
USER: genes 8 Torsion [N]-CA--C-[O] |==|  0.38390
USER: genes 9 Torsion [N]-CA--CB-[SG] |==|  0.94273
USER: genes 10 Torsion [CA]-CB--SG-[HG] |==|  0.34446
USER: genes 11 Torsion [N]-C--CA-[N] |==|  0.36539
USER: genes 12 Torsion [C]-CA--N-[C] |==|  0.76222
USER: genes 13 Torsion [N]-C--CA-[N] |==|  0.85607
USER: genes 14 Torsion [C]-CA--N-[C] |==|  0.62223
USER: genes 15 Torsion [N]-C--CA-[N] |==|  0.48192
USER: genes 16 Torsion [C]-CA--CB-[OG] |==|  0.71124
USER: genes 17 Torsion [CA]-CB--OG-[HG] |==|  0.58367
USER: genes 18 Torsion [C]-CA--CB-[OG] |==|  0.55254
USER: genes 19 Torsion [CA]-CB--OG-[HG] |==|  0.39885
ROOT
ATOM      1  C   SER B   4     -15.657  -6.438  14.438  1.00 56.97 LIG 0.24  C 
ATOM      2 O    SER B   4     -15.050  -6.391  15.513  1.00 57.23 LIG-0.27  OA
ATOM      3  N   THR B   5     -15.402  -5.606  13.424  1.00 55.89 LIG-0.34  N 
ATOM      4 H    THR B   5     -15.826  -5.617  12.675  1.00 55.89 LIG 0.16  HD
ENDROOT
BRANCH 3 5
ATOM      5  CA  THR B   5     -14.351  -4.578  13.511  1.00 55.10 LIG 0.20  C 
BRANCH 5 6
ATOM      6  CB  THR B   5     -14.852  -3.298  14.272  1.00 55.33 LIG 0.15  C 
ATOM      7  CG2 THR B   5     -14.931  -3.533  15.787  1.00 55.26 LIG 0.04  C 
BRANCH 6 8
ATOM      8 OG1  THR B   5     -13.978  -2.186  14.009  1.00 55.55 LIG-0.39  OA
ATOM      9 HG1  THR B   5     -14.030  -1.634  14.639  1.00 55.55 LIG 0.21  HD
ENDBRANCH 6 8
ENDBRANCH 5 6
BRANCH 5 10
ATOM     10  C   THR B   5     -13.038  -5.082  14.139  1.00 54.13 LIG 0.24  C 
ATOM     11  N   PRO B   6     -12.526  -6.240  13.665  1.00 52.90 LIG-0.34  N 
ATOM     12  CD  PRO B   6     -13.125  -7.145  12.665  1.00 52.89 LIG 0.13  C 
ATOM     13  CA  PRO B   6     -11.231  -6.736  14.149  1.00 51.99 LIG 0.18  C 
ATOM     14  CG  PRO B   6     -12.184  -8.323  12.635  1.00 52.79 LIG 0.02  C 
ATOM     15  CB  PRO B   6     -10.884  -7.855  13.161  1.00 51.93 LIG 0.04  C 
ATOM     16 O    THR B   5     -12.480  -4.423  15.029  1.00 54.19 LIG-0.27  OA
BRANCH 13 17
ATOM     17  C   PRO B   6     -10.174  -5.637  14.105  1.00 51.04 LIG 0.24  C 
ATOM     18 O    PRO B   6     -10.031  -4.892  15.079  1.00 50.92 LIG-0.27  OA
ATOM     19  N   CYS B   7      -9.440  -5.535  12.995  1.00 49.72 LIG-0.34  N 
ATOM     20 H    CYS B   7      -9.587  -5.983  12.277  1.00 49.72 LIG 0.16  HD
BRANCH 19 21
ATOM     21  CA  CYS B   7      -8.286  -4.616  12.924  1.00 48.85 LIG 0.19  C 
BRANCH 21 22
ATOM     22  C   CYS B   7      -8.220  -3.806  11.630  1.00 48.04 LIG 0.20  C 
ATOM     23 OXT  CYS B   7      -8.463  -4.317  10.539  1.00 47.16 LIG-0.65  OA
ATOM     24 O    CYS B   7      -7.921  -2.616  11.660  1.00 47.51 LIG-0.65  OA
ENDBRANCH 21 22
BRANCH 21 25
ATOM     25  CB  CYS B   7      -6.975  -5.379  13.152  1.00 48.98 LIG 0.11  C 
BRANCH 25 26
ATOM     26 SG   CYS B   7      -7.234  -6.951  13.999  1.00 48.50 LIG-0.18  SA
ATOM     27 HG   CYS B   7      -6.775  -7.842  13.340  1.00 48.50 LIG 0.10  HD
ENDBRANCH 25 26
ENDBRANCH 21 25
ENDBRANCH 19 21
ENDBRANCH 13 17
ENDBRANCH 5 10
ENDBRANCH 3 5
BRANCH 1 28
ATOM     28  CA  SER B   4     -16.765  -7.476  14.222  1.00 57.59 LIG 0.20  C 
BRANCH 28 29
ATOM     29  N   SER B   4     -16.351  -8.831  14.606  1.00 58.14 LIG-0.34  N 
ATOM     30  C   SER B   3     -15.699  -9.642  13.772  1.00 58.75 LIG 0.24  C 
ATOM     31 O    SER B   3     -15.260  -9.259  12.685  1.00 58.75 LIG-0.27  OA
ATOM     32 H    SER B   4     -16.567  -9.050  15.410  1.00 58.14 LIG 0.16  HD
BRANCH 30 33
ATOM     33  CA  SER B   3     -15.492 -11.100  14.237  1.00 59.17 LIG 0.20  C 
BRANCH 33 34
ATOM     34  N   SER B   3     -14.893 -11.142  15.580  1.00 59.50 LIG-0.34  N 
ATOM     35  C   PRO B   2     -13.893 -11.949  15.959  1.00 59.86 LIG 0.25  C 
ATOM     36 O    PRO B   2     -13.501 -11.995  17.131  1.00 59.80 LIG-0.27  OA
ATOM     37 H    SER B   3     -15.255 -10.580  16.121  1.00 59.50 LIG 0.16  HD
BRANCH 35 38
ATOM     38  CA  PRO B   2     -13.212 -12.854  14.919  1.00 60.11 LIG 0.35  C 
ATOM     39  CB  PRO B   2     -14.133 -14.008  14.493  1.00 60.16 LIG 0.05  C 
ATOM     40  CG  PRO B   2     -13.260 -15.216  14.420  1.00 60.30 LIG 0.04  C 
ATOM     41  CD  PRO B   2     -12.176 -15.012  15.425  1.00 60.25 LIG 0.32  C 
ATOM     42  N   PRO B   2     -12.046 -13.546  15.490  1.00 60.27 LIG 0.32  N 
ENDBRANCH 35 38
ENDBRANCH 33 34
BRANCH 33 43
ATOM     43  CB  SER B   3     -16.834 -11.842  14.234  1.00 59.26 LIG 0.20  C 
BRANCH 43 44
ATOM     44 OG   SER B   3     -17.334 -11.994  15.552  1.00 59.53 LIG-0.40  OA
ATOM     45 HG   SER B   3     -17.790 -12.697  15.600  1.00 59.53 LIG 0.21  HD
ENDBRANCH 43 44
ENDBRANCH 33 43
ENDBRANCH 30 33
ENDBRANCH 28 29
BRANCH 28 46
ATOM     46  CB  SER B   4     -18.004  -7.093  15.035  1.00 57.64 LIG 0.20  C 
BRANCH 46 47
ATOM     47 OG   SER B   4     -18.862  -8.214  15.206  1.00 57.32 LIG-0.40  OA
ATOM     48 HG   SER B   4     -19.211  -8.186  15.969  1.00 57.32 LIG 0.21  HD
ENDBRANCH 46 47
ENDBRANCH 28 46
ENDBRANCH 1 28
TORSDOF 18
ENDMDL
MODEL 9
USER: ADFR SOLUTION from run 178
USER: SCORE 15.285015 LL:  -3.370 LR: -12.558 RR:   0.000 FEB:  -7.188
USER: RMSD 6.220517
USER: SEED 177
USER: STATUS no improvement in best in 14 clusters for 5 generations
USER: GENES 20
USER: genes 0 Translation |==|  0.62726 0.65936 0.45659
USER: genes 1 Rotation |==|  0.09237 0.28317 0.68630 0.54598
USER: genes 2 Torsion [C]-N--CA-[CB] |==|  0.77778
USER: genes 3 Torsion [N]-CA--CB-[CG2] |==|  0.76401
USER: genes 4 Torsion [CA]-CB--OG1-[HG1] |==|  0.44585
USER: genes 5 Torsion [N]-CA--C-[N] |==|  0.15692
USER: genes 6 Torsion [N]-CA--C-[O] |==|  0.29244
USER: genes 7 Torsion [C]-N--CA-[CB] |==|  0.25612
USER: genes 8 Torsion [N]-CA--C-[O] |==|  0.37438
USER: genes 9 Torsion [N]-CA--CB-[SG] |==|  0.95174
USER: genes 10 Torsion [CA]-CB--SG-[HG] |==|  0.30893
USER: genes 11 Torsion [N]-C--CA-[N] |==|  0.35733
USER: genes 12 Torsion [C]-CA--N-[C] |==|  0.78701
USER: genes 13 Torsion [N]-C--CA-[N] |==|  0.25154
USER: genes 14 Torsion [C]-CA--N-[C] |==|  0.75104
USER: genes 15 Torsion [N]-C--CA-[N] |==|  0.38206
USER: genes 16 Torsion [C]-CA--CB-[OG] |==|  0.58314
USER: genes 17 Torsion [CA]-CB--OG-[HG] |==|  0.21183
USER: genes 18 Torsion [C]-CA--CB-[OG] |==|  0.51072
USER: genes 19 Torsion [CA]-CB--OG-[HG] |==|  0.62562
ROOT
ATOM      1  C   SER B   4     -15.919  -5.461  14.416  1.00 56.97 LIG 0.24  C 
ATOM      2 O    SER B   4     -15.348  -5.246  15.491  1.00 57.23 LIG-0.27  OA
ATOM      3  N   THR B   5     -15.479  -4.975  13.252  1.00 55.89 LIG-0.34  N 
ATOM      4 H    THR B   5     -15.873  -5.104  12.498  1.00 55.89 LIG 0.16  HD
ENDROOT
BRANCH 3 5
ATOM      5  CA  THR B   5     -14.255  -4.160  13.165  1.00 55.10 LIG 0.20  C 
BRANCH 5 6
ATOM      6  CB  THR B   5     -14.519  -2.669  13.585  1.00 55.33 LIG 0.15  C 
ATOM      7  CG2 THR B   5     -15.046  -1.833  12.410  1.00 55.26 LIG 0.04  C 
BRANCH 6 8
ATOM      8 OG1  THR B   5     -15.464  -2.614  14.667  1.00 55.55 LIG-0.39  OA
ATOM      9 HG1  THR B   5     -15.402  -1.873  15.057  1.00 55.55 LIG 0.21  HD
ENDBRANCH 6 8
ENDBRANCH 5 6
BRANCH 5 10
ATOM     10  C   THR B   5     -13.071  -4.729  13.969  1.00 54.13 LIG 0.24  C 
ATOM     11  N   PRO B   6     -12.678  -5.991  13.687  1.00 52.90 LIG-0.34  N 
ATOM     12  CD  PRO B   6     -13.310  -6.943  12.752  1.00 52.89 LIG 0.13  C 
ATOM     13  CA  PRO B   6     -11.498  -6.570  14.345  1.00 51.99 LIG 0.18  C 
ATOM     14  CG  PRO B   6     -12.530  -8.218  12.952  1.00 52.79 LIG 0.02  C 
ATOM     15  CB  PRO B   6     -11.224  -7.842  13.535  1.00 51.93 LIG 0.04  C 
ATOM     16 O    THR B   5     -12.502  -4.030  14.820  1.00 54.19 LIG-0.27  OA
BRANCH 13 17
ATOM     17  C   PRO B   6     -10.308  -5.619  14.266  1.00 51.04 LIG 0.24  C 
ATOM     18 O    PRO B   6      -9.963  -4.994  15.273  1.00 50.92 LIG-0.27  OA
ATOM     19  N   CYS B   7      -9.685  -5.512  13.092  1.00 49.72 LIG-0.34  N 
ATOM     20 H    CYS B   7      -9.966  -5.868  12.361  1.00 49.72 LIG 0.16  HD
BRANCH 19 21
ATOM     21  CA  CYS B   7      -8.427  -4.748  12.961  1.00 48.85 LIG 0.19  C 
BRANCH 21 22
ATOM     22  C   CYS B   7      -8.311  -3.968  11.653  1.00 48.04 LIG 0.20  C 
ATOM     23 OXT  CYS B   7      -8.603  -4.476  10.573  1.00 47.16 LIG-0.65  OA
ATOM     24 O    CYS B   7      -7.921  -2.803  11.660  1.00 47.51 LIG-0.65  OA
ENDBRANCH 21 22
BRANCH 21 25
ATOM     25  CB  CYS B   7      -7.216  -5.671  13.150  1.00 48.98 LIG 0.11  C 
BRANCH 25 26
ATOM     26 SG   CYS B   7      -7.657  -7.228  13.947  1.00 48.50 LIG-0.18  SA
ATOM     27 HG   CYS B   7      -7.546  -8.127  13.160  1.00 48.50 LIG 0.10  HD
ENDBRANCH 25 26
ENDBRANCH 21 25
ENDBRANCH 19 21
ENDBRANCH 13 17
ENDBRANCH 5 10
ENDBRANCH 3 5
BRANCH 1 28
ATOM     28  CA  SER B   4     -17.197  -6.307  14.376  1.00 57.59 LIG 0.20  C 
BRANCH 28 29
ATOM     29  N   SER B   4     -17.039  -7.600  15.056  1.00 58.14 LIG-0.34  N 
ATOM     30  C   SER B   3     -16.386  -8.622  14.503  1.00 58.75 LIG 0.24  C 
ATOM     31 O    SER B   3     -15.736  -8.507  13.461  1.00 58.75 LIG-0.27  OA
ATOM     32 H    SER B   4     -17.403  -7.634  15.835  1.00 58.14 LIG 0.16  HD
BRANCH 30 33
ATOM     33  CA  SER B   3     -16.456  -9.976  15.243  1.00 59.17 LIG 0.20  C 
BRANCH 33 34
ATOM     34  N   SER B   3     -17.598 -10.773  14.770  1.00 59.50 LIG-0.34  N 
ATOM     35  C   PRO B   2     -18.835 -10.738  15.281  1.00 59.86 LIG 0.25  C 
ATOM     36 O    PRO B   2     -19.724 -11.505  14.893  1.00 59.80 LIG-0.27  OA
ATOM     37 H    SER B   3     -17.392 -11.285  14.109  1.00 59.50 LIG 0.16  HD
BRANCH 35 38
ATOM     38  CA  PRO B   2     -19.169  -9.726  16.390  1.00 60.11 LIG 0.35  C 
ATOM     39  CB  PRO B   2     -19.335 -10.420  17.751  1.00 60.16 LIG 0.05  C 
ATOM     40  CG  PRO B   2     -20.515  -9.771  18.393  1.00 60.30 LIG 0.04  C 
ATOM     41  CD  PRO B   2     -21.413  -9.338  17.283  1.00 60.25 LIG 0.32  C 
ATOM     42  N   PRO B   2     -20.481  -9.099  16.167  1.00 60.27 LIG 0.32  N 
ENDBRANCH 35 38
ENDBRANCH 33 34
BRANCH 33 43
ATOM     43  CB  SER B   3     -15.148 -10.750  15.035  1.00 59.26 LIG 0.20  C 
BRANCH 43 44
ATOM     44 OG   SER B   3     -15.376 -12.149  15.065  1.00 59.53 LIG-0.40  OA
ATOM     45 HG   SER B   3     -15.723 -12.392  14.340  1.00 59.53 LIG 0.21  HD
ENDBRANCH 43 44
ENDBRANCH 33 43
ENDBRANCH 30 33
ENDBRANCH 28 29
BRANCH 28 46
ATOM     46  CB  SER B   4     -18.350  -5.546  15.035  1.00 57.64 LIG 0.20  C 
BRANCH 46 47
ATOM     47 OG   SER B   4     -19.521  -6.348  15.088  1.00 57.32 LIG-0.40  OA
ATOM     48 HG   SER B   4     -20.183  -5.894  14.844  1.00 57.32 LIG 0.21  HD
ENDBRANCH 46 47
ENDBRANCH 28 46
ENDBRANCH 1 28
TORSDOF 18
ENDMDL
MODEL 10
USER: ADFR SOLUTION from run 145
USER: SCORE 15.510942 LL:  -3.184 LR: -12.521 RR:   0.000 FEB:  -7.152
USER: RMSD 8.038872
USER: SEED 144
USER: STATUS no improvement in best in 4 clusters for 5 generations
USER: GENES 20
USER: genes 0 Translation |==|  0.68733 0.71354 0.46259
USER: genes 1 Rotation |==|  0.95786 0.57825 0.43567 0.67350
USER: genes 2 Torsion [C]-N--CA-[CB] |==|  0.17222
USER: genes 3 Torsion [N]-CA--CB-[CG2] |==|  0.14078
USER: genes 4 Torsion [CA]-CB--OG1-[HG1] |==|  0.19081
USER: genes 5 Torsion [N]-CA--C-[N] |==|  0.11017
USER: genes 6 Torsion [N]-CA--C-[O] |==|  0.26613
USER: genes 7 Torsion [C]-N--CA-[CB] |==|  0.29463
USER: genes 8 Torsion [N]-CA--C-[O] |==|  0.36304
USER: genes 9 Torsion [N]-CA--CB-[SG] |==|  0.00294
USER: genes 10 Torsion [CA]-CB--SG-[HG] |==|  0.55046
USER: genes 11 Torsion [N]-C--CA-[N] |==|  0.12088
USER: genes 12 Torsion [C]-CA--N-[C] |==|  0.13957
USER: genes 13 Torsion [N]-C--CA-[N] |==|  0.89795
USER: genes 14 Torsion [C]-CA--N-[C] |==|  0.80671
USER: genes 15 Torsion [N]-C--CA-[N] |==|  0.36820
USER: genes 16 Torsion [C]-CA--CB-[OG] |==|  0.66262
USER: genes 17 Torsion [CA]-CB--OG-[HG] |==|  0.65846
USER: genes 18 Torsion [C]-CA--CB-[OG] |==|  0.61235
USER: genes 19 Torsion [CA]-CB--OG-[HG] |==|  0.29615
ROOT
ATOM      1  C   SER B   4     -14.207  -4.648  14.502  1.00 56.97 LIG 0.24  C 
ATOM      2 O    SER B   4     -14.346  -3.691  15.271  1.00 57.23 LIG-0.27  OA
ATOM      3  N   THR B   5     -13.010  -5.097  14.112  1.00 55.89 LIG-0.34  N 
ATOM      4 H    THR B   5     -12.899  -5.753  13.566  1.00 55.89 LIG 0.16  HD
ENDROOT
BRANCH 3 5
ATOM      5  CA  THR B   5     -11.760  -4.491  14.597  1.00 55.10 LIG 0.20  C 
BRANCH 5 6
ATOM      6  CB  THR B   5     -11.613  -4.628  16.155  1.00 55.33 LIG 0.15  C 
ATOM      7  CG2 THR B   5     -11.834  -6.074  16.621  1.00 55.26 LIG 0.04  C 
BRANCH 6 8
ATOM      8 OG1  THR B   5     -10.310  -4.188  16.576  1.00 55.55 LIG-0.39  OA
ATOM      9 HG1  THR B   5     -10.247  -3.357  16.469  1.00 55.55 LIG 0.21  HD
ENDBRANCH 6 8
ENDBRANCH 5 6
BRANCH 5 10
ATOM     10  C   THR B   5     -10.496  -5.031  13.902  1.00 54.13 LIG 0.24  C 
ATOM     11  N   PRO B   6     -10.568  -5.261  12.572  1.00 52.90 LIG-0.34  N 
ATOM     12  CD  PRO B   6     -11.754  -5.143  11.702  1.00 52.89 LIG 0.13  C 
ATOM     13  CA  PRO B   6      -9.378  -5.687  11.822  1.00 51.99 LIG 0.18  C 
ATOM     14  CG  PRO B   6     -11.273  -5.648  10.364  1.00 52.79 LIG 0.02  C 
ATOM     15  CB  PRO B   6      -9.800  -5.526  10.358  1.00 51.93 LIG 0.04  C 
ATOM     16 O    THR B   5      -9.458  -5.218  14.554  1.00 54.19 LIG-0.27  OA
BRANCH 13 17
ATOM     17  C   PRO B   6      -8.185  -4.790  12.137  1.00 51.04 LIG 0.24  C 
ATOM     18 O    PRO B   6      -7.373  -5.140  13.000  1.00 50.92 LIG-0.27  OA
ATOM     19  N   CYS B   7      -8.073  -3.654  11.448  1.00 49.72 LIG-0.34  N 
ATOM     20 H    CYS B   7      -8.674  -3.352  10.912  1.00 49.72 LIG 0.16  HD
BRANCH 19 21
ATOM     21  CA  CYS B   7      -6.868  -2.806  11.563  1.00 48.85 LIG 0.19  C 
BRANCH 21 22
ATOM     22  C   CYS B   7      -7.171  -1.340  11.867  1.00 48.04 LIG 0.20  C 
ATOM     23 OXT  CYS B   7      -8.003  -0.708  11.220  1.00 47.16 LIG-0.65  OA
ATOM     24 O    CYS B   7      -6.582  -0.762  12.777  1.00 47.51 LIG-0.65  OA
ENDBRANCH 21 22
BRANCH 21 25
ATOM     25  CB  CYS B   7      -6.002  -2.929  10.303  1.00 48.98 LIG 0.11  C 
BRANCH 25 26
ATOM     26 SG   CYS B   7      -6.729  -4.033   9.075  1.00 48.50 LIG-0.18  SA
ATOM     27 HG   CYS B   7      -5.885  -4.374   8.293  1.00 48.50 LIG 0.10  HD
ENDBRANCH 25 26
ENDBRANCH 21 25
ENDBRANCH 19 21
ENDBRANCH 13 17
ENDBRANCH 5 10
ENDBRANCH 3 5
BRANCH 1 28
ATOM     28  CA  SER B   4     -15.437  -5.371  13.940  1.00 57.59 LIG 0.20  C 
BRANCH 28 29
ATOM     29  N   SER B   4     -15.287  -6.832  13.953  1.00 58.14 LIG-0.34  N 
ATOM     30  C   SER B   3     -14.904  -7.500  15.041  1.00 58.75 LIG 0.24  C 
ATOM     31 O    SER B   3     -14.804  -6.964  16.148  1.00 58.75 LIG-0.27  OA
ATOM     32 H    SER B   4     -15.468  -7.210  13.202  1.00 58.14 LIG 0.16  HD
BRANCH 30 33
ATOM     33  CA  SER B   3     -14.607  -9.006  14.866  1.00 59.17 LIG 0.20  C 
BRANCH 33 34
ATOM     34  N   SER B   3     -15.539  -9.616  13.905  1.00 59.50 LIG-0.34  N 
ATOM     35  C   PRO B   2     -16.847  -9.818  14.112  1.00 59.86 LIG 0.25  C 
ATOM     36 O    PRO B   2     -17.551 -10.421  13.295  1.00 59.80 LIG-0.27  OA
ATOM     37 H    SER B   3     -15.154  -9.841  13.169  1.00 59.50 LIG 0.16  HD
BRANCH 35 38
ATOM     38  CA  PRO B   2     -17.500  -9.297  15.404  1.00 60.11 LIG 0.35  C 
ATOM     39  CB  PRO B   2     -17.953 -10.453  16.308  1.00 60.16 LIG 0.05  C 
ATOM     40  CG  PRO B   2     -19.290 -10.053  16.836  1.00 60.30 LIG 0.04  C 
ATOM     41  CD  PRO B   2     -19.913  -9.188  15.792  1.00 60.25 LIG 0.32  C 
ATOM     42  N   PRO B   2     -18.752  -8.578  15.121  1.00 60.27 LIG 0.32  N 
ENDBRANCH 35 38
ENDBRANCH 33 34
BRANCH 33 43
ATOM     43  CB  SER B   3     -13.161  -9.198  14.395  1.00 59.26 LIG 0.20  C 
BRANCH 43 44
ATOM     44 OG   SER B   3     -13.117  -9.889  13.157  1.00 59.53 LIG-0.40  OA
ATOM     45 HG   SER B   3     -12.650 -10.582  13.239  1.00 59.53 LIG 0.21  HD
ENDBRANCH 43 44
ENDBRANCH 33 43
ENDBRANCH 30 33
ENDBRANCH 28 29
BRANCH 28 46
ATOM     46  CB  SER B   4     -16.679  -4.999  14.753  1.00 57.64 LIG 0.20  C 
BRANCH 46 47
ATOM     47 OG   SER B   4     -17.506  -6.136  14.962  1.00 57.32 LIG-0.40  OA
ATOM     48 HG   SER B   4     -17.441  -6.387  15.761  1.00 57.32 LIG 0.21  HD
ENDBRANCH 46 47
ENDBRANCH 28 46
ENDBRANCH 1 28
TORSDOF 18
ENDMDL
MODEL 11
USER: ADFR SOLUTION from run 120
USER: SCORE 15.343887 LL:  -3.209 LR: -12.501 RR:   0.000 FEB:  -7.132
USER: RMSD 5.502876
USER: SEED 119
USER: STATUS no improvement in best in 6 clusters for 5 generations
USER: GENES 20
USER: genes 0 Translation |==|  0.63932 0.65047 0.48217
USER: genes 1 Rotation |==|  0.10612 0.28192 0.70405 0.57525
USER: genes 2 Torsion [C]-N--CA-[CB] |==|  0.76311
USER: genes 3 Torsion [N]-CA--CB-[CG2] |==|  0.73540
USER: genes 4 Torsion [CA]-CB--OG1-[HG1] |==|  0.46499
USER: genes 5 Torsion [N]-CA--C-[N] |==|  0.16667
USER: genes 6 Torsion [N]-CA--C-[O] |==|  0.27897
USER: genes 7 Torsion [C]-N--CA-[CB] |==|  0.26760
USER: genes 8 Torsion [N]-CA--C-[O] |==|  0.85189
USER: genes 9 Torsion [N]-CA--CB-[SG] |==|  0.91511
USER: genes 10 Torsion [CA]-CB--SG-[HG] |==|  0.36323
USER: genes 11 Torsion [N]-C--CA-[N] |==|  0.01708
USER: genes 12 Torsion [C]-CA--N-[C] |==|  0.73855
USER: genes 13 Torsion [N]-C--CA-[N] |==|  0.11595
USER: genes 14 Torsion [C]-CA--N-[C] |==|  0.15774
USER: genes 15 Torsion [N]-C--CA-[N] |==|  0.30553
USER: genes 16 Torsion [C]-CA--CB-[OG] |==|  0.60568
USER: genes 17 Torsion [CA]-CB--OG-[HG] |==|  0.78810
USER: genes 18 Torsion [C]-CA--CB-[OG] |==|  0.50561
USER: genes 19 Torsion [CA]-CB--OG-[HG] |==|  0.75059
ROOT
ATOM      1  C   SER B   4     -15.576  -5.594  14.781  1.00 56.97 LIG 0.24  C 
ATOM      2 O    SER B   4     -14.869  -5.460  15.785  1.00 57.23 LIG-0.27  OA
ATOM      3  N   THR B   5     -15.282  -5.027  13.607  1.00 55.89 LIG-0.34  N 
ATOM      4 H    THR B   5     -15.771  -5.100  12.903  1.00 55.89 LIG 0.16  HD
ENDROOT
BRANCH 3 5
ATOM      5  CA  THR B   5     -14.068  -4.214  13.421  1.00 55.10 LIG 0.20  C 
BRANCH 5 6
ATOM      6  CB  THR B   5     -14.298  -2.721  13.853  1.00 55.33 LIG 0.15  C 
ATOM      7  CG2 THR B   5     -14.672  -1.835  12.657  1.00 55.26 LIG 0.04  C 
BRANCH 6 8
ATOM      8 OG1  THR B   5     -15.336  -2.642  14.845  1.00 55.55 LIG-0.39  OA
ATOM      9 HG1  THR B   5     -15.334  -1.877  15.192  1.00 55.55 LIG 0.21  HD
ENDBRANCH 6 8
ENDBRANCH 5 6
BRANCH 5 10
ATOM     10  C   THR B   5     -12.825  -4.780  14.133  1.00 54.13 LIG 0.24  C 
ATOM     11  N   PRO B   6     -12.413  -6.017  13.774  1.00 52.90 LIG-0.34  N 
ATOM     12  CD  PRO B   6     -13.069  -6.947  12.834  1.00 52.89 LIG 0.13  C 
ATOM     13  CA  PRO B   6     -11.182  -6.587  14.340  1.00 51.99 LIG 0.18  C 
ATOM     14  CG  PRO B   6     -12.243  -8.205  12.934  1.00 52.79 LIG 0.02  C 
ATOM     15  CB  PRO B   6     -10.918  -7.814  13.461  1.00 51.93 LIG 0.04  C 
ATOM     16 O    THR B   5     -12.229  -4.101  14.982  1.00 54.19 LIG-0.27  OA
BRANCH 13 17
ATOM     17  C   PRO B   6     -10.026  -5.597  14.239  1.00 51.04 LIG 0.24  C 
ATOM     18 O    PRO B   6      -9.701  -4.939  15.232  1.00 50.92 LIG-0.27  OA
ATOM     19  N   CYS B   7      -9.408  -5.494  13.062  1.00 49.72 LIG-0.34  N 
ATOM     20 H    CYS B   7      -9.677  -5.875  12.340  1.00 49.72 LIG 0.16  HD
BRANCH 19 21
ATOM     21  CA  CYS B   7      -8.178  -4.690  12.912  1.00 48.85 LIG 0.19  C 
BRANCH 21 22
ATOM     22  C   CYS B   7      -8.135  -3.857  11.633  1.00 48.04 LIG 0.20  C 
ATOM     23 OXT  CYS B   7      -7.921  -2.647  11.660  1.00 47.16 LIG-0.65  OA
ATOM     24 O    CYS B   7      -8.315  -4.390  10.541  1.00 47.51 LIG-0.65  OA
ENDBRANCH 21 22
BRANCH 21 25
ATOM     25  CB  CYS B   7      -6.935  -5.584  13.017  1.00 48.98 LIG 0.11  C 
BRANCH 25 26
ATOM     26 SG   CYS B   7      -7.202  -7.007  14.094  1.00 48.50 LIG-0.18  SA
ATOM     27 HG   CYS B   7      -6.842  -8.006  13.535  1.00 48.50 LIG 0.10  HD
ENDBRANCH 25 26
ENDBRANCH 21 25
ENDBRANCH 19 21
ENDBRANCH 13 17
ENDBRANCH 5 10
ENDBRANCH 3 5
BRANCH 1 28
ATOM     28  CA  SER B   4     -16.859  -6.430  14.846  1.00 57.59 LIG 0.20  C 
BRANCH 28 29
ATOM     29  N   SER B   4     -17.497  -6.588  13.532  1.00 58.14 LIG-0.34  N 
ATOM     30  C   SER B   3     -18.465  -5.775  13.107  1.00 58.75 LIG 0.24  C 
ATOM     31 O    SER B   3     -18.780  -4.747  13.710  1.00 58.75 LIG-0.27  OA
ATOM     32 H    SER B   4     -17.191  -7.246  13.070  1.00 58.14 LIG 0.16  HD
BRANCH 30 33
ATOM     33  CA  SER B   3     -19.174  -6.166  11.792  1.00 59.17 LIG 0.20  C 
BRANCH 33 34
ATOM     34  N   SER B   3     -19.434  -7.613  11.746  1.00 59.50 LIG-0.34  N 
ATOM     35  C   PRO B   2     -20.129  -8.307  12.658  1.00 59.86 LIG 0.25  C 
ATOM     36 O    PRO B   2     -20.230  -9.538  12.603  1.00 59.80 LIG-0.27  OA
ATOM     37 H    SER B   3     -19.087  -7.989  11.055  1.00 59.50 LIG 0.16  HD
BRANCH 35 38
ATOM     38  CA  PRO B   2     -20.817  -7.562  13.814  1.00 60.11 LIG 0.35  C 
ATOM     39  CB  PRO B   2     -20.584  -8.274  15.156  1.00 60.16 LIG 0.05  C 
ATOM     40  CG  PRO B   2     -21.893  -8.226  15.871  1.00 60.30 LIG 0.04  C 
ATOM     41  CD  PRO B   2     -22.949  -8.224  14.817  1.00 60.25 LIG 0.32  C 
ATOM     42  N   PRO B   2     -22.281  -7.583  13.671  1.00 60.27 LIG 0.32  N 
ENDBRANCH 35 38
ENDBRANCH 33 34
BRANCH 33 43
ATOM     43  CB  SER B   3     -20.489  -5.388  11.660  1.00 59.26 LIG 0.20  C 
BRANCH 43 44
ATOM     44 OG   SER B   3     -21.505  -6.200  11.095  1.00 59.53 LIG-0.40  OA
ATOM     45 HG   SER B   3     -21.378  -6.273  10.269  1.00 59.53 LIG 0.21  HD
ENDBRANCH 43 44
ENDBRANCH 33 43
ENDBRANCH 30 33
ENDBRANCH 28 29
BRANCH 28 46
ATOM     46  CB  SER B   4     -16.551  -7.819  15.410  1.00 57.64 LIG 0.20  C 
BRANCH 46 47
ATOM     47 OG   SER B   4     -17.721  -8.625  15.435  1.00 57.32 LIG-0.40  OA
ATOM     48 HG   SER B   4     -18.116  -8.522  16.168  1.00 57.32 LIG 0.21  HD
ENDBRANCH 46 47
ENDBRANCH 28 46
ENDBRANCH 1 28
TORSDOF 18
ENDMDL
MODEL 12
USER: ADFR SOLUTION from run 125
USER: SCORE 13.984532 LL:  -2.849 LR: -12.474 RR:   0.000 FEB:  -7.105
USER: RMSD 8.055016
USER: SEED 124
USER: STATUS no improvement in best in 10 clusters for 5 generations
USER: GENES 20
USER: genes 0 Translation |==|  0.73489 0.50186 0.48557
USER: genes 1 Rotation |==|  0.82119 0.74278 0.55069 0.79210
USER: genes 2 Torsion [C]-N--CA-[CB] |==|  0.22182
USER: genes 3 Torsion [N]-CA--CB-[CG2] |==|  0.99340
USER: genes 4 Torsion [CA]-CB--OG1-[HG1] |==|  0.33536
USER: genes 5 Torsion [N]-CA--C-[N] |==|  0.86655
USER: genes 6 Torsion [N]-CA--C-[O] |==|  0.33596
USER: genes 7 Torsion [C]-N--CA-[CB] |==|  0.49133
USER: genes 8 Torsion [N]-CA--C-[O] |==|  0.89817
USER: genes 9 Torsion [N]-CA--CB-[SG] |==|  0.99758
USER: genes 10 Torsion [CA]-CB--SG-[HG] |==|  0.80308
USER: genes 11 Torsion [N]-C--CA-[N] |==|  0.46537
USER: genes 12 Torsion [C]-CA--N-[C] |==|  0.57738
USER: genes 13 Torsion [N]-C--CA-[N] |==|  0.06434
USER: genes 14 Torsion [C]-CA--N-[C] |==|  0.60151
USER: genes 15 Torsion [N]-C--CA-[N] |==|  0.29302
USER: genes 16 Torsion [C]-CA--CB-[OG] |==|  0.43656
USER: genes 17 Torsion [CA]-CB--OG-[HG] |==|  0.48914
USER: genes 18 Torsion [C]-CA--CB-[OG] |==|  0.46464
USER: genes 19 Torsion [CA]-CB--OG-[HG] |==|  0.07942
ROOT
ATOM      1  C   SER B   4     -12.852  -7.823  14.829  1.00 56.97 LIG 0.24  C 
ATOM      2 O    SER B   4     -13.921  -7.242  15.038  1.00 57.23 LIG-0.27  OA
ATOM      3  N   THR B   5     -11.696  -7.175  14.656  1.00 55.89 LIG-0.34  N 
ATOM      4 H    THR B   5     -10.946  -7.565  14.496  1.00 55.89 LIG 0.16  HD
ENDROOT
BRANCH 3 5
ATOM      5  CA  THR B   5     -11.613  -5.706  14.727  1.00 55.10 LIG 0.20  C 
BRANCH 5 6
ATOM      6  CB  THR B   5     -11.576  -5.198  16.213  1.00 55.33 LIG 0.15  C 
ATOM      7  CG2 THR B   5     -11.693  -6.356  17.213  1.00 55.26 LIG 0.04  C 
BRANCH 6 8
ATOM      8 OG1  THR B   5     -10.357  -4.476  16.463  1.00 55.55 LIG-0.39  OA
ATOM      9 HG1  THR B   5     -10.539  -3.692  16.704  1.00 55.55 LIG 0.21  HD
ENDBRANCH 6 8
ENDBRANCH 5 6
BRANCH 5 10
ATOM     10  C   THR B   5     -10.432  -5.111  13.939  1.00 54.13 LIG 0.24  C 
ATOM     11  N   PRO B   6      -9.216  -5.672  14.123  1.00 52.90 LIG-0.34  N 
ATOM     12  CD  PRO B   6      -8.855  -6.746  15.069  1.00 52.89 LIG 0.13  C 
ATOM     13  CA  PRO B   6      -8.059  -5.221  13.337  1.00 51.99 LIG 0.18  C 
ATOM     14  CG  PRO B   6      -7.357  -6.863  14.928  1.00 52.79 LIG 0.02  C 
ATOM     15  CB  PRO B   6      -6.999  -6.293  13.613  1.00 51.93 LIG 0.04  C 
ATOM     16 O    THR B   5     -10.617  -4.168  13.155  1.00 54.19 LIG-0.27  OA
BRANCH 13 17
ATOM     17  C   PRO B   6      -8.395  -5.170  11.850  1.00 51.04 LIG 0.24  C 
ATOM     18 O    PRO B   6      -8.294  -4.101  11.241  1.00 50.92 LIG-0.27  OA
ATOM     19  N   CYS B   7      -8.784  -6.306  11.270  1.00 49.72 LIG-0.34  N 
ATOM     20 H    CYS B   7      -8.947  -7.035  11.696  1.00 49.72 LIG 0.16  HD
BRANCH 19 21
ATOM     21  CA  CYS B   7      -8.969  -6.392   9.807  1.00 48.85 LIG 0.19  C 
BRANCH 21 22
ATOM     22  C   CYS B   7      -9.980  -5.391   9.251  1.00 48.04 LIG 0.20  C 
ATOM     23 OXT  CYS B   7      -9.817  -4.851   8.159  1.00 47.16 LIG-0.65  OA
ATOM     24 O    CYS B   7     -10.987  -5.107   9.895  1.00 47.51 LIG-0.65  OA
ENDBRANCH 21 22
BRANCH 21 25
ATOM     25  CB  CYS B   7      -9.342  -7.823   9.395  1.00 48.98 LIG 0.11  C 
BRANCH 25 26
ATOM     26 SG   CYS B   7      -9.414  -8.946  10.805  1.00 48.50 LIG-0.18  SA
ATOM     27 HG   CYS B   7      -8.303  -9.149  11.212  1.00 48.50 LIG 0.10  HD
ENDBRANCH 25 26
ENDBRANCH 21 25
ENDBRANCH 19 21
ENDBRANCH 13 17
ENDBRANCH 5 10
ENDBRANCH 3 5
BRANCH 1 28
ATOM     28  CA  SER B   4     -12.808  -9.354  14.748  1.00 57.59 LIG 0.20  C 
BRANCH 28 29
ATOM     29  N   SER B   4     -14.044  -9.981  15.234  1.00 58.14 LIG-0.34  N 
ATOM     30  C   SER B   3     -14.063 -11.205  15.761  1.00 58.75 LIG 0.24  C 
ATOM     31 O    SER B   3     -13.032 -11.830  16.023  1.00 58.75 LIG-0.27  OA
ATOM     32 H    SER B   4     -14.744  -9.489  15.147  1.00 58.14 LIG 0.16  HD
BRANCH 30 33
ATOM     33  CA  SER B   3     -15.451 -11.814  16.058  1.00 59.17 LIG 0.20  C 
BRANCH 33 34
ATOM     34  N   SER B   3     -16.488 -11.187  15.225  1.00 59.50 LIG-0.34  N 
ATOM     35  C   PRO B   2     -17.742 -10.920  15.615  1.00 59.86 LIG 0.25  C 
ATOM     36 O    PRO B   2     -18.588 -10.475  14.831  1.00 59.80 LIG-0.27  OA
ATOM     37 H    SER B   3     -16.207 -10.998  14.434  1.00 59.50 LIG 0.16  HD
BRANCH 35 38
ATOM     38  CA  PRO B   2     -18.153 -11.179  17.074  1.00 60.11 LIG 0.35  C 
ATOM     39  CB  PRO B   2     -19.566 -11.780  17.159  1.00 60.16 LIG 0.05  C 
ATOM     40  CG  PRO B   2     -20.229 -11.090  18.303  1.00 60.30 LIG 0.04  C 
ATOM     41  CD  PRO B   2     -19.627  -9.726  18.378  1.00 60.25 LIG 0.32  C 
ATOM     42  N   PRO B   2     -18.274  -9.923  17.829  1.00 60.27 LIG 0.32  N 
ENDBRANCH 35 38
ENDBRANCH 33 34
BRANCH 33 43
ATOM     43  CB  SER B   3     -15.418 -13.327  15.810  1.00 59.26 LIG 0.20  C 
BRANCH 43 44
ATOM     44 OG   SER B   3     -16.444 -13.984  16.537  1.00 59.53 LIG-0.40  OA
ATOM     45 HG   SER B   3     -16.442 -14.801  16.346  1.00 59.53 LIG 0.21  HD
ENDBRANCH 43 44
ENDBRANCH 33 43
ENDBRANCH 30 33
ENDBRANCH 28 29
BRANCH 28 46
ATOM     46  CB  SER B   4     -12.572  -9.793  13.301  1.00 57.64 LIG 0.20  C 
BRANCH 46 47
ATOM     47 OG   SER B   4     -12.238 -11.173  13.240  1.00 57.32 LIG-0.40  OA
ATOM     48 HG   SER B   4     -12.592 -11.576  13.886  1.00 57.32 LIG 0.21  HD
ENDBRANCH 46 47
ENDBRANCH 28 46
ENDBRANCH 1 28
TORSDOF 18
ENDMDL
MODEL 13
USER: ADFR SOLUTION from run 51
USER: SCORE 12.923029 LL:  -2.619 LR: -12.456 RR:   0.000 FEB:  -7.087
USER: RMSD 5.382606
USER: SEED 50
USER: STATUS no improvement in best in 13 clusters for 5 generations
USER: GENES 20
USER: genes 0 Translation |==|  0.62171 0.59004 0.46958
USER: genes 1 Rotation |==|  0.73597 0.56822 0.51173 0.93535
USER: genes 2 Torsion [C]-N--CA-[CB] |==|  0.29307
USER: genes 3 Torsion [N]-CA--CB-[CG2] |==|  0.70692
USER: genes 4 Torsion [CA]-CB--OG1-[HG1] |==|  0.45347
USER: genes 5 Torsion [N]-CA--C-[N] |==|  0.26111
USER: genes 6 Torsion [N]-CA--C-[O] |==|  0.01337
USER: genes 7 Torsion [C]-N--CA-[CB] |==|  0.34482
USER: genes 8 Torsion [N]-CA--C-[O] |==|  0.15820
USER: genes 9 Torsion [N]-CA--CB-[SG] |==|  0.87674
USER: genes 10 Torsion [CA]-CB--SG-[HG] |==|  0.23499
USER: genes 11 Torsion [N]-C--CA-[N] |==|  0.53032
USER: genes 12 Torsion [C]-CA--N-[C] |==|  0.81078
USER: genes 13 Torsion [N]-C--CA-[N] |==|  0.37120
USER: genes 14 Torsion [C]-CA--N-[C] |==|  0.75541
USER: genes 15 Torsion [N]-C--CA-[N] |==|  0.19021
USER: genes 16 Torsion [C]-CA--CB-[OG] |==|  0.60955
USER: genes 17 Torsion [CA]-CB--OG-[HG] |==|  0.25081
USER: genes 18 Torsion [C]-CA--CB-[OG] |==|  0.57919
USER: genes 19 Torsion [CA]-CB--OG-[HG] |==|  0.37253
ROOT
ATOM      1  C   SER B   4     -16.077  -6.500  14.602  1.00 56.97 LIG 0.24  C 
ATOM      2 O    SER B   4     -16.605  -5.719  13.804  1.00 57.23 LIG-0.27  OA
ATOM      3  N   THR B   5     -14.817  -6.364  15.025  1.00 55.89 LIG-0.34  N 
ATOM      4 H    THR B   5     -14.432  -6.908  15.568  1.00 55.89 LIG 0.16  HD
ENDROOT
BRANCH 3 5
ATOM      5  CA  THR B   5     -13.968  -5.245  14.583  1.00 55.10 LIG 0.20  C 
BRANCH 5 6
ATOM      6  CB  THR B   5     -13.789  -4.170  15.715  1.00 55.33 LIG 0.15  C 
ATOM      7  CG2 THR B   5     -14.618  -2.908  15.437  1.00 55.26 LIG 0.04  C 
BRANCH 6 8
ATOM      8 OG1  THR B   5     -14.170  -4.717  16.989  1.00 55.55 LIG-0.39  OA
ATOM      9 HG1  THR B   5     -13.864  -4.235  17.604  1.00 55.55 LIG 0.21  HD
ENDBRANCH 6 8
ENDBRANCH 5 6
BRANCH 5 10
ATOM     10  C   THR B   5     -12.590  -5.680  14.051  1.00 54.13 LIG 0.24  C 
ATOM     11  N   PRO B   6     -12.470  -5.867  12.717  1.00 52.90 LIG-0.34  N 
ATOM     12  CD  PRO B   6     -13.535  -5.792  11.698  1.00 52.89 LIG 0.13  C 
ATOM     13  CA  PRO B   6     -11.165  -6.192  12.124  1.00 51.99 LIG 0.18  C 
ATOM     14  CG  PRO B   6     -12.848  -6.219  10.425  1.00 52.79 LIG 0.02  C 
ATOM     15  CB  PRO B   6     -11.398  -6.007  10.621  1.00 51.93 LIG 0.04  C 
ATOM     16 O    THR B   5     -11.638  -5.826  14.831  1.00 54.19 LIG-0.27  OA
BRANCH 13 17
ATOM     17  C   PRO B   6     -10.086  -5.235  12.621  1.00 51.04 LIG 0.24  C 
ATOM     18 O    PRO B   6     -10.367  -4.398  13.484  1.00 50.92 LIG-0.27  OA
ATOM     19  N   CYS B   7      -8.868  -5.356  12.091  1.00 49.72 LIG-0.34  N 
ATOM     20 H    CYS B   7      -8.678  -5.868  11.428  1.00 49.72 LIG 0.16  HD
BRANCH 19 21
ATOM     21  CA  CYS B   7      -7.723  -4.590  12.626  1.00 48.85 LIG 0.19  C 
BRANCH 21 22
ATOM     22  C   CYS B   7      -7.214  -3.501  11.684  1.00 48.04 LIG 0.20  C 
ATOM     23 OXT  CYS B   7      -6.046  -3.474  11.302  1.00 47.16 LIG-0.65  OA
ATOM     24 O    CYS B   7      -7.975  -2.623  11.285  1.00 47.51 LIG-0.65  OA
ENDBRANCH 21 22
BRANCH 21 25
ATOM     25  CB  CYS B   7      -6.583  -5.536  13.025  1.00 48.98 LIG 0.11  C 
BRANCH 25 26
ATOM     26 SG   CYS B   7      -7.174  -6.978  13.933  1.00 48.50 LIG-0.18  SA
ATOM     27 HG   CYS B   7      -7.530  -7.822  13.158  1.00 48.50 LIG 0.10  HD
ENDBRANCH 25 26
ENDBRANCH 21 25
ENDBRANCH 19 21
ENDBRANCH 13 17
ENDBRANCH 5 10
ENDBRANCH 3 5
BRANCH 1 28
ATOM     28  CA  SER B   4     -16.865  -7.699  15.144  1.00 57.59 LIG 0.20  C 
BRANCH 28 29
ATOM     29  N   SER B   4     -18.134  -7.907  14.435  1.00 58.14 LIG-0.34  N 
ATOM     30  C   SER B   3     -19.152  -7.051  14.527  1.00 58.75 LIG 0.24  C 
ATOM     31 O    SER B   3     -19.047  -5.953  15.079  1.00 58.75 LIG-0.27  OA
ATOM     32 H    SER B   4     -18.158  -8.625  13.961  1.00 58.14 LIG 0.16  HD
BRANCH 30 33
ATOM     33  CA  SER B   3     -20.488  -7.485  13.884  1.00 59.17 LIG 0.20  C 
BRANCH 33 34
ATOM     34  N   SER B   3     -21.614  -7.236  14.796  1.00 59.50 LIG-0.34  N 
ATOM     35  C   PRO B   2     -22.065  -8.090  15.725  1.00 59.86 LIG 0.25  C 
ATOM     36 O    PRO B   2     -23.077  -7.851  16.394  1.00 59.80 LIG-0.27  OA
ATOM     37 H    SER B   3     -21.972  -6.463  14.675  1.00 59.50 LIG 0.16  HD
BRANCH 35 38
ATOM     38  CA  PRO B   2     -21.317  -9.411  15.967  1.00 60.11 LIG 0.35  C 
ATOM     39  CB  PRO B   2     -22.036 -10.280  17.012  1.00 60.16 LIG 0.05  C 
ATOM     40  CG  PRO B   2     -20.961 -10.846  17.876  1.00 60.30 LIG 0.04  C 
ATOM     41  CD  PRO B   2     -19.853  -9.846  17.879  1.00 60.25 LIG 0.32  C 
ATOM     42  N   PRO B   2     -19.997  -9.178  16.574  1.00 60.27 LIG 0.32  N 
ENDBRANCH 35 38
ENDBRANCH 33 34
BRANCH 33 43
ATOM     43  CB  SER B   3     -20.698  -6.730  12.565  1.00 59.26 LIG 0.20  C 
BRANCH 43 44
ATOM     44 OG   SER B   3     -22.057  -6.354  12.407  1.00 59.53 LIG-0.40  OA
ATOM     45 HG   SER B   3     -22.176  -5.593  12.741  1.00 59.53 LIG 0.21  HD
ENDBRANCH 43 44
ENDBRANCH 33 43
ENDBRANCH 30 33
ENDBRANCH 28 29
BRANCH 28 46
ATOM     46  CB  SER B   4     -16.025  -8.973  15.029  1.00 57.64 LIG 0.20  C 
BRANCH 46 47
ATOM     47 OG   SER B   4     -16.857 -10.116  14.884  1.00 57.32 LIG-0.40  OA
ATOM     48 HG   SER B   4     -16.560 -10.602  14.268  1.00 57.32 LIG 0.21  HD
ENDBRANCH 46 47
ENDBRANCH 28 46
ENDBRANCH 1 28
TORSDOF 18
ENDMDL
MODEL 14
USER: ADFR SOLUTION from run 162
USER: SCORE 14.423917 LL:  -2.841 LR: -12.266 RR:   0.000 FEB:  -6.897
USER: RMSD 5.495675
USER: SEED 161
USER: STATUS no improvement in best in 6 clusters for 5 generations
USER: GENES 20
USER: genes 0 Translation |==|  0.63246 0.65312 0.47903
USER: genes 1 Rotation |==|  0.10307 0.28496 0.70438 0.56659
USER: genes 2 Torsion [C]-N--CA-[CB] |==|  0.76718
USER: genes 3 Torsion [N]-CA--CB-[CG2] |==|  0.74380
USER: genes 4 Torsion [CA]-CB--OG1-[HG1] |==|  0.44990
USER: genes 5 Torsion [N]-CA--C-[N] |==|  0.17273
USER: genes 6 Torsion [N]-CA--C-[O] |==|  0.26989
USER: genes 7 Torsion [C]-N--CA-[CB] |==|  0.26203
USER: genes 8 Torsion [N]-CA--C-[O] |==|  0.35911
USER: genes 9 Torsion [N]-CA--CB-[SG] |==|  0.95604
USER: genes 10 Torsion [CA]-CB--SG-[HG] |==|  0.28785
USER: genes 11 Torsion [N]-C--CA-[N] |==|  0.98869
USER: genes 12 Torsion [C]-CA--N-[C] |==|  0.76202
USER: genes 13 Torsion [N]-C--CA-[N] |==|  0.51490
USER: genes 14 Torsion [C]-CA--N-[C] |==|  0.62778
USER: genes 15 Torsion [N]-C--CA-[N] |==|  0.26830
USER: genes 16 Torsion [C]-CA--CB-[OG] |==|  0.73325
USER: genes 17 Torsion [CA]-CB--OG-[HG] |==|  0.27097
USER: genes 18 Torsion [C]-CA--CB-[OG] |==|  0.48072
USER: genes 19 Torsion [CA]-CB--OG-[HG] |==|  0.80360
ROOT
ATOM      1  C   SER B   4     -15.771  -5.554  14.736  1.00 56.97 LIG 0.24  C 
ATOM      2 O    SER B   4     -15.082  -5.386  15.747  1.00 57.23 LIG-0.27  OA
ATOM      3  N   THR B   5     -15.456  -5.029  13.548  1.00 55.89 LIG-0.34  N 
ATOM      4 H    THR B   5     -15.934  -5.126  12.839  1.00 55.89 LIG 0.16  HD
ENDROOT
BRANCH 3 5
ATOM      5  CA  THR B   5     -14.239  -4.223  13.356  1.00 55.10 LIG 0.20  C 
BRANCH 5 6
ATOM      6  CB  THR B   5     -14.464  -2.723  13.766  1.00 55.33 LIG 0.15  C 
ATOM      7  CG2 THR B   5     -14.904  -1.867  12.571  1.00 55.26 LIG 0.04  C 
BRANCH 6 8
ATOM      8 OG1  THR B   5     -15.455  -2.633  14.805  1.00 55.55 LIG-0.39  OA
ATOM      9 HG1  THR B   5     -15.396  -1.886  15.185  1.00 55.55 LIG 0.21  HD
ENDBRANCH 6 8
ENDBRANCH 5 6
BRANCH 5 10
ATOM     10  C   THR B   5     -13.000  -4.784  14.079  1.00 54.13 LIG 0.24  C 
ATOM     11  N   PRO B   6     -12.565  -6.009  13.707  1.00 52.90 LIG-0.34  N 
ATOM     12  CD  PRO B   6     -13.192  -6.931  12.740  1.00 52.89 LIG 0.13  C 
ATOM     13  CA  PRO B   6     -11.336  -6.571  14.284  1.00 51.99 LIG 0.18  C 
ATOM     14  CG  PRO B   6     -12.350  -8.179  12.832  1.00 52.79 LIG 0.02  C 
ATOM     15  CB  PRO B   6     -11.040  -7.779  13.389  1.00 51.93 LIG 0.04  C 
ATOM     16 O    THR B   5     -12.429  -4.111  14.949  1.00 54.19 LIG-0.27  OA
BRANCH 13 17
ATOM     17  C   PRO B   6     -10.192  -5.564  14.220  1.00 51.04 LIG 0.24  C 
ATOM     18 O    PRO B   6      -9.933  -4.875  15.211  1.00 50.92 LIG-0.27  OA
ATOM     19  N   CYS B   7      -9.513  -5.480  13.075  1.00 49.72 LIG-0.34  N 
ATOM     20 H    CYS B   7      -9.736  -5.884  12.350  1.00 49.72 LIG 0.16  HD
BRANCH 19 21
ATOM     21  CA  CYS B   7      -8.289  -4.658  12.971  1.00 48.85 LIG 0.19  C 
BRANCH 21 22
ATOM     22  C   CYS B   7      -8.167  -3.895  11.654  1.00 48.04 LIG 0.20  C 
ATOM     23 OXT  CYS B   7      -8.301  -4.458  10.570  1.00 47.16 LIG-0.65  OA
ATOM     24 O    CYS B   7      -7.932  -2.689  11.657  1.00 47.51 LIG-0.65  OA
ENDBRANCH 21 22
BRANCH 21 25
ATOM     25  CB  CYS B   7      -7.042  -5.518  13.216  1.00 48.98 LIG 0.11  C 
BRANCH 25 26
ATOM     26 SG   CYS B   7      -7.440  -7.101  13.986  1.00 48.50 LIG-0.18  SA
ATOM     27 HG   CYS B   7      -7.388  -7.972  13.162  1.00 48.50 LIG 0.10  HD
ENDBRANCH 25 26
ENDBRANCH 21 25
ENDBRANCH 19 21
ENDBRANCH 13 17
ENDBRANCH 5 10
ENDBRANCH 3 5
BRANCH 1 28
ATOM     28  CA  SER B   4     -17.056  -6.387  14.808  1.00 57.59 LIG 0.20  C 
BRANCH 28 29
ATOM     29  N   SER B   4     -17.798  -6.391  13.540  1.00 58.14 LIG-0.34  N 
ATOM     30  C   SER B   3     -18.669  -5.434  13.221  1.00 58.75 LIG 0.24  C 
ATOM     31 O    SER B   3     -18.796  -4.403  13.887  1.00 58.75 LIG-0.27  OA
ATOM     32 H    SER B   4     -17.619  -7.060  13.031  1.00 58.14 LIG 0.16  HD
BRANCH 30 33
ATOM     33  CA  SER B   3     -19.515  -5.658  11.948  1.00 59.17 LIG 0.20  C 
BRANCH 33 34
ATOM     34  N   SER B   3     -20.335  -4.474  11.648  1.00 59.50 LIG-0.34  N 
ATOM     35  C   PRO B   2     -21.633  -4.492  11.317  1.00 59.86 LIG 0.25  C 
ATOM     36 O    PRO B   2     -22.237  -3.465  10.988  1.00 59.80 LIG-0.27  OA
ATOM     37 H    SER B   3     -19.889  -3.741  11.705  1.00 59.50 LIG 0.16  HD
BRANCH 35 38
ATOM     38  CA  PRO B   2     -22.402  -5.824  11.336  1.00 60.11 LIG 0.35  C 
ATOM     39  CB  PRO B   2     -23.515  -5.844  10.276  1.00 60.16 LIG 0.05  C 
ATOM     40  CG  PRO B   2     -24.691  -6.479  10.937  1.00 60.30 LIG 0.04  C 
ATOM     41  CD  PRO B   2     -24.586  -6.150  12.389  1.00 60.25 LIG 0.32  C 
ATOM     42  N   PRO B   2     -23.135  -6.003  12.599  1.00 60.27 LIG 0.32  N 
ENDBRANCH 35 38
ENDBRANCH 33 34
BRANCH 33 43
ATOM     43  CB  SER B   3     -18.595  -5.977  10.763  1.00 59.26 LIG 0.20  C 
BRANCH 43 44
ATOM     44 OG   SER B   3     -18.317  -4.810  10.006  1.00 59.53 LIG-0.40  OA
ATOM     45 HG   SER B   3     -17.576  -4.494  10.241  1.00 59.53 LIG 0.21  HD
ENDBRANCH 43 44
ENDBRANCH 33 43
ENDBRANCH 30 33
ENDBRANCH 28 29
BRANCH 28 46
ATOM     46  CB  SER B   4     -16.722  -7.833  15.183  1.00 57.64 LIG 0.20  C 
BRANCH 46 47
ATOM     47 OG   SER B   4     -17.908  -8.583  15.411  1.00 57.32 LIG-0.40  OA
ATOM     48 HG   SER B   4     -18.268  -8.327  16.125  1.00 57.32 LIG 0.21  HD
ENDBRANCH 46 47
ENDBRANCH 28 46
ENDBRANCH 1 28
TORSDOF 18
ENDMDL
MODEL 15
USER: ADFR SOLUTION from run 42
USER: SCORE 12.960391 LL:  -2.510 LR: -12.218 RR:   0.000 FEB:  -6.849
USER: RMSD 7.415003
USER: SEED 41
USER: STATUS no improvement in best in 9 clusters for 5 generations
USER: GENES 20
USER: genes 0 Translation |==|  0.73287 0.74497 0.38460
USER: genes 1 Rotation |==|  0.59170 0.23889 0.37376 0.89683
USER: genes 2 Torsion [C]-N--CA-[CB] |==|  0.56141
USER: genes 3 Torsion [N]-CA--CB-[CG2] |==|  0.98079
USER: genes 4 Torsion [CA]-CB--OG1-[HG1] |==|  0.62654
USER: genes 5 Torsion [N]-CA--C-[N] |==|  0.85186
USER: genes 6 Torsion [N]-CA--C-[O] |==|  0.82054
USER: genes 7 Torsion [C]-N--CA-[CB] |==|  0.83120
USER: genes 8 Torsion [N]-CA--C-[O] |==|  0.92668
USER: genes 9 Torsion [N]-CA--CB-[SG] |==|  0.50621
USER: genes 10 Torsion [CA]-CB--SG-[HG] |==|  0.20878
USER: genes 11 Torsion [N]-C--CA-[N] |==|  0.84014
USER: genes 12 Torsion [C]-CA--N-[C] |==|  0.18958
USER: genes 13 Torsion [N]-C--CA-[N] |==|  0.98802
USER: genes 14 Torsion [C]-CA--N-[C] |==|  0.65556
USER: genes 15 Torsion [N]-C--CA-[N] |==|  0.46618
USER: genes 16 Torsion [C]-CA--CB-[OG] |==|  0.47173
USER: genes 17 Torsion [CA]-CB--OG-[HG] |==|  0.74295
USER: genes 18 Torsion [C]-CA--CB-[OG] |==|  0.24874
USER: genes 19 Torsion [CA]-CB--OG-[HG] |==|  0.62497
ROOT
ATOM      1  C   SER B   4     -12.909  -4.176  13.391  1.00 56.97 LIG 0.24  C 
ATOM      2 O    SER B   4     -11.939  -4.244  12.629  1.00 57.23 LIG-0.27  OA
ATOM      3  N   THR B   5     -12.824  -4.434  14.699  1.00 55.89 LIG-0.34  N 
ATOM      4 H    THR B   5     -13.493  -4.404  15.239  1.00 55.89 LIG 0.16  HD
ENDROOT
BRANCH 3 5
ATOM      5  CA  THR B   5     -11.546  -4.796  15.335  1.00 55.10 LIG 0.20  C 
BRANCH 5 6
ATOM      6  CB  THR B   5     -11.768  -5.570  16.684  1.00 55.33 LIG 0.15  C 
ATOM      7  CG2 THR B   5     -13.250  -5.603  17.083  1.00 55.26 LIG 0.04  C 
BRANCH 6 8
ATOM      8 OG1  THR B   5     -11.276  -6.918  16.575  1.00 55.55 LIG-0.39  OA
ATOM      9 HG1  THR B   5     -11.841  -7.450  16.895  1.00 55.55 LIG 0.21  HD
ENDBRANCH 6 8
ENDBRANCH 5 6
BRANCH 5 10
ATOM     10  C   THR B   5     -10.601  -5.598  14.421  1.00 54.13 LIG 0.24  C 
ATOM     11  N   PRO B   6     -11.096  -6.714  13.841  1.00 52.90 LIG-0.34  N 
ATOM     12  CD  PRO B   6     -12.424  -7.323  14.049  1.00 52.89 LIG 0.13  C 
ATOM     13  CA  PRO B   6     -10.286  -7.480  12.883  1.00 51.99 LIG 0.18  C 
ATOM     14  CG  PRO B   6     -12.363  -8.605  13.257  1.00 52.79 LIG 0.02  C 
ATOM     15  CB  PRO B   6     -11.296  -8.441  12.247  1.00 51.93 LIG 0.04  C 
ATOM     16 O    THR B   5      -9.443  -5.203  14.222  1.00 54.19 LIG-0.27  OA
BRANCH 13 17
ATOM     17  C   PRO B   6      -9.679  -6.563  11.826  1.00 51.04 LIG 0.24  C 
ATOM     18 O    PRO B   6     -10.423  -5.962  11.044  1.00 50.92 LIG-0.27  OA
ATOM     19  N   CYS B   7      -8.350  -6.449  11.801  1.00 49.72 LIG-0.34  N 
ATOM     20 H    CYS B   7      -7.816  -6.927  12.275  1.00 49.72 LIG 0.16  HD
BRANCH 19 21
ATOM     21  CA  CYS B   7      -7.684  -5.462  10.928  1.00 48.85 LIG 0.19  C 
BRANCH 21 22
ATOM     22  C   CYS B   7      -7.998  -4.010  11.285  1.00 48.04 LIG 0.20  C 
ATOM     23 OXT  CYS B   7      -7.217  -3.099  11.019  1.00 47.16 LIG-0.65  OA
ATOM     24 O    CYS B   7      -9.050  -3.726  11.851  1.00 47.51 LIG-0.65  OA
ENDBRANCH 21 22
BRANCH 21 25
ATOM     25  CB  CYS B   7      -8.011  -5.739   9.455  1.00 48.98 LIG 0.11  C 
BRANCH 25 26
ATOM     26 SG   CYS B   7      -7.170  -4.599   8.338  1.00 48.50 LIG-0.18  SA
ATOM     27 HG   CYS B   7      -6.010  -4.900   8.258  1.00 48.50 LIG 0.10  HD
ENDBRANCH 25 26
ENDBRANCH 21 25
ENDBRANCH 19 21
ENDBRANCH 13 17
ENDBRANCH 5 10
ENDBRANCH 3 5
BRANCH 1 28
ATOM     28  CA  SER B   4     -14.291  -3.795  12.848  1.00 57.59 LIG 0.20  C 
BRANCH 28 29
ATOM     29  N   SER B   4     -15.306  -4.823  13.114  1.00 58.14 LIG-0.34  N 
ATOM     30  C   SER B   3     -15.741  -5.094  14.345  1.00 58.75 LIG 0.24  C 
ATOM     31 O    SER B   3     -15.445  -4.399  15.320  1.00 58.75 LIG-0.27  OA
ATOM     32 H    SER B   4     -15.589  -5.227  12.409  1.00 58.14 LIG 0.16  HD
BRANCH 30 33
ATOM     33  CA  SER B   3     -16.666  -6.320  14.502  1.00 59.17 LIG 0.20  C 
BRANCH 33 34
ATOM     34  N   SER B   3     -16.977  -6.914  13.193  1.00 59.50 LIG-0.34  N 
ATOM     35  C   PRO B   2     -18.208  -7.116  12.703  1.00 59.86 LIG 0.25  C 
ATOM     36 O    PRO B   2     -18.396  -7.706  11.633  1.00 59.80 LIG-0.27  OA
ATOM     37 H    SER B   3     -16.270  -7.130  12.752  1.00 59.50 LIG 0.16  HD
BRANCH 35 38
ATOM     38  CA  PRO B   2     -19.429  -6.611  13.490  1.00 60.11 LIG 0.35  C 
ATOM     39  CB  PRO B   2     -19.754  -7.536  14.673  1.00 60.16 LIG 0.05  C 
ATOM     40  CG  PRO B   2     -21.240  -7.664  14.689  1.00 60.30 LIG 0.04  C 
ATOM     41  CD  PRO B   2     -21.690  -7.520  13.274  1.00 60.25 LIG 0.32  C 
ATOM     42  N   PRO B   2     -20.652  -6.663  12.675  1.00 60.27 LIG 0.32  N 
ENDBRANCH 35 38
ENDBRANCH 33 34
BRANCH 33 43
ATOM     43  CB  SER B   3     -16.000  -7.361  15.410  1.00 59.26 LIG 0.20  C 
BRANCH 43 44
ATOM     44 OG   SER B   3     -16.913  -8.388  15.761  1.00 59.53 LIG-0.40  OA
ATOM     45 HG   SER B   3     -17.289  -8.192  16.486  1.00 59.53 LIG 0.21  HD
ENDBRANCH 43 44
ENDBRANCH 33 43
ENDBRANCH 30 33
ENDBRANCH 28 29
BRANCH 28 46
ATOM     46  CB  SER B   4     -14.754  -2.477  13.474  1.00 57.64 LIG 0.20  C 
BRANCH 46 47
ATOM     47 OG   SER B   4     -14.322  -1.369  12.697  1.00 57.32 LIG-0.40  OA
ATOM     48 HG   SER B   4     -14.010  -0.776  13.203  1.00 57.32 LIG 0.21  HD
ENDBRANCH 46 47
ENDBRANCH 28 46
ENDBRANCH 1 28
TORSDOF 18
ENDMDL
MODEL 16
USER: ADFR SOLUTION from run 180
USER: SCORE 15.039527 LL:  -3.274 LR: -12.206 RR:   0.000 FEB:  -6.836
USER: RMSD 5.567884
USER: SEED 179
USER: STATUS no improvement in best in 4 clusters for 5 generations
USER: GENES 20
USER: genes 0 Translation |==|  0.63611 0.47833 0.42804
USER: genes 1 Rotation |==|  0.64736 0.36931 0.40253 0.94911
USER: genes 2 Torsion [C]-N--CA-[CB] |==|  0.77309
USER: genes 3 Torsion [N]-CA--CB-[CG2] |==|  0.87175
USER: genes 4 Torsion [CA]-CB--OG1-[HG1] |==|  0.13467
USER: genes 5 Torsion [N]-CA--C-[N] |==|  0.17093
USER: genes 6 Torsion [N]-CA--C-[O] |==|  0.80729
USER: genes 7 Torsion [C]-N--CA-[CB] |==|  0.21190
USER: genes 8 Torsion [N]-CA--C-[O] |==|  0.25666
USER: genes 9 Torsion [N]-CA--CB-[SG] |==|  0.63968
USER: genes 10 Torsion [CA]-CB--SG-[HG] |==|  0.65045
USER: genes 11 Torsion [N]-C--CA-[N] |==|  0.01379
USER: genes 12 Torsion [C]-CA--N-[C] |==|  0.73341
USER: genes 13 Torsion [N]-C--CA-[N] |==|  0.14444
USER: genes 14 Torsion [C]-CA--N-[C] |==|  0.14050
USER: genes 15 Torsion [N]-C--CA-[N] |==|  0.36863
USER: genes 16 Torsion [C]-CA--CB-[OG] |==|  0.33326
USER: genes 17 Torsion [CA]-CB--OG-[HG] |==|  0.10393
USER: genes 18 Torsion [C]-CA--CB-[OG] |==|  0.71640
USER: genes 19 Torsion [CA]-CB--OG-[HG] |==|  0.85374
ROOT
ATOM      1  C   SER B   4     -15.667  -8.176  14.010  1.00 56.97 LIG 0.24  C 
ATOM      2 O    SER B   4     -15.187  -7.772  12.946  1.00 57.23 LIG-0.27  OA
ATOM      3  N   THR B   5     -14.915  -8.536  15.054  1.00 55.89 LIG-0.34  N 
ATOM      4 H    THR B   5     -15.235  -8.833  15.796  1.00 55.89 LIG 0.16  HD
ENDROOT
BRANCH 3 5
ATOM      5  CA  THR B   5     -13.446  -8.451  15.017  1.00 55.10 LIG 0.20  C 
BRANCH 5 6
ATOM      6  CB  THR B   5     -12.811  -9.693  14.293  1.00 55.33 LIG 0.15  C 
ATOM      7  CG2 THR B   5     -13.431 -11.011  14.776  1.00 55.26 LIG 0.04  C 
BRANCH 6 8
ATOM      8 OG1  THR B   5     -12.981  -9.582  12.869  1.00 55.55 LIG-0.39  OA
ATOM      9 HG1  THR B   5     -12.746  -8.816  12.617  1.00 55.55 LIG 0.21  HD
ENDBRANCH 6 8
ENDBRANCH 5 6
BRANCH 5 10
ATOM     10  C   THR B   5     -12.913  -7.150  14.389  1.00 54.13 LIG 0.24  C 
ATOM     11  N   PRO B   6     -13.237  -5.988  14.999  1.00 52.90 LIG-0.34  N 
ATOM     12  CD  PRO B   6     -14.128  -5.799  16.160  1.00 52.89 LIG 0.13  C 
ATOM     13  CA  PRO B   6     -12.690  -4.713  14.514  1.00 51.99 LIG 0.18  C 
ATOM     14  CG  PRO B   6     -14.218  -4.301  16.307  1.00 52.79 LIG 0.02  C 
ATOM     15  CB  PRO B   6     -13.034  -3.726  15.635  1.00 51.93 LIG 0.04  C 
ATOM     16 O    THR B   5     -12.199  -7.193  13.377  1.00 54.19 LIG-0.27  OA
BRANCH 13 17
ATOM     17  C   PRO B   6     -11.180  -4.804  14.324  1.00 51.04 LIG 0.24  C 
ATOM     18 O    PRO B   6     -10.448  -4.898  15.314  1.00 50.92 LIG-0.27  OA
ATOM     19  N   CYS B   7     -10.716  -4.781  13.074  1.00 49.72 LIG-0.34  N 
ATOM     20 H    CYS B   7     -11.201  -4.625  12.381  1.00 49.72 LIG 0.16  HD
BRANCH 19 21
ATOM     21  CA  CYS B   7      -9.289  -5.031  12.783  1.00 48.85 LIG 0.19  C 
BRANCH 21 22
ATOM     22  C   CYS B   7      -8.826  -4.476  11.438  1.00 48.04 LIG 0.20  C 
ATOM     23 OXT  CYS B   7      -8.926  -5.131  10.403  1.00 47.16 LIG-0.65  OA
ATOM     24 O    CYS B   7      -8.342  -3.349  11.367  1.00 47.51 LIG-0.65  OA
ENDBRANCH 21 22
BRANCH 21 25
ATOM     25  CB  CYS B   7      -8.974  -6.530  12.888  1.00 48.98 LIG 0.11  C 
BRANCH 25 26
ATOM     26 SG   CYS B   7      -7.537  -6.857  13.928  1.00 48.50 LIG-0.18  SA
ATOM     27 HG   CYS B   7      -6.741  -7.516  13.316  1.00 48.50 LIG 0.10  HD
ENDBRANCH 25 26
ENDBRANCH 21 25
ENDBRANCH 19 21
ENDBRANCH 13 17
ENDBRANCH 5 10
ENDBRANCH 3 5
BRANCH 1 28
ATOM     28  CA  SER B   4     -17.187  -8.295  14.175  1.00 57.59 LIG 0.20  C 
BRANCH 28 29
ATOM     29  N   SER B   4     -17.578  -8.690  15.534  1.00 58.14 LIG-0.34  N 
ATOM     30  C   SER B   3     -17.828  -9.957  15.865  1.00 58.75 LIG 0.24  C 
ATOM     31 O    SER B   3     -17.597 -10.899  15.102  1.00 58.75 LIG-0.27  OA
ATOM     32 H    SER B   4     -17.629  -8.035  16.089  1.00 58.14 LIG 0.16  HD
BRANCH 30 33
ATOM     33  CA  SER B   3     -18.409 -10.208  17.274  1.00 59.17 LIG 0.20  C 
BRANCH 33 34
ATOM     34  N   SER B   3     -19.592  -9.366  17.511  1.00 59.50 LIG-0.34  N 
ATOM     35  C   PRO B   2     -20.645  -9.257  16.690  1.00 59.86 LIG 0.25  C 
ATOM     36 O    PRO B   2     -21.563  -8.459  16.910  1.00 59.80 LIG-0.27  OA
ATOM     37 H    SER B   3     -19.545  -8.933  18.253  1.00 59.50 LIG 0.16  HD
BRANCH 35 38
ATOM     38  CA  PRO B   2     -20.720 -10.138  15.432  1.00 60.11 LIG 0.35  C 
ATOM     39  CB  PRO B   2     -20.595  -9.298  14.151  1.00 60.16 LIG 0.05  C 
ATOM     40  CG  PRO B   2     -21.600  -9.856  13.201  1.00 60.30 LIG 0.04  C 
ATOM     41  CD  PRO B   2     -22.713 -10.396  14.036  1.00 60.25 LIG 0.32  C 
ATOM     42  N   PRO B   2     -22.043 -10.767  15.295  1.00 60.27 LIG 0.32  N 
ENDBRANCH 35 38
ENDBRANCH 33 34
BRANCH 33 43
ATOM     43  CB  SER B   3     -18.774 -11.689  17.429  1.00 59.26 LIG 0.20  C 
BRANCH 43 44
ATOM     44 OG   SER B   3     -18.049 -12.282  18.493  1.00 59.53 LIG-0.40  OA
ATOM     45 HG   SER B   3     -17.973 -11.731  19.122  1.00 59.53 LIG 0.21  HD
ENDBRANCH 43 44
ENDBRANCH 33 43
ENDBRANCH 30 33
ENDBRANCH 28 29
BRANCH 28 46
ATOM     46  CB  SER B   4     -17.855  -6.959  13.843  1.00 57.64 LIG 0.20  C 
BRANCH 46 47
ATOM     47 OG   SER B   4     -18.218  -6.266  15.029  1.00 57.32 LIG-0.40  OA
ATOM     48 HG   SER B   4     -18.674  -6.772  15.520  1.00 57.32 LIG 0.21  HD
ENDBRANCH 46 47
ENDBRANCH 28 46
ENDBRANCH 1 28
TORSDOF 18
ENDMDL
MODEL 17
USER: ADFR SOLUTION from run 154
USER: SCORE 13.504952 LL:  -3.020 LR: -12.187 RR:   0.000 FEB:  -6.817
USER: RMSD 10.991585
USER: SEED 153
USER: STATUS no improvement in best in 7 clusters for 5 generations
USER: GENES 20
USER: genes 0 Translation |==|  0.84791 0.63194 0.42507
USER: genes 1 Rotation |==|  0.74375 0.27178 0.85893 0.59832
USER: genes 2 Torsion [C]-N--CA-[CB] |==|  0.90626
USER: genes 3 Torsion [N]-CA--CB-[CG2] |==|  0.52641
USER: genes 4 Torsion [CA]-CB--OG1-[HG1] |==|  0.50828
USER: genes 5 Torsion [N]-CA--C-[N] |==|  0.23710
USER: genes 6 Torsion [N]-CA--C-[O] |==|  0.87111
USER: genes 7 Torsion [C]-N--CA-[CB] |==|  0.84170
USER: genes 8 Torsion [N]-CA--C-[O] |==|  0.72011
USER: genes 9 Torsion [N]-CA--CB-[SG] |==|  0.79774
USER: genes 10 Torsion [CA]-CB--SG-[HG] |==|  0.62718
USER: genes 11 Torsion [N]-C--CA-[N] |==|  0.13888
USER: genes 12 Torsion [C]-CA--N-[C] |==|  0.13618
USER: genes 13 Torsion [N]-C--CA-[N] |==|  0.43928
USER: genes 14 Torsion [C]-CA--N-[C] |==|  0.61897
USER: genes 15 Torsion [N]-C--CA-[N] |==|  0.39965
USER: genes 16 Torsion [C]-CA--CB-[OG] |==|  0.40376
USER: genes 17 Torsion [CA]-CB--OG-[HG] |==|  0.73415
USER: genes 18 Torsion [C]-CA--CB-[OG] |==|  0.40341
USER: genes 19 Torsion [CA]-CB--OG-[HG] |==|  0.11537
ROOT
ATOM      1  C   SER B   4      -9.631  -5.872  13.967  1.00 56.97 LIG 0.24  C 
ATOM      2 O    SER B   4      -9.958  -4.695  13.788  1.00 57.23 LIG-0.27  OA
ATOM      3  N   THR B   5     -10.307  -6.698  14.771  1.00 55.89 LIG-0.34  N 
ATOM      4 H    THR B   5     -10.082  -7.516  14.917  1.00 55.89 LIG 0.16  HD
ENDROOT
BRANCH 3 5
ATOM      5  CA  THR B   5     -11.517  -6.263  15.488  1.00 55.10 LIG 0.20  C 
BRANCH 5 6
ATOM      6  CB  THR B   5     -11.433  -4.750  15.905  1.00 55.33 LIG 0.15  C 
ATOM      7  CG2 THR B   5     -12.578  -4.357  16.848  1.00 55.26 LIG 0.04  C 
BRANCH 6 8
ATOM      8 OG1  THR B   5     -10.175  -4.478  16.546  1.00 55.55 LIG-0.39  OA
ATOM      9 HG1  THR B   5     -10.157  -3.677  16.800  1.00 55.55 LIG 0.21  HD
ENDBRANCH 6 8
ENDBRANCH 5 6
BRANCH 5 10
ATOM     10  C   THR B   5     -12.824  -6.523  14.716  1.00 54.13 LIG 0.24  C 
ATOM     11  N   PRO B   6     -13.387  -7.745  14.841  1.00 52.90 LIG-0.34  N 
ATOM     12  CD  PRO B   6     -12.849  -8.914  15.565  1.00 52.89 LIG 0.13  C 
ATOM     13  CA  PRO B   6     -14.682  -8.039  14.211  1.00 51.99 LIG 0.18  C 
ATOM     14  CG  PRO B   6     -13.828 -10.017  15.248  1.00 52.79 LIG 0.02  C 
ATOM     15  CB  PRO B   6     -15.095  -9.372  14.844  1.00 51.93 LIG 0.04  C 
ATOM     16 O    THR B   5     -13.333  -5.623  14.032  1.00 54.19 LIG-0.27  OA
BRANCH 13 17
ATOM     17  C   PRO B   6     -15.704  -6.953  14.534  1.00 51.04 LIG 0.24  C 
ATOM     18 O    PRO B   6     -15.821  -6.556  15.697  1.00 50.92 LIG-0.27  OA
ATOM     19  N   CYS B   7     -16.432  -6.475  13.524  1.00 49.72 LIG-0.34  N 
ATOM     20 H    CYS B   7     -16.428  -6.802  12.729  1.00 49.72 LIG 0.16  HD
BRANCH 19 21
ATOM     21  CA  CYS B   7     -17.323  -5.312  13.707  1.00 48.85 LIG 0.19  C 
BRANCH 21 22
ATOM     22  C   CYS B   7     -16.583  -3.999  13.959  1.00 48.04 LIG 0.20  C 
ATOM     23 OXT  CYS B   7     -16.077  -3.360  13.039  1.00 47.16 LIG-0.65  OA
ATOM     24 O    CYS B   7     -16.482  -3.555  15.099  1.00 47.51 LIG-0.65  OA
ENDBRANCH 21 22
BRANCH 21 25
ATOM     25  CB  CYS B   7     -18.338  -5.583  14.827  1.00 48.98 LIG 0.11  C 
BRANCH 25 26
ATOM     26 SG   CYS B   7     -19.610  -6.761  14.328  1.00 48.50 LIG-0.18  SA
ATOM     27 HG   CYS B   7     -20.688  -6.351  14.660  1.00 48.50 LIG 0.10  HD
ENDBRANCH 25 26
ENDBRANCH 21 25
ENDBRANCH 19 21
ENDBRANCH 13 17
ENDBRANCH 5 10
ENDBRANCH 3 5
BRANCH 1 28
ATOM     28  CA  SER B   4      -8.394  -6.445  13.264  1.00 57.59 LIG 0.20  C 
BRANCH 28 29
ATOM     29  N   SER B   4      -8.669  -7.721  12.590  1.00 58.14 LIG-0.34  N 
ATOM     30  C   SER B   3      -9.714  -7.888  11.778  1.00 58.75 LIG 0.24  C 
ATOM     31 O    SER B   3     -10.427  -6.949  11.413  1.00 58.75 LIG-0.27  OA
ATOM     32 H    SER B   4      -8.100  -8.341  12.766  1.00 58.14 LIG 0.16  HD
BRANCH 30 33
ATOM     33  CA  SER B   3      -9.990  -9.325  11.286  1.00 59.17 LIG 0.20  C 
BRANCH 33 34
ATOM     34  N   SER B   3     -11.390  -9.474  10.860  1.00 59.50 LIG-0.34  N 
ATOM     35  C   PRO B   2     -12.181 -10.519  11.139  1.00 59.86 LIG 0.25  C 
ATOM     36 O    PRO B   2     -13.320 -10.619  10.670  1.00 59.80 LIG-0.27  OA
ATOM     37 H    SER B   3     -11.667  -8.804  10.397  1.00 59.50 LIG 0.16  HD
BRANCH 35 38
ATOM     38  CA  PRO B   2     -11.664 -11.636  12.061  1.00 60.11 LIG 0.35  C 
ATOM     39  CB  PRO B   2     -11.211 -12.863  11.255  1.00 60.16 LIG 0.05  C 
ATOM     40  CG  PRO B   2     -11.710 -14.049  12.010  1.00 60.30 LIG 0.04  C 
ATOM     41  CD  PRO B   2     -12.955 -13.611  12.706  1.00 60.25 LIG 0.32  C 
ATOM     42  N   PRO B   2     -12.738 -12.169  12.914  1.00 60.27 LIG 0.32  N 
ENDBRANCH 35 38
ENDBRANCH 33 34
BRANCH 33 43
ATOM     43  CB  SER B   3      -9.046  -9.668  10.127  1.00 59.26 LIG 0.20  C 
BRANCH 43 44
ATOM     44 OG   SER B   3      -8.676 -11.037  10.161  1.00 59.53 LIG-0.40  OA
ATOM     45 HG   SER B   3      -7.940 -11.118  10.555  1.00 59.53 LIG 0.21  HD
ENDBRANCH 43 44
ENDBRANCH 33 43
ENDBRANCH 30 33
ENDBRANCH 28 29
BRANCH 28 46
ATOM     46  CB  SER B   4      -7.872  -5.447  12.228  1.00 57.64 LIG 0.20  C 
BRANCH 46 47
ATOM     47 OG   SER B   4      -6.454  -5.496  12.149  1.00 57.32 LIG-0.40  OA
ATOM     48 HG   SER B   4      -6.200  -6.296  12.177  1.00 57.32 LIG 0.21  HD
ENDBRANCH 46 47
ENDBRANCH 28 46
ENDBRANCH 1 28
TORSDOF 18
ENDMDL
MODEL 18
USER: ADFR SOLUTION from run 141
USER: SCORE 14.040111 LL:  -3.059 LR: -12.151 RR:   0.000 FEB:  -6.782
USER: RMSD 12.071851
USER: SEED 140
USER: STATUS searching
USER: GENES 20
USER: genes 0 Translation |==|  0.60318 0.72822 0.43168
USER: genes 1 Rotation |==|  0.23904 0.81110 0.30361 0.71575
USER: genes 2 Torsion [C]-N--CA-[CB] |==|  0.85545
USER: genes 3 Torsion [N]-CA--CB-[CG2] |==|  0.54057
USER: genes 4 Torsion [CA]-CB--OG1-[HG1] |==|  0.44411
USER: genes 5 Torsion [N]-CA--C-[N] |==|  0.35047
USER: genes 6 Torsion [N]-CA--C-[O] |==|  0.95329
USER: genes 7 Torsion [C]-N--CA-[CB] |==|  0.23009
USER: genes 8 Torsion [N]-CA--C-[O] |==|  0.50384
USER: genes 9 Torsion [N]-CA--CB-[SG] |==|  0.02634
USER: genes 10 Torsion [CA]-CB--SG-[HG] |==|  0.77513
USER: genes 11 Torsion [N]-C--CA-[N] |==|  0.88094
USER: genes 12 Torsion [C]-CA--N-[C] |==|  0.82193
USER: genes 13 Torsion [N]-C--CA-[N] |==|  0.02230
USER: genes 14 Torsion [C]-CA--N-[C] |==|  0.53162
USER: genes 15 Torsion [N]-C--CA-[N] |==|  0.32897
USER: genes 16 Torsion [C]-CA--CB-[OG] |==|  0.63796
USER: genes 17 Torsion [CA]-CB--OG-[HG] |==|  0.28328
USER: genes 18 Torsion [C]-CA--CB-[OG] |==|  0.50862
USER: genes 19 Torsion [CA]-CB--OG-[HG] |==|  0.87282
ROOT
ATOM      1  C   SER B   4     -16.605  -4.428  14.062  1.00 56.97 LIG 0.24  C 
ATOM      2 O    SER B   4     -17.627  -4.222  14.723  1.00 57.23 LIG-0.27  OA
ATOM      3  N   THR B   5     -16.455  -5.496  13.273  1.00 55.89 LIG-0.34  N 
ATOM      4 H    THR B   5     -15.744  -5.660  12.818  1.00 55.89 LIG 0.16  HD
ENDROOT
BRANCH 3 5
ATOM      5  CA  THR B   5     -17.520  -6.501  13.119  1.00 55.10 LIG 0.20  C 
BRANCH 5 6
ATOM      6  CB  THR B   5     -18.029  -7.026  14.510  1.00 55.33 LIG 0.15  C 
ATOM      7  CG2 THR B   5     -18.862  -8.306  14.364  1.00 55.26 LIG 0.04  C 
BRANCH 6 8
ATOM      8 OG1  THR B   5     -16.917  -7.281  15.386  1.00 55.55 LIG-0.39  OA
ATOM      9 HG1  THR B   5     -17.183  -7.290  16.182  1.00 55.55 LIG 0.21  HD
ENDBRANCH 6 8
ENDBRANCH 5 6
BRANCH 5 10
ATOM     10  C   THR B   5     -18.713  -6.019  12.272  1.00 54.13 LIG 0.24  C 
ATOM     11  N   PRO B   6     -19.080  -6.787  11.222  1.00 52.90 LIG-0.34  N 
ATOM     12  CD  PRO B   6     -18.412  -8.005  10.721  1.00 52.89 LIG 0.13  C 
ATOM     13  CA  PRO B   6     -20.264  -6.443  10.423  1.00 51.99 LIG 0.18  C 
ATOM     14  CG  PRO B   6     -19.177  -8.346   9.466  1.00 52.79 LIG 0.02  C 
ATOM     15  CB  PRO B   6     -20.500  -7.696   9.573  1.00 51.93 LIG 0.04  C 
ATOM     16 O    THR B   5     -19.311  -4.976  12.574  1.00 54.19 LIG-0.27  OA
BRANCH 13 17
ATOM     17  C   PRO B   6     -21.467  -6.170  11.321  1.00 51.04 LIG 0.24  C 
ATOM     18 O    PRO B   6     -21.447  -6.550  12.496  1.00 50.92 LIG-0.27  OA
ATOM     19  N   CYS B   7     -22.499  -5.518  10.783  1.00 49.72 LIG-0.34  N 
ATOM     20 H    CYS B   7     -22.568  -5.328   9.948  1.00 49.72 LIG 0.16  HD
BRANCH 19 21
ATOM     21  CA  CYS B   7     -23.632  -5.063  11.614  1.00 48.85 LIG 0.19  C 
BRANCH 21 22
ATOM     22  C   CYS B   7     -24.956  -4.970  10.857  1.00 48.04 LIG 0.20  C 
ATOM     23 OXT  CYS B   7     -25.041  -5.281   9.671  1.00 47.16 LIG-0.65  OA
ATOM     24 O    CYS B   7     -25.969  -4.580  11.430  1.00 47.51 LIG-0.65  OA
ENDBRANCH 21 22
BRANCH 21 25
ATOM     25  CB  CYS B   7     -23.301  -3.726  12.291  1.00 48.98 LIG 0.11  C 
BRANCH 25 26
ATOM     26 SG   CYS B   7     -21.776  -2.998  11.660  1.00 48.50 LIG-0.18  SA
ATOM     27 HG   CYS B   7     -20.834  -3.515  12.194  1.00 48.50 LIG 0.10  HD
ENDBRANCH 25 26
ENDBRANCH 21 25
ENDBRANCH 19 21
ENDBRANCH 13 17
ENDBRANCH 5 10
ENDBRANCH 3 5
BRANCH 1 28
ATOM     28  CA  SER B   4     -15.431  -3.444  14.128  1.00 57.59 LIG 0.20  C 
BRANCH 28 29
ATOM     29  N   SER B   4     -14.132  -4.122  14.225  1.00 58.14 LIG-0.34  N 
ATOM     30  C   SER B   3     -13.796  -4.874  15.274  1.00 58.75 LIG 0.24  C 
ATOM     31 O    SER B   3     -14.604  -5.182  16.154  1.00 58.75 LIG-0.27  OA
ATOM     32 H    SER B   4     -13.615  -3.989  13.550  1.00 58.14 LIG 0.16  HD
BRANCH 30 33
ATOM     33  CA  SER B   3     -12.336  -5.373  15.334  1.00 59.17 LIG 0.20  C 
BRANCH 33 34
ATOM     34  N   SER B   3     -11.523  -4.747  14.280  1.00 59.50 LIG-0.34  N 
ATOM     35  C   PRO B   2     -10.286  -5.121  13.927  1.00 59.86 LIG 0.25  C 
ATOM     36 O    PRO B   2      -9.626  -4.489  13.094  1.00 59.80 LIG-0.27  OA
ATOM     37 H    SER B   3     -11.929  -4.093  13.895  1.00 59.50 LIG 0.16  HD
BRANCH 35 38
ATOM     38  CA  PRO B   2      -9.656  -6.364  14.576  1.00 60.11 LIG 0.35  C 
ATOM     39  CB  PRO B   2      -8.279  -6.044  15.180  1.00 60.16 LIG 0.05  C 
ATOM     40  CG  PRO B   2      -7.406  -7.201  14.829  1.00 60.30 LIG 0.04  C 
ATOM     41  CD  PRO B   2      -7.921  -7.742  13.537  1.00 60.25 LIG 0.32  C 
ATOM     42  N   PRO B   2      -9.353  -7.398  13.574  1.00 60.27 LIG 0.32  N 
ENDBRANCH 35 38
ENDBRANCH 33 34
BRANCH 33 43
ATOM     43  CB  SER B   3     -11.739  -5.067  16.713  1.00 59.26 LIG 0.20  C 
BRANCH 43 44
ATOM     44 OG   SER B   3     -10.480  -4.425  16.591  1.00 59.53 LIG-0.40  OA
ATOM     45 HG   SER B   3     -10.571  -3.602  16.730  1.00 59.53 LIG 0.21  HD
ENDBRANCH 43 44
ENDBRANCH 33 43
ENDBRANCH 30 33
ENDBRANCH 28 29
BRANCH 28 46
ATOM     46  CB  SER B   4     -15.425  -2.552  12.885  1.00 57.64 LIG 0.20  C 
BRANCH 46 47
ATOM     47 OG   SER B   4     -14.303  -1.680  12.893  1.00 57.32 LIG-0.40  OA
ATOM     48 HG   SER B   4     -14.222  -1.334  13.654  1.00 57.32 LIG 0.21  HD
ENDBRANCH 46 47
ENDBRANCH 28 46
ENDBRANCH 1 28
TORSDOF 18
ENDMDL
MODEL 19
USER: ADFR SOLUTION from run 22
USER: SCORE 14.788551 LL:  -3.420 LR: -12.122 RR:   0.000 FEB:  -6.752
USER: RMSD 8.474413
USER: SEED 21
USER: STATUS no improvement in best in 6 clusters for 5 generations
USER: GENES 20
USER: genes 0 Translation |==|  0.67146 0.46487 0.39530
USER: genes 1 Rotation |==|  0.76124 0.48350 0.35710 0.90132
USER: genes 2 Torsion [C]-N--CA-[CB] |==|  0.78332
USER: genes 3 Torsion [N]-CA--CB-[CG2] |==|  0.52237
USER: genes 4 Torsion [CA]-CB--OG1-[HG1] |==|  0.19201
USER: genes 5 Torsion [N]-CA--C-[N] |==|  0.14504
USER: genes 6 Torsion [N]-CA--C-[O] |==|  0.73395
USER: genes 7 Torsion [C]-N--CA-[CB] |==|  0.20440
USER: genes 8 Torsion [N]-CA--C-[O] |==|  0.30167
USER: genes 9 Torsion [N]-CA--CB-[SG] |==|  0.81857
USER: genes 10 Torsion [CA]-CB--SG-[HG] |==|  0.24155
USER: genes 11 Torsion [N]-C--CA-[N] |==|  0.02625
USER: genes 12 Torsion [C]-CA--N-[C] |==|  0.68392
USER: genes 13 Torsion [N]-C--CA-[N] |==|  0.87865
USER: genes 14 Torsion [C]-CA--N-[C] |==|  0.76552
USER: genes 15 Torsion [N]-C--CA-[N] |==|  0.23700
USER: genes 16 Torsion [C]-CA--CB-[OG] |==|  0.59107
USER: genes 17 Torsion [CA]-CB--OG-[HG] |==|  0.46780
USER: genes 18 Torsion [C]-CA--CB-[OG] |==|  0.77076
USER: genes 19 Torsion [CA]-CB--OG-[HG] |==|  0.70746
ROOT
ATOM      1  C   SER B   4     -14.659  -8.378  13.543  1.00 56.97 LIG 0.24  C 
ATOM      2 O    SER B   4     -14.528  -7.384  12.822  1.00 57.23 LIG-0.27  OA
ATOM      3  N   THR B   5     -13.630  -9.143  13.919  1.00 55.89 LIG-0.34  N 
ATOM      4 H    THR B   5     -13.708  -9.845  14.409  1.00 55.89 LIG 0.16  HD
ENDROOT
BRANCH 3 5
ATOM      5  CA  THR B   5     -12.248  -8.835  13.514  1.00 55.10 LIG 0.20  C 
BRANCH 5 6
ATOM      6  CB  THR B   5     -11.968  -9.270  12.030  1.00 55.33 LIG 0.15  C 
ATOM      7  CG2 THR B   5     -10.482  -9.135  11.670  1.00 55.26 LIG 0.04  C 
BRANCH 6 8
ATOM      8 OG1  THR B   5     -12.385 -10.631  11.821  1.00 55.55 LIG-0.39  OA
ATOM      9 HG1  THR B   5     -13.223 -10.675  11.852  1.00 55.55 LIG 0.21  HD
ENDBRANCH 6 8
ENDBRANCH 5 6
BRANCH 5 10
ATOM     10  C   THR B   5     -11.855  -7.359  13.710  1.00 54.13 LIG 0.24  C 
ATOM     11  N   PRO B   6     -12.068  -6.817  14.931  1.00 52.90 LIG-0.34  N 
ATOM     12  CD  PRO B   6     -12.723  -7.447  16.093  1.00 52.89 LIG 0.13  C 
ATOM     13  CA  PRO B   6     -11.634  -5.444  15.223  1.00 51.99 LIG 0.18  C 
ATOM     14  CG  PRO B   6     -12.796  -6.337  17.112  1.00 52.79 LIG 0.02  C 
ATOM     15  CB  PRO B   6     -11.766  -5.343  16.746  1.00 51.93 LIG 0.04  C 
ATOM     16 O    THR B   5     -11.346  -6.720  12.778  1.00 54.19 LIG-0.27  OA
BRANCH 13 17
ATOM     17  C   PRO B   6     -10.186  -5.226  14.795  1.00 51.04 LIG 0.24  C 
ATOM     18 O    PRO B   6      -9.282  -5.348  15.627  1.00 50.92 LIG-0.27  OA
ATOM     19  N   CYS B   7      -9.964  -4.914  13.517  1.00 49.72 LIG-0.34  N 
ATOM     20 H    CYS B   7     -10.584  -4.737  12.948  1.00 49.72 LIG 0.16  HD
BRANCH 19 21
ATOM     21  CA  CYS B   7      -8.592  -4.849  12.973  1.00 48.85 LIG 0.19  C 
BRANCH 21 22
ATOM     22  C   CYS B   7      -8.480  -4.059  11.671  1.00 48.04 LIG 0.20  C 
ATOM     23 OXT  CYS B   7      -8.929  -4.495  10.613  1.00 47.16 LIG-0.65  OA
ATOM     24 O    CYS B   7      -7.933  -2.959  11.660  1.00 47.51 LIG-0.65  OA
ENDBRANCH 21 22
BRANCH 21 25
ATOM     25  CB  CYS B   7      -8.015  -6.261  12.801  1.00 48.98 LIG 0.11  C 
BRANCH 25 26
ATOM     26 SG   CYS B   7      -7.794  -7.109  14.378  1.00 48.50 LIG-0.18  SA
ATOM     27 HG   CYS B   7      -8.812  -7.668  14.679  1.00 48.50 LIG 0.10  HD
ENDBRANCH 25 26
ENDBRANCH 21 25
ENDBRANCH 19 21
ENDBRANCH 13 17
ENDBRANCH 5 10
ENDBRANCH 3 5
BRANCH 1 28
ATOM     28  CA  SER B   4     -16.049  -8.792  14.041  1.00 57.59 LIG 0.20  C 
BRANCH 28 29
ATOM     29  N   SER B   4     -15.993  -9.859  15.048  1.00 58.14 LIG-0.34  N 
ATOM     30  C   SER B   3     -16.477 -11.081  14.820  1.00 58.75 LIG 0.24  C 
ATOM     31 O    SER B   3     -16.856 -11.446  13.704  1.00 58.75 LIG-0.27  OA
ATOM     32 H    SER B   4     -15.624  -9.625  15.789  1.00 58.14 LIG 0.16  HD
BRANCH 30 33
ATOM     33  CA  SER B   3     -16.523 -12.048  16.024  1.00 59.17 LIG 0.20  C 
BRANCH 33 34
ATOM     34  N   SER B   3     -15.277 -11.976  16.802  1.00 59.50 LIG-0.34  N 
ATOM     35  C   PRO B   2     -14.151 -12.651  16.531  1.00 59.86 LIG 0.25  C 
ATOM     36 O    PRO B   2     -13.171 -12.613  17.284  1.00 59.80 LIG-0.27  OA
ATOM     37 H    SER B   3     -15.337 -11.441  17.473  1.00 59.50 LIG 0.16  HD
BRANCH 35 38
ATOM     38  CA  PRO B   2     -14.069 -13.508  15.257  1.00 60.11 LIG 0.35  C 
ATOM     39  CB  PRO B   2     -12.954 -14.561  15.361  1.00 60.16 LIG 0.05  C 
ATOM     40  CG  PRO B   2     -12.284 -14.572  14.028  1.00 60.30 LIG 0.04  C 
ATOM     41  CD  PRO B   2     -12.421 -13.192  13.477  1.00 60.25 LIG 0.32  C 
ATOM     42  N   PRO B   2     -13.667 -12.703  14.094  1.00 60.27 LIG 0.32  N 
ENDBRANCH 35 38
ENDBRANCH 33 34
BRANCH 33 43
ATOM     43  CB  SER B   3     -17.724 -11.710  16.916  1.00 59.26 LIG 0.20  C 
BRANCH 43 44
ATOM     44 OG   SER B   3     -17.434 -11.975  18.279  1.00 59.53 LIG-0.40  OA
ATOM     45 HG   SER B   3     -18.034 -11.640  18.762  1.00 59.53 LIG 0.21  HD
ENDBRANCH 43 44
ENDBRANCH 33 43
ENDBRANCH 30 33
ENDBRANCH 28 29
BRANCH 28 46
ATOM     46  CB  SER B   4     -16.768  -7.584  14.648  1.00 57.64 LIG 0.20  C 
BRANCH 46 47
ATOM     47 OG   SER B   4     -16.360  -7.376  15.993  1.00 57.32 LIG-0.40  OA
ATOM     48 HG   SER B   4     -16.969  -7.627  16.513  1.00 57.32 LIG 0.21  HD
ENDBRANCH 46 47
ENDBRANCH 28 46
ENDBRANCH 1 28
TORSDOF 18
ENDMDL
MODEL 20
USER: ADFR SOLUTION from run 177
USER: SCORE 15.298104 LL:  -3.516 LR: -12.086 RR:   0.000 FEB:  -6.717
USER: RMSD 7.306943
USER: SEED 176
USER: STATUS no improvement in best in 4 clusters for 5 generations
USER: GENES 20
USER: genes 0 Translation |==|  0.63607 0.65619 0.48200
USER: genes 1 Rotation |==|  0.10196 0.28801 0.70721 0.56075
USER: genes 2 Torsion [C]-N--CA-[CB] |==|  0.77085
USER: genes 3 Torsion [N]-CA--CB-[CG2] |==|  0.73251
USER: genes 4 Torsion [CA]-CB--OG1-[HG1] |==|  0.43876
USER: genes 5 Torsion [N]-CA--C-[N] |==|  0.17403
USER: genes 6 Torsion [N]-CA--C-[O] |==|  0.27309
USER: genes 7 Torsion [C]-N--CA-[CB] |==|  0.26920
USER: genes 8 Torsion [N]-CA--C-[O] |==|  0.85535
USER: genes 9 Torsion [N]-CA--CB-[SG] |==|  0.91868
USER: genes 10 Torsion [CA]-CB--SG-[HG] |==|  0.35488
USER: genes 11 Torsion [N]-C--CA-[N] |==|  0.00262
USER: genes 12 Torsion [C]-CA--N-[C] |==|  0.75123
USER: genes 13 Torsion [N]-C--CA-[N] |==|  0.92222
USER: genes 14 Torsion [C]-CA--N-[C] |==|  0.81146
USER: genes 15 Torsion [N]-C--CA-[N] |==|  0.39332
USER: genes 16 Torsion [C]-CA--CB-[OG] |==|  0.29302
USER: genes 17 Torsion [CA]-CB--OG-[HG] |==|  0.65943
USER: genes 18 Torsion [C]-CA--CB-[OG] |==|  0.51169
USER: genes 19 Torsion [CA]-CB--OG-[HG] |==|  0.74345
ROOT
ATOM      1  C   SER B   4     -15.668  -5.508  14.779  1.00 56.97 LIG 0.24  C 
ATOM      2 O    SER B   4     -14.980  -5.311  15.785  1.00 57.23 LIG-0.27  OA
ATOM      3  N   THR B   5     -15.352  -5.018  13.576  1.00 55.89 LIG-0.34  N 
ATOM      4 H    THR B   5     -15.828  -5.135  12.870  1.00 55.89 LIG 0.16  HD
ENDROOT
BRANCH 3 5
ATOM      5  CA  THR B   5     -14.134  -4.218  13.362  1.00 55.10 LIG 0.20  C 
BRANCH 5 6
ATOM      6  CB  THR B   5     -14.349  -2.714  13.760  1.00 55.33 LIG 0.15  C 
ATOM      7  CG2 THR B   5     -14.701  -1.849  12.542  1.00 55.26 LIG 0.04  C 
BRANCH 6 8
ATOM      8 OG1  THR B   5     -15.395  -2.601  14.741  1.00 55.55 LIG-0.39  OA
ATOM      9 HG1  THR B   5     -15.308  -1.880  15.162  1.00 55.55 LIG 0.21  HD
ENDBRANCH 6 8
ENDBRANCH 5 6
BRANCH 5 10
ATOM     10  C   THR B   5     -12.889  -4.777  14.077  1.00 54.13 LIG 0.24  C 
ATOM     11  N   PRO B   6     -12.457  -6.003  13.705  1.00 52.90 LIG-0.34  N 
ATOM     12  CD  PRO B   6     -13.092  -6.928  12.746  1.00 52.89 LIG 0.13  C 
ATOM     13  CA  PRO B   6     -11.223  -6.563  14.274  1.00 51.99 LIG 0.18  C 
ATOM     14  CG  PRO B   6     -12.249  -8.176  12.836  1.00 52.79 LIG 0.02  C 
ATOM     15  CB  PRO B   6     -10.934  -7.774  13.380  1.00 51.93 LIG 0.04  C 
ATOM     16 O    THR B   5     -12.311  -4.101  14.940  1.00 54.19 LIG-0.27  OA
BRANCH 13 17
ATOM     17  C   PRO B   6     -10.080  -5.556  14.197  1.00 51.04 LIG 0.24  C 
ATOM     18 O    PRO B   6      -9.799  -4.879  15.190  1.00 50.92 LIG-0.27  OA
ATOM     19  N   CYS B   7      -9.425  -5.459  13.038  1.00 49.72 LIG-0.34  N 
ATOM     20 H    CYS B   7      -9.664  -5.854  12.314  1.00 49.72 LIG 0.16  HD
BRANCH 19 21
ATOM     21  CA  CYS B   7      -8.203  -4.637  12.918  1.00 48.85 LIG 0.19  C 
BRANCH 21 22
ATOM     22  C   CYS B   7      -8.138  -3.811  11.635  1.00 48.04 LIG 0.20  C 
ATOM     23 OXT  CYS B   7      -7.921  -2.601  11.660  1.00 47.16 LIG-0.65  OA
ATOM     24 O    CYS B   7      -8.303  -4.349  10.544  1.00 47.51 LIG-0.65  OA
ENDBRANCH 21 22
BRANCH 21 25
ATOM     25  CB  CYS B   7      -6.951  -5.512  13.062  1.00 48.98 LIG 0.11  C 
BRANCH 25 26
ATOM     26 SG   CYS B   7      -7.236  -6.953  14.110  1.00 48.50 LIG-0.18  SA
ATOM     27 HG   CYS B   7      -6.891  -7.945  13.530  1.00 48.50 LIG 0.10  HD
ENDBRANCH 25 26
ENDBRANCH 21 25
ENDBRANCH 19 21
ENDBRANCH 13 17
ENDBRANCH 5 10
ENDBRANCH 3 5
BRANCH 1 28
ATOM     28  CA  SER B   4     -16.954  -6.338  14.873  1.00 57.59 LIG 0.20  C 
BRANCH 28 29
ATOM     29  N   SER B   4     -17.633  -6.476  13.578  1.00 58.14 LIG-0.34  N 
ATOM     30  C   SER B   3     -18.546  -5.601  13.154  1.00 58.75 LIG 0.24  C 
ATOM     31 O    SER B   3     -18.767  -4.538  13.739  1.00 58.75 LIG-0.27  OA
ATOM     32 H    SER B   4     -17.389  -7.166  13.125  1.00 58.14 LIG 0.16  HD
BRANCH 30 33
ATOM     33  CA  SER B   3     -19.314  -5.966  11.865  1.00 59.17 LIG 0.20  C 
BRANCH 33 34
ATOM     34  N   SER B   3     -18.499  -6.828  10.994  1.00 59.50 LIG-0.34  N 
ATOM     35  C   PRO B   2     -17.385  -6.452  10.352  1.00 59.86 LIG 0.25  C 
ATOM     36 O    PRO B   2     -16.802  -7.204   9.563  1.00 59.80 LIG-0.27  OA
ATOM     37 H    SER B   3     -18.814  -7.626  10.932  1.00 59.50 LIG 0.16  HD
BRANCH 35 38
ATOM     38  CA  PRO B   2     -16.811  -5.045  10.589  1.00 60.11 LIG 0.35  C 
ATOM     39  CB  PRO B   2     -17.120  -4.108   9.410  1.00 60.16 LIG 0.05  C 
ATOM     40  CG  PRO B   2     -15.872  -3.326   9.178  1.00 60.30 LIG 0.04  C 
ATOM     41  CD  PRO B   2     -14.740  -4.206   9.592  1.00 60.25 LIG 0.32  C 
ATOM     42  N   PRO B   2     -15.341  -5.064  10.628  1.00 60.27 LIG 0.32  N 
ENDBRANCH 35 38
ENDBRANCH 33 34
BRANCH 33 43
ATOM     43  CB  SER B   3     -20.628  -6.670  12.224  1.00 59.26 LIG 0.20  C 
BRANCH 43 44
ATOM     44 OG   SER B   3     -21.736  -5.805  12.035  1.00 59.53 LIG-0.40  OA
ATOM     45 HG   SER B   3     -22.160  -5.731  12.756  1.00 59.53 LIG 0.21  HD
ENDBRANCH 43 44
ENDBRANCH 33 43
ENDBRANCH 30 33
ENDBRANCH 28 29
BRANCH 28 46
ATOM     46  CB  SER B   4     -16.636  -7.735  15.410  1.00 57.64 LIG 0.20  C 
BRANCH 46 47
ATOM     47 OG   SER B   4     -17.800  -8.552  15.414  1.00 57.32 LIG-0.40  OA
ATOM     48 HG   SER B   4     -18.180  -8.494  16.160  1.00 57.32 LIG 0.21  HD
ENDBRANCH 46 47
ENDBRANCH 28 46
ENDBRANCH 1 28
TORSDOF 18
ENDMDL
MODEL 21
USER: ADFR SOLUTION from run 164
USER: SCORE 14.269142 LL:  -3.053 LR: -12.074 RR:   0.000 FEB:  -6.705
USER: RMSD 6.072533
USER: SEED 163
USER: STATUS no improvement in best in 7 clusters for 5 generations
USER: GENES 20
USER: genes 0 Translation |==|  0.66175 0.61908 0.49546
USER: genes 1 Rotation |==|  0.97624 0.57670 0.38757 0.56838
USER: genes 2 Torsion [C]-N--CA-[CB] |==|  0.17209
USER: genes 3 Torsion [N]-CA--CB-[CG2] |==|  0.70842
USER: genes 4 Torsion [CA]-CB--OG1-[HG1] |==|  0.47159
USER: genes 5 Torsion [N]-CA--C-[N] |==|  0.14261
USER: genes 6 Torsion [N]-CA--C-[O] |==|  0.42017
USER: genes 7 Torsion [C]-N--CA-[CB] |==|  0.84546
USER: genes 8 Torsion [N]-CA--C-[O] |==|  0.63270
USER: genes 9 Torsion [N]-CA--CB-[SG] |==|  0.91917
USER: genes 10 Torsion [CA]-CB--SG-[HG] |==|  0.33437
USER: genes 11 Torsion [N]-C--CA-[N] |==|  0.29941
USER: genes 12 Torsion [C]-CA--N-[C] |==|  0.66744
USER: genes 13 Torsion [N]-C--CA-[N] |==|  0.16667
USER: genes 14 Torsion [C]-CA--N-[C] |==|  0.15178
USER: genes 15 Torsion [N]-C--CA-[N] |==|  0.34309
USER: genes 16 Torsion [C]-CA--CB-[OG] |==|  0.60479
USER: genes 17 Torsion [CA]-CB--OG-[HG] |==|  0.86302
USER: genes 18 Torsion [C]-CA--CB-[OG] |==|  0.64220
USER: genes 19 Torsion [CA]-CB--OG-[HG] |==|  0.06379
ROOT
ATOM      1  C   SER B   4     -14.936  -6.065  14.970  1.00 56.97 LIG 0.24  C 
ATOM      2 O    SER B   4     -14.747  -5.470  16.036  1.00 57.23 LIG-0.27  OA
ATOM      3  N   THR B   5     -13.940  -6.436  14.160  1.00 55.89 LIG-0.34  N 
ATOM      4 H    THR B   5     -14.057  -6.838  13.409  1.00 55.89 LIG 0.16  HD
ENDROOT
BRANCH 3 5
ATOM      5  CA  THR B   5     -12.530  -6.179  14.499  1.00 55.10 LIG 0.20  C 
BRANCH 5 6
ATOM      6  CB  THR B   5     -12.106  -6.917  15.819  1.00 55.33 LIG 0.15  C 
ATOM      7  CG2 THR B   5     -11.990  -5.946  17.001  1.00 55.26 LIG 0.04  C 
BRANCH 6 8
ATOM      8 OG1  THR B   5     -13.055  -7.948  16.142  1.00 55.55 LIG-0.39  OA
ATOM      9 HG1  THR B   5     -12.751  -8.425  16.763  1.00 55.55 LIG 0.21  HD
ENDBRANCH 6 8
ENDBRANCH 5 6
BRANCH 5 10
ATOM     10  C   THR B   5     -11.545  -6.523  13.366  1.00 54.13 LIG 0.24  C 
ATOM     11  N   PRO B   6     -11.800  -6.006  12.143  1.00 52.90 LIG-0.34  N 
ATOM     12  CD  PRO B   6     -12.974  -5.213  11.728  1.00 52.89 LIG 0.13  C 
ATOM     13  CA  PRO B   6     -10.857  -6.212  11.034  1.00 51.99 LIG 0.18  C 
ATOM     14  CG  PRO B   6     -12.782  -5.034  10.242  1.00 52.79 LIG 0.02  C 
ATOM     15  CB  PRO B   6     -11.344  -5.230   9.963  1.00 51.93 LIG 0.04  C 
ATOM     16 O    THR B   5     -10.553  -7.229  13.596  1.00 54.19 LIG-0.27  OA
BRANCH 13 17
ATOM     17  C   PRO B   6      -9.432  -5.876  11.461  1.00 51.04 LIG 0.24  C 
ATOM     18 O    PRO B   6      -8.484  -6.452  10.919  1.00 50.92 LIG-0.27  OA
ATOM     19  N   CYS B   7      -9.277  -4.954  12.413  1.00 49.72 LIG-0.34  N 
ATOM     20 H    CYS B   7      -9.925  -4.611  12.862  1.00 49.72 LIG 0.16  HD
BRANCH 19 21
ATOM     21  CA  CYS B   7      -7.939  -4.444  12.772  1.00 48.85 LIG 0.19  C 
BRANCH 21 22
ATOM     22  C   CYS B   7      -7.298  -3.575  11.691  1.00 48.04 LIG 0.20  C 
ATOM     23 OXT  CYS B   7      -7.920  -2.666  11.144  1.00 47.16 LIG-0.65  OA
ATOM     24 O    CYS B   7      -6.136  -3.772  11.348  1.00 47.51 LIG-0.65  OA
ENDBRANCH 21 22
BRANCH 21 25
ATOM     25  CB  CYS B   7      -7.007  -5.601  13.158  1.00 48.98 LIG 0.11  C 
BRANCH 25 26
ATOM     26 SG   CYS B   7      -7.905  -6.998  13.863  1.00 48.50 LIG-0.18  SA
ATOM     27 HG   CYS B   7      -7.717  -7.975  13.191  1.00 48.50 LIG 0.10  HD
ENDBRANCH 25 26
ENDBRANCH 21 25
ENDBRANCH 19 21
ENDBRANCH 13 17
ENDBRANCH 5 10
ENDBRANCH 3 5
BRANCH 1 28
ATOM     28  CA  SER B   4     -16.361  -6.401  14.516  1.00 57.59 LIG 0.20  C 
BRANCH 28 29
ATOM     29  N   SER B   4     -16.964  -7.485  15.303  1.00 58.14 LIG-0.34  N 
ATOM     30  C   SER B   3     -17.367  -8.630  14.750  1.00 58.75 LIG 0.24  C 
ATOM     31 O    SER B   3     -17.120  -8.922  13.577  1.00 58.75 LIG-0.27  OA
ATOM     32 H    SER B   4     -17.030  -7.314  16.143  1.00 58.14 LIG 0.16  HD
BRANCH 30 33
ATOM     33  CA  SER B   3     -18.150  -9.604  15.656  1.00 59.17 LIG 0.20  C 
BRANCH 33 34
ATOM     34  N   SER B   3     -19.380  -8.976  16.162  1.00 59.50 LIG-0.34  N 
ATOM     35  C   PRO B   2     -20.335  -8.417  15.405  1.00 59.86 LIG 0.25  C 
ATOM     36 O    PRO B   2     -21.299  -7.824  15.904  1.00 59.80 LIG-0.27  OA
ATOM     37 H    SER B   3     -19.435  -9.000  17.020  1.00 59.50 LIG 0.16  HD
BRANCH 35 38
ATOM     38  CA  PRO B   2     -20.233  -8.499  13.873  1.00 60.11 LIG 0.35  C 
ATOM     39  CB  PRO B   2     -20.216  -7.101  13.236  1.00 60.16 LIG 0.05  C 
ATOM     40  CG  PRO B   2     -21.092  -7.194  12.033  1.00 60.30 LIG 0.04  C 
ATOM     41  CD  PRO B   2     -22.122  -8.230  12.341  1.00 60.25 LIG 0.32  C 
ATOM     42  N   PRO B   2     -21.430  -9.122  13.288  1.00 60.27 LIG 0.32  N 
ENDBRANCH 35 38
ENDBRANCH 33 34
BRANCH 33 43
ATOM     43  CB  SER B   3     -18.490 -10.880  14.877  1.00 59.26 LIG 0.20  C 
BRANCH 43 44
ATOM     44 OG   SER B   3     -19.780 -11.357  15.221  1.00 59.53 LIG-0.40  OA
ATOM     45 HG   SER B   3     -19.853 -11.390  16.057  1.00 59.53 LIG 0.21  HD
ENDBRANCH 43 44
ENDBRANCH 33 43
ENDBRANCH 30 33
ENDBRANCH 28 29
BRANCH 28 46
ATOM     46  CB  SER B   4     -17.252  -5.162  14.629  1.00 57.64 LIG 0.20  C 
BRANCH 46 47
ATOM     47 OG   SER B   4     -18.440  -5.457  15.351  1.00 57.32 LIG-0.40  OA
ATOM     48 HG   SER B   4     -18.311  -6.127  15.840  1.00 57.32 LIG 0.21  HD
ENDBRANCH 46 47
ENDBRANCH 28 46
ENDBRANCH 1 28
TORSDOF 18
ENDMDL
MODEL 22
USER: ADFR SOLUTION from run 3
USER: SCORE 13.334930 LL:  -2.623 LR: -12.039 RR:   0.000 FEB:  -6.670
USER: RMSD 7.711841
USER: SEED 33462
USER: STATUS no improvement in best in 12 clusters for 5 generations
USER: GENES 20
USER: genes 0 Translation |==|  0.68144 0.68176 0.46552
USER: genes 1 Rotation |==|  0.21799 0.30840 0.49696 0.86572
USER: genes 2 Torsion [C]-N--CA-[CB] |==|  0.78858
USER: genes 3 Torsion [N]-CA--CB-[CG2] |==|  0.21721
USER: genes 4 Torsion [CA]-CB--OG1-[HG1] |==|  0.21499
USER: genes 5 Torsion [N]-CA--C-[N] |==|  0.10581
USER: genes 6 Torsion [N]-CA--C-[O] |==|  0.42930
USER: genes 7 Torsion [C]-N--CA-[CB] |==|  0.85776
USER: genes 8 Torsion [N]-CA--C-[O] |==|  0.96707
USER: genes 9 Torsion [N]-CA--CB-[SG] |==|  0.86729
USER: genes 10 Torsion [CA]-CB--SG-[HG] |==|  0.97281
USER: genes 11 Torsion [N]-C--CA-[N] |==|  0.56881
USER: genes 12 Torsion [C]-CA--N-[C] |==|  0.57930
USER: genes 13 Torsion [N]-C--CA-[N] |==|  0.93182
USER: genes 14 Torsion [C]-CA--N-[C] |==|  0.81934
USER: genes 15 Torsion [N]-C--CA-[N] |==|  0.26319
USER: genes 16 Torsion [C]-CA--CB-[OG] |==|  0.36884
USER: genes 17 Torsion [CA]-CB--OG-[HG] |==|  0.69714
USER: genes 18 Torsion [C]-CA--CB-[OG] |==|  0.14941
USER: genes 19 Torsion [CA]-CB--OG-[HG] |==|  0.51806
ROOT
ATOM      1  C   SER B   4     -14.375  -5.125  14.544  1.00 56.97 LIG 0.24  C 
ATOM      2 O    SER B   4     -13.982  -6.295  14.570  1.00 57.23 LIG-0.27  OA
ATOM      3  N   THR B   5     -13.571  -4.084  14.783  1.00 55.89 LIG-0.34  N 
ATOM      4 H    THR B   5     -13.834  -3.265  14.782  1.00 55.89 LIG 0.16  HD
ENDROOT
BRANCH 3 5
ATOM      5  CA  THR B   5     -12.139  -4.263  15.074  1.00 55.10 LIG 0.20  C 
BRANCH 5 6
ATOM      6  CB  THR B   5     -11.904  -4.772  16.541  1.00 55.33 LIG 0.15  C 
ATOM      7  CG2 THR B   5     -12.181  -6.276  16.672  1.00 55.26 LIG 0.04  C 
BRANCH 6 8
ATOM      8 OG1  THR B   5     -10.553  -4.501  16.954  1.00 55.55 LIG-0.39  OA
ATOM      9 HG1  THR B   5     -10.479  -3.689  17.155  1.00 55.55 LIG 0.21  HD
ENDBRANCH 6 8
ENDBRANCH 5 6
BRANCH 5 10
ATOM     10  C   THR B   5     -11.411  -5.184  14.076  1.00 54.13 LIG 0.24  C 
ATOM     11  N   PRO B   6     -11.766  -5.094  12.775  1.00 52.90 LIG-0.34  N 
ATOM     12  CD  PRO B   6     -12.845  -4.274  12.191  1.00 52.89 LIG 0.13  C 
ATOM     13  CA  PRO B   6     -11.053  -5.871  11.752  1.00 51.99 LIG 0.18  C 
ATOM     14  CG  PRO B   6     -12.861  -4.677  10.738  1.00 52.79 LIG 0.02  C 
ATOM     15  CB  PRO B   6     -11.535  -5.256  10.434  1.00 51.93 LIG 0.04  C 
ATOM     16 O    THR B   5     -10.523  -5.953  14.472  1.00 54.19 LIG-0.27  OA
BRANCH 13 17
ATOM     17  C   PRO B   6      -9.543  -5.711  11.898  1.00 51.04 LIG 0.24  C 
ATOM     18 O    PRO B   6      -8.795  -6.600  11.482  1.00 50.92 LIG-0.27  OA
ATOM     19  N   CYS B   7      -9.098  -4.594  12.476  1.00 49.72 LIG-0.34  N 
ATOM     20 H    CYS B   7      -9.604  -4.010  12.852  1.00 49.72 LIG 0.16  HD
BRANCH 19 21
ATOM     21  CA  CYS B   7      -7.656  -4.274  12.511  1.00 48.85 LIG 0.19  C 
BRANCH 21 22
ATOM     22  C   CYS B   7      -7.093  -3.815  11.167  1.00 48.04 LIG 0.20  C 
ATOM     23 OXT  CYS B   7      -5.975  -3.313  11.077  1.00 47.16 LIG-0.65  OA
ATOM     24 O    CYS B   7      -7.756  -3.943  10.142  1.00 47.51 LIG-0.65  OA
ENDBRANCH 21 22
BRANCH 21 25
ATOM     25  CB  CYS B   7      -6.854  -5.464  13.055  1.00 48.98 LIG 0.11  C 
BRANCH 25 26
ATOM     26 SG   CYS B   7      -7.570  -6.139  14.567  1.00 48.50 LIG-0.18  SA
ATOM     27 HG   CYS B   7      -8.434  -5.406  14.964  1.00 48.50 LIG 0.10  HD
ENDBRANCH 25 26
ENDBRANCH 21 25
ENDBRANCH 19 21
ENDBRANCH 13 17
ENDBRANCH 5 10
ENDBRANCH 3 5
BRANCH 1 28
ATOM     28  CA  SER B   4     -15.844  -4.810  14.238  1.00 57.59 LIG 0.20  C 
BRANCH 28 29
ATOM     29  N   SER B   4     -16.739  -5.930  14.557  1.00 58.14 LIG-0.34  N 
ATOM     30  C   SER B   3     -17.888  -6.132  13.910  1.00 58.75 LIG 0.24  C 
ATOM     31 O    SER B   3     -18.201  -5.495  12.901  1.00 58.75 LIG-0.27  OA
ATOM     32 H    SER B   4     -16.456  -6.436  15.192  1.00 58.14 LIG 0.16  HD
BRANCH 30 33
ATOM     33  CA  SER B   3     -18.818  -7.231  14.468  1.00 59.17 LIG 0.20  C 
BRANCH 33 34
ATOM     34  N   SER B   3     -18.053  -8.227  15.233  1.00 59.50 LIG-0.34  N 
ATOM     35  C   PRO B   2     -17.128  -9.054  14.726  1.00 59.86 LIG 0.25  C 
ATOM     36 O    PRO B   2     -16.590  -9.930  15.412  1.00 59.80 LIG-0.27  OA
ATOM     37 H    SER B   3     -18.260  -8.233  16.068  1.00 59.50 LIG 0.16  HD
BRANCH 35 38
ATOM     38  CA  PRO B   2     -16.723  -8.923  13.249  1.00 60.11 LIG 0.35  C 
ATOM     39  CB  PRO B   2     -16.278 -10.274  12.667  1.00 60.16 LIG 0.05  C 
ATOM     40  CG  PRO B   2     -15.081  -9.979  11.829  1.00 60.30 LIG 0.04  C 
ATOM     41  CD  PRO B   2     -14.414  -8.797  12.449  1.00 60.25 LIG 0.32  C 
ATOM     42  N   PRO B   2     -15.528  -8.078  13.092  1.00 60.27 LIG 0.32  N 
ENDBRANCH 35 38
ENDBRANCH 33 34
BRANCH 33 43
ATOM     43  CB  SER B   3     -19.896  -6.597  15.356  1.00 59.26 LIG 0.20  C 
BRANCH 43 44
ATOM     44 OG   SER B   3     -21.181  -7.103  15.035  1.00 59.53 LIG-0.40  OA
ATOM     45 HG   SER B   3     -21.630  -6.505  14.653  1.00 59.53 LIG 0.21  HD
ENDBRANCH 43 44
ENDBRANCH 33 43
ENDBRANCH 30 33
ENDBRANCH 28 29
BRANCH 28 46
ATOM     46  CB  SER B   4     -16.293  -3.583  15.035  1.00 57.64 LIG 0.20  C 
BRANCH 46 47
ATOM     47 OG   SER B   4     -15.421  -2.485  14.806  1.00 57.32 LIG-0.40  OA
ATOM     48 HG   SER B   4     -15.628  -1.851  15.316  1.00 57.32 LIG 0.21  HD
ENDBRANCH 46 47
ENDBRANCH 28 46
ENDBRANCH 1 28
TORSDOF 18
ENDMDL
MODEL 23
USER: ADFR SOLUTION from run 49
USER: SCORE 14.089654 LL:  -3.282 LR: -12.029 RR:   0.000 FEB:  -6.660
USER: RMSD 8.241711
USER: SEED 48
USER: STATUS no improvement in best in 5 clusters for 5 generations
USER: GENES 20
USER: genes 0 Translation |==|  0.71928 0.71931 0.43338
USER: genes 1 Rotation |==|  0.55248 0.36316 0.27034 0.91926
USER: genes 2 Torsion [C]-N--CA-[CB] |==|  0.80767
USER: genes 3 Torsion [N]-CA--CB-[CG2] |==|  0.82729
USER: genes 4 Torsion [CA]-CB--OG1-[HG1] |==|  0.37814
USER: genes 5 Torsion [N]-CA--C-[N] |==|  0.46644
USER: genes 6 Torsion [N]-CA--C-[O] |==|  0.34510
USER: genes 7 Torsion [C]-N--CA-[CB] |==|  0.25058
USER: genes 8 Torsion [N]-CA--C-[O] |==|  0.40280
USER: genes 9 Torsion [N]-CA--CB-[SG] |==|  0.75774
USER: genes 10 Torsion [CA]-CB--SG-[HG] |==|  0.50860
USER: genes 11 Torsion [N]-C--CA-[N] |==|  0.72747
USER: genes 12 Torsion [C]-CA--N-[C] |==|  0.17089
USER: genes 13 Torsion [N]-C--CA-[N] |==|  0.48185
USER: genes 14 Torsion [C]-CA--N-[C] |==|  0.70775
USER: genes 15 Torsion [N]-C--CA-[N] |==|  0.84703
USER: genes 16 Torsion [C]-CA--CB-[OG] |==|  0.62918
USER: genes 17 Torsion [CA]-CB--OG-[HG] |==|  0.57552
USER: genes 18 Torsion [C]-CA--CB-[OG] |==|  0.44215
USER: genes 19 Torsion [CA]-CB--OG-[HG] |==|  0.79761
ROOT
ATOM      1  C   SER B   4     -13.297  -4.561  14.086  1.00 56.97 LIG 0.24  C 
ATOM      2 O    SER B   4     -12.920  -4.635  12.912  1.00 57.23 LIG-0.27  OA
ATOM      3  N   THR B   5     -12.665  -5.177  15.090  1.00 55.89 LIG-0.34  N 
ATOM      4 H    THR B   5     -12.924  -5.146  15.910  1.00 55.89 LIG 0.16  HD
ENDROOT
BRANCH 3 5
ATOM      5  CA  THR B   5     -11.449  -5.975  14.867  1.00 55.10 LIG 0.20  C 
BRANCH 5 6
ATOM      6  CB  THR B   5     -11.758  -7.295  14.073  1.00 55.33 LIG 0.15  C 
ATOM      7  CG2 THR B   5     -12.712  -8.214  14.848  1.00 55.26 LIG 0.04  C 
BRANCH 6 8
ATOM      8 OG1  THR B   5     -12.333  -6.985  12.792  1.00 55.55 LIG-0.39  OA
ATOM      9 HG1  THR B   5     -11.979  -7.466  12.201  1.00 55.55 LIG 0.21  HD
ENDBRANCH 6 8
ENDBRANCH 5 6
BRANCH 5 10
ATOM     10  C   THR B   5     -10.314  -5.199  14.172  1.00 54.13 LIG 0.24  C 
ATOM     11  N   PRO B   6      -9.089  -5.772  14.155  1.00 52.90 LIG-0.34  N 
ATOM     12  CD  PRO B   6      -8.675  -7.028  14.809  1.00 52.89 LIG 0.13  C 
ATOM     13  CA  PRO B   6      -7.979  -5.137  13.432  1.00 51.99 LIG 0.18  C 
ATOM     14  CG  PRO B   6      -7.188  -7.091  14.563  1.00 52.79 LIG 0.02  C 
ATOM     15  CB  PRO B   6      -6.904  -6.229  13.395  1.00 51.93 LIG 0.04  C 
ATOM     16 O    THR B   5     -10.544  -4.105  13.638  1.00 54.19 LIG-0.27  OA
BRANCH 13 17
ATOM     17  C   PRO B   6      -8.399  -4.752  12.017  1.00 51.04 LIG 0.24  C 
ATOM     18 O    PRO B   6      -8.276  -3.581  11.644  1.00 50.92 LIG-0.27  OA
ATOM     19  N   CYS B   7      -8.883  -5.718  11.236  1.00 49.72 LIG-0.34  N 
ATOM     20 H    CYS B   7      -9.060  -6.515  11.507  1.00 49.72 LIG 0.16  HD
BRANCH 19 21
ATOM     21  CA  CYS B   7      -9.158  -5.478   9.805  1.00 48.85 LIG 0.19  C 
BRANCH 21 22
ATOM     22  C   CYS B   7     -10.383  -6.224   9.277  1.00 48.04 LIG 0.20  C 
ATOM     23 OXT  CYS B   7     -10.682  -7.342   9.690  1.00 47.16 LIG-0.65  OA
ATOM     24 O    CYS B   7     -11.099  -5.709   8.423  1.00 47.51 LIG-0.65  OA
ENDBRANCH 21 22
BRANCH 21 25
ATOM     25  CB  CYS B   7      -7.921  -5.804   8.957  1.00 48.98 LIG 0.11  C 
BRANCH 25 26
ATOM     26 SG   CYS B   7      -6.802  -4.397   8.808  1.00 48.50 LIG-0.18  SA
ATOM     27 HG   CYS B   7      -5.886  -4.687   8.089  1.00 48.50 LIG 0.10  HD
ENDBRANCH 25 26
ENDBRANCH 21 25
ENDBRANCH 19 21
ENDBRANCH 13 17
ENDBRANCH 5 10
ENDBRANCH 3 5
BRANCH 1 28
ATOM     28  CA  SER B   4     -14.545  -3.747  14.446  1.00 57.59 LIG 0.20  C 
BRANCH 28 29
ATOM     29  N   SER B   4     -15.790  -4.488  14.208  1.00 58.14 LIG-0.34  N 
ATOM     30  C   SER B   3     -16.077  -5.625  14.842  1.00 58.75 LIG 0.24  C 
ATOM     31 O    SER B   3     -15.399  -6.048  15.782  1.00 58.75 LIG-0.27  OA
ATOM     32 H    SER B   4     -16.310  -4.123  13.627  1.00 58.14 LIG 0.16  HD
BRANCH 30 33
ATOM     33  CA  SER B   3     -17.326  -6.395  14.363  1.00 59.17 LIG 0.20  C 
BRANCH 33 34
ATOM     34  N   SER B   3     -17.433  -7.696  15.040  1.00 59.50 LIG-0.34  N 
ATOM     35  C   PRO B   2     -17.161  -8.885  14.486  1.00 59.86 LIG 0.25  C 
ATOM     36 O    PRO B   2     -17.362  -9.946  15.088  1.00 59.80 LIG-0.27  OA
ATOM     37 H    SER B   3     -17.696  -7.623  15.856  1.00 59.50 LIG 0.16  HD
BRANCH 35 38
ATOM     38  CA  PRO B   2     -16.591  -8.944  13.059  1.00 60.11 LIG 0.35  C 
ATOM     39  CB  PRO B   2     -15.253  -8.194  12.958  1.00 60.16 LIG 0.05  C 
ATOM     40  CG  PRO B   2     -15.307  -7.444  11.671  1.00 60.30 LIG 0.04  C 
ATOM     41  CD  PRO B   2     -16.745  -7.128  11.428  1.00 60.25 LIG 0.32  C 
ATOM     42  N   PRO B   2     -17.452  -8.228  12.107  1.00 60.27 LIG 0.32  N 
ENDBRANCH 35 38
ENDBRANCH 33 34
BRANCH 33 43
ATOM     43  CB  SER B   3     -18.585  -5.558  14.624  1.00 59.26 LIG 0.20  C 
BRANCH 43 44
ATOM     44 OG   SER B   3     -19.602  -6.344  15.222  1.00 59.53 LIG-0.40  OA
ATOM     45 HG   SER B   3     -20.354  -6.025  15.027  1.00 59.53 LIG 0.21  HD
ENDBRANCH 43 44
ENDBRANCH 33 43
ENDBRANCH 30 33
ENDBRANCH 28 29
BRANCH 28 46
ATOM     46  CB  SER B   4     -14.494  -3.337  15.920  1.00 57.64 LIG 0.20  C 
BRANCH 46 47
ATOM     47 OG   SER B   4     -15.342  -2.223  16.164  1.00 57.32 LIG-0.40  OA
ATOM     48 HG   SER B   4     -14.997  -1.531  15.836  1.00 57.32 LIG 0.21  HD
ENDBRANCH 46 47
ENDBRANCH 28 46
ENDBRANCH 1 28
TORSDOF 18
ENDMDL
MODEL 24
USER: ADFR SOLUTION from run 127
USER: SCORE 13.566145 LL:  -3.016 LR: -12.020 RR:   0.000 FEB:  -6.650
USER: RMSD 8.109381
USER: SEED 126
USER: STATUS no improvement in best in 9 clusters for 5 generations
USER: GENES 20
USER: genes 0 Translation |==|  0.69439 0.68270 0.50575
USER: genes 1 Rotation |==|  0.02121 0.46994 0.56009 0.62744
USER: genes 2 Torsion [C]-N--CA-[CB] |==|  0.23273
USER: genes 3 Torsion [N]-CA--CB-[CG2] |==|  0.77420
USER: genes 4 Torsion [CA]-CB--OG1-[HG1] |==|  0.34034
USER: genes 5 Torsion [N]-CA--C-[N] |==|  0.51732
USER: genes 6 Torsion [N]-CA--C-[O] |==|  0.34102
USER: genes 7 Torsion [C]-N--CA-[CB] |==|  0.49598
USER: genes 8 Torsion [N]-CA--C-[O] |==|  0.39235
USER: genes 9 Torsion [N]-CA--CB-[SG] |==|  0.98736
USER: genes 10 Torsion [CA]-CB--SG-[HG] |==|  0.82523
USER: genes 11 Torsion [N]-C--CA-[N] |==|  0.32736
USER: genes 12 Torsion [C]-CA--N-[C] |==|  0.75526
USER: genes 13 Torsion [N]-C--CA-[N] |==|  0.86116
USER: genes 14 Torsion [C]-CA--N-[C] |==|  0.75661
USER: genes 15 Torsion [N]-C--CA-[N] |==|  0.20128
USER: genes 16 Torsion [C]-CA--CB-[OG] |==|  0.60156
USER: genes 17 Torsion [CA]-CB--OG-[HG] |==|  0.37131
USER: genes 18 Torsion [C]-CA--CB-[OG] |==|  0.10150
USER: genes 19 Torsion [CA]-CB--OG-[HG] |==|  0.37505
ROOT
ATOM      1  C   SER B   4     -14.006  -5.110  15.117  1.00 56.97 LIG 0.24  C 
ATOM      2 O    SER B   4     -13.907  -5.472  16.294  1.00 57.23 LIG-0.27  OA
ATOM      3  N   THR B   5     -12.988  -5.166  14.253  1.00 55.89 LIG-0.34  N 
ATOM      4 H    THR B   5     -13.038  -4.905  13.435  1.00 55.89 LIG 0.16  HD
ENDROOT
BRANCH 3 5
ATOM      5  CA  THR B   5     -11.669  -5.691  14.643  1.00 55.10 LIG 0.20  C 
BRANCH 5 6
ATOM      6  CB  THR B   5     -11.614  -7.258  14.543  1.00 55.33 LIG 0.15  C 
ATOM      7  CG2 THR B   5     -12.235  -7.928  15.776  1.00 55.26 LIG 0.04  C 
BRANCH 6 8
ATOM      8 OG1  THR B   5     -12.302  -7.707  13.362  1.00 55.55 LIG-0.39  OA
ATOM      9 HG1  THR B   5     -11.776  -8.157  12.885  1.00 55.55 LIG 0.21  HD
ENDBRANCH 6 8
ENDBRANCH 5 6
BRANCH 5 10
ATOM     10  C   THR B   5     -10.496  -5.075  13.857  1.00 54.13 LIG 0.24  C 
ATOM     11  N   PRO B   6      -9.266  -5.596  14.065  1.00 52.90 LIG-0.34  N 
ATOM     12  CD  PRO B   6      -8.884  -6.641  15.035  1.00 52.89 LIG 0.13  C 
ATOM     13  CA  PRO B   6      -8.114  -5.125  13.284  1.00 51.99 LIG 0.18  C 
ATOM     14  CG  PRO B   6      -7.383  -6.716  14.914  1.00 52.79 LIG 0.02  C 
ATOM     15  CB  PRO B   6      -7.026  -6.159  13.592  1.00 51.93 LIG 0.04  C 
ATOM     16 O    THR B   5     -10.700  -4.152  13.055  1.00 54.19 LIG-0.27  OA
BRANCH 13 17
ATOM     17  C   PRO B   6      -8.434  -5.110  11.793  1.00 51.04 LIG 0.24  C 
ATOM     18 O    PRO B   6      -8.325  -4.057  11.158  1.00 50.92 LIG-0.27  OA
ATOM     19  N   CYS B   7      -8.819  -6.261  11.237  1.00 49.72 LIG-0.34  N 
ATOM     20 H    CYS B   7      -8.987  -6.978  11.680  1.00 49.72 LIG 0.16  HD
BRANCH 19 21
ATOM     21  CA  CYS B   7      -8.988  -6.384   9.775  1.00 48.85 LIG 0.19  C 
BRANCH 21 22
ATOM     22  C   CYS B   7      -9.961  -5.369   9.178  1.00 48.04 LIG 0.20  C 
ATOM     23 OXT  CYS B   7     -10.993  -5.046   9.763  1.00 47.16 LIG-0.65  OA
ATOM     24 O    CYS B   7      -9.724  -4.851   8.090  1.00 47.51 LIG-0.65  OA
ENDBRANCH 21 22
BRANCH 21 25
ATOM     25  CB  CYS B   7      -9.399  -7.814   9.399  1.00 48.98 LIG 0.11  C 
BRANCH 25 26
ATOM     26 SG   CYS B   7      -9.419  -8.919  10.825  1.00 48.50 LIG-0.18  SA
ATOM     27 HG   CYS B   7      -8.311  -9.009  11.278  1.00 48.50 LIG 0.10  HD
ENDBRANCH 25 26
ENDBRANCH 21 25
ENDBRANCH 19 21
ENDBRANCH 13 17
ENDBRANCH 5 10
ENDBRANCH 3 5
BRANCH 1 28
ATOM     28  CA  SER B   4     -15.335  -4.558  14.588  1.00 57.59 LIG 0.20  C 
BRANCH 28 29
ATOM     29  N   SER B   4     -16.419  -5.547  14.643  1.00 58.14 LIG-0.34  N 
ATOM     30  C   SER B   3     -16.656  -6.402  13.648  1.00 58.75 LIG 0.24  C 
ATOM     31 O    SER B   3     -15.890  -6.530  12.689  1.00 58.75 LIG-0.27  OA
ATOM     32 H    SER B   4     -16.881  -5.522  15.369  1.00 58.14 LIG 0.16  HD
BRANCH 30 33
ATOM     33  CA  SER B   3     -17.937  -7.257  13.754  1.00 59.17 LIG 0.20  C 
BRANCH 33 34
ATOM     34  N   SER B   3     -18.028  -7.905  15.071  1.00 59.50 LIG-0.34  N 
ATOM     35  C   PRO B   2     -17.492  -9.091  15.392  1.00 59.86 LIG 0.25  C 
ATOM     36 O    PRO B   2     -17.687  -9.617  16.494  1.00 59.80 LIG-0.27  OA
ATOM     37 H    SER B   3     -18.472  -7.437  15.639  1.00 59.50 LIG 0.16  HD
BRANCH 35 38
ATOM     38  CA  PRO B   2     -16.617  -9.830  14.367  1.00 60.11 LIG 0.35  C 
ATOM     39  CB  PRO B   2     -16.250 -11.240  14.856  1.00 60.16 LIG 0.05  C 
ATOM     40  CG  PRO B   2     -14.814 -11.430  14.500  1.00 60.30 LIG 0.04  C 
ATOM     41  CD  PRO B   2     -14.189 -10.075  14.536  1.00 60.25 LIG 0.32  C 
ATOM     42  N   PRO B   2     -15.309  -9.177  14.206  1.00 60.27 LIG 0.32  N 
ENDBRANCH 35 38
ENDBRANCH 33 34
BRANCH 33 43
ATOM     43  CB  SER B   3     -19.170  -6.378  13.511  1.00 59.26 LIG 0.20  C 
BRANCH 43 44
ATOM     44 OG   SER B   3     -20.249  -6.776  14.341  1.00 59.53 LIG-0.40  OA
ATOM     45 HG   SER B   3     -20.595  -6.098  14.696  1.00 59.53 LIG 0.21  HD
ENDBRANCH 43 44
ENDBRANCH 33 43
ENDBRANCH 30 33
ENDBRANCH 28 29
BRANCH 28 46
ATOM     46  CB  SER B   4     -15.751  -3.330  15.402  1.00 57.64 LIG 0.20  C 
BRANCH 46 47
ATOM     47 OG   SER B   4     -14.616  -2.556  15.766  1.00 57.32 LIG-0.40  OA
ATOM     48 HG   SER B   4     -14.776  -1.743  15.630  1.00 57.32 LIG 0.21  HD
ENDBRANCH 46 47
ENDBRANCH 28 46
ENDBRANCH 1 28
TORSDOF 18
ENDMDL
MODEL 25
USER: ADFR SOLUTION from run 125
USER: SCORE 14.694067 LL:  -3.502 LR: -12.016 RR:   0.000 FEB:  -6.646
USER: RMSD 8.682159
USER: SEED 124
USER: STATUS no improvement in best in 10 clusters for 5 generations
USER: GENES 20
USER: genes 0 Translation |==|  0.74358 0.46832 0.40859
USER: genes 1 Rotation |==|  0.84923 0.71213 0.62273 0.76073
USER: genes 2 Torsion [C]-N--CA-[CB] |==|  0.23773
USER: genes 3 Torsion [N]-CA--CB-[CG2] |==|  0.53329
USER: genes 4 Torsion [CA]-CB--OG1-[HG1] |==|  0.25661
USER: genes 5 Torsion [N]-CA--C-[N] |==|  0.85333
USER: genes 6 Torsion [N]-CA--C-[O] |==|  0.23683
USER: genes 7 Torsion [C]-N--CA-[CB] |==|  0.80078
USER: genes 8 Torsion [N]-CA--C-[O] |==|  0.07184
USER: genes 9 Torsion [N]-CA--CB-[SG] |==|  0.92191
USER: genes 10 Torsion [CA]-CB--SG-[HG] |==|  0.20956
USER: genes 11 Torsion [N]-C--CA-[N] |==|  0.37155
USER: genes 12 Torsion [C]-CA--N-[C] |==|  0.85828
USER: genes 13 Torsion [N]-C--CA-[N] |==|  0.92223
USER: genes 14 Torsion [C]-CA--N-[C] |==|  0.82955
USER: genes 15 Torsion [N]-C--CA-[N] |==|  0.32738
USER: genes 16 Torsion [C]-CA--CB-[OG] |==|  0.32920
USER: genes 17 Torsion [CA]-CB--OG-[HG] |==|  0.65879
USER: genes 18 Torsion [C]-CA--CB-[OG] |==|  0.60803
USER: genes 19 Torsion [CA]-CB--OG-[HG] |==|  0.48229
ROOT
ATOM      1  C   SER B   4     -12.604  -8.326  13.732  1.00 56.97 LIG 0.24  C 
ATOM      2 O    SER B   4     -13.734  -7.855  13.894  1.00 57.23 LIG-0.27  OA
ATOM      3  N   THR B   5     -11.487  -7.633  13.976  1.00 55.89 LIG-0.34  N 
ATOM      4 H    THR B   5     -10.694  -7.943  13.854  1.00 55.89 LIG 0.16  HD
ENDROOT
BRANCH 3 5
ATOM      5  CA  THR B   5     -11.528  -6.251  14.482  1.00 55.10 LIG 0.20  C 
BRANCH 5 6
ATOM      6  CB  THR B   5     -11.643  -6.210  16.049  1.00 55.33 LIG 0.15  C 
ATOM      7  CG2 THR B   5     -11.981  -4.802  16.557  1.00 55.26 LIG 0.04  C 
BRANCH 6 8
ATOM      8 OG1  THR B   5     -12.651  -7.132  16.500  1.00 55.55 LIG-0.39  OA
ATOM      9 HG1  THR B   5     -12.296  -7.873  16.674  1.00 55.55 LIG 0.21  HD
ENDBRANCH 6 8
ENDBRANCH 5 6
BRANCH 5 10
ATOM     10  C   THR B   5     -10.342  -5.384  14.021  1.00 54.13 LIG 0.24  C 
ATOM     11  N   PRO B   6      -9.098  -5.866  14.238  1.00 52.90 LIG-0.34  N 
ATOM     12  CD  PRO B   6      -8.724  -7.101  14.955  1.00 52.89 LIG 0.13  C 
ATOM     13  CA  PRO B   6      -7.919  -5.141  13.743  1.00 51.99 LIG 0.18  C 
ATOM     14  CG  PRO B   6      -7.217  -7.052  14.999  1.00 52.79 LIG 0.02  C 
ATOM     15  CB  PRO B   6      -6.780  -6.152  13.910  1.00 51.93 LIG 0.04  C 
ATOM     16 O    THR B   5     -10.546  -4.300  13.456  1.00 54.19 LIG-0.27  OA
BRANCH 13 17
ATOM     17  C   PRO B   6      -8.088  -4.762  12.275  1.00 51.04 LIG 0.24  C 
ATOM     18 O    PRO B   6      -8.685  -3.722  11.981  1.00 50.92 LIG-0.27  OA
ATOM     19  N   CYS B   7      -7.569  -5.588  11.365  1.00 49.72 LIG-0.34  N 
ATOM     20 H    CYS B   7      -7.233  -6.357  11.547  1.00 49.72 LIG 0.16  HD
BRANCH 19 21
ATOM     21  CA  CYS B   7      -7.536  -5.223   9.934  1.00 48.85 LIG 0.19  C 
BRANCH 21 22
ATOM     22  C   CYS B   7      -6.881  -3.871   9.655  1.00 48.04 LIG 0.20  C 
ATOM     23 OXT  CYS B   7      -7.168  -3.211   8.660  1.00 47.16 LIG-0.65  OA
ATOM     24 O    CYS B   7      -6.047  -3.417  10.434  1.00 47.51 LIG-0.65  OA
ENDBRANCH 21 22
BRANCH 21 25
ATOM     25  CB  CYS B   7      -8.947  -5.274   9.333  1.00 48.98 LIG 0.11  C 
BRANCH 25 26
ATOM     26 SG   CYS B   7     -10.012  -6.458  10.181  1.00 48.50 LIG-0.18  SA
ATOM     27 HG   CYS B   7     -10.357  -6.002  11.236  1.00 48.50 LIG 0.10  HD
ENDBRANCH 25 26
ENDBRANCH 21 25
ENDBRANCH 19 21
ENDBRANCH 13 17
ENDBRANCH 5 10
ENDBRANCH 3 5
BRANCH 1 28
ATOM     28  CA  SER B   4     -12.432  -9.762  13.221  1.00 57.59 LIG 0.20  C 
BRANCH 28 29
ATOM     29  N   SER B   4     -13.298 -10.718  13.923  1.00 58.14 LIG-0.34  N 
ATOM     30  C   SER B   3     -13.348 -10.792  15.253  1.00 58.75 LIG 0.24  C 
ATOM     31 O    SER B   3     -12.798  -9.964  15.984  1.00 58.75 LIG-0.27  OA
ATOM     32 H    SER B   4     -13.763 -11.219  13.401  1.00 58.14 LIG 0.16  HD
BRANCH 30 33
ATOM     33  CA  SER B   3     -14.155 -11.963  15.856  1.00 59.17 LIG 0.20  C 
BRANCH 33 34
ATOM     34  N   SER B   3     -15.229 -12.384  14.944  1.00 59.50 LIG-0.34  N 
ATOM     35  C   PRO B   2     -16.247 -11.615  14.534  1.00 59.86 LIG 0.25  C 
ATOM     36 O    PRO B   2     -17.165 -12.065  13.839  1.00 59.80 LIG-0.27  OA
ATOM     37 H    SER B   3     -15.142 -13.201  14.687  1.00 59.50 LIG 0.16  HD
BRANCH 35 38
ATOM     38  CA  PRO B   2     -16.289 -10.133  14.941  1.00 60.11 LIG 0.35  C 
ATOM     39  CB  PRO B   2     -17.633  -9.767  15.590  1.00 60.16 LIG 0.05  C 
ATOM     40  CG  PRO B   2     -18.003  -8.435  15.030  1.00 60.30 LIG 0.04  C 
ATOM     41  CD  PRO B   2     -17.410  -8.375  13.662  1.00 60.25 LIG 0.32  C 
ATOM     42  N   PRO B   2     -16.230  -9.251  13.765  1.00 60.27 LIG 0.32  N 
ENDBRANCH 35 38
ENDBRANCH 33 34
BRANCH 33 43
ATOM     43  CB  SER B   3     -13.219 -13.142  16.150  1.00 59.26 LIG 0.20  C 
BRANCH 43 44
ATOM     44 OG   SER B   3     -13.208 -13.448  17.535  1.00 59.53 LIG-0.40  OA
ATOM     45 HG   SER B   3     -12.421 -13.403  17.825  1.00 59.53 LIG 0.21  HD
ENDBRANCH 43 44
ENDBRANCH 33 43
ENDBRANCH 30 33
ENDBRANCH 28 29
BRANCH 28 46
ATOM     46  CB  SER B   4     -12.746  -9.825  11.725  1.00 57.64 LIG 0.20  C 
BRANCH 46 47
ATOM     47 OG   SER B   4     -13.450 -11.017  11.405  1.00 57.32 LIG-0.40  OA
ATOM     48 HG   SER B   4     -13.689 -10.995  10.601  1.00 57.32 LIG 0.21  HD
ENDBRANCH 46 47
ENDBRANCH 28 46
ENDBRANCH 1 28
TORSDOF 18
ENDMDL
MODEL 26
USER: ADFR SOLUTION from run 51
USER: SCORE 13.503368 LL:  -2.773 LR: -11.994 RR:   0.000 FEB:  -6.625
USER: RMSD 7.501390
USER: SEED 50
USER: STATUS no improvement in best in 13 clusters for 5 generations
USER: GENES 20
USER: genes 0 Translation |==|  0.66211 0.54287 0.48465
USER: genes 1 Rotation |==|  0.93731 0.67097 0.41732 0.65063
USER: genes 2 Torsion [C]-N--CA-[CB] |==|  0.16759
USER: genes 3 Torsion [N]-CA--CB-[CG2] |==|  0.68503
USER: genes 4 Torsion [CA]-CB--OG1-[HG1] |==|  0.47349
USER: genes 5 Torsion [N]-CA--C-[N] |==|  0.13889
USER: genes 6 Torsion [N]-CA--C-[O] |==|  0.79043
USER: genes 7 Torsion [C]-N--CA-[CB] |==|  0.49298
USER: genes 8 Torsion [N]-CA--C-[O] |==|  0.23148
USER: genes 9 Torsion [N]-CA--CB-[SG] |==|  0.88790
USER: genes 10 Torsion [CA]-CB--SG-[HG] |==|  0.26984
USER: genes 11 Torsion [N]-C--CA-[N] |==|  0.25589
USER: genes 12 Torsion [C]-CA--N-[C] |==|  0.80355
USER: genes 13 Torsion [N]-C--CA-[N] |==|  0.20683
USER: genes 14 Torsion [C]-CA--N-[C] |==|  0.68956
USER: genes 15 Torsion [N]-C--CA-[N] |==|  0.19647
USER: genes 16 Torsion [C]-CA--CB-[OG] |==|  0.35958
USER: genes 17 Torsion [CA]-CB--OG-[HG] |==|  0.50386
USER: genes 18 Torsion [C]-CA--CB-[OG] |==|  0.64364
USER: genes 19 Torsion [CA]-CB--OG-[HG] |==|  0.33349
ROOT
ATOM      1  C   SER B   4     -14.926  -7.208  14.816  1.00 56.97 LIG 0.24  C 
ATOM      2 O    SER B   4     -15.163  -6.389  15.710  1.00 57.23 LIG-0.27  OA
ATOM      3  N   THR B   5     -13.773  -7.230  14.140  1.00 55.89 LIG-0.34  N 
ATOM      4 H    THR B   5     -13.600  -7.785  13.506  1.00 55.89 LIG 0.16  HD
ENDROOT
BRANCH 3 5
ATOM      5  CA  THR B   5     -12.685  -6.283  14.434  1.00 55.10 LIG 0.20  C 
BRANCH 5 6
ATOM      6  CB  THR B   5     -12.177  -6.424  15.914  1.00 55.33 LIG 0.15  C 
ATOM      7  CG2 THR B   5     -12.493  -5.172  16.744  1.00 55.26 LIG 0.04  C 
BRANCH 6 8
ATOM      8 OG1  THR B   5     -12.774  -7.573  16.540  1.00 55.55 LIG-0.39  OA
ATOM      9 HG1  THR B   5     -12.401  -7.714  17.279  1.00 55.55 LIG 0.21  HD
ENDBRANCH 6 8
ENDBRANCH 5 6
BRANCH 5 10
ATOM     10  C   THR B   5     -11.495  -6.381  13.460  1.00 54.13 LIG 0.24  C 
ATOM     11  N   PRO B   6     -11.772  -6.359  12.137  1.00 52.90 LIG-0.34  N 
ATOM     12  CD  PRO B   6     -13.101  -6.345  11.496  1.00 52.89 LIG 0.13  C 
ATOM     13  CA  PRO B   6     -10.685  -6.354  11.147  1.00 51.99 LIG 0.18  C 
ATOM     14  CG  PRO B   6     -12.794  -6.460  10.024  1.00 52.79 LIG 0.02  C 
ATOM     15  CB  PRO B   6     -11.398  -6.012   9.834  1.00 51.93 LIG 0.04  C 
ATOM     16 O    THR B   5     -10.337  -6.453  13.896  1.00 54.19 LIG-0.27  OA
BRANCH 13 17
ATOM     17  C   PRO B   6      -9.645  -5.291  11.484  1.00 51.04 LIG 0.24  C 
ATOM     18 O    PRO B   6      -9.898  -4.103  11.265  1.00 50.92 LIG-0.27  OA
ATOM     19  N   CYS B   7      -8.493  -5.706  12.015  1.00 49.72 LIG-0.34  N 
ATOM     20 H    CYS B   7      -8.266  -6.532  12.089  1.00 49.72 LIG 0.16  HD
BRANCH 19 21
ATOM     21  CA  CYS B   7      -7.497  -4.743  12.527  1.00 48.85 LIG 0.19  C 
BRANCH 21 22
ATOM     22  C   CYS B   7      -7.030  -3.725  11.487  1.00 48.04 LIG 0.20  C 
ATOM     23 OXT  CYS B   7      -5.995  -3.890  10.847  1.00 47.16 LIG-0.65  OA
ATOM     24 O    CYS B   7      -7.693  -2.714  11.271  1.00 47.51 LIG-0.65  OA
ENDBRANCH 21 22
BRANCH 21 25
ATOM     25  CB  CYS B   7      -6.298  -5.482  13.136  1.00 48.98 LIG 0.11  C 
BRANCH 25 26
ATOM     26 SG   CYS B   7      -6.798  -6.930  14.090  1.00 48.50 LIG-0.18  SA
ATOM     27 HG   CYS B   7      -6.696  -7.913  13.408  1.00 48.50 LIG 0.10  HD
ENDBRANCH 25 26
ENDBRANCH 21 25
ENDBRANCH 19 21
ENDBRANCH 13 17
ENDBRANCH 5 10
ENDBRANCH 3 5
BRANCH 1 28
ATOM     28  CA  SER B   4     -15.978  -8.254  14.429  1.00 57.59 LIG 0.20  C 
BRANCH 28 29
ATOM     29  N   SER B   4     -15.878  -9.479  15.232  1.00 58.14 LIG-0.34  N 
ATOM     30  C   SER B   3     -14.870 -10.342  15.096  1.00 58.75 LIG 0.24  C 
ATOM     31 O    SER B   3     -13.876 -10.096  14.407  1.00 58.75 LIG-0.27  OA
ATOM     32 H    SER B   4     -16.523  -9.586  15.791  1.00 58.14 LIG 0.16  HD
BRANCH 30 33
ATOM     33  CA  SER B   3     -14.985 -11.676  15.865  1.00 59.17 LIG 0.20  C 
BRANCH 33 34
ATOM     34  N   SER B   3     -15.959 -12.570  15.221  1.00 59.50 LIG-0.34  N 
ATOM     35  C   PRO B   2     -17.143 -12.929  15.735  1.00 59.86 LIG 0.25  C 
ATOM     36 O    PRO B   2     -17.871 -13.759  15.179  1.00 59.80 LIG-0.27  OA
ATOM     37 H    SER B   3     -15.691 -12.853  14.454  1.00 59.50 LIG 0.16  HD
BRANCH 35 38
ATOM     38  CA  PRO B   2     -17.616 -12.306  17.059  1.00 60.11 LIG 0.35  C 
ATOM     39  CB  PRO B   2     -18.926 -12.946  17.544  1.00 60.16 LIG 0.05  C 
ATOM     40  CG  PRO B   2     -19.764 -11.819  18.045  1.00 60.30 LIG 0.04  C 
ATOM     41  CD  PRO B   2     -19.377 -10.619  17.247  1.00 60.25 LIG 0.32  C 
ATOM     42  N   PRO B   2     -17.975 -10.890  16.888  1.00 60.27 LIG 0.32  N 
ENDBRANCH 35 38
ENDBRANCH 33 34
BRANCH 33 43
ATOM     43  CB  SER B   3     -13.612 -12.354  15.938  1.00 59.26 LIG 0.20  C 
BRANCH 43 44
ATOM     44 OG   SER B   3     -13.300 -12.728  17.270  1.00 59.53 LIG-0.40  OA
ATOM     45 HG   SER B   3     -12.538 -13.080  17.290  1.00 59.53 LIG 0.21  HD
ENDBRANCH 43 44
ENDBRANCH 33 43
ENDBRANCH 30 33
ENDBRANCH 28 29
BRANCH 28 46
ATOM     46  CB  SER B   4     -17.383  -7.671  14.599  1.00 57.64 LIG 0.20  C 
BRANCH 46 47
ATOM     47 OG   SER B   4     -18.195  -8.531  15.386  1.00 57.32 LIG-0.40  OA
ATOM     48 HG   SER B   4     -18.455  -8.123  16.072  1.00 57.32 LIG 0.21  HD
ENDBRANCH 46 47
ENDBRANCH 28 46
ENDBRANCH 1 28
TORSDOF 18
ENDMDL
MODEL 27
USER: ADFR SOLUTION from run 178
USER: SCORE 14.191582 LL:  -2.648 LR: -11.980 RR:   0.000 FEB:  -6.610
USER: RMSD 7.061687
USER: SEED 177
USER: STATUS no improvement in best in 14 clusters for 5 generations
USER: GENES 20
USER: genes 0 Translation |==|  0.64143 0.59315 0.46993
USER: genes 1 Rotation |==|  0.97799 0.61678 0.45228 0.57487
USER: genes 2 Torsion [C]-N--CA-[CB] |==|  0.17478
USER: genes 3 Torsion [N]-CA--CB-[CG2] |==|  0.70735
USER: genes 4 Torsion [CA]-CB--OG1-[HG1] |==|  0.40962
USER: genes 5 Torsion [N]-CA--C-[N] |==|  0.09729
USER: genes 6 Torsion [N]-CA--C-[O] |==|  0.97008
USER: genes 7 Torsion [C]-N--CA-[CB] |==|  0.32758
USER: genes 8 Torsion [N]-CA--C-[O] |==|  0.15649
USER: genes 9 Torsion [N]-CA--CB-[SG] |==|  0.83485
USER: genes 10 Torsion [CA]-CB--SG-[HG] |==|  0.30175
USER: genes 11 Torsion [N]-C--CA-[N] |==|  0.38967
USER: genes 12 Torsion [C]-CA--N-[C] |==|  0.57872
USER: genes 13 Torsion [N]-C--CA-[N] |==|  0.87320
USER: genes 14 Torsion [C]-CA--N-[C] |==|  0.81459
USER: genes 15 Torsion [N]-C--CA-[N] |==|  0.23300
USER: genes 16 Torsion [C]-CA--CB-[OG] |==|  0.63423
USER: genes 17 Torsion [CA]-CB--OG-[HG] |==|  0.19562
USER: genes 18 Torsion [C]-CA--CB-[OG] |==|  0.68377
USER: genes 19 Torsion [CA]-CB--OG-[HG] |==|  0.74101
ROOT
ATOM      1  C   SER B   4     -15.515  -6.454  14.607  1.00 56.97 LIG 0.24  C 
ATOM      2 O    SER B   4     -15.689  -5.914  15.704  1.00 57.23 LIG-0.27  OA
ATOM      3  N   THR B   5     -14.311  -6.574  14.040  1.00 55.89 LIG-0.34  N 
ATOM      4 H    THR B   5     -14.176  -6.934  13.271  1.00 55.89 LIG 0.16  HD
ENDROOT
BRANCH 3 5
ATOM      5  CA  THR B   5     -13.090  -6.086  14.704  1.00 55.10 LIG 0.20  C 
BRANCH 5 6
ATOM      6  CB  THR B   5     -12.820  -6.846  16.053  1.00 55.33 LIG 0.15  C 
ATOM      7  CG2 THR B   5     -13.155  -5.976  17.272  1.00 55.26 LIG 0.04  C 
BRANCH 6 8
ATOM      8 OG1  THR B   5     -13.594  -8.057  16.107  1.00 55.55 LIG-0.39  OA
ATOM      9 HG1  THR B   5     -13.169  -8.642  16.536  1.00 55.55 LIG 0.21  HD
ENDBRANCH 6 8
ENDBRANCH 5 6
BRANCH 5 10
ATOM     10  C   THR B   5     -11.835  -6.136  13.814  1.00 54.13 LIG 0.24  C 
ATOM     11  N   PRO B   6     -11.998  -5.888  12.495  1.00 52.90 LIG-0.34  N 
ATOM     12  CD  PRO B   6     -13.265  -5.660  11.772  1.00 52.89 LIG 0.13  C 
ATOM     13  CA  PRO B   6     -10.836  -5.826  11.598  1.00 51.99 LIG 0.18  C 
ATOM     14  CG  PRO B   6     -12.846  -5.575  10.326  1.00 52.79 LIG 0.02  C 
ATOM     15  CB  PRO B   6     -11.409  -5.226  10.309  1.00 51.93 LIG 0.04  C 
ATOM     16 O    THR B   5     -10.726  -6.375  14.313  1.00 54.19 LIG-0.27  OA
BRANCH 13 17
ATOM     17  C   PRO B   6      -9.751  -4.921  12.173  1.00 51.04 LIG 0.24  C 
ATOM     18 O    PRO B   6     -10.006  -4.211  13.150  1.00 50.92 LIG-0.27  OA
ATOM     19  N   CYS B   7      -8.555  -4.946  11.583  1.00 49.72 LIG-0.34  N 
ATOM     20 H    CYS B   7      -8.386  -5.362  10.850  1.00 49.72 LIG 0.16  HD
BRANCH 19 21
ATOM     21  CA  CYS B   7      -7.399  -4.234  12.167  1.00 48.85 LIG 0.19  C 
BRANCH 21 22
ATOM     22  C   CYS B   7      -6.853  -3.113  11.285  1.00 48.04 LIG 0.20  C 
ATOM     23 OXT  CYS B   7      -5.677  -3.090  10.928  1.00 47.16 LIG-0.65  OA
ATOM     24 O    CYS B   7      -7.591  -2.205  10.911  1.00 47.51 LIG-0.65  OA
ENDBRANCH 21 22
BRANCH 21 25
ATOM     25  CB  CYS B   7      -6.286  -5.226  12.533  1.00 48.98 LIG 0.11  C 
BRANCH 25 26
ATOM     26 SG   CYS B   7      -6.835  -6.464  13.725  1.00 48.50 LIG-0.18  SA
ATOM     27 HG   CYS B   7      -6.933  -7.529  13.180  1.00 48.50 LIG 0.10  HD
ENDBRANCH 25 26
ENDBRANCH 21 25
ENDBRANCH 19 21
ENDBRANCH 13 17
ENDBRANCH 5 10
ENDBRANCH 3 5
BRANCH 1 28
ATOM     28  CA  SER B   4     -16.709  -7.013  13.824  1.00 57.59 LIG 0.20  C 
BRANCH 28 29
ATOM     29  N   SER B   4     -17.685  -7.689  14.689  1.00 58.14 LIG-0.34  N 
ATOM     30  C   SER B   3     -18.460  -8.681  14.251  1.00 58.75 LIG 0.24  C 
ATOM     31 O    SER B   3     -18.304  -9.206  13.145  1.00 58.75 LIG-0.27  OA
ATOM     32 H    SER B   4     -17.708  -7.387  15.494  1.00 58.14 LIG 0.16  HD
BRANCH 30 33
ATOM     33  CA  SER B   3     -19.568  -9.174  15.207  1.00 59.17 LIG 0.20  C 
BRANCH 33 34
ATOM     34  N   SER B   3     -19.044  -9.351  16.570  1.00 59.50 LIG-0.34  N 
ATOM     35  C   PRO B   2     -18.141 -10.268  16.942  1.00 59.86 LIG 0.25  C 
ATOM     36 O    PRO B   2     -17.815 -10.420  18.125  1.00 59.80 LIG-0.27  OA
ATOM     37 H    SER B   3     -19.383  -8.792  17.129  1.00 59.50 LIG 0.16  HD
BRANCH 35 38
ATOM     38  CA  PRO B   2     -17.491 -11.168  15.878  1.00 60.11 LIG 0.35  C 
ATOM     39  CB  PRO B   2     -16.862 -12.419  16.510  1.00 60.16 LIG 0.05  C 
ATOM     40  CG  PRO B   2     -15.558 -12.612  15.813  1.00 60.30 LIG 0.04  C 
ATOM     41  CD  PRO B   2     -15.092 -11.253  15.410  1.00 60.25 LIG 0.32  C 
ATOM     42  N   PRO B   2     -16.347 -10.502  15.237  1.00 60.27 LIG 0.32  N 
ENDBRANCH 35 38
ENDBRANCH 33 34
BRANCH 33 43
ATOM     43  CB  SER B   3     -20.731  -8.174  15.213  1.00 59.26 LIG 0.20  C 
BRANCH 43 44
ATOM     44 OG   SER B   3     -21.122  -7.858  16.540  1.00 59.53 LIG-0.40  OA
ATOM     45 HG   SER B   3     -20.525  -7.392  16.904  1.00 59.53 LIG 0.21  HD
ENDBRANCH 43 44
ENDBRANCH 33 43
ENDBRANCH 30 33
ENDBRANCH 28 29
BRANCH 28 46
ATOM     46  CB  SER B   4     -17.419  -5.883  13.075  1.00 57.64 LIG 0.20  C 
BRANCH 46 47
ATOM     47 OG   SER B   4     -18.726  -5.676  13.593  1.00 57.32 LIG-0.40  OA
ATOM     48 HG   SER B   4     -19.278  -6.126  13.149  1.00 57.32 LIG 0.21  HD
ENDBRANCH 46 47
ENDBRANCH 28 46
ENDBRANCH 1 28
TORSDOF 18
ENDMDL
MODEL 28
USER: ADFR SOLUTION from run 22
USER: SCORE 13.976094 LL:  -3.165 LR: -11.982 RR:   0.000 FEB:  -6.613
USER: RMSD 5.720850
USER: SEED 21
USER: STATUS no improvement in best in 6 clusters for 5 generations
USER: GENES 20
USER: genes 0 Translation |==|  0.59311 0.55002 0.40594
USER: genes 1 Rotation |==|  0.57516 0.32472 0.38122 0.94668
USER: genes 2 Torsion [C]-N--CA-[CB] |==|  0.78209
USER: genes 3 Torsion [N]-CA--CB-[CG2] |==|  0.59958
USER: genes 4 Torsion [CA]-CB--OG1-[HG1] |==|  0.26410
USER: genes 5 Torsion [N]-CA--C-[N] |==|  0.13889
USER: genes 6 Torsion [N]-CA--C-[O] |==|  0.85072
USER: genes 7 Torsion [C]-N--CA-[CB] |==|  0.19801
USER: genes 8 Torsion [N]-CA--C-[O] |==|  0.22126
USER: genes 9 Torsion [N]-CA--CB-[SG] |==|  0.53566
USER: genes 10 Torsion [CA]-CB--SG-[HG] |==|  0.80777
USER: genes 11 Torsion [N]-C--CA-[N] |==|  0.88794
USER: genes 12 Torsion [C]-CA--N-[C] |==|  0.64455
USER: genes 13 Torsion [N]-C--CA-[N] |==|  0.00682
USER: genes 14 Torsion [C]-CA--N-[C] |==|  0.64471
USER: genes 15 Torsion [N]-C--CA-[N] |==|  0.37486
USER: genes 16 Torsion [C]-CA--CB-[OG] |==|  0.81704
USER: genes 17 Torsion [CA]-CB--OG-[HG] |==|  0.47352
USER: genes 18 Torsion [C]-CA--CB-[OG] |==|  0.70337
USER: genes 19 Torsion [CA]-CB--OG-[HG] |==|  0.79836
ROOT
ATOM      1  C   SER B   4     -16.892  -7.101  13.695  1.00 56.97 LIG 0.24  C 
ATOM      2 O    SER B   4     -16.282  -7.103  12.621  1.00 57.23 LIG-0.27  OA
ATOM      3  N   THR B   5     -16.291  -7.299  14.872  1.00 55.89 LIG-0.34  N 
ATOM      4 H    THR B   5     -16.705  -7.315  15.625  1.00 55.89 LIG 0.16  HD
ENDROOT
BRANCH 3 5
ATOM      5  CA  THR B   5     -14.837  -7.512  14.972  1.00 55.10 LIG 0.20  C 
BRANCH 5 6
ATOM      6  CB  THR B   5     -14.438  -8.982  14.585  1.00 55.33 LIG 0.15  C 
ATOM      7  CG2 THR B   5     -13.272  -9.497  15.440  1.00 55.26 LIG 0.04  C 
BRANCH 6 8
ATOM      8 OG1  THR B   5     -15.564  -9.863  14.737  1.00 55.55 LIG-0.39  OA
ATOM      9 HG1  THR B   5     -15.955  -9.949  13.999  1.00 55.55 LIG 0.21  HD
ENDBRANCH 6 8
ENDBRANCH 5 6
BRANCH 5 10
ATOM     10  C   THR B   5     -14.003  -6.509  14.154  1.00 54.13 LIG 0.24  C 
ATOM     11  N   PRO B   6     -14.282  -5.196  14.311  1.00 52.90 LIG-0.34  N 
ATOM     12  CD  PRO B   6     -15.365  -4.595  15.113  1.00 52.89 LIG 0.13  C 
ATOM     13  CA  PRO B   6     -13.468  -4.174  13.636  1.00 51.99 LIG 0.18  C 
ATOM     14  CG  PRO B   6     -15.271  -3.122  14.804  1.00 52.79 LIG 0.02  C 
ATOM     15  CB  PRO B   6     -13.900  -2.868  14.312  1.00 51.93 LIG 0.04  C 
ATOM     16 O    THR B   5     -13.102  -6.913  13.405  1.00 54.19 LIG-0.27  OA
BRANCH 13 17
ATOM     17  C   PRO B   6     -11.981  -4.427  13.860  1.00 51.04 LIG 0.24  C 
ATOM     18 O    PRO B   6     -11.552  -4.550  15.011  1.00 50.92 LIG-0.27  OA
ATOM     19  N   CYS B   7     -11.203  -4.508  12.779  1.00 49.72 LIG-0.34  N 
ATOM     20 H    CYS B   7     -11.467  -4.336  11.980  1.00 49.72 LIG 0.16  HD
BRANCH 19 21
ATOM     21  CA  CYS B   7      -9.787  -4.915  12.886  1.00 48.85 LIG 0.19  C 
BRANCH 21 22
ATOM     22  C   CYS B   7      -8.952  -4.578  11.651  1.00 48.04 LIG 0.20  C 
ATOM     23 OXT  CYS B   7      -8.683  -5.427  10.805  1.00 47.16 LIG-0.65  OA
ATOM     24 O    CYS B   7      -8.533  -3.436  11.482  1.00 47.51 LIG-0.65  OA
ENDBRANCH 21 22
BRANCH 21 25
ATOM     25  CB  CYS B   7      -9.679  -6.409  13.220  1.00 48.98 LIG 0.11  C 
BRANCH 25 26
ATOM     26 SG   CYS B   7      -8.013  -6.881  13.724  1.00 48.50 LIG-0.18  SA
ATOM     27 HG   CYS B   7      -7.275  -6.814  12.780  1.00 48.50 LIG 0.10  HD
ENDBRANCH 25 26
ENDBRANCH 21 25
ENDBRANCH 19 21
ENDBRANCH 13 17
ENDBRANCH 5 10
ENDBRANCH 3 5
BRANCH 1 28
ATOM     28  CA  SER B   4     -18.409  -6.875  13.720  1.00 57.59 LIG 0.20  C 
BRANCH 28 29
ATOM     29  N   SER B   4     -19.094  -7.752  14.679  1.00 58.14 LIG-0.34  N 
ATOM     30  C   SER B   3     -20.136  -8.509  14.335  1.00 58.75 LIG 0.24  C 
ATOM     31 O    SER B   3     -20.496  -8.648  13.163  1.00 58.75 LIG-0.27  OA
ATOM     32 H    SER B   4     -18.763  -7.730  15.473  1.00 58.14 LIG 0.16  HD
BRANCH 30 33
ATOM     33  CA  SER B   3     -20.876  -9.236  15.479  1.00 59.17 LIG 0.20  C 
BRANCH 33 34
ATOM     34  N   SER B   3     -20.293  -8.890  16.784  1.00 59.50 LIG-0.34  N 
ATOM     35  C   PRO B   2     -19.885  -9.769  17.710  1.00 59.86 LIG 0.25  C 
ATOM     36 O    PRO B   2     -19.490  -9.406  18.824  1.00 59.80 LIG-0.27  OA
ATOM     37 H    SER B   3     -20.236  -8.041  16.905  1.00 59.50 LIG 0.16  HD
BRANCH 35 38
ATOM     38  CA  PRO B   2     -19.913 -11.273  17.392  1.00 60.11 LIG 0.35  C 
ATOM     39  CB  PRO B   2     -20.995 -11.998  18.208  1.00 60.16 LIG 0.05  C 
ATOM     40  CG  PRO B   2     -20.373 -13.276  18.659  1.00 60.30 LIG 0.04  C 
ATOM     41  CD  PRO B   2     -18.912 -13.006  18.799  1.00 60.25 LIG 0.32  C 
ATOM     42  N   PRO B   2     -18.670 -11.935  17.818  1.00 60.27 LIG 0.32  N 
ENDBRANCH 35 38
ENDBRANCH 33 34
BRANCH 33 43
ATOM     43  CB  SER B   3     -22.365  -8.869  15.451  1.00 59.26 LIG 0.20  C 
BRANCH 43 44
ATOM     44 OG   SER B   3     -22.555  -7.495  15.746  1.00 59.53 LIG-0.40  OA
ATOM     45 HG   SER B   3     -23.354  -7.285  15.599  1.00 59.53 LIG 0.21  HD
ENDBRANCH 43 44
ENDBRANCH 33 43
ENDBRANCH 30 33
ENDBRANCH 28 29
BRANCH 28 46
ATOM     46  CB  SER B   4     -18.715  -5.420  14.082  1.00 57.64 LIG 0.20  C 
BRANCH 46 47
ATOM     47 OG   SER B   4     -19.218  -5.324  15.408  1.00 57.32 LIG-0.40  OA
ATOM     48 HG   SER B   4     -20.002  -5.623  15.432  1.00 57.32 LIG 0.21  HD
ENDBRANCH 46 47
ENDBRANCH 28 46
ENDBRANCH 1 28
TORSDOF 18
ENDMDL
MODEL 29
USER: ADFR SOLUTION from run 45
USER: SCORE 14.126288 LL:  -2.683 LR: -11.974 RR:   0.000 FEB:  -6.605
USER: RMSD 8.926222
USER: SEED 44
USER: STATUS no improvement in best in 11 clusters for 5 generations
USER: GENES 20
USER: genes 0 Translation |==|  0.75155 0.69333 0.47872
USER: genes 1 Rotation |==|  0.88853 0.45435 0.19906 0.57998
USER: genes 2 Torsion [C]-N--CA-[CB] |==|  0.56722
USER: genes 3 Torsion [N]-CA--CB-[CG2] |==|  0.20560
USER: genes 4 Torsion [CA]-CB--OG1-[HG1] |==|  0.85410
USER: genes 5 Torsion [N]-CA--C-[N] |==|  0.36426
USER: genes 6 Torsion [N]-CA--C-[O] |==|  0.26911
USER: genes 7 Torsion [C]-N--CA-[CB] |==|  0.75170
USER: genes 8 Torsion [N]-CA--C-[O] |==|  0.62128
USER: genes 9 Torsion [N]-CA--CB-[SG] |==|  0.87685
USER: genes 10 Torsion [CA]-CB--SG-[HG] |==|  0.28151
USER: genes 11 Torsion [N]-C--CA-[N] |==|  0.03257
USER: genes 12 Torsion [C]-CA--N-[C] |==|  0.67156
USER: genes 13 Torsion [N]-C--CA-[N] |==|  0.02152
USER: genes 14 Torsion [C]-CA--N-[C] |==|  0.76111
USER: genes 15 Torsion [N]-C--CA-[N] |==|  0.33141
USER: genes 16 Torsion [C]-CA--CB-[OG] |==|  0.57013
USER: genes 17 Torsion [CA]-CB--OG-[HG] |==|  0.56317
USER: genes 18 Torsion [C]-CA--CB-[OG] |==|  0.03558
USER: genes 19 Torsion [CA]-CB--OG-[HG] |==|  0.20573
ROOT
ATOM      1  C   SER B   4     -12.377  -4.951  14.732  1.00 56.97 LIG 0.24  C 
ATOM      2 O    SER B   4     -11.298  -4.463  15.084  1.00 57.23 LIG-0.27  OA
ATOM      3  N   THR B   5     -12.473  -5.895  13.790  1.00 55.89 LIG-0.34  N 
ATOM      4 H    THR B   5     -13.218  -6.233  13.525  1.00 55.89 LIG 0.16  HD
ENDROOT
BRANCH 3 5
ATOM      5  CA  THR B   5     -11.283  -6.441  13.117  1.00 55.10 LIG 0.20  C 
BRANCH 5 6
ATOM      6  CB  THR B   5     -11.635  -7.032  11.704  1.00 55.33 LIG 0.15  C 
ATOM      7  CG2 THR B   5     -11.901  -5.925  10.675  1.00 55.26 LIG 0.04  C 
BRANCH 6 8
ATOM      8 OG1  THR B   5     -10.566  -7.871  11.233  1.00 55.55 LIG-0.39  OA
ATOM      9 HG1  THR B   5      -9.841  -7.449  11.269  1.00 55.55 LIG 0.21  HD
ENDBRANCH 6 8
ENDBRANCH 5 6
BRANCH 5 10
ATOM     10  C   THR B   5     -10.123  -5.435  12.989  1.00 54.13 LIG 0.24  C 
ATOM     11  N   PRO B   6      -8.895  -5.852  13.370  1.00 52.90 LIG-0.34  N 
ATOM     12  CD  PRO B   6      -8.534  -7.144  13.987  1.00 52.89 LIG 0.13  C 
ATOM     13  CA  PRO B   6      -7.723  -4.983  13.191  1.00 51.99 LIG 0.18  C 
ATOM     14  CG  PRO B   6      -7.069  -6.993  14.312  1.00 52.79 LIG 0.02  C 
ATOM     15  CB  PRO B   6      -6.539  -5.923  13.440  1.00 51.93 LIG 0.04  C 
ATOM     16 O    THR B   5     -10.329  -4.301  12.533  1.00 54.19 LIG-0.27  OA
BRANCH 13 17
ATOM     17  C   PRO B   6      -7.673  -4.420  11.775  1.00 51.04 LIG 0.24  C 
ATOM     18 O    PRO B   6      -8.120  -3.291  11.553  1.00 50.92 LIG-0.27  OA
ATOM     19  N   CYS B   7      -7.132  -5.189  10.828  1.00 49.72 LIG-0.34  N 
ATOM     20 H    CYS B   7      -6.899  -6.008  10.945  1.00 49.72 LIG 0.16  HD
BRANCH 19 21
ATOM     21  CA  CYS B   7      -6.887  -4.667   9.468  1.00 48.85 LIG 0.19  C 
BRANCH 21 22
ATOM     22  C   CYS B   7      -6.461  -3.201   9.436  1.00 48.04 LIG 0.20  C 
ATOM     23 OXT  CYS B   7      -5.631  -2.755  10.225  1.00 47.16 LIG-0.65  OA
ATOM     24 O    CYS B   7      -6.946  -2.434   8.608  1.00 47.51 LIG-0.65  OA
ENDBRANCH 21 22
BRANCH 21 25
ATOM     25  CB  CYS B   7      -8.116  -4.893   8.576  1.00 48.98 LIG 0.11  C 
BRANCH 25 26
ATOM     26 SG   CYS B   7      -8.809  -6.547   8.770  1.00 48.50 LIG-0.18  SA
ATOM     27 HG   CYS B   7      -9.778  -6.495   9.475  1.00 48.50 LIG 0.10  HD
ENDBRANCH 25 26
ENDBRANCH 21 25
ENDBRANCH 19 21
ENDBRANCH 13 17
ENDBRANCH 5 10
ENDBRANCH 3 5
BRANCH 1 28
ATOM     28  CA  SER B   4     -13.686  -4.473  15.371  1.00 57.59 LIG 0.20  C 
BRANCH 28 29
ATOM     29  N   SER B   4     -14.827  -5.332  15.031  1.00 58.14 LIG-0.34  N 
ATOM     30  C   SER B   3     -15.887  -4.880  14.360  1.00 58.75 LIG 0.24  C 
ATOM     31 O    SER B   3     -15.914  -3.760  13.843  1.00 58.75 LIG-0.27  OA
ATOM     32 H    SER B   4     -14.748  -6.145  15.303  1.00 58.14 LIG 0.16  HD
BRANCH 30 33
ATOM     33  CA  SER B   3     -17.092  -5.836  14.235  1.00 59.17 LIG 0.20  C 
BRANCH 33 34
ATOM     34  N   SER B   3     -16.897  -7.038  15.061  1.00 59.50 LIG-0.34  N 
ATOM     35  C   PRO B   2     -16.244  -8.144  14.681  1.00 59.86 LIG 0.25  C 
ATOM     36 O    PRO B   2     -16.199  -9.152  15.395  1.00 59.80 LIG-0.27  OA
ATOM     37 H    SER B   3     -17.254  -6.964  15.840  1.00 59.50 LIG 0.16  HD
BRANCH 35 38
ATOM     38  CA  PRO B   2     -15.534  -8.175  13.317  1.00 60.11 LIG 0.35  C 
ATOM     39  CB  PRO B   2     -15.992  -9.376  12.474  1.00 60.16 LIG 0.05  C 
ATOM     40  CG  PRO B   2     -14.757  -9.917  11.837  1.00 60.30 LIG 0.04  C 
ATOM     41  CD  PRO B   2     -13.634  -9.618  12.775  1.00 60.25 LIG 0.32  C 
ATOM     42  N   PRO B   2     -14.089  -8.400  13.469  1.00 60.27 LIG 0.32  N 
ENDBRANCH 35 38
ENDBRANCH 33 34
BRANCH 33 43
ATOM     43  CB  SER B   3     -18.377  -5.111  14.652  1.00 59.26 LIG 0.20  C 
BRANCH 43 44
ATOM     44 OG   SER B   3     -19.357  -6.032  15.103  1.00 59.53 LIG-0.40  OA
ATOM     45 HG   SER B   3     -20.119  -5.687  15.030  1.00 59.53 LIG 0.21  HD
ENDBRANCH 43 44
ENDBRANCH 33 43
ENDBRANCH 30 33
ENDBRANCH 28 29
BRANCH 28 46
ATOM     46  CB  SER B   4     -13.540  -4.433  16.894  1.00 57.64 LIG 0.20  C 
BRANCH 46 47
ATOM     47 OG   SER B   4     -12.176  -4.558  17.275  1.00 57.32 LIG-0.40  OA
ATOM     48 HG   SER B   4     -11.773  -3.840  17.113  1.00 57.32 LIG 0.21  HD
ENDBRANCH 46 47
ENDBRANCH 28 46
ENDBRANCH 1 28
TORSDOF 18
ENDMDL
MODEL 30
USER: ADFR SOLUTION from run 145
USER: SCORE 14.481459 LL:  -3.262 LR: -11.887 RR:   0.000 FEB:  -6.518
USER: RMSD 9.555604
USER: SEED 144
USER: STATUS no improvement in best in 4 clusters for 5 generations
USER: GENES 20
USER: genes 0 Translation |==|  0.69000 0.66829 0.48519
USER: genes 1 Rotation |==|  0.95484 0.63530 0.43044 0.64134
USER: genes 2 Torsion [C]-N--CA-[CB] |==|  0.13616
USER: genes 3 Torsion [N]-CA--CB-[CG2] |==|  0.13535
USER: genes 4 Torsion [CA]-CB--OG1-[HG1] |==|  0.20466
USER: genes 5 Torsion [N]-CA--C-[N] |==|  0.11973
USER: genes 6 Torsion [N]-CA--C-[O] |==|  0.25387
USER: genes 7 Torsion [C]-N--CA-[CB] |==|  0.29460
USER: genes 8 Torsion [N]-CA--C-[O] |==|  0.37095
USER: genes 9 Torsion [N]-CA--CB-[SG] |==|  0.00180
USER: genes 10 Torsion [CA]-CB--SG-[HG] |==|  0.56531
USER: genes 11 Torsion [N]-C--CA-[N] |==|  0.08371
USER: genes 12 Torsion [C]-CA--N-[C] |==|  0.13893
USER: genes 13 Torsion [N]-C--CA-[N] |==|  0.28062
USER: genes 14 Torsion [C]-CA--N-[C] |==|  0.67734
USER: genes 15 Torsion [N]-C--CA-[N] |==|  0.84365
USER: genes 16 Torsion [C]-CA--CB-[OG] |==|  0.57718
USER: genes 17 Torsion [CA]-CB--OG-[HG] |==|  0.40559
USER: genes 18 Torsion [C]-CA--CB-[OG] |==|  0.57742
USER: genes 19 Torsion [CA]-CB--OG-[HG] |==|  0.50815
ROOT
ATOM      1  C   SER B   4     -14.131  -5.327  14.824  1.00 56.97 LIG 0.24  C 
ATOM      2 O    SER B   4     -14.334  -4.521  15.737  1.00 57.23 LIG-0.27  OA
ATOM      3  N   THR B   5     -12.936  -5.482  14.246  1.00 55.89 LIG-0.34  N 
ATOM      4 H    THR B   5     -12.783  -6.029  13.600  1.00 55.89 LIG 0.16  HD
ENDROOT
BRANCH 3 5
ATOM      5  CA  THR B   5     -11.759  -4.712  14.681  1.00 55.10 LIG 0.20  C 
BRANCH 5 6
ATOM      6  CB  THR B   5     -11.580  -4.756  16.242  1.00 55.33 LIG 0.15  C 
ATOM      7  CG2 THR B   5     -11.672  -6.189  16.784  1.00 55.26 LIG 0.04  C 
BRANCH 6 8
ATOM      8 OG1  THR B   5     -10.313  -4.188  16.616  1.00 55.55 LIG-0.39  OA
ATOM      9 HG1  THR B   5     -10.344  -3.353  16.531  1.00 55.55 LIG 0.21  HD
ENDBRANCH 6 8
ENDBRANCH 5 6
BRANCH 5 10
ATOM     10  C   THR B   5     -10.448  -5.134  13.991  1.00 54.13 LIG 0.24  C 
ATOM     11  N   PRO B   6     -10.494  -5.365  12.660  1.00 52.90 LIG-0.34  N 
ATOM     12  CD  PRO B   6     -11.682  -5.352  11.785  1.00 52.89 LIG 0.13  C 
ATOM     13  CA  PRO B   6      -9.267  -5.680  11.915  1.00 51.99 LIG 0.18  C 
ATOM     14  CG  PRO B   6     -11.152  -5.807  10.448  1.00 52.79 LIG 0.02  C 
ATOM     15  CB  PRO B   6      -9.695  -5.554  10.449  1.00 51.93 LIG 0.04  C 
ATOM     16 O    THR B   5      -9.401  -5.229  14.648  1.00 54.19 LIG-0.27  OA
BRANCH 13 17
ATOM     17  C   PRO B   6      -8.161  -4.681  12.238  1.00 51.04 LIG 0.24  C 
ATOM     18 O    PRO B   6      -7.374  -4.922  13.159  1.00 50.92 LIG-0.27  OA
ATOM     19  N   CYS B   7      -8.094  -3.577  11.492  1.00 49.72 LIG-0.34  N 
ATOM     20 H    CYS B   7      -8.685  -3.351  10.910  1.00 49.72 LIG 0.16  HD
BRANCH 19 21
ATOM     21  CA  CYS B   7      -6.962  -2.636  11.619  1.00 48.85 LIG 0.19  C 
BRANCH 21 22
ATOM     22  C   CYS B   7      -7.387  -1.183  11.823  1.00 48.04 LIG 0.20  C 
ATOM     23 OXT  CYS B   7      -8.262  -0.666  11.132  1.00 47.16 LIG-0.65  OA
ATOM     24 O    CYS B   7      -6.853  -0.499  12.692  1.00 47.51 LIG-0.65  OA
ENDBRANCH 21 22
BRANCH 21 25
ATOM     25  CB  CYS B   7      -6.021  -2.761  10.413  1.00 48.98 LIG 0.11  C 
BRANCH 25 26
ATOM     26 SG   CYS B   7      -6.592  -3.989   9.221  1.00 48.50 LIG-0.18  SA
ATOM     27 HG   CYS B   7      -5.661  -4.382   8.573  1.00 48.50 LIG 0.10  HD
ENDBRANCH 25 26
ENDBRANCH 21 25
ENDBRANCH 19 21
ENDBRANCH 13 17
ENDBRANCH 5 10
ENDBRANCH 3 5
BRANCH 1 28
ATOM     28  CA  SER B   4     -15.276  -6.197  14.294  1.00 57.59 LIG 0.20  C 
BRANCH 28 29
ATOM     29  N   SER B   4     -14.810  -7.491  13.778  1.00 58.14 LIG-0.34  N 
ATOM     30  C   SER B   3     -14.001  -8.288  14.477  1.00 58.75 LIG 0.24  C 
ATOM     31 O    SER B   3     -13.717  -8.072  15.658  1.00 58.75 LIG-0.27  OA
ATOM     32 H    SER B   4     -15.105  -7.683  12.993  1.00 58.14 LIG 0.16  HD
BRANCH 30 33
ATOM     33  CA  SER B   3     -13.440  -9.526  13.745  1.00 59.17 LIG 0.20  C 
BRANCH 33 34
ATOM     34  N   SER B   3     -12.055  -9.293  13.306  1.00 59.50 LIG-0.34  N 
ATOM     35  C   PRO B   2     -11.639  -9.258  12.033  1.00 59.86 LIG 0.25  C 
ATOM     36 O    PRO B   2     -10.443  -9.149  11.741  1.00 59.80 LIG-0.27  OA
ATOM     37 H    SER B   3     -11.515  -9.177  13.966  1.00 59.50 LIG 0.16  HD
BRANCH 35 38
ATOM     38  CA  PRO B   2     -12.668  -9.364  10.896  1.00 60.11 LIG 0.35  C 
ATOM     39  CB  PRO B   2     -13.714  -8.241  10.979  1.00 60.16 LIG 0.05  C 
ATOM     40  CG  PRO B   2     -15.024  -8.886  10.676  1.00 60.30 LIG 0.04  C 
ATOM     41  CD  PRO B   2     -14.915 -10.300  11.141  1.00 60.25 LIG 0.32  C 
ATOM     42  N   PRO B   2     -13.476 -10.588  11.015  1.00 60.27 LIG 0.32  N 
ENDBRANCH 35 38
ENDBRANCH 33 34
BRANCH 33 43
ATOM     43  CB  SER B   3     -13.503 -10.749  14.668  1.00 59.26 LIG 0.20  C 
BRANCH 43 44
ATOM     44 OG   SER B   3     -12.489 -11.685  14.342  1.00 59.53 LIG-0.40  OA
ATOM     45 HG   SER B   3     -12.223 -12.065  15.042  1.00 59.53 LIG 0.21  HD
ENDBRANCH 43 44
ENDBRANCH 33 43
ENDBRANCH 30 33
ENDBRANCH 28 29
BRANCH 28 46
ATOM     46  CB  SER B   4     -16.297  -6.452  15.405  1.00 57.64 LIG 0.20  C 
BRANCH 46 47
ATOM     47 OG   SER B   4     -16.972  -7.685  15.198  1.00 57.32 LIG-0.40  OA
ATOM     48 HG   SER B   4     -17.555  -7.789  15.794  1.00 57.32 LIG 0.21  HD
ENDBRANCH 46 47
ENDBRANCH 28 46
ENDBRANCH 1 28
TORSDOF 18
ENDMDL
MODEL 31
USER: ADFR SOLUTION from run 174
USER: SCORE 13.208613 LL:  -3.211 LR: -11.856 RR:   0.000 FEB:  -6.486
USER: RMSD 10.072952
USER: SEED 173
USER: STATUS no improvement in best in 9 clusters for 5 generations
USER: GENES 20
USER: genes 0 Translation |==|  0.79524 0.49952 0.31187
USER: genes 1 Rotation |==|  0.72431 0.38233 0.75634 0.84660
USER: genes 2 Torsion [C]-N--CA-[CB] |==|  0.49282
USER: genes 3 Torsion [N]-CA--CB-[CG2] |==|  0.55362
USER: genes 4 Torsion [CA]-CB--OG1-[HG1] |==|  0.36230
USER: genes 5 Torsion [N]-CA--C-[N] |==|  0.85474
USER: genes 6 Torsion [N]-CA--C-[O] |==|  0.22838
USER: genes 7 Torsion [C]-N--CA-[CB] |==|  0.79235
USER: genes 8 Torsion [N]-CA--C-[O] |==|  0.59432
USER: genes 9 Torsion [N]-CA--CB-[SG] |==|  0.90114
USER: genes 10 Torsion [CA]-CB--SG-[HG] |==|  0.02854
USER: genes 11 Torsion [N]-C--CA-[N] |==|  0.11881
USER: genes 12 Torsion [C]-CA--N-[C] |==|  0.13697
USER: genes 13 Torsion [N]-C--CA-[N] |==|  0.16997
USER: genes 14 Torsion [C]-CA--N-[C] |==|  0.63431
USER: genes 15 Torsion [N]-C--CA-[N] |==|  0.22366
USER: genes 16 Torsion [C]-CA--CB-[OG] |==|  0.69513
USER: genes 17 Torsion [CA]-CB--OG-[HG] |==|  0.26887
USER: genes 18 Torsion [C]-CA--CB-[OG] |==|  0.57180
USER: genes 19 Torsion [CA]-CB--OG-[HG] |==|  0.28465
ROOT
ATOM      1  C   SER B   4     -11.132  -7.858  12.354  1.00 56.97 LIG 0.24  C 
ATOM      2 O    SER B   4     -11.112  -6.955  11.513  1.00 57.23 LIG-0.27  OA
ATOM      3  N   THR B   5     -11.153  -7.624  13.670  1.00 55.89 LIG-0.34  N 
ATOM      4 H    THR B   5     -11.153  -8.242  14.268  1.00 55.89 LIG 0.16  HD
ENDROOT
BRANCH 3 5
ATOM      5  CA  THR B   5     -11.178  -6.255  14.212  1.00 55.10 LIG 0.20  C 
BRANCH 5 6
ATOM      6  CB  THR B   5     -11.265  -6.253  15.781  1.00 55.33 LIG 0.15  C 
ATOM      7  CG2 THR B   5     -11.763  -4.905  16.321  1.00 55.26 LIG 0.04  C 
BRANCH 6 8
ATOM      8 OG1  THR B   5     -12.143  -7.299  16.233  1.00 55.55 LIG-0.39  OA
ATOM      9 HG1  THR B   5     -11.762  -7.744  16.835  1.00 55.55 LIG 0.21  HD
ENDBRANCH 6 8
ENDBRANCH 5 6
BRANCH 5 10
ATOM     10  C   THR B   5      -9.996  -5.381  13.752  1.00 54.13 LIG 0.24  C 
ATOM     11  N   PRO B   6      -8.751  -5.879  13.924  1.00 52.90 LIG-0.34  N 
ATOM     12  CD  PRO B   6      -8.371  -7.139  14.593  1.00 52.89 LIG 0.13  C 
ATOM     13  CA  PRO B   6      -7.579  -5.146  13.426  1.00 51.99 LIG 0.18  C 
ATOM     14  CG  PRO B   6      -6.863  -7.101  14.604  1.00 52.79 LIG 0.02  C 
ATOM     15  CB  PRO B   6      -6.443  -6.170  13.535  1.00 51.93 LIG 0.04  C 
ATOM     16 O    THR B   5     -10.204  -4.278  13.226  1.00 54.19 LIG-0.27  OA
BRANCH 13 17
ATOM     17  C   PRO B   6      -7.778  -4.719  11.976  1.00 51.04 LIG 0.24  C 
ATOM     18 O    PRO B   6      -8.422  -3.695  11.727  1.00 50.92 LIG-0.27  OA
ATOM     19  N   CYS B   7      -7.232  -5.485  11.030  1.00 49.72 LIG-0.34  N 
ATOM     20 H    CYS B   7      -6.861  -6.246  11.180  1.00 49.72 LIG 0.16  HD
BRANCH 19 21
ATOM     21  CA  CYS B   7      -7.228  -5.065   9.614  1.00 48.85 LIG 0.19  C 
BRANCH 21 22
ATOM     22  C   CYS B   7      -6.703  -3.648   9.391  1.00 48.04 LIG 0.20  C 
ATOM     23 OXT  CYS B   7      -5.808  -3.177  10.090  1.00 47.16 LIG-0.65  OA
ATOM     24 O    CYS B   7      -7.171  -2.948   8.497  1.00 47.51 LIG-0.65  OA
ENDBRANCH 21 22
BRANCH 21 25
ATOM     25  CB  CYS B   7      -8.626  -5.226   9.001  1.00 48.98 LIG 0.11  C 
BRANCH 25 26
ATOM     26 SG   CYS B   7      -9.495  -6.670   9.645  1.00 48.50 LIG-0.18  SA
ATOM     27 HG   CYS B   7      -8.891  -7.118  10.580  1.00 48.50 LIG 0.10  HD
ENDBRANCH 25 26
ENDBRANCH 21 25
ENDBRANCH 19 21
ENDBRANCH 13 17
ENDBRANCH 5 10
ENDBRANCH 3 5
BRANCH 1 28
ATOM     28  CA  SER B   4     -11.122  -9.326  11.911  1.00 57.59 LIG 0.20  C 
BRANCH 28 29
ATOM     29  N   SER B   4     -12.053 -10.156  12.687  1.00 58.14 LIG-0.34  N 
ATOM     30  C   SER B   3     -13.323  -9.804  12.890  1.00 58.75 LIG 0.24  C 
ATOM     31 O    SER B   3     -13.846  -8.846  12.313  1.00 58.75 LIG-0.27  OA
ATOM     32 H    SER B   4     -11.706 -10.881  12.993  1.00 58.14 LIG 0.16  HD
BRANCH 30 33
ATOM     33  CA  SER B   3     -14.137 -10.670  13.875  1.00 59.17 LIG 0.20  C 
BRANCH 33 34
ATOM     34  N   SER B   3     -13.541 -10.637  15.219  1.00 59.50 LIG-0.34  N 
ATOM     35  C   PRO B   2     -13.287 -11.707  15.984  1.00 59.86 LIG 0.25  C 
ATOM     36 O    PRO B   2     -12.870 -11.597  17.143  1.00 59.80 LIG-0.27  OA
ATOM     37 H    SER B   3     -13.363  -9.837  15.481  1.00 59.50 LIG 0.16  HD
BRANCH 35 38
ATOM     38  CA  PRO B   2     -13.527 -13.117  15.419  1.00 60.11 LIG 0.35  C 
ATOM     39  CB  PRO B   2     -13.546 -14.173  16.535  1.00 60.16 LIG 0.05  C 
ATOM     40  CG  PRO B   2     -12.784 -15.338  16.001  1.00 60.30 LIG 0.04  C 
ATOM     41  CD  PRO B   2     -11.772 -14.782  15.055  1.00 60.25 LIG 0.32  C 
ATOM     42  N   PRO B   2     -12.412 -13.549  14.563  1.00 60.27 LIG 0.32  N 
ENDBRANCH 35 38
ENDBRANCH 33 34
BRANCH 33 43
ATOM     43  CB  SER B   3     -15.587 -10.174  13.927  1.00 59.26 LIG 0.20  C 
BRANCH 43 44
ATOM     44 OG   SER B   3     -15.867  -9.553  15.172  1.00 59.53 LIG-0.40  OA
ATOM     45 HG   SER B   3     -15.784  -8.721  15.094  1.00 59.53 LIG 0.21  HD
ENDBRANCH 43 44
ENDBRANCH 33 43
ENDBRANCH 30 33
ENDBRANCH 28 29
BRANCH 28 46
ATOM     46  CB  SER B   4     -11.493  -9.428  10.430  1.00 57.64 LIG 0.20  C 
BRANCH 46 47
ATOM     47 OG   SER B   4     -12.061 -10.697  10.137  1.00 57.32 LIG-0.40  OA
ATOM     48 HG   SER B   4     -12.895 -10.623  10.073  1.00 57.32 LIG 0.21  HD
ENDBRANCH 46 47
ENDBRANCH 28 46
ENDBRANCH 1 28
TORSDOF 18
ENDMDL
MODEL 32
USER: ADFR SOLUTION from run 121
USER: SCORE 12.873585 LL:  -2.618 LR: -11.838 RR:   0.000 FEB:  -6.469
USER: RMSD 7.138568
USER: SEED 120
USER: STATUS no improvement in best in 14 clusters for 5 generations
USER: GENES 20
USER: genes 0 Translation |==|  0.64488 0.55956 0.45178
USER: genes 1 Rotation |==|  0.84499 0.83376 0.39652 0.59420
USER: genes 2 Torsion [C]-N--CA-[CB] |==|  0.92778
USER: genes 3 Torsion [N]-CA--CB-[CG2] |==|  0.48103
USER: genes 4 Torsion [CA]-CB--OG1-[HG1] |==|  0.08692
USER: genes 5 Torsion [N]-CA--C-[N] |==|  0.79964
USER: genes 6 Torsion [N]-CA--C-[O] |==|  0.79578
USER: genes 7 Torsion [C]-N--CA-[CB] |==|  0.12678
USER: genes 8 Torsion [N]-CA--C-[O] |==|  0.03850
USER: genes 9 Torsion [N]-CA--CB-[SG] |==|  0.72251
USER: genes 10 Torsion [CA]-CB--SG-[HG] |==|  0.94767
USER: genes 11 Torsion [N]-C--CA-[N] |==|  0.36215
USER: genes 12 Torsion [C]-CA--N-[C] |==|  0.53216
USER: genes 13 Torsion [N]-C--CA-[N] |==|  0.37140
USER: genes 14 Torsion [C]-CA--N-[C] |==|  0.82342
USER: genes 15 Torsion [N]-C--CA-[N] |==|  0.38393
USER: genes 16 Torsion [C]-CA--CB-[OG] |==|  0.52390
USER: genes 17 Torsion [CA]-CB--OG-[HG] |==|  0.63182
USER: genes 18 Torsion [C]-CA--CB-[OG] |==|  0.79023
USER: genes 19 Torsion [CA]-CB--OG-[HG] |==|  0.14861
ROOT
ATOM      1  C   SER B   4     -15.417  -6.958  14.348  1.00 56.97 LIG 0.24  C 
ATOM      2 O    SER B   4     -15.655  -6.482  15.462  1.00 57.23 LIG-0.27  OA
ATOM      3  N   THR B   5     -14.869  -6.247  13.358  1.00 55.89 LIG-0.34  N 
ATOM      4 H    THR B   5     -14.710  -6.560  12.573  1.00 55.89 LIG 0.16  HD
ENDROOT
BRANCH 3 5
ATOM      5  CA  THR B   5     -14.484  -4.837  13.538  1.00 55.10 LIG 0.20  C 
BRANCH 5 6
ATOM      6  CB  THR B   5     -15.336  -4.141  14.660  1.00 55.33 LIG 0.15  C 
ATOM      7  CG2 THR B   5     -14.826  -2.726  14.965  1.00 55.26 LIG 0.04  C 
BRANCH 6 8
ATOM      8 OG1  THR B   5     -16.718  -4.073  14.268  1.00 55.55 LIG-0.39  OA
ATOM      9 HG1  THR B   5     -16.905  -4.733  13.783  1.00 55.55 LIG 0.21  HD
ENDBRANCH 6 8
ENDBRANCH 5 6
BRANCH 5 10
ATOM     10  C   THR B   5     -12.983  -4.632  13.816  1.00 54.13 LIG 0.24  C 
ATOM     11  N   PRO B   6     -12.520  -5.003  15.031  1.00 52.90 LIG-0.34  N 
ATOM     12  CD  PRO B   6     -13.302  -5.505  16.177  1.00 52.89 LIG 0.13  C 
ATOM     13  CA  PRO B   6     -11.085  -4.925  15.338  1.00 51.99 LIG 0.18  C 
ATOM     14  CG  PRO B   6     -12.286  -5.623  17.285  1.00 52.79 LIG 0.02  C 
ATOM     15  CB  PRO B   6     -10.955  -5.712  16.646  1.00 51.93 LIG 0.04  C 
ATOM     16 O    THR B   5     -12.245  -4.163  12.937  1.00 54.19 LIG-0.27  OA
BRANCH 13 17
ATOM     17  C   PRO B   6     -10.255  -5.577  14.236  1.00 51.04 LIG 0.24  C 
ATOM     18 O    PRO B   6     -10.236  -6.808  14.138  1.00 50.92 LIG-0.27  OA
ATOM     19  N   CYS B   7      -9.582  -4.770  13.415  1.00 49.72 LIG-0.34  N 
ATOM     20 H    CYS B   7      -9.511  -3.920  13.525  1.00 49.72 LIG 0.16  HD
BRANCH 19 21
ATOM     21  CA  CYS B   7      -8.889  -5.298  12.223  1.00 48.85 LIG 0.19  C 
BRANCH 21 22
ATOM     22  C   CYS B   7      -8.360  -4.214  11.285  1.00 48.04 LIG 0.20  C 
ATOM     23 OXT  CYS B   7      -7.990  -4.476  10.143  1.00 47.16 LIG-0.65  OA
ATOM     24 O    CYS B   7      -8.296  -3.047  11.663  1.00 47.51 LIG-0.65  OA
ENDBRANCH 21 22
BRANCH 21 25
ATOM     25  CB  CYS B   7      -9.796  -6.275  11.462  1.00 48.98 LIG 0.11  C 
BRANCH 25 26
ATOM     26 SG   CYS B   7      -9.402  -7.998  11.823  1.00 48.50 LIG-0.18  SA
ATOM     27 HG   CYS B   7      -8.297  -8.068  12.287  1.00 48.50 LIG 0.10  HD
ENDBRANCH 25 26
ENDBRANCH 21 25
ENDBRANCH 19 21
ENDBRANCH 13 17
ENDBRANCH 5 10
ENDBRANCH 3 5
BRANCH 1 28
ATOM     28  CA  SER B   4     -15.760  -8.421  14.043  1.00 57.59 LIG 0.20  C 
BRANCH 28 29
ATOM     29  N   SER B   4     -15.250  -9.345  15.065  1.00 58.14 LIG-0.34  N 
ATOM     30  C   SER B   3     -15.237 -10.666  14.888  1.00 58.75 LIG 0.24  C 
ATOM     31 O    SER B   3     -15.500 -11.193  13.804  1.00 58.75 LIG-0.27  OA
ATOM     32 H    SER B   4     -14.964  -8.957  15.778  1.00 58.14 LIG 0.16  HD
BRANCH 30 33
ATOM     33  CA  SER B   3     -14.850 -11.528  16.110  1.00 59.17 LIG 0.20  C 
BRANCH 33 34
ATOM     34  N   SER B   3     -15.783 -12.653  16.274  1.00 59.50 LIG-0.34  N 
ATOM     35  C   PRO B   2     -17.091 -12.545  16.542  1.00 59.86 LIG 0.25  C 
ATOM     36 O    PRO B   2     -17.797 -13.537  16.759  1.00 59.80 LIG-0.27  OA
ATOM     37 H    SER B   3     -15.398 -13.417  16.180  1.00 59.50 LIG 0.16  HD
BRANCH 35 38
ATOM     38  CA  PRO B   2     -17.742 -11.153  16.592  1.00 60.11 LIG 0.35  C 
ATOM     39  CB  PRO B   2     -18.070 -10.739  18.035  1.00 60.16 LIG 0.05  C 
ATOM     40  CG  PRO B   2     -19.417 -10.101  17.976  1.00 60.30 LIG 0.04  C 
ATOM     41  CD  PRO B   2     -20.142 -10.753  16.847  1.00 60.25 LIG 0.32  C 
ATOM     42  N   PRO B   2     -19.058 -11.151  15.933  1.00 60.27 LIG 0.32  N 
ENDBRANCH 35 38
ENDBRANCH 33 34
BRANCH 33 43
ATOM     43  CB  SER B   3     -13.417 -12.049  15.945  1.00 59.26 LIG 0.20  C 
BRANCH 43 44
ATOM     44 OG   SER B   3     -13.103 -13.000  16.950  1.00 59.53 LIG-0.40  OA
ATOM     45 HG   SER B   3     -12.356 -12.816  17.285  1.00 59.53 LIG 0.21  HD
ENDBRANCH 43 44
ENDBRANCH 33 43
ENDBRANCH 30 33
ENDBRANCH 28 29
BRANCH 28 46
ATOM     46  CB  SER B   4     -17.278  -8.591  13.944  1.00 57.64 LIG 0.20  C 
BRANCH 46 47
ATOM     47 OG   SER B   4     -17.874  -8.574  15.234  1.00 57.32 LIG-0.40  OA
ATOM     48 HG   SER B   4     -17.636  -7.880  15.643  1.00 57.32 LIG 0.21  HD
ENDBRANCH 46 47
ENDBRANCH 28 46
ENDBRANCH 1 28
TORSDOF 18
ENDMDL
MODEL 33
USER: ADFR SOLUTION from run 46
USER: SCORE 12.527560 LL:  -2.525 LR: -11.825 RR:   0.000 FEB:  -6.455
USER: RMSD 10.118784
USER: SEED 45
USER: STATUS no improvement in best in 10 clusters for 5 generations
USER: GENES 20
USER: genes 0 Translation |==|  0.71870 0.67210 0.59534
USER: genes 1 Rotation |==|  0.47570 0.90139 0.21257 0.57534
USER: genes 2 Torsion [C]-N--CA-[CB] |==|  0.16625
USER: genes 3 Torsion [N]-CA--CB-[CG2] |==|  0.72982
USER: genes 4 Torsion [CA]-CB--OG1-[HG1] |==|  0.32520
USER: genes 5 Torsion [N]-CA--C-[N] |==|  0.10400
USER: genes 6 Torsion [N]-CA--C-[O] |==|  0.27277
USER: genes 7 Torsion [C]-N--CA-[CB] |==|  0.11086
USER: genes 8 Torsion [N]-CA--C-[O] |==|  0.46584
USER: genes 9 Torsion [N]-CA--CB-[SG] |==|  0.43579
USER: genes 10 Torsion [CA]-CB--SG-[HG] |==|  0.10311
USER: genes 11 Torsion [N]-C--CA-[N] |==|  0.94201
USER: genes 12 Torsion [C]-CA--N-[C] |==|  0.20556
USER: genes 13 Torsion [N]-C--CA-[N] |==|  0.05241
USER: genes 14 Torsion [C]-CA--N-[C] |==|  0.53068
USER: genes 15 Torsion [N]-C--CA-[N] |==|  0.38396
USER: genes 16 Torsion [C]-CA--CB-[OG] |==|  0.30424
USER: genes 17 Torsion [CA]-CB--OG-[HG] |==|  0.68273
USER: genes 18 Torsion [C]-CA--CB-[OG] |==|  0.26024
USER: genes 19 Torsion [CA]-CB--OG-[HG] |==|  0.77887
ROOT
ATOM      1  C   SER B   4     -13.313  -5.270  16.394  1.00 56.97 LIG 0.24  C 
ATOM      2 O    SER B   4     -13.500  -4.232  17.037  1.00 57.23 LIG-0.27  OA
ATOM      3  N   THR B   5     -14.219  -5.773  15.549  1.00 55.89 LIG-0.34  N 
ATOM      4 H    THR B   5     -14.109  -6.501  15.106  1.00 55.89 LIG 0.16  HD
ENDROOT
BRANCH 3 5
ATOM      5  CA  THR B   5     -15.508  -5.103  15.308  1.00 55.10 LIG 0.20  C 
BRANCH 5 6
ATOM      6  CB  THR B   5     -15.311  -3.653  14.736  1.00 55.33 LIG 0.15  C 
ATOM      7  CG2 THR B   5     -15.397  -2.590  15.839  1.00 55.26 LIG 0.04  C 
BRANCH 6 8
ATOM      8 OG1  THR B   5     -14.039  -3.546  14.072  1.00 55.55 LIG-0.39  OA
ATOM      9 HG1  THR B   5     -14.160  -3.379  13.258  1.00 55.55 LIG 0.21  HD
ENDBRANCH 6 8
ENDBRANCH 5 6
BRANCH 5 10
ATOM     10  C   THR B   5     -16.462  -5.900  14.399  1.00 54.13 LIG 0.24  C 
ATOM     11  N   PRO B   6     -16.478  -7.244  14.541  1.00 52.90 LIG-0.34  N 
ATOM     12  CD  PRO B   6     -15.615  -8.067  15.410  1.00 52.89 LIG 0.13  C 
ATOM     13  CA  PRO B   6     -17.428  -8.064  13.776  1.00 51.99 LIG 0.18  C 
ATOM     14  CG  PRO B   6     -15.989  -9.484  15.054  1.00 52.79 LIG 0.02  C 
ATOM     15  CB  PRO B   6     -17.336  -9.439  14.448  1.00 51.93 LIG 0.04  C 
ATOM     16 O    THR B   5     -17.194  -5.308  13.591  1.00 54.19 LIG-0.27  OA
BRANCH 13 17
ATOM     17  C   PRO B   6     -18.843  -7.507  13.887  1.00 51.04 LIG 0.24  C 
ATOM     18 O    PRO B   6     -19.289  -6.794  12.983  1.00 50.92 LIG-0.27  OA
ATOM     19  N   CYS B   7     -19.545  -7.828  14.976  1.00 49.72 LIG-0.34  N 
ATOM     20 H    CYS B   7     -19.221  -8.245  15.654  1.00 49.72 LIG 0.16  HD
BRANCH 19 21
ATOM     21  CA  CYS B   7     -20.975  -7.476  15.094  1.00 48.85 LIG 0.19  C 
BRANCH 21 22
ATOM     22  C   CYS B   7     -21.702  -8.215  16.216  1.00 48.04 LIG 0.20  C 
ATOM     23 OXT  CYS B   7     -21.192  -9.175  16.790  1.00 47.16 LIG-0.65  OA
ATOM     24 O    CYS B   7     -22.823  -7.856  16.567  1.00 47.51 LIG-0.65  OA
ENDBRANCH 21 22
BRANCH 21 25
ATOM     25  CB  CYS B   7     -21.693  -7.684  13.754  1.00 48.98 LIG 0.11  C 
BRANCH 25 26
ATOM     26 SG   CYS B   7     -23.469  -7.926  13.958  1.00 48.50 LIG-0.18  SA
ATOM     27 HG   CYS B   7     -23.870  -7.224  14.844  1.00 48.50 LIG 0.10  HD
ENDBRANCH 25 26
ENDBRANCH 21 25
ENDBRANCH 19 21
ENDBRANCH 13 17
ENDBRANCH 5 10
ENDBRANCH 3 5
BRANCH 1 28
ATOM     28  CA  SER B   4     -12.002  -6.050  16.550  1.00 57.59 LIG 0.20  C 
BRANCH 28 29
ATOM     29  N   SER B   4     -12.128  -7.454  16.138  1.00 58.14 LIG-0.34  N 
ATOM     30  C   SER B   3     -12.206  -7.817  14.857  1.00 58.75 LIG 0.24  C 
ATOM     31 O    SER B   3     -12.018  -7.024  13.931  1.00 58.75 LIG-0.27  OA
ATOM     32 H    SER B   4     -12.147  -8.012  16.792  1.00 58.14 LIG 0.16  HD
BRANCH 30 33
ATOM     33  CA  SER B   3     -12.523  -9.301  14.572  1.00 59.17 LIG 0.20  C 
BRANCH 33 34
ATOM     34  N   SER B   3     -13.116  -9.947  15.753  1.00 59.50 LIG-0.34  N 
ATOM     35  C   PRO B   2     -13.309 -11.264  15.903  1.00 59.86 LIG 0.25  C 
ATOM     36 O    PRO B   2     -13.898 -11.729  16.885  1.00 59.80 LIG-0.27  OA
ATOM     37 H    SER B   3     -13.336  -9.382  16.363  1.00 59.50 LIG 0.16  HD
BRANCH 35 38
ATOM     38  CA  PRO B   2     -12.796 -12.234  14.825  1.00 60.11 LIG 0.35  C 
ATOM     39  CB  PRO B   2     -13.953 -12.811  13.994  1.00 60.16 LIG 0.05  C 
ATOM     40  CG  PRO B   2     -13.636 -14.257  13.810  1.00 60.30 LIG 0.04  C 
ATOM     41  CD  PRO B   2     -12.854 -14.672  15.012  1.00 60.25 LIG 0.32  C 
ATOM     42  N   PRO B   2     -12.182 -13.428  15.425  1.00 60.27 LIG 0.32  N 
ENDBRANCH 35 38
ENDBRANCH 33 34
BRANCH 33 43
ATOM     43  CB  SER B   3     -13.478  -9.408  13.376  1.00 59.26 LIG 0.20  C 
BRANCH 43 44
ATOM     44 OG   SER B   3     -12.814  -9.944  12.243  1.00 59.53 LIG-0.40  OA
ATOM     45 HG   SER B   3     -12.773  -9.361  11.641  1.00 59.53 LIG 0.21  HD
ENDBRANCH 43 44
ENDBRANCH 33 43
ENDBRANCH 30 33
ENDBRANCH 28 29
BRANCH 28 46
ATOM     46  CB  SER B   4     -10.900  -5.392  15.717  1.00 57.64 LIG 0.20  C 
BRANCH 46 47
ATOM     47 OG   SER B   4     -10.151  -4.474  16.503  1.00 57.32 LIG-0.40  OA
ATOM     48 HG   SER B   4     -10.576  -3.754  16.572  1.00 57.32 LIG 0.21  HD
ENDBRANCH 46 47
ENDBRANCH 28 46
ENDBRANCH 1 28
TORSDOF 18
ENDMDL
MODEL 34
USER: ADFR SOLUTION from run 128
USER: SCORE 13.807852 LL:  -3.035 LR: -11.805 RR:   0.000 FEB:  -6.435
USER: RMSD 9.105957
USER: SEED 127
USER: STATUS no improvement in best in 9 clusters for 5 generations
USER: GENES 20
USER: genes 0 Translation |==|  0.72307 0.74608 0.47332
USER: genes 1 Rotation |==|  0.97882 0.48112 0.41804 0.61688
USER: genes 2 Torsion [C]-N--CA-[CB] |==|  0.23275
USER: genes 3 Torsion [N]-CA--CB-[CG2] |==|  0.81182
USER: genes 4 Torsion [CA]-CB--OG1-[HG1] |==|  0.24659
USER: genes 5 Torsion [N]-CA--C-[N] |==|  0.87616
USER: genes 6 Torsion [N]-CA--C-[O] |==|  0.89175
USER: genes 7 Torsion [C]-N--CA-[CB] |==|  0.81093
USER: genes 8 Torsion [N]-CA--C-[O] |==|  0.84027
USER: genes 9 Torsion [N]-CA--CB-[SG] |==|  0.93851
USER: genes 10 Torsion [CA]-CB--SG-[HG] |==|  0.92490
USER: genes 11 Torsion [N]-C--CA-[N] |==|  0.12537
USER: genes 12 Torsion [C]-CA--N-[C] |==|  0.13286
USER: genes 13 Torsion [N]-C--CA-[N] |==|  0.41362
USER: genes 14 Torsion [C]-CA--N-[C] |==|  0.65519
USER: genes 15 Torsion [N]-C--CA-[N] |==|  0.47691
USER: genes 16 Torsion [C]-CA--CB-[OG] |==|  0.75016
USER: genes 17 Torsion [CA]-CB--OG-[HG] |==|  0.31107
USER: genes 18 Torsion [C]-CA--CB-[OG] |==|  0.58861
USER: genes 19 Torsion [CA]-CB--OG-[HG] |==|  0.13146
ROOT
ATOM      1  C   SER B   4     -13.188  -4.160  14.655  1.00 56.97 LIG 0.24  C 
ATOM      2 O    SER B   4     -12.988  -3.370  15.582  1.00 57.23 LIG-0.27  OA
ATOM      3  N   THR B   5     -12.251  -4.996  14.199  1.00 55.89 LIG-0.34  N 
ATOM      4 H    THR B   5     -12.372  -5.542  13.545  1.00 55.89 LIG 0.16  HD
ENDROOT
BRANCH 3 5
ATOM      5  CA  THR B   5     -10.906  -5.051  14.794  1.00 55.10 LIG 0.20  C 
BRANCH 5 6
ATOM      6  CB  THR B   5     -10.869  -5.976  16.064  1.00 55.33 LIG 0.15  C 
ATOM      7  CG2 THR B   5     -11.678  -5.379  17.224  1.00 55.26 LIG 0.04  C 
BRANCH 6 8
ATOM      8 OG1  THR B   5     -11.385  -7.280  15.747  1.00 55.55 LIG-0.39  OA
ATOM      9 HG1  THR B   5     -10.760  -7.770  15.473  1.00 55.55 LIG 0.21  HD
ENDBRANCH 6 8
ENDBRANCH 5 6
BRANCH 5 10
ATOM     10  C   THR B   5      -9.804  -5.475  13.805  1.00 54.13 LIG 0.24  C 
ATOM     11  N   PRO B   6     -10.068  -6.523  12.993  1.00 52.90 LIG-0.34  N 
ATOM     12  CD  PRO B   6     -11.266  -7.385  12.997  1.00 52.89 LIG 0.13  C 
ATOM     13  CA  PRO B   6      -9.104  -6.927  11.960  1.00 51.99 LIG 0.18  C 
ATOM     14  CG  PRO B   6     -10.947  -8.452  11.979  1.00 52.79 LIG 0.02  C 
ATOM     15  CB  PRO B   6      -9.901  -7.905  11.089  1.00 51.93 LIG 0.04  C 
ATOM     16 O    THR B   5      -8.734  -4.851  13.759  1.00 54.19 LIG-0.27  OA
BRANCH 13 17
ATOM     17  C   PRO B   6      -8.649  -5.726  11.138  1.00 51.04 LIG 0.24  C 
ATOM     18 O    PRO B   6      -9.467  -4.853  10.833  1.00 50.92 LIG-0.27  OA
ATOM     19  N   CYS B   7      -7.363  -5.675  10.786  1.00 49.72 LIG-0.34  N 
ATOM     20 H    CYS B   7      -6.803  -6.315  10.910  1.00 49.72 LIG 0.16  HD
BRANCH 19 21
ATOM     21  CA  CYS B   7      -6.796  -4.476  10.136  1.00 48.85 LIG 0.19  C 
BRANCH 21 22
ATOM     22  C   CYS B   7      -6.965  -3.194  10.950  1.00 48.04 LIG 0.20  C 
ATOM     23 OXT  CYS B   7      -5.998  -2.513  11.286  1.00 47.16 LIG-0.65  OA
ATOM     24 O    CYS B   7      -8.085  -2.817  11.285  1.00 47.51 LIG-0.65  OA
ENDBRANCH 21 22
BRANCH 21 25
ATOM     25  CB  CYS B   7      -7.377  -4.302   8.727  1.00 48.98 LIG 0.11  C 
BRANCH 25 26
ATOM     26 SG   CYS B   7      -8.022  -5.846   8.055  1.00 48.50 LIG-0.18  SA
ATOM     27 HG   CYS B   7      -7.440  -6.772   8.549  1.00 48.50 LIG 0.10  HD
ENDBRANCH 25 26
ENDBRANCH 21 25
ENDBRANCH 19 21
ENDBRANCH 13 17
ENDBRANCH 5 10
ENDBRANCH 3 5
BRANCH 1 28
ATOM     28  CA  SER B   4     -14.556  -4.206  13.963  1.00 57.59 LIG 0.20  C 
BRANCH 28 29
ATOM     29  N   SER B   4     -15.033  -5.579  13.747  1.00 58.14 LIG-0.34  N 
ATOM     30  C   SER B   3     -15.014  -6.500  14.711  1.00 58.75 LIG 0.24  C 
ATOM     31 O    SER B   3     -14.747  -6.227  15.884  1.00 58.75 LIG-0.27  OA
ATOM     32 H    SER B   4     -15.322  -5.729  12.951  1.00 58.14 LIG 0.16  HD
BRANCH 30 33
ATOM     33  CA  SER B   3     -15.368  -7.946  14.299  1.00 59.17 LIG 0.20  C 
BRANCH 33 34
ATOM     34  N   SER B   3     -14.649  -8.920  15.134  1.00 59.50 LIG-0.34  N 
ATOM     35  C   PRO B   2     -13.848  -9.893  14.678  1.00 59.86 LIG 0.25  C 
ATOM     36 O    PRO B   2     -13.349 -10.734  15.434  1.00 59.80 LIG-0.27  OA
ATOM     37 H    SER B   3     -14.793  -8.805  15.974  1.00 59.50 LIG 0.16  HD
BRANCH 35 38
ATOM     38  CA  PRO B   2     -13.543  -9.981  13.173  1.00 60.11 LIG 0.35  C 
ATOM     39  CB  PRO B   2     -14.754 -10.504  12.385  1.00 60.16 LIG 0.05  C 
ATOM     40  CG  PRO B   2     -14.202 -11.460  11.382  1.00 60.30 LIG 0.04  C 
ATOM     41  CD  PRO B   2     -12.973 -12.047  11.993  1.00 60.25 LIG 0.32  C 
ATOM     42  N   PRO B   2     -12.501 -10.982  12.895  1.00 60.27 LIG 0.32  N 
ENDBRANCH 35 38
ENDBRANCH 33 34
BRANCH 33 43
ATOM     43  CB  SER B   3     -16.881  -8.164  14.417  1.00 59.26 LIG 0.20  C 
BRANCH 43 44
ATOM     44 OG   SER B   3     -17.228  -8.630  15.711  1.00 59.53 LIG-0.40  OA
ATOM     45 HG   SER B   3     -17.664  -8.037  16.114  1.00 59.53 LIG 0.21  HD
ENDBRANCH 43 44
ENDBRANCH 33 43
ENDBRANCH 30 33
ENDBRANCH 28 29
BRANCH 28 46
ATOM     46  CB  SER B   4     -15.592  -3.454  14.801  1.00 57.64 LIG 0.20  C 
BRANCH 46 47
ATOM     47 OG   SER B   4     -16.880  -4.036  14.655  1.00 57.32 LIG-0.40  OA
ATOM     48 HG   SER B   4     -16.822  -4.870  14.740  1.00 57.32 LIG 0.21  HD
ENDBRANCH 46 47
ENDBRANCH 28 46
ENDBRANCH 1 28
TORSDOF 18
ENDMDL
MODEL 35
USER: ADFR SOLUTION from run 127
USER: SCORE 13.875819 LL:  -3.401 LR: -11.802 RR:   0.000 FEB:  -6.432
USER: RMSD 7.911163
USER: SEED 126
USER: STATUS no improvement in best in 9 clusters for 5 generations
USER: GENES 20
USER: genes 0 Translation |==|  0.68517 0.69314 0.52207
USER: genes 1 Rotation |==|  0.00409 0.47422 0.54485 0.53736
USER: genes 2 Torsion [C]-N--CA-[CB] |==|  0.16271
USER: genes 3 Torsion [N]-CA--CB-[CG2] |==|  0.70702
USER: genes 4 Torsion [CA]-CB--OG1-[HG1] |==|  0.48122
USER: genes 5 Torsion [N]-CA--C-[N] |==|  0.84426
USER: genes 6 Torsion [N]-CA--C-[O] |==|  0.92038
USER: genes 7 Torsion [C]-N--CA-[CB] |==|  0.33862
USER: genes 8 Torsion [N]-CA--C-[O] |==|  0.96765
USER: genes 9 Torsion [N]-CA--CB-[SG] |==|  0.99159
USER: genes 10 Torsion [CA]-CB--SG-[HG] |==|  0.11449
USER: genes 11 Torsion [N]-C--CA-[N] |==|  0.29546
USER: genes 12 Torsion [C]-CA--N-[C] |==|  0.73042
USER: genes 13 Torsion [N]-C--CA-[N] |==|  0.83998
USER: genes 14 Torsion [C]-CA--N-[C] |==|  0.76031
USER: genes 15 Torsion [N]-C--CA-[N] |==|  0.21865
USER: genes 16 Torsion [C]-CA--CB-[OG] |==|  0.66336
USER: genes 17 Torsion [CA]-CB--OG-[HG] |==|  0.44793
USER: genes 18 Torsion [C]-CA--CB-[OG] |==|  0.05974
USER: genes 19 Torsion [CA]-CB--OG-[HG] |==|  0.35638
ROOT
ATOM      1  C   SER B   4     -14.269  -4.954  15.350  1.00 56.97 LIG 0.24  C 
ATOM      2 O    SER B   4     -14.271  -4.873  16.582  1.00 57.23 LIG-0.27  OA
ATOM      3  N   THR B   5     -13.182  -5.289  14.647  1.00 55.89 LIG-0.34  N 
ATOM      4 H    THR B   5     -13.162  -5.336  13.788  1.00 55.89 LIG 0.16  HD
ENDROOT
BRANCH 3 5
ATOM      5  CA  THR B   5     -11.905  -5.612  15.304  1.00 55.10 LIG 0.20  C 
BRANCH 5 6
ATOM      6  CB  THR B   5     -12.053  -6.818  16.301  1.00 55.33 LIG 0.15  C 
ATOM      7  CG2 THR B   5     -12.037  -6.351  17.763  1.00 55.26 LIG 0.04  C 
BRANCH 6 8
ATOM      8 OG1  THR B   5     -13.275  -7.532  16.044  1.00 55.55 LIG-0.39  OA
ATOM      9 HG1  THR B   5     -13.300  -8.225  16.518  1.00 55.55 LIG 0.21  HD
ENDBRANCH 6 8
ENDBRANCH 5 6
BRANCH 5 10
ATOM     10  C   THR B   5     -10.751  -5.884  14.321  1.00 54.13 LIG 0.24  C 
ATOM     11  N   PRO B   6     -10.937  -6.852  13.396  1.00 52.90 LIG-0.34  N 
ATOM     12  CD  PRO B   6     -12.093  -7.760  13.264  1.00 52.89 LIG 0.13  C 
ATOM     13  CA  PRO B   6      -9.920  -7.106  12.366  1.00 51.99 LIG 0.18  C 
ATOM     14  CG  PRO B   6     -11.690  -8.701  12.156  1.00 52.79 LIG 0.02  C 
ATOM     15  CB  PRO B   6     -10.640  -8.020  11.369  1.00 51.93 LIG 0.04  C 
ATOM     16 O    THR B   5      -9.710  -5.213  14.381  1.00 54.19 LIG-0.27  OA
BRANCH 13 17
ATOM     17  C   PRO B   6      -9.493  -5.807  11.689  1.00 51.04 LIG 0.24  C 
ATOM     18 O    PRO B   6     -10.292  -4.869  11.616  1.00 50.92 LIG-0.27  OA
ATOM     19  N   CYS B   7      -8.251  -5.747  11.206  1.00 49.72 LIG-0.34  N 
ATOM     20 H    CYS B   7      -7.715  -6.417  11.167  1.00 49.72 LIG 0.16  HD
BRANCH 19 21
ATOM     21  CA  CYS B   7      -7.695  -4.481  10.686  1.00 48.85 LIG 0.19  C 
BRANCH 21 22
ATOM     22  C   CYS B   7      -7.438  -4.491   9.180  1.00 48.04 LIG 0.20  C 
ATOM     23 OXT  CYS B   7      -7.177  -3.459   8.565  1.00 47.16 LIG-0.65  OA
ATOM     24 O    CYS B   7      -7.487  -5.545   8.551  1.00 47.51 LIG-0.65  OA
ENDBRANCH 21 22
BRANCH 21 25
ATOM     25  CB  CYS B   7      -6.418  -4.101  11.449  1.00 48.98 LIG 0.11  C 
BRANCH 25 26
ATOM     26 SG   CYS B   7      -6.048  -5.256  12.785  1.00 48.50 LIG-0.18  SA
ATOM     27 HG   CYS B   7      -6.255  -6.378  12.413  1.00 48.50 LIG 0.10  HD
ENDBRANCH 25 26
ENDBRANCH 21 25
ENDBRANCH 19 21
ENDBRANCH 13 17
ENDBRANCH 5 10
ENDBRANCH 3 5
BRANCH 1 28
ATOM     28  CA  SER B   4     -15.544  -4.654  14.553  1.00 57.59 LIG 0.20  C 
BRANCH 28 29
ATOM     29  N   SER B   4     -16.541  -5.728  14.658  1.00 58.14 LIG-0.34  N 
ATOM     30  C   SER B   3     -16.668  -6.677  13.731  1.00 58.75 LIG 0.24  C 
ATOM     31 O    SER B   3     -15.861  -6.813  12.807  1.00 58.75 LIG-0.27  OA
ATOM     32 H    SER B   4     -17.028  -5.686  15.366  1.00 58.14 LIG 0.16  HD
BRANCH 30 33
ATOM     33  CA  SER B   3     -17.874  -7.631  13.871  1.00 59.17 LIG 0.20  C 
BRANCH 33 34
ATOM     34  N   SER B   3     -17.853  -8.316  15.172  1.00 59.50 LIG-0.34  N 
ATOM     35  C   PRO B   2     -17.194  -9.451  15.442  1.00 59.86 LIG 0.25  C 
ATOM     36 O    PRO B   2     -17.296 -10.020  16.535  1.00 59.80 LIG-0.27  OA
ATOM     37 H    SER B   3     -18.319  -7.907  15.768  1.00 59.50 LIG 0.16  HD
BRANCH 35 38
ATOM     38  CA  PRO B   2     -16.289 -10.077  14.368  1.00 60.11 LIG 0.35  C 
ATOM     39  CB  PRO B   2     -15.895 -11.516  14.736  1.00 60.16 LIG 0.05  C 
ATOM     40  CG  PRO B   2     -14.451 -11.641  14.384  1.00 60.30 LIG 0.04  C 
ATOM     41  CD  PRO B   2     -13.858 -10.281  14.548  1.00 60.25 LIG 0.32  C 
ATOM     42  N   PRO B   2     -14.995  -9.382  14.284  1.00 60.27 LIG 0.32  N 
ENDBRANCH 35 38
ENDBRANCH 33 34
BRANCH 33 43
ATOM     43  CB  SER B   3     -19.181  -6.844  13.709  1.00 59.26 LIG 0.20  C 
BRANCH 43 44
ATOM     44 OG   SER B   3     -19.995  -6.969  14.863  1.00 59.53 LIG-0.40  OA
ATOM     45 HG   SER B   3     -20.563  -6.351  14.873  1.00 59.53 LIG 0.21  HD
ENDBRANCH 43 44
ENDBRANCH 33 43
ENDBRANCH 30 33
ENDBRANCH 28 29
BRANCH 28 46
ATOM     46  CB  SER B   4     -16.175  -3.350  15.049  1.00 57.64 LIG 0.20  C 
BRANCH 46 47
ATOM     47 OG   SER B   4     -15.213  -2.544  15.715  1.00 57.32 LIG-0.40  OA
ATOM     48 HG   SER B   4     -15.223  -1.770  15.390  1.00 57.32 LIG 0.21  HD
ENDBRANCH 46 47
ENDBRANCH 28 46
ENDBRANCH 1 28
TORSDOF 18
ENDMDL
MODEL 36
USER: ADFR SOLUTION from run 125
USER: SCORE 13.551128 LL:  -3.625 LR: -11.768 RR:   0.000 FEB:  -6.399
USER: RMSD 8.089635
USER: SEED 124
USER: STATUS no improvement in best in 10 clusters for 5 generations
USER: GENES 20
USER: genes 0 Translation |==|  0.73501 0.51205 0.48357
USER: genes 1 Rotation |==|  0.82191 0.72858 0.55366 0.80206
USER: genes 2 Torsion [C]-N--CA-[CB] |==|  0.23483
USER: genes 3 Torsion [N]-CA--CB-[CG2] |==|  0.98292
USER: genes 4 Torsion [CA]-CB--OG1-[HG1] |==|  0.33210
USER: genes 5 Torsion [N]-CA--C-[N] |==|  0.86667
USER: genes 6 Torsion [N]-CA--C-[O] |==|  0.32683
USER: genes 7 Torsion [C]-N--CA-[CB] |==|  0.49163
USER: genes 8 Torsion [N]-CA--C-[O] |==|  0.89524
USER: genes 9 Torsion [N]-CA--CB-[SG] |==|  0.00560
USER: genes 10 Torsion [CA]-CB--SG-[HG] |==|  0.80236
USER: genes 11 Torsion [N]-C--CA-[N] |==|  0.47733
USER: genes 12 Torsion [C]-CA--N-[C] |==|  0.18989
USER: genes 13 Torsion [N]-C--CA-[N] |==|  0.46844
USER: genes 14 Torsion [C]-CA--N-[C] |==|  0.80784
USER: genes 15 Torsion [N]-C--CA-[N] |==|  0.26198
USER: genes 16 Torsion [C]-CA--CB-[OG] |==|  0.97843
USER: genes 17 Torsion [CA]-CB--OG-[HG] |==|  0.36803
USER: genes 18 Torsion [C]-CA--CB-[OG] |==|  0.53171
USER: genes 19 Torsion [CA]-CB--OG-[HG] |==|  0.12316
ROOT
ATOM      1  C   SER B   4     -12.848  -7.670  14.801  1.00 56.97 LIG 0.24  C 
ATOM      2 O    SER B   4     -13.907  -7.050  14.938  1.00 57.23 LIG-0.27  OA
ATOM      3  N   THR B   5     -11.662  -7.065  14.690  1.00 55.89 LIG-0.34  N 
ATOM      4 H    THR B   5     -10.918  -7.483  14.580  1.00 55.89 LIG 0.16  HD
ENDROOT
BRANCH 3 5
ATOM      5  CA  THR B   5     -11.532  -5.599  14.749  1.00 55.10 LIG 0.20  C 
BRANCH 5 6
ATOM      6  CB  THR B   5     -11.446  -5.083  16.230  1.00 55.33 LIG 0.15  C 
ATOM      7  CG2 THR B   5     -11.671  -6.216  17.241  1.00 55.26 LIG 0.04  C 
BRANCH 6 8
ATOM      8 OG1  THR B   5     -10.165  -4.476  16.475  1.00 55.55 LIG-0.39  OA
ATOM      9 HG1  THR B   5     -10.272  -3.672  16.692  1.00 55.55 LIG 0.21  HD
ENDBRANCH 6 8
ENDBRANCH 5 6
BRANCH 5 10
ATOM     10  C   THR B   5     -10.350  -5.046  13.931  1.00 54.13 LIG 0.24  C 
ATOM     11  N   PRO B   6      -9.148  -5.645  14.092  1.00 52.90 LIG-0.34  N 
ATOM     12  CD  PRO B   6      -8.801  -6.724  15.038  1.00 52.89 LIG 0.13  C 
ATOM     13  CA  PRO B   6      -7.995  -5.235  13.279  1.00 51.99 LIG 0.18  C 
ATOM     14  CG  PRO B   6      -7.311  -6.890  14.865  1.00 52.79 LIG 0.02  C 
ATOM     15  CB  PRO B   6      -6.964  -6.338  13.538  1.00 51.93 LIG 0.04  C 
ATOM     16 O    THR B   5     -10.522  -4.102  13.147  1.00 54.19 LIG-0.27  OA
BRANCH 13 17
ATOM     17  C   PRO B   6      -8.362  -5.181  11.800  1.00 51.04 LIG 0.24  C 
ATOM     18 O    PRO B   6      -8.299  -4.106  11.197  1.00 50.92 LIG-0.27  OA
ATOM     19  N   CYS B   7      -8.736  -6.322  11.219  1.00 49.72 LIG-0.34  N 
ATOM     20 H    CYS B   7      -8.872  -7.058  11.642  1.00 49.72 LIG 0.16  HD
BRANCH 19 21
ATOM     21  CA  CYS B   7      -8.947  -6.403   9.759  1.00 48.85 LIG 0.19  C 
BRANCH 21 22
ATOM     22  C   CYS B   7      -9.991  -5.420   9.231  1.00 48.04 LIG 0.20  C 
ATOM     23 OXT  CYS B   7      -9.852  -4.855   8.148  1.00 47.16 LIG-0.65  OA
ATOM     24 O    CYS B   7     -11.000  -5.178   9.887  1.00 47.51 LIG-0.65  OA
ENDBRANCH 21 22
BRANCH 21 25
ATOM     25  CB  CYS B   7      -9.297  -7.838   9.344  1.00 48.98 LIG 0.11  C 
BRANCH 25 26
ATOM     26 SG   CYS B   7      -9.397  -8.955  10.757  1.00 48.50 LIG-0.18  SA
ATOM     27 HG   CYS B   7      -8.296  -9.151  11.193  1.00 48.50 LIG 0.10  HD
ENDBRANCH 25 26
ENDBRANCH 21 25
ENDBRANCH 19 21
ENDBRANCH 13 17
ENDBRANCH 5 10
ENDBRANCH 3 5
BRANCH 1 28
ATOM     28  CA  SER B   4     -12.854  -9.202  14.739  1.00 57.59 LIG 0.20  C 
BRANCH 28 29
ATOM     29  N   SER B   4     -14.167  -9.776  15.060  1.00 58.14 LIG-0.34  N 
ATOM     30  C   SER B   3     -15.224  -9.631  14.259  1.00 58.75 LIG 0.24  C 
ATOM     31 O    SER B   3     -15.136  -9.147  13.128  1.00 58.75 LIG-0.27  OA
ATOM     32 H    SER B   4     -14.190 -10.208  15.803  1.00 58.14 LIG 0.16  HD
BRANCH 30 33
ATOM     33  CA  SER B   3     -16.583 -10.121  14.804  1.00 59.17 LIG 0.20  C 
BRANCH 33 34
ATOM     34  N   SER B   3     -17.687  -9.662  13.948  1.00 59.50 LIG-0.34  N 
ATOM     35  C   PRO B   2     -18.098  -8.393  13.823  1.00 59.86 LIG 0.25  C 
ATOM     36 O    PRO B   2     -19.094  -8.092  13.155  1.00 59.80 LIG-0.27  OA
ATOM     37 H    SER B   3     -18.061 -10.306  13.517  1.00 59.50 LIG 0.16  HD
BRANCH 35 38
ATOM     38  CA  PRO B   2     -17.322  -7.271  14.534  1.00 60.11 LIG 0.35  C 
ATOM     39  CB  PRO B   2     -18.242  -6.093  14.892  1.00 60.16 LIG 0.05  C 
ATOM     40  CG  PRO B   2     -17.462  -4.862  14.577  1.00 60.30 LIG 0.04  C 
ATOM     41  CD  PRO B   2     -16.549  -5.218  13.451  1.00 60.25 LIG 0.32  C 
ATOM     42  N   PRO B   2     -16.323  -6.661  13.643  1.00 60.27 LIG 0.32  N 
ENDBRANCH 35 38
ENDBRANCH 33 34
BRANCH 33 43
ATOM     43  CB  SER B   3     -16.585 -11.652  14.894  1.00 59.26 LIG 0.20  C 
BRANCH 43 44
ATOM     44 OG   SER B   3     -15.422 -12.198  14.293  1.00 59.53 LIG-0.40  OA
ATOM     45 HG   SER B   3     -15.083 -12.768  14.807  1.00 59.53 LIG 0.21  HD
ENDBRANCH 43 44
ENDBRANCH 33 43
ENDBRANCH 30 33
ENDBRANCH 28 29
BRANCH 28 46
ATOM     46  CB  SER B   4     -12.443  -9.671  13.341  1.00 57.64 LIG 0.20  C 
BRANCH 46 47
ATOM     47 OG   SER B   4     -12.691 -11.061  13.181  1.00 57.32 LIG-0.40  OA
ATOM     48 HG   SER B   4     -13.449 -11.248  13.491  1.00 57.32 LIG 0.21  HD
ENDBRANCH 46 47
ENDBRANCH 28 46
ENDBRANCH 1 28
TORSDOF 18
ENDMDL
MODEL 37
USER: ADFR SOLUTION from run 28
USER: SCORE 13.519862 LL:  -2.817 LR: -11.770 RR:   0.000 FEB:  -6.401
USER: RMSD 9.232866
USER: SEED 27
USER: STATUS no improvement in best in 8 clusters for 5 generations
USER: GENES 20
USER: genes 0 Translation |==|  0.73179 0.50790 0.46951
USER: genes 1 Rotation |==|  0.82444 0.72482 0.56212 0.80056
USER: genes 2 Torsion [C]-N--CA-[CB] |==|  0.23333
USER: genes 3 Torsion [N]-CA--CB-[CG2] |==|  0.99737
USER: genes 4 Torsion [CA]-CB--OG1-[HG1] |==|  0.30687
USER: genes 5 Torsion [N]-CA--C-[N] |==|  0.86343
USER: genes 6 Torsion [N]-CA--C-[O] |==|  0.32363
USER: genes 7 Torsion [C]-N--CA-[CB] |==|  0.49968
USER: genes 8 Torsion [N]-CA--C-[O] |==|  0.40686
USER: genes 9 Torsion [N]-CA--CB-[SG] |==|  0.00634
USER: genes 10 Torsion [CA]-CB--SG-[HG] |==|  0.81276
USER: genes 11 Torsion [N]-C--CA-[N] |==|  0.49341
USER: genes 12 Torsion [C]-CA--N-[C] |==|  0.63036
USER: genes 13 Torsion [N]-C--CA-[N] |==|  0.13282
USER: genes 14 Torsion [C]-CA--N-[C] |==|  0.14967
USER: genes 15 Torsion [N]-C--CA-[N] |==|  0.29486
USER: genes 16 Torsion [C]-CA--CB-[OG] |==|  0.35496
USER: genes 17 Torsion [CA]-CB--OG-[HG] |==|  0.30153
USER: genes 18 Torsion [C]-CA--CB-[OG] |==|  0.71161
USER: genes 19 Torsion [CA]-CB--OG-[HG] |==|  0.30736
ROOT
ATOM      1  C   SER B   4     -12.940  -7.732  14.601  1.00 56.97 LIG 0.24  C 
ATOM      2 O    SER B   4     -14.007  -7.123  14.726  1.00 57.23 LIG-0.27  OA
ATOM      3  N   THR B   5     -11.755  -7.117  14.538  1.00 55.89 LIG-0.34  N 
ATOM      4 H    THR B   5     -11.006  -7.527  14.437  1.00 55.89 LIG 0.16  HD
ENDROOT
BRANCH 3 5
ATOM      5  CA  THR B   5     -11.638  -5.652  14.640  1.00 55.10 LIG 0.20  C 
BRANCH 5 6
ATOM      6  CB  THR B   5     -11.609  -5.175  16.137  1.00 55.33 LIG 0.15  C 
ATOM      7  CG2 THR B   5     -11.735  -6.353  17.112  1.00 55.26 LIG 0.04  C 
BRANCH 6 8
ATOM      8 OG1  THR B   5     -10.391  -4.460  16.410  1.00 55.55 LIG-0.39  OA
ATOM      9 HG1  THR B   5     -10.563  -3.647  16.529  1.00 55.55 LIG 0.21  HD
ENDBRANCH 6 8
ENDBRANCH 5 6
BRANCH 5 10
ATOM     10  C   THR B   5     -10.430  -5.071  13.881  1.00 54.13 LIG 0.24  C 
ATOM     11  N   PRO B   6      -9.227  -5.652  14.089  1.00 52.90 LIG-0.34  N 
ATOM     12  CD  PRO B   6      -8.903  -6.735  15.037  1.00 52.89 LIG 0.13  C 
ATOM     13  CA  PRO B   6      -8.046  -5.214  13.331  1.00 51.99 LIG 0.18  C 
ATOM     14  CG  PRO B   6      -7.405  -6.875  14.929  1.00 52.79 LIG 0.02  C 
ATOM     15  CB  PRO B   6      -7.009  -6.303  13.624  1.00 51.93 LIG 0.04  C 
ATOM     16 O    THR B   5     -10.584  -4.121  13.099  1.00 54.19 LIG-0.27  OA
BRANCH 13 17
ATOM     17  C   PRO B   6      -8.349  -5.150  11.838  1.00 51.04 LIG 0.24  C 
ATOM     18 O    PRO B   6      -8.299  -4.064  11.253  1.00 50.92 LIG-0.27  OA
ATOM     19  N   CYS B   7      -8.654  -6.295  11.224  1.00 49.72 LIG-0.34  N 
ATOM     20 H    CYS B   7      -8.783  -7.041  11.631  1.00 49.72 LIG 0.16  HD
BRANCH 19 21
ATOM     21  CA  CYS B   7      -8.798  -6.360   9.756  1.00 48.85 LIG 0.19  C 
BRANCH 21 22
ATOM     22  C   CYS B   7      -9.802  -5.358   9.188  1.00 48.04 LIG 0.20  C 
ATOM     23 OXT  CYS B   7     -10.808  -5.031   9.814  1.00 47.16 LIG-0.65  OA
ATOM     24 O    CYS B   7      -9.617  -4.856   8.082  1.00 47.51 LIG-0.65  OA
ENDBRANCH 21 22
BRANCH 21 25
ATOM     25  CB  CYS B   7      -9.147  -7.787   9.312  1.00 48.98 LIG 0.11  C 
BRANCH 25 26
ATOM     26 SG   CYS B   7      -9.337  -8.913  10.709  1.00 48.50 LIG-0.18  SA
ATOM     27 HG   CYS B   7      -8.274  -9.071  11.243  1.00 48.50 LIG 0.10  HD
ENDBRANCH 25 26
ENDBRANCH 21 25
ENDBRANCH 19 21
ENDBRANCH 13 17
ENDBRANCH 5 10
ENDBRANCH 3 5
BRANCH 1 28
ATOM     28  CA  SER B   4     -12.933  -9.262  14.498  1.00 57.59 LIG 0.20  C 
BRANCH 28 29
ATOM     29  N   SER B   4     -14.275  -9.844  14.632  1.00 58.14 LIG-0.34  N 
ATOM     30  C   SER B   3     -14.525 -10.885  15.427  1.00 58.75 LIG 0.24  C 
ATOM     31 O    SER B   3     -13.690 -11.329  16.219  1.00 58.75 LIG-0.27  OA
ATOM     32 H    SER B   4     -14.876  -9.453  14.156  1.00 58.14 LIG 0.16  HD
BRANCH 30 33
ATOM     33  CA  SER B   3     -15.933 -11.511  15.332  1.00 59.17 LIG 0.20  C 
BRANCH 33 34
ATOM     34  N   SER B   3     -16.312 -11.739  13.929  1.00 59.50 LIG-0.34  N 
ATOM     35  C   PRO B   2     -15.592 -12.424  13.030  1.00 59.86 LIG 0.25  C 
ATOM     36 O    PRO B   2     -15.929 -12.496  11.843  1.00 59.80 LIG-0.27  OA
ATOM     37 H    SER B   3     -17.068 -11.379  13.729  1.00 59.50 LIG 0.16  HD
BRANCH 35 38
ATOM     38  CA  PRO B   2     -14.303 -13.135  13.475  1.00 60.11 LIG 0.35  C 
ATOM     39  CB  PRO B   2     -13.185 -12.974  12.433  1.00 60.16 LIG 0.05  C 
ATOM     40  CG  PRO B   2     -12.523 -14.307  12.342  1.00 60.30 LIG 0.04  C 
ATOM     41  CD  PRO B   2     -13.572 -15.321  12.654  1.00 60.25 LIG 0.32  C 
ATOM     42  N   PRO B   2     -14.491 -14.592  13.546  1.00 60.27 LIG 0.32  N 
ENDBRANCH 35 38
ENDBRANCH 33 34
BRANCH 33 43
ATOM     43  CB  SER B   3     -15.967 -12.833  16.110  1.00 59.26 LIG 0.20  C 
BRANCH 43 44
ATOM     44 OG   SER B   3     -17.047 -12.852  17.030  1.00 59.53 LIG-0.40  OA
ATOM     45 HG   SER B   3     -17.636 -13.386  16.759  1.00 59.53 LIG 0.21  HD
ENDBRANCH 43 44
ENDBRANCH 33 43
ENDBRANCH 30 33
ENDBRANCH 28 29
BRANCH 28 46
ATOM     46  CB  SER B   4     -12.346  -9.693  13.151  1.00 57.64 LIG 0.20  C 
BRANCH 46 47
ATOM     47 OG   SER B   4     -13.374 -10.110  12.262  1.00 57.32 LIG-0.40  OA
ATOM     48 HG   SER B   4     -13.450  -9.551  11.640  1.00 57.32 LIG 0.21  HD
ENDBRANCH 46 47
ENDBRANCH 28 46
ENDBRANCH 1 28
TORSDOF 18
ENDMDL
MODEL 38
USER: ADFR SOLUTION from run 2
USER: SCORE 13.135954 LL:  -3.413 LR: -11.763 RR:   0.000 FEB:  -6.393
USER: RMSD 7.665249
USER: SEED 16335
USER: STATUS no improvement in best in 8 clusters for 5 generations
USER: GENES 20
USER: genes 0 Translation |==|  0.73820 0.69631 0.45482
USER: genes 1 Rotation |==|  0.82001 0.30014 0.23070 0.68742
USER: genes 2 Torsion [C]-N--CA-[CB] |==|  0.51667
USER: genes 3 Torsion [N]-CA--CB-[CG2] |==|  0.73922
USER: genes 4 Torsion [CA]-CB--OG1-[HG1] |==|  0.93177
USER: genes 5 Torsion [N]-CA--C-[N] |==|  0.82940
USER: genes 6 Torsion [N]-CA--C-[O] |==|  0.79158
USER: genes 7 Torsion [C]-N--CA-[CB] |==|  0.43839
USER: genes 8 Torsion [N]-CA--C-[O] |==|  0.10873
USER: genes 9 Torsion [N]-CA--CB-[SG] |==|  0.92815
USER: genes 10 Torsion [CA]-CB--SG-[HG] |==|  0.09105
USER: genes 11 Torsion [N]-C--CA-[N] |==|  0.96405
USER: genes 12 Torsion [C]-CA--N-[C] |==|  0.17824
USER: genes 13 Torsion [N]-C--CA-[N] |==|  0.44177
USER: genes 14 Torsion [C]-CA--N-[C] |==|  0.68047
USER: genes 15 Torsion [N]-C--CA-[N] |==|  0.42399
USER: genes 16 Torsion [C]-CA--CB-[OG] |==|  0.67494
USER: genes 17 Torsion [CA]-CB--OG-[HG] |==|  0.65217
USER: genes 18 Torsion [C]-CA--CB-[OG] |==|  0.53232
USER: genes 19 Torsion [CA]-CB--OG-[HG] |==|  0.78450
ROOT
ATOM      1  C   SER B   4     -12.757  -4.906  14.391  1.00 56.97 LIG 0.24  C 
ATOM      2 O    SER B   4     -11.574  -4.553  14.386  1.00 57.23 LIG-0.27  OA
ATOM      3  N   THR B   5     -13.131  -6.190  14.374  1.00 55.89 LIG-0.34  N 
ATOM      4 H    THR B   5     -13.950  -6.451  14.363  1.00 55.89 LIG 0.16  HD
ENDROOT
BRANCH 3 5
ATOM      5  CA  THR B   5     -12.145  -7.283  14.371  1.00 55.10 LIG 0.20  C 
BRANCH 5 6
ATOM      6  CB  THR B   5     -12.833  -8.685  14.197  1.00 55.33 LIG 0.15  C 
ATOM      7  CG2 THR B   5     -13.119  -9.350  15.550  1.00 55.26 LIG 0.04  C 
BRANCH 6 8
ATOM      8 OG1  THR B   5     -14.064  -8.550  13.465  1.00 55.55 LIG-0.39  OA
ATOM      9 HG1  THR B   5     -14.359  -7.769  13.554  1.00 55.55 LIG 0.21  HD
ENDBRANCH 6 8
ENDBRANCH 5 6
BRANCH 5 10
ATOM     10  C   THR B   5     -11.029  -7.113  13.323  1.00 54.13 LIG 0.24  C 
ATOM     11  N   PRO B   6     -11.398  -7.073  12.023  1.00 52.90 LIG-0.34  N 
ATOM     12  CD  PRO B   6     -12.752  -7.267  11.466  1.00 52.89 LIG 0.13  C 
ATOM     13  CA  PRO B   6     -10.403  -6.820  10.972  1.00 51.99 LIG 0.18  C 
ATOM     14  CG  PRO B   6     -12.534  -7.249   9.974  1.00 52.79 LIG 0.02  C 
ATOM     15  CB  PRO B   6     -11.257  -6.546   9.729  1.00 51.93 LIG 0.04  C 
ATOM     16 O    THR B   5      -9.849  -6.996  13.683  1.00 54.19 LIG-0.27  OA
BRANCH 13 17
ATOM     17  C   PRO B   6      -9.547  -5.605  11.313  1.00 51.04 LIG 0.24  C 
ATOM     18 O    PRO B   6     -10.024  -4.472  11.192  1.00 50.92 LIG-0.27  OA
ATOM     19  N   CYS B   7      -8.303  -5.830  11.737  1.00 49.72 LIG-0.34  N 
ATOM     20 H    CYS B   7      -7.926  -6.603  11.740  1.00 49.72 LIG 0.16  HD
BRANCH 19 21
ATOM     21  CA  CYS B   7      -7.458  -4.731  12.247  1.00 48.85 LIG 0.19  C 
BRANCH 21 22
ATOM     22  C   CYS B   7      -6.871  -3.843  11.152  1.00 48.04 LIG 0.20  C 
ATOM     23 OXT  CYS B   7      -5.723  -3.411  11.221  1.00 47.16 LIG-0.65  OA
ATOM     24 O    CYS B   7      -7.546  -3.544  10.171  1.00 47.51 LIG-0.65  OA
ENDBRANCH 21 22
BRANCH 21 25
ATOM     25  CB  CYS B   7      -6.347  -5.282  13.151  1.00 48.98 LIG 0.11  C 
BRANCH 25 26
ATOM     26 SG   CYS B   7      -6.796  -6.855  13.910  1.00 48.50 LIG-0.18  SA
ATOM     27 HG   CYS B   7      -7.498  -7.476  13.160  1.00 48.50 LIG 0.10  HD
ENDBRANCH 25 26
ENDBRANCH 21 25
ENDBRANCH 19 21
ENDBRANCH 13 17
ENDBRANCH 5 10
ENDBRANCH 3 5
BRANCH 1 28
ATOM     28  CA  SER B   4     -13.876  -3.858  14.407  1.00 57.59 LIG 0.20  C 
BRANCH 28 29
ATOM     29  N   SER B   4     -15.192  -4.433  14.098  1.00 58.14 LIG-0.34  N 
ATOM     30  C   SER B   3     -15.780  -5.334  14.884  1.00 58.75 LIG 0.24  C 
ATOM     31 O    SER B   3     -15.340  -5.629  15.999  1.00 58.75 LIG-0.27  OA
ATOM     32 H    SER B   4     -15.543  -4.136  13.370  1.00 58.14 LIG 0.16  HD
BRANCH 30 33
ATOM     33  CA  SER B   3     -17.070  -5.992  14.347  1.00 59.17 LIG 0.20  C 
BRANCH 33 34
ATOM     34  N   SER B   3     -17.333  -7.267  15.031  1.00 59.50 LIG-0.34  N 
ATOM     35  C   PRO B   2     -17.324  -8.476  14.452  1.00 59.86 LIG 0.25  C 
ATOM     36 O    PRO B   2     -17.646  -9.497  15.070  1.00 59.80 LIG-0.27  OA
ATOM     37 H    SER B   3     -17.499  -7.165  15.869  1.00 59.50 LIG 0.16  HD
BRANCH 35 38
ATOM     38  CA  PRO B   2     -16.915  -8.606  12.975  1.00 60.11 LIG 0.35  C 
ATOM     39  CB  PRO B   2     -18.137  -8.539  12.046  1.00 60.16 LIG 0.05  C 
ATOM     40  CG  PRO B   2     -17.912  -9.585  11.007  1.00 60.30 LIG 0.04  C 
ATOM     41  CD  PRO B   2     -17.106 -10.659  11.659  1.00 60.25 LIG 0.32  C 
ATOM     42  N   PRO B   2     -16.346  -9.933  12.691  1.00 60.27 LIG 0.32  N 
ENDBRANCH 35 38
ENDBRANCH 33 34
BRANCH 33 43
ATOM     43  CB  SER B   3     -18.256  -5.038  14.535  1.00 59.26 LIG 0.20  C 
BRANCH 43 44
ATOM     44 OG   SER B   3     -19.222  -5.594  15.412  1.00 59.53 LIG-0.40  OA
ATOM     45 HG   SER B   3     -19.971  -5.605  15.033  1.00 59.53 LIG 0.21  HD
ENDBRANCH 43 44
ENDBRANCH 33 43
ENDBRANCH 30 33
ENDBRANCH 28 29
BRANCH 28 46
ATOM     46  CB  SER B   4     -13.946  -3.189  15.782  1.00 57.64 LIG 0.20  C 
BRANCH 46 47
ATOM     47 OG   SER B   4     -15.132  -2.416  15.909  1.00 57.32 LIG-0.40  OA
ATOM     48 HG   SER B   4     -15.039  -1.691  15.495  1.00 57.32 LIG 0.21  HD
ENDBRANCH 46 47
ENDBRANCH 28 46
ENDBRANCH 1 28
TORSDOF 18
ENDMDL
MODEL 39
USER: ADFR SOLUTION from run 98
USER: SCORE 13.715518 LL:  -2.917 LR: -11.733 RR:   0.000 FEB:  -6.363
USER: RMSD 5.274574
USER: SEED 97
USER: STATUS no improvement in best in 4 clusters for 5 generations
USER: GENES 20
USER: genes 0 Translation |==|  0.61501 0.56263 0.47567
USER: genes 1 Rotation |==|  0.12696 0.23153 0.69289 0.53949
USER: genes 2 Torsion [C]-N--CA-[CB] |==|  0.78889
USER: genes 3 Torsion [N]-CA--CB-[CG2] |==|  0.57881
USER: genes 4 Torsion [CA]-CB--OG1-[HG1] |==|  0.16327
USER: genes 5 Torsion [N]-CA--C-[N] |==|  0.15375
USER: genes 6 Torsion [N]-CA--C-[O] |==|  0.25751
USER: genes 7 Torsion [C]-N--CA-[CB] |==|  0.19766
USER: genes 8 Torsion [N]-CA--C-[O] |==|  0.98070
USER: genes 9 Torsion [N]-CA--CB-[SG] |==|  0.31340
USER: genes 10 Torsion [CA]-CB--SG-[HG] |==|  0.81349
USER: genes 11 Torsion [N]-C--CA-[N] |==|  0.48835
USER: genes 12 Torsion [C]-CA--N-[C] |==|  0.59772
USER: genes 13 Torsion [N]-C--CA-[N] |==|  0.15853
USER: genes 14 Torsion [C]-CA--N-[C] |==|  0.14036
USER: genes 15 Torsion [N]-C--CA-[N] |==|  0.24016
USER: genes 16 Torsion [C]-CA--CB-[OG] |==|  0.43773
USER: genes 17 Torsion [CA]-CB--OG-[HG] |==|  0.09338
USER: genes 18 Torsion [C]-CA--CB-[OG] |==|  0.70773
USER: genes 19 Torsion [CA]-CB--OG-[HG] |==|  0.95415
ROOT
ATOM      1  C   SER B   4     -16.268  -6.912  14.688  1.00 56.97 LIG 0.24  C 
ATOM      2 O    SER B   4     -15.713  -6.622  15.753  1.00 57.23 LIG-0.27  OA
ATOM      3  N   THR B   5     -16.014  -6.275  13.541  1.00 55.89 LIG-0.34  N 
ATOM      4 H    THR B   5     -16.403  -6.456  12.795  1.00 55.89 LIG 0.16  HD
ENDROOT
BRANCH 3 5
ATOM      5  CA  THR B   5     -15.025  -5.187  13.461  1.00 55.10 LIG 0.20  C 
BRANCH 5 6
ATOM      6  CB  THR B   5     -15.579  -3.851  14.074  1.00 55.33 LIG 0.15  C 
ATOM      7  CG2 THR B   5     -14.940  -2.618  13.421  1.00 55.26 LIG 0.04  C 
BRANCH 6 8
ATOM      8 OG1  THR B   5     -17.008  -3.785  13.917  1.00 55.55 LIG-0.39  OA
ATOM      9 HG1  THR B   5     -17.363  -4.444  14.296  1.00 55.55 LIG 0.21  HD
ENDBRANCH 6 8
ENDBRANCH 5 6
BRANCH 5 10
ATOM     10  C   THR B   5     -13.667  -5.533  14.101  1.00 54.13 LIG 0.24  C 
ATOM     11  N   PRO B   6     -13.037  -6.645  13.659  1.00 52.90 LIG-0.34  N 
ATOM     12  CD  PRO B   6     -13.537  -7.636  12.686  1.00 52.89 LIG 0.13  C 
ATOM     13  CA  PRO B   6     -11.696  -6.989  14.153  1.00 51.99 LIG 0.18  C 
ATOM     14  CG  PRO B   6     -12.478  -8.710  12.688  1.00 52.79 LIG 0.02  C 
ATOM     15  CB  PRO B   6     -11.235  -8.094  13.197  1.00 51.93 LIG 0.04  C 
ATOM     16 O    THR B   5     -13.181  -4.794  14.970  1.00 54.19 LIG-0.27  OA
BRANCH 13 17
ATOM     17  C   PRO B   6     -10.760  -5.787  14.075  1.00 51.04 LIG 0.24  C 
ATOM     18 O    PRO B   6     -10.641  -5.045  15.055  1.00 50.92 LIG-0.27  OA
ATOM     19  N   CYS B   7     -10.101  -5.596  12.932  1.00 49.72 LIG-0.34  N 
ATOM     20 H    CYS B   7     -10.240  -6.047  12.213  1.00 49.72 LIG 0.16  HD
BRANCH 19 21
ATOM     21  CA  CYS B   7      -9.052  -4.563  12.818  1.00 48.85 LIG 0.19  C 
BRANCH 21 22
ATOM     22  C   CYS B   7      -8.685  -4.210  11.378  1.00 48.04 LIG 0.20  C 
ATOM     23 OXT  CYS B   7      -7.921  -3.283  11.117  1.00 47.16 LIG-0.65  OA
ATOM     24 O    CYS B   7      -9.153  -4.857  10.444  1.00 47.51 LIG-0.65  OA
ENDBRANCH 21 22
BRANCH 21 25
ATOM     25  CB  CYS B   7      -7.802  -4.975  13.608  1.00 48.98 LIG 0.11  C 
BRANCH 25 26
ATOM     26 SG   CYS B   7      -6.393  -5.315  12.535  1.00 48.50 LIG-0.18  SA
ATOM     27 HG   CYS B   7      -6.614  -6.296  11.881  1.00 48.50 LIG 0.10  HD
ENDBRANCH 25 26
ENDBRANCH 21 25
ENDBRANCH 19 21
ENDBRANCH 13 17
ENDBRANCH 5 10
ENDBRANCH 3 5
BRANCH 1 28
ATOM     28  CA  SER B   4     -17.309  -8.037  14.642  1.00 57.59 LIG 0.20  C 
BRANCH 28 29
ATOM     29  N   SER B   4     -17.443  -8.735  15.926  1.00 58.14 LIG-0.34  N 
ATOM     30  C   SER B   3     -17.688 -10.044  16.005  1.00 58.75 LIG 0.24  C 
ATOM     31 O    SER B   3     -17.661 -10.783  15.018  1.00 58.75 LIG-0.27  OA
ATOM     32 H    SER B   4     -17.349  -8.227  16.614  1.00 58.14 LIG 0.16  HD
BRANCH 30 33
ATOM     33  CA  SER B   3     -17.991 -10.613  17.409  1.00 59.17 LIG 0.20  C 
BRANCH 33 34
ATOM     34  N   SER B   3     -19.138  -9.923  18.018  1.00 59.50 LIG-0.34  N 
ATOM     35  C   PRO B   2     -20.327  -9.726  17.433  1.00 59.86 LIG 0.25  C 
ATOM     36 O    PRO B   2     -21.216  -9.056  17.971  1.00 59.80 LIG-0.27  OA
ATOM     37 H    SER B   3     -18.971  -9.645  18.815  1.00 59.50 LIG 0.16  HD
BRANCH 35 38
ATOM     38  CA  PRO B   2     -20.602 -10.339  16.050  1.00 60.11 LIG 0.35  C 
ATOM     39  CB  PRO B   2     -21.746  -9.607  15.330  1.00 60.16 LIG 0.05  C 
ATOM     40  CG  PRO B   2     -22.570 -10.675  14.693  1.00 60.30 LIG 0.04  C 
ATOM     41  CD  PRO B   2     -22.433 -11.884  15.556  1.00 60.25 LIG 0.32  C 
ATOM     42  N   PRO B   2     -21.101 -11.718  16.163  1.00 60.27 LIG 0.32  N 
ENDBRANCH 35 38
ENDBRANCH 33 34
BRANCH 33 43
ATOM     43  CB  SER B   3     -18.271 -12.117  17.310  1.00 59.26 LIG 0.20  C 
BRANCH 43 44
ATOM     44 OG   SER B   3     -18.047 -12.758  18.555  1.00 59.53 LIG-0.40  OA
ATOM     45 HG   SER B   3     -18.252 -12.236  19.180  1.00 59.53 LIG 0.21  HD
ENDBRANCH 43 44
ENDBRANCH 33 43
ENDBRANCH 30 33
ENDBRANCH 28 29
BRANCH 28 46
ATOM     46  CB  SER B   4     -18.675  -7.470  14.248  1.00 57.64 LIG 0.20  C 
BRANCH 46 47
ATOM     47 OG   SER B   4     -19.537  -7.401  15.376  1.00 57.32 LIG-0.40  OA
ATOM     48 HG   SER B   4     -19.231  -7.882  15.992  1.00 57.32 LIG 0.21  HD
ENDBRANCH 46 47
ENDBRANCH 28 46
ENDBRANCH 1 28
TORSDOF 18
ENDMDL
MODEL 40
USER: ADFR SOLUTION from run 96
USER: SCORE 15.656841 LL:  -4.145 LR: -11.725 RR:   0.000 FEB:  -6.356
USER: RMSD 8.946187
USER: SEED 95
USER: STATUS no improvement in best in 4 clusters for 5 generations
USER: GENES 20
USER: genes 0 Translation |==|  0.67199 0.74297 0.44712
USER: genes 1 Rotation |==|  0.96579 0.53794 0.39552 0.64381
USER: genes 2 Torsion [C]-N--CA-[CB] |==|  0.16492
USER: genes 3 Torsion [N]-CA--CB-[CG2] |==|  0.18007
USER: genes 4 Torsion [CA]-CB--OG1-[HG1] |==|  0.30964
USER: genes 5 Torsion [N]-CA--C-[N] |==|  0.12778
USER: genes 6 Torsion [N]-CA--C-[O] |==|  0.46988
USER: genes 7 Torsion [C]-N--CA-[CB] |==|  0.87119
USER: genes 8 Torsion [N]-CA--C-[O] |==|  0.13581
USER: genes 9 Torsion [N]-CA--CB-[SG] |==|  0.88930
USER: genes 10 Torsion [CA]-CB--SG-[HG] |==|  0.30193
USER: genes 11 Torsion [N]-C--CA-[N] |==|  0.11216
USER: genes 12 Torsion [C]-CA--N-[C] |==|  0.14137
USER: genes 13 Torsion [N]-C--CA-[N] |==|  0.41023
USER: genes 14 Torsion [C]-CA--N-[C] |==|  0.77557
USER: genes 15 Torsion [N]-C--CA-[N] |==|  0.48689
USER: genes 16 Torsion [C]-CA--CB-[OG] |==|  0.98970
USER: genes 17 Torsion [CA]-CB--OG-[HG] |==|  0.80591
USER: genes 18 Torsion [C]-CA--CB-[OG] |==|  0.57488
USER: genes 19 Torsion [CA]-CB--OG-[HG] |==|  0.16011
ROOT
ATOM      1  C   SER B   4     -14.644  -4.206  14.281  1.00 56.97 LIG 0.24  C 
ATOM      2 O    SER B   4     -14.489  -3.311  15.118  1.00 57.23 LIG-0.27  OA
ATOM      3  N   THR B   5     -13.623  -4.871  13.732  1.00 55.89 LIG-0.34  N 
ATOM      4 H    THR B   5     -13.716  -5.487  13.138  1.00 55.89 LIG 0.16  HD
ENDROOT
BRANCH 3 5
ATOM      5  CA  THR B   5     -12.227  -4.595  14.109  1.00 55.10 LIG 0.20  C 
BRANCH 5 6
ATOM      6  CB  THR B   5     -11.982  -4.830  15.643  1.00 55.33 LIG 0.15  C 
ATOM      7  CG2 THR B   5     -12.168  -6.303  16.029  1.00 55.26 LIG 0.04  C 
BRANCH 6 8
ATOM      8 OG1  THR B   5     -10.657  -4.407  16.008  1.00 55.55 LIG-0.39  OA
ATOM      9 HG1  THR B   5     -10.704  -3.726  16.498  1.00 55.55 LIG 0.21  HD
ENDBRANCH 6 8
ENDBRANCH 5 6
BRANCH 5 10
ATOM     10  C   THR B   5     -11.192  -5.385  13.286  1.00 54.13 LIG 0.24  C 
ATOM     11  N   PRO B   6     -11.362  -5.423  11.945  1.00 52.90 LIG-0.34  N 
ATOM     12  CD  PRO B   6     -12.486  -4.869  11.165  1.00 52.89 LIG 0.13  C 
ATOM     13  CA  PRO B   6     -10.367  -6.078  11.085  1.00 51.99 LIG 0.18  C 
ATOM     14  CG  PRO B   6     -12.207  -5.325   9.755  1.00 52.79 LIG 0.02  C 
ATOM     15  CB  PRO B   6     -10.762  -5.629   9.674  1.00 51.93 LIG 0.04  C 
ATOM     16 O    THR B   5     -10.237  -5.938  13.851  1.00 54.19 LIG-0.27  OA
BRANCH 13 17
ATOM     17  C   PRO B   6      -8.957  -5.603  11.423  1.00 51.04 LIG 0.24  C 
ATOM     18 O    PRO B   6      -7.986  -6.193  10.941  1.00 50.92 LIG-0.27  OA
ATOM     19  N   CYS B   7      -8.843  -4.550  12.234  1.00 49.72 LIG-0.34  N 
ATOM     20 H    CYS B   7      -9.502  -4.186  12.649  1.00 49.72 LIG 0.16  HD
BRANCH 19 21
ATOM     21  CA  CYS B   7      -7.532  -3.917  12.484  1.00 48.85 LIG 0.19  C 
BRANCH 21 22
ATOM     22  C   CYS B   7      -7.069  -2.990  11.362  1.00 48.04 LIG 0.20  C 
ATOM     23 OXT  CYS B   7      -5.939  -3.070  10.886  1.00 47.16 LIG-0.65  OA
ATOM     24 O    CYS B   7      -7.831  -2.139  10.910  1.00 47.51 LIG-0.65  OA
ENDBRANCH 21 22
BRANCH 21 25
ATOM     25  CB  CYS B   7      -6.467  -4.983  12.778  1.00 48.98 LIG 0.11  C 
BRANCH 25 26
ATOM     26 SG   CYS B   7      -7.100  -6.318  13.813  1.00 48.50 LIG-0.18  SA
ATOM     27 HG   CYS B   7      -7.213  -7.316  13.155  1.00 48.50 LIG 0.10  HD
ENDBRANCH 25 26
ENDBRANCH 21 25
ENDBRANCH 19 21
ENDBRANCH 13 17
ENDBRANCH 5 10
ENDBRANCH 3 5
BRANCH 1 28
ATOM     28  CA  SER B   4     -16.054  -4.594  13.819  1.00 57.59 LIG 0.20  C 
BRANCH 28 29
ATOM     29  N   SER B   4     -16.215  -6.045  13.654  1.00 58.14 LIG-0.34  N 
ATOM     30  C   SER B   3     -15.874  -6.913  14.607  1.00 58.75 LIG 0.24  C 
ATOM     31 O    SER B   3     -15.552  -6.557  15.743  1.00 58.75 LIG-0.27  OA
ATOM     32 H    SER B   4     -16.546  -6.277  12.895  1.00 58.14 LIG 0.16  HD
BRANCH 30 33
ATOM     33  CA  SER B   3     -15.920  -8.411  14.233  1.00 59.17 LIG 0.20  C 
BRANCH 33 34
ATOM     34  N   SER B   3     -14.885  -9.164  14.958  1.00 59.50 LIG-0.34  N 
ATOM     35  C   PRO B   2     -13.592  -9.236  14.614  1.00 59.86 LIG 0.25  C 
ATOM     36 O    PRO B   2     -12.796  -9.964  15.218  1.00 59.80 LIG-0.27  OA
ATOM     37 H    SER B   3     -15.196  -9.571  15.649  1.00 59.50 LIG 0.16  HD
BRANCH 35 38
ATOM     38  CA  PRO B   2     -13.075  -8.400  13.431  1.00 60.11 LIG 0.35  C 
ATOM     39  CB  PRO B   2     -13.615  -8.928  12.093  1.00 60.16 LIG 0.05  C 
ATOM     40  CG  PRO B   2     -12.466  -8.875  11.144  1.00 60.30 LIG 0.04  C 
ATOM     41  CD  PRO B   2     -11.233  -9.065  11.964  1.00 60.25 LIG 0.32  C 
ATOM     42  N   PRO B   2     -11.617  -8.528  13.281  1.00 60.27 LIG 0.32  N 
ENDBRANCH 35 38
ENDBRANCH 33 34
BRANCH 33 43
ATOM     43  CB  SER B   3     -17.308  -8.982  14.548  1.00 59.26 LIG 0.20  C 
BRANCH 43 44
ATOM     44 OG   SER B   3     -18.130  -8.007  15.169  1.00 59.53 LIG-0.40  OA
ATOM     45 HG   SER B   3     -17.846  -7.855  15.944  1.00 59.53 LIG 0.21  HD
ENDBRANCH 43 44
ENDBRANCH 33 43
ENDBRANCH 30 33
ENDBRANCH 28 29
BRANCH 28 46
ATOM     46  CB  SER B   4     -17.091  -4.098  14.829  1.00 57.64 LIG 0.20  C 
BRANCH 46 47
ATOM     47 OG   SER B   4     -18.255  -4.912  14.799  1.00 57.32 LIG-0.40  OA
ATOM     48 HG   SER B   4     -18.044  -5.709  14.958  1.00 57.32 LIG 0.21  HD
ENDBRANCH 46 47
ENDBRANCH 28 46
ENDBRANCH 1 28
TORSDOF 18
ENDMDL
MODEL 41
USER: ADFR SOLUTION from run 79
USER: SCORE 13.491964 LL:  -3.742 LR: -11.722 RR:   0.000 FEB:  -6.353
USER: RMSD 11.489907
USER: SEED 78
USER: STATUS no improvement in best in 1 clusters for 5 generations
USER: GENES 20
USER: genes 0 Translation |==|  0.87679 0.63349 0.43635
USER: genes 1 Rotation |==|  0.59622 0.00998 0.49066 0.52304
USER: genes 2 Torsion [C]-N--CA-[CB] |==|  0.20569
USER: genes 3 Torsion [N]-CA--CB-[CG2] |==|  0.47539
USER: genes 4 Torsion [CA]-CB--OG1-[HG1] |==|  0.47986
USER: genes 5 Torsion [N]-CA--C-[N] |==|  0.31988
USER: genes 6 Torsion [N]-CA--C-[O] |==|  0.82438
USER: genes 7 Torsion [C]-N--CA-[CB] |==|  0.25312
USER: genes 8 Torsion [N]-CA--C-[O] |==|  0.89664
USER: genes 9 Torsion [N]-CA--CB-[SG] |==|  0.76077
USER: genes 10 Torsion [CA]-CB--SG-[HG] |==|  0.59237
USER: genes 11 Torsion [N]-C--CA-[N] |==|  0.90157
USER: genes 12 Torsion [C]-CA--N-[C] |==|  0.20894
USER: genes 13 Torsion [N]-C--CA-[N] |==|  0.34534
USER: genes 14 Torsion [C]-CA--N-[C] |==|  0.76201
USER: genes 15 Torsion [N]-C--CA-[N] |==|  0.47285
USER: genes 16 Torsion [C]-CA--CB-[OG] |==|  0.03318
USER: genes 17 Torsion [CA]-CB--OG-[HG] |==|  0.64094
USER: genes 18 Torsion [C]-CA--CB-[OG] |==|  0.47413
USER: genes 19 Torsion [CA]-CB--OG-[HG] |==|  0.59314
ROOT
ATOM      1  C   SER B   4      -8.807  -5.849  14.128  1.00 56.97 LIG 0.24  C 
ATOM      2 O    SER B   4      -8.402  -6.048  15.277  1.00 57.23 LIG-0.27  OA
ATOM      3  N   THR B   5     -10.106  -5.777  13.819  1.00 55.89 LIG-0.34  N 
ATOM      4 H    THR B   5     -10.404  -5.653  13.022  1.00 55.89 LIG 0.16  HD
ENDROOT
BRANCH 3 5
ATOM      5  CA  THR B   5     -11.154  -5.908  14.845  1.00 55.10 LIG 0.20  C 
BRANCH 5 6
ATOM      6  CB  THR B   5     -11.258  -4.619  15.737  1.00 55.33 LIG 0.15  C 
ATOM      7  CG2 THR B   5     -12.485  -4.663  16.658  1.00 55.26 LIG 0.04  C 
BRANCH 6 8
ATOM      8 OG1  THR B   5     -10.071  -4.466  16.535  1.00 55.55 LIG-0.39  OA
ATOM      9 HG1  THR B   5     -10.093  -3.726  16.932  1.00 55.55 LIG 0.21  HD
ENDBRANCH 6 8
ENDBRANCH 5 6
BRANCH 5 10
ATOM     10  C   THR B   5     -12.540  -6.266  14.277  1.00 54.13 LIG 0.24  C 
ATOM     11  N   PRO B   6     -13.063  -7.464  14.620  1.00 52.90 LIG-0.34  N 
ATOM     12  CD  PRO B   6     -12.421  -8.531  15.413  1.00 52.89 LIG 0.13  C 
ATOM     13  CA  PRO B   6     -14.419  -7.837  14.194  1.00 51.99 LIG 0.18  C 
ATOM     14  CG  PRO B   6     -13.411  -9.668  15.357  1.00 52.79 LIG 0.02  C 
ATOM     15  CB  PRO B   6     -14.729  -9.081  15.034  1.00 51.93 LIG 0.04  C 
ATOM     16 O    THR B   5     -13.143  -5.460  13.553  1.00 54.19 LIG-0.27  OA
BRANCH 13 17
ATOM     17  C   PRO B   6     -15.413  -6.722  14.502  1.00 51.04 LIG 0.24  C 
ATOM     18 O    PRO B   6     -15.617  -6.396  15.675  1.00 50.92 LIG-0.27  OA
ATOM     19  N   CYS B   7     -16.021  -6.140  13.467  1.00 49.72 LIG-0.34  N 
ATOM     20 H    CYS B   7     -15.960  -6.414  12.654  1.00 49.72 LIG 0.16  HD
BRANCH 19 21
ATOM     21  CA  CYS B   7     -16.870  -4.945  13.653  1.00 48.85 LIG 0.19  C 
BRANCH 21 22
ATOM     22  C   CYS B   7     -18.094  -4.908  12.740  1.00 48.04 LIG 0.20  C 
ATOM     23 OXT  CYS B   7     -19.174  -4.470  13.129  1.00 47.16 LIG-0.65  OA
ATOM     24 O    CYS B   7     -18.017  -5.320  11.585  1.00 47.51 LIG-0.65  OA
ENDBRANCH 21 22
BRANCH 21 25
ATOM     25  CB  CYS B   7     -16.038  -3.665  13.494  1.00 48.98 LIG 0.11  C 
BRANCH 25 26
ATOM     26 SG   CYS B   7     -15.239  -3.171  15.035  1.00 48.50 LIG-0.18  SA
ATOM     27 HG   CYS B   7     -15.176  -1.974  15.087  1.00 48.50 LIG 0.10  HD
ENDBRANCH 25 26
ENDBRANCH 21 25
ENDBRANCH 19 21
ENDBRANCH 13 17
ENDBRANCH 5 10
ENDBRANCH 3 5
BRANCH 1 28
ATOM     28  CA  SER B   4      -7.810  -5.682  12.975  1.00 57.59 LIG 0.20  C 
BRANCH 28 29
ATOM     29  N   SER B   4      -8.296  -6.270  11.720  1.00 58.14 LIG-0.34  N 
ATOM     30  C   SER B   3      -9.238  -5.688  10.977  1.00 58.75 LIG 0.24  C 
ATOM     31 O    SER B   3      -9.651  -4.548  11.204  1.00 58.75 LIG-0.27  OA
ATOM     32 H    SER B   4      -7.919  -7.015  11.512  1.00 58.14 LIG 0.16  HD
BRANCH 30 33
ATOM     33  CA  SER B   3      -9.786  -6.502   9.785  1.00 59.17 LIG 0.20  C 
BRANCH 33 34
ATOM     34  N   SER B   3     -11.249  -6.636   9.869  1.00 59.50 LIG-0.34  N 
ATOM     35  C   PRO B   2     -11.904  -7.580  10.557  1.00 59.86 LIG 0.25  C 
ATOM     36 O    PRO B   2     -13.135  -7.687  10.507  1.00 59.80 LIG-0.27  OA
ATOM     37 H    SER B   3     -11.662  -6.029   9.420  1.00 59.50 LIG 0.16  HD
BRANCH 35 38
ATOM     38  CA  PRO B   2     -11.114  -8.571  11.427  1.00 60.11 LIG 0.35  C 
ATOM     39  CB  PRO B   2     -10.401  -9.627  10.568  1.00 60.16 LIG 0.05  C 
ATOM     40  CG  PRO B   2     -10.584 -10.922  11.285  1.00 60.30 LIG 0.04  C 
ATOM     41  CD  PRO B   2     -11.881 -10.818  12.016  1.00 60.25 LIG 0.32  C 
ATOM     42  N   PRO B   2     -12.009  -9.374  12.275  1.00 60.27 LIG 0.32  N 
ENDBRANCH 35 38
ENDBRANCH 33 34
BRANCH 33 43
ATOM     43  CB  SER B   3      -9.393  -5.823   8.467  1.00 59.26 LIG 0.20  C 
BRANCH 43 44
ATOM     44 OG   SER B   3      -8.422  -4.813   8.686  1.00 59.53 LIG-0.40  OA
ATOM     45 HG   SER B   3      -8.671  -4.101   8.318  1.00 59.53 LIG 0.21  HD
ENDBRANCH 43 44
ENDBRANCH 33 43
ENDBRANCH 30 33
ENDBRANCH 28 29
BRANCH 28 46
ATOM     46  CB  SER B   4      -7.525  -4.197  12.742  1.00 57.64 LIG 0.20  C 
BRANCH 46 47
ATOM     47 OG   SER B   4      -6.449  -4.026  11.828  1.00 57.32 LIG-0.40  OA
ATOM     48 HG   SER B   4      -6.012  -3.340  12.035  1.00 57.32 LIG 0.21  HD
ENDBRANCH 46 47
ENDBRANCH 28 46
ENDBRANCH 1 28
TORSDOF 18
ENDMDL
MODEL 42
USER: ADFR SOLUTION from run 197
USER: SCORE 13.598258 LL:  -2.882 LR: -11.711 RR:   0.000 FEB:  -6.342
USER: RMSD 6.795550
USER: SEED 196
USER: STATUS no improvement in best in 3 clusters for 5 generations
USER: GENES 20
USER: genes 0 Translation |==|  0.66443 0.65266 0.47592
USER: genes 1 Rotation |==|  0.01980 0.54739 0.53194 0.62706
USER: genes 2 Torsion [C]-N--CA-[CB] |==|  0.20568
USER: genes 3 Torsion [N]-CA--CB-[CG2] |==|  0.30131
USER: genes 4 Torsion [CA]-CB--OG1-[HG1] |==|  0.13317
USER: genes 5 Torsion [N]-CA--C-[N] |==|  0.87812
USER: genes 6 Torsion [N]-CA--C-[O] |==|  0.81782
USER: genes 7 Torsion [C]-N--CA-[CB] |==|  0.46146
USER: genes 8 Torsion [N]-CA--C-[O] |==|  0.70051
USER: genes 9 Torsion [N]-CA--CB-[SG] |==|  0.90662
USER: genes 10 Torsion [CA]-CB--SG-[HG] |==|  0.22737
USER: genes 11 Torsion [N]-C--CA-[N] |==|  0.29446
USER: genes 12 Torsion [C]-CA--N-[C] |==|  0.76147
USER: genes 13 Torsion [N]-C--CA-[N] |==|  0.96383
USER: genes 14 Torsion [C]-CA--N-[C] |==|  0.73435
USER: genes 15 Torsion [N]-C--CA-[N] |==|  0.15141
USER: genes 16 Torsion [C]-CA--CB-[OG] |==|  0.75581
USER: genes 17 Torsion [CA]-CB--OG-[HG] |==|  0.58689
USER: genes 18 Torsion [C]-CA--CB-[OG] |==|  0.18607
USER: genes 19 Torsion [CA]-CB--OG-[HG] |==|  0.45920
ROOT
ATOM      1  C   SER B   4     -14.860  -5.561  14.692  1.00 56.97 LIG 0.24  C 
ATOM      2 O    SER B   4     -14.910  -5.891  15.881  1.00 57.23 LIG-0.27  OA
ATOM      3  N   THR B   5     -13.893  -5.973  13.866  1.00 55.89 LIG-0.34  N 
ATOM      4 H    THR B   5     -13.837  -5.740  13.039  1.00 55.89 LIG 0.16  HD
ENDROOT
BRANCH 3 5
ATOM      5  CA  THR B   5     -12.823  -6.878  14.316  1.00 55.10 LIG 0.20  C 
BRANCH 5 6
ATOM      6  CB  THR B   5     -13.344  -8.349  14.497  1.00 55.33 LIG 0.15  C 
ATOM      7  CG2 THR B   5     -12.806  -9.281  13.403  1.00 55.26 LIG 0.04  C 
BRANCH 6 8
ATOM      8 OG1  THR B   5     -12.961  -8.860  15.786  1.00 55.55 LIG-0.39  OA
ATOM      9 HG1  THR B   5     -13.147  -8.294  16.378  1.00 55.55 LIG 0.21  HD
ENDBRANCH 6 8
ENDBRANCH 5 6
BRANCH 5 10
ATOM     10  C   THR B   5     -11.579  -6.871  13.408  1.00 54.13 LIG 0.24  C 
ATOM     11  N   PRO B   6     -11.784  -6.899  12.072  1.00 52.90 LIG-0.34  N 
ATOM     12  CD  PRO B   6     -13.071  -7.029  11.362  1.00 52.89 LIG 0.13  C 
ATOM     13  CA  PRO B   6     -10.651  -6.800  11.141  1.00 51.99 LIG 0.18  C 
ATOM     14  CG  PRO B   6     -12.675  -7.138   9.911  1.00 52.79 LIG 0.02  C 
ATOM     15  CB  PRO B   6     -11.323  -6.554   9.785  1.00 51.93 LIG 0.04  C 
ATOM     16 O    THR B   5     -10.444  -6.818  13.906  1.00 54.19 LIG-0.27  OA
BRANCH 13 17
ATOM     17  C   PRO B   6      -9.743  -5.632  11.509  1.00 51.04 LIG 0.24  C 
ATOM     18 O    PRO B   6     -10.172  -4.477  11.421  1.00 50.92 LIG-0.27  OA
ATOM     19  N   CYS B   7      -8.507  -5.921  11.920  1.00 49.72 LIG-0.34  N 
ATOM     20 H    CYS B   7      -8.164  -6.709  11.900  1.00 49.72 LIG 0.16  HD
BRANCH 19 21
ATOM     21  CA  CYS B   7      -7.614  -4.873  12.454  1.00 48.85 LIG 0.19  C 
BRANCH 21 22
ATOM     22  C   CYS B   7      -7.154  -3.860  11.408  1.00 48.04 LIG 0.20  C 
ATOM     23 OXT  CYS B   7      -7.921  -3.017  10.948  1.00 47.16 LIG-0.65  OA
ATOM     24 O    CYS B   7      -5.994  -3.871  11.004  1.00 47.51 LIG-0.65  OA
ENDBRANCH 21 22
BRANCH 21 25
ATOM     25  CB  CYS B   7      -6.408  -5.504  13.164  1.00 48.98 LIG 0.11  C 
BRANCH 25 26
ATOM     26 SG   CYS B   7      -6.827  -7.057  13.979  1.00 48.50 LIG-0.18  SA
ATOM     27 HG   CYS B   7      -6.815  -7.948  13.174  1.00 48.50 LIG 0.10  HD
ENDBRANCH 25 26
ENDBRANCH 21 25
ENDBRANCH 19 21
ENDBRANCH 13 17
ENDBRANCH 5 10
ENDBRANCH 3 5
BRANCH 1 28
ATOM     28  CA  SER B   4     -15.927  -4.632  14.102  1.00 57.59 LIG 0.20  C 
BRANCH 28 29
ATOM     29  N   SER B   4     -17.212  -5.311  13.890  1.00 58.14 LIG-0.34  N 
ATOM     30  C   SER B   3     -17.482  -5.997  12.779  1.00 58.75 LIG 0.24  C 
ATOM     31 O    SER B   3     -16.624  -6.242  11.927  1.00 58.75 LIG-0.27  OA
ATOM     32 H    SER B   4     -17.767  -5.225  14.543  1.00 58.14 LIG 0.16  HD
BRANCH 30 33
ATOM     33  CA  SER B   3     -18.931  -6.501  12.606  1.00 59.17 LIG 0.20  C 
BRANCH 33 34
ATOM     34  N   SER B   3     -19.681  -6.385  13.866  1.00 59.50 LIG-0.34  N 
ATOM     35  C   PRO B   2     -19.849  -7.365  14.763  1.00 59.86 LIG 0.25  C 
ATOM     36 O    PRO B   2     -20.571  -7.223  15.757  1.00 59.80 LIG-0.27  OA
ATOM     37 H    SER B   3     -20.015  -5.600  13.980  1.00 59.50 LIG 0.16  HD
BRANCH 35 38
ATOM     38  CA  PRO B   2     -19.138  -8.713  14.556  1.00 60.11 LIG 0.35  C 
ATOM     39  CB  PRO B   2     -19.239  -9.599  15.807  1.00 60.16 LIG 0.05  C 
ATOM     40  CG  PRO B   2     -17.894 -10.222  15.972  1.00 60.30 LIG 0.04  C 
ATOM     41  CD  PRO B   2     -16.910  -9.250  15.411  1.00 60.25 LIG 0.32  C 
ATOM     42  N   PRO B   2     -17.688  -8.534  14.386  1.00 60.27 LIG 0.32  N 
ENDBRANCH 35 38
ENDBRANCH 33 34
BRANCH 33 43
ATOM     43  CB  SER B   3     -19.630  -5.701  11.499  1.00 59.26 LIG 0.20  C 
BRANCH 43 44
ATOM     44 OG   SER B   3     -20.235  -4.530  12.023  1.00 59.53 LIG-0.40  OA
ATOM     45 HG   SER B   3     -20.921  -4.346  11.576  1.00 59.53 LIG 0.21  HD
ENDBRANCH 43 44
ENDBRANCH 33 43
ENDBRANCH 30 33
ENDBRANCH 28 29
BRANCH 28 46
ATOM     46  CB  SER B   4     -16.153  -3.438  15.033  1.00 57.64 LIG 0.20  C 
BRANCH 46 47
ATOM     47 OG   SER B   4     -15.001  -2.607  15.078  1.00 57.32 LIG-0.40  OA
ATOM     48 HG   SER B   4     -15.202  -1.868  15.421  1.00 57.32 LIG 0.21  HD
ENDBRANCH 46 47
ENDBRANCH 28 46
ENDBRANCH 1 28
TORSDOF 18
ENDMDL
MODEL 43
USER: ADFR SOLUTION from run 130
USER: SCORE 14.655809 LL:  -3.612 LR: -11.678 RR:   0.000 FEB:  -6.308
USER: RMSD 9.845990
USER: SEED 129
USER: STATUS no improvement in best in 6 clusters for 5 generations
USER: GENES 20
USER: genes 0 Translation |==|  0.73536 0.65979 0.24858
USER: genes 1 Rotation |==|  0.65786 0.30232 0.31999 0.89192
USER: genes 2 Torsion [C]-N--CA-[CB] |==|  0.81111
USER: genes 3 Torsion [N]-CA--CB-[CG2] |==|  0.84837
USER: genes 4 Torsion [CA]-CB--OG1-[HG1] |==|  0.20539
USER: genes 5 Torsion [N]-CA--C-[N] |==|  0.46790
USER: genes 6 Torsion [N]-CA--C-[O] |==|  0.24545
USER: genes 7 Torsion [C]-N--CA-[CB] |==|  0.75342
USER: genes 8 Torsion [N]-CA--C-[O] |==|  0.14220
USER: genes 9 Torsion [N]-CA--CB-[SG] |==|  0.97107
USER: genes 10 Torsion [CA]-CB--SG-[HG] |==|  0.96499
USER: genes 11 Torsion [N]-C--CA-[N] |==|  0.08621
USER: genes 12 Torsion [C]-CA--N-[C] |==|  0.75086
USER: genes 13 Torsion [N]-C--CA-[N] |==|  0.94845
USER: genes 14 Torsion [C]-CA--N-[C] |==|  0.81944
USER: genes 15 Torsion [N]-C--CA-[N] |==|  0.36953
USER: genes 16 Torsion [C]-CA--CB-[OG] |==|  0.39496
USER: genes 17 Torsion [CA]-CB--OG-[HG] |==|  0.91974
USER: genes 18 Torsion [C]-CA--CB-[OG] |==|  0.69816
USER: genes 19 Torsion [CA]-CB--OG-[HG] |==|  0.36747
ROOT
ATOM      1  C   SER B   4     -12.838  -5.454  11.452  1.00 56.97 LIG 0.24  C 
ATOM      2 O    SER B   4     -12.006  -5.188  10.580  1.00 57.23 LIG-0.27  OA
ATOM      3  N   THR B   5     -12.548  -6.186  12.532  1.00 55.89 LIG-0.34  N 
ATOM      4 H    THR B   5     -13.120  -6.392  13.141  1.00 55.89 LIG 0.16  HD
ENDROOT
BRANCH 3 5
ATOM      5  CA  THR B   5     -11.193  -6.711  12.771  1.00 55.10 LIG 0.20  C 
BRANCH 5 6
ATOM      6  CB  THR B   5     -10.805  -7.814  11.721  1.00 55.33 LIG 0.15  C 
ATOM      7  CG2 THR B   5     -11.841  -8.945  11.676  1.00 55.26 LIG 0.04  C 
BRANCH 6 8
ATOM      8 OG1  THR B   5     -10.677  -7.234  10.411  1.00 55.55 LIG-0.39  OA
ATOM      9 HG1  THR B   5      -9.966  -6.790  10.369  1.00 55.55 LIG 0.21  HD
ENDBRANCH 6 8
ENDBRANCH 5 6
BRANCH 5 10
ATOM     10  C   THR B   5     -10.103  -5.624  12.816  1.00 54.13 LIG 0.24  C 
ATOM     11  N   PRO B   6      -8.881  -5.987  13.264  1.00 52.90 LIG-0.34  N 
ATOM     12  CD  PRO B   6      -8.476  -7.298  13.811  1.00 52.89 LIG 0.13  C 
ATOM     13  CA  PRO B   6      -7.766  -5.031  13.250  1.00 51.99 LIG 0.18  C 
ATOM     14  CG  PRO B   6      -7.055  -7.076  14.266  1.00 52.79 LIG 0.02  C 
ATOM     15  CB  PRO B   6      -6.538  -5.907  13.524  1.00 51.93 LIG 0.04  C 
ATOM     16 O    THR B   5     -10.355  -4.473  12.431  1.00 54.19 LIG-0.27  OA
BRANCH 13 17
ATOM     17  C   PRO B   6      -7.646  -4.353  11.888  1.00 51.04 LIG 0.24  C 
ATOM     18 O    PRO B   6      -8.286  -3.320  11.666  1.00 50.92 LIG-0.27  OA
ATOM     19  N   CYS B   7      -6.837  -4.917  10.991  1.00 49.72 LIG-0.34  N 
ATOM     20 H    CYS B   7      -6.457  -5.681  11.096  1.00 49.72 LIG 0.16  HD
BRANCH 19 21
ATOM     21  CA  CYS B   7      -6.529  -4.246   9.711  1.00 48.85 LIG 0.19  C 
BRANCH 21 22
ATOM     22  C   CYS B   7      -6.402  -2.728   9.825  1.00 48.04 LIG 0.20  C 
ATOM     23 OXT  CYS B   7      -7.023  -1.973   9.079  1.00 47.16 LIG-0.65  OA
ATOM     24 O    CYS B   7      -5.670  -2.231  10.676  1.00 47.51 LIG-0.65  OA
ENDBRANCH 21 22
BRANCH 21 25
ATOM     25  CB  CYS B   7      -7.564  -4.624   8.643  1.00 48.98 LIG 0.11  C 
BRANCH 25 26
ATOM     26 SG   CYS B   7      -8.635  -5.975   9.172  1.00 48.50 LIG-0.18  SA
ATOM     27 HG   CYS B   7      -8.180  -6.484  10.159  1.00 48.50 LIG 0.10  HD
ENDBRANCH 25 26
ENDBRANCH 21 25
ENDBRANCH 19 21
ENDBRANCH 13 17
ENDBRANCH 5 10
ENDBRANCH 3 5
BRANCH 1 28
ATOM     28  CA  SER B   4     -14.281  -4.951  11.322  1.00 57.59 LIG 0.20  C 
BRANCH 28 29
ATOM     29  N   SER B   4     -14.912  -4.705  12.625  1.00 58.14 LIG-0.34  N 
ATOM     30  C   SER B   3     -15.586  -5.649  13.282  1.00 58.75 LIG 0.24  C 
ATOM     31 O    SER B   3     -15.592  -6.830  12.923  1.00 58.75 LIG-0.27  OA
ATOM     32 H    SER B   4     -14.807  -3.903  12.921  1.00 58.14 LIG 0.16  HD
BRANCH 30 33
ATOM     33  CA  SER B   3     -16.355  -5.206  14.545  1.00 59.17 LIG 0.20  C 
BRANCH 33 34
ATOM     34  N   SER B   3     -15.853  -3.915  15.039  1.00 59.50 LIG-0.34  N 
ATOM     35  C   PRO B   2     -14.623  -3.692  15.522  1.00 59.86 LIG 0.25  C 
ATOM     36 O    PRO B   2     -14.300  -2.601  16.005  1.00 59.80 LIG-0.27  OA
ATOM     37 H    SER B   3     -16.443  -3.290  14.988  1.00 59.50 LIG 0.16  HD
BRANCH 35 38
ATOM     38  CA  PRO B   2     -13.579  -4.821  15.487  1.00 60.11 LIG 0.35  C 
ATOM     39  CB  PRO B   2     -13.233  -5.308  16.902  1.00 60.16 LIG 0.05  C 
ATOM     40  CG  PRO B   2     -11.754  -5.502  16.912  1.00 60.30 LIG 0.04  C 
ATOM     41  CD  PRO B   2     -11.194  -4.518  15.939  1.00 60.25 LIG 0.32  C 
ATOM     42  N   PRO B   2     -12.288  -4.342  14.968  1.00 60.27 LIG 0.32  N 
ENDBRANCH 35 38
ENDBRANCH 33 34
BRANCH 33 43
ATOM     43  CB  SER B   3     -17.854  -5.106  14.234  1.00 59.26 LIG 0.20  C 
BRANCH 43 44
ATOM     44 OG   SER B   3     -18.632  -5.556  15.331  1.00 59.53 LIG-0.40  OA
ATOM     45 HG   SER B   3     -18.200  -6.132  15.762  1.00 59.53 LIG 0.21  HD
ENDBRANCH 43 44
ENDBRANCH 33 43
ENDBRANCH 30 33
ENDBRANCH 28 29
BRANCH 28 46
ATOM     46  CB  SER B   4     -14.311  -3.654  10.511  1.00 57.64 LIG 0.20  C 
BRANCH 46 47
ATOM     47 OG   SER B   4     -14.607  -2.542  11.346  1.00 57.32 LIG-0.40  OA
ATOM     48 HG   SER B   4     -14.063  -1.922  11.190  1.00 57.32 LIG 0.21  HD
ENDBRANCH 46 47
ENDBRANCH 28 46
ENDBRANCH 1 28
TORSDOF 18
ENDMDL
MODEL 44
USER: ADFR SOLUTION from run 109
USER: SCORE 13.777433 LL:  -3.082 LR: -11.619 RR:   0.000 FEB:  -6.249
USER: RMSD 10.903893
USER: SEED 108
USER: STATUS no improvement in best in 10 clusters for 5 generations
USER: GENES 20
USER: genes 0 Translation |==|  0.59828 0.71281 0.45030
USER: genes 1 Rotation |==|  0.30674 0.85520 0.33446 0.74306
USER: genes 2 Torsion [C]-N--CA-[CB] |==|  0.85567
USER: genes 3 Torsion [N]-CA--CB-[CG2] |==|  0.59382
USER: genes 4 Torsion [CA]-CB--OG1-[HG1] |==|  0.43759
USER: genes 5 Torsion [N]-CA--C-[N] |==|  0.32240
USER: genes 6 Torsion [N]-CA--C-[O] |==|  0.24817
USER: genes 7 Torsion [C]-N--CA-[CB] |==|  0.81062
USER: genes 8 Torsion [N]-CA--C-[O] |==|  0.41386
USER: genes 9 Torsion [N]-CA--CB-[SG] |==|  0.89020
USER: genes 10 Torsion [CA]-CB--SG-[HG] |==|  0.36237
USER: genes 11 Torsion [N]-C--CA-[N] |==|  0.82620
USER: genes 12 Torsion [C]-CA--N-[C] |==|  0.66952
USER: genes 13 Torsion [N]-C--CA-[N] |==|  0.04005
USER: genes 14 Torsion [C]-CA--N-[C] |==|  0.70905
USER: genes 15 Torsion [N]-C--CA-[N] |==|  0.18046
USER: genes 16 Torsion [C]-CA--CB-[OG] |==|  0.77310
USER: genes 17 Torsion [CA]-CB--OG-[HG] |==|  0.42823
USER: genes 18 Torsion [C]-CA--CB-[OG] |==|  0.46622
USER: genes 19 Torsion [CA]-CB--OG-[HG] |==|  0.83186
ROOT
ATOM      1  C   SER B   4     -16.745  -4.659  14.327  1.00 56.97 LIG 0.24  C 
ATOM      2 O    SER B   4     -17.760  -4.502  15.013  1.00 57.23 LIG-0.27  OA
ATOM      3  N   THR B   5     -16.717  -5.438  13.241  1.00 55.89 LIG-0.34  N 
ATOM      4 H    THR B   5     -16.014  -5.568  12.762  1.00 55.89 LIG 0.16  HD
ENDROOT
BRANCH 3 5
ATOM      5  CA  THR B   5     -17.915  -6.151  12.769  1.00 55.10 LIG 0.20  C 
BRANCH 5 6
ATOM      6  CB  THR B   5     -18.583  -6.989  13.918  1.00 55.33 LIG 0.15  C 
ATOM      7  CG2 THR B   5     -19.213  -8.283  13.385  1.00 55.26 LIG 0.04  C 
BRANCH 6 8
ATOM      8 OG1  THR B   5     -17.612  -7.315  14.928  1.00 55.55 LIG-0.39  OA
ATOM      9 HG1  THR B   5     -18.004  -7.478  15.652  1.00 55.55 LIG 0.21  HD
ENDBRANCH 6 8
ENDBRANCH 5 6
BRANCH 5 10
ATOM     10  C   THR B   5     -18.964  -5.237  12.108  1.00 54.13 LIG 0.24  C 
ATOM     11  N   PRO B   6     -19.228  -5.440  10.798  1.00 52.90 LIG-0.34  N 
ATOM     12  CD  PRO B   6     -18.561  -6.384   9.881  1.00 52.89 LIG 0.13  C 
ATOM     13  CA  PRO B   6     -20.283  -4.671  10.122  1.00 51.99 LIG 0.18  C 
ATOM     14  CG  PRO B   6     -19.172  -6.077   8.537  1.00 52.79 LIG 0.02  C 
ATOM     15  CB  PRO B   6     -20.466  -5.409   8.791  1.00 51.93 LIG 0.04  C 
ATOM     16 O    THR B   5     -19.546  -4.372  12.778  1.00 54.19 LIG-0.27  OA
BRANCH 13 17
ATOM     17  C   PRO B   6     -21.577  -4.693  10.929  1.00 51.04 LIG 0.24  C 
ATOM     18 O    PRO B   6     -21.775  -3.822  11.782  1.00 50.92 LIG-0.27  OA
ATOM     19  N   CYS B   7     -22.448  -5.668  10.665  1.00 49.72 LIG-0.34  N 
ATOM     20 H    CYS B   7     -22.287  -6.331  10.142  1.00 49.72 LIG 0.16  HD
BRANCH 19 21
ATOM     21  CA  CYS B   7     -23.794  -5.674  11.273  1.00 48.85 LIG 0.19  C 
BRANCH 21 22
ATOM     22  C   CYS B   7     -24.609  -4.415  10.984  1.00 48.04 LIG 0.20  C 
ATOM     23 OXT  CYS B   7     -24.070  -3.322  10.826  1.00 47.16 LIG-0.65  OA
ATOM     24 O    CYS B   7     -25.833  -4.476  10.902  1.00 47.51 LIG-0.65  OA
ENDBRANCH 21 22
BRANCH 21 25
ATOM     25  CB  CYS B   7     -23.700  -5.923  12.785  1.00 48.98 LIG 0.11  C 
BRANCH 25 26
ATOM     26 SG   CYS B   7     -22.447  -7.152  13.202  1.00 48.50 LIG-0.18  SA
ATOM     27 HG   CYS B   7     -21.740  -6.724  14.072  1.00 48.50 LIG 0.10  HD
ENDBRANCH 25 26
ENDBRANCH 21 25
ENDBRANCH 19 21
ENDBRANCH 13 17
ENDBRANCH 5 10
ENDBRANCH 3 5
BRANCH 1 28
ATOM     28  CA  SER B   4     -15.437  -3.956  14.710  1.00 57.59 LIG 0.20  C 
BRANCH 28 29
ATOM     29  N   SER B   4     -14.365  -4.902  15.046  1.00 58.14 LIG-0.34  N 
ATOM     30  C   SER B   3     -13.790  -4.932  16.248  1.00 58.75 LIG 0.24  C 
ATOM     31 O    SER B   3     -14.221  -4.283  17.205  1.00 58.75 LIG-0.27  OA
ATOM     32 H    SER B   4     -14.147  -5.428  14.401  1.00 58.14 LIG 0.16  HD
BRANCH 30 33
ATOM     33  CA  SER B   3     -12.553  -5.843  16.407  1.00 59.17 LIG 0.20  C 
BRANCH 33 34
ATOM     34  N   SER B   3     -12.035  -6.257  15.094  1.00 59.50 LIG-0.34  N 
ATOM     35  C   PRO B   2     -12.189  -7.470  14.545  1.00 59.86 LIG 0.25  C 
ATOM     36 O    PRO B   2     -11.646  -7.776  13.477  1.00 59.80 LIG-0.27  OA
ATOM     37 H    SER B   3     -11.608  -5.627  14.694  1.00 59.50 LIG 0.16  HD
BRANCH 35 38
ATOM     38  CA  PRO B   2     -13.054  -8.521  15.259  1.00 60.11 LIG 0.35  C 
ATOM     39  CB  PRO B   2     -13.108  -9.836  14.465  1.00 60.16 LIG 0.05  C 
ATOM     40  CG  PRO B   2     -14.525 -10.295  14.539  1.00 60.30 LIG 0.04  C 
ATOM     41  CD  PRO B   2     -15.361  -9.064  14.650  1.00 60.25 LIG 0.32  C 
ATOM     42  N   PRO B   2     -14.464  -8.105  15.319  1.00 60.27 LIG 0.32  N 
ENDBRANCH 35 38
ENDBRANCH 33 34
BRANCH 33 43
ATOM     43  CB  SER B   3     -11.464  -5.108  17.197  1.00 59.26 LIG 0.20  C 
BRANCH 43 44
ATOM     44 OG   SER B   3     -10.725  -4.239  16.355  1.00 59.53 LIG-0.40  OA
ATOM     45 HG   SER B   3     -10.401  -3.614  16.814  1.00 59.53 LIG 0.21  HD
ENDBRANCH 43 44
ENDBRANCH 33 43
ENDBRANCH 30 33
ENDBRANCH 28 29
BRANCH 28 46
ATOM     46  CB  SER B   4     -14.963  -3.068  13.557  1.00 57.64 LIG 0.20  C 
BRANCH 46 47
ATOM     47 OG   SER B   4     -13.921  -2.201  13.983  1.00 57.32 LIG-0.40  OA
ATOM     48 HG   SER B   4     -14.203  -1.705  14.599  1.00 57.32 LIG 0.21  HD
ENDBRANCH 46 47
ENDBRANCH 28 46
ENDBRANCH 1 28
TORSDOF 18
ENDMDL
MODEL 45
USER: ADFR SOLUTION from run 166
USER: SCORE 13.829350 LL:  -3.022 LR: -11.597 RR:   0.000 FEB:  -6.227
USER: RMSD 7.137609
USER: SEED 165
USER: STATUS no improvement in best in 2 clusters for 5 generations
USER: GENES 20
USER: genes 0 Translation |==|  0.73529 0.54988 0.52124
USER: genes 1 Rotation |==|  0.18101 0.24048 0.71678 0.68413
USER: genes 2 Torsion [C]-N--CA-[CB] |==|  0.79418
USER: genes 3 Torsion [N]-CA--CB-[CG2] |==|  0.92657
USER: genes 4 Torsion [CA]-CB--OG1-[HG1] |==|  0.43304
USER: genes 5 Torsion [N]-CA--C-[N] |==|  0.12017
USER: genes 6 Torsion [N]-CA--C-[O] |==|  0.25795
USER: genes 7 Torsion [C]-N--CA-[CB] |==|  0.46910
USER: genes 8 Torsion [N]-CA--C-[O] |==|  0.90966
USER: genes 9 Torsion [N]-CA--CB-[SG] |==|  0.04802
USER: genes 10 Torsion [CA]-CB--SG-[HG] |==|  0.25525
USER: genes 11 Torsion [N]-C--CA-[N] |==|  0.00426
USER: genes 12 Torsion [C]-CA--N-[C] |==|  0.77727
USER: genes 13 Torsion [N]-C--CA-[N] |==|  0.39275
USER: genes 14 Torsion [C]-CA--N-[C] |==|  0.75057
USER: genes 15 Torsion [N]-C--CA-[N] |==|  0.20624
USER: genes 16 Torsion [C]-CA--CB-[OG] |==|  0.61594
USER: genes 17 Torsion [CA]-CB--OG-[HG] |==|  0.78720
USER: genes 18 Torsion [C]-CA--CB-[OG] |==|  0.63810
USER: genes 19 Torsion [CA]-CB--OG-[HG] |==|  0.37264
ROOT
ATOM      1  C   SER B   4     -12.840  -7.103  15.338  1.00 56.97 LIG 0.24  C 
ATOM      2 O    SER B   4     -11.841  -7.273  16.043  1.00 57.23 LIG-0.27  OA
ATOM      3  N   THR B   5     -12.966  -6.073  14.495  1.00 55.89 LIG-0.34  N 
ATOM      4 H    THR B   5     -13.661  -5.934  14.008  1.00 55.89 LIG 0.16  HD
ENDROOT
BRANCH 3 5
ATOM      5  CA  THR B   5     -11.898  -5.073  14.330  1.00 55.10 LIG 0.20  C 
BRANCH 5 6
ATOM      6  CB  THR B   5     -11.818  -4.100  15.561  1.00 55.33 LIG 0.15  C 
ATOM      7  CG2 THR B   5     -13.171  -3.975  16.275  1.00 55.26 LIG 0.04  C 
BRANCH 6 8
ATOM      8 OG1  THR B   5     -10.827  -4.560  16.497  1.00 55.55 LIG-0.39  OA
ATOM      9 HG1  THR B   5     -10.554  -3.912  16.957  1.00 55.55 LIG 0.21  HD
ENDBRANCH 6 8
ENDBRANCH 5 6
BRANCH 5 10
ATOM     10  C   THR B   5     -10.511  -5.683  14.053  1.00 54.13 LIG 0.24  C 
ATOM     11  N   PRO B   6     -10.446  -6.705  13.170  1.00 52.90 LIG-0.34  N 
ATOM     12  CD  PRO B   6     -11.570  -7.382  12.494  1.00 52.89 LIG 0.13  C 
ATOM     13  CA  PRO B   6      -9.149  -7.277  12.784  1.00 51.99 LIG 0.18  C 
ATOM     14  CG  PRO B   6     -10.913  -8.514  11.745  1.00 52.79 LIG 0.02  C 
ATOM     15  CB  PRO B   6      -9.490  -8.153  11.573  1.00 51.93 LIG 0.04  C 
ATOM     16 O    THR B   5      -9.505  -5.224  14.613  1.00 54.19 LIG-0.27  OA
BRANCH 13 17
ATOM     17  C   PRO B   6      -8.164  -6.180  12.392  1.00 51.04 LIG 0.24  C 
ATOM     18 O    PRO B   6      -7.402  -5.714  13.244  1.00 50.92 LIG-0.27  OA
ATOM     19  N   CYS B   7      -8.172  -5.774  11.121  1.00 49.72 LIG-0.34  N 
ATOM     20 H    CYS B   7      -8.755  -6.021  10.539  1.00 49.72 LIG 0.16  HD
BRANCH 19 21
ATOM     21  CA  CYS B   7      -7.147  -4.841  10.610  1.00 48.85 LIG 0.19  C 
BRANCH 21 22
ATOM     22  C   CYS B   7      -7.214  -3.448  11.233  1.00 48.04 LIG 0.20  C 
ATOM     23 OXT  CYS B   7      -6.203  -2.772  11.408  1.00 47.16 LIG-0.65  OA
ATOM     24 O    CYS B   7      -8.295  -2.974  11.573  1.00 47.51 LIG-0.65  OA
ENDBRANCH 21 22
BRANCH 21 25
ATOM     25  CB  CYS B   7      -7.214  -4.753   9.080  1.00 48.98 LIG 0.11  C 
BRANCH 25 26
ATOM     26 SG   CYS B   7      -8.774  -5.379   8.424  1.00 48.50 LIG-0.18  SA
ATOM     27 HG   CYS B   7      -9.558  -4.476   8.323  1.00 48.50 LIG 0.10  HD
ENDBRANCH 25 26
ENDBRANCH 21 25
ENDBRANCH 19 21
ENDBRANCH 13 17
ENDBRANCH 5 10
ENDBRANCH 3 5
BRANCH 1 28
ATOM     28  CA  SER B   4     -14.014  -8.086  15.411  1.00 57.59 LIG 0.20  C 
BRANCH 28 29
ATOM     29  N   SER B   4     -15.101  -7.739  14.485  1.00 58.14 LIG-0.34  N 
ATOM     30  C   SER B   3     -16.000  -6.795  14.764  1.00 58.75 LIG 0.24  C 
ATOM     31 O    SER B   3     -15.893  -6.043  15.736  1.00 58.75 LIG-0.27  OA
ATOM     32 H    SER B   4     -15.101  -8.196  13.757  1.00 58.14 LIG 0.16  HD
BRANCH 30 33
ATOM     33  CA  SER B   3     -17.193  -6.661  13.792  1.00 59.17 LIG 0.20  C 
BRANCH 33 34
ATOM     34  N   SER B   3     -18.436  -6.374  14.524  1.00 59.50 LIG-0.34  N 
ATOM     35  C   PRO B   2     -19.285  -7.293  15.004  1.00 59.86 LIG 0.25  C 
ATOM     36 O    PRO B   2     -20.359  -6.978  15.529  1.00 59.80 LIG-0.27  OA
ATOM     37 H    SER B   3     -18.576  -5.531  14.620  1.00 59.50 LIG 0.16  HD
BRANCH 35 38
ATOM     38  CA  PRO B   2     -18.928  -8.785  14.897  1.00 60.11 LIG 0.35  C 
ATOM     39  CB  PRO B   2     -20.114  -9.676  15.297  1.00 60.16 LIG 0.05  C 
ATOM     40  CG  PRO B   2     -19.534 -10.777  16.119  1.00 60.30 LIG 0.04  C 
ATOM     41  CD  PRO B   2     -18.331 -10.208  16.795  1.00 60.25 LIG 0.32  C 
ATOM     42  N   PRO B   2     -17.884  -9.158  15.864  1.00 60.27 LIG 0.32  N 
ENDBRANCH 35 38
ENDBRANCH 33 34
BRANCH 33 43
ATOM     43  CB  SER B   3     -16.911  -5.550  12.773  1.00 59.26 LIG 0.20  C 
BRANCH 43 44
ATOM     44 OG   SER B   3     -18.067  -4.760  12.550  1.00 59.53 LIG-0.40  OA
ATOM     45 HG   SER B   3     -18.600  -5.178  12.054  1.00 59.53 LIG 0.21  HD
ENDBRANCH 43 44
ENDBRANCH 33 43
ENDBRANCH 30 33
ENDBRANCH 28 29
BRANCH 28 46
ATOM     46  CB  SER B   4     -13.531  -9.502  15.088  1.00 57.64 LIG 0.20  C 
BRANCH 46 47
ATOM     47 OG   SER B   4     -14.363 -10.109  14.109  1.00 57.32 LIG-0.40  OA
ATOM     48 HG   SER B   4     -13.886 -10.478  13.525  1.00 57.32 LIG 0.21  HD
ENDBRANCH 46 47
ENDBRANCH 28 46
ENDBRANCH 1 28
TORSDOF 18
ENDMDL
MODEL 46
USER: ADFR SOLUTION from run 2
USER: SCORE 12.286568 LL:  -2.791 LR: -11.599 RR:   0.000 FEB:  -6.230
USER: RMSD 10.928668
USER: SEED 16335
USER: STATUS no improvement in best in 8 clusters for 5 generations
USER: GENES 20
USER: genes 0 Translation |==|  0.54398 0.51733 0.44285
USER: genes 1 Rotation |==|  0.47241 0.34046 0.02731 0.51863
USER: genes 2 Torsion [C]-N--CA-[CB] |==|  0.46667
USER: genes 3 Torsion [N]-CA--CB-[CG2] |==|  0.87705
USER: genes 4 Torsion [CA]-CB--OG1-[HG1] |==|  0.92638
USER: genes 5 Torsion [N]-CA--C-[N] |==|  0.43967
USER: genes 6 Torsion [N]-CA--C-[O] |==|  0.92191
USER: genes 7 Torsion [C]-N--CA-[CB] |==|  0.35714
USER: genes 8 Torsion [N]-CA--C-[O] |==|  0.94329
USER: genes 9 Torsion [N]-CA--CB-[SG] |==|  0.82582
USER: genes 10 Torsion [CA]-CB--SG-[HG] |==|  0.96749
USER: genes 11 Torsion [N]-C--CA-[N] |==|  0.31680
USER: genes 12 Torsion [C]-CA--N-[C] |==|  0.51227
USER: genes 13 Torsion [N]-C--CA-[N] |==|  0.11905
USER: genes 14 Torsion [C]-CA--N-[C] |==|  0.71722
USER: genes 15 Torsion [N]-C--CA-[N] |==|  0.47555
USER: genes 16 Torsion [C]-CA--CB-[OG] |==|  0.40821
USER: genes 17 Torsion [CA]-CB--OG-[HG] |==|  0.94987
USER: genes 18 Torsion [C]-CA--CB-[OG] |==|  0.14287
USER: genes 19 Torsion [CA]-CB--OG-[HG] |==|  0.85957
ROOT
ATOM      1  C   SER B   4     -18.293  -7.591  14.221  1.00 56.97 LIG 0.24  C 
ATOM      2 O    SER B   4     -18.216  -8.088  13.092  1.00 57.23 LIG-0.27  OA
ATOM      3  N   THR B   5     -19.335  -7.793  15.033  1.00 55.89 LIG-0.34  N 
ATOM      4 H    THR B   5     -19.409  -7.443  15.815  1.00 55.89 LIG 0.16  HD
ENDROOT
BRANCH 3 5
ATOM      5  CA  THR B   5     -20.466  -8.652  14.642  1.00 55.10 LIG 0.20  C 
BRANCH 5 6
ATOM      6  CB  THR B   5     -21.402  -8.970  15.863  1.00 55.33 LIG 0.15  C 
ATOM      7  CG2 THR B   5     -20.596  -9.335  17.117  1.00 55.26 LIG 0.04  C 
BRANCH 6 8
ATOM      8 OG1  THR B   5     -22.246  -7.842  16.153  1.00 55.55 LIG-0.39  OA
ATOM      9 HG1  THR B   5     -21.869  -7.136  15.896  1.00 55.55 LIG 0.21  HD
ENDBRANCH 6 8
ENDBRANCH 5 6
BRANCH 5 10
ATOM     10  C   THR B   5     -21.299  -8.091  13.475  1.00 54.13 LIG 0.24  C 
ATOM     11  N   PRO B   6     -22.044  -8.968  12.765  1.00 52.90 LIG-0.34  N 
ATOM     12  CD  PRO B   6     -22.089 -10.436  12.914  1.00 52.89 LIG 0.13  C 
ATOM     13  CA  PRO B   6     -22.936  -8.496  11.697  1.00 51.99 LIG 0.18  C 
ATOM     14  CG  PRO B   6     -22.976 -10.887  11.780  1.00 52.79 LIG 0.02  C 
ATOM     15  CB  PRO B   6     -23.798  -9.724  11.383  1.00 51.93 LIG 0.04  C 
ATOM     16 O    THR B   5     -21.288  -6.876  13.229  1.00 54.19 LIG-0.27  OA
BRANCH 13 17
ATOM     17  C   PRO B   6     -23.805  -7.341  12.183  1.00 51.04 LIG 0.24  C 
ATOM     18 O    PRO B   6     -24.096  -7.261  13.381  1.00 50.92 LIG-0.27  OA
ATOM     19  N   CYS B   7     -24.212  -6.455  11.273  1.00 49.72 LIG-0.34  N 
ATOM     20 H    CYS B   7     -24.096  -6.544  10.426  1.00 49.72 LIG 0.16  HD
BRANCH 19 21
ATOM     21  CA  CYS B   7     -24.914  -5.217  11.672  1.00 48.85 LIG 0.19  C 
BRANCH 21 22
ATOM     22  C   CYS B   7     -26.411  -5.231  11.372  1.00 48.04 LIG 0.20  C 
ATOM     23 OXT  CYS B   7     -27.190  -4.476  11.949  1.00 47.16 LIG-0.65  OA
ATOM     24 O    CYS B   7     -26.867  -6.007  10.535  1.00 47.51 LIG-0.65  OA
ENDBRANCH 21 22
BRANCH 21 25
ATOM     25  CB  CYS B   7     -24.245  -3.991  11.036  1.00 48.98 LIG 0.11  C 
BRANCH 25 26
ATOM     26 SG   CYS B   7     -22.542  -3.773  11.590  1.00 48.50 LIG-0.18  SA
ATOM     27 HG   CYS B   7     -22.329  -4.496  12.524  1.00 48.50 LIG 0.10  HD
ENDBRANCH 25 26
ENDBRANCH 21 25
ENDBRANCH 19 21
ENDBRANCH 13 17
ENDBRANCH 5 10
ENDBRANCH 3 5
BRANCH 1 28
ATOM     28  CA  SER B   4     -17.169  -6.689  14.745  1.00 57.59 LIG 0.20  C 
BRANCH 28 29
ATOM     29  N   SER B   4     -15.910  -7.416  14.949  1.00 58.14 LIG-0.34  N 
ATOM     30  C   SER B   3     -14.831  -6.840  15.481  1.00 58.75 LIG 0.24  C 
ATOM     31 O    SER B   3     -14.861  -5.713  15.982  1.00 58.75 LIG-0.27  OA
ATOM     32 H    SER B   4     -15.934  -8.238  14.696  1.00 58.14 LIG 0.16  HD
BRANCH 30 33
ATOM     33  CA  SER B   3     -13.524  -7.662  15.465  1.00 59.17 LIG 0.20  C 
BRANCH 33 34
ATOM     34  N   SER B   3     -13.344  -8.337  14.171  1.00 59.50 LIG-0.34  N 
ATOM     35  C   PRO B   2     -13.587  -9.632  13.930  1.00 59.86 LIG 0.25  C 
ATOM     36 O    PRO B   2     -13.324 -10.153  12.840  1.00 59.80 LIG-0.27  OA
ATOM     37 H    SER B   3     -13.057  -7.805  13.558  1.00 59.50 LIG 0.16  HD
BRANCH 35 38
ATOM     38  CA  PRO B   2     -14.200 -10.507  15.036  1.00 60.11 LIG 0.35  C 
ATOM     39  CB  PRO B   2     -13.169 -10.836  16.127  1.00 60.16 LIG 0.05  C 
ATOM     40  CG  PRO B   2     -13.383 -12.273  16.465  1.00 60.30 LIG 0.04  C 
ATOM     41  CD  PRO B   2     -13.889 -12.927  15.222  1.00 60.25 LIG 0.32  C 
ATOM     42  N   PRO B   2     -14.583 -11.832  14.522  1.00 60.27 LIG 0.32  N 
ENDBRANCH 35 38
ENDBRANCH 33 34
BRANCH 33 43
ATOM     43  CB  SER B   3     -12.330  -6.743  15.753  1.00 59.26 LIG 0.20  C 
BRANCH 43 44
ATOM     44 OG   SER B   3     -11.318  -7.434  16.468  1.00 59.53 LIG-0.40  OA
ATOM     45 HG   SER B   3     -11.644  -8.125  16.815  1.00 59.53 LIG 0.21  HD
ENDBRANCH 43 44
ENDBRANCH 33 43
ENDBRANCH 30 33
ENDBRANCH 28 29
BRANCH 28 46
ATOM     46  CB  SER B   4     -16.918  -5.542  13.763  1.00 57.64 LIG 0.20  C 
BRANCH 46 47
ATOM     47 OG   SER B   4     -18.132  -4.875  13.444  1.00 57.32 LIG-0.40  OA
ATOM     48 HG   SER B   4     -18.710  -5.439  13.215  1.00 57.32 LIG 0.21  HD
ENDBRANCH 46 47
ENDBRANCH 28 46
ENDBRANCH 1 28
TORSDOF 18
ENDMDL
MODEL 47
USER: ADFR SOLUTION from run 97
USER: SCORE 13.838974 LL:  -2.903 LR: -11.577 RR:   0.000 FEB:  -6.208
USER: RMSD 6.910942
USER: SEED 96
USER: STATUS no improvement in best in 10 clusters for 5 generations
USER: GENES 20
USER: genes 0 Translation |==|  0.69311 0.60771 0.48300
USER: genes 1 Rotation |==|  0.25734 0.29604 0.58224 0.87783
USER: genes 2 Torsion [C]-N--CA-[CB] |==|  0.76769
USER: genes 3 Torsion [N]-CA--CB-[CG2] |==|  0.17727
USER: genes 4 Torsion [CA]-CB--OG1-[HG1] |==|  0.25069
USER: genes 5 Torsion [N]-CA--C-[N] |==|  0.16263
USER: genes 6 Torsion [N]-CA--C-[O] |==|  0.45533
USER: genes 7 Torsion [C]-N--CA-[CB] |==|  0.86292
USER: genes 8 Torsion [N]-CA--C-[O] |==|  0.58103
USER: genes 9 Torsion [N]-CA--CB-[SG] |==|  0.90195
USER: genes 10 Torsion [CA]-CB--SG-[HG] |==|  0.36522
USER: genes 11 Torsion [N]-C--CA-[N] |==|  0.27340
USER: genes 12 Torsion [C]-CA--N-[C] |==|  0.72342
USER: genes 13 Torsion [N]-C--CA-[N] |==|  0.37516
USER: genes 14 Torsion [C]-CA--N-[C] |==|  0.76631
USER: genes 15 Torsion [N]-C--CA-[N] |==|  0.20514
USER: genes 16 Torsion [C]-CA--CB-[OG] |==|  0.65121
USER: genes 17 Torsion [CA]-CB--OG-[HG] |==|  0.34712
USER: genes 18 Torsion [C]-CA--CB-[OG] |==|  0.52330
USER: genes 19 Torsion [CA]-CB--OG-[HG] |==|  0.63134
ROOT
ATOM      1  C   SER B   4     -14.042  -6.235  14.793  1.00 56.97 LIG 0.24  C 
ATOM      2 O    SER B   4     -13.286  -7.208  14.705  1.00 57.23 LIG-0.27  OA
ATOM      3  N   THR B   5     -13.599  -4.982  14.935  1.00 55.89 LIG-0.34  N 
ATOM      4 H    THR B   5     -14.114  -4.297  15.011  1.00 55.89 LIG 0.16  HD
ENDROOT
BRANCH 3 5
ATOM      5  CA  THR B   5     -12.161  -4.669  14.973  1.00 55.10 LIG 0.20  C 
BRANCH 5 6
ATOM      6  CB  THR B   5     -11.562  -4.865  16.412  1.00 55.33 LIG 0.15  C 
ATOM      7  CG2 THR B   5     -11.638  -6.330  16.864  1.00 55.26 LIG 0.04  C 
BRANCH 6 8
ATOM      8 OG1  THR B   5     -10.192  -4.428  16.446  1.00 55.55 LIG-0.39  OA
ATOM      9 HG1  THR B   5     -10.161  -3.615  16.654  1.00 55.55 LIG 0.21  HD
ENDBRANCH 6 8
ENDBRANCH 5 6
BRANCH 5 10
ATOM     10  C   THR B   5     -11.326  -5.455  13.945  1.00 54.13 LIG 0.24  C 
ATOM     11  N   PRO B   6     -11.652  -5.314  12.641  1.00 52.90 LIG-0.34  N 
ATOM     12  CD  PRO B   6     -12.786  -4.558  12.073  1.00 52.89 LIG 0.13  C 
ATOM     13  CA  PRO B   6     -10.843  -5.957  11.595  1.00 51.99 LIG 0.18  C 
ATOM     14  CG  PRO B   6     -12.725  -4.868  10.598  1.00 52.79 LIG 0.02  C 
ATOM     15  CB  PRO B   6     -11.344  -5.304  10.303  1.00 51.93 LIG 0.04  C 
ATOM     16 O    THR B   5     -10.382  -6.165  14.321  1.00 54.19 LIG-0.27  OA
BRANCH 13 17
ATOM     17  C   PRO B   6      -9.359  -5.672  11.801  1.00 51.04 LIG 0.24  C 
ATOM     18 O    PRO B   6      -8.521  -6.361  11.211  1.00 50.92 LIG-0.27  OA
ATOM     19  N   CYS B   7      -9.034  -4.670  12.619  1.00 49.72 LIG-0.34  N 
ATOM     20 H    CYS B   7      -9.599  -4.241  13.105  1.00 49.72 LIG 0.16  HD
BRANCH 19 21
ATOM     21  CA  CYS B   7      -7.636  -4.213  12.749  1.00 48.85 LIG 0.19  C 
BRANCH 21 22
ATOM     22  C   CYS B   7      -7.148  -3.371  11.571  1.00 48.04 LIG 0.20  C 
ATOM     23 OXT  CYS B   7      -7.921  -2.679  10.912  1.00 47.16 LIG-0.65  OA
ATOM     24 O    CYS B   7      -5.960  -3.372  11.261  1.00 47.51 LIG-0.65  OA
ENDBRANCH 21 22
BRANCH 21 25
ATOM     25  CB  CYS B   7      -6.700  -5.405  12.986  1.00 48.98 LIG 0.11  C 
BRANCH 25 26
ATOM     26 SG   CYS B   7      -7.467  -6.690  13.994  1.00 48.50 LIG-0.18  SA
ATOM     27 HG   CYS B   7      -7.309  -7.758  13.470  1.00 48.50 LIG 0.10  HD
ENDBRANCH 25 26
ENDBRANCH 21 25
ENDBRANCH 19 21
ENDBRANCH 13 17
ENDBRANCH 5 10
ENDBRANCH 3 5
BRANCH 1 28
ATOM     28  CA  SER B   4     -15.562  -6.433  14.752  1.00 57.59 LIG 0.20  C 
BRANCH 28 29
ATOM     29  N   SER B   4     -16.079  -6.557  13.383  1.00 58.14 LIG-0.34  N 
ATOM     30  C   SER B   3     -16.646  -5.536  12.740  1.00 58.75 LIG 0.24  C 
ATOM     31 O    SER B   3     -16.633  -4.384  13.183  1.00 58.75 LIG-0.27  OA
ATOM     32 H    SER B   4     -15.983  -7.340  13.041  1.00 58.14 LIG 0.16  HD
BRANCH 30 33
ATOM     33  CA  SER B   3     -17.313  -5.851  11.383  1.00 59.17 LIG 0.20  C 
BRANCH 33 34
ATOM     34  N   SER B   3     -18.629  -5.203  11.282  1.00 59.50 LIG-0.34  N 
ATOM     35  C   PRO B   2     -19.778  -5.698  11.764  1.00 59.86 LIG 0.25  C 
ATOM     36 O    PRO B   2     -20.863  -5.142  11.561  1.00 59.80 LIG-0.27  OA
ATOM     37 H    SER B   3     -18.595  -4.449  10.870  1.00 59.50 LIG 0.16  HD
BRANCH 35 38
ATOM     38  CA  PRO B   2     -19.758  -6.997  12.586  1.00 60.11 LIG 0.35  C 
ATOM     39  CB  PRO B   2     -21.181  -7.507  12.863  1.00 60.16 LIG 0.05  C 
ATOM     40  CG  PRO B   2     -21.177  -7.965  14.282  1.00 60.30 LIG 0.04  C 
ATOM     41  CD  PRO B   2     -20.172  -7.122  14.994  1.00 60.25 LIG 0.32  C 
ATOM     42  N   PRO B   2     -19.211  -6.772  13.933  1.00 60.27 LIG 0.32  N 
ENDBRANCH 35 38
ENDBRANCH 33 34
BRANCH 33 43
ATOM     43  CB  SER B   3     -16.405  -5.385  10.238  1.00 59.26 LIG 0.20  C 
BRANCH 43 44
ATOM     44 OG   SER B   3     -17.102  -4.518   9.358  1.00 59.53 LIG-0.40  OA
ATOM     45 HG   SER B   3     -16.680  -3.796   9.285  1.00 59.53 LIG 0.21  HD
ENDBRANCH 43 44
ENDBRANCH 33 43
ENDBRANCH 30 33
ENDBRANCH 28 29
BRANCH 28 46
ATOM     46  CB  SER B   4     -15.946  -7.691  15.536  1.00 57.64 LIG 0.20  C 
BRANCH 46 47
ATOM     47 OG   SER B   4     -17.321  -8.001  15.352  1.00 57.32 LIG-0.40  OA
ATOM     48 HG   SER B   4     -17.674  -8.161  16.096  1.00 57.32 LIG 0.21  HD
ENDBRANCH 46 47
ENDBRANCH 28 46
ENDBRANCH 1 28
TORSDOF 18
ENDMDL
MODEL 48
USER: ADFR SOLUTION from run 130
USER: SCORE 13.787979 LL:  -2.615 LR: -11.565 RR:   0.000 FEB:  -6.195
USER: RMSD 7.518818
USER: SEED 129
USER: STATUS no improvement in best in 6 clusters for 5 generations
USER: GENES 20
USER: genes 0 Translation |==|  0.71958 0.71303 0.39608
USER: genes 1 Rotation |==|  0.65049 0.44069 0.23449 0.89158
USER: genes 2 Torsion [C]-N--CA-[CB] |==|  0.82716
USER: genes 3 Torsion [N]-CA--CB-[CG2] |==|  0.90054
USER: genes 4 Torsion [CA]-CB--OG1-[HG1] |==|  0.31052
USER: genes 5 Torsion [N]-CA--C-[N] |==|  0.36427
USER: genes 6 Torsion [N]-CA--C-[O] |==|  0.24182
USER: genes 7 Torsion [C]-N--CA-[CB] |==|  0.76228
USER: genes 8 Torsion [N]-CA--C-[O] |==|  0.63565
USER: genes 9 Torsion [N]-CA--CB-[SG] |==|  0.95591
USER: genes 10 Torsion [CA]-CB--SG-[HG] |==|  0.98203
USER: genes 11 Torsion [N]-C--CA-[N] |==|  0.86758
USER: genes 12 Torsion [C]-CA--N-[C] |==|  0.81136
USER: genes 13 Torsion [N]-C--CA-[N] |==|  0.48848
USER: genes 14 Torsion [C]-CA--N-[C] |==|  0.57905
USER: genes 15 Torsion [N]-C--CA-[N] |==|  0.37046
USER: genes 16 Torsion [C]-CA--CB-[OG] |==|  0.52334
USER: genes 17 Torsion [CA]-CB--OG-[HG] |==|  0.80808
USER: genes 18 Torsion [C]-CA--CB-[OG] |==|  0.42013
USER: genes 19 Torsion [CA]-CB--OG-[HG] |==|  0.78785
ROOT
ATOM      1  C   SER B   4     -13.288  -4.656  13.554  1.00 56.97 LIG 0.24  C 
ATOM      2 O    SER B   4     -12.979  -4.132  12.479  1.00 57.23 LIG-0.27  OA
ATOM      3  N   THR B   5     -12.633  -5.702  14.066  1.00 55.89 LIG-0.34  N 
ATOM      4 H    THR B   5     -12.845  -6.086  14.806  1.00 55.89 LIG 0.16  HD
ENDROOT
BRANCH 3 5
ATOM      5  CA  THR B   5     -11.469  -6.295  13.386  1.00 55.10 LIG 0.20  C 
BRANCH 5 6
ATOM      6  CB  THR B   5     -11.852  -6.875  11.977  1.00 55.33 LIG 0.15  C 
ATOM      7  CG2 THR B   5     -13.258  -7.491  11.979  1.00 55.26 LIG 0.04  C 
BRANCH 6 8
ATOM      8 OG1  THR B   5     -11.788  -5.842  10.978  1.00 55.55 LIG-0.39  OA
ATOM      9 HG1  THR B   5     -11.151  -5.999  10.453  1.00 55.55 LIG 0.21  HD
ENDBRANCH 6 8
ENDBRANCH 5 6
BRANCH 5 10
ATOM     10  C   THR B   5     -10.272  -5.335  13.250  1.00 54.13 LIG 0.24  C 
ATOM     11  N   PRO B   6      -9.058  -5.798  13.624  1.00 52.90 LIG-0.34  N 
ATOM     12  CD  PRO B   6      -8.744  -7.101  14.242  1.00 52.89 LIG 0.13  C 
ATOM     13  CA  PRO B   6      -7.856  -4.975  13.437  1.00 51.99 LIG 0.18  C 
ATOM     14  CG  PRO B   6      -7.272  -7.006  14.557  1.00 52.79 LIG 0.02  C 
ATOM     15  CB  PRO B   6      -6.706  -5.959  13.679  1.00 51.93 LIG 0.04  C 
ATOM     16 O    THR B   5     -10.437  -4.194  12.793  1.00 54.19 LIG-0.27  OA
BRANCH 13 17
ATOM     17  C   PRO B   6      -7.792  -4.416  12.019  1.00 51.04 LIG 0.24  C 
ATOM     18 O    PRO B   6      -8.359  -3.351  11.759  1.00 50.92 LIG-0.27  OA
ATOM     19  N   CYS B   7      -7.109  -5.118  11.113  1.00 49.72 LIG-0.34  N 
ATOM     20 H    CYS B   7      -6.787  -5.903  11.252  1.00 49.72 LIG 0.16  HD
BRANCH 19 21
ATOM     21  CA  CYS B   7      -6.852  -4.578   9.763  1.00 48.85 LIG 0.19  C 
BRANCH 21 22
ATOM     22  C   CYS B   7      -6.513  -3.088   9.748  1.00 48.04 LIG 0.20  C 
ATOM     23 OXT  CYS B   7      -5.668  -2.613  10.503  1.00 47.16 LIG-0.65  OA
ATOM     24 O    CYS B   7      -7.087  -2.331   8.969  1.00 47.51 LIG-0.65  OA
ENDBRANCH 21 22
BRANCH 21 25
ATOM     25  CB  CYS B   7      -8.034  -4.873   8.830  1.00 48.98 LIG 0.11  C 
BRANCH 25 26
ATOM     26 SG   CYS B   7      -9.130  -6.143   9.493  1.00 48.50 LIG-0.18  SA
ATOM     27 HG   CYS B   7      -8.650  -6.606  10.491  1.00 48.50 LIG 0.10  HD
ENDBRANCH 25 26
ENDBRANCH 21 25
ENDBRANCH 19 21
ENDBRANCH 13 17
ENDBRANCH 5 10
ENDBRANCH 3 5
BRANCH 1 28
ATOM     28  CA  SER B   4     -14.475  -4.118  14.362  1.00 57.59 LIG 0.20  C 
BRANCH 28 29
ATOM     29  N   SER B   4     -15.384  -5.182  14.807  1.00 58.14 LIG-0.34  N 
ATOM     30  C   SER B   3     -16.131  -5.885  13.955  1.00 58.75 LIG 0.24  C 
ATOM     31 O    SER B   3     -15.996  -5.803  12.732  1.00 58.75 LIG-0.27  OA
ATOM     32 H    SER B   4     -15.388  -5.308  15.658  1.00 58.14 LIG 0.16  HD
BRANCH 30 33
ATOM     33  CA  SER B   3     -17.176  -6.842  14.570  1.00 59.17 LIG 0.20  C 
BRANCH 33 34
ATOM     34  N   SER B   3     -17.990  -7.474  13.521  1.00 59.50 LIG-0.34  N 
ATOM     35  C   PRO B   2     -19.254  -7.895  13.666  1.00 59.86 LIG 0.25  C 
ATOM     36 O    PRO B   2     -19.846  -8.502  12.766  1.00 59.80 LIG-0.27  OA
ATOM     37 H    SER B   3     -17.566  -7.552  12.777  1.00 59.50 LIG 0.16  HD
BRANCH 35 38
ATOM     38  CA  PRO B   2     -19.995  -7.630  14.987  1.00 60.11 LIG 0.35  C 
ATOM     39  CB  PRO B   2     -20.257  -8.935  15.755  1.00 60.16 LIG 0.05  C 
ATOM     40  CG  PRO B   2     -21.645  -8.819  16.287  1.00 60.30 LIG 0.04  C 
ATOM     41  CD  PRO B   2     -22.395  -7.962  15.322  1.00 60.25 LIG 0.32  C 
ATOM     42  N   PRO B   2     -21.346  -7.101  14.748  1.00 60.27 LIG 0.32  N 
ENDBRANCH 35 38
ENDBRANCH 33 34
BRANCH 33 43
ATOM     43  CB  SER B   3     -16.469  -7.914  15.409  1.00 59.26 LIG 0.20  C 
BRANCH 43 44
ATOM     44 OG   SER B   3     -17.382  -8.915  15.827  1.00 59.53 LIG-0.40  OA
ATOM     45 HG   SER B   3     -17.914  -8.591  16.390  1.00 59.53 LIG 0.21  HD
ENDBRANCH 43 44
ENDBRANCH 33 43
ENDBRANCH 30 33
ENDBRANCH 28 29
BRANCH 28 46
ATOM     46  CB  SER B   4     -13.970  -3.360  15.592  1.00 57.64 LIG 0.20  C 
BRANCH 46 47
ATOM     47 OG   SER B   4     -14.888  -2.343  15.972  1.00 57.32 LIG-0.40  OA
ATOM     48 HG   SER B   4     -14.816  -1.691  15.448  1.00 57.32 LIG 0.21  HD
ENDBRANCH 46 47
ENDBRANCH 28 46
ENDBRANCH 1 28
TORSDOF 18
ENDMDL
MODEL 49
USER: ADFR SOLUTION from run 141
USER: SCORE 13.732324 LL:  -2.780 LR: -11.552 RR:   0.000 FEB:  -6.183
USER: RMSD 6.355781
USER: SEED 140
USER: STATUS searching
USER: GENES 20
USER: genes 0 Translation |==|  0.66999 0.67666 0.37872
USER: genes 1 Rotation |==|  0.83016 0.60748 0.15838 0.61286
USER: genes 2 Torsion [C]-N--CA-[CB] |==|  0.84027
USER: genes 3 Torsion [N]-CA--CB-[CG2] |==|  0.58942
USER: genes 4 Torsion [CA]-CB--OG1-[HG1] |==|  0.13485
USER: genes 5 Torsion [N]-CA--C-[N] |==|  0.39200
USER: genes 6 Torsion [N]-CA--C-[O] |==|  0.94297
USER: genes 7 Torsion [C]-N--CA-[CB] |==|  0.47000
USER: genes 8 Torsion [N]-CA--C-[O] |==|  0.24397
USER: genes 9 Torsion [N]-CA--CB-[SG] |==|  0.89167
USER: genes 10 Torsion [CA]-CB--SG-[HG] |==|  0.16062
USER: genes 11 Torsion [N]-C--CA-[N] |==|  0.93585
USER: genes 12 Torsion [C]-CA--N-[C] |==|  0.63344
USER: genes 13 Torsion [N]-C--CA-[N] |==|  0.41220
USER: genes 14 Torsion [C]-CA--N-[C] |==|  0.66928
USER: genes 15 Torsion [N]-C--CA-[N] |==|  0.17193
USER: genes 16 Torsion [C]-CA--CB-[OG] |==|  0.62878
USER: genes 17 Torsion [CA]-CB--OG-[HG] |==|  0.05823
USER: genes 18 Torsion [C]-CA--CB-[OG] |==|  0.60694
USER: genes 19 Torsion [CA]-CB--OG-[HG] |==|  0.82056
ROOT
ATOM      1  C   SER B   4     -14.701  -5.201  13.307  1.00 56.97 LIG 0.24  C 
ATOM      2 O    SER B   4     -13.902  -4.273  13.466  1.00 57.23 LIG-0.27  OA
ATOM      3  N   THR B   5     -14.763  -5.919  12.181  1.00 55.89 LIG-0.34  N 
ATOM      4 H    THR B   5     -15.323  -6.559  12.050  1.00 55.89 LIG 0.16  HD
ENDROOT
BRANCH 3 5
ATOM      5  CA  THR B   5     -13.856  -5.666  11.050  1.00 55.10 LIG 0.20  C 
BRANCH 5 6
ATOM      6  CB  THR B   5     -13.964  -4.184  10.539  1.00 55.33 LIG 0.15  C 
ATOM      7  CG2 THR B   5     -13.717  -4.084   9.028  1.00 55.26 LIG 0.04  C 
BRANCH 6 8
ATOM      8 OG1  THR B   5     -15.262  -3.644  10.845  1.00 55.55 LIG-0.39  OA
ATOM      9 HG1  THR B   5     -15.448  -3.798  11.649  1.00 55.55 LIG 0.21  HD
ENDBRANCH 6 8
ENDBRANCH 5 6
BRANCH 5 10
ATOM     10  C   THR B   5     -12.384  -6.013  11.342  1.00 54.13 LIG 0.24  C 
ATOM     11  N   PRO B   6     -11.671  -6.585  10.346  1.00 52.90 LIG-0.34  N 
ATOM     12  CD  PRO B   6     -12.159  -7.010   9.019  1.00 52.89 LIG 0.13  C 
ATOM     13  CA  PRO B   6     -10.238  -6.860  10.517  1.00 51.99 LIG 0.18  C 
ATOM     14  CG  PRO B   6     -10.968  -7.694   8.398  1.00 52.79 LIG 0.02  C 
ATOM     15  CB  PRO B   6      -9.765  -7.195   9.098  1.00 51.93 LIG 0.04  C 
ATOM     16 O    THR B   5     -11.889  -5.749  12.447  1.00 54.19 LIG-0.27  OA
BRANCH 13 17
ATOM     17  C   PRO B   6      -9.506  -5.632  11.049  1.00 51.04 LIG 0.24  C 
ATOM     18 O    PRO B   6     -10.017  -4.516  10.917  1.00 50.92 LIG-0.27  OA
ATOM     19  N   CYS B   7      -8.330  -5.829  11.647  1.00 49.72 LIG-0.34  N 
ATOM     20 H    CYS B   7      -7.919  -6.584  11.667  1.00 49.72 LIG 0.16  HD
BRANCH 19 21
ATOM     21  CA  CYS B   7      -7.630  -4.728  12.339  1.00 48.85 LIG 0.19  C 
BRANCH 21 22
ATOM     22  C   CYS B   7      -7.168  -3.608  11.407  1.00 48.04 LIG 0.20  C 
ATOM     23 OXT  CYS B   7      -6.046  -3.611  10.906  1.00 47.16 LIG-0.65  OA
ATOM     24 O    CYS B   7      -7.921  -2.676  11.140  1.00 47.51 LIG-0.65  OA
ENDBRANCH 21 22
BRANCH 21 25
ATOM     25  CB  CYS B   7      -6.452  -5.270  13.159  1.00 48.98 LIG 0.11  C 
BRANCH 25 26
ATOM     26 SG   CYS B   7      -6.842  -6.835  13.967  1.00 48.50 LIG-0.18  SA
ATOM     27 HG   CYS B   7      -7.165  -7.643  13.140  1.00 48.50 LIG 0.10  HD
ENDBRANCH 25 26
ENDBRANCH 21 25
ENDBRANCH 19 21
ENDBRANCH 13 17
ENDBRANCH 5 10
ENDBRANCH 3 5
BRANCH 1 28
ATOM     28  CA  SER B   4     -15.689  -5.570  14.420  1.00 57.59 LIG 0.20  C 
BRANCH 28 29
ATOM     29  N   SER B   4     -16.878  -6.266  13.912  1.00 58.14 LIG-0.34  N 
ATOM     30  C   SER B   3     -18.115  -5.916  14.266  1.00 58.75 LIG 0.24  C 
ATOM     31 O    SER B   3     -18.355  -4.892  14.912  1.00 58.75 LIG-0.27  OA
ATOM     32 H    SER B   4     -16.703  -6.912  13.372  1.00 58.14 LIG 0.16  HD
BRANCH 30 33
ATOM     33  CA  SER B   3     -19.260  -6.846  13.809  1.00 59.17 LIG 0.20  C 
BRANCH 33 34
ATOM     34  N   SER B   3     -20.361  -6.842  14.784  1.00 59.50 LIG-0.34  N 
ATOM     35  C   PRO B   2     -20.804  -7.910  15.460  1.00 59.86 LIG 0.25  C 
ATOM     36 O    PRO B   2     -21.796  -7.851  16.196  1.00 59.80 LIG-0.27  OA
ATOM     37 H    SER B   3     -20.708  -6.061  14.887  1.00 59.50 LIG 0.16  HD
BRANCH 35 38
ATOM     38  CA  PRO B   2     -20.074  -9.256  15.315  1.00 60.11 LIG 0.35  C 
ATOM     39  CB  PRO B   2     -20.686 -10.327  16.231  1.00 60.16 LIG 0.05  C 
ATOM     40  CG  PRO B   2     -19.531 -11.072  16.810  1.00 60.30 LIG 0.04  C 
ATOM     41  CD  PRO B   2     -18.400 -10.101  16.887  1.00 60.25 LIG 0.32  C 
ATOM     42  N   PRO B   2     -18.683  -9.165  15.785  1.00 60.27 LIG 0.32  N 
ENDBRANCH 35 38
ENDBRANCH 33 34
BRANCH 33 43
ATOM     43  CB  SER B   3     -19.772  -6.401  12.433  1.00 59.26 LIG 0.20  C 
BRANCH 43 44
ATOM     44 OG   SER B   3     -21.189  -6.358  12.408  1.00 59.53 LIG-0.40  OA
ATOM     45 HG   SER B   3     -21.481  -6.299  13.193  1.00 59.53 LIG 0.21  HD
ENDBRANCH 43 44
ENDBRANCH 33 43
ENDBRANCH 30 33
ENDBRANCH 28 29
BRANCH 28 46
ATOM     46  CB  SER B   4     -15.001  -6.466  15.453  1.00 57.64 LIG 0.20  C 
BRANCH 46 47
ATOM     47 OG   SER B   4     -15.888  -7.476  15.915  1.00 57.32 LIG-0.40  OA
ATOM     48 HG   SER B   4     -16.527  -7.121  16.327  1.00 57.32 LIG 0.21  HD
ENDBRANCH 46 47
ENDBRANCH 28 46
ENDBRANCH 1 28
TORSDOF 18
ENDMDL
MODEL 50
USER: ADFR SOLUTION from run 194
USER: SCORE 13.026783 LL:  -3.402 LR: -11.546 RR:   0.000 FEB:  -6.177
USER: RMSD 10.070130
USER: SEED 193
USER: STATUS no improvement in best in 6 clusters for 5 generations
USER: GENES 20
USER: genes 0 Translation |==|  0.72307 0.54494 0.41414
USER: genes 1 Rotation |==|  0.78596 0.55569 0.62909 0.88531
USER: genes 2 Torsion [C]-N--CA-[CB] |==|  0.37294
USER: genes 3 Torsion [N]-CA--CB-[CG2] |==|  0.01065
USER: genes 4 Torsion [CA]-CB--OG1-[HG1] |==|  0.33002
USER: genes 5 Torsion [N]-CA--C-[N] |==|  0.84520
USER: genes 6 Torsion [N]-CA--C-[O] |==|  0.35212
USER: genes 7 Torsion [C]-N--CA-[CB] |==|  0.50744
USER: genes 8 Torsion [N]-CA--C-[O] |==|  0.85498
USER: genes 9 Torsion [N]-CA--CB-[SG] |==|  0.18279
USER: genes 10 Torsion [CA]-CB--SG-[HG] |==|  0.15330
USER: genes 11 Torsion [N]-C--CA-[N] |==|  0.83894
USER: genes 12 Torsion [C]-CA--N-[C] |==|  0.65242
USER: genes 13 Torsion [N]-C--CA-[N] |==|  0.35582
USER: genes 14 Torsion [C]-CA--N-[C] |==|  0.82192
USER: genes 15 Torsion [N]-C--CA-[N] |==|  0.28143
USER: genes 16 Torsion [C]-CA--CB-[OG] |==|  0.39328
USER: genes 17 Torsion [CA]-CB--OG-[HG] |==|  0.12781
USER: genes 18 Torsion [C]-CA--CB-[OG] |==|  0.71389
USER: genes 19 Torsion [CA]-CB--OG-[HG] |==|  0.35447
ROOT
ATOM      1  C   SER B   4     -13.189  -7.177  13.812  1.00 56.97 LIG 0.24  C 
ATOM      2 O    SER B   4     -13.840  -6.364  13.148  1.00 57.23 LIG-0.27  OA
ATOM      3  N   THR B   5     -12.168  -6.820  14.597  1.00 55.89 LIG-0.34  N 
ATOM      4 H    THR B   5     -11.696  -7.377  15.053  1.00 55.89 LIG 0.16  HD
ENDROOT
BRANCH 3 5
ATOM      5  CA  THR B   5     -11.760  -5.413  14.745  1.00 55.10 LIG 0.20  C 
BRANCH 5 6
ATOM      6  CB  THR B   5     -11.515  -5.035  16.251  1.00 55.33 LIG 0.15  C 
ATOM      7  CG2 THR B   5     -11.672  -6.251  17.174  1.00 55.26 LIG 0.04  C 
BRANCH 6 8
ATOM      8 OG1  THR B   5     -10.200  -4.478  16.419  1.00 55.55 LIG-0.39  OA
ATOM      9 HG1  THR B   5     -10.263  -3.691  16.707  1.00 55.55 LIG 0.21  HD
ENDBRANCH 6 8
ENDBRANCH 5 6
BRANCH 5 10
ATOM     10  C   THR B   5     -10.529  -5.030  13.902  1.00 54.13 LIG 0.24  C 
ATOM     11  N   PRO B   6      -9.404  -5.759  14.077  1.00 52.90 LIG-0.34  N 
ATOM     12  CD  PRO B   6      -9.175  -6.838  15.057  1.00 52.89 LIG 0.13  C 
ATOM     13  CA  PRO B   6      -8.219  -5.514  13.243  1.00 51.99 LIG 0.18  C 
ATOM     14  CG  PRO B   6      -7.717  -7.182  14.882  1.00 52.79 LIG 0.02  C 
ATOM     15  CB  PRO B   6      -7.320  -6.721  13.535  1.00 51.93 LIG 0.04  C 
ATOM     16 O    THR B   5     -10.598  -4.099  13.086  1.00 54.19 LIG-0.27  OA
BRANCH 13 17
ATOM     17  C   PRO B   6      -8.592  -5.469  11.765  1.00 51.04 LIG 0.24  C 
ATOM     18 O    PRO B   6      -8.258  -4.495  11.084  1.00 50.92 LIG-0.27  OA
ATOM     19  N   CYS B   7      -9.269  -6.506  11.271  1.00 49.72 LIG-0.34  N 
ATOM     20 H    CYS B   7      -9.588  -7.147  11.748  1.00 49.72 LIG 0.16  HD
BRANCH 19 21
ATOM     21  CA  CYS B   7      -9.528  -6.630   9.822  1.00 48.85 LIG 0.19  C 
BRANCH 21 22
ATOM     22  C   CYS B   7     -10.160  -5.386   9.199  1.00 48.04 LIG 0.20  C 
ATOM     23 OXT  CYS B   7      -9.679  -4.851   8.202  1.00 47.16 LIG-0.65  OA
ATOM     24 O    CYS B   7     -11.174  -4.896   9.689  1.00 47.51 LIG-0.65  OA
ENDBRANCH 21 22
BRANCH 21 25
ATOM     25  CB  CYS B   7     -10.379  -7.873   9.531  1.00 48.98 LIG 0.11  C 
BRANCH 25 26
ATOM     26 SG   CYS B   7     -12.040  -7.744  10.224  1.00 48.50 LIG-0.18  SA
ATOM     27 HG   CYS B   7     -12.565  -6.742   9.824  1.00 48.50 LIG 0.10  HD
ENDBRANCH 25 26
ENDBRANCH 21 25
ENDBRANCH 19 21
ENDBRANCH 13 17
ENDBRANCH 5 10
ENDBRANCH 3 5
BRANCH 1 28
ATOM     28  CA  SER B   4     -13.528  -8.671  13.751  1.00 57.59 LIG 0.20  C 
BRANCH 28 29
ATOM     29  N   SER B   4     -12.393  -9.490  13.304  1.00 58.14 LIG-0.34  N 
ATOM     30  C   SER B   3     -12.480 -10.323  12.267  1.00 58.75 LIG 0.24  C 
ATOM     31 O    SER B   3     -13.459 -10.348  11.516  1.00 58.75 LIG-0.27  OA
ATOM     32 H    SER B   4     -11.678  -9.382  13.769  1.00 58.14 LIG 0.16  HD
BRANCH 30 33
ATOM     33  CA  SER B   3     -11.275 -11.258  12.022  1.00 59.17 LIG 0.20  C 
BRANCH 33 34
ATOM     34  N   SER B   3     -11.712 -12.658  11.906  1.00 59.50 LIG-0.34  N 
ATOM     35  C   PRO B   2     -12.287 -13.375  12.881  1.00 59.86 LIG 0.25  C 
ATOM     36 O    PRO B   2     -12.544 -14.577  12.741  1.00 59.80 LIG-0.27  OA
ATOM     37 H    SER B   3     -11.560 -12.987  11.127  1.00 59.50 LIG 0.16  HD
BRANCH 35 38
ATOM     38  CA  PRO B   2     -12.631 -12.699  14.218  1.00 60.11 LIG 0.35  C 
ATOM     39  CB  PRO B   2     -12.420 -13.656  15.402  1.00 60.16 LIG 0.05  C 
ATOM     40  CG  PRO B   2     -13.583 -13.439  16.310  1.00 60.30 LIG 0.04  C 
ATOM     41  CD  PRO B   2     -14.725 -13.030  15.441  1.00 60.25 LIG 0.32  C 
ATOM     42  N   PRO B   2     -14.063 -12.371  14.301  1.00 60.27 LIG 0.32  N 
ENDBRANCH 35 38
ENDBRANCH 33 34
BRANCH 33 43
ATOM     43  CB  SER B   3     -10.534 -10.829  10.750  1.00 59.26 LIG 0.20  C 
BRANCH 43 44
ATOM     44 OG   SER B   3      -9.131 -10.960  10.910  1.00 59.53 LIG-0.40  OA
ATOM     45 HG   SER B   3      -8.957 -11.704  11.258  1.00 59.53 LIG 0.21  HD
ENDBRANCH 43 44
ENDBRANCH 33 43
ENDBRANCH 30 33
ENDBRANCH 28 29
BRANCH 28 46
ATOM     46  CB  SER B   4     -13.973  -9.163  15.130  1.00 57.64 LIG 0.20  C 
BRANCH 46 47
ATOM     47 OG   SER B   4     -12.932  -9.891  15.767  1.00 57.32 LIG-0.40  OA
ATOM     48 HG   SER B   4     -12.798  -9.576  16.534  1.00 57.32 LIG 0.21  HD
ENDBRANCH 46 47
ENDBRANCH 28 46
ENDBRANCH 1 28
TORSDOF 18
ENDMDL
MODEL 51
USER: ADFR SOLUTION from run 178
USER: SCORE 13.830568 LL:  -3.094 LR: -11.535 RR:   0.000 FEB:  -6.166
USER: RMSD 8.583428
USER: SEED 177
USER: STATUS no improvement in best in 14 clusters for 5 generations
USER: GENES 20
USER: genes 0 Translation |==|  0.66278 0.55945 0.48277
USER: genes 1 Rotation |==|  0.94759 0.64675 0.41989 0.64733
USER: genes 2 Torsion [C]-N--CA-[CB] |==|  0.18314
USER: genes 3 Torsion [N]-CA--CB-[CG2] |==|  0.67359
USER: genes 4 Torsion [CA]-CB--OG1-[HG1] |==|  0.37333
USER: genes 5 Torsion [N]-CA--C-[N] |==|  0.11569
USER: genes 6 Torsion [N]-CA--C-[O] |==|  0.82097
USER: genes 7 Torsion [C]-N--CA-[CB] |==|  0.44632
USER: genes 8 Torsion [N]-CA--C-[O] |==|  0.04735
USER: genes 9 Torsion [N]-CA--CB-[SG] |==|  0.89572
USER: genes 10 Torsion [CA]-CB--SG-[HG] |==|  0.26891
USER: genes 11 Torsion [N]-C--CA-[N] |==|  0.18343
USER: genes 12 Torsion [C]-CA--N-[C] |==|  0.65556
USER: genes 13 Torsion [N]-C--CA-[N] |==|  0.96715
USER: genes 14 Torsion [C]-CA--N-[C] |==|  0.74289
USER: genes 15 Torsion [N]-C--CA-[N] |==|  0.85331
USER: genes 16 Torsion [C]-CA--CB-[OG] |==|  0.51464
USER: genes 17 Torsion [CA]-CB--OG-[HG] |==|  0.94428
USER: genes 18 Torsion [C]-CA--CB-[OG] |==|  0.62150
USER: genes 19 Torsion [CA]-CB--OG-[HG] |==|  0.33719
ROOT
ATOM      1  C   SER B   4     -14.907  -6.959  14.790  1.00 56.97 LIG 0.24  C 
ATOM      2 O    SER B   4     -15.099  -6.130  15.684  1.00 57.23 LIG-0.27  OA
ATOM      3  N   THR B   5     -13.735  -7.088  14.159  1.00 55.89 LIG-0.34  N 
ATOM      4 H    THR B   5     -13.591  -7.651  13.525  1.00 55.89 LIG 0.16  HD
ENDROOT
BRANCH 3 5
ATOM      5  CA  THR B   5     -12.572  -6.255  14.509  1.00 55.10 LIG 0.20  C 
BRANCH 5 6
ATOM      6  CB  THR B   5     -12.054  -6.561  15.960  1.00 55.33 LIG 0.15  C 
ATOM      7  CG2 THR B   5     -12.167  -5.334  16.874  1.00 55.26 LIG 0.04  C 
BRANCH 6 8
ATOM      8 OG1  THR B   5     -12.795  -7.652  16.536  1.00 55.55 LIG-0.39  OA
ATOM      9 HG1  THR B   5     -12.264  -8.191  16.900  1.00 55.55 LIG 0.21  HD
ENDBRANCH 6 8
ENDBRANCH 5 6
BRANCH 5 10
ATOM     10  C   THR B   5     -11.409  -6.357  13.505  1.00 54.13 LIG 0.24  C 
ATOM     11  N   PRO B   6     -11.723  -6.374  12.190  1.00 52.90 LIG-0.34  N 
ATOM     12  CD  PRO B   6     -13.070  -6.398  11.587  1.00 52.89 LIG 0.13  C 
ATOM     13  CA  PRO B   6     -10.665  -6.376  11.170  1.00 51.99 LIG 0.18  C 
ATOM     14  CG  PRO B   6     -12.802  -6.545  10.109  1.00 52.79 LIG 0.02  C 
ATOM     15  CB  PRO B   6     -11.420  -6.079   9.870  1.00 51.93 LIG 0.04  C 
ATOM     16 O    THR B   5     -10.238  -6.400  13.909  1.00 54.19 LIG-0.27  OA
BRANCH 13 17
ATOM     17  C   PRO B   6      -9.634  -5.287  11.451  1.00 51.04 LIG 0.24  C 
ATOM     18 O    PRO B   6      -9.975  -4.101  11.406  1.00 50.92 LIG-0.27  OA
ATOM     19  N   CYS B   7      -8.393  -5.678  11.742  1.00 49.72 LIG-0.34  N 
ATOM     20 H    CYS B   7      -8.117  -6.491  11.689  1.00 49.72 LIG 0.16  HD
BRANCH 19 21
ATOM     21  CA  CYS B   7      -7.372  -4.710  12.191  1.00 48.85 LIG 0.19  C 
BRANCH 21 22
ATOM     22  C   CYS B   7      -6.837  -3.814  11.075  1.00 48.04 LIG 0.20  C 
ATOM     23 OXT  CYS B   7      -5.788  -3.185  11.202  1.00 47.16 LIG-0.65  OA
ATOM     24 O    CYS B   7      -7.453  -3.708  10.018  1.00 47.51 LIG-0.65  OA
ENDBRANCH 21 22
BRANCH 21 25
ATOM     25  CB  CYS B   7      -6.220  -5.432  12.904  1.00 48.98 LIG 0.11  C 
BRANCH 25 26
ATOM     26 SG   CYS B   7      -6.796  -6.814  13.910  1.00 48.50 LIG-0.18  SA
ATOM     27 HG   CYS B   7      -6.685  -7.836  13.289  1.00 48.50 LIG 0.10  HD
ENDBRANCH 25 26
ENDBRANCH 21 25
ENDBRANCH 19 21
ENDBRANCH 13 17
ENDBRANCH 5 10
ENDBRANCH 3 5
BRANCH 1 28
ATOM     28  CA  SER B   4     -16.039  -7.893  14.346  1.00 57.59 LIG 0.20  C 
BRANCH 28 29
ATOM     29  N   SER B   4     -15.760  -9.303  14.652  1.00 58.14 LIG-0.34  N 
ATOM     30  C   SER B   3     -15.770 -10.251  13.715  1.00 58.75 LIG 0.24  C 
ATOM     31 O    SER B   3     -15.855  -9.993  12.511  1.00 58.75 LIG-0.27  OA
ATOM     32 H    SER B   4     -15.593  -9.456  15.482  1.00 58.14 LIG 0.16  HD
BRANCH 30 33
ATOM     33  CA  SER B   3     -15.646 -11.712  14.201  1.00 59.17 LIG 0.20  C 
BRANCH 33 34
ATOM     34  N   SER B   3     -15.259 -11.762  15.619  1.00 59.50 LIG-0.34  N 
ATOM     35  C   PRO B   2     -14.003 -11.844  16.078  1.00 59.86 LIG 0.25  C 
ATOM     36 O    PRO B   2     -13.757 -11.976  17.283  1.00 59.80 LIG-0.27  OA
ATOM     37 H    SER B   3     -15.937 -11.733  16.147  1.00 59.50 LIG 0.16  HD
BRANCH 35 38
ATOM     38  CA  PRO B   2     -12.828 -11.783  15.089  1.00 60.11 LIG 0.35  C 
ATOM     39  CB  PRO B   2     -12.795 -10.442  14.338  1.00 60.16 LIG 0.05  C 
ATOM     40  CG  PRO B   2     -12.471 -10.780  12.922  1.00 60.30 LIG 0.04  C 
ATOM     41  CD  PRO B   2     -13.025 -12.143  12.677  1.00 60.25 LIG 0.32  C 
ATOM     42  N   PRO B   2     -12.983 -12.771  14.009  1.00 60.27 LIG 0.32  N 
ENDBRANCH 35 38
ENDBRANCH 33 34
BRANCH 33 43
ATOM     43  CB  SER B   3     -16.978 -12.444  13.990  1.00 59.26 LIG 0.20  C 
BRANCH 43 44
ATOM     44 OG   SER B   3     -16.930 -13.751  14.538  1.00 59.53 LIG-0.40  OA
ATOM     45 HG   SER B   3     -16.130 -13.988  14.628  1.00 59.53 LIG 0.21  HD
ENDBRANCH 43 44
ENDBRANCH 33 43
ENDBRANCH 30 33
ENDBRANCH 28 29
BRANCH 28 46
ATOM     46  CB  SER B   4     -17.347  -7.493  15.034  1.00 57.64 LIG 0.20  C 
BRANCH 46 47
ATOM     47 OG   SER B   4     -18.041  -8.640  15.507  1.00 57.32 LIG-0.40  OA
ATOM     48 HG   SER B   4     -18.153  -8.577  16.337  1.00 57.32 LIG 0.21  HD
ENDBRANCH 46 47
ENDBRANCH 28 46
ENDBRANCH 1 28
TORSDOF 18
ENDMDL
MODEL 52
USER: ADFR SOLUTION from run 109
USER: SCORE 13.614838 LL:  -3.023 LR: -11.529 RR:   0.000 FEB:  -6.160
USER: RMSD 7.109169
USER: SEED 108
USER: STATUS no improvement in best in 10 clusters for 5 generations
USER: GENES 20
USER: genes 0 Translation |==|  0.61486 0.62344 0.46173
USER: genes 1 Rotation |==|  0.11074 0.25572 0.68240 0.57438
USER: genes 2 Torsion [C]-N--CA-[CB] |==|  0.76029
USER: genes 3 Torsion [N]-CA--CB-[CG2] |==|  0.19709
USER: genes 4 Torsion [CA]-CB--OG1-[HG1] |==|  0.57848
USER: genes 5 Torsion [N]-CA--C-[N] |==|  0.14554
USER: genes 6 Torsion [N]-CA--C-[O] |==|  0.27697
USER: genes 7 Torsion [C]-N--CA-[CB] |==|  0.24928
USER: genes 8 Torsion [N]-CA--C-[O] |==|  0.44770
USER: genes 9 Torsion [N]-CA--CB-[SG] |==|  0.00618
USER: genes 10 Torsion [CA]-CB--SG-[HG] |==|  0.32979
USER: genes 11 Torsion [N]-C--CA-[N] |==|  0.38336
USER: genes 12 Torsion [C]-CA--N-[C] |==|  0.55732
USER: genes 13 Torsion [N]-C--CA-[N] |==|  0.85556
USER: genes 14 Torsion [C]-CA--N-[C] |==|  0.82429
USER: genes 15 Torsion [N]-C--CA-[N] |==|  0.26088
USER: genes 16 Torsion [C]-CA--CB-[OG] |==|  0.55248
USER: genes 17 Torsion [CA]-CB--OG-[HG] |==|  0.47232
USER: genes 18 Torsion [C]-CA--CB-[OG] |==|  0.41742
USER: genes 19 Torsion [CA]-CB--OG-[HG] |==|  0.50397
ROOT
ATOM      1  C   SER B   4     -16.272  -5.999  14.490  1.00 56.97 LIG 0.24  C 
ATOM      2 O    SER B   4     -15.656  -5.897  15.555  1.00 57.23 LIG-0.27  OA
ATOM      3  N   THR B   5     -15.939  -5.316  13.390  1.00 55.89 LIG-0.34  N 
ATOM      4 H    THR B   5     -16.367  -5.367  12.646  1.00 55.89 LIG 0.16  HD
ENDROOT
BRANCH 3 5
ATOM      5  CA  THR B   5     -14.786  -4.401  13.367  1.00 55.10 LIG 0.20  C 
BRANCH 5 6
ATOM      6  CB  THR B   5     -15.175  -2.964  13.869  1.00 55.33 LIG 0.15  C 
ATOM      7  CG2 THR B   5     -15.445  -2.943  15.380  1.00 55.26 LIG 0.04  C 
BRANCH 6 8
ATOM      8 OG1  THR B   5     -14.128  -2.027  13.561  1.00 55.55 LIG-0.39  OA
ATOM      9 HG1  THR B   5     -14.134  -1.404  14.124  1.00 55.55 LIG 0.21  HD
ENDBRANCH 6 8
ENDBRANCH 5 6
BRANCH 5 10
ATOM     10  C   THR B   5     -13.566  -4.918  14.152  1.00 54.13 LIG 0.24  C 
ATOM     11  N   PRO B   6     -13.120  -6.160  13.861  1.00 52.90 LIG-0.34  N 
ATOM     12  CD  PRO B   6     -13.722  -7.137  12.933  1.00 52.89 LIG 0.13  C 
ATOM     13  CA  PRO B   6     -11.906  -6.687  14.500  1.00 51.99 LIG 0.18  C 
ATOM     14  CG  PRO B   6     -12.882  -8.377  13.117  1.00 52.79 LIG 0.02  C 
ATOM     15  CB  PRO B   6     -11.587  -7.943  13.683  1.00 51.93 LIG 0.04  C 
ATOM     16 O    THR B   5     -13.017  -4.196  14.997  1.00 54.19 LIG-0.27  OA
BRANCH 13 17
ATOM     17  C   PRO B   6     -10.762  -5.683  14.407  1.00 51.04 LIG 0.24  C 
ATOM     18 O    PRO B   6     -10.497  -4.971  15.381  1.00 50.92 LIG-0.27  OA
ATOM     19  N   CYS B   7     -10.087  -5.626  13.258  1.00 49.72 LIG-0.34  N 
ATOM     20 H    CYS B   7     -10.313  -6.047  12.543  1.00 49.72 LIG 0.16  HD
BRANCH 19 21
ATOM     21  CA  CYS B   7      -8.863  -4.809  13.130  1.00 48.85 LIG 0.19  C 
BRANCH 21 22
ATOM     22  C   CYS B   7      -8.690  -4.166  11.755  1.00 48.04 LIG 0.20  C 
ATOM     23 OXT  CYS B   7      -9.297  -4.581  10.770  1.00 47.16 LIG-0.65  OA
ATOM     24 O    CYS B   7      -7.933  -3.209  11.611  1.00 47.51 LIG-0.65  OA
ENDBRANCH 21 22
BRANCH 21 25
ATOM     25  CB  CYS B   7      -7.623  -5.635  13.501  1.00 48.98 LIG 0.11  C 
BRANCH 25 26
ATOM     26 SG   CYS B   7      -8.034  -7.343  13.909  1.00 48.50 LIG-0.18  SA
ATOM     27 HG   CYS B   7      -7.485  -8.082  13.139  1.00 48.50 LIG 0.10  HD
ENDBRANCH 25 26
ENDBRANCH 21 25
ENDBRANCH 19 21
ENDBRANCH 13 17
ENDBRANCH 5 10
ENDBRANCH 3 5
BRANCH 1 28
ATOM     28  CA  SER B   4     -17.485  -6.933  14.386  1.00 57.59 LIG 0.20  C 
BRANCH 28 29
ATOM     29  N   SER B   4     -17.264  -8.221  15.055  1.00 58.14 LIG-0.34  N 
ATOM     30  C   SER B   3     -17.981  -9.308  14.765  1.00 58.75 LIG 0.24  C 
ATOM     31 O    SER B   3     -18.763  -9.350  13.812  1.00 58.75 LIG-0.27  OA
ATOM     32 H    SER B   4     -16.637  -8.208  15.643  1.00 58.14 LIG 0.16  HD
BRANCH 30 33
ATOM     33  CA  SER B   3     -17.774 -10.541  15.671  1.00 59.17 LIG 0.20  C 
BRANCH 33 34
ATOM     34  N   SER B   3     -16.346 -10.876  15.782  1.00 59.50 LIG-0.34  N 
ATOM     35  C   PRO B   2     -15.557 -11.260  14.769  1.00 59.86 LIG 0.25  C 
ATOM     36 O    PRO B   2     -14.387 -11.616  14.953  1.00 59.80 LIG-0.27  OA
ATOM     37 H    SER B   3     -16.051 -10.802  16.587  1.00 59.50 LIG 0.16  HD
BRANCH 35 38
ATOM     38  CA  PRO B   2     -16.113 -11.271  13.336  1.00 60.11 LIG 0.35  C 
ATOM     39  CB  PRO B   2     -15.415 -12.332  12.471  1.00 60.16 LIG 0.05  C 
ATOM     40  CG  PRO B   2     -15.184 -11.685  11.147  1.00 60.30 LIG 0.04  C 
ATOM     41  CD  PRO B   2     -15.017 -10.227  11.414  1.00 60.25 LIG 0.32  C 
ATOM     42  N   PRO B   2     -15.815 -10.013  12.634  1.00 60.27 LIG 0.32  N 
ENDBRANCH 35 38
ENDBRANCH 33 34
BRANCH 33 43
ATOM     43  CB  SER B   3     -18.363 -10.270  17.060  1.00 59.26 LIG 0.20  C 
BRANCH 43 44
ATOM     44 OG   SER B   3     -17.829 -11.165  18.022  1.00 59.53 LIG-0.40  OA
ATOM     45 HG   SER B   3     -18.056 -10.917  18.791  1.00 59.53 LIG 0.21  HD
ENDBRANCH 43 44
ENDBRANCH 33 43
ENDBRANCH 30 33
ENDBRANCH 28 29
BRANCH 28 46
ATOM     46  CB  SER B   4     -18.714  -6.264  15.005  1.00 57.64 LIG 0.20  C 
BRANCH 46 47
ATOM     47 OG   SER B   4     -19.905  -6.710  14.372  1.00 57.32 LIG-0.40  OA
ATOM     48 HG   SER B   4     -20.566  -6.319  14.711  1.00 57.32 LIG 0.21  HD
ENDBRANCH 46 47
ENDBRANCH 28 46
ENDBRANCH 1 28
TORSDOF 18
ENDMDL
MODEL 53
USER: ADFR SOLUTION from run 45
USER: SCORE 12.722542 LL:  -3.038 LR: -11.531 RR:   0.000 FEB:  -6.161
USER: RMSD 7.430924
USER: SEED 44
USER: STATUS no improvement in best in 11 clusters for 5 generations
USER: GENES 20
USER: genes 0 Translation |==|  0.69253 0.75836 0.44599
USER: genes 1 Rotation |==|  0.84503 0.44488 0.37918 0.83663
USER: genes 2 Torsion [C]-N--CA-[CB] |==|  0.32796
USER: genes 3 Torsion [N]-CA--CB-[CG2] |==|  0.14244
USER: genes 4 Torsion [CA]-CB--OG1-[HG1] |==|  0.85780
USER: genes 5 Torsion [N]-CA--C-[N] |==|  0.14417
USER: genes 6 Torsion [N]-CA--C-[O] |==|  0.45834
USER: genes 7 Torsion [C]-N--CA-[CB] |==|  0.84540
USER: genes 8 Torsion [N]-CA--C-[O] |==|  0.49663
USER: genes 9 Torsion [N]-CA--CB-[SG] |==|  0.90975
USER: genes 10 Torsion [CA]-CB--SG-[HG] |==|  0.29617
USER: genes 11 Torsion [N]-C--CA-[N] |==|  0.02726
USER: genes 12 Torsion [C]-CA--N-[C] |==|  0.76111
USER: genes 13 Torsion [N]-C--CA-[N] |==|  0.13275
USER: genes 14 Torsion [C]-CA--N-[C] |==|  0.15081
USER: genes 15 Torsion [N]-C--CA-[N] |==|  0.33966
USER: genes 16 Torsion [C]-CA--CB-[OG] |==|  0.60706
USER: genes 17 Torsion [CA]-CB--OG-[HG] |==|  0.54006
USER: genes 18 Torsion [C]-CA--CB-[OG] |==|  0.95422
USER: genes 19 Torsion [CA]-CB--OG-[HG] |==|  0.22445
ROOT
ATOM      1  C   SER B   4     -14.059  -3.976  14.265  1.00 56.97 LIG 0.24  C 
ATOM      2 O    SER B   4     -13.709  -2.820  14.006  1.00 57.23 LIG-0.27  OA
ATOM      3  N   THR B   5     -13.193  -4.940  14.591  1.00 55.89 LIG-0.34  N 
ATOM      4 H    THR B   5     -13.421  -5.752  14.761  1.00 55.89 LIG 0.16  HD
ENDROOT
BRANCH 3 5
ATOM      5  CA  THR B   5     -11.747  -4.682  14.688  1.00 55.10 LIG 0.20  C 
BRANCH 5 6
ATOM      6  CB  THR B   5     -11.207  -4.939  16.141  1.00 55.33 LIG 0.15  C 
ATOM      7  CG2 THR B   5     -11.626  -6.319  16.667  1.00 55.26 LIG 0.04  C 
BRANCH 6 8
ATOM      8 OG1  THR B   5      -9.772  -4.837  16.167  1.00 55.55 LIG-0.39  OA
ATOM      9 HG1  THR B   5      -9.446  -5.320  15.562  1.00 55.55 LIG 0.21  HD
ENDBRANCH 6 8
ENDBRANCH 5 6
BRANCH 5 10
ATOM     10  C   THR B   5     -10.904  -5.471  13.669  1.00 54.13 LIG 0.24  C 
ATOM     11  N   PRO B   6     -11.265  -5.390  12.369  1.00 52.90 LIG-0.34  N 
ATOM     12  CD  PRO B   6     -12.441  -4.701  11.803  1.00 52.89 LIG 0.13  C 
ATOM     13  CA  PRO B   6     -10.456  -6.038  11.327  1.00 51.99 LIG 0.18  C 
ATOM     14  CG  PRO B   6     -12.402  -5.060  10.339  1.00 52.79 LIG 0.02  C 
ATOM     15  CB  PRO B   6     -11.011  -5.452  10.025  1.00 51.93 LIG 0.04  C 
ATOM     16 O    THR B   5      -9.924  -6.129  14.047  1.00 54.19 LIG-0.27  OA
BRANCH 13 17
ATOM     17  C   PRO B   6      -8.980  -5.687  11.486  1.00 51.04 LIG 0.24  C 
ATOM     18 O    PRO B   6      -8.129  -6.350  10.885  1.00 50.92 LIG-0.27  OA
ATOM     19  N   CYS B   7      -8.676  -4.657  12.278  1.00 49.72 LIG-0.34  N 
ATOM     20 H    CYS B   7      -9.245  -4.244  12.773  1.00 49.72 LIG 0.16  HD
BRANCH 19 21
ATOM     21  CA  CYS B   7      -7.295  -4.139  12.362  1.00 48.85 LIG 0.19  C 
BRANCH 21 22
ATOM     22  C   CYS B   7      -6.824  -3.429  11.094  1.00 48.04 LIG 0.20  C 
ATOM     23 OXT  CYS B   7      -7.545  -3.334  10.104  1.00 47.16 LIG-0.65  OA
ATOM     24 O    CYS B   7      -5.701  -2.934  11.044  1.00 47.51 LIG-0.65  OA
ENDBRANCH 21 22
BRANCH 21 25
ATOM     25  CB  CYS B   7      -6.322  -5.262  12.747  1.00 48.98 LIG 0.11  C 
BRANCH 25 26
ATOM     26 SG   CYS B   7      -7.081  -6.485  13.833  1.00 48.50 LIG-0.18  SA
ATOM     27 HG   CYS B   7      -7.288  -7.494  13.217  1.00 48.50 LIG 0.10  HD
ENDBRANCH 25 26
ENDBRANCH 21 25
ENDBRANCH 19 21
ENDBRANCH 13 17
ENDBRANCH 5 10
ENDBRANCH 3 5
BRANCH 1 28
ATOM     28  CA  SER B   4     -15.541  -4.364  14.211  1.00 57.59 LIG 0.20  C 
BRANCH 28 29
ATOM     29  N   SER B   4     -15.794  -5.704  14.756  1.00 58.14 LIG-0.34  N 
ATOM     30  C   SER B   3     -15.687  -6.807  14.015  1.00 58.75 LIG 0.24  C 
ATOM     31 O    SER B   3     -15.218  -6.796  12.875  1.00 58.75 LIG-0.27  OA
ATOM     32 H    SER B   4     -16.015  -5.709  15.588  1.00 58.14 LIG 0.16  HD
BRANCH 30 33
ATOM     33  CA  SER B   3     -16.162  -8.128  14.660  1.00 59.17 LIG 0.20  C 
BRANCH 33 34
ATOM     34  N   SER B   3     -17.485  -7.963  15.281  1.00 59.50 LIG-0.34  N 
ATOM     35  C   PRO B   2     -18.580  -7.499  14.664  1.00 59.86 LIG 0.25  C 
ATOM     36 O    PRO B   2     -19.637  -7.300  15.273  1.00 59.80 LIG-0.27  OA
ATOM     37 H    SER B   3     -17.494  -8.201  16.107  1.00 59.50 LIG 0.16  HD
BRANCH 35 38
ATOM     38  CA  PRO B   2     -18.530  -7.193  13.157  1.00 60.11 LIG 0.35  C 
ATOM     39  CB  PRO B   2     -18.916  -5.734  12.868  1.00 60.16 LIG 0.05  C 
ATOM     40  CG  PRO B   2     -19.789  -5.779  11.660  1.00 60.30 LIG 0.04  C 
ATOM     41  CD  PRO B   2     -20.489  -7.097  11.696  1.00 60.25 LIG 0.32  C 
ATOM     42  N   PRO B   2     -19.542  -7.963  12.419  1.00 60.27 LIG 0.32  N 
ENDBRANCH 35 38
ENDBRANCH 33 34
BRANCH 33 43
ATOM     43  CB  SER B   3     -16.209  -9.236  13.601  1.00 59.26 LIG 0.20  C 
BRANCH 43 44
ATOM     44 OG   SER B   3     -17.334 -10.077  13.795  1.00 59.53 LIG-0.40  OA
ATOM     45 HG   SER B   3     -17.240 -10.778  13.343  1.00 59.53 LIG 0.21  HD
ENDBRANCH 43 44
ENDBRANCH 33 43
ENDBRANCH 30 33
ENDBRANCH 28 29
BRANCH 28 46
ATOM     46  CB  SER B   4     -16.376  -3.350  14.998  1.00 57.64 LIG 0.20  C 
BRANCH 46 47
ATOM     47 OG   SER B   4     -15.551  -2.573  15.856  1.00 57.32 LIG-0.40  OA
ATOM     48 HG   SER B   4     -15.188  -1.959  15.414  1.00 57.32 LIG 0.21  HD
ENDBRANCH 46 47
ENDBRANCH 28 46
ENDBRANCH 1 28
TORSDOF 18
ENDMDL
MODEL 54
USER: ADFR SOLUTION from run 187
USER: SCORE 15.077890 LL:  -3.793 LR: -11.527 RR:   0.000 FEB:  -6.158
USER: RMSD 9.837057
USER: SEED 186
USER: STATUS no improvement in best in 7 clusters for 5 generations
USER: GENES 20
USER: genes 0 Translation |==|  0.68546 0.70624 0.46114
USER: genes 1 Rotation |==|  0.95656 0.58714 0.43655 0.67302
USER: genes 2 Torsion [C]-N--CA-[CB] |==|  0.16664
USER: genes 3 Torsion [N]-CA--CB-[CG2] |==|  0.14102
USER: genes 4 Torsion [CA]-CB--OG1-[HG1] |==|  0.33212
USER: genes 5 Torsion [N]-CA--C-[N] |==|  0.11552
USER: genes 6 Torsion [N]-CA--C-[O] |==|  0.26466
USER: genes 7 Torsion [C]-N--CA-[CB] |==|  0.30419
USER: genes 8 Torsion [N]-CA--C-[O] |==|  0.37043
USER: genes 9 Torsion [N]-CA--CB-[SG] |==|  0.97579
USER: genes 10 Torsion [CA]-CB--SG-[HG] |==|  0.54849
USER: genes 11 Torsion [N]-C--CA-[N] |==|  0.04838
USER: genes 12 Torsion [C]-CA--N-[C] |==|  0.70353
USER: genes 13 Torsion [N]-C--CA-[N] |==|  0.92975
USER: genes 14 Torsion [C]-CA--N-[C] |==|  0.75192
USER: genes 15 Torsion [N]-C--CA-[N] |==|  0.45420
USER: genes 16 Torsion [C]-CA--CB-[OG] |==|  0.67456
USER: genes 17 Torsion [CA]-CB--OG-[HG] |==|  0.84070
USER: genes 18 Torsion [C]-CA--CB-[OG] |==|  0.75228
USER: genes 19 Torsion [CA]-CB--OG-[HG] |==|  0.54768
ROOT
ATOM      1  C   SER B   4     -14.260  -4.757  14.481  1.00 56.97 LIG 0.24  C 
ATOM      2 O    SER B   4     -14.424  -3.810  15.256  1.00 57.23 LIG-0.27  OA
ATOM      3  N   THR B   5     -13.053  -5.164  14.077  1.00 55.89 LIG-0.34  N 
ATOM      4 H    THR B   5     -12.924  -5.813  13.527  1.00 55.89 LIG 0.16  HD
ENDROOT
BRANCH 3 5
ATOM      5  CA  THR B   5     -11.819  -4.517  14.552  1.00 55.10 LIG 0.20  C 
BRANCH 5 6
ATOM      6  CB  THR B   5     -11.677  -4.613  16.114  1.00 55.33 LIG 0.15  C 
ATOM      7  CG2 THR B   5     -11.865  -6.052  16.614  1.00 55.26 LIG 0.04  C 
BRANCH 6 8
ATOM      8 OG1  THR B   5     -10.387  -4.130  16.530  1.00 55.55 LIG-0.39  OA
ATOM      9 HG1  THR B   5     -10.486  -3.475  17.046  1.00 55.55 LIG 0.21  HD
ENDBRANCH 6 8
ENDBRANCH 5 6
BRANCH 5 10
ATOM     10  C   THR B   5     -10.539  -5.044  13.877  1.00 54.13 LIG 0.24  C 
ATOM     11  N   PRO B   6     -10.588  -5.271  12.545  1.00 52.90 LIG-0.34  N 
ATOM     12  CD  PRO B   6     -11.761  -5.159  11.656  1.00 52.89 LIG 0.13  C 
ATOM     13  CA  PRO B   6      -9.382  -5.685  11.814  1.00 51.99 LIG 0.18  C 
ATOM     14  CG  PRO B   6     -11.254  -5.656  10.325  1.00 52.79 LIG 0.02  C 
ATOM     15  CB  PRO B   6      -9.782  -5.523  10.343  1.00 51.93 LIG 0.04  C 
ATOM     16 O    THR B   5      -9.511  -5.226  14.545  1.00 54.19 LIG-0.27  OA
BRANCH 13 17
ATOM     17  C   PRO B   6      -8.201  -4.780  12.151  1.00 51.04 LIG 0.24  C 
ATOM     18 O    PRO B   6      -7.407  -5.121  13.032  1.00 50.92 LIG-0.27  OA
ATOM     19  N   CYS B   7      -8.081  -3.645  11.460  1.00 49.72 LIG-0.34  N 
ATOM     20 H    CYS B   7      -8.672  -3.350  10.910  1.00 49.72 LIG 0.16  HD
BRANCH 19 21
ATOM     21  CA  CYS B   7      -6.885  -2.790  11.598  1.00 48.85 LIG 0.19  C 
BRANCH 21 22
ATOM     22  C   CYS B   7      -7.200  -1.342  11.971  1.00 48.04 LIG 0.20  C 
ATOM     23 OXT  CYS B   7      -8.080  -0.707  11.396  1.00 47.16 LIG-0.65  OA
ATOM     24 O    CYS B   7      -6.571  -0.784  12.866  1.00 47.51 LIG-0.65  OA
ENDBRANCH 21 22
BRANCH 21 25
ATOM     25  CB  CYS B   7      -6.033  -2.846  10.323  1.00 48.98 LIG 0.11  C 
BRANCH 25 26
ATOM     26 SG   CYS B   7      -6.607  -4.110   9.170  1.00 48.50 LIG-0.18  SA
ATOM     27 HG   CYS B   7      -5.741  -4.350   8.375  1.00 48.50 LIG 0.10  HD
ENDBRANCH 25 26
ENDBRANCH 21 25
ENDBRANCH 19 21
ENDBRANCH 13 17
ENDBRANCH 5 10
ENDBRANCH 3 5
BRANCH 1 28
ATOM     28  CA  SER B   4     -15.470  -5.520  13.928  1.00 57.59 LIG 0.20  C 
BRANCH 28 29
ATOM     29  N   SER B   4     -15.104  -6.825  13.362  1.00 58.14 LIG-0.34  N 
ATOM     30  C   SER B   3     -15.086  -7.053  12.048  1.00 58.75 LIG 0.24  C 
ATOM     31 O    SER B   3     -15.219  -6.151  11.217  1.00 58.75 LIG-0.27  OA
ATOM     32 H    SER B   4     -14.905  -7.420  13.951  1.00 58.14 LIG 0.16  HD
BRANCH 30 33
ATOM     33  CA  SER B   3     -14.868  -8.514  11.598  1.00 59.17 LIG 0.20  C 
BRANCH 33 34
ATOM     34  N   SER B   3     -14.143  -9.277  12.626  1.00 59.50 LIG-0.34  N 
ATOM     35  C   PRO B   2     -12.810  -9.385  12.718  1.00 59.86 LIG 0.25  C 
ATOM     36 O    PRO B   2     -12.272 -10.120  13.554  1.00 59.80 LIG-0.27  OA
ATOM     37 H    SER B   3     -14.671  -9.662  13.185  1.00 59.50 LIG 0.16  HD
BRANCH 35 38
ATOM     38  CA  PRO B   2     -11.916  -8.586  11.755  1.00 60.11 LIG 0.35  C 
ATOM     39  CB  PRO B   2     -11.782  -9.293  10.397  1.00 60.16 LIG 0.05  C 
ATOM     40  CG  PRO B   2     -10.348  -9.158  10.011  1.00 60.30 LIG 0.04  C 
ATOM     41  CD  PRO B   2      -9.572  -9.106  11.285  1.00 60.25 LIG 0.32  C 
ATOM     42  N   PRO B   2     -10.529  -8.520  12.240  1.00 60.27 LIG 0.32  N 
ENDBRANCH 35 38
ENDBRANCH 33 34
BRANCH 33 43
ATOM     43  CB  SER B   3     -16.220  -9.176  11.305  1.00 59.26 LIG 0.20  C 
BRANCH 43 44
ATOM     44 OG   SER B   3     -16.454 -10.264  12.183  1.00 59.53 LIG-0.40  OA
ATOM     45 HG   SER B   3     -15.828 -10.820  12.113  1.00 59.53 LIG 0.21  HD
ENDBRANCH 43 44
ENDBRANCH 33 43
ENDBRANCH 30 33
ENDBRANCH 28 29
BRANCH 28 46
ATOM     46  CB  SER B   4     -16.502  -5.740  15.037  1.00 57.64 LIG 0.20  C 
BRANCH 46 47
ATOM     47 OG   SER B   4     -16.249  -6.955  15.729  1.00 57.32 LIG-0.40  OA
ATOM     48 HG   SER B   4     -16.932  -7.179  16.162  1.00 57.32 LIG 0.21  HD
ENDBRANCH 46 47
ENDBRANCH 28 46
ENDBRANCH 1 28
TORSDOF 18
ENDMDL
MODEL 55
USER: ADFR SOLUTION from run 137
USER: SCORE 12.812131 LL:  -3.225 LR: -11.520 RR:   0.000 FEB:  -6.151
USER: RMSD 8.735953
USER: SEED 136
USER: STATUS no improvement in best in 2 clusters for 5 generations
USER: GENES 20
USER: genes 0 Translation |==|  0.78092 0.63794 0.45591
USER: genes 1 Rotation |==|  0.86451 0.33559 0.20120 0.52860
USER: genes 2 Torsion [C]-N--CA-[CB] |==|  0.44352
USER: genes 3 Torsion [N]-CA--CB-[CG2] |==|  0.07571
USER: genes 4 Torsion [CA]-CB--OG1-[HG1] |==|  0.76046
USER: genes 5 Torsion [N]-CA--C-[N] |==|  0.85923
USER: genes 6 Torsion [N]-CA--C-[O] |==|  0.42120
USER: genes 7 Torsion [C]-N--CA-[CB] |==|  0.79601
USER: genes 8 Torsion [N]-CA--C-[O] |==|  0.17116
USER: genes 9 Torsion [N]-CA--CB-[SG] |==|  0.86496
USER: genes 10 Torsion [CA]-CB--SG-[HG] |==|  0.27915
USER: genes 11 Torsion [N]-C--CA-[N] |==|  0.02899
USER: genes 12 Torsion [C]-CA--N-[C] |==|  0.20181
USER: genes 13 Torsion [N]-C--CA-[N] |==|  0.50861
USER: genes 14 Torsion [C]-CA--N-[C] |==|  0.78081
USER: genes 15 Torsion [N]-C--CA-[N] |==|  0.22610
USER: genes 16 Torsion [C]-CA--CB-[OG] |==|  0.63343
USER: genes 17 Torsion [CA]-CB--OG-[HG] |==|  0.58987
USER: genes 18 Torsion [C]-CA--CB-[OG] |==|  0.13224
USER: genes 19 Torsion [CA]-CB--OG-[HG] |==|  0.32130
ROOT
ATOM      1  C   SER B   4     -11.540  -5.782  14.407  1.00 56.97 LIG 0.24  C 
ATOM      2 O    SER B   4     -10.362  -5.825  14.777  1.00 57.23 LIG-0.27  OA
ATOM      3  N   THR B   5     -12.076  -6.691  13.587  1.00 55.89 LIG-0.34  N 
ATOM      4 H    THR B   5     -12.890  -6.666  13.310  1.00 55.89 LIG 0.16  HD
ENDROOT
BRANCH 3 5
ATOM      5  CA  THR B   5     -11.298  -7.834  13.083  1.00 55.10 LIG 0.20  C 
BRANCH 5 6
ATOM      6  CB  THR B   5     -12.229  -8.999  12.588  1.00 55.33 LIG 0.15  C 
ATOM      7  CG2 THR B   5     -13.593  -8.474  12.118  1.00 55.26 LIG 0.04  C 
BRANCH 6 8
ATOM      8 OG1  THR B   5     -11.601  -9.718  11.512  1.00 55.55 LIG-0.39  OA
ATOM      9 HG1  THR B   5     -11.772  -9.337  10.783  1.00 55.55 LIG 0.21  HD
ENDBRANCH 6 8
ENDBRANCH 5 6
BRANCH 5 10
ATOM     10  C   THR B   5     -10.291  -7.463  11.978  1.00 54.13 LIG 0.24  C 
ATOM     11  N   PRO B   6     -10.754  -6.744  10.931  1.00 52.90 LIG-0.34  N 
ATOM     12  CD  PRO B   6     -12.149  -6.340  10.664  1.00 52.89 LIG 0.13  C 
ATOM     13  CA  PRO B   6      -9.836  -6.272   9.885  1.00 51.99 LIG 0.18  C 
ATOM     14  CG  PRO B   6     -12.082  -5.686   9.307  1.00 52.79 LIG 0.02  C 
ATOM     15  CB  PRO B   6     -10.681  -5.266   9.095  1.00 51.93 LIG 0.04  C 
ATOM     16 O    THR B   5      -9.103  -7.802  12.078  1.00 54.19 LIG-0.27  OA
BRANCH 13 17
ATOM     17  C   PRO B   6      -8.619  -5.586  10.497  1.00 51.04 LIG 0.24  C 
ATOM     18 O    PRO B   6      -7.545  -5.598   9.887  1.00 50.92 LIG-0.27  OA
ATOM     19  N   CYS B   7      -8.779  -4.991  11.680  1.00 49.72 LIG-0.34  N 
ATOM     20 H    CYS B   7      -9.491  -5.051  12.158  1.00 49.72 LIG 0.16  HD
BRANCH 19 21
ATOM     21  CA  CYS B   7      -7.709  -4.162  12.270  1.00 48.85 LIG 0.19  C 
BRANCH 21 22
ATOM     22  C   CYS B   7      -7.171  -3.086  11.329  1.00 48.04 LIG 0.20  C 
ATOM     23 OXT  CYS B   7      -5.996  -3.075  10.968  1.00 47.16 LIG-0.65  OA
ATOM     24 O    CYS B   7      -7.915  -2.203  10.910  1.00 47.51 LIG-0.65  OA
ENDBRANCH 21 22
BRANCH 21 25
ATOM     25  CB  CYS B   7      -6.567  -5.047  12.788  1.00 48.98 LIG 0.11  C 
BRANCH 25 26
ATOM     26 SG   CYS B   7      -7.164  -6.412  13.805  1.00 48.50 LIG-0.18  SA
ATOM     27 HG   CYS B   7      -7.186  -7.419  13.152  1.00 48.50 LIG 0.10  HD
ENDBRANCH 25 26
ENDBRANCH 21 25
ENDBRANCH 19 21
ENDBRANCH 13 17
ENDBRANCH 5 10
ENDBRANCH 3 5
BRANCH 1 28
ATOM     28  CA  SER B   4     -12.455  -4.645  14.877  1.00 57.59 LIG 0.20  C 
BRANCH 28 29
ATOM     29  N   SER B   4     -13.865  -4.878  14.534  1.00 58.14 LIG-0.34  N 
ATOM     30  C   SER B   3     -14.611  -5.787  15.162  1.00 58.75 LIG 0.24  C 
ATOM     31 O    SER B   3     -14.223  -6.380  16.172  1.00 58.75 LIG-0.27  OA
ATOM     32 H    SER B   4     -14.159  -4.378  13.899  1.00 58.14 LIG 0.16  HD
BRANCH 30 33
ATOM     33  CA  SER B   3     -16.015  -6.058  14.579  1.00 59.17 LIG 0.20  C 
BRANCH 33 34
ATOM     34  N   SER B   3     -16.750  -7.023  15.410  1.00 59.50 LIG-0.34  N 
ATOM     35  C   PRO B   2     -16.577  -8.352  15.396  1.00 59.86 LIG 0.25  C 
ATOM     36 O    PRO B   2     -17.296  -9.111  16.056  1.00 59.80 LIG-0.27  OA
ATOM     37 H    SER B   3     -17.324  -6.644  15.927  1.00 59.50 LIG 0.16  HD
BRANCH 35 38
ATOM     38  CA  PRO B   2     -15.461  -8.962  14.531  1.00 60.11 LIG 0.35  C 
ATOM     39  CB  PRO B   2     -15.668 -10.471  14.331  1.00 60.16 LIG 0.05  C 
ATOM     40  CG  PRO B   2     -14.316 -11.086  14.470  1.00 60.30 LIG 0.04  C 
ATOM     41  CD  PRO B   2     -13.552 -10.214  15.410  1.00 60.25 LIG 0.32  C 
ATOM     42  N   PRO B   2     -14.156  -8.886  15.206  1.00 60.27 LIG 0.32  N 
ENDBRANCH 35 38
ENDBRANCH 33 34
BRANCH 33 43
ATOM     43  CB  SER B   3     -16.799  -4.743  14.478  1.00 59.26 LIG 0.20  C 
BRANCH 43 44
ATOM     44 OG   SER B   3     -18.101  -4.886  15.020  1.00 59.53 LIG-0.40  OA
ATOM     45 HG   SER B   3     -18.634  -4.390  14.601  1.00 59.53 LIG 0.21  HD
ENDBRANCH 43 44
ENDBRANCH 33 43
ENDBRANCH 30 33
ENDBRANCH 28 29
BRANCH 28 46
ATOM     46  CB  SER B   4     -12.342  -4.476  16.394  1.00 57.64 LIG 0.20  C 
BRANCH 46 47
ATOM     47 OG   SER B   4     -10.980  -4.449  16.799  1.00 57.32 LIG-0.40  OA
ATOM     48 HG   SER B   4     -10.800  -3.697  17.125  1.00 57.32 LIG 0.21  HD
ENDBRANCH 46 47
ENDBRANCH 28 46
ENDBRANCH 1 28
TORSDOF 18
ENDMDL
MODEL 56
USER: ADFR SOLUTION from run 165
USER: SCORE 14.721705 LL:  -4.134 LR: -11.505 RR:   0.000 FEB:  -6.136
USER: RMSD 6.181463
USER: SEED 164
USER: STATUS no improvement in best in 3 clusters for 5 generations
USER: GENES 20
USER: genes 0 Translation |==|  0.61194 0.60329 0.41687
USER: genes 1 Rotation |==|  0.06545 0.42399 0.66432 0.66848
USER: genes 2 Torsion [C]-N--CA-[CB] |==|  0.52222
USER: genes 3 Torsion [N]-CA--CB-[CG2] |==|  0.62413
USER: genes 4 Torsion [CA]-CB--OG1-[HG1] |==|  0.79808
USER: genes 5 Torsion [N]-CA--C-[N] |==|  0.27350
USER: genes 6 Torsion [N]-CA--C-[O] |==|  0.41842
USER: genes 7 Torsion [C]-N--CA-[CB] |==|  0.24419
USER: genes 8 Torsion [N]-CA--C-[O] |==|  0.45533
USER: genes 9 Torsion [N]-CA--CB-[SG] |==|  0.09234
USER: genes 10 Torsion [CA]-CB--SG-[HG] |==|  0.38760
USER: genes 11 Torsion [N]-C--CA-[N] |==|  0.38881
USER: genes 12 Torsion [C]-CA--N-[C] |==|  0.65557
USER: genes 13 Torsion [N]-C--CA-[N] |==|  0.97778
USER: genes 14 Torsion [C]-CA--N-[C] |==|  0.76772
USER: genes 15 Torsion [N]-C--CA-[N] |==|  0.23156
USER: genes 16 Torsion [C]-CA--CB-[OG] |==|  0.88661
USER: genes 17 Torsion [CA]-CB--OG-[HG] |==|  0.23589
USER: genes 18 Torsion [C]-CA--CB-[OG] |==|  0.63039
USER: genes 19 Torsion [CA]-CB--OG-[HG] |==|  0.88026
ROOT
ATOM      1  C   SER B   4     -16.356  -6.302  13.850  1.00 56.97 LIG 0.24  C 
ATOM      2 O    SER B   4     -15.718  -6.778  14.794  1.00 57.23 LIG-0.27  OA
ATOM      3  N   THR B   5     -15.782  -5.925  12.704  1.00 55.89 LIG-0.34  N 
ATOM      4 H    THR B   5     -16.211  -5.579  12.043  1.00 55.89 LIG 0.16  HD
ENDROOT
BRANCH 3 5
ATOM      5  CA  THR B   5     -14.335  -6.076  12.476  1.00 55.10 LIG 0.20  C 
BRANCH 5 6
ATOM      6  CB  THR B   5     -13.882  -5.379  11.142  1.00 55.33 LIG 0.15  C 
ATOM      7  CG2 THR B   5     -12.930  -6.269  10.331  1.00 55.26 LIG 0.04  C 
BRANCH 6 8
ATOM      8 OG1  THR B   5     -15.026  -5.050  10.336  1.00 55.55 LIG-0.39  OA
ATOM      9 HG1  THR B   5     -15.348  -5.752  10.005  1.00 55.55 LIG 0.21  HD
ENDBRANCH 6 8
ENDBRANCH 5 6
BRANCH 5 10
ATOM     10  C   THR B   5     -13.465  -5.583  13.647  1.00 54.13 LIG 0.24  C 
ATOM     11  N   PRO B   6     -13.006  -6.512  14.514  1.00 52.90 LIG-0.34  N 
ATOM     12  CD  PRO B   6     -13.312  -7.956  14.532  1.00 52.89 LIG 0.13  C 
ATOM     13  CA  PRO B   6     -12.094  -6.131  15.603  1.00 51.99 LIG 0.18  C 
ATOM     14  CG  PRO B   6     -12.637  -8.454  15.785  1.00 52.79 LIG 0.02  C 
ATOM     15  CB  PRO B   6     -11.581  -7.477  16.127  1.00 51.93 LIG 0.04  C 
ATOM     16 O    THR B   5     -13.193  -4.378  13.757  1.00 54.19 LIG-0.27  OA
BRANCH 13 17
ATOM     17  C   PRO B   6     -10.939  -5.286  15.076  1.00 51.04 LIG 0.24  C 
ATOM     18 O    PRO B   6     -10.411  -4.451  15.816  1.00 50.92 LIG-0.27  OA
ATOM     19  N   CYS B   7     -10.546  -5.499  13.819  1.00 49.72 LIG-0.34  N 
ATOM     20 H    CYS B   7     -10.959  -6.009  13.264  1.00 49.72 LIG 0.16  HD
BRANCH 19 21
ATOM     21  CA  CYS B   7      -9.334  -4.851  13.278  1.00 48.85 LIG 0.19  C 
BRANCH 21 22
ATOM     22  C   CYS B   7      -9.426  -4.514  11.790  1.00 48.04 LIG 0.20  C 
ATOM     23 OXT  CYS B   7     -10.285  -5.015  11.069  1.00 47.16 LIG-0.65  OA
ATOM     24 O    CYS B   7      -8.632  -3.725  11.285  1.00 47.51 LIG-0.65  OA
ENDBRANCH 21 22
BRANCH 21 25
ATOM     25  CB  CYS B   7      -8.093  -5.708  13.563  1.00 48.98 LIG 0.11  C 
BRANCH 25 26
ATOM     26 SG   CYS B   7      -8.459  -7.474  13.540  1.00 48.50 LIG-0.18  SA
ATOM     27 HG   CYS B   7      -7.566  -8.061  12.994  1.00 48.50 LIG 0.10  HD
ENDBRANCH 25 26
ENDBRANCH 21 25
ENDBRANCH 19 21
ENDBRANCH 13 17
ENDBRANCH 5 10
ENDBRANCH 3 5
BRANCH 1 28
ATOM     28  CA  SER B   4     -17.873  -6.108  13.963  1.00 57.59 LIG 0.20  C 
BRANCH 28 29
ATOM     29  N   SER B   4     -18.536  -7.231  14.639  1.00 58.14 LIG-0.34  N 
ATOM     30  C   SER B   3     -19.531  -7.916  14.075  1.00 58.75 LIG 0.24  C 
ATOM     31 O    SER B   3     -19.855  -7.763  12.894  1.00 58.75 LIG-0.27  OA
ATOM     32 H    SER B   4     -18.226  -7.401  15.424  1.00 58.14 LIG 0.16  HD
BRANCH 30 33
ATOM     33  CA  SER B   3     -20.261  -8.945  14.965  1.00 59.17 LIG 0.20  C 
BRANCH 33 34
ATOM     34  N   SER B   3     -19.573  -9.104  16.256  1.00 59.50 LIG-0.34  N 
ATOM     35  C   PRO B   2     -18.520  -9.901  16.482  1.00 59.86 LIG 0.25  C 
ATOM     36 O    PRO B   2     -18.050 -10.055  17.616  1.00 59.80 LIG-0.27  OA
ATOM     37 H    SER B   3     -19.921  -8.620  16.877  1.00 59.50 LIG 0.16  HD
BRANCH 35 38
ATOM     38  CA  PRO B   2     -17.876 -10.658  15.309  1.00 60.11 LIG 0.35  C 
ATOM     39  CB  PRO B   2     -17.010 -11.827  15.804  1.00 60.16 LIG 0.05  C 
ATOM     40  CG  PRO B   2     -15.780 -11.803  14.962  1.00 60.30 LIG 0.04  C 
ATOM     41  CD  PRO B   2     -15.557 -10.377  14.583  1.00 60.25 LIG 0.32  C 
ATOM     42  N   PRO B   2     -16.917  -9.810  14.585  1.00 60.27 LIG 0.32  N 
ENDBRANCH 35 38
ENDBRANCH 33 34
BRANCH 33 43
ATOM     43  CB  SER B   3     -21.711  -8.500  15.191  1.00 59.26 LIG 0.20  C 
BRANCH 43 44
ATOM     44 OG   SER B   3     -21.785  -7.101  15.410  1.00 59.53 LIG-0.40  OA
ATOM     45 HG   SER B   3     -21.815  -6.703  14.671  1.00 59.53 LIG 0.21  HD
ENDBRANCH 43 44
ENDBRANCH 33 43
ENDBRANCH 30 33
ENDBRANCH 28 29
BRANCH 28 46
ATOM     46  CB  SER B   4     -18.180  -4.822  14.735  1.00 57.64 LIG 0.20  C 
BRANCH 46 47
ATOM     47 OG   SER B   4     -19.171  -5.052  15.727  1.00 57.32 LIG-0.40  OA
ATOM     48 HG   SER B   4     -19.783  -5.530  15.406  1.00 57.32 LIG 0.21  HD
ENDBRANCH 46 47
ENDBRANCH 28 46
ENDBRANCH 1 28
TORSDOF 18
ENDMDL
MODEL 57
USER: ADFR SOLUTION from run 92
USER: SCORE 14.441785 LL:  -3.820 LR: -11.496 RR:   0.000 FEB:  -6.126
USER: RMSD 6.940543
USER: SEED 91
USER: STATUS no improvement in best in 4 clusters for 5 generations
USER: GENES 20
USER: genes 0 Translation |==|  0.65310 0.45020 0.34017
USER: genes 1 Rotation |==|  0.66917 0.30390 0.45417 0.92524
USER: genes 2 Torsion [C]-N--CA-[CB] |==|  0.78333
USER: genes 3 Torsion [N]-CA--CB-[CG2] |==|  0.83138
USER: genes 4 Torsion [CA]-CB--OG1-[HG1] |==|  0.33464
USER: genes 5 Torsion [N]-CA--C-[N] |==|  0.23865
USER: genes 6 Torsion [N]-CA--C-[O] |==|  0.78865
USER: genes 7 Torsion [C]-N--CA-[CB] |==|  0.19297
USER: genes 8 Torsion [N]-CA--C-[O] |==|  0.78600
USER: genes 9 Torsion [N]-CA--CB-[SG] |==|  0.64244
USER: genes 10 Torsion [CA]-CB--SG-[HG] |==|  0.68880
USER: genes 11 Torsion [N]-C--CA-[N] |==|  0.18939
USER: genes 12 Torsion [C]-CA--N-[C] |==|  0.77776
USER: genes 13 Torsion [N]-C--CA-[N] |==|  0.98743
USER: genes 14 Torsion [C]-CA--N-[C] |==|  0.82768
USER: genes 15 Torsion [N]-C--CA-[N] |==|  0.34913
USER: genes 16 Torsion [C]-CA--CB-[OG] |==|  0.55553
USER: genes 17 Torsion [CA]-CB--OG-[HG] |==|  0.10369
USER: genes 18 Torsion [C]-CA--CB-[OG] |==|  0.62660
USER: genes 19 Torsion [CA]-CB--OG-[HG] |==|  0.64756
ROOT
ATOM      1  C   SER B   4     -15.183  -8.598  12.757  1.00 56.97 LIG 0.24  C 
ATOM      2 O    SER B   4     -14.424  -8.121  11.907  1.00 57.23 LIG-0.27  OA
ATOM      3  N   THR B   5     -14.786  -8.894  13.999  1.00 55.89 LIG-0.34  N 
ATOM      4 H    THR B   5     -15.299  -9.239  14.597  1.00 55.89 LIG 0.16  HD
ENDROOT
BRANCH 3 5
ATOM      5  CA  THR B   5     -13.406  -8.647  14.451  1.00 55.10 LIG 0.20  C 
BRANCH 5 6
ATOM      6  CB  THR B   5     -12.416  -9.747  13.923  1.00 55.33 LIG 0.15  C 
ATOM      7  CG2 THR B   5     -12.799 -11.145  14.428  1.00 55.26 LIG 0.04  C 
BRANCH 6 8
ATOM      8 OG1  THR B   5     -12.395  -9.751  12.485  1.00 55.55 LIG-0.39  OA
ATOM      9 HG1  THR B   5     -11.614  -9.596  12.215  1.00 55.55 LIG 0.21  HD
ENDBRANCH 6 8
ENDBRANCH 5 6
BRANCH 5 10
ATOM     10  C   THR B   5     -12.875  -7.247  14.090  1.00 54.13 LIG 0.24  C 
ATOM     11  N   PRO B   6     -13.152  -6.238  14.946  1.00 52.90 LIG-0.34  N 
ATOM     12  CD  PRO B   6     -13.991  -6.292  16.159  1.00 52.89 LIG 0.13  C 
ATOM     13  CA  PRO B   6     -12.601  -4.894  14.719  1.00 51.99 LIG 0.18  C 
ATOM     14  CG  PRO B   6     -14.046  -4.858  16.625  1.00 52.79 LIG 0.02  C 
ATOM     15  CB  PRO B   6     -12.879  -4.165  16.038  1.00 51.93 LIG 0.04  C 
ATOM     16 O    THR B   5     -12.204  -7.081  13.061  1.00 54.19 LIG-0.27  OA
BRANCH 13 17
ATOM     17  C   PRO B   6     -11.101  -4.958  14.449  1.00 51.04 LIG 0.24  C 
ATOM     18 O    PRO B   6     -10.322  -5.145  15.388  1.00 50.92 LIG-0.27  OA
ATOM     19  N   CYS B   7     -10.699  -4.810  13.185  1.00 49.72 LIG-0.34  N 
ATOM     20 H    CYS B   7     -11.217  -4.590  12.536  1.00 49.72 LIG 0.16  HD
BRANCH 19 21
ATOM     21  CA  CYS B   7      -9.288  -5.023  12.803  1.00 48.85 LIG 0.19  C 
BRANCH 21 22
ATOM     22  C   CYS B   7      -8.933  -4.477  11.421  1.00 48.04 LIG 0.20  C 
ATOM     23 OXT  CYS B   7      -8.313  -3.425  11.285  1.00 47.16 LIG-0.65  OA
ATOM     24 O    CYS B   7      -9.266  -5.090  10.410  1.00 47.51 LIG-0.65  OA
ENDBRANCH 21 22
BRANCH 21 25
ATOM     25  CB  CYS B   7      -8.920  -6.509  12.908  1.00 48.98 LIG 0.11  C 
BRANCH 25 26
ATOM     26 SG   CYS B   7      -7.423  -6.779  13.877  1.00 48.50 LIG-0.18  SA
ATOM     27 HG   CYS B   7      -6.547  -7.175  13.159  1.00 48.50 LIG 0.10  HD
ENDBRANCH 25 26
ENDBRANCH 21 25
ENDBRANCH 19 21
ENDBRANCH 13 17
ENDBRANCH 5 10
ENDBRANCH 3 5
BRANCH 1 28
ATOM     28  CA  SER B   4     -16.648  -8.888  12.410  1.00 57.59 LIG 0.20  C 
BRANCH 28 29
ATOM     29  N   SER B   4     -17.582  -8.010  13.127  1.00 58.14 LIG-0.34  N 
ATOM     30  C   SER B   3     -17.937  -8.229  14.393  1.00 58.75 LIG 0.24  C 
ATOM     31 O    SER B   3     -17.391  -9.081  15.097  1.00 58.75 LIG-0.27  OA
ATOM     32 H    SER B   4     -17.874  -7.350  12.658  1.00 58.14 LIG 0.16  HD
BRANCH 30 33
ATOM     33  CA  SER B   3     -19.066  -7.342  14.963  1.00 59.17 LIG 0.20  C 
BRANCH 33 34
ATOM     34  N   SER B   3     -19.472  -6.319  13.988  1.00 59.50 LIG-0.34  N 
ATOM     35  C   PRO B   2     -18.683  -5.351  13.501  1.00 59.86 LIG 0.25  C 
ATOM     36 O    PRO B   2     -19.118  -4.469  12.753  1.00 59.80 LIG-0.27  OA
ATOM     37 H    SER B   3     -20.295  -6.399  13.748  1.00 59.50 LIG 0.16  HD
BRANCH 35 38
ATOM     38  CA  PRO B   2     -17.194  -5.324  13.884  1.00 60.11 LIG 0.35  C 
ATOM     39  CB  PRO B   2     -16.827  -4.022  14.614  1.00 60.16 LIG 0.05  C 
ATOM     40  CG  PRO B   2     -15.508  -3.604  14.057  1.00 60.30 LIG 0.04  C 
ATOM     41  CD  PRO B   2     -15.467  -4.105  12.652  1.00 60.25 LIG 0.32  C 
ATOM     42  N   PRO B   2     -16.333  -5.297  12.692  1.00 60.27 LIG 0.32  N 
ENDBRANCH 35 38
ENDBRANCH 33 34
BRANCH 33 43
ATOM     43  CB  SER B   3     -20.268  -8.213  15.347  1.00 59.26 LIG 0.20  C 
BRANCH 43 44
ATOM     44 OG   SER B   3     -21.451  -7.436  15.434  1.00 59.53 LIG-0.40  OA
ATOM     45 HG   SER B   3     -21.446  -6.850  14.832  1.00 59.53 LIG 0.21  HD
ENDBRANCH 43 44
ENDBRANCH 33 43
ENDBRANCH 30 33
ENDBRANCH 28 29
BRANCH 28 46
ATOM     46  CB  SER B   4     -16.872  -8.716  10.905  1.00 57.64 LIG 0.20  C 
BRANCH 46 47
ATOM     47 OG   SER B   4     -18.055  -7.970  10.652  1.00 57.32 LIG-0.40  OA
ATOM     48 HG   SER B   4     -18.548  -8.397  10.124  1.00 57.32 LIG 0.21  HD
ENDBRANCH 46 47
ENDBRANCH 28 46
ENDBRANCH 1 28
TORSDOF 18
ENDMDL
MODEL 58
USER: ADFR SOLUTION from run 123
USER: SCORE 14.218891 LL:  -3.535 LR: -11.477 RR:   0.000 FEB:  -6.107
USER: RMSD 11.101370
USER: SEED 122
USER: STATUS no improvement in best in 6 clusters for 5 generations
USER: GENES 20
USER: genes 0 Translation |==|  0.74043 0.57231 0.57735
USER: genes 1 Rotation |==|  0.34051 0.86657 0.30984 0.73244
USER: genes 2 Torsion [C]-N--CA-[CB] |==|  0.72778
USER: genes 3 Torsion [N]-CA--CB-[CG2] |==|  0.66036
USER: genes 4 Torsion [CA]-CB--OG1-[HG1] |==|  0.16616
USER: genes 5 Torsion [N]-CA--C-[N] |==|  0.16294
USER: genes 6 Torsion [N]-CA--C-[O] |==|  0.39004
USER: genes 7 Torsion [C]-N--CA-[CB] |==|  0.80434
USER: genes 8 Torsion [N]-CA--C-[O] |==|  0.51876
USER: genes 9 Torsion [N]-CA--CB-[SG] |==|  0.29499
USER: genes 10 Torsion [CA]-CB--SG-[HG] |==|  0.89085
USER: genes 11 Torsion [N]-C--CA-[N] |==|  0.03888
USER: genes 12 Torsion [C]-CA--N-[C] |==|  0.21024
USER: genes 13 Torsion [N]-C--CA-[N] |==|  0.42867
USER: genes 14 Torsion [C]-CA--N-[C] |==|  0.81343
USER: genes 15 Torsion [N]-C--CA-[N] |==|  0.47217
USER: genes 16 Torsion [C]-CA--CB-[OG] |==|  0.56516
USER: genes 17 Torsion [CA]-CB--OG-[HG] |==|  0.73840
USER: genes 18 Torsion [C]-CA--CB-[OG] |==|  0.59367
USER: genes 19 Torsion [CA]-CB--OG-[HG] |==|  0.45523
ROOT
ATOM      1  C   SER B   4     -12.694  -6.766  16.137  1.00 56.97 LIG 0.24  C 
ATOM      2 O    SER B   4     -13.686  -6.429  16.791  1.00 57.23 LIG-0.27  OA
ATOM      3  N   THR B   5     -12.770  -7.547  15.055  1.00 55.89 LIG-0.34  N 
ATOM      4 H    THR B   5     -12.087  -7.802  14.598  1.00 55.89 LIG 0.16  HD
ENDROOT
BRANCH 3 5
ATOM      5  CA  THR B   5     -14.060  -8.045  14.548  1.00 55.10 LIG 0.20  C 
BRANCH 5 6
ATOM      6  CB  THR B   5     -14.349  -9.510  15.035  1.00 55.33 LIG 0.15  C 
ATOM      7  CG2 THR B   5     -14.563 -10.469  13.856  1.00 55.26 LIG 0.04  C 
BRANCH 6 8
ATOM      8 OG1  THR B   5     -13.263  -9.991  15.846  1.00 55.55 LIG-0.39  OA
ATOM      9 HG1  THR B   5     -13.170  -9.491  16.515  1.00 55.55 LIG 0.21  HD
ENDBRANCH 6 8
ENDBRANCH 5 6
BRANCH 5 10
ATOM     10  C   THR B   5     -15.255  -7.134  14.887  1.00 54.13 LIG 0.24  C 
ATOM     11  N   PRO B   6     -15.208  -5.857  14.445  1.00 52.90 LIG-0.34  N 
ATOM     12  CD  PRO B   6     -14.095  -5.188  13.744  1.00 52.89 LIG 0.13  C 
ATOM     13  CA  PRO B   6     -16.350  -4.955  14.648  1.00 51.99 LIG 0.18  C 
ATOM     14  CG  PRO B   6     -14.552  -3.755  13.625  1.00 52.79 LIG 0.02  C 
ATOM     15  CB  PRO B   6     -16.025  -3.757  13.749  1.00 51.93 LIG 0.04  C 
ATOM     16 O    THR B   5     -16.220  -7.583  15.522  1.00 54.19 LIG-0.27  OA
BRANCH 13 17
ATOM     17  C   PRO B   6     -17.653  -5.617  14.209  1.00 51.04 LIG 0.24  C 
ATOM     18 O    PRO B   6     -18.676  -5.449  14.879  1.00 50.92 LIG-0.27  OA
ATOM     19  N   CYS B   7     -17.622  -6.354  13.098  1.00 49.72 LIG-0.34  N 
ATOM     20 H    CYS B   7     -16.903  -6.555  12.671  1.00 49.72 LIG 0.16  HD
BRANCH 19 21
ATOM     21  CA  CYS B   7     -18.862  -6.894  12.504  1.00 48.85 LIG 0.19  C 
BRANCH 21 22
ATOM     22  C   CYS B   7     -19.921  -5.831  12.214  1.00 48.04 LIG 0.20  C 
ATOM     23 OXT  CYS B   7     -19.683  -4.633  12.346  1.00 47.16 LIG-0.65  OA
ATOM     24 O    CYS B   7     -21.042  -6.163  11.836  1.00 47.51 LIG-0.65  OA
ENDBRANCH 21 22
BRANCH 21 25
ATOM     25  CB  CYS B   7     -19.441  -8.007  13.388  1.00 48.98 LIG 0.11  C 
BRANCH 25 26
ATOM     26 SG   CYS B   7     -20.910  -7.474  14.289  1.00 48.50 LIG-0.18  SA
ATOM     27 HG   CYS B   7     -20.760  -6.345  14.668  1.00 48.50 LIG 0.10  HD
ENDBRANCH 25 26
ENDBRANCH 21 25
ENDBRANCH 19 21
ENDBRANCH 13 17
ENDBRANCH 5 10
ENDBRANCH 3 5
BRANCH 1 28
ATOM     28  CA  SER B   4     -11.296  -6.299  16.559  1.00 57.59 LIG 0.20  C 
BRANCH 28 29
ATOM     29  N   SER B   4     -10.288  -6.520  15.514  1.00 58.14 LIG-0.34  N 
ATOM     30  C   SER B   3     -10.201  -5.747  14.432  1.00 58.75 LIG 0.24  C 
ATOM     31 O    SER B   3     -10.849  -4.704  14.308  1.00 58.75 LIG-0.27  OA
ATOM     32 H    SER B   4      -9.766  -7.187  15.665  1.00 58.14 LIG 0.16  HD
BRANCH 30 33
ATOM     33  CA  SER B   3      -9.222  -6.202  13.327  1.00 59.17 LIG 0.20  C 
BRANCH 33 34
ATOM     34  N   SER B   3      -9.632  -5.678  12.015  1.00 59.50 LIG-0.34  N 
ATOM     35  C   PRO B   2     -10.739  -6.034  11.348  1.00 59.86 LIG 0.25  C 
ATOM     36 O    PRO B   2     -10.973  -5.622  10.206  1.00 59.80 LIG-0.27  OA
ATOM     37 H    SER B   3      -9.077  -5.101  11.701  1.00 59.50 LIG 0.16  HD
BRANCH 35 38
ATOM     38  CA  PRO B   2     -11.747  -6.990  12.007  1.00 60.11 LIG 0.35  C 
ATOM     39  CB  PRO B   2     -11.232  -8.438  12.005  1.00 60.16 LIG 0.05  C 
ATOM     40  CG  PRO B   2     -12.408  -9.284  11.652  1.00 60.30 LIG 0.04  C 
ATOM     41  CD  PRO B   2     -13.283  -8.447  10.780  1.00 60.25 LIG 0.32  C 
ATOM     42  N   PRO B   2     -12.994  -7.074  11.230  1.00 60.27 LIG 0.32  N 
ENDBRANCH 35 38
ENDBRANCH 33 34
BRANCH 33 43
ATOM     43  CB  SER B   3      -7.802  -5.730  13.663  1.00 59.26 LIG 0.20  C 
BRANCH 43 44
ATOM     44 OG   SER B   3      -7.006  -5.639  12.493  1.00 59.53 LIG-0.40  OA
ATOM     45 HG   SER B   3      -6.578  -6.354  12.390  1.00 59.53 LIG 0.21  HD
ENDBRANCH 43 44
ENDBRANCH 33 43
ENDBRANCH 30 33
ENDBRANCH 28 29
BRANCH 28 46
ATOM     46  CB  SER B   4     -11.324  -4.808  16.904  1.00 57.64 LIG 0.20  C 
BRANCH 46 47
ATOM     47 OG   SER B   4     -10.098  -4.184  16.549  1.00 57.32 LIG-0.40  OA
ATOM     48 HG   SER B   4     -10.201  -3.351  16.535  1.00 57.32 LIG 0.21  HD
ENDBRANCH 46 47
ENDBRANCH 28 46
ENDBRANCH 1 28
TORSDOF 18
ENDMDL
MODEL 59
USER: ADFR SOLUTION from run 156
USER: SCORE 13.111506 LL:  -3.021 LR: -11.481 RR:   0.000 FEB:  -6.112
USER: RMSD 8.745069
USER: SEED 155
USER: STATUS searching
USER: GENES 20
USER: genes 0 Translation |==|  0.63614 0.57076 0.45047
USER: genes 1 Rotation |==|  0.84863 0.83883 0.41996 0.58512
USER: genes 2 Torsion [C]-N--CA-[CB] |==|  0.93671
USER: genes 3 Torsion [N]-CA--CB-[CG2] |==|  0.46373
USER: genes 4 Torsion [CA]-CB--OG1-[HG1] |==|  0.32432
USER: genes 5 Torsion [N]-CA--C-[N] |==|  0.81239
USER: genes 6 Torsion [N]-CA--C-[O] |==|  0.94293
USER: genes 7 Torsion [C]-N--CA-[CB] |==|  0.83840
USER: genes 8 Torsion [N]-CA--C-[O] |==|  0.81492
USER: genes 9 Torsion [N]-CA--CB-[SG] |==|  0.86147
USER: genes 10 Torsion [CA]-CB--SG-[HG] |==|  0.23788
USER: genes 11 Torsion [N]-C--CA-[N] |==|  0.14444
USER: genes 12 Torsion [C]-CA--N-[C] |==|  0.14085
USER: genes 13 Torsion [N]-C--CA-[N] |==|  0.86230
USER: genes 14 Torsion [C]-CA--N-[C] |==|  0.80098
USER: genes 15 Torsion [N]-C--CA-[N] |==|  0.24906
USER: genes 16 Torsion [C]-CA--CB-[OG] |==|  0.69605
USER: genes 17 Torsion [CA]-CB--OG-[HG] |==|  0.29126
USER: genes 18 Torsion [C]-CA--CB-[OG] |==|  0.19022
USER: genes 19 Torsion [CA]-CB--OG-[HG] |==|  0.80319
ROOT
ATOM      1  C   SER B   4     -15.666  -6.790  14.329  1.00 56.97 LIG 0.24  C 
ATOM      2 O    SER B   4     -15.955  -6.425  15.473  1.00 57.23 LIG-0.27  OA
ATOM      3  N   THR B   5     -15.091  -5.981  13.433  1.00 55.89 LIG-0.34  N 
ATOM      4 H    THR B   5     -14.897  -6.217  12.629  1.00 55.89 LIG 0.16  HD
ENDROOT
BRANCH 3 5
ATOM      5  CA  THR B   5     -14.737  -4.590  13.761  1.00 55.10 LIG 0.20  C 
BRANCH 5 6
ATOM      6  CB  THR B   5     -15.588  -4.041  14.962  1.00 55.33 LIG 0.15  C 
ATOM      7  CG2 THR B   5     -15.013  -2.729  15.513  1.00 55.26 LIG 0.04  C 
BRANCH 6 8
ATOM      8 OG1  THR B   5     -16.950  -3.828  14.553  1.00 55.55 LIG-0.39  OA
ATOM      9 HG1  THR B   5     -17.457  -4.335  14.991  1.00 55.55 LIG 0.21  HD
ENDBRANCH 6 8
ENDBRANCH 5 6
BRANCH 5 10
ATOM     10  C   THR B   5     -13.237  -4.379  14.041  1.00 54.13 LIG 0.24  C 
ATOM     11  N   PRO B   6     -12.727  -4.949  15.155  1.00 52.90 LIG-0.34  N 
ATOM     12  CD  PRO B   6     -13.458  -5.687  16.204  1.00 52.89 LIG 0.13  C 
ATOM     13  CA  PRO B   6     -11.288  -4.871  15.441  1.00 51.99 LIG 0.18  C 
ATOM     14  CG  PRO B   6     -12.408  -5.966  17.250  1.00 52.79 LIG 0.02  C 
ATOM     15  CB  PRO B   6     -11.093  -5.881  16.578  1.00 51.93 LIG 0.04  C 
ATOM     16 O    THR B   5     -12.541  -3.727  13.249  1.00 54.19 LIG-0.27  OA
BRANCH 13 17
ATOM     17  C   PRO B   6     -10.466  -5.274  14.221  1.00 51.04 LIG 0.24  C 
ATOM     18 O    PRO B   6     -10.991  -5.952  13.332  1.00 50.92 LIG-0.27  OA
ATOM     19  N   CYS B   7      -9.199  -4.861  14.171  1.00 49.72 LIG-0.34  N 
ATOM     20 H    CYS B   7      -8.793  -4.468  14.819  1.00 49.72 LIG 0.16  HD
BRANCH 19 21
ATOM     21  CA  CYS B   7      -8.378  -5.058  12.959  1.00 48.85 LIG 0.19  C 
BRANCH 21 22
ATOM     22  C   CYS B   7      -8.846  -4.240  11.756  1.00 48.04 LIG 0.20  C 
ATOM     23 OXT  CYS B   7      -8.161  -3.332  11.291  1.00 47.16 LIG-0.65  OA
ATOM     24 O    CYS B   7      -9.928  -4.481  11.228  1.00 47.51 LIG-0.65  OA
ENDBRANCH 21 22
BRANCH 21 25
ATOM     25  CB  CYS B   7      -8.297  -6.548  12.600  1.00 48.98 LIG 0.11  C 
BRANCH 25 26
ATOM     26 SG   CYS B   7      -7.834  -7.570  14.013  1.00 48.50 LIG-0.18  SA
ATOM     27 HG   CYS B   7      -8.816  -7.850  14.644  1.00 48.50 LIG 0.10  HD
ENDBRANCH 25 26
ENDBRANCH 21 25
ENDBRANCH 19 21
ENDBRANCH 13 17
ENDBRANCH 5 10
ENDBRANCH 3 5
BRANCH 1 28
ATOM     28  CA  SER B   4     -15.974  -8.221  13.875  1.00 57.59 LIG 0.20  C 
BRANCH 28 29
ATOM     29  N   SER B   4     -14.805  -8.891  13.290  1.00 58.14 LIG-0.34  N 
ATOM     30  C   SER B   3     -13.622  -8.929  13.905  1.00 58.75 LIG 0.24  C 
ATOM     31 O    SER B   3     -13.468  -8.548  15.068  1.00 58.75 LIG-0.27  OA
ATOM     32 H    SER B   4     -14.954  -9.252  12.524  1.00 58.14 LIG 0.16  HD
BRANCH 30 33
ATOM     33  CA  SER B   3     -12.436  -9.501  13.099  1.00 59.17 LIG 0.20  C 
BRANCH 33 34
ATOM     34  N   SER B   3     -12.789 -10.791  12.488  1.00 59.50 LIG-0.34  N 
ATOM     35  C   PRO B   2     -12.952 -11.945  13.150  1.00 59.86 LIG 0.25  C 
ATOM     36 O    PRO B   2     -13.159 -13.011  12.559  1.00 59.80 LIG-0.27  OA
ATOM     37 H    SER B   3     -12.886 -10.737  11.635  1.00 59.50 LIG 0.16  HD
BRANCH 35 38
ATOM     38  CA  PRO B   2     -12.873 -11.956  14.685  1.00 60.11 LIG 0.35  C 
ATOM     39  CB  PRO B   2     -12.483 -13.345  15.216  1.00 60.16 LIG 0.05  C 
ATOM     40  CG  PRO B   2     -13.350 -13.580  16.407  1.00 60.30 LIG 0.04  C 
ATOM     41  CD  PRO B   2     -14.619 -12.835  16.157  1.00 60.25 LIG 0.32  C 
ATOM     42  N   PRO B   2     -14.192 -11.721  15.293  1.00 60.27 LIG 0.32  N 
ENDBRANCH 35 38
ENDBRANCH 33 34
BRANCH 33 43
ATOM     43  CB  SER B   3     -12.015  -8.501  12.015  1.00 59.26 LIG 0.20  C 
BRANCH 43 44
ATOM     44 OG   SER B   3     -12.358  -8.977  10.724  1.00 59.53 LIG-0.40  OA
ATOM     45 HG   SER B   3     -13.028  -8.558  10.440  1.00 59.53 LIG 0.21  HD
ENDBRANCH 43 44
ENDBRANCH 33 43
ENDBRANCH 30 33
ENDBRANCH 28 29
BRANCH 28 46
ATOM     46  CB  SER B   4     -16.471  -9.051  15.061  1.00 57.64 LIG 0.20  C 
BRANCH 46 47
ATOM     47 OG   SER B   4     -17.751  -8.606  15.488  1.00 57.32 LIG-0.40  OA
ATOM     48 HG   SER B   4     -17.678  -7.856  15.859  1.00 57.32 LIG 0.21  HD
ENDBRANCH 46 47
ENDBRANCH 28 46
ENDBRANCH 1 28
TORSDOF 18
ENDMDL
MODEL 60
USER: ADFR SOLUTION from run 116
USER: SCORE 13.942005 LL:  -3.217 LR: -11.479 RR:   0.000 FEB:  -6.110
USER: RMSD 6.481246
USER: SEED 115
USER: STATUS no improvement in best in 8 clusters for 5 generations
USER: GENES 20
USER: genes 0 Translation |==|  0.70033 0.52475 0.48440
USER: genes 1 Rotation |==|  0.30507 0.29152 0.67077 0.87333
USER: genes 2 Torsion [C]-N--CA-[CB] |==|  0.74279
USER: genes 3 Torsion [N]-CA--CB-[CG2] |==|  0.13842
USER: genes 4 Torsion [CA]-CB--OG1-[HG1] |==|  0.33657
USER: genes 5 Torsion [N]-CA--C-[N] |==|  0.23889
USER: genes 6 Torsion [N]-CA--C-[O] |==|  0.42574
USER: genes 7 Torsion [C]-N--CA-[CB] |==|  0.84927
USER: genes 8 Torsion [N]-CA--C-[O] |==|  0.11571
USER: genes 9 Torsion [N]-CA--CB-[SG] |==|  0.83573
USER: genes 10 Torsion [CA]-CB--SG-[HG] |==|  0.16520
USER: genes 11 Torsion [N]-C--CA-[N] |==|  0.13951
USER: genes 12 Torsion [C]-CA--N-[C] |==|  0.74097
USER: genes 13 Torsion [N]-C--CA-[N] |==|  0.35403
USER: genes 14 Torsion [C]-CA--N-[C] |==|  0.80081
USER: genes 15 Torsion [N]-C--CA-[N] |==|  0.23611
USER: genes 16 Torsion [C]-CA--CB-[OG] |==|  0.50744
USER: genes 17 Torsion [CA]-CB--OG-[HG] |==|  0.16248
USER: genes 18 Torsion [C]-CA--CB-[OG] |==|  0.59869
USER: genes 19 Torsion [CA]-CB--OG-[HG] |==|  0.39322
ROOT
ATOM      1  C   SER B   4     -13.837  -7.480  14.813  1.00 56.97 LIG 0.24  C 
ATOM      2 O    SER B   4     -12.816  -8.129  14.564  1.00 57.23 LIG-0.27  OA
ATOM      3  N   THR B   5     -13.843  -6.147  14.906  1.00 55.89 LIG-0.34  N 
ATOM      4 H    THR B   5     -14.543  -5.682  15.092  1.00 55.89 LIG 0.16  HD
ENDROOT
BRANCH 3 5
ATOM      5  CA  THR B   5     -12.624  -5.349  14.693  1.00 55.10 LIG 0.20  C 
BRANCH 5 6
ATOM      6  CB  THR B   5     -11.865  -5.077  16.042  1.00 55.33 LIG 0.15  C 
ATOM      7  CG2 THR B   5     -11.659  -6.367  16.848  1.00 55.26 LIG 0.04  C 
BRANCH 6 8
ATOM      8 OG1  THR B   5     -10.587  -4.471  15.783  1.00 55.55 LIG-0.39  OA
ATOM      9 HG1  THR B   5     -10.545  -3.727  16.170  1.00 55.55 LIG 0.21  HD
ENDBRANCH 6 8
ENDBRANCH 5 6
BRANCH 5 10
ATOM     10  C   THR B   5     -11.656  -5.956  13.660  1.00 54.13 LIG 0.24  C 
ATOM     11  N   PRO B   6     -11.868  -5.656  12.359  1.00 52.90 LIG-0.34  N 
ATOM     12  CD  PRO B   6     -12.985  -4.880  11.785  1.00 52.89 LIG 0.13  C 
ATOM     13  CA  PRO B   6     -10.934  -6.120  11.324  1.00 51.99 LIG 0.18  C 
ATOM     14  CG  PRO B   6     -12.772  -4.987  10.296  1.00 52.79 LIG 0.02  C 
ATOM     15  CB  PRO B   6     -11.348  -5.322  10.083  1.00 51.93 LIG 0.04  C 
ATOM     16 O    THR B   5     -10.714  -6.670  14.033  1.00 54.19 LIG-0.27  OA
BRANCH 13 17
ATOM     17  C   PRO B   6      -9.492  -5.803  11.709  1.00 51.04 LIG 0.24  C 
ATOM     18 O    PRO B   6      -8.577  -6.505  11.269  1.00 50.92 LIG-0.27  OA
ATOM     19  N   CYS B   7      -9.288  -4.758  12.514  1.00 49.72 LIG-0.34  N 
ATOM     20 H    CYS B   7      -9.915  -4.317  12.901  1.00 49.72 LIG 0.16  HD
BRANCH 19 21
ATOM     21  CA  CYS B   7      -7.923  -4.274  12.805  1.00 48.85 LIG 0.19  C 
BRANCH 21 22
ATOM     22  C   CYS B   7      -7.247  -3.584  11.622  1.00 48.04 LIG 0.20  C 
ATOM     23 OXT  CYS B   7      -6.064  -3.782  11.352  1.00 47.16 LIG-0.65  OA
ATOM     24 O    CYS B   7      -7.883  -2.811  10.910  1.00 47.51 LIG-0.65  OA
ENDBRANCH 21 22
BRANCH 21 25
ATOM     25  CB  CYS B   7      -7.048  -5.417  13.336  1.00 48.98 LIG 0.11  C 
BRANCH 25 26
ATOM     26 SG   CYS B   7      -7.717  -6.150  14.843  1.00 48.50 LIG-0.18  SA
ATOM     27 HG   CYS B   7      -8.815  -6.582  14.625  1.00 48.50 LIG 0.10  HD
ENDBRANCH 25 26
ENDBRANCH 21 25
ENDBRANCH 19 21
ENDBRANCH 13 17
ENDBRANCH 5 10
ENDBRANCH 3 5
BRANCH 1 28
ATOM     28  CA  SER B   4     -15.172  -8.198  15.041  1.00 57.59 LIG 0.20  C 
BRANCH 28 29
ATOM     29  N   SER B   4     -16.263  -7.628  14.240  1.00 58.14 LIG-0.34  N 
ATOM     30  C   SER B   3     -17.075  -6.681  14.712  1.00 58.75 LIG 0.24  C 
ATOM     31 O    SER B   3     -16.870  -6.107  15.785  1.00 58.75 LIG-0.27  OA
ATOM     32 H    SER B   4     -16.328  -7.959  13.449  1.00 58.14 LIG 0.16  HD
BRANCH 30 33
ATOM     33  CA  SER B   3     -18.291  -6.306  13.837  1.00 59.17 LIG 0.20  C 
BRANCH 33 34
ATOM     34  N   SER B   3     -19.538  -6.378  14.614  1.00 59.50 LIG-0.34  N 
ATOM     35  C   PRO B   2     -20.130  -7.506  15.030  1.00 59.86 LIG 0.25  C 
ATOM     36 O    PRO B   2     -21.227  -7.494  15.599  1.00 59.80 LIG-0.27  OA
ATOM     37 H    SER B   3     -19.866  -5.601  14.784  1.00 59.50 LIG 0.16  HD
BRANCH 35 38
ATOM     38  CA  PRO B   2     -19.440  -8.858  14.789  1.00 60.11 LIG 0.35  C 
ATOM     39  CB  PRO B   2     -20.440 -10.022  14.875  1.00 60.16 LIG 0.05  C 
ATOM     40  CG  PRO B   2     -19.740 -11.101  15.629  1.00 60.30 LIG 0.04  C 
ATOM     41  CD  PRO B   2     -18.791 -10.419  16.558  1.00 60.25 LIG 0.32  C 
ATOM     42  N   PRO B   2     -18.472  -9.165  15.854  1.00 60.27 LIG 0.32  N 
ENDBRANCH 35 38
ENDBRANCH 33 34
BRANCH 33 43
ATOM     43  CB  SER B   3     -18.105  -4.895  13.266  1.00 59.26 LIG 0.20  C 
BRANCH 43 44
ATOM     44 OG   SER B   3     -19.237  -4.501  12.507  1.00 59.53 LIG-0.40  OA
ATOM     45 HG   SER B   3     -19.921  -4.525  12.993  1.00 59.53 LIG 0.21  HD
ENDBRANCH 43 44
ENDBRANCH 33 43
ENDBRANCH 30 33
ENDBRANCH 28 29
BRANCH 28 46
ATOM     46  CB  SER B   4     -15.034  -9.682  14.692  1.00 57.64 LIG 0.20  C 
BRANCH 46 47
ATOM     47 OG   SER B   4     -16.231 -10.178  14.109  1.00 57.32 LIG-0.40  OA
ATOM     48 HG   SER B   4     -16.041 -10.716  13.494  1.00 57.32 LIG 0.21  HD
ENDBRANCH 46 47
ENDBRANCH 28 46
ENDBRANCH 1 28
TORSDOF 18
ENDMDL
MODEL 61
USER: ADFR SOLUTION from run 55
USER: SCORE 12.877612 LL:  -3.324 LR: -11.446 RR:   0.000 FEB:  -6.077
USER: RMSD 9.262023
USER: SEED 54
USER: STATUS no improvement in best in 8 clusters for 5 generations
USER: GENES 20
USER: genes 0 Translation |==|  0.71058 0.50828 0.43165
USER: genes 1 Rotation |==|  0.37160 0.28536 0.60703 0.91951
USER: genes 2 Torsion [C]-N--CA-[CB] |==|  0.72588
USER: genes 3 Torsion [N]-CA--CB-[CG2] |==|  0.63841
USER: genes 4 Torsion [CA]-CB--OG1-[HG1] |==|  0.26658
USER: genes 5 Torsion [N]-CA--C-[N] |==|  0.19084
USER: genes 6 Torsion [N]-CA--C-[O] |==|  0.43249
USER: genes 7 Torsion [C]-N--CA-[CB] |==|  0.84310
USER: genes 8 Torsion [N]-CA--C-[O] |==|  0.13302
USER: genes 9 Torsion [N]-CA--CB-[SG] |==|  0.89723
USER: genes 10 Torsion [CA]-CB--SG-[HG] |==|  0.29551
USER: genes 11 Torsion [N]-C--CA-[N] |==|  0.62802
USER: genes 12 Torsion [C]-CA--N-[C] |==|  0.07578
USER: genes 13 Torsion [N]-C--CA-[N] |==|  0.31173
USER: genes 14 Torsion [C]-CA--N-[C] |==|  0.81891
USER: genes 15 Torsion [N]-C--CA-[N] |==|  0.31459
USER: genes 16 Torsion [C]-CA--CB-[OG] |==|  0.62406
USER: genes 17 Torsion [CA]-CB--OG-[HG] |==|  0.19141
USER: genes 18 Torsion [C]-CA--CB-[OG] |==|  0.54720
USER: genes 19 Torsion [CA]-CB--OG-[HG] |==|  0.44809
ROOT
ATOM      1  C   SER B   4     -13.545  -7.727  14.061  1.00 56.97 LIG 0.24  C 
ATOM      2 O    SER B   4     -12.631  -8.351  13.513  1.00 57.23 LIG-0.27  OA
ATOM      3  N   THR B   5     -13.363  -6.539  14.647  1.00 55.89 LIG-0.34  N 
ATOM      4 H    THR B   5     -13.986  -6.100  15.044  1.00 55.89 LIG 0.16  HD
ENDROOT
BRANCH 3 5
ATOM      5  CA  THR B   5     -12.049  -5.874  14.657  1.00 55.10 LIG 0.20  C 
BRANCH 5 6
ATOM      6  CB  THR B   5     -11.292  -6.104  16.014  1.00 55.33 LIG 0.15  C 
ATOM      7  CG2 THR B   5     -10.771  -4.787  16.604  1.00 55.26 LIG 0.04  C 
BRANCH 6 8
ATOM      8 OG1  THR B   5     -12.160  -6.741  16.968  1.00 55.55 LIG-0.39  OA
ATOM      9 HG1  THR B   5     -12.029  -7.571  16.957  1.00 55.55 LIG 0.21  HD
ENDBRANCH 6 8
ENDBRANCH 5 6
BRANCH 5 10
ATOM     10  C   THR B   5     -11.142  -6.269  13.477  1.00 54.13 LIG 0.24  C 
ATOM     11  N   PRO B   6     -11.509  -5.853  12.244  1.00 52.90 LIG-0.34  N 
ATOM     12  CD  PRO B   6     -12.740  -5.131  11.868  1.00 52.89 LIG 0.13  C 
ATOM     13  CA  PRO B   6     -10.647  -6.111  11.082  1.00 51.99 LIG 0.18  C 
ATOM     14  CG  PRO B   6     -12.669  -5.056  10.363  1.00 52.79 LIG 0.02  C 
ATOM     15  CB  PRO B   6     -11.250  -5.227   9.985  1.00 51.93 LIG 0.04  C 
ATOM     16 O    THR B   5     -10.109  -6.925  13.677  1.00 54.19 LIG-0.27  OA
BRANCH 13 17
ATOM     17  C   PRO B   6      -9.206  -5.699  11.370  1.00 51.04 LIG 0.24  C 
ATOM     18 O    PRO B   6      -8.286  -6.226  10.737  1.00 50.92 LIG-0.27  OA
ATOM     19  N   CYS B   7      -9.009  -4.768  12.305  1.00 49.72 LIG-0.34  N 
ATOM     20 H    CYS B   7      -9.627  -4.458  12.816  1.00 49.72 LIG 0.16  HD
BRANCH 19 21
ATOM     21  CA  CYS B   7      -7.670  -4.187  12.534  1.00 48.85 LIG 0.19  C 
BRANCH 21 22
ATOM     22  C   CYS B   7      -7.176  -3.305  11.389  1.00 48.04 LIG 0.20  C 
ATOM     23 OXT  CYS B   7      -6.046  -3.432  10.921  1.00 47.16 LIG-0.65  OA
ATOM     24 O    CYS B   7      -7.909  -2.444  10.910  1.00 47.51 LIG-0.65  OA
ENDBRANCH 21 22
BRANCH 21 25
ATOM     25  CB  CYS B   7      -6.651  -5.291  12.846  1.00 48.98 LIG 0.11  C 
BRANCH 25 26
ATOM     26 SG   CYS B   7      -7.358  -6.616  13.844  1.00 48.50 LIG-0.18  SA
ATOM     27 HG   CYS B   7      -7.527  -7.588  13.160  1.00 48.50 LIG 0.10  HD
ENDBRANCH 25 26
ENDBRANCH 21 25
ENDBRANCH 19 21
ENDBRANCH 13 17
ENDBRANCH 5 10
ENDBRANCH 3 5
BRANCH 1 28
ATOM     28  CA  SER B   4     -14.961  -8.311  14.103  1.00 57.59 LIG 0.20  C 
BRANCH 28 29
ATOM     29  N   SER B   4     -14.976  -9.729  14.486  1.00 58.14 LIG-0.34  N 
ATOM     30  C   SER B   3     -14.026 -10.272  15.248  1.00 58.75 LIG 0.24  C 
ATOM     31 O    SER B   3     -13.162  -9.596  15.812  1.00 58.75 LIG-0.27  OA
ATOM     32 H    SER B   4     -15.647 -10.170  14.176  1.00 58.14 LIG 0.16  HD
BRANCH 30 33
ATOM     33  CA  SER B   3     -14.063 -11.807  15.418  1.00 59.17 LIG 0.20  C 
BRANCH 33 34
ATOM     34  N   SER B   3     -12.909 -12.435  14.757  1.00 59.50 LIG-0.34  N 
ATOM     35  C   PRO B   2     -12.674 -12.436  13.438  1.00 59.86 LIG 0.25  C 
ATOM     36 O    PRO B   2     -11.731 -13.064  12.944  1.00 59.80 LIG-0.27  OA
ATOM     37 H    SER B   3     -12.377 -12.818  15.315  1.00 59.50 LIG 0.16  HD
BRANCH 35 38
ATOM     38  CA  PRO B   2     -13.602 -11.643  12.503  1.00 60.11 LIG 0.35  C 
ATOM     39  CB  PRO B   2     -14.040 -12.491  11.298  1.00 60.16 LIG 0.05  C 
ATOM     40  CG  PRO B   2     -13.973 -11.581  10.118  1.00 60.30 LIG 0.04  C 
ATOM     41  CD  PRO B   2     -12.894 -10.593  10.410  1.00 60.25 LIG 0.32  C 
ATOM     42  N   PRO B   2     -12.899 -10.511  11.881  1.00 60.27 LIG 0.32  N 
ENDBRANCH 35 38
ENDBRANCH 33 34
BRANCH 33 43
ATOM     43  CB  SER B   3     -14.077 -12.164  16.910  1.00 59.26 LIG 0.20  C 
BRANCH 43 44
ATOM     44 OG   SER B   3     -13.171 -13.219  17.188  1.00 59.53 LIG-0.40  OA
ATOM     45 HG   SER B   3     -12.383 -12.945  17.090  1.00 59.53 LIG 0.21  HD
ENDBRANCH 43 44
ENDBRANCH 33 43
ENDBRANCH 30 33
ENDBRANCH 28 29
BRANCH 28 46
ATOM     46  CB  SER B   4     -15.821  -7.527  15.097  1.00 57.64 LIG 0.20  C 
BRANCH 46 47
ATOM     47 OG   SER B   4     -16.987  -8.261  15.447  1.00 57.32 LIG-0.40  OA
ATOM     48 HG   SER B   4     -17.308  -7.955  16.159  1.00 57.32 LIG 0.21  HD
ENDBRANCH 46 47
ENDBRANCH 28 46
ENDBRANCH 1 28
TORSDOF 18
ENDMDL
MODEL 62
USER: ADFR SOLUTION from run 154
USER: SCORE 13.268189 LL:  -4.364 LR: -11.430 RR:   0.000 FEB:  -6.060
USER: RMSD 11.369905
USER: SEED 153
USER: STATUS no improvement in best in 7 clusters for 5 generations
USER: GENES 20
USER: genes 0 Translation |==|  0.84710 0.62720 0.42159
USER: genes 1 Rotation |==|  0.75455 0.31573 0.87650 0.59744
USER: genes 2 Torsion [C]-N--CA-[CB] |==|  0.87778
USER: genes 3 Torsion [N]-CA--CB-[CG2] |==|  0.53045
USER: genes 4 Torsion [CA]-CB--OG1-[HG1] |==|  0.54958
USER: genes 5 Torsion [N]-CA--C-[N] |==|  0.24473
USER: genes 6 Torsion [N]-CA--C-[O] |==|  0.92637
USER: genes 7 Torsion [C]-N--CA-[CB] |==|  0.81133
USER: genes 8 Torsion [N]-CA--C-[O] |==|  0.68640
USER: genes 9 Torsion [N]-CA--CB-[SG] |==|  0.76311
USER: genes 10 Torsion [CA]-CB--SG-[HG] |==|  0.70273
USER: genes 11 Torsion [N]-C--CA-[N] |==|  0.33141
USER: genes 12 Torsion [C]-CA--N-[C] |==|  0.17065
USER: genes 13 Torsion [N]-C--CA-[N] |==|  0.37685
USER: genes 14 Torsion [C]-CA--N-[C] |==|  0.82721
USER: genes 15 Torsion [N]-C--CA-[N] |==|  0.47403
USER: genes 16 Torsion [C]-CA--CB-[OG] |==|  0.93983
USER: genes 17 Torsion [CA]-CB--OG-[HG] |==|  0.14981
USER: genes 18 Torsion [C]-CA--CB-[OG] |==|  0.57664
USER: genes 19 Torsion [CA]-CB--OG-[HG] |==|  0.84885
ROOT
ATOM      1  C   SER B   4      -9.654  -5.943  13.918  1.00 56.97 LIG 0.24  C 
ATOM      2 O    SER B   4     -10.128  -4.853  13.581  1.00 57.23 LIG-0.27  OA
ATOM      3  N   THR B   5     -10.206  -6.715  14.859  1.00 55.89 LIG-0.34  N 
ATOM      4 H    THR B   5      -9.879  -7.469  15.114  1.00 55.89 LIG 0.16  HD
ENDROOT
BRANCH 3 5
ATOM      5  CA  THR B   5     -11.446  -6.325  15.551  1.00 55.10 LIG 0.20  C 
BRANCH 5 6
ATOM      6  CB  THR B   5     -11.426  -4.811  15.970  1.00 55.33 LIG 0.15  C 
ATOM      7  CG2 THR B   5     -12.582  -4.468  16.918  1.00 55.26 LIG 0.04  C 
BRANCH 6 8
ATOM      8 OG1  THR B   5     -10.177  -4.485  16.606  1.00 55.55 LIG-0.39  OA
ATOM      9 HG1  THR B   5     -10.261  -3.768  17.036  1.00 55.55 LIG 0.21  HD
ENDBRANCH 6 8
ENDBRANCH 5 6
BRANCH 5 10
ATOM     10  C   THR B   5     -12.727  -6.631  14.753  1.00 54.13 LIG 0.24  C 
ATOM     11  N   PRO B   6     -13.279  -7.855  14.909  1.00 52.90 LIG-0.34  N 
ATOM     12  CD  PRO B   6     -12.749  -8.987  15.694  1.00 52.89 LIG 0.13  C 
ATOM     13  CA  PRO B   6     -14.551  -8.189  14.254  1.00 51.99 LIG 0.18  C 
ATOM     14  CG  PRO B   6     -13.705 -10.114  15.393  1.00 52.79 LIG 0.02  C 
ATOM     15  CB  PRO B   6     -14.967  -9.501  14.927  1.00 51.93 LIG 0.04  C 
ATOM     16 O    THR B   5     -13.225  -5.765  14.018  1.00 54.19 LIG-0.27  OA
BRANCH 13 17
ATOM     17  C   PRO B   6     -15.595  -7.105  14.504  1.00 51.04 LIG 0.24  C 
ATOM     18 O    PRO B   6     -15.514  -6.406  15.519  1.00 50.92 LIG-0.27  OA
ATOM     19  N   CYS B   7     -16.559  -6.959  13.594  1.00 49.72 LIG-0.34  N 
ATOM     20 H    CYS B   7     -16.682  -7.493  12.931  1.00 49.72 LIG 0.16  HD
BRANCH 19 21
ATOM     21  CA  CYS B   7     -17.511  -5.832  13.663  1.00 48.85 LIG 0.19  C 
BRANCH 21 22
ATOM     22  C   CYS B   7     -16.845  -4.458  13.656  1.00 48.04 LIG 0.20  C 
ATOM     23 OXT  CYS B   7     -16.249  -4.038  12.666  1.00 47.16 LIG-0.65  OA
ATOM     24 O    CYS B   7     -16.897  -3.740  14.651  1.00 47.51 LIG-0.65  OA
ENDBRANCH 21 22
BRANCH 21 25
ATOM     25  CB  CYS B   7     -18.432  -5.981  14.882  1.00 48.98 LIG 0.11  C 
BRANCH 25 26
ATOM     26 SG   CYS B   7     -19.863  -7.024  14.539  1.00 48.50 LIG-0.18  SA
ATOM     27 HG   CYS B   7     -20.846  -6.340  14.457  1.00 48.50 LIG 0.10  HD
ENDBRANCH 25 26
ENDBRANCH 21 25
ENDBRANCH 19 21
ENDBRANCH 13 17
ENDBRANCH 5 10
ENDBRANCH 3 5
BRANCH 1 28
ATOM     28  CA  SER B   4      -8.371  -6.464  13.258  1.00 57.59 LIG 0.20  C 
BRANCH 28 29
ATOM     29  N   SER B   4      -8.519  -6.657  11.810  1.00 58.14 LIG-0.34  N 
ATOM     30  C   SER B   3      -8.803  -5.652  10.981  1.00 58.75 LIG 0.24  C 
ATOM     31 O    SER B   3      -8.805  -4.473  11.345  1.00 58.75 LIG-0.27  OA
ATOM     32 H    SER B   4      -8.406  -7.470  11.551  1.00 58.14 LIG 0.16  HD
BRANCH 30 33
ATOM     33  CA  SER B   3      -9.115  -6.024   9.516  1.00 59.17 LIG 0.20  C 
BRANCH 33 34
ATOM     34  N   SER B   3     -10.287  -5.284   9.024  1.00 59.50 LIG-0.34  N 
ATOM     35  C   PRO B   2     -11.529  -5.375   9.520  1.00 59.86 LIG 0.25  C 
ATOM     36 O    PRO B   2     -12.485  -4.791   8.997  1.00 59.80 LIG-0.27  OA
ATOM     37 H    SER B   3     -10.097  -4.766   8.364  1.00 59.50 LIG 0.16  HD
BRANCH 35 38
ATOM     38  CA  PRO B   2     -11.784  -6.234  10.770  1.00 60.11 LIG 0.35  C 
ATOM     39  CB  PRO B   2     -11.749  -7.734  10.436  1.00 60.16 LIG 0.05  C 
ATOM     40  CG  PRO B   2     -12.879  -8.343  11.196  1.00 60.30 LIG 0.04  C 
ATOM     41  CD  PRO B   2     -13.925  -7.286  11.315  1.00 60.25 LIG 0.32  C 
ATOM     42  N   PRO B   2     -13.146  -6.035  11.289  1.00 60.27 LIG 0.32  N 
ENDBRANCH 35 38
ENDBRANCH 33 34
BRANCH 33 43
ATOM     43  CB  SER B   3      -7.896  -5.729   8.634  1.00 59.26 LIG 0.20  C 
BRANCH 43 44
ATOM     44 OG   SER B   3      -7.042  -4.779   9.249  1.00 59.53 LIG-0.40  OA
ATOM     45 HG   SER B   3      -6.842  -5.041  10.021  1.00 59.53 LIG 0.21  HD
ENDBRANCH 43 44
ENDBRANCH 33 43
ENDBRANCH 30 33
ENDBRANCH 28 29
BRANCH 28 46
ATOM     46  CB  SER B   4      -7.221  -5.484  13.506  1.00 57.64 LIG 0.20  C 
BRANCH 46 47
ATOM     47 OG   SER B   4      -6.259  -5.560  12.463  1.00 57.32 LIG-0.40  OA
ATOM     48 HG   SER B   4      -6.003  -6.354  12.374  1.00 57.32 LIG 0.21  HD
ENDBRANCH 46 47
ENDBRANCH 28 46
ENDBRANCH 1 28
TORSDOF 18
ENDMDL
MODEL 63
USER: ADFR SOLUTION from run 1
USER: SCORE 13.310225 LL:  -2.667 LR: -11.420 RR:   0.000 FEB:  -6.050
USER: RMSD 5.319589
USER: SEED 448738
USER: STATUS no improvement in best in 5 clusters for 5 generations
USER: GENES 20
USER: genes 0 Translation |==|  0.59978 0.54122 0.44185
USER: genes 1 Rotation |==|  0.58140 0.33541 0.39343 0.95269
USER: genes 2 Torsion [C]-N--CA-[CB] |==|  0.76365
USER: genes 3 Torsion [N]-CA--CB-[CG2] |==|  0.20082
USER: genes 4 Torsion [CA]-CB--OG1-[HG1] |==|  0.20208
USER: genes 5 Torsion [N]-CA--C-[N] |==|  0.14177
USER: genes 6 Torsion [N]-CA--C-[O] |==|  0.85819
USER: genes 7 Torsion [C]-N--CA-[CB] |==|  0.22057
USER: genes 8 Torsion [N]-CA--C-[O] |==|  0.28588
USER: genes 9 Torsion [N]-CA--CB-[SG] |==|  0.57886
USER: genes 10 Torsion [CA]-CB--SG-[HG] |==|  0.71746
USER: genes 11 Torsion [N]-C--CA-[N] |==|  0.48086
USER: genes 12 Torsion [C]-CA--N-[C] |==|  0.73184
USER: genes 13 Torsion [N]-C--CA-[N] |==|  0.37925
USER: genes 14 Torsion [C]-CA--N-[C] |==|  0.70893
USER: genes 15 Torsion [N]-C--CA-[N] |==|  0.14134
USER: genes 16 Torsion [C]-CA--CB-[OG] |==|  0.58789
USER: genes 17 Torsion [CA]-CB--OG-[HG] |==|  0.66774
USER: genes 18 Torsion [C]-CA--CB-[OG] |==|  0.42312
USER: genes 19 Torsion [CA]-CB--OG-[HG] |==|  0.80807
ROOT
ATOM      1  C   SER B   4     -16.702  -7.233  14.206  1.00 56.97 LIG 0.24  C 
ATOM      2 O    SER B   4     -16.129  -7.184  13.113  1.00 57.23 LIG-0.27  OA
ATOM      3  N   THR B   5     -16.050  -7.404  15.360  1.00 55.89 LIG-0.34  N 
ATOM      4 H    THR B   5     -16.436  -7.454  16.127  1.00 55.89 LIG 0.16  HD
ENDROOT
BRANCH 3 5
ATOM      5  CA  THR B   5     -14.583  -7.524  15.410  1.00 55.10 LIG 0.20  C 
BRANCH 5 6
ATOM      6  CB  THR B   5     -14.112  -9.001  15.155  1.00 55.33 LIG 0.15  C 
ATOM      7  CG2 THR B   5     -14.289  -9.408  13.686  1.00 55.26 LIG 0.04  C 
BRANCH 6 8
ATOM      8 OG1  THR B   5     -12.732  -9.157  15.528  1.00 55.55 LIG-0.39  OA
ATOM      9 HG1  THR B   5     -12.665  -9.149  16.365  1.00 55.55 LIG 0.21  HD
ENDBRANCH 6 8
ENDBRANCH 5 6
BRANCH 5 10
ATOM     10  C   THR B   5     -13.848  -6.567  14.454  1.00 54.13 LIG 0.24  C 
ATOM     11  N   PRO B   6     -14.184  -5.258  14.505  1.00 52.90 LIG-0.34  N 
ATOM     12  CD  PRO B   6     -15.250  -4.634  15.312  1.00 52.89 LIG 0.13  C 
ATOM     13  CA  PRO B   6     -13.462  -4.270  13.691  1.00 51.99 LIG 0.18  C 
ATOM     14  CG  PRO B   6     -15.248  -3.194  14.863  1.00 52.79 LIG 0.02  C 
ATOM     15  CB  PRO B   6     -13.921  -2.927  14.268  1.00 51.93 LIG 0.04  C 
ATOM     16 O    THR B   5     -12.970  -6.999  13.692  1.00 54.19 LIG-0.27  OA
BRANCH 13 17
ATOM     17  C   PRO B   6     -11.953  -4.432  13.847  1.00 51.04 LIG 0.24  C 
ATOM     18 O    PRO B   6     -11.460  -4.476  14.979  1.00 50.92 LIG-0.27  OA
ATOM     19  N   CYS B   7     -11.227  -4.526  12.732  1.00 49.72 LIG-0.34  N 
ATOM     20 H    CYS B   7     -11.541  -4.407  11.940  1.00 49.72 LIG 0.16  HD
BRANCH 19 21
ATOM     21  CA  CYS B   7      -9.787  -4.851  12.782  1.00 48.85 LIG 0.19  C 
BRANCH 21 22
ATOM     22  C   CYS B   7      -8.999  -4.355  11.572  1.00 48.04 LIG 0.20  C 
ATOM     23 OXT  CYS B   7      -9.047  -4.937  10.490  1.00 47.16 LIG-0.65  OA
ATOM     24 O    CYS B   7      -8.296  -3.352  11.661  1.00 47.51 LIG-0.65  OA
ENDBRANCH 21 22
BRANCH 21 25
ATOM     25  CB  CYS B   7      -9.583  -6.360  12.980  1.00 48.98 LIG 0.11  C 
BRANCH 25 26
ATOM     26 SG   CYS B   7      -8.042  -6.737  13.837  1.00 48.50 LIG-0.18  SA
ATOM     27 HG   CYS B   7      -7.220  -7.101  13.042  1.00 48.50 LIG 0.10  HD
ENDBRANCH 25 26
ENDBRANCH 21 25
ENDBRANCH 19 21
ENDBRANCH 13 17
ENDBRANCH 5 10
ENDBRANCH 3 5
BRANCH 1 28
ATOM     28  CA  SER B   4     -18.228  -7.106  14.284  1.00 57.59 LIG 0.20  C 
BRANCH 28 29
ATOM     29  N   SER B   4     -18.833  -6.761  12.991  1.00 58.14 LIG-0.34  N 
ATOM     30  C   SER B   3     -19.141  -5.507  12.660  1.00 58.75 LIG 0.24  C 
ATOM     31 O    SER B   3     -18.796  -4.538  13.341  1.00 58.75 LIG-0.27  OA
ATOM     32 H    SER B   4     -18.968  -7.436  12.475  1.00 58.14 LIG 0.16  HD
BRANCH 30 33
ATOM     33  CA  SER B   3     -19.940  -5.307  11.353  1.00 59.17 LIG 0.20  C 
BRANCH 33 34
ATOM     34  N   SER B   3     -21.017  -4.324  11.542  1.00 59.50 LIG-0.34  N 
ATOM     35  C   PRO B   2     -22.320  -4.612  11.660  1.00 59.86 LIG 0.25  C 
ATOM     36 O    PRO B   2     -23.181  -3.726  11.724  1.00 59.80 LIG-0.27  OA
ATOM     37 H    SER B   3     -20.724  -3.515  11.571  1.00 59.50 LIG 0.16  HD
BRANCH 35 38
ATOM     38  CA  PRO B   2     -22.771  -6.081  11.709  1.00 60.11 LIG 0.35  C 
ATOM     39  CB  PRO B   2     -24.223  -6.206  12.196  1.00 60.16 LIG 0.05  C 
ATOM     40  CG  PRO B   2     -24.237  -7.370  13.129  1.00 60.30 LIG 0.04  C 
ATOM     41  CD  PRO B   2     -22.880  -7.431  13.747  1.00 60.25 LIG 0.32  C 
ATOM     42  N   PRO B   2     -22.011  -6.842  12.713  1.00 60.27 LIG 0.32  N 
ENDBRANCH 35 38
ENDBRANCH 33 34
BRANCH 33 43
ATOM     43  CB  SER B   3     -18.998  -4.851  10.232  1.00 59.26 LIG 0.20  C 
BRANCH 43 44
ATOM     44 OG   SER B   3     -19.671  -4.003   9.316  1.00 59.53 LIG-0.40  OA
ATOM     45 HG   SER B   3     -19.656  -4.349   8.552  1.00 59.53 LIG 0.21  HD
ENDBRANCH 43 44
ENDBRANCH 33 43
ENDBRANCH 30 33
ENDBRANCH 28 29
BRANCH 28 46
ATOM     46  CB  SER B   4     -18.838  -8.422  14.774  1.00 57.64 LIG 0.20  C 
BRANCH 46 47
ATOM     47 OG   SER B   4     -20.068  -8.190  15.446  1.00 57.32 LIG-0.40  OA
ATOM     48 HG   SER B   4     -19.921  -7.797  16.173  1.00 57.32 LIG 0.21  HD
ENDBRANCH 46 47
ENDBRANCH 28 46
ENDBRANCH 1 28
TORSDOF 18
ENDMDL
MODEL 64
USER: ADFR SOLUTION from run 84
USER: SCORE 12.276772 LL:  -2.527 LR: -11.418 RR:   0.000 FEB:  -6.049
USER: RMSD 7.041923
USER: SEED 83
USER: STATUS no improvement in best in 4 clusters for 5 generations
USER: GENES 20
USER: genes 0 Translation |==|  0.68209 0.65101 0.48046
USER: genes 1 Rotation |==|  0.02484 0.45053 0.55649 0.63634
USER: genes 2 Torsion [C]-N--CA-[CB] |==|  0.23333
USER: genes 3 Torsion [N]-CA--CB-[CG2] |==|  0.79699
USER: genes 4 Torsion [CA]-CB--OG1-[HG1] |==|  0.67240
USER: genes 5 Torsion [N]-CA--C-[N] |==|  0.49362
USER: genes 6 Torsion [N]-CA--C-[O] |==|  0.35486
USER: genes 7 Torsion [C]-N--CA-[CB] |==|  0.52726
USER: genes 8 Torsion [N]-CA--C-[O] |==|  0.84331
USER: genes 9 Torsion [N]-CA--CB-[SG] |==|  0.94737
USER: genes 10 Torsion [CA]-CB--SG-[HG] |==|  0.73804
USER: genes 11 Torsion [N]-C--CA-[N] |==|  0.35567
USER: genes 12 Torsion [C]-CA--N-[C] |==|  0.86031
USER: genes 13 Torsion [N]-C--CA-[N] |==|  0.99574
USER: genes 14 Torsion [C]-CA--N-[C] |==|  0.59130
USER: genes 15 Torsion [N]-C--CA-[N] |==|  0.15165
USER: genes 16 Torsion [C]-CA--CB-[OG] |==|  0.69084
USER: genes 17 Torsion [CA]-CB--OG-[HG] |==|  0.53622
USER: genes 18 Torsion [C]-CA--CB-[OG] |==|  0.09294
USER: genes 19 Torsion [CA]-CB--OG-[HG] |==|  0.36653
ROOT
ATOM      1  C   SER B   4     -14.356  -5.586  14.757  1.00 56.97 LIG 0.24  C 
ATOM      2 O    SER B   4     -14.266  -5.997  15.917  1.00 57.23 LIG-0.27  OA
ATOM      3  N   THR B   5     -13.313  -5.531  13.923  1.00 55.89 LIG-0.34  N 
ATOM      4 H    THR B   5     -13.358  -5.234  13.117  1.00 55.89 LIG 0.16  HD
ENDROOT
BRANCH 3 5
ATOM      5  CA  THR B   5     -11.973  -5.986  14.329  1.00 55.10 LIG 0.20  C 
BRANCH 5 6
ATOM      6  CB  THR B   5     -11.808  -7.538  14.152  1.00 55.33 LIG 0.15  C 
ATOM      7  CG2 THR B   5     -12.588  -8.318  15.219  1.00 55.26 LIG 0.04  C 
BRANCH 6 8
ATOM      8 OG1  THR B   5     -12.255  -7.943  12.847  1.00 55.55 LIG-0.39  OA
ATOM      9 HG1  THR B   5     -12.904  -8.471  12.924  1.00 55.55 LIG 0.21  HD
ENDBRANCH 6 8
ENDBRANCH 5 6
BRANCH 5 10
ATOM     10  C   THR B   5     -10.823  -5.251  13.614  1.00 54.13 LIG 0.24  C 
ATOM     11  N   PRO B   6      -9.560  -5.580  13.969  1.00 52.90 LIG-0.34  N 
ATOM     12  CD  PRO B   6      -9.138  -6.505  15.038  1.00 52.89 LIG 0.13  C 
ATOM     13  CA  PRO B   6      -8.411  -4.991  13.267  1.00 51.99 LIG 0.18  C 
ATOM     14  CG  PRO B   6      -7.636  -6.371  15.059  1.00 52.79 LIG 0.02  C 
ATOM     15  CB  PRO B   6      -7.228  -5.841  13.741  1.00 51.93 LIG 0.04  C 
ATOM     16 O    THR B   5     -11.070  -4.412  12.736  1.00 54.19 LIG-0.27  OA
BRANCH 13 17
ATOM     17  C   PRO B   6      -8.580  -5.103  11.755  1.00 51.04 LIG 0.24  C 
ATOM     18 O    PRO B   6      -8.461  -4.094  11.053  1.00 50.92 LIG-0.27  OA
ATOM     19  N   CYS B   7      -8.847  -6.311  11.255  1.00 49.72 LIG-0.34  N 
ATOM     20 H    CYS B   7      -9.022  -7.004  11.733  1.00 49.72 LIG 0.16  HD
BRANCH 19 21
ATOM     21  CA  CYS B   7      -8.861  -6.549   9.798  1.00 48.85 LIG 0.19  C 
BRANCH 21 22
ATOM     22  C   CYS B   7      -9.602  -5.475   9.003  1.00 48.04 LIG 0.20  C 
ATOM     23 OXT  CYS B   7      -9.054  -4.855   8.095  1.00 47.16 LIG-0.65  OA
ATOM     24 O    CYS B   7     -10.773  -5.212   9.262  1.00 47.51 LIG-0.65  OA
ENDBRANCH 21 22
BRANCH 21 25
ATOM     25  CB  CYS B   7      -9.428  -7.941   9.485  1.00 48.98 LIG 0.11  C 
BRANCH 25 26
ATOM     26 SG   CYS B   7      -9.385  -9.037  10.917  1.00 48.50 LIG-0.18  SA
ATOM     27 HG   CYS B   7      -8.381  -9.694  10.889  1.00 48.50 LIG 0.10  HD
ENDBRANCH 25 26
ENDBRANCH 21 25
ENDBRANCH 19 21
ENDBRANCH 13 17
ENDBRANCH 5 10
ENDBRANCH 3 5
BRANCH 1 28
ATOM     28  CA  SER B   4     -15.705  -5.097  14.213  1.00 57.59 LIG 0.20  C 
BRANCH 28 29
ATOM     29  N   SER B   4     -16.780  -6.079  14.407  1.00 58.14 LIG-0.34  N 
ATOM     30  C   SER B   3     -16.654  -7.356  14.046  1.00 58.75 LIG 0.24  C 
ATOM     31 O    SER B   3     -15.580  -7.837  13.676  1.00 58.75 LIG-0.27  OA
ATOM     32 H    SER B   4     -17.490  -5.755  14.770  1.00 58.14 LIG 0.16  HD
BRANCH 30 33
ATOM     33  CA  SER B   3     -17.922  -8.233  14.133  1.00 59.17 LIG 0.20  C 
BRANCH 33 34
ATOM     34  N   SER B   3     -19.060  -7.460  14.653  1.00 59.50 LIG-0.34  N 
ATOM     35  C   PRO B   2     -20.050  -7.948  15.412  1.00 59.86 LIG 0.25  C 
ATOM     36 O    PRO B   2     -21.025  -7.260  15.736  1.00 59.80 LIG-0.27  OA
ATOM     37 H    SER B   3     -19.032  -6.633  14.417  1.00 59.50 LIG 0.16  HD
BRANCH 35 38
ATOM     38  CA  PRO B   2     -19.989  -9.408  15.890  1.00 60.11 LIG 0.35  C 
ATOM     39  CB  PRO B   2     -21.064  -9.697  16.950  1.00 60.16 LIG 0.05  C 
ATOM     40  CG  PRO B   2     -20.395 -10.536  17.986  1.00 60.30 LIG 0.04  C 
ATOM     41  CD  PRO B   2     -18.957 -10.138  17.985  1.00 60.25 LIG 0.32  C 
ATOM     42  N   PRO B   2     -18.731  -9.688  16.601  1.00 60.27 LIG 0.32  N 
ENDBRANCH 35 38
ENDBRANCH 33 34
BRANCH 33 43
ATOM     43  CB  SER B   3     -18.257  -8.801  12.749  1.00 59.26 LIG 0.20  C 
BRANCH 43 44
ATOM     44 OG   SER B   3     -19.450  -8.227  12.239  1.00 59.53 LIG-0.40  OA
ATOM     45 HG   SER B   3     -19.712  -8.669  11.576  1.00 59.53 LIG 0.21  HD
ENDBRANCH 43 44
ENDBRANCH 33 43
ENDBRANCH 30 33
ENDBRANCH 28 29
BRANCH 28 46
ATOM     46  CB  SER B   4     -16.104  -3.791  14.904  1.00 57.64 LIG 0.20  C 
BRANCH 46 47
ATOM     47 OG   SER B   4     -14.957  -3.010  15.211  1.00 57.32 LIG-0.40  OA
ATOM     48 HG   SER B   4     -15.081  -2.219  14.960  1.00 57.32 LIG 0.21  HD
ENDBRANCH 46 47
ENDBRANCH 28 46
ENDBRANCH 1 28
TORSDOF 18
ENDMDL
MODEL 65
USER: ADFR SOLUTION from run 41
USER: SCORE 13.530024 LL:  -2.772 LR: -11.409 RR:   0.000 FEB:  -6.039
USER: RMSD 6.535482
USER: SEED 40
USER: STATUS no improvement in best in 9 clusters for 5 generations
USER: GENES 20
USER: genes 0 Translation |==|  0.67223 0.60574 0.49837
USER: genes 1 Rotation |==|  0.97592 0.58534 0.38557 0.55592
USER: genes 2 Torsion [C]-N--CA-[CB] |==|  0.16813
USER: genes 3 Torsion [N]-CA--CB-[CG2] |==|  0.71129
USER: genes 4 Torsion [CA]-CB--OG1-[HG1] |==|  0.57400
USER: genes 5 Torsion [N]-CA--C-[N] |==|  0.13297
USER: genes 6 Torsion [N]-CA--C-[O] |==|  0.42782
USER: genes 7 Torsion [C]-N--CA-[CB] |==|  0.83339
USER: genes 8 Torsion [N]-CA--C-[O] |==|  0.62753
USER: genes 9 Torsion [N]-CA--CB-[SG] |==|  0.91595
USER: genes 10 Torsion [CA]-CB--SG-[HG] |==|  0.31813
USER: genes 11 Torsion [N]-C--CA-[N] |==|  0.29744
USER: genes 12 Torsion [C]-CA--N-[C] |==|  0.73524
USER: genes 13 Torsion [N]-C--CA-[N] |==|  0.29294
USER: genes 14 Torsion [C]-CA--N-[C] |==|  0.66546
USER: genes 15 Torsion [N]-C--CA-[N] |==|  0.43479
USER: genes 16 Torsion [C]-CA--CB-[OG] |==|  0.58007
USER: genes 17 Torsion [CA]-CB--OG-[HG] |==|  0.72842
USER: genes 18 Torsion [C]-CA--CB-[OG] |==|  0.62141
USER: genes 19 Torsion [CA]-CB--OG-[HG] |==|  0.10010
ROOT
ATOM      1  C   SER B   4     -14.637  -6.265  15.012  1.00 56.97 LIG 0.24  C 
ATOM      2 O    SER B   4     -14.438  -5.724  16.104  1.00 57.23 LIG-0.27  OA
ATOM      3  N   THR B   5     -13.651  -6.571  14.163  1.00 55.89 LIG-0.34  N 
ATOM      4 H    THR B   5     -13.775  -6.934  13.394  1.00 55.89 LIG 0.16  HD
ENDROOT
BRANCH 3 5
ATOM      5  CA  THR B   5     -12.240  -6.302  14.487  1.00 55.10 LIG 0.20  C 
BRANCH 5 6
ATOM      6  CB  THR B   5     -11.783  -7.073  15.778  1.00 55.33 LIG 0.15  C 
ATOM      7  CG2 THR B   5     -11.688  -6.141  16.993  1.00 55.26 LIG 0.04  C 
BRANCH 6 8
ATOM      8 OG1  THR B   5     -12.699  -8.143  16.071  1.00 55.55 LIG-0.39  OA
ATOM      9 HG1  THR B   5     -12.685  -8.307  16.895  1.00 55.55 LIG 0.21  HD
ENDBRANCH 6 8
ENDBRANCH 5 6
BRANCH 5 10
ATOM     10  C   THR B   5     -11.268  -6.596  13.329  1.00 54.13 LIG 0.24  C 
ATOM     11  N   PRO B   6     -11.588  -6.108  12.110  1.00 52.90 LIG-0.34  N 
ATOM     12  CD  PRO B   6     -12.819  -5.391  11.723  1.00 52.89 LIG 0.13  C 
ATOM     13  CA  PRO B   6     -10.666  -6.267  10.977  1.00 51.99 LIG 0.18  C 
ATOM     14  CG  PRO B   6     -12.680  -5.214  10.231  1.00 52.79 LIG 0.02  C 
ATOM     15  CB  PRO B   6     -11.241  -5.326   9.912  1.00 51.93 LIG 0.04  C 
ATOM     16 O    THR B   5     -10.229  -7.240  13.536  1.00 54.19 LIG-0.27  OA
BRANCH 13 17
ATOM     17  C   PRO B   6      -9.252  -5.842  11.360  1.00 51.04 LIG 0.24  C 
ATOM     18 O    PRO B   6      -8.288  -6.328  10.760  1.00 50.92 LIG-0.27  OA
ATOM     19  N   CYS B   7      -9.125  -4.945  12.339  1.00 49.72 LIG-0.34  N 
ATOM     20 H    CYS B   7      -9.776  -4.666  12.826  1.00 49.72 LIG 0.16  HD
BRANCH 19 21
ATOM     21  CA  CYS B   7      -7.813  -4.350  12.665  1.00 48.85 LIG 0.19  C 
BRANCH 21 22
ATOM     22  C   CYS B   7      -7.234  -3.482  11.549  1.00 48.04 LIG 0.20  C 
ATOM     23 OXT  CYS B   7      -7.920  -2.651  10.959  1.00 47.16 LIG-0.65  OA
ATOM     24 O    CYS B   7      -6.057  -3.602  11.221  1.00 47.51 LIG-0.65  OA
ENDBRANCH 21 22
BRANCH 21 25
ATOM     25  CB  CYS B   7      -6.815  -5.441  13.075  1.00 48.98 LIG 0.11  C 
BRANCH 25 26
ATOM     26 SG   CYS B   7      -7.621  -6.848  13.865  1.00 48.50 LIG-0.18  SA
ATOM     27 HG   CYS B   7      -7.499  -7.821  13.173  1.00 48.50 LIG 0.10  HD
ENDBRANCH 25 26
ENDBRANCH 21 25
ENDBRANCH 19 21
ENDBRANCH 13 17
ENDBRANCH 5 10
ENDBRANCH 3 5
BRANCH 1 28
ATOM     28  CA  SER B   4     -16.065  -6.607  14.568  1.00 57.59 LIG 0.20  C 
BRANCH 28 29
ATOM     29  N   SER B   4     -16.622  -7.755  15.295  1.00 58.14 LIG-0.34  N 
ATOM     30  C   SER B   3     -16.573  -8.997  14.814  1.00 58.75 LIG 0.24  C 
ATOM     31 O    SER B   3     -15.921  -9.293  13.809  1.00 58.75 LIG-0.27  OA
ATOM     32 H    SER B   4     -16.979  -7.552  16.051  1.00 58.14 LIG 0.16  HD
BRANCH 30 33
ATOM     33  CA  SER B   3     -17.359 -10.077  15.589  1.00 59.17 LIG 0.20  C 
BRANCH 33 34
ATOM     34  N   SER B   3     -18.585 -10.451  14.868  1.00 59.50 LIG-0.34  N 
ATOM     35  C   PRO B   2     -19.832 -10.336  15.345  1.00 59.86 LIG 0.25  C 
ATOM     36 O    PRO B   2     -20.811 -10.757  14.719  1.00 59.80 LIG-0.27  OA
ATOM     37 H    SER B   3     -18.425 -10.763  14.083  1.00 59.50 LIG 0.16  HD
BRANCH 35 38
ATOM     38  CA  PRO B   2     -20.063  -9.672  16.713  1.00 60.11 LIG 0.35  C 
ATOM     39  CB  PRO B   2     -19.989 -10.698  17.854  1.00 60.16 LIG 0.05  C 
ATOM     40  CG  PRO B   2     -21.100 -10.348  18.785  1.00 60.30 LIG 0.04  C 
ATOM     41  CD  PRO B   2     -22.174  -9.737  17.948  1.00 60.25 LIG 0.32  C 
ATOM     42  N   PRO B   2     -21.429  -9.138  16.827  1.00 60.27 LIG 0.32  N 
ENDBRANCH 35 38
ENDBRANCH 33 34
BRANCH 33 43
ATOM     43  CB  SER B   3     -16.474 -11.311  15.802  1.00 59.26 LIG 0.20  C 
BRANCH 43 44
ATOM     44 OG   SER B   3     -17.258 -12.490  15.882  1.00 59.53 LIG-0.40  OA
ATOM     45 HG   SER B   3     -17.383 -12.689  16.688  1.00 59.53 LIG 0.21  HD
ENDBRANCH 43 44
ENDBRANCH 33 43
ENDBRANCH 30 33
ENDBRANCH 28 29
BRANCH 28 46
ATOM     46  CB  SER B   4     -16.982  -5.400  14.782  1.00 57.64 LIG 0.20  C 
BRANCH 46 47
ATOM     47 OG   SER B   4     -18.219  -5.801  15.355  1.00 57.32 LIG-0.40  OA
ATOM     48 HG   SER B   4     -18.086  -6.429  15.897  1.00 57.32 LIG 0.21  HD
ENDBRANCH 46 47
ENDBRANCH 28 46
ENDBRANCH 1 28
TORSDOF 18
ENDMDL
MODEL 66
USER: ADFR SOLUTION from run 182
USER: SCORE 13.235161 LL:  -2.699 LR: -11.377 RR:   0.000 FEB:  -6.007
USER: RMSD 5.276318
USER: SEED 181
USER: STATUS no improvement in best in 7 clusters for 5 generations
USER: GENES 20
USER: genes 0 Translation |==|  0.58373 0.65301 0.43616
USER: genes 1 Rotation |==|  0.70312 0.51219 0.49901 0.95672
USER: genes 2 Torsion [C]-N--CA-[CB] |==|  0.16111
USER: genes 3 Torsion [N]-CA--CB-[CG2] |==|  0.18669
USER: genes 4 Torsion [CA]-CB--OG1-[HG1] |==|  0.68320
USER: genes 5 Torsion [N]-CA--C-[N] |==|  0.12170
USER: genes 6 Torsion [N]-CA--C-[O] |==|  0.35760
USER: genes 7 Torsion [C]-N--CA-[CB] |==|  0.21533
USER: genes 8 Torsion [N]-CA--C-[O] |==|  0.44291
USER: genes 9 Torsion [N]-CA--CB-[SG] |==|  0.11125
USER: genes 10 Torsion [CA]-CB--SG-[HG] |==|  0.76201
USER: genes 11 Torsion [N]-C--CA-[N] |==|  0.53549
USER: genes 12 Torsion [C]-CA--N-[C] |==|  0.55270
USER: genes 13 Torsion [N]-C--CA-[N] |==|  0.28978
USER: genes 14 Torsion [C]-CA--N-[C] |==|  0.69036
USER: genes 15 Torsion [N]-C--CA-[N] |==|  0.85423
USER: genes 16 Torsion [C]-CA--CB-[OG] |==|  0.27953
USER: genes 17 Torsion [CA]-CB--OG-[HG] |==|  0.66638
USER: genes 18 Torsion [C]-CA--CB-[OG] |==|  0.46959
USER: genes 19 Torsion [CA]-CB--OG-[HG] |==|  0.92587
ROOT
ATOM      1  C   SER B   4     -17.160  -5.556  14.125  1.00 56.97 LIG 0.24  C 
ATOM      2 O    SER B   4     -17.420  -4.862  13.138  1.00 57.23 LIG-0.27  OA
ATOM      3  N   THR B   5     -15.986  -5.500  14.762  1.00 55.89 LIG-0.34  N 
ATOM      4 H    THR B   5     -15.785  -5.988  15.442  1.00 55.89 LIG 0.16  HD
ENDROOT
BRANCH 3 5
ATOM      5  CA  THR B   5     -14.918  -4.579  14.339  1.00 55.10 LIG 0.20  C 
BRANCH 5 6
ATOM      6  CB  THR B   5     -15.400  -3.084  14.357  1.00 55.33 LIG 0.15  C 
ATOM      7  CG2 THR B   5     -15.675  -2.593  15.785  1.00 55.26 LIG 0.04  C 
BRANCH 6 8
ATOM      8 OG1  THR B   5     -14.414  -2.234  13.745  1.00 55.55 LIG-0.39  OA
ATOM      9 HG1  THR B   5     -14.092  -1.717  14.323  1.00 55.55 LIG 0.21  HD
ENDBRANCH 6 8
ENDBRANCH 5 6
BRANCH 5 10
ATOM     10  C   THR B   5     -13.616  -4.720  15.150  1.00 54.13 LIG 0.24  C 
ATOM     11  N   PRO B   6     -13.179  -5.973  15.410  1.00 52.90 LIG-0.34  N 
ATOM     12  CD  PRO B   6     -13.852  -7.246  15.086  1.00 52.89 LIG 0.13  C 
ATOM     13  CA  PRO B   6     -11.898  -6.188  16.097  1.00 51.99 LIG 0.18  C 
ATOM     14  CG  PRO B   6     -12.975  -8.292  15.729  1.00 52.79 LIG 0.02  C 
ATOM     15  CB  PRO B   6     -11.638  -7.687  15.909  1.00 51.93 LIG 0.04  C 
ATOM     16 O    THR B   5     -13.000  -3.711  15.519  1.00 54.19 LIG-0.27  OA
BRANCH 13 17
ATOM     17  C   PRO B   6     -10.787  -5.367  15.450  1.00 51.04 LIG 0.24  C 
ATOM     18 O    PRO B   6     -10.074  -4.647  16.155  1.00 50.92 LIG-0.27  OA
ATOM     19  N   CYS B   7     -10.635  -5.474  14.129  1.00 49.72 LIG-0.34  N 
ATOM     20 H    CYS B   7     -11.177  -5.897  13.613  1.00 49.72 LIG 0.16  HD
BRANCH 19 21
ATOM     21  CA  CYS B   7      -9.487  -4.851  13.439  1.00 48.85 LIG 0.19  C 
BRANCH 21 22
ATOM     22  C   CYS B   7      -9.727  -4.587  11.954  1.00 48.04 LIG 0.20  C 
ATOM     23 OXT  CYS B   7     -10.599  -5.185  11.327  1.00 47.16 LIG-0.65  OA
ATOM     24 O    CYS B   7      -9.045  -3.760  11.355  1.00 47.51 LIG-0.65  OA
ENDBRANCH 21 22
BRANCH 21 25
ATOM     25  CB  CYS B   7      -8.218  -5.691  13.641  1.00 48.98 LIG 0.11  C 
BRANCH 25 26
ATOM     26 SG   CYS B   7      -8.545  -7.462  13.543  1.00 48.50 LIG-0.18  SA
ATOM     27 HG   CYS B   7      -8.893  -7.865  14.619  1.00 48.50 LIG 0.10  HD
ENDBRANCH 25 26
ENDBRANCH 21 25
ENDBRANCH 19 21
ENDBRANCH 13 17
ENDBRANCH 5 10
ENDBRANCH 3 5
BRANCH 1 28
ATOM     28  CA  SER B   4     -18.198  -6.544  14.669  1.00 57.59 LIG 0.20  C 
BRANCH 28 29
ATOM     29  N   SER B   4     -19.320  -6.751  13.744  1.00 58.14 LIG-0.34  N 
ATOM     30  C   SER B   3     -20.488  -7.256  14.141  1.00 58.75 LIG 0.24  C 
ATOM     31 O    SER B   3     -20.763  -7.435  15.331  1.00 58.75 LIG-0.27  OA
ATOM     32 H    SER B   4     -19.154  -6.517  12.933  1.00 58.14 LIG 0.16  HD
BRANCH 30 33
ATOM     33  CA  SER B   3     -21.513  -7.593  13.036  1.00 59.17 LIG 0.20  C 
BRANCH 33 34
ATOM     34  N   SER B   3     -21.579  -9.045  12.808  1.00 59.50 LIG-0.34  N 
ATOM     35  C   PRO B   2     -21.160  -9.678  11.704  1.00 59.86 LIG 0.25  C 
ATOM     36 O    PRO B   2     -21.332 -10.892  11.543  1.00 59.80 LIG-0.27  OA
ATOM     37 H    SER B   3     -21.924  -9.468  13.473  1.00 59.50 LIG 0.16  HD
BRANCH 35 38
ATOM     38  CA  PRO B   2     -20.453  -8.881  10.595  1.00 60.11 LIG 0.35  C 
ATOM     39  CB  PRO B   2     -19.143  -8.256  11.102  1.00 60.16 LIG 0.05  C 
ATOM     40  CG  PRO B   2     -19.103  -6.881  10.527  1.00 60.30 LIG 0.04  C 
ATOM     41  CD  PRO B   2     -20.522  -6.445  10.379  1.00 60.25 LIG 0.32  C 
ATOM     42  N   PRO B   2     -21.247  -7.713  10.184  1.00 60.27 LIG 0.32  N 
ENDBRANCH 35 38
ENDBRANCH 33 34
BRANCH 33 43
ATOM     43  CB  SER B   3     -22.895  -7.056  13.428  1.00 59.26 LIG 0.20  C 
BRANCH 43 44
ATOM     44 OG   SER B   3     -23.176  -5.840  12.755  1.00 59.53 LIG-0.40  OA
ATOM     45 HG   SER B   3     -23.302  -5.231  13.319  1.00 59.53 LIG 0.21  HD
ENDBRANCH 43 44
ENDBRANCH 33 43
ENDBRANCH 30 33
ENDBRANCH 28 29
BRANCH 28 46
ATOM     46  CB  SER B   4     -17.537  -7.897  14.946  1.00 57.64 LIG 0.20  C 
BRANCH 46 47
ATOM     47 OG   SER B   4     -18.410  -8.746  15.679  1.00 57.32 LIG-0.40  OA
ATOM     48 HG   SER B   4     -18.941  -8.278  16.130  1.00 57.32 LIG 0.21  HD
ENDBRANCH 46 47
ENDBRANCH 28 46
ENDBRANCH 1 28
TORSDOF 18
ENDMDL
MODEL 67
USER: ADFR SOLUTION from run 7
USER: SCORE 13.557586 LL:  -3.032 LR: -11.375 RR:   0.000 FEB:  -6.005
USER: RMSD 11.725995
USER: SEED 9427
USER: STATUS no improvement in best in 2 clusters for 5 generations
USER: GENES 20
USER: genes 0 Translation |==|  0.60949 0.68973 0.45304
USER: genes 1 Rotation |==|  0.20293 0.77909 0.31504 0.72282
USER: genes 2 Torsion [C]-N--CA-[CB] |==|  0.75694
USER: genes 3 Torsion [N]-CA--CB-[CG2] |==|  0.76170
USER: genes 4 Torsion [CA]-CB--OG1-[HG1] |==|  0.24217
USER: genes 5 Torsion [N]-CA--C-[N] |==|  0.21447
USER: genes 6 Torsion [N]-CA--C-[O] |==|  0.77069
USER: genes 7 Torsion [C]-N--CA-[CB] |==|  0.19295
USER: genes 8 Torsion [N]-CA--C-[O] |==|  0.30526
USER: genes 9 Torsion [N]-CA--CB-[SG] |==|  0.13865
USER: genes 10 Torsion [CA]-CB--SG-[HG] |==|  0.12221
USER: genes 11 Torsion [N]-C--CA-[N] |==|  0.89147
USER: genes 12 Torsion [C]-CA--N-[C] |==|  0.84443
USER: genes 13 Torsion [N]-C--CA-[N] |==|  0.00066
USER: genes 14 Torsion [C]-CA--N-[C] |==|  0.58355
USER: genes 15 Torsion [N]-C--CA-[N] |==|  0.45573
USER: genes 16 Torsion [C]-CA--CB-[OG] |==|  0.60592
USER: genes 17 Torsion [CA]-CB--OG-[HG] |==|  0.33992
USER: genes 18 Torsion [C]-CA--CB-[OG] |==|  0.50442
USER: genes 19 Torsion [CA]-CB--OG-[HG] |==|  0.94119
ROOT
ATOM      1  C   SER B   4     -16.426  -5.005  14.366  1.00 56.97 LIG 0.24  C 
ATOM      2 O    SER B   4     -17.467  -4.947  15.026  1.00 57.23 LIG-0.27  OA
ATOM      3  N   THR B   5     -16.079  -6.079  13.650  1.00 55.89 LIG-0.34  N 
ATOM      4 H    THR B   5     -15.350  -6.139  13.197  1.00 55.89 LIG 0.16  HD
ENDROOT
BRANCH 3 5
ATOM      5  CA  THR B   5     -16.938  -7.273  13.580  1.00 55.10 LIG 0.20  C 
BRANCH 5 6
ATOM      6  CB  THR B   5     -16.640  -8.273  14.756  1.00 55.33 LIG 0.15  C 
ATOM      7  CG2 THR B   5     -15.484  -9.223  14.414  1.00 55.26 LIG 0.04  C 
BRANCH 6 8
ATOM      8 OG1  THR B   5     -16.320  -7.550  15.957  1.00 55.55 LIG-0.39  OA
ATOM      9 HG1  THR B   5     -17.028  -7.369  16.372  1.00 55.55 LIG 0.21  HD
ENDBRANCH 6 8
ENDBRANCH 5 6
BRANCH 5 10
ATOM     10  C   THR B   5     -18.444  -6.955  13.532  1.00 54.13 LIG 0.24  C 
ATOM     11  N   PRO B   6     -18.952  -6.530  12.354  1.00 52.90 LIG-0.34  N 
ATOM     12  CD  PRO B   6     -18.215  -6.242  11.108  1.00 52.89 LIG 0.13  C 
ATOM     13  CA  PRO B   6     -20.395  -6.296  12.204  1.00 51.99 LIG 0.18  C 
ATOM     14  CG  PRO B   6     -19.269  -5.682  10.185  1.00 52.79 LIG 0.02  C 
ATOM     15  CB  PRO B   6     -20.579  -6.146  10.690  1.00 51.93 LIG 0.04  C 
ATOM     16 O    THR B   5     -19.146  -7.110  14.542  1.00 54.19 LIG-0.27  OA
BRANCH 13 17
ATOM     17  C   PRO B   6     -21.198  -7.484  12.726  1.00 51.04 LIG 0.24  C 
ATOM     18 O    PRO B   6     -21.371  -8.466  11.999  1.00 50.92 LIG-0.27  OA
ATOM     19  N   CYS B   7     -21.678  -7.402  13.968  1.00 49.72 LIG-0.34  N 
ATOM     20 H    CYS B   7     -21.645  -6.693  14.452  1.00 49.72 LIG 0.16  HD
BRANCH 19 21
ATOM     21  CA  CYS B   7     -22.320  -8.563  14.617  1.00 48.85 LIG 0.19  C 
BRANCH 21 22
ATOM     22  C   CYS B   7     -23.117  -8.208  15.871  1.00 48.04 LIG 0.20  C 
ATOM     23 OXT  CYS B   7     -22.560  -7.851  16.907  1.00 47.16 LIG-0.65  OA
ATOM     24 O    CYS B   7     -24.343  -8.272  15.863  1.00 47.51 LIG-0.65  OA
ENDBRANCH 21 22
BRANCH 21 25
ATOM     25  CB  CYS B   7     -21.281  -9.650  14.925  1.00 48.98 LIG 0.11  C 
BRANCH 25 26
ATOM     26 SG   CYS B   7     -19.837  -8.994  15.785  1.00 48.50 LIG-0.18  SA
ATOM     27 HG   CYS B   7     -20.193  -8.241  16.649  1.00 48.50 LIG 0.10  HD
ENDBRANCH 25 26
ENDBRANCH 21 25
ENDBRANCH 19 21
ENDBRANCH 13 17
ENDBRANCH 5 10
ENDBRANCH 3 5
BRANCH 1 28
ATOM     28  CA  SER B   4     -15.456  -3.818  14.348  1.00 57.59 LIG 0.20  C 
BRANCH 28 29
ATOM     29  N   SER B   4     -14.049  -4.237  14.384  1.00 58.14 LIG-0.34  N 
ATOM     30  C   SER B   3     -13.561  -5.018  15.348  1.00 58.75 LIG 0.24  C 
ATOM     31 O    SER B   3     -14.283  -5.570  16.183  1.00 58.75 LIG-0.27  OA
ATOM     32 H    SER B   4     -13.576  -3.935  13.731  1.00 58.14 LIG 0.16  HD
BRANCH 30 33
ATOM     33  CA  SER B   3     -12.031  -5.228  15.368  1.00 59.17 LIG 0.20  C 
BRANCH 33 34
ATOM     34  N   SER B   3     -11.386  -4.488  14.273  1.00 59.50 LIG-0.34  N 
ATOM     35  C   PRO B   2     -10.257  -4.851  13.648  1.00 59.86 LIG 0.25  C 
ATOM     36 O    PRO B   2      -9.722  -4.131  12.798  1.00 59.80 LIG-0.27  OA
ATOM     37 H    SER B   3     -11.815  -3.773  14.060  1.00 59.50 LIG 0.16  HD
BRANCH 35 38
ATOM     38  CA  PRO B   2      -9.596  -6.194  13.998  1.00 60.11 LIG 0.35  C 
ATOM     39  CB  PRO B   2      -8.751  -6.087  15.278  1.00 60.16 LIG 0.05  C 
ATOM     40  CG  PRO B   2      -7.503  -6.855  15.004  1.00 60.30 LIG 0.04  C 
ATOM     41  CD  PRO B   2      -7.259  -6.752  13.535  1.00 60.25 LIG 0.32  C 
ATOM     42  N   PRO B   2      -8.613  -6.591  12.978  1.00 60.27 LIG 0.32  N 
ENDBRANCH 35 38
ENDBRANCH 33 34
BRANCH 33 43
ATOM     43  CB  SER B   3     -11.462  -4.777  16.718  1.00 59.26 LIG 0.20  C 
BRANCH 43 44
ATOM     44 OG   SER B   3     -10.208  -4.134  16.552  1.00 59.53 LIG-0.40  OA
ATOM     45 HG   SER B   3     -10.247  -3.359  16.872  1.00 59.53 LIG 0.21  HD
ENDBRANCH 43 44
ENDBRANCH 33 43
ENDBRANCH 30 33
ENDBRANCH 28 29
BRANCH 28 46
ATOM     46  CB  SER B   4     -15.683  -2.975  13.091  1.00 57.64 LIG 0.20  C 
BRANCH 46 47
ATOM     47 OG   SER B   4     -14.768  -1.889  13.038  1.00 57.32 LIG-0.40  OA
ATOM     48 HG   SER B   4     -14.476  -1.731  13.809  1.00 57.32 LIG 0.21  HD
ENDBRANCH 46 47
ENDBRANCH 28 46
ENDBRANCH 1 28
TORSDOF 18
ENDMDL
MODEL 68
USER: ADFR SOLUTION from run 174
USER: SCORE 12.756326 LL:  -3.507 LR: -11.368 RR:   0.000 FEB:  -5.999
USER: RMSD 9.523880
USER: SEED 173
USER: STATUS no improvement in best in 9 clusters for 5 generations
USER: GENES 20
USER: genes 0 Translation |==|  0.75363 0.50412 0.37803
USER: genes 1 Rotation |==|  0.78483 0.50001 0.69723 0.86052
USER: genes 2 Torsion [C]-N--CA-[CB] |==|  0.42627
USER: genes 3 Torsion [N]-CA--CB-[CG2] |==|  0.50255
USER: genes 4 Torsion [CA]-CB--OG1-[HG1] |==|  0.31977
USER: genes 5 Torsion [N]-CA--C-[N] |==|  0.84037
USER: genes 6 Torsion [N]-CA--C-[O] |==|  0.25695
USER: genes 7 Torsion [C]-N--CA-[CB] |==|  0.80545
USER: genes 8 Torsion [N]-CA--C-[O] |==|  0.55935
USER: genes 9 Torsion [N]-CA--CB-[SG] |==|  0.86705
USER: genes 10 Torsion [CA]-CB--SG-[HG] |==|  0.32349
USER: genes 11 Torsion [N]-C--CA-[N] |==|  0.16376
USER: genes 12 Torsion [C]-CA--N-[C] |==|  0.56287
USER: genes 13 Torsion [N]-C--CA-[N] |==|  0.43333
USER: genes 14 Torsion [C]-CA--N-[C] |==|  0.82506
USER: genes 15 Torsion [N]-C--CA-[N] |==|  0.29347
USER: genes 16 Torsion [C]-CA--CB-[OG] |==|  0.62504
USER: genes 17 Torsion [CA]-CB--OG-[HG] |==|  0.41997
USER: genes 18 Torsion [C]-CA--CB-[OG] |==|  0.68048
USER: genes 19 Torsion [CA]-CB--OG-[HG] |==|  0.28179
ROOT
ATOM      1  C   SER B   4     -12.317  -7.789  13.297  1.00 56.97 LIG 0.24  C 
ATOM      2 O    SER B   4     -12.835  -6.941  12.564  1.00 57.23 LIG-0.27  OA
ATOM      3  N   THR B   5     -11.639  -7.474  14.405  1.00 55.89 LIG-0.34  N 
ATOM      4 H    THR B   5     -11.262  -8.053  14.917  1.00 55.89 LIG 0.16  HD
ENDROOT
BRANCH 3 5
ATOM      5  CA  THR B   5     -11.482  -6.078  14.846  1.00 55.10 LIG 0.20  C 
BRANCH 5 6
ATOM      6  CB  THR B   5     -11.276  -5.980  16.400  1.00 55.33 LIG 0.15  C 
ATOM      7  CG2 THR B   5     -11.134  -4.524  16.864  1.00 55.26 LIG 0.04  C 
BRANCH 6 8
ATOM      8 OG1  THR B   5     -12.379  -6.592  17.090  1.00 55.55 LIG-0.39  OA
ATOM      9 HG1  THR B   5     -12.107  -7.265  17.514  1.00 55.55 LIG 0.21  HD
ENDBRANCH 6 8
ENDBRANCH 5 6
BRANCH 5 10
ATOM     10  C   THR B   5     -10.356  -5.320  14.119  1.00 54.13 LIG 0.24  C 
ATOM     11  N   PRO B   6      -9.110  -5.840  14.188  1.00 52.90 LIG-0.34  N 
ATOM     12  CD  PRO B   6      -8.669  -7.017  14.962  1.00 52.89 LIG 0.13  C 
ATOM     13  CA  PRO B   6      -8.002  -5.226  13.444  1.00 51.99 LIG 0.18  C 
ATOM     14  CG  PRO B   6      -7.173  -7.039  14.765  1.00 52.79 LIG 0.02  C 
ATOM     15  CB  PRO B   6      -6.885  -6.272  13.535  1.00 51.93 LIG 0.04  C 
ATOM     16 O    THR B   5     -10.610  -4.286  13.483  1.00 54.19 LIG-0.27  OA
BRANCH 13 17
ATOM     17  C   PRO B   6      -8.390  -4.982  11.989  1.00 51.04 LIG 0.24  C 
ATOM     18 O    PRO B   6      -8.868  -3.892  11.662  1.00 50.92 LIG-0.27  OA
ATOM     19  N   CYS B   7      -8.185  -5.977  11.125  1.00 49.72 LIG-0.34  N 
ATOM     20 H    CYS B   7      -7.940  -6.770  11.350  1.00 49.72 LIG 0.16  HD
BRANCH 19 21
ATOM     21  CA  CYS B   7      -8.373  -5.779   9.673  1.00 48.85 LIG 0.19  C 
BRANCH 21 22
ATOM     22  C   CYS B   7      -7.555  -4.624   9.097  1.00 48.04 LIG 0.20  C 
ATOM     23 OXT  CYS B   7      -6.555  -4.196   9.668  1.00 47.16 LIG-0.65  OA
ATOM     24 O    CYS B   7      -7.888  -4.099   8.037  1.00 47.51 LIG-0.65  OA
ENDBRANCH 21 22
BRANCH 21 25
ATOM     25  CB  CYS B   7      -9.861  -5.607   9.341  1.00 48.98 LIG 0.11  C 
BRANCH 25 26
ATOM     26 SG   CYS B   7     -10.889  -6.866  10.123  1.00 48.50 LIG-0.18  SA
ATOM     27 HG   CYS B   7     -11.639  -6.345  10.901  1.00 48.50 LIG 0.10  HD
ENDBRANCH 25 26
ENDBRANCH 21 25
ENDBRANCH 19 21
ENDBRANCH 13 17
ENDBRANCH 5 10
ENDBRANCH 3 5
BRANCH 1 28
ATOM     28  CA  SER B   4     -12.426  -9.279  12.950  1.00 57.59 LIG 0.20  C 
BRANCH 28 29
ATOM     29  N   SER B   4     -13.072 -10.060  14.012  1.00 58.14 LIG-0.34  N 
ATOM     30  C   SER B   3     -12.889 -11.375  14.143  1.00 58.75 LIG 0.24  C 
ATOM     31 O    SER B   3     -12.047 -11.995  13.488  1.00 58.75 LIG-0.27  OA
ATOM     32 H    SER B   4     -13.574  -9.596  14.534  1.00 58.14 LIG 0.16  HD
BRANCH 30 33
ATOM     33  CA  SER B   3     -13.772 -12.101  15.181  1.00 59.17 LIG 0.20  C 
BRANCH 33 34
ATOM     34  N   SER B   3     -13.901 -13.529  14.852  1.00 59.50 LIG-0.34  N 
ATOM     35  C   PRO B   2     -14.472 -14.022  13.745  1.00 59.86 LIG 0.25  C 
ATOM     36 O    PRO B   2     -14.629 -15.237  13.578  1.00 59.80 LIG-0.27  OA
ATOM     37 H    SER B   3     -13.565 -14.039  15.457  1.00 59.50 LIG 0.16  HD
BRANCH 35 38
ATOM     38  CA  PRO B   2     -14.958 -13.060  12.649  1.00 60.11 LIG 0.35  C 
ATOM     39  CB  PRO B   2     -16.305 -13.511  12.062  1.00 60.16 LIG 0.05  C 
ATOM     40  CG  PRO B   2     -16.196 -13.302  10.590  1.00 60.30 LIG 0.04  C 
ATOM     41  CD  PRO B   2     -14.754 -13.476  10.247  1.00 60.25 LIG 0.32  C 
ATOM     42  N   PRO B   2     -14.061 -13.075  11.483  1.00 60.27 LIG 0.32  N 
ENDBRANCH 35 38
ENDBRANCH 33 34
BRANCH 33 43
ATOM     43  CB  SER B   3     -13.170 -11.934  16.582  1.00 59.26 LIG 0.20  C 
BRANCH 43 44
ATOM     44 OG   SER B   3     -13.171 -13.166  17.285  1.00 59.53 LIG-0.40  OA
ATOM     45 HG   SER B   3     -12.533 -13.177  17.831  1.00 59.53 LIG 0.21  HD
ENDBRANCH 43 44
ENDBRANCH 33 43
ENDBRANCH 30 33
ENDBRANCH 28 29
BRANCH 28 46
ATOM     46  CB  SER B   4     -13.224  -9.457  11.656  1.00 57.64 LIG 0.20  C 
BRANCH 46 47
ATOM     47 OG   SER B   4     -14.441 -10.148  11.904  1.00 57.32 LIG-0.40  OA
ATOM     48 HG   SER B   4     -15.075  -9.598  11.928  1.00 57.32 LIG 0.21  HD
ENDBRANCH 46 47
ENDBRANCH 28 46
ENDBRANCH 1 28
TORSDOF 18
ENDMDL
MODEL 69
USER: ADFR SOLUTION from run 97
USER: SCORE 13.440929 LL:  -3.050 LR: -11.350 RR:   0.000 FEB:  -5.981
USER: RMSD 8.494639
USER: SEED 96
USER: STATUS no improvement in best in 10 clusters for 5 generations
USER: GENES 20
USER: genes 0 Translation |==|  0.69175 0.62075 0.47767
USER: genes 1 Rotation |==|  0.27014 0.30073 0.56182 0.89196
USER: genes 2 Torsion [C]-N--CA-[CB] |==|  0.75485
USER: genes 3 Torsion [N]-CA--CB-[CG2] |==|  0.18262
USER: genes 4 Torsion [CA]-CB--OG1-[HG1] |==|  0.22939
USER: genes 5 Torsion [N]-CA--C-[N] |==|  0.15211
USER: genes 6 Torsion [N]-CA--C-[O] |==|  0.45122
USER: genes 7 Torsion [C]-N--CA-[CB] |==|  0.87220
USER: genes 8 Torsion [N]-CA--C-[O] |==|  0.60621
USER: genes 9 Torsion [N]-CA--CB-[SG] |==|  0.89134
USER: genes 10 Torsion [CA]-CB--SG-[HG] |==|  0.39181
USER: genes 11 Torsion [N]-C--CA-[N] |==|  0.27586
USER: genes 12 Torsion [C]-CA--N-[C] |==|  0.63940
USER: genes 13 Torsion [N]-C--CA-[N] |==|  0.88679
USER: genes 14 Torsion [C]-CA--N-[C] |==|  0.75658
USER: genes 15 Torsion [N]-C--CA-[N] |==|  0.20036
USER: genes 16 Torsion [C]-CA--CB-[OG] |==|  0.61441
USER: genes 17 Torsion [CA]-CB--OG-[HG] |==|  0.30024
USER: genes 18 Torsion [C]-CA--CB-[OG] |==|  0.53166
USER: genes 19 Torsion [CA]-CB--OG-[HG] |==|  0.63331
ROOT
ATOM      1  C   SER B   4     -14.081  -6.040  14.717  1.00 56.97 LIG 0.24  C 
ATOM      2 O    SER B   4     -13.384  -7.042  14.529  1.00 57.23 LIG-0.27  OA
ATOM      3  N   THR B   5     -13.564  -4.835  14.975  1.00 55.89 LIG-0.34  N 
ATOM      4 H    THR B   5     -14.037  -4.131  15.121  1.00 55.89 LIG 0.16  HD
ENDROOT
BRANCH 3 5
ATOM      5  CA  THR B   5     -12.110  -4.611  15.029  1.00 55.10 LIG 0.20  C 
BRANCH 5 6
ATOM      6  CB  THR B   5     -11.537  -4.868  16.470  1.00 55.33 LIG 0.15  C 
ATOM      7  CG2 THR B   5     -11.664  -6.343  16.877  1.00 55.26 LIG 0.04  C 
BRANCH 6 8
ATOM      8 OG1  THR B   5     -10.154  -4.476  16.535  1.00 55.55 LIG-0.39  OA
ATOM      9 HG1  THR B   5     -10.104  -3.648  16.664  1.00 55.55 LIG 0.21  HD
ENDBRANCH 6 8
ENDBRANCH 5 6
BRANCH 5 10
ATOM     10  C   THR B   5     -11.315  -5.430  13.995  1.00 54.13 LIG 0.24  C 
ATOM     11  N   PRO B   6     -11.672  -5.307  12.697  1.00 52.90 LIG-0.34  N 
ATOM     12  CD  PRO B   6     -12.807  -4.541  12.146  1.00 52.89 LIG 0.13  C 
ATOM     13  CA  PRO B   6     -10.902  -5.983  11.644  1.00 51.99 LIG 0.18  C 
ATOM     14  CG  PRO B   6     -12.790  -4.877  10.675  1.00 52.79 LIG 0.02  C 
ATOM     15  CB  PRO B   6     -11.424  -5.343  10.352  1.00 51.93 LIG 0.04  C 
ATOM     16 O    THR B   5     -10.374  -6.151  14.360  1.00 54.19 LIG-0.27  OA
BRANCH 13 17
ATOM     17  C   PRO B   6      -9.409  -5.720  11.805  1.00 51.04 LIG 0.24  C 
ATOM     18 O    PRO B   6      -8.597  -6.451  11.229  1.00 50.92 LIG-0.27  OA
ATOM     19  N   CYS B   7      -9.046  -4.691  12.573  1.00 49.72 LIG-0.34  N 
ATOM     20 H    CYS B   7      -9.591  -4.230  13.052  1.00 49.72 LIG 0.16  HD
BRANCH 19 21
ATOM     21  CA  CYS B   7      -7.636  -4.258  12.654  1.00 48.85 LIG 0.19  C 
BRANCH 21 22
ATOM     22  C   CYS B   7      -7.180  -3.410  11.468  1.00 48.04 LIG 0.20  C 
ATOM     23 OXT  CYS B   7      -7.921  -2.576  10.952  1.00 47.16 LIG-0.65  OA
ATOM     24 O    CYS B   7      -6.051  -3.548  11.007  1.00 47.51 LIG-0.65  OA
ENDBRANCH 21 22
BRANCH 21 25
ATOM     25  CB  CYS B   7      -6.712  -5.469  12.840  1.00 48.98 LIG 0.11  C 
BRANCH 25 26
ATOM     26 SG   CYS B   7      -7.415  -6.705  13.950  1.00 48.50 LIG-0.18  SA
ATOM     27 HG   CYS B   7      -7.166  -7.803  13.536  1.00 48.50 LIG 0.10  HD
ENDBRANCH 25 26
ENDBRANCH 21 25
ENDBRANCH 19 21
ENDBRANCH 13 17
ENDBRANCH 5 10
ENDBRANCH 3 5
BRANCH 1 28
ATOM     28  CA  SER B   4     -15.610  -6.143  14.671  1.00 57.59 LIG 0.20  C 
BRANCH 28 29
ATOM     29  N   SER B   4     -16.137  -6.124  13.300  1.00 58.14 LIG-0.34  N 
ATOM     30  C   SER B   3     -17.123  -5.309  12.926  1.00 58.75 LIG 0.24  C 
ATOM     31 O    SER B   3     -17.552  -4.410  13.653  1.00 58.75 LIG-0.27  OA
ATOM     32 H    SER B   4     -15.753  -6.682  12.769  1.00 58.14 LIG 0.16  HD
BRANCH 30 33
ATOM     33  CA  SER B   3     -17.705  -5.524  11.511  1.00 59.17 LIG 0.20  C 
BRANCH 33 34
ATOM     34  N   SER B   3     -16.636  -5.807  10.542  1.00 59.50 LIG-0.34  N 
ATOM     35  C   PRO B   2     -15.941  -4.887   9.860  1.00 59.86 LIG 0.25  C 
ATOM     36 O    PRO B   2     -15.119  -5.202   8.992  1.00 59.80 LIG-0.27  OA
ATOM     37 H    SER B   3     -16.491  -6.650  10.448  1.00 59.50 LIG 0.16  HD
BRANCH 35 38
ATOM     38  CA  PRO B   2     -16.171  -3.394  10.150  1.00 60.11 LIG 0.35  C 
ATOM     39  CB  PRO B   2     -15.410  -2.506   9.154  1.00 60.16 LIG 0.05  C 
ATOM     40  CG  PRO B   2     -14.833  -1.394   9.963  1.00 60.30 LIG 0.04  C 
ATOM     41  CD  PRO B   2     -14.584  -1.950  11.326  1.00 60.25 LIG 0.32  C 
ATOM     42  N   PRO B   2     -15.602  -3.007  11.451  1.00 60.27 LIG 0.32  N 
ENDBRANCH 35 38
ENDBRANCH 33 34
BRANCH 33 43
ATOM     43  CB  SER B   3     -18.717  -6.676  11.535  1.00 59.26 LIG 0.20  C 
BRANCH 43 44
ATOM     44 OG   SER B   3     -18.574  -7.500  10.389  1.00 59.53 LIG-0.40  OA
ATOM     45 HG   SER B   3     -18.233  -8.234  10.613  1.00 59.53 LIG 0.21  HD
ENDBRANCH 43 44
ENDBRANCH 33 43
ENDBRANCH 30 33
ENDBRANCH 28 29
BRANCH 28 46
ATOM     46  CB  SER B   4     -16.067  -7.435  15.353  1.00 57.64 LIG 0.20  C 
BRANCH 46 47
ATOM     47 OG   SER B   4     -17.443  -7.683  15.096  1.00 57.32 LIG-0.40  OA
ATOM     48 HG   SER B   4     -17.833  -7.869  15.816  1.00 57.32 LIG 0.21  HD
ENDBRANCH 46 47
ENDBRANCH 28 46
ENDBRANCH 1 28
TORSDOF 18
ENDMDL
MODEL 70
USER: ADFR SOLUTION from run 50
USER: SCORE 12.814121 LL:  -3.337 LR: -11.338 RR:   0.000 FEB:  -5.969
USER: RMSD 7.964074
USER: SEED 49
USER: STATUS no improvement in best in 11 clusters for 5 generations
USER: GENES 20
USER: genes 0 Translation |==|  0.71580 0.74907 0.38222
USER: genes 1 Rotation |==|  0.67681 0.22442 0.36147 0.85157
USER: genes 2 Torsion [C]-N--CA-[CB] |==|  0.55556
USER: genes 3 Torsion [N]-CA--CB-[CG2] |==|  0.60752
USER: genes 4 Torsion [CA]-CB--OG1-[HG1] |==|  0.06673
USER: genes 5 Torsion [N]-CA--C-[N] |==|  0.82589
USER: genes 6 Torsion [N]-CA--C-[O] |==|  0.87711
USER: genes 7 Torsion [C]-N--CA-[CB] |==|  0.41630
USER: genes 8 Torsion [N]-CA--C-[O] |==|  0.46942
USER: genes 9 Torsion [N]-CA--CB-[SG] |==|  0.97038
USER: genes 10 Torsion [CA]-CB--SG-[HG] |==|  0.24604
USER: genes 11 Torsion [N]-C--CA-[N] |==|  0.91270
USER: genes 12 Torsion [C]-CA--N-[C] |==|  0.19097
USER: genes 13 Torsion [N]-C--CA-[N] |==|  0.30183
USER: genes 14 Torsion [C]-CA--N-[C] |==|  0.73904
USER: genes 15 Torsion [N]-C--CA-[N] |==|  0.47451
USER: genes 16 Torsion [C]-CA--CB-[OG] |==|  0.52944
USER: genes 17 Torsion [CA]-CB--OG-[HG] |==|  0.60908
USER: genes 18 Torsion [C]-CA--CB-[OG] |==|  0.23693
USER: genes 19 Torsion [CA]-CB--OG-[HG] |==|  0.58675
ROOT
ATOM      1  C   SER B   4     -13.396  -4.115  13.357  1.00 56.97 LIG 0.24  C 
ATOM      2 O    SER B   4     -12.292  -3.892  12.850  1.00 57.23 LIG-0.27  OA
ATOM      3  N   THR B   5     -13.545  -4.770  14.512  1.00 55.89 LIG-0.34  N 
ATOM      4 H    THR B   5     -14.308  -4.944  14.870  1.00 55.89 LIG 0.16  HD
ENDROOT
BRANCH 3 5
ATOM      5  CA  THR B   5     -12.388  -5.256  15.282  1.00 55.10 LIG 0.20  C 
BRANCH 5 6
ATOM      6  CB  THR B   5     -12.795  -6.391  16.289  1.00 55.33 LIG 0.15  C 
ATOM      7  CG2 THR B   5     -12.046  -6.263  17.622  1.00 55.26 LIG 0.04  C 
BRANCH 6 8
ATOM      8 OG1  THR B   5     -14.212  -6.356  16.535  1.00 55.55 LIG-0.39  OA
ATOM      9 HG1  THR B   5     -14.600  -5.987  15.888  1.00 55.55 LIG 0.21  HD
ENDBRANCH 6 8
ENDBRANCH 5 6
BRANCH 5 10
ATOM     10  C   THR B   5     -11.212  -5.728  14.407  1.00 54.13 LIG 0.24  C 
ATOM     11  N   PRO B   6     -11.431  -6.782  13.588  1.00 52.90 LIG-0.34  N 
ATOM     12  CD  PRO B   6     -12.651  -7.607  13.491  1.00 52.89 LIG 0.13  C 
ATOM     13  CA  PRO B   6     -10.388  -7.232  12.655  1.00 51.99 LIG 0.18  C 
ATOM     14  CG  PRO B   6     -12.271  -8.700  12.523  1.00 52.79 LIG 0.02  C 
ATOM     15  CB  PRO B   6     -11.131  -8.199  11.727  1.00 51.93 LIG 0.04  C 
ATOM     16 O    THR B   5     -10.124  -5.137  14.452  1.00 54.19 LIG-0.27  OA
BRANCH 13 17
ATOM     17  C   PRO B   6      -9.821  -6.058  11.863  1.00 51.04 LIG 0.24  C 
ATOM     18 O    PRO B   6     -10.591  -5.218  11.387  1.00 50.92 LIG-0.27  OA
ATOM     19  N   CYS B   7      -8.496  -5.994  11.725  1.00 49.72 LIG-0.34  N 
ATOM     20 H    CYS B   7      -7.954  -6.615  11.969  1.00 49.72 LIG 0.16  HD
BRANCH 19 21
ATOM     21  CA  CYS B   7      -7.847  -4.812  11.121  1.00 48.85 LIG 0.19  C 
BRANCH 21 22
ATOM     22  C   CYS B   7      -7.790  -4.851   9.595  1.00 48.04 LIG 0.20  C 
ATOM     23 OXT  CYS B   7      -8.068  -5.870   8.967  1.00 47.16 LIG-0.65  OA
ATOM     24 O    CYS B   7      -7.463  -3.850   8.963  1.00 47.51 LIG-0.65  OA
ENDBRANCH 21 22
BRANCH 21 25
ATOM     25  CB  CYS B   7      -6.445  -4.609  11.710  1.00 48.98 LIG 0.11  C 
BRANCH 25 26
ATOM     26 SG   CYS B   7      -6.145  -5.659  13.146  1.00 48.50 LIG-0.18  SA
ATOM     27 HG   CYS B   7      -5.702  -6.715  12.785  1.00 48.50 LIG 0.10  HD
ENDBRANCH 25 26
ENDBRANCH 21 25
ENDBRANCH 19 21
ENDBRANCH 13 17
ENDBRANCH 5 10
ENDBRANCH 3 5
BRANCH 1 28
ATOM     28  CA  SER B   4     -14.676  -3.645  12.655  1.00 57.59 LIG 0.20  C 
BRANCH 28 29
ATOM     29  N   SER B   4     -15.814  -4.541  12.898  1.00 58.14 LIG-0.34  N 
ATOM     30  C   SER B   3     -16.389  -4.655  14.096  1.00 58.75 LIG 0.24  C 
ATOM     31 O    SER B   3     -16.114  -3.906  15.037  1.00 58.75 LIG-0.27  OA
ATOM     32 H    SER B   4     -16.071  -4.980  12.204  1.00 58.14 LIG 0.16  HD
BRANCH 30 33
ATOM     33  CA  SER B   3     -17.449  -5.766  14.257  1.00 59.17 LIG 0.20  C 
BRANCH 33 34
ATOM     34  N   SER B   3     -16.940  -6.860  15.098  1.00 59.50 LIG-0.34  N 
ATOM     35  C   PRO B   2     -16.346  -7.974  14.649  1.00 59.86 LIG 0.25  C 
ATOM     36 O    PRO B   2     -16.025  -8.894  15.410  1.00 59.80 LIG-0.27  OA
ATOM     37 H    SER B   3     -17.061  -6.715  15.937  1.00 59.50 LIG 0.16  HD
BRANCH 35 38
ATOM     38  CA  PRO B   2     -16.059  -8.127  13.146  1.00 60.11 LIG 0.35  C 
ATOM     39  CB  PRO B   2     -17.344  -8.425  12.357  1.00 60.16 LIG 0.05  C 
ATOM     40  CG  PRO B   2     -16.974  -9.472  11.362  1.00 60.30 LIG 0.04  C 
ATOM     41  CD  PRO B   2     -15.875 -10.270  11.981  1.00 60.25 LIG 0.32  C 
ATOM     42  N   PRO B   2     -15.218  -9.303  12.877  1.00 60.27 LIG 0.32  N 
ENDBRANCH 35 38
ENDBRANCH 33 34
BRANCH 33 43
ATOM     43  CB  SER B   3     -18.728  -5.180  14.869  1.00 59.26 LIG 0.20  C 
BRANCH 43 44
ATOM     44 OG   SER B   3     -19.625  -6.209  15.252  1.00 59.53 LIG-0.40  OA
ATOM     45 HG   SER B   3     -20.411  -5.976  15.072  1.00 59.53 LIG 0.21  HD
ENDBRANCH 43 44
ENDBRANCH 33 43
ENDBRANCH 30 33
ENDBRANCH 28 29
BRANCH 28 46
ATOM     46  CB  SER B   4     -15.049  -2.240  13.133  1.00 57.64 LIG 0.20  C 
BRANCH 46 47
ATOM     47 OG   SER B   4     -14.358  -1.251  12.382  1.00 57.32 LIG-0.40  OA
ATOM     48 HG   SER B   4     -14.215  -0.580  12.866  1.00 57.32 LIG 0.21  HD
ENDBRANCH 46 47
ENDBRANCH 28 46
ENDBRANCH 1 28
TORSDOF 18
ENDMDL
MODEL 71
USER: ADFR SOLUTION from run 42
USER: SCORE 13.333054 LL:  -3.282 LR: -11.340 RR:   0.000 FEB:  -5.971
USER: RMSD 8.622408
USER: SEED 41
USER: STATUS no improvement in best in 9 clusters for 5 generations
USER: GENES 20
USER: genes 0 Translation |==|  0.74034 0.74384 0.37778
USER: genes 1 Rotation |==|  0.62649 0.24616 0.37231 0.89149
USER: genes 2 Torsion [C]-N--CA-[CB] |==|  0.56157
USER: genes 3 Torsion [N]-CA--CB-[CG2] |==|  0.92774
USER: genes 4 Torsion [CA]-CB--OG1-[HG1] |==|  0.47810
USER: genes 5 Torsion [N]-CA--C-[N] |==|  0.86557
USER: genes 6 Torsion [N]-CA--C-[O] |==|  0.83378
USER: genes 7 Torsion [C]-N--CA-[CB] |==|  0.82189
USER: genes 8 Torsion [N]-CA--C-[O] |==|  0.86166
USER: genes 9 Torsion [N]-CA--CB-[SG] |==|  0.52045
USER: genes 10 Torsion [CA]-CB--SG-[HG] |==|  0.21696
USER: genes 11 Torsion [N]-C--CA-[N] |==|  0.87278
USER: genes 12 Torsion [C]-CA--N-[C] |==|  0.71667
USER: genes 13 Torsion [N]-C--CA-[N] |==|  0.93188
USER: genes 14 Torsion [C]-CA--N-[C] |==|  0.79192
USER: genes 15 Torsion [N]-C--CA-[N] |==|  0.44272
USER: genes 16 Torsion [C]-CA--CB-[OG] |==|  0.70235
USER: genes 17 Torsion [CA]-CB--OG-[HG] |==|  0.73210
USER: genes 18 Torsion [C]-CA--CB-[OG] |==|  0.79305
USER: genes 19 Torsion [CA]-CB--OG-[HG] |==|  0.41600
ROOT
ATOM      1  C   SER B   4     -12.696  -4.193  13.293  1.00 56.97 LIG 0.24  C 
ATOM      2 O    SER B   4     -11.710  -4.101  12.555  1.00 57.23 LIG-0.27  OA
ATOM      3  N   THR B   5     -12.616  -4.606  14.562  1.00 55.89 LIG-0.34  N 
ATOM      4 H    THR B   5     -13.296  -4.689  15.083  1.00 55.89 LIG 0.16  HD
ENDROOT
BRANCH 3 5
ATOM      5  CA  THR B   5     -11.328  -4.960  15.182  1.00 55.10 LIG 0.20  C 
BRANCH 5 6
ATOM      6  CB  THR B   5     -11.520  -5.911  16.418  1.00 55.33 LIG 0.15  C 
ATOM      7  CG2 THR B   5     -12.902  -5.734  17.061  1.00 55.26 LIG 0.04  C 
BRANCH 6 8
ATOM      8 OG1  THR B   5     -11.353  -7.284  16.023  1.00 55.55 LIG-0.39  OA
ATOM      9 HG1  THR B   5     -11.350  -7.773  16.705  1.00 55.55 LIG 0.21  HD
ENDBRANCH 6 8
ENDBRANCH 5 6
BRANCH 5 10
ATOM     10  C   THR B   5     -10.313  -5.575  14.200  1.00 54.13 LIG 0.24  C 
ATOM     11  N   PRO B   6     -10.749  -6.573  13.400  1.00 52.90 LIG-0.34  N 
ATOM     12  CD  PRO B   6     -12.075  -7.222  13.412  1.00 52.89 LIG 0.13  C 
ATOM     13  CA  PRO B   6      -9.867  -7.146  12.374  1.00 51.99 LIG 0.18  C 
ATOM     14  CG  PRO B   6     -11.940  -8.339  12.408  1.00 52.79 LIG 0.02  C 
ATOM     15  CB  PRO B   6     -10.817  -7.986  11.513  1.00 51.93 LIG 0.04  C 
ATOM     16 O    THR B   5      -9.154  -5.139  14.148  1.00 54.19 LIG-0.27  OA
BRANCH 13 17
ATOM     17  C   PRO B   6      -9.217  -6.048  11.538  1.00 51.04 LIG 0.24  C 
ATOM     18 O    PRO B   6      -9.930  -5.268  10.900  1.00 50.92 LIG-0.27  OA
ATOM     19  N   CYS B   7      -7.885  -5.982  11.542  1.00 49.72 LIG-0.34  N 
ATOM     20 H    CYS B   7      -7.373  -6.569  11.904  1.00 49.72 LIG 0.16  HD
BRANCH 19 21
ATOM     21  CA  CYS B   7      -7.174  -4.856  10.901  1.00 48.85 LIG 0.19  C 
BRANCH 21 22
ATOM     22  C   CYS B   7      -7.502  -3.493  11.508  1.00 48.04 LIG 0.20  C 
ATOM     23 OXT  CYS B   7      -6.617  -2.708  11.840  1.00 47.16 LIG-0.65  OA
ATOM     24 O    CYS B   7      -8.671  -3.155  11.673  1.00 47.51 LIG-0.65  OA
ENDBRANCH 21 22
BRANCH 21 25
ATOM     25  CB  CYS B   7      -7.429  -4.850   9.388  1.00 48.98 LIG 0.11  C 
BRANCH 25 26
ATOM     26 SG   CYS B   7      -6.419  -3.629   8.526  1.00 48.50 LIG-0.18  SA
ATOM     27 HG   CYS B   7      -5.302  -4.049   8.401  1.00 48.50 LIG 0.10  HD
ENDBRANCH 25 26
ENDBRANCH 21 25
ENDBRANCH 19 21
ENDBRANCH 13 17
ENDBRANCH 5 10
ENDBRANCH 3 5
BRANCH 1 28
ATOM     28  CA  SER B   4     -14.092  -3.839  12.766  1.00 57.59 LIG 0.20  C 
BRANCH 28 29
ATOM     29  N   SER B   4     -15.101  -4.845  13.121  1.00 58.14 LIG-0.34  N 
ATOM     30  C   SER B   3     -15.541  -5.753  12.250  1.00 58.75 LIG 0.24  C 
ATOM     31 O    SER B   3     -15.022  -5.916  11.143  1.00 58.75 LIG-0.27  OA
ATOM     32 H    SER B   4     -15.378  -4.792  13.934  1.00 58.14 LIG 0.16  HD
BRANCH 30 33
ATOM     33  CA  SER B   3     -16.734  -6.626  12.697  1.00 59.17 LIG 0.20  C 
BRANCH 33 34
ATOM     34  N   SER B   3     -16.803  -6.709  14.164  1.00 59.50 LIG-0.34  N 
ATOM     35  C   PRO B   2     -15.992  -7.441  14.940  1.00 59.86 LIG 0.25  C 
ATOM     36 O    PRO B   2     -16.168  -7.535  16.160  1.00 59.80 LIG-0.27  OA
ATOM     37 H    SER B   3     -17.436  -6.227  14.492  1.00 59.50 LIG 0.16  HD
BRANCH 35 38
ATOM     38  CA  PRO B   2     -14.813  -8.196  14.305  1.00 60.11 LIG 0.35  C 
ATOM     39  CB  PRO B   2     -15.247  -9.574  13.781  1.00 60.16 LIG 0.05  C 
ATOM     40  CG  PRO B   2     -14.150 -10.513  14.158  1.00 60.30 LIG 0.04  C 
ATOM     41  CD  PRO B   2     -13.546  -9.973  15.411  1.00 60.25 LIG 0.32  C 
ATOM     42  N   PRO B   2     -13.784  -8.523  15.304  1.00 60.27 LIG 0.32  N 
ENDBRANCH 35 38
ENDBRANCH 33 34
BRANCH 33 43
ATOM     43  CB  SER B   3     -18.040  -6.047  12.138  1.00 59.26 LIG 0.20  C 
BRANCH 43 44
ATOM     44 OG   SER B   3     -18.803  -5.434  13.164  1.00 59.53 LIG-0.40  OA
ATOM     45 HG   SER B   3     -19.380  -5.975  13.446  1.00 59.53 LIG 0.21  HD
ENDBRANCH 43 44
ENDBRANCH 33 43
ENDBRANCH 30 33
ENDBRANCH 28 29
BRANCH 28 46
ATOM     46  CB  SER B   4     -14.533  -2.484  13.323  1.00 57.64 LIG 0.20  C 
BRANCH 46 47
ATOM     47 OG   SER B   4     -14.902  -2.596  14.691  1.00 57.32 LIG-0.40  OA
ATOM     48 HG   SER B   4     -14.743  -1.872  15.085  1.00 57.32 LIG 0.21  HD
ENDBRANCH 46 47
ENDBRANCH 28 46
ENDBRANCH 1 28
TORSDOF 18
ENDMDL
MODEL 72
USER: ADFR SOLUTION from run 148
USER: SCORE 13.819399 LL:  -3.196 LR: -11.301 RR:   0.000 FEB:  -5.932
USER: RMSD 5.746782
USER: SEED 147
USER: STATUS no improvement in best in 5 clusters for 5 generations
USER: GENES 20
USER: genes 0 Translation |==|  0.66878 0.36589 0.45931
USER: genes 1 Rotation |==|  0.25488 0.39218 0.61769 0.90551
USER: genes 2 Torsion [C]-N--CA-[CB] |==|  0.17008
USER: genes 3 Torsion [N]-CA--CB-[CG2] |==|  0.70842
USER: genes 4 Torsion [CA]-CB--OG1-[HG1] |==|  0.22512
USER: genes 5 Torsion [N]-CA--C-[N] |==|  0.11959
USER: genes 6 Torsion [N]-CA--C-[O] |==|  0.75400
USER: genes 7 Torsion [C]-N--CA-[CB] |==|  0.20451
USER: genes 8 Torsion [N]-CA--C-[O] |==|  0.77304
USER: genes 9 Torsion [N]-CA--CB-[SG] |==|  0.79458
USER: genes 10 Torsion [CA]-CB--SG-[HG] |==|  0.23666
USER: genes 11 Torsion [N]-C--CA-[N] |==|  0.16735
USER: genes 12 Torsion [C]-CA--N-[C] |==|  0.71826
USER: genes 13 Torsion [N]-C--CA-[N] |==|  0.33896
USER: genes 14 Torsion [C]-CA--N-[C] |==|  0.83194
USER: genes 15 Torsion [N]-C--CA-[N] |==|  0.27250
USER: genes 16 Torsion [C]-CA--CB-[OG] |==|  0.66291
USER: genes 17 Torsion [CA]-CB--OG-[HG] |==|  0.26608
USER: genes 18 Torsion [C]-CA--CB-[OG] |==|  0.60930
USER: genes 19 Torsion [CA]-CB--OG-[HG] |==|  0.38718
ROOT
ATOM      1  C   SER B   4     -14.736  -9.863  14.455  1.00 56.97 LIG 0.24  C 
ATOM      2 O    SER B   4     -14.161 -10.918  14.171  1.00 57.23 LIG-0.27  OA
ATOM      3  N   THR B   5     -14.169  -8.663  14.295  1.00 55.89 LIG-0.34  N 
ATOM      4 H    THR B   5     -14.551  -7.920  14.502  1.00 55.89 LIG 0.16  HD
ENDROOT
BRANCH 3 5
ATOM      5  CA  THR B   5     -12.813  -8.515  13.740  1.00 55.10 LIG 0.20  C 
BRANCH 5 6
ATOM      6  CB  THR B   5     -12.721  -9.079  12.276  1.00 55.33 LIG 0.15  C 
ATOM      7  CG2 THR B   5     -11.991 -10.428  12.233  1.00 55.26 LIG 0.04  C 
BRANCH 6 8
ATOM      8 OG1  THR B   5     -14.036  -9.233  11.716  1.00 55.55 LIG-0.39  OA
ATOM      9 HG1  THR B   5     -14.309  -8.491  11.432  1.00 55.55 LIG 0.21  HD
ENDBRANCH 6 8
ENDBRANCH 5 6
BRANCH 5 10
ATOM     10  C   THR B   5     -12.279  -7.071  13.779  1.00 54.13 LIG 0.24  C 
ATOM     11  N   PRO B   6     -12.492  -6.360  14.909  1.00 52.90 LIG-0.34  N 
ATOM     12  CD  PRO B   6     -13.266  -6.770  16.098  1.00 52.89 LIG 0.13  C 
ATOM     13  CA  PRO B   6     -11.932  -5.010  15.059  1.00 51.99 LIG 0.18  C 
ATOM     14  CG  PRO B   6     -13.272  -5.539  16.968  1.00 52.79 LIG 0.02  C 
ATOM     15  CB  PRO B   6     -12.127  -4.704  16.548  1.00 51.93 LIG 0.04  C 
ATOM     16 O    THR B   5     -11.661  -6.608  12.809  1.00 54.19 LIG-0.27  OA
BRANCH 13 17
ATOM     17  C   PRO B   6     -10.450  -4.991  14.697  1.00 51.04 LIG 0.24  C 
ATOM     18 O    PRO B   6      -9.609  -5.227  15.569  1.00 50.92 LIG-0.27  OA
ATOM     19  N   CYS B   7     -10.131  -4.719  13.431  1.00 49.72 LIG-0.34  N 
ATOM     20 H    CYS B   7     -10.696  -4.464  12.834  1.00 49.72 LIG 0.16  HD
BRANCH 19 21
ATOM     21  CA  CYS B   7      -8.740  -4.842  12.950  1.00 48.85 LIG 0.19  C 
BRANCH 21 22
ATOM     22  C   CYS B   7      -8.464  -4.081  11.654  1.00 48.04 LIG 0.20  C 
ATOM     23 OXT  CYS B   7      -7.939  -2.970  11.660  1.00 47.16 LIG-0.65  OA
ATOM     24 O    CYS B   7      -8.765  -4.576  10.571  1.00 47.51 LIG-0.65  OA
ENDBRANCH 21 22
BRANCH 21 25
ATOM     25  CB  CYS B   7      -8.350  -6.319  12.803  1.00 48.98 LIG 0.11  C 
BRANCH 25 26
ATOM     26 SG   CYS B   7      -8.073  -7.117  14.398  1.00 48.50 LIG-0.18  SA
ATOM     27 HG   CYS B   7      -9.120  -7.504  14.839  1.00 48.50 LIG 0.10  HD
ENDBRANCH 25 26
ENDBRANCH 21 25
ENDBRANCH 19 21
ENDBRANCH 13 17
ENDBRANCH 5 10
ENDBRANCH 3 5
BRANCH 1 28
ATOM     28  CA  SER B   4     -16.157  -9.887  15.030  1.00 57.59 LIG 0.20  C 
BRANCH 28 29
ATOM     29  N   SER B   4     -17.118  -9.161  14.189  1.00 58.14 LIG-0.34  N 
ATOM     30  C   SER B   3     -17.538  -7.931  14.485  1.00 58.75 LIG 0.24  C 
ATOM     31 O    SER B   3     -17.034  -7.258  15.389  1.00 58.75 LIG-0.27  OA
ATOM     32 H    SER B   4     -17.381  -9.600  13.497  1.00 58.14 LIG 0.16  HD
BRANCH 30 33
ATOM     33  CA  SER B   3     -18.686  -7.360  13.624  1.00 59.17 LIG 0.20  C 
BRANCH 33 34
ATOM     34  N   SER B   3     -19.838  -6.994  14.461  1.00 59.50 LIG-0.34  N 
ATOM     35  C   PRO B   2     -20.535  -7.836  15.235  1.00 59.86 LIG 0.25  C 
ATOM     36 O    PRO B   2     -21.551  -7.476  15.841  1.00 59.80 LIG-0.27  OA
ATOM     37 H    SER B   3     -20.032  -6.157  14.408  1.00 59.50 LIG 0.16  HD
BRANCH 35 38
ATOM     38  CA  PRO B   2     -20.074  -9.297  15.373  1.00 60.11 LIG 0.35  C 
ATOM     39  CB  PRO B   2     -21.269 -10.247  15.552  1.00 60.16 LIG 0.05  C 
ATOM     40  CG  PRO B   2     -20.855 -11.224  16.600  1.00 60.30 LIG 0.04  C 
ATOM     41  CD  PRO B   2     -19.904 -10.502  17.495  1.00 60.25 LIG 0.32  C 
ATOM     42  N   PRO B   2     -19.295  -9.500  16.604  1.00 60.27 LIG 0.32  N 
ENDBRANCH 35 38
ENDBRANCH 33 34
BRANCH 33 43
ATOM     43  CB  SER B   3     -18.190  -6.137  12.842  1.00 59.26 LIG 0.20  C 
BRANCH 43 44
ATOM     44 OG   SER B   3     -18.958  -4.988  13.157  1.00 59.53 LIG-0.40  OA
ATOM     45 HG   SER B   3     -18.568  -4.545  13.755  1.00 59.53 LIG 0.21  HD
ENDBRANCH 43 44
ENDBRANCH 33 43
ENDBRANCH 30 33
ENDBRANCH 28 29
BRANCH 28 46
ATOM     46  CB  SER B   4     -16.635 -11.334  15.181  1.00 57.64 LIG 0.20  C 
BRANCH 46 47
ATOM     47 OG   SER B   4     -18.005 -11.454  14.823  1.00 57.32 LIG-0.40  OA
ATOM     48 HG   SER B   4     -18.119 -12.161  14.386  1.00 57.32 LIG 0.21  HD
ENDBRANCH 46 47
ENDBRANCH 28 46
ENDBRANCH 1 28
TORSDOF 18
ENDMDL
MODEL 73
USER: ADFR SOLUTION from run 104
USER: SCORE 12.814615 LL:  -2.945 LR: -11.271 RR:   0.000 FEB:  -5.901
USER: RMSD 8.822140
USER: SEED 103
USER: STATUS no improvement in best in 16 clusters for 5 generations
USER: GENES 20
USER: genes 0 Translation |==|  0.72031 0.52529 0.47797
USER: genes 1 Rotation |==|  0.87510 0.75476 0.50171 0.71071
USER: genes 2 Torsion [C]-N--CA-[CB] |==|  0.18204
USER: genes 3 Torsion [N]-CA--CB-[CG2] |==|  0.68767
USER: genes 4 Torsion [CA]-CB--OG1-[HG1] |==|  0.02553
USER: genes 5 Torsion [N]-CA--C-[N] |==|  0.81699
USER: genes 6 Torsion [N]-CA--C-[O] |==|  0.33051
USER: genes 7 Torsion [C]-N--CA-[CB] |==|  0.50936
USER: genes 8 Torsion [N]-CA--C-[O] |==|  0.36111
USER: genes 9 Torsion [N]-CA--CB-[SG] |==|  0.95164
USER: genes 10 Torsion [CA]-CB--SG-[HG] |==|  0.90970
USER: genes 11 Torsion [N]-C--CA-[N] |==|  0.30006
USER: genes 12 Torsion [C]-CA--N-[C] |==|  0.56712
USER: genes 13 Torsion [N]-C--CA-[N] |==|  0.16048
USER: genes 14 Torsion [C]-CA--N-[C] |==|  0.15421
USER: genes 15 Torsion [N]-C--CA-[N] |==|  0.28949
USER: genes 16 Torsion [C]-CA--CB-[OG] |==|  0.52383
USER: genes 17 Torsion [CA]-CB--OG-[HG] |==|  0.74238
USER: genes 18 Torsion [C]-CA--CB-[OG] |==|  0.40501
USER: genes 19 Torsion [CA]-CB--OG-[HG] |==|  0.90497
ROOT
ATOM      1  C   SER B   4     -13.267  -7.472  14.721  1.00 56.97 LIG 0.24  C 
ATOM      2 O    SER B   4     -14.089  -6.847  15.398  1.00 57.23 LIG-0.27  OA
ATOM      3  N   THR B   5     -12.119  -6.935  14.297  1.00 55.89 LIG-0.34  N 
ATOM      4 H    THR B   5     -11.544  -7.353  13.813  1.00 55.89 LIG 0.16  HD
ENDROOT
BRANCH 3 5
ATOM      5  CA  THR B   5     -11.740  -5.552  14.632  1.00 55.10 LIG 0.20  C 
BRANCH 5 6
ATOM      6  CB  THR B   5     -11.496  -5.374  16.174  1.00 55.33 LIG 0.15  C 
ATOM      7  CG2 THR B   5     -12.561  -4.476  16.817  1.00 55.26 LIG 0.04  C 
BRANCH 6 8
ATOM      8 OG1  THR B   5     -11.494  -6.654  16.830  1.00 55.55 LIG-0.39  OA
ATOM      9 HG1  THR B   5     -11.498  -7.265  16.254  1.00 55.55 LIG 0.21  HD
ENDBRANCH 6 8
ENDBRANCH 5 6
BRANCH 5 10
ATOM     10  C   THR B   5     -10.522  -5.032  13.845  1.00 54.13 LIG 0.24  C 
ATOM     11  N   PRO B   6      -9.331  -5.626  14.080  1.00 52.90 LIG-0.34  N 
ATOM     12  CD  PRO B   6      -9.027  -6.668  15.080  1.00 52.89 LIG 0.13  C 
ATOM     13  CA  PRO B   6      -8.143  -5.249  13.302  1.00 51.99 LIG 0.18  C 
ATOM     14  CG  PRO B   6      -7.532  -6.842  14.978  1.00 52.79 LIG 0.02  C 
ATOM     15  CB  PRO B   6      -7.126  -6.343  13.647  1.00 51.93 LIG 0.04  C 
ATOM     16 O    THR B   5     -10.658  -4.119  13.018  1.00 54.19 LIG-0.27  OA
BRANCH 13 17
ATOM     17  C   PRO B   6      -8.446  -5.252  11.807  1.00 51.04 LIG 0.24  C 
ATOM     18 O    PRO B   6      -8.330  -4.206  11.161  1.00 50.92 LIG-0.27  OA
ATOM     19  N   CYS B   7      -8.824  -6.409  11.260  1.00 49.72 LIG-0.34  N 
ATOM     20 H    CYS B   7      -8.997  -7.121  11.708  1.00 49.72 LIG 0.16  HD
BRANCH 19 21
ATOM     21  CA  CYS B   7      -8.976  -6.549   9.798  1.00 48.85 LIG 0.19  C 
BRANCH 21 22
ATOM     22  C   CYS B   7      -9.851  -5.470   9.161  1.00 48.04 LIG 0.20  C 
ATOM     23 OXT  CYS B   7     -10.961  -5.194   9.611  1.00 47.16 LIG-0.65  OA
ATOM     24 O    CYS B   7      -9.453  -4.851   8.178  1.00 47.51 LIG-0.65  OA
ENDBRANCH 21 22
BRANCH 21 25
ATOM     25  CB  CYS B   7      -9.498  -7.947   9.442  1.00 48.98 LIG 0.11  C 
BRANCH 25 26
ATOM     26 SG   CYS B   7      -9.289  -9.122  10.796  1.00 48.50 LIG-0.18  SA
ATOM     27 HG   CYS B   7      -8.298  -8.848  11.414  1.00 48.50 LIG 0.10  HD
ENDBRANCH 25 26
ENDBRANCH 21 25
ENDBRANCH 19 21
ENDBRANCH 13 17
ENDBRANCH 5 10
ENDBRANCH 3 5
BRANCH 1 28
ATOM     28  CA  SER B   4     -13.543  -8.925  14.320  1.00 57.59 LIG 0.20  C 
BRANCH 28 29
ATOM     29  N   SER B   4     -13.423  -9.856  15.450  1.00 58.14 LIG-0.34  N 
ATOM     30  C   SER B   3     -13.153 -11.151  15.282  1.00 58.75 LIG 0.24  C 
ATOM     31 O    SER B   3     -12.830 -11.624  14.190  1.00 58.75 LIG-0.27  OA
ATOM     32 H    SER B   4     -13.542  -9.490  16.219  1.00 58.14 LIG 0.16  HD
BRANCH 30 33
ATOM     33  CA  SER B   3     -13.240 -12.048  16.536  1.00 59.17 LIG 0.20  C 
BRANCH 33 34
ATOM     34  N   SER B   3     -14.579 -11.976  17.141  1.00 59.50 LIG-0.34  N 
ATOM     35  C   PRO B   2     -15.733 -12.231  16.508  1.00 59.86 LIG 0.25  C 
ATOM     36 O    PRO B   2     -16.828 -12.060  17.055  1.00 59.80 LIG-0.27  OA
ATOM     37 H    SER B   3     -14.555 -11.746  17.970  1.00 59.50 LIG 0.16  HD
BRANCH 35 38
ATOM     38  CA  PRO B   2     -15.705 -12.742  15.058  1.00 60.11 LIG 0.35  C 
ATOM     39  CB  PRO B   2     -16.831 -12.113  14.221  1.00 60.16 LIG 0.05  C 
ATOM     40  CG  PRO B   2     -17.379 -13.221  13.386  1.00 60.30 LIG 0.04  C 
ATOM     41  CD  PRO B   2     -17.186 -14.475  14.170  1.00 60.25 LIG 0.32  C 
ATOM     42  N   PRO B   2     -15.997 -14.182  14.990  1.00 60.27 LIG 0.32  N 
ENDBRANCH 35 38
ENDBRANCH 33 34
BRANCH 33 43
ATOM     43  CB  SER B   3     -12.907 -13.498  16.161  1.00 59.26 LIG 0.20  C 
BRANCH 43 44
ATOM     44 OG   SER B   3     -13.169 -14.375  17.245  1.00 59.53 LIG-0.40  OA
ATOM     45 HG   SER B   3     -12.470 -14.475  17.699  1.00 59.53 LIG 0.21  HD
ENDBRANCH 43 44
ENDBRANCH 33 43
ENDBRANCH 30 33
ENDBRANCH 28 29
BRANCH 28 46
ATOM     46  CB  SER B   4     -14.952  -9.047  13.733  1.00 57.64 LIG 0.20  C 
BRANCH 46 47
ATOM     47 OG   SER B   4     -14.988 -10.027  12.705  1.00 57.32 LIG-0.40  OA
ATOM     48 HG   SER B   4     -14.259 -10.024  12.289  1.00 57.32 LIG 0.21  HD
ENDBRANCH 46 47
ENDBRANCH 28 46
ENDBRANCH 1 28
TORSDOF 18
ENDMDL
MODEL 74
USER: ADFR SOLUTION from run 127
USER: SCORE 14.492446 LL:  -4.003 LR: -11.263 RR:   0.000 FEB:  -5.894
USER: RMSD 9.475397
USER: SEED 126
USER: STATUS no improvement in best in 9 clusters for 5 generations
USER: GENES 20
USER: genes 0 Translation |==|  0.68507 0.69144 0.53495
USER: genes 1 Rotation |==|  0.00399 0.47820 0.55223 0.52781
USER: genes 2 Torsion [C]-N--CA-[CB] |==|  0.16667
USER: genes 3 Torsion [N]-CA--CB-[CG2] |==|  0.71316
USER: genes 4 Torsion [CA]-CB--OG1-[HG1] |==|  0.45782
USER: genes 5 Torsion [N]-CA--C-[N] |==|  0.83261
USER: genes 6 Torsion [N]-CA--C-[O] |==|  0.92501
USER: genes 7 Torsion [C]-N--CA-[CB] |==|  0.34599
USER: genes 8 Torsion [N]-CA--C-[O] |==|  0.19300
USER: genes 9 Torsion [N]-CA--CB-[SG] |==|  0.97290
USER: genes 10 Torsion [CA]-CB--SG-[HG] |==|  0.13752
USER: genes 11 Torsion [N]-C--CA-[N] |==|  0.91424
USER: genes 12 Torsion [C]-CA--N-[C] |==|  0.84428
USER: genes 13 Torsion [N]-C--CA-[N] |==|  0.00315
USER: genes 14 Torsion [C]-CA--N-[C] |==|  0.74019
USER: genes 15 Torsion [N]-C--CA-[N] |==|  0.34309
USER: genes 16 Torsion [C]-CA--CB-[OG] |==|  0.56541
USER: genes 17 Torsion [CA]-CB--OG-[HG] |==|  0.27459
USER: genes 18 Torsion [C]-CA--CB-[OG] |==|  0.08519
USER: genes 19 Torsion [CA]-CB--OG-[HG] |==|  0.34134
ROOT
ATOM      1  C   SER B   4     -14.272  -4.979  15.533  1.00 56.97 LIG 0.24  C 
ATOM      2 O    SER B   4     -14.238  -4.848  16.761  1.00 57.23 LIG-0.27  OA
ATOM      3  N   THR B   5     -13.209  -5.355  14.814  1.00 55.89 LIG-0.34  N 
ATOM      4 H    THR B   5     -13.213  -5.437  13.958  1.00 55.89 LIG 0.16  HD
ENDROOT
BRANCH 3 5
ATOM      5  CA  THR B   5     -11.916  -5.665  15.448  1.00 55.10 LIG 0.20  C 
BRANCH 5 6
ATOM      6  CB  THR B   5     -12.040  -6.851  16.471  1.00 55.33 LIG 0.15  C 
ATOM      7  CG2 THR B   5     -12.046  -6.351  17.922  1.00 55.26 LIG 0.04  C 
BRANCH 6 8
ATOM      8 OG1  THR B   5     -13.242  -7.601  16.223  1.00 55.55 LIG-0.39  OA
ATOM      9 HG1  THR B   5     -13.200  -8.338  16.623  1.00 55.55 LIG 0.21  HD
ENDBRANCH 6 8
ENDBRANCH 5 6
BRANCH 5 10
ATOM     10  C   THR B   5     -10.785  -5.955  14.443  1.00 54.13 LIG 0.24  C 
ATOM     11  N   PRO B   6     -10.955  -6.996  13.599  1.00 52.90 LIG-0.34  N 
ATOM     12  CD  PRO B   6     -12.070  -7.964  13.578  1.00 52.89 LIG 0.13  C 
ATOM     13  CA  PRO B   6      -9.964  -7.278  12.552  1.00 51.99 LIG 0.18  C 
ATOM     14  CG  PRO B   6     -11.659  -8.965  12.526  1.00 52.79 LIG 0.02  C 
ATOM     15  CB  PRO B   6     -10.672  -8.297  11.652  1.00 51.93 LIG 0.04  C 
ATOM     16 O    THR B   5      -9.777  -5.233  14.415  1.00 54.19 LIG-0.27  OA
BRANCH 13 17
ATOM     17  C   PRO B   6      -9.625  -6.015  11.767  1.00 51.04 LIG 0.24  C 
ATOM     18 O    PRO B   6     -10.460  -5.110  11.682  1.00 50.92 LIG-0.27  OA
ATOM     19  N   CYS B   7      -8.417  -5.947  11.205  1.00 49.72 LIG-0.34  N 
ATOM     20 H    CYS B   7      -7.860  -6.601  11.177  1.00 49.72 LIG 0.16  HD
BRANCH 19 21
ATOM     21  CA  CYS B   7      -7.938  -4.702  10.570  1.00 48.85 LIG 0.19  C 
BRANCH 21 22
ATOM     22  C   CYS B   7      -7.833  -4.785   9.048  1.00 48.04 LIG 0.20  C 
ATOM     23 OXT  CYS B   7      -6.744  -4.789   8.478  1.00 47.16 LIG-0.65  OA
ATOM     24 O    CYS B   7      -8.849  -4.851   8.361  1.00 47.51 LIG-0.65  OA
ENDBRANCH 21 22
BRANCH 21 25
ATOM     25  CB  CYS B   7      -6.599  -4.267  11.182  1.00 48.98 LIG 0.11  C 
BRANCH 25 26
ATOM     26 SG   CYS B   7      -6.172  -5.226  12.649  1.00 48.50 LIG-0.18  SA
ATOM     27 HG   CYS B   7      -6.286  -6.397  12.410  1.00 48.50 LIG 0.10  HD
ENDBRANCH 25 26
ENDBRANCH 21 25
ENDBRANCH 19 21
ENDBRANCH 13 17
ENDBRANCH 5 10
ENDBRANCH 3 5
BRANCH 1 28
ATOM     28  CA  SER B   4     -15.567  -4.698  14.762  1.00 57.59 LIG 0.20  C 
BRANCH 28 29
ATOM     29  N   SER B   4     -15.317  -4.187  13.408  1.00 58.14 LIG-0.34  N 
ATOM     30  C   SER B   3     -14.583  -3.098  13.180  1.00 58.75 LIG 0.24  C 
ATOM     31 O    SER B   3     -13.934  -2.539  14.068  1.00 58.75 LIG-0.27  OA
ATOM     32 H    SER B   4     -15.685  -4.651  12.784  1.00 58.14 LIG 0.16  HD
BRANCH 30 33
ATOM     33  CA  SER B   3     -14.557  -2.565  11.731  1.00 59.17 LIG 0.20  C 
BRANCH 33 34
ATOM     34  N   SER B   3     -15.406  -3.386  10.855  1.00 59.50 LIG-0.34  N 
ATOM     35  C   PRO B   2     -14.987  -4.425  10.118  1.00 59.86 LIG 0.25  C 
ATOM     36 O    PRO B   2     -15.740  -5.012   9.333  1.00 59.80 LIG-0.27  OA
ATOM     37 H    SER B   3     -16.227  -3.131  10.857  1.00 59.50 LIG 0.16  HD
BRANCH 35 38
ATOM     38  CA  PRO B   2     -13.530  -4.901  10.239  1.00 60.11 LIG 0.35  C 
ATOM     39  CB  PRO B   2     -12.810  -4.851   8.882  1.00 60.16 LIG 0.05  C 
ATOM     40  CG  PRO B   2     -12.004  -6.104   8.806  1.00 60.30 LIG 0.04  C 
ATOM     41  CD  PRO B   2     -12.742  -7.128   9.601  1.00 60.25 LIG 0.32  C 
ATOM     42  N   PRO B   2     -13.459  -6.324  10.606  1.00 60.27 LIG 0.32  N 
ENDBRANCH 35 38
ENDBRANCH 33 34
BRANCH 33 43
ATOM     43  CB  SER B   3     -15.027  -1.105  11.705  1.00 59.26 LIG 0.20  C 
BRANCH 43 44
ATOM     44 OG   SER B   3     -15.526  -0.755  10.425  1.00 59.53 LIG-0.40  OA
ATOM     45 HG   SER B   3     -16.364  -0.800  10.429  1.00 59.53 LIG 0.21  HD
ENDBRANCH 43 44
ENDBRANCH 33 43
ENDBRANCH 30 33
ENDBRANCH 28 29
BRANCH 28 46
ATOM     46  CB  SER B   4     -16.400  -5.978  14.655  1.00 57.64 LIG 0.20  C 
BRANCH 46 47
ATOM     47 OG   SER B   4     -16.187  -6.815  15.784  1.00 57.32 LIG-0.40  OA
ATOM     48 HG   SER B   4     -16.921  -6.968  16.162  1.00 57.32 LIG 0.21  HD
ENDBRANCH 46 47
ENDBRANCH 28 46
ENDBRANCH 1 28
TORSDOF 18
ENDMDL
MODEL 75
USER: ADFR SOLUTION from run 154
USER: SCORE 14.170317 LL:  -4.296 LR: -11.262 RR:   0.000 FEB:  -5.893
USER: RMSD 11.680899
USER: SEED 153
USER: STATUS no improvement in best in 7 clusters for 5 generations
USER: GENES 20
USER: genes 0 Translation |==|  0.84951 0.65149 0.41178
USER: genes 1 Rotation |==|  0.73245 0.29576 0.88497 0.57778
USER: genes 2 Torsion [C]-N--CA-[CB] |==|  0.84585
USER: genes 3 Torsion [N]-CA--CB-[CG2] |==|  0.56988
USER: genes 4 Torsion [CA]-CB--OG1-[HG1] |==|  0.45502
USER: genes 5 Torsion [N]-CA--C-[N] |==|  0.34086
USER: genes 6 Torsion [N]-CA--C-[O] |==|  0.74451
USER: genes 7 Torsion [C]-N--CA-[CB] |==|  0.20717
USER: genes 8 Torsion [N]-CA--C-[O] |==|  0.45274
USER: genes 9 Torsion [N]-CA--CB-[SG] |==|  0.83313
USER: genes 10 Torsion [CA]-CB--SG-[HG] |==|  0.57844
USER: genes 11 Torsion [N]-C--CA-[N] |==|  0.31667
USER: genes 12 Torsion [C]-CA--N-[C] |==|  0.17234
USER: genes 13 Torsion [N]-C--CA-[N] |==|  0.34231
USER: genes 14 Torsion [C]-CA--N-[C] |==|  0.81622
USER: genes 15 Torsion [N]-C--CA-[N] |==|  0.46212
USER: genes 16 Torsion [C]-CA--CB-[OG] |==|  0.96366
USER: genes 17 Torsion [CA]-CB--OG-[HG] |==|  0.14766
USER: genes 18 Torsion [C]-CA--CB-[OG] |==|  0.61537
USER: genes 19 Torsion [CA]-CB--OG-[HG] |==|  0.48812
ROOT
ATOM      1  C   SER B   4      -9.585  -5.579  13.778  1.00 56.97 LIG 0.24  C 
ATOM      2 O    SER B   4     -10.009  -4.463  13.462  1.00 57.23 LIG-0.27  OA
ATOM      3  N   THR B   5     -10.255  -6.407  14.584  1.00 55.89 LIG-0.34  N 
ATOM      4 H    THR B   5      -9.967  -7.181  14.824  1.00 55.89 LIG 0.16  HD
ENDROOT
BRANCH 3 5
ATOM      5  CA  THR B   5     -11.573  -6.052  15.138  1.00 55.10 LIG 0.20  C 
BRANCH 5 6
ATOM      6  CB  THR B   5     -11.526  -4.689  15.918  1.00 55.33 LIG 0.15  C 
ATOM      7  CG2 THR B   5     -12.633  -4.604  16.978  1.00 55.26 LIG 0.04  C 
BRANCH 6 8
ATOM      8 OG1  THR B   5     -10.247  -4.520  16.553  1.00 55.55 LIG-0.39  OA
ATOM      9 HG1  THR B   5     -10.147  -3.716  16.774  1.00 55.55 LIG 0.21  HD
ENDBRANCH 6 8
ENDBRANCH 5 6
BRANCH 5 10
ATOM     10  C   THR B   5     -12.700  -6.017  14.089  1.00 54.13 LIG 0.24  C 
ATOM     11  N   PRO B   6     -13.770  -6.815  14.300  1.00 52.90 LIG-0.34  N 
ATOM     12  CD  PRO B   6     -13.958  -7.801  15.383  1.00 52.89 LIG 0.13  C 
ATOM     13  CA  PRO B   6     -14.927  -6.769  13.394  1.00 51.99 LIG 0.18  C 
ATOM     14  CG  PRO B   6     -15.261  -8.477  15.035  1.00 52.79 LIG 0.02  C 
ATOM     15  CB  PRO B   6     -16.004  -7.558  14.147  1.00 51.93 LIG 0.04  C 
ATOM     16 O    THR B   5     -12.616  -5.263  13.109  1.00 54.19 LIG-0.27  OA
BRANCH 13 17
ATOM     17  C   PRO B   6     -15.380  -5.331  13.161  1.00 51.04 LIG 0.24  C 
ATOM     18 O    PRO B   6     -16.250  -4.843  13.889  1.00 50.92 LIG-0.27  OA
ATOM     19  N   CYS B   7     -14.799  -4.658  12.168  1.00 49.72 LIG-0.34  N 
ATOM     20 H    CYS B   7     -14.260  -5.009  11.597  1.00 49.72 LIG 0.16  HD
BRANCH 19 21
ATOM     21  CA  CYS B   7     -15.049  -3.215  11.973  1.00 48.85 LIG 0.19  C 
BRANCH 21 22
ATOM     22  C   CYS B   7     -14.716  -2.714  10.569  1.00 48.04 LIG 0.20  C 
ATOM     23 OXT  CYS B   7     -14.009  -3.366   9.804  1.00 47.16 LIG-0.65  OA
ATOM     24 O    CYS B   7     -15.158  -1.638  10.176  1.00 47.51 LIG-0.65  OA
ENDBRANCH 21 22
BRANCH 21 25
ATOM     25  CB  CYS B   7     -14.304  -2.392  13.032  1.00 48.98 LIG 0.11  C 
BRANCH 25 26
ATOM     26 SG   CYS B   7     -14.819  -2.807  14.711  1.00 48.50 LIG-0.18  SA
ATOM     27 HG   CYS B   7     -14.674  -1.851  15.422  1.00 48.50 LIG 0.10  HD
ENDBRANCH 25 26
ENDBRANCH 21 25
ENDBRANCH 19 21
ENDBRANCH 13 17
ENDBRANCH 5 10
ENDBRANCH 3 5
BRANCH 1 28
ATOM     28  CA  SER B   4      -8.230  -6.067  13.253  1.00 57.59 LIG 0.20  C 
BRANCH 28 29
ATOM     29  N   SER B   4      -8.230  -6.276  11.799  1.00 58.14 LIG-0.34  N 
ATOM     30  C   SER B   3      -8.448  -5.284  10.935  1.00 58.75 LIG 0.24  C 
ATOM     31 O    SER B   3      -8.506  -4.102  11.285  1.00 58.75 LIG-0.27  OA
ATOM     32 H    SER B   4      -8.078  -7.089  11.561  1.00 58.14 LIG 0.16  HD
BRANCH 30 33
ATOM     33  CA  SER B   3      -8.606  -5.675   9.450  1.00 59.17 LIG 0.20  C 
BRANCH 33 34
ATOM     34  N   SER B   3      -9.892  -5.201   8.917  1.00 59.50 LIG-0.34  N 
ATOM     35  C   PRO B   2     -11.100  -5.635   9.300  1.00 59.86 LIG 0.25  C 
ATOM     36 O    PRO B   2     -12.137  -5.258   8.742  1.00 59.80 LIG-0.27  OA
ATOM     37 H    SER B   3      -9.796  -4.595   8.313  1.00 59.50 LIG 0.16  HD
BRANCH 35 38
ATOM     38  CA  PRO B   2     -11.212  -6.639  10.459  1.00 60.11 LIG 0.35  C 
ATOM     39  CB  PRO B   2     -10.885  -8.068   9.997  1.00 60.16 LIG 0.05  C 
ATOM     40  CG  PRO B   2     -11.892  -8.947  10.659  1.00 60.30 LIG 0.04  C 
ATOM     41  CD  PRO B   2     -13.123  -8.121  10.832  1.00 60.25 LIG 0.32  C 
ATOM     42  N   PRO B   2     -12.597  -6.749  10.943  1.00 60.27 LIG 0.32  N 
ENDBRANCH 35 38
ENDBRANCH 33 34
BRANCH 33 43
ATOM     43  CB  SER B   3      -7.447  -5.091   8.633  1.00 59.26 LIG 0.20  C 
BRANCH 43 44
ATOM     44 OG   SER B   3      -6.732  -4.124   9.385  1.00 59.53 LIG-0.40  OA
ATOM     45 HG   SER B   3      -6.500  -4.457  10.119  1.00 59.53 LIG 0.21  HD
ENDBRANCH 43 44
ENDBRANCH 33 43
ENDBRANCH 30 33
ENDBRANCH 28 29
BRANCH 28 46
ATOM     46  CB  SER B   4      -7.138  -5.053  13.601  1.00 57.64 LIG 0.20  C 
BRANCH 46 47
ATOM     47 OG   SER B   4      -6.244  -4.877  12.510  1.00 57.32 LIG-0.40  OA
ATOM     48 HG   SER B   4      -5.688  -4.277  12.697  1.00 57.32 LIG 0.21  HD
ENDBRANCH 46 47
ENDBRANCH 28 46
ENDBRANCH 1 28
TORSDOF 18
ENDMDL
MODEL 76
USER: ADFR SOLUTION from run 150
USER: SCORE 13.670619 LL:  -3.522 LR: -11.240 RR:   0.000 FEB:  -5.871
USER: RMSD 7.712416
USER: SEED 149
USER: STATUS no improvement in best in 8 clusters for 5 generations
USER: GENES 20
USER: genes 0 Translation |==|  0.73511 0.38598 0.46576
USER: genes 1 Rotation |==|  0.61087 0.43985 0.75459 0.91143
USER: genes 2 Torsion [C]-N--CA-[CB] |==|  0.53468
USER: genes 3 Torsion [N]-CA--CB-[CG2] |==|  0.41130
USER: genes 4 Torsion [CA]-CB--OG1-[HG1] |==|  0.65383
USER: genes 5 Torsion [N]-CA--C-[N] |==|  0.30161
USER: genes 6 Torsion [N]-CA--C-[O] |==|  0.93745
USER: genes 7 Torsion [C]-N--CA-[CB] |==|  0.30592
USER: genes 8 Torsion [N]-CA--C-[O] |==|  0.63595
USER: genes 9 Torsion [N]-CA--CB-[SG] |==|  0.86160
USER: genes 10 Torsion [CA]-CB--SG-[HG] |==|  0.24515
USER: genes 11 Torsion [N]-C--CA-[N] |==|  0.23940
USER: genes 12 Torsion [C]-CA--N-[C] |==|  0.65574
USER: genes 13 Torsion [N]-C--CA-[N] |==|  0.99132
USER: genes 14 Torsion [C]-CA--N-[C] |==|  0.78889
USER: genes 15 Torsion [N]-C--CA-[N] |==|  0.24901
USER: genes 16 Torsion [C]-CA--CB-[OG] |==|  0.36387
USER: genes 17 Torsion [CA]-CB--OG-[HG] |==|  0.26081
USER: genes 18 Torsion [C]-CA--CB-[OG] |==|  0.81959
USER: genes 19 Torsion [CA]-CB--OG-[HG] |==|  0.11707
ROOT
ATOM      1  C   SER B   4     -12.845  -9.561  14.547  1.00 56.97 LIG 0.24  C 
ATOM      2 O    SER B   4     -12.726  -9.247  13.359  1.00 57.23 LIG-0.27  OA
ATOM      3  N   THR B   5     -12.794  -8.670  15.542  1.00 55.89 LIG-0.34  N 
ATOM      4 H    THR B   5     -12.861  -8.876  16.374  1.00 55.89 LIG 0.16  HD
ENDROOT
BRANCH 3 5
ATOM      5  CA  THR B   5     -12.614  -7.231  15.284  1.00 55.10 LIG 0.20  C 
BRANCH 5 6
ATOM      6  CB  THR B   5     -12.274  -6.444  16.600  1.00 55.33 LIG 0.15  C 
ATOM      7  CG2 THR B   5     -11.360  -5.242  16.323  1.00 55.26 LIG 0.04  C 
BRANCH 6 8
ATOM      8 OG1  THR B   5     -13.480  -5.986  17.235  1.00 55.55 LIG-0.39  OA
ATOM      9 HG1  THR B   5     -13.440  -5.155  17.347  1.00 55.55 LIG 0.21  HD
ENDBRANCH 6 8
ENDBRANCH 5 6
BRANCH 5 10
ATOM     10  C   THR B   5     -11.565  -6.920  14.200  1.00 54.13 LIG 0.24  C 
ATOM     11  N   PRO B   6     -12.016  -6.461  13.012  1.00 52.90 LIG-0.34  N 
ATOM     12  CD  PRO B   6     -13.420  -6.304  12.583  1.00 52.89 LIG 0.13  C 
ATOM     13  CA  PRO B   6     -11.072  -6.054  11.962  1.00 51.99 LIG 0.18  C 
ATOM     14  CG  PRO B   6     -13.311  -5.889  11.137  1.00 52.79 LIG 0.02  C 
ATOM     15  CB  PRO B   6     -11.959  -5.323  10.947  1.00 51.93 LIG 0.04  C 
ATOM     16 O    THR B   5     -10.358  -7.071  14.440  1.00 54.19 LIG-0.27  OA
BRANCH 13 17
ATOM     17  C   PRO B   6     -10.009  -5.113  12.519  1.00 51.04 LIG 0.24  C 
ATOM     18 O    PRO B   6     -10.242  -4.475  13.550  1.00 50.92 LIG-0.27  OA
ATOM     19  N   CYS B   7      -8.856  -5.028  11.854  1.00 49.72 LIG-0.34  N 
ATOM     20 H    CYS B   7      -8.711  -5.393  11.089  1.00 49.72 LIG 0.16  HD
BRANCH 19 21
ATOM     21  CA  CYS B   7      -7.710  -4.276  12.405  1.00 48.85 LIG 0.19  C 
BRANCH 21 22
ATOM     22  C   CYS B   7      -7.173  -3.195  11.469  1.00 48.04 LIG 0.20  C 
ATOM     23 OXT  CYS B   7      -7.921  -2.382  10.930  1.00 47.16 LIG-0.65  OA
ATOM     24 O    CYS B   7      -5.969  -3.118  11.239  1.00 47.51 LIG-0.65  OA
ENDBRANCH 21 22
BRANCH 21 25
ATOM     25  CB  CYS B   7      -6.587  -5.236  12.822  1.00 48.98 LIG 0.11  C 
BRANCH 25 26
ATOM     26 SG   CYS B   7      -7.188  -6.587  13.856  1.00 48.50 LIG-0.18  SA
ATOM     27 HG   CYS B   7      -7.543  -7.497  13.160  1.00 48.50 LIG 0.10  HD
ENDBRANCH 25 26
ENDBRANCH 21 25
ENDBRANCH 19 21
ENDBRANCH 13 17
ENDBRANCH 5 10
ENDBRANCH 3 5
BRANCH 1 28
ATOM     28  CA  SER B   4     -13.052 -11.029  14.941  1.00 57.59 LIG 0.20  C 
BRANCH 28 29
ATOM     29  N   SER B   4     -14.470 -11.379  15.092  1.00 58.14 LIG-0.34  N 
ATOM     30  C   SER B   3     -14.960 -11.901  16.217  1.00 58.75 LIG 0.24  C 
ATOM     31 O    SER B   3     -14.298 -11.979  17.255  1.00 58.75 LIG-0.27  OA
ATOM     32 H    SER B   4     -14.948 -11.216  14.395  1.00 58.14 LIG 0.16  HD
BRANCH 30 33
ATOM     33  CA  SER B   3     -16.423 -12.394  16.176  1.00 59.17 LIG 0.20  C 
BRANCH 33 34
ATOM     34  N   SER B   3     -17.035 -12.113  14.869  1.00 59.50 LIG-0.34  N 
ATOM     35  C   PRO B   2     -17.461 -10.912  14.452  1.00 59.86 LIG 0.25  C 
ATOM     36 O    PRO B   2     -18.051 -10.767  13.376  1.00 59.80 LIG-0.27  OA
ATOM     37 H    SER B   3     -17.099 -12.815  14.376  1.00 59.50 LIG 0.16  HD
BRANCH 35 38
ATOM     38  CA  PRO B   2     -17.222  -9.675  15.334  1.00 60.11 LIG 0.35  C 
ATOM     39  CB  PRO B   2     -18.244  -8.567  15.034  1.00 60.16 LIG 0.05  C 
ATOM     40  CG  PRO B   2     -17.469  -7.293  15.035  1.00 60.30 LIG 0.04  C 
ATOM     41  CD  PRO B   2     -16.088  -7.640  14.590  1.00 60.25 LIG 0.32  C 
ATOM     42  N   PRO B   2     -15.932  -9.038  15.027  1.00 60.27 LIG 0.32  N 
ENDBRANCH 35 38
ENDBRANCH 33 34
BRANCH 33 43
ATOM     43  CB  SER B   3     -16.472 -13.899  16.470  1.00 59.26 LIG 0.20  C 
BRANCH 43 44
ATOM     44 OG   SER B   3     -17.445 -14.191  17.460  1.00 59.53 LIG-0.40  OA
ATOM     45 HG   SER B   3     -18.170 -14.393  17.088  1.00 59.53 LIG 0.21  HD
ENDBRANCH 43 44
ENDBRANCH 33 43
ENDBRANCH 30 33
ENDBRANCH 28 29
BRANCH 28 46
ATOM     46  CB  SER B   4     -12.432 -11.946  13.883  1.00 57.64 LIG 0.20  C 
BRANCH 46 47
ATOM     47 OG   SER B   4     -13.107 -11.812  12.640  1.00 57.32 LIG-0.40  OA
ATOM     48 HG   SER B   4     -13.266 -11.001  12.493  1.00 57.32 LIG 0.21  HD
ENDBRANCH 46 47
ENDBRANCH 28 46
ENDBRANCH 1 28
TORSDOF 18
ENDMDL
MODEL 77
USER: ADFR SOLUTION from run 197
USER: SCORE 12.643736 LL:  -2.425 LR: -11.222 RR:   0.000 FEB:  -5.853
USER: RMSD 6.908082
USER: SEED 196
USER: STATUS no improvement in best in 3 clusters for 5 generations
USER: GENES 20
USER: genes 0 Translation |==|  0.67353 0.65442 0.49737
USER: genes 1 Rotation |==|  0.02490 0.55899 0.54590 0.63672
USER: genes 2 Torsion [C]-N--CA-[CB] |==|  0.20674
USER: genes 3 Torsion [N]-CA--CB-[CG2] |==|  0.31425
USER: genes 4 Torsion [CA]-CB--OG1-[HG1] |==|  0.13453
USER: genes 5 Torsion [N]-CA--C-[N] |==|  0.87005
USER: genes 6 Torsion [N]-CA--C-[O] |==|  0.80106
USER: genes 7 Torsion [C]-N--CA-[CB] |==|  0.47122
USER: genes 8 Torsion [N]-CA--C-[O] |==|  0.70553
USER: genes 9 Torsion [N]-CA--CB-[SG] |==|  0.90255
USER: genes 10 Torsion [CA]-CB--SG-[HG] |==|  0.22010
USER: genes 11 Torsion [N]-C--CA-[N] |==|  0.32246
USER: genes 12 Torsion [C]-CA--N-[C] |==|  0.77428
USER: genes 13 Torsion [N]-C--CA-[N] |==|  0.48009
USER: genes 14 Torsion [C]-CA--N-[C] |==|  0.74547
USER: genes 15 Torsion [N]-C--CA-[N] |==|  0.34875
USER: genes 16 Torsion [C]-CA--CB-[OG] |==|  0.86369
USER: genes 17 Torsion [CA]-CB--OG-[HG] |==|  0.36956
USER: genes 18 Torsion [C]-CA--CB-[OG] |==|  0.20918
USER: genes 19 Torsion [CA]-CB--OG-[HG] |==|  0.47838
ROOT
ATOM      1  C   SER B   4     -14.600  -5.535  14.998  1.00 56.97 LIG 0.24  C 
ATOM      2 O    SER B   4     -14.589  -5.917  16.172  1.00 57.23 LIG-0.27  OA
ATOM      3  N   THR B   5     -13.703  -5.940  14.094  1.00 55.89 LIG-0.34  N 
ATOM      4 H    THR B   5     -13.690  -5.672  13.277  1.00 55.89 LIG 0.16  HD
ENDROOT
BRANCH 3 5
ATOM      5  CA  THR B   5     -12.640  -6.900  14.435  1.00 55.10 LIG 0.20  C 
BRANCH 5 6
ATOM      6  CB  THR B   5     -13.200  -8.361  14.576  1.00 55.33 LIG 0.15  C 
ATOM      7  CG2 THR B   5     -12.666  -9.283  13.471  1.00 55.26 LIG 0.04  C 
BRANCH 6 8
ATOM      8 OG1  THR B   5     -12.852  -8.909  15.860  1.00 55.55 LIG-0.39  OA
ATOM      9 HG1  THR B   5     -13.040  -8.354  16.461  1.00 55.55 LIG 0.21  HD
ENDBRANCH 6 8
ENDBRANCH 5 6
BRANCH 5 10
ATOM     10  C   THR B   5     -11.451  -6.886  13.457  1.00 54.13 LIG 0.24  C 
ATOM     11  N   PRO B   6     -11.734  -6.901  12.135  1.00 52.90 LIG-0.34  N 
ATOM     12  CD  PRO B   6     -13.061  -7.023  11.500  1.00 52.89 LIG 0.13  C 
ATOM     13  CA  PRO B   6     -10.658  -6.796  11.140  1.00 51.99 LIG 0.18  C 
ATOM     14  CG  PRO B   6     -12.750  -7.118  10.027  1.00 52.79 LIG 0.02  C 
ATOM     15  CB  PRO B   6     -11.406  -6.535   9.828  1.00 51.93 LIG 0.04  C 
ATOM     16 O    THR B   5     -10.289  -6.840  13.887  1.00 54.19 LIG-0.27  OA
BRANCH 13 17
ATOM     17  C   PRO B   6      -9.726  -5.632  11.465  1.00 51.04 LIG 0.24  C 
ATOM     18 O    PRO B   6     -10.123  -4.474  11.306  1.00 50.92 LIG-0.27  OA
ATOM     19  N   CYS B   7      -8.508  -5.930  11.919  1.00 49.72 LIG-0.34  N 
ATOM     20 H    CYS B   7      -8.185  -6.726  11.949  1.00 49.72 LIG 0.16  HD
BRANCH 19 21
ATOM     21  CA  CYS B   7      -7.599  -4.877  12.417  1.00 48.85 LIG 0.19  C 
BRANCH 21 22
ATOM     22  C   CYS B   7      -7.158  -3.884  11.343  1.00 48.04 LIG 0.20  C 
ATOM     23 OXT  CYS B   7      -7.921  -3.024  10.910  1.00 47.16 LIG-0.65  OA
ATOM     24 O    CYS B   7      -6.016  -3.929  10.891  1.00 47.51 LIG-0.65  OA
ENDBRANCH 21 22
BRANCH 21 25
ATOM     25  CB  CYS B   7      -6.381  -5.502  13.110  1.00 48.98 LIG 0.11  C 
BRANCH 25 26
ATOM     26 SG   CYS B   7      -6.797  -7.017  13.995  1.00 48.50 LIG-0.18  SA
ATOM     27 HG   CYS B   7      -6.875  -7.928  13.217  1.00 48.50 LIG 0.10  HD
ENDBRANCH 25 26
ENDBRANCH 21 25
ENDBRANCH 19 21
ENDBRANCH 13 17
ENDBRANCH 5 10
ENDBRANCH 3 5
BRANCH 1 28
ATOM     28  CA  SER B   4     -15.668  -4.544  14.518  1.00 57.59 LIG 0.20  C 
BRANCH 28 29
ATOM     29  N   SER B   4     -17.026  -5.102  14.584  1.00 58.14 LIG-0.34  N 
ATOM     30  C   SER B   3     -17.514  -5.906  13.639  1.00 58.75 LIG 0.24  C 
ATOM     31 O    SER B   3     -16.814  -6.363  12.732  1.00 58.75 LIG-0.27  OA
ATOM     32 H    SER B   4     -17.470  -4.864  15.282  1.00 58.14 LIG 0.16  HD
BRANCH 30 33
ATOM     33  CA  SER B   3     -19.012  -6.267  13.737  1.00 59.17 LIG 0.20  C 
BRANCH 33 34
ATOM     34  N   SER B   3     -19.450  -7.013  12.548  1.00 59.50 LIG-0.34  N 
ATOM     35  C   PRO B   2     -19.970  -6.470  11.438  1.00 59.86 LIG 0.25  C 
ATOM     36 O    PRO B   2     -20.403  -7.166  10.513  1.00 59.80 LIG-0.27  OA
ATOM     37 H    SER B   3     -19.340  -7.862  12.631  1.00 59.50 LIG 0.16  HD
BRANCH 35 38
ATOM     38  CA  PRO B   2     -20.043  -4.940  11.305  1.00 60.11 LIG 0.35  C 
ATOM     39  CB  PRO B   2     -21.493  -4.460  11.140  1.00 60.16 LIG 0.05  C 
ATOM     40  CG  PRO B   2     -21.451  -3.397  10.094  1.00 60.30 LIG 0.04  C 
ATOM     41  CD  PRO B   2     -20.316  -3.743   9.189  1.00 60.25 LIG 0.32  C 
ATOM     42  N   PRO B   2     -19.391  -4.476  10.070  1.00 60.27 LIG 0.32  N 
ENDBRANCH 35 38
ENDBRANCH 33 34
BRANCH 33 43
ATOM     43  CB  SER B   3     -19.264  -7.095  15.003  1.00 59.26 LIG 0.20  C 
BRANCH 43 44
ATOM     44 OG   SER B   3     -18.336  -8.163  15.105  1.00 59.53 LIG-0.40  OA
ATOM     45 HG   SER B   3     -18.023  -8.188  15.884  1.00 59.53 LIG 0.21  HD
ENDBRANCH 43 44
ENDBRANCH 33 43
ENDBRANCH 30 33
ENDBRANCH 28 29
BRANCH 28 46
ATOM     46  CB  SER B   4     -15.620  -3.272  15.368  1.00 57.64 LIG 0.20  C 
BRANCH 46 47
ATOM     47 OG   SER B   4     -14.506  -2.467  15.009  1.00 57.32 LIG-0.40  OA
ATOM     48 HG   SER B   4     -14.554  -1.729  15.407  1.00 57.32 LIG 0.21  HD
ENDBRANCH 46 47
ENDBRANCH 28 46
ENDBRANCH 1 28
TORSDOF 18
ENDMDL
MODEL 78
USER: ADFR SOLUTION from run 37
USER: SCORE 13.302491 LL:  -3.255 LR: -11.210 RR:   0.000 FEB:  -5.840
USER: RMSD 9.347194
USER: SEED 36
USER: STATUS no improvement in best in 3 clusters for 5 generations
USER: GENES 20
USER: genes 0 Translation |==|  0.75865 0.70180 0.49057
USER: genes 1 Rotation |==|  0.90215 0.44089 0.21297 0.54895
USER: genes 2 Torsion [C]-N--CA-[CB] |==|  0.53777
USER: genes 3 Torsion [N]-CA--CB-[CG2] |==|  0.15813
USER: genes 4 Torsion [CA]-CB--OG1-[HG1] |==|  0.11108
USER: genes 5 Torsion [N]-CA--C-[N] |==|  0.38572
USER: genes 6 Torsion [N]-CA--C-[O] |==|  0.25095
USER: genes 7 Torsion [C]-N--CA-[CB] |==|  0.75029
USER: genes 8 Torsion [N]-CA--C-[O] |==|  0.63161
USER: genes 9 Torsion [N]-CA--CB-[SG] |==|  0.95714
USER: genes 10 Torsion [CA]-CB--SG-[HG] |==|  0.63523
USER: genes 11 Torsion [N]-C--CA-[N] |==|  0.98917
USER: genes 12 Torsion [C]-CA--N-[C] |==|  0.57778
USER: genes 13 Torsion [N]-C--CA-[N] |==|  0.93163
USER: genes 14 Torsion [C]-CA--N-[C] |==|  0.76842
USER: genes 15 Torsion [N]-C--CA-[N] |==|  0.17390
USER: genes 16 Torsion [C]-CA--CB-[OG] |==|  0.70184
USER: genes 17 Torsion [CA]-CB--OG-[HG] |==|  0.32693
USER: genes 18 Torsion [C]-CA--CB-[OG] |==|  0.80712
USER: genes 19 Torsion [CA]-CB--OG-[HG] |==|  0.09275
ROOT
ATOM      1  C   SER B   4     -12.174  -4.824  14.901  1.00 56.97 LIG 0.24  C 
ATOM      2 O    SER B   4     -11.093  -4.476  15.385  1.00 57.23 LIG-0.27  OA
ATOM      3  N   THR B   5     -12.270  -5.691  13.888  1.00 55.89 LIG-0.34  N 
ATOM      4 H    THR B   5     -13.015  -5.932  13.531  1.00 55.89 LIG 0.16  HD
ENDROOT
BRANCH 3 5
ATOM      5  CA  THR B   5     -11.079  -6.317  13.290  1.00 55.10 LIG 0.20  C 
BRANCH 5 6
ATOM      6  CB  THR B   5     -11.415  -7.015  11.922  1.00 55.33 LIG 0.15  C 
ATOM      7  CG2 THR B   5     -12.036  -6.032  10.921  1.00 55.26 LIG 0.04  C 
BRANCH 6 8
ATOM      8 OG1  THR B   5     -10.227  -7.589  11.349  1.00 55.55 LIG-0.39  OA
ATOM      9 HG1  THR B   5      -9.764  -7.939  11.956  1.00 55.55 LIG 0.21  HD
ENDBRANCH 6 8
ENDBRANCH 5 6
BRANCH 5 10
ATOM     10  C   THR B   5      -9.893  -5.351  13.108  1.00 54.13 LIG 0.24  C 
ATOM     11  N   PRO B   6      -8.659  -5.819  13.400  1.00 52.90 LIG-0.34  N 
ATOM     12  CD  PRO B   6      -8.309  -7.136  13.968  1.00 52.89 LIG 0.13  C 
ATOM     13  CA  PRO B   6      -7.470  -4.989  13.164  1.00 51.99 LIG 0.18  C 
ATOM     14  CG  PRO B   6      -6.821  -7.044  14.201  1.00 52.79 LIG 0.02  C 
ATOM     15  CB  PRO B   6      -6.308  -5.976  13.317  1.00 51.93 LIG 0.04  C 
ATOM     16 O    THR B   5     -10.085  -4.201  12.688  1.00 54.19 LIG-0.27  OA
BRANCH 13 17
ATOM     17  C   PRO B   6      -7.489  -4.397  11.758  1.00 51.04 LIG 0.24  C 
ATOM     18 O    PRO B   6      -8.018  -3.298  11.568  1.00 50.92 LIG-0.27  OA
ATOM     19  N   CYS B   7      -6.917  -5.109  10.785  1.00 49.72 LIG-0.34  N 
ATOM     20 H    CYS B   7      -6.626  -5.912  10.881  1.00 49.72 LIG 0.16  HD
BRANCH 19 21
ATOM     21  CA  CYS B   7      -6.738  -4.546   9.431  1.00 48.85 LIG 0.19  C 
BRANCH 21 22
ATOM     22  C   CYS B   7      -6.427  -3.051   9.420  1.00 48.04 LIG 0.20  C 
ATOM     23 OXT  CYS B   7      -5.571  -2.566  10.156  1.00 47.16 LIG-0.65  OA
ATOM     24 O    CYS B   7      -7.034  -2.299   8.662  1.00 47.51 LIG-0.65  OA
ENDBRANCH 21 22
BRANCH 21 25
ATOM     25  CB  CYS B   7      -7.961  -4.851   8.556  1.00 48.98 LIG 0.11  C 
BRANCH 25 26
ATOM     26 SG   CYS B   7      -9.007  -6.140   9.263  1.00 48.50 LIG-0.18  SA
ATOM     27 HG   CYS B   7      -9.259  -6.958   8.422  1.00 48.50 LIG 0.10  HD
ENDBRANCH 25 26
ENDBRANCH 21 25
ENDBRANCH 19 21
ENDBRANCH 13 17
ENDBRANCH 5 10
ENDBRANCH 3 5
BRANCH 1 28
ATOM     28  CA  SER B   4     -13.487  -4.251  15.449  1.00 57.59 LIG 0.20  C 
BRANCH 28 29
ATOM     29  N   SER B   4     -14.660  -4.698  14.688  1.00 58.14 LIG-0.34  N 
ATOM     30  C   SER B   3     -15.773  -3.969  14.598  1.00 58.75 LIG 0.24  C 
ATOM     31 O    SER B   3     -15.839  -2.808  15.009  1.00 58.75 LIG-0.27  OA
ATOM     32 H    SER B   4     -14.562  -5.465  14.310  1.00 58.14 LIG 0.16  HD
BRANCH 30 33
ATOM     33  CA  SER B   3     -16.992  -4.638  13.926  1.00 59.17 LIG 0.20  C 
BRANCH 33 34
ATOM     34  N   SER B   3     -16.565  -5.706  13.009  1.00 59.50 LIG-0.34  N 
ATOM     35  C   PRO B   2     -16.166  -5.529  11.742  1.00 59.86 LIG 0.25  C 
ATOM     36 O    PRO B   2     -15.909  -6.483  11.000  1.00 59.80 LIG-0.27  OA
ATOM     37 H    SER B   3     -16.596  -6.485  13.373  1.00 59.50 LIG 0.16  HD
BRANCH 35 38
ATOM     38  CA  PRO B   2     -16.029  -4.103  11.183  1.00 60.11 LIG 0.35  C 
ATOM     39  CB  PRO B   2     -15.499  -4.115   9.740  1.00 60.16 LIG 0.05  C 
ATOM     40  CG  PRO B   2     -14.507  -3.004   9.665  1.00 60.30 LIG 0.04  C 
ATOM     41  CD  PRO B   2     -13.922  -2.869  11.031  1.00 60.25 LIG 0.32  C 
ATOM     42  N   PRO B   2     -15.007  -3.336  11.911  1.00 60.27 LIG 0.32  N 
ENDBRANCH 35 38
ENDBRANCH 33 34
BRANCH 33 43
ATOM     43  CB  SER B   3     -17.929  -5.206  14.999  1.00 59.26 LIG 0.20  C 
BRANCH 43 44
ATOM     44 OG   SER B   3     -17.861  -6.622  15.035  1.00 59.53 LIG-0.40  OA
ATOM     45 HG   SER B   3     -17.578  -6.869  15.786  1.00 59.53 LIG 0.21  HD
ENDBRANCH 43 44
ENDBRANCH 33 43
ENDBRANCH 30 33
ENDBRANCH 28 29
BRANCH 28 46
ATOM     46  CB  SER B   4     -13.666  -4.664  16.912  1.00 57.64 LIG 0.20  C 
BRANCH 46 47
ATOM     47 OG   SER B   4     -13.921  -6.059  17.016  1.00 57.32 LIG-0.40  OA
ATOM     48 HG   SER B   4     -13.506  -6.465  16.410  1.00 57.32 LIG 0.21  HD
ENDBRANCH 46 47
ENDBRANCH 28 46
ENDBRANCH 1 28
TORSDOF 18
ENDMDL
MODEL 79
USER: ADFR SOLUTION from run 136
USER: SCORE 12.875537 LL:  -2.929 LR: -11.195 RR:   0.000 FEB:  -5.825
USER: RMSD 9.005811
USER: SEED 135
USER: STATUS no improvement in best in 5 clusters for 5 generations
USER: GENES 20
USER: genes 0 Translation |==|  0.69735 0.49830 0.32337
USER: genes 1 Rotation |==|  0.54957 0.25100 0.79669 0.81228
USER: genes 2 Torsion [C]-N--CA-[CB] |==|  0.52251
USER: genes 3 Torsion [N]-CA--CB-[CG2] |==|  0.70796
USER: genes 4 Torsion [CA]-CB--OG1-[HG1] |==|  0.95310
USER: genes 5 Torsion [N]-CA--C-[N] |==|  0.81014
USER: genes 6 Torsion [N]-CA--C-[O] |==|  0.98244
USER: genes 7 Torsion [C]-N--CA-[CB] |==|  0.83384
USER: genes 8 Torsion [N]-CA--C-[O] |==|  0.29821
USER: genes 9 Torsion [N]-CA--CB-[SG] |==|  0.87209
USER: genes 10 Torsion [CA]-CB--SG-[HG] |==|  0.21773
USER: genes 11 Torsion [N]-C--CA-[N] |==|  0.90046
USER: genes 12 Torsion [C]-CA--N-[C] |==|  0.79648
USER: genes 13 Torsion [N]-C--CA-[N] |==|  0.08717
USER: genes 14 Torsion [C]-CA--N-[C] |==|  0.17769
USER: genes 15 Torsion [N]-C--CA-[N] |==|  0.25311
USER: genes 16 Torsion [C]-CA--CB-[OG] |==|  0.55937
USER: genes 17 Torsion [CA]-CB--OG-[HG] |==|  0.53511
USER: genes 18 Torsion [C]-CA--CB-[OG] |==|  0.62252
USER: genes 19 Torsion [CA]-CB--OG-[HG] |==|  0.52565
ROOT
ATOM      1  C   SER B   4     -13.922  -7.877  12.518  1.00 56.97 LIG 0.24  C 
ATOM      2 O    SER B   4     -13.052  -7.234  11.921  1.00 57.23 LIG-0.27  OA
ATOM      3  N   THR B   5     -14.821  -7.304  13.324  1.00 55.89 LIG-0.34  N 
ATOM      4 H    THR B   5     -15.423  -7.740  13.757  1.00 55.89 LIG 0.16  HD
ENDROOT
BRANCH 3 5
ATOM      5  CA  THR B   5     -14.852  -5.848  13.539  1.00 55.10 LIG 0.20  C 
BRANCH 5 6
ATOM      6  CB  THR B   5     -15.860  -5.450  14.677  1.00 55.33 LIG 0.15  C 
ATOM      7  CG2 THR B   5     -17.144  -4.832  14.108  1.00 55.26 LIG 0.04  C 
BRANCH 6 8
ATOM      8 OG1  THR B   5     -16.199  -6.602  15.470  1.00 55.55 LIG-0.39  OA
ATOM      9 HG1  THR B   5     -15.989  -7.301  15.053  1.00 55.55 LIG 0.21  HD
ENDBRANCH 6 8
ENDBRANCH 5 6
BRANCH 5 10
ATOM     10  C   THR B   5     -13.470  -5.231  13.824  1.00 54.13 LIG 0.24  C 
ATOM     11  N   PRO B   6     -12.878  -5.547  14.997  1.00 52.90 LIG-0.34  N 
ATOM     12  CD  PRO B   6     -13.440  -6.352  16.100  1.00 52.89 LIG 0.13  C 
ATOM     13  CA  PRO B   6     -11.521  -5.073  15.300  1.00 51.99 LIG 0.18  C 
ATOM     14  CG  PRO B   6     -12.398  -6.254  17.186  1.00 52.79 LIG 0.02  C 
ATOM     15  CB  PRO B   6     -11.122  -5.892  16.533  1.00 51.93 LIG 0.04  C 
ATOM     16 O    THR B   5     -12.932  -4.494  12.985  1.00 54.19 LIG-0.27  OA
BRANCH 13 17
ATOM     17  C   PRO B   6     -10.572  -5.357  14.139  1.00 51.04 LIG 0.24  C 
ATOM     18 O    PRO B   6     -10.971  -6.020  13.177  1.00 50.92 LIG-0.27  OA
ATOM     19  N   CYS B   7      -9.337  -4.860  14.221  1.00 49.72 LIG-0.34  N 
ATOM     20 H    CYS B   7      -9.016  -4.476  14.920  1.00 49.72 LIG 0.16  HD
BRANCH 19 21
ATOM     21  CA  CYS B   7      -8.405  -4.939  13.078  1.00 48.85 LIG 0.19  C 
BRANCH 21 22
ATOM     22  C   CYS B   7      -8.845  -4.121  11.864  1.00 48.04 LIG 0.20  C 
ATOM     23 OXT  CYS B   7      -9.786  -4.476  11.157  1.00 47.16 LIG-0.65  OA
ATOM     24 O    CYS B   7      -8.259  -3.082  11.573  1.00 47.51 LIG-0.65  OA
ENDBRANCH 21 22
BRANCH 21 25
ATOM     25  CB  CYS B   7      -8.158  -6.401  12.684  1.00 48.98 LIG 0.11  C 
BRANCH 25 26
ATOM     26 SG   CYS B   7      -7.830  -7.450  14.115  1.00 48.50 LIG-0.18  SA
ATOM     27 HG   CYS B   7      -8.864  -7.712  14.666  1.00 48.50 LIG 0.10  HD
ENDBRANCH 25 26
ENDBRANCH 21 25
ENDBRANCH 19 21
ENDBRANCH 13 17
ENDBRANCH 5 10
ENDBRANCH 3 5
BRANCH 1 28
ATOM     28  CA  SER B   4     -13.999  -9.400  12.363  1.00 57.59 LIG 0.20  C 
BRANCH 28 29
ATOM     29  N   SER B   4     -14.391 -10.075  13.607  1.00 58.14 LIG-0.34  N 
ATOM     30  C   SER B   3     -13.561 -10.198  14.644  1.00 58.75 LIG 0.24  C 
ATOM     31 O    SER B   3     -12.472  -9.620  14.693  1.00 58.75 LIG-0.27  OA
ATOM     32 H    SER B   4     -15.195 -10.379  13.603  1.00 58.14 LIG 0.16  HD
BRANCH 30 33
ATOM     33  CA  SER B   3     -14.034 -11.089  15.813  1.00 59.17 LIG 0.20  C 
BRANCH 33 34
ATOM     34  N   SER B   3     -14.890 -12.182  15.326  1.00 59.50 LIG-0.34  N 
ATOM     35  C   PRO B   2     -14.500 -13.168  14.506  1.00 59.86 LIG 0.25  C 
ATOM     36 O    PRO B   2     -15.299 -14.002  14.064  1.00 59.80 LIG-0.27  OA
ATOM     37 H    SER B   3     -15.694 -12.130  15.626  1.00 59.50 LIG 0.16  HD
BRANCH 35 38
ATOM     38  CA  PRO B   2     -13.023 -13.269  14.090  1.00 60.11 LIG 0.35  C 
ATOM     39  CB  PRO B   2     -12.870 -13.982  12.737  1.00 60.16 LIG 0.05  C 
ATOM     40  CG  PRO B   2     -11.696 -14.889  12.889  1.00 60.30 LIG 0.04  C 
ATOM     41  CD  PRO B   2     -11.649 -15.279  14.329  1.00 60.25 LIG 0.32  C 
ATOM     42  N   PRO B   2     -12.263 -14.127  15.012  1.00 60.27 LIG 0.32  N 
ENDBRANCH 35 38
ENDBRANCH 33 34
BRANCH 33 43
ATOM     43  CB  SER B   3     -12.819 -11.660  16.555  1.00 59.26 LIG 0.20  C 
BRANCH 43 44
ATOM     44 OG   SER B   3     -13.171 -12.824  17.285  1.00 59.53 LIG-0.40  OA
ATOM     45 HG   SER B   3     -12.550 -13.020  17.815  1.00 59.53 LIG 0.21  HD
ENDBRANCH 43 44
ENDBRANCH 33 43
ENDBRANCH 30 33
ENDBRANCH 28 29
BRANCH 28 46
ATOM     46  CB  SER B   4     -15.008  -9.763  11.271  1.00 57.64 LIG 0.20  C 
BRANCH 46 47
ATOM     47 OG   SER B   4     -15.838 -10.840  11.687  1.00 57.32 LIG-0.40  OA
ATOM     48 HG   SER B   4     -16.296 -11.108  11.037  1.00 57.32 LIG 0.21  HD
ENDBRANCH 46 47
ENDBRANCH 28 46
ENDBRANCH 1 28
TORSDOF 18
ENDMDL
MODEL 80
USER: ADFR SOLUTION from run 94
USER: SCORE 13.414654 LL:  -2.987 LR: -11.170 RR:   0.000 FEB:  -5.800
USER: RMSD 11.989064
USER: SEED 93
USER: STATUS no improvement in best in 7 clusters for 5 generations
USER: GENES 20
USER: genes 0 Translation |==|  0.58063 0.70332 0.41017
USER: genes 1 Rotation |==|  0.33514 0.85493 0.33758 0.76545
USER: genes 2 Torsion [C]-N--CA-[CB] |==|  0.82220
USER: genes 3 Torsion [N]-CA--CB-[CG2] |==|  0.94258
USER: genes 4 Torsion [CA]-CB--OG1-[HG1] |==|  0.87395
USER: genes 5 Torsion [N]-CA--C-[N] |==|  0.34143
USER: genes 6 Torsion [N]-CA--C-[O] |==|  0.28427
USER: genes 7 Torsion [C]-N--CA-[CB] |==|  0.82504
USER: genes 8 Torsion [N]-CA--C-[O] |==|  0.99675
USER: genes 9 Torsion [N]-CA--CB-[SG] |==|  0.84531
USER: genes 10 Torsion [CA]-CB--SG-[HG] |==|  0.07664
USER: genes 11 Torsion [N]-C--CA-[N] |==|  0.86500
USER: genes 12 Torsion [C]-CA--N-[C] |==|  0.63401
USER: genes 13 Torsion [N]-C--CA-[N] |==|  0.38667
USER: genes 14 Torsion [C]-CA--N-[C] |==|  0.66046
USER: genes 15 Torsion [N]-C--CA-[N] |==|  0.46604
USER: genes 16 Torsion [C]-CA--CB-[OG] |==|  0.31237
USER: genes 17 Torsion [CA]-CB--OG-[HG] |==|  0.08950
USER: genes 18 Torsion [C]-CA--CB-[OG] |==|  0.49286
USER: genes 19 Torsion [CA]-CB--OG-[HG] |==|  0.75842
ROOT
ATOM      1  C   SER B   4     -17.248  -4.801  13.755  1.00 56.97 LIG 0.24  C 
ATOM      2 O    SER B   4     -18.319  -4.661  14.354  1.00 57.23 LIG-0.27  OA
ATOM      3  N   THR B   5     -17.144  -5.473  12.604  1.00 55.89 LIG-0.34  N 
ATOM      4 H    THR B   5     -16.403  -5.591  12.183  1.00 55.89 LIG 0.16  HD
ENDROOT
BRANCH 3 5
ATOM      5  CA  THR B   5     -18.316  -6.078  11.951  1.00 55.10 LIG 0.20  C 
BRANCH 5 6
ATOM      6  CB  THR B   5     -18.950  -7.213  12.833  1.00 55.33 LIG 0.15  C 
ATOM      7  CG2 THR B   5     -17.952  -7.756  13.865  1.00 55.26 LIG 0.04  C 
BRANCH 6 8
ATOM      8 OG1  THR B   5     -20.118  -6.723  13.516  1.00 55.55 LIG-0.39  OA
ATOM      9 HG1  THR B   5     -19.952  -5.970  13.849  1.00 55.55 LIG 0.21  HD
ENDBRANCH 6 8
ENDBRANCH 5 6
BRANCH 5 10
ATOM     10  C   THR B   5     -19.400  -5.060  11.549  1.00 54.13 LIG 0.24  C 
ATOM     11  N   PRO B   6     -19.761  -5.018  10.247  1.00 52.90 LIG-0.34  N 
ATOM     12  CD  PRO B   6     -19.173  -5.777   9.126  1.00 52.89 LIG 0.13  C 
ATOM     13  CA  PRO B   6     -20.852  -4.140   9.804  1.00 51.99 LIG 0.18  C 
ATOM     14  CG  PRO B   6     -19.877  -5.228   7.910  1.00 52.79 LIG 0.02  C 
ATOM     15  CB  PRO B   6     -21.141  -4.620   8.377  1.00 51.93 LIG 0.04  C 
ATOM     16 O    THR B   5     -19.921  -4.333  12.408  1.00 54.19 LIG-0.27  OA
BRANCH 13 17
ATOM     17  C   PRO B   6     -22.084  -4.312  10.686  1.00 51.04 LIG 0.24  C 
ATOM     18 O    PRO B   6     -22.336  -3.466  11.550  1.00 50.92 LIG-0.27  OA
ATOM     19  N   CYS B   7     -22.846  -5.386  10.474  1.00 49.72 LIG-0.34  N 
ATOM     20 H    CYS B   7     -22.638  -6.028   9.942  1.00 49.72 LIG 0.16  HD
BRANCH 19 21
ATOM     21  CA  CYS B   7     -24.143  -5.550  11.161  1.00 48.85 LIG 0.19  C 
BRANCH 21 22
ATOM     22  C   CYS B   7     -25.164  -4.465  10.823  1.00 48.04 LIG 0.20  C 
ATOM     23 OXT  CYS B   7     -26.296  -4.476  11.301  1.00 47.16 LIG-0.65  OA
ATOM     24 O    CYS B   7     -24.865  -3.552  10.058  1.00 47.51 LIG-0.65  OA
ENDBRANCH 21 22
BRANCH 21 25
ATOM     25  CB  CYS B   7     -23.940  -5.647  12.679  1.00 48.98 LIG 0.11  C 
BRANCH 25 26
ATOM     26 SG   CYS B   7     -22.801  -6.969  13.136  1.00 48.50 LIG-0.18  SA
ATOM     27 HG   CYS B   7     -22.029  -7.162  12.237  1.00 48.50 LIG 0.10  HD
ENDBRANCH 25 26
ENDBRANCH 21 25
ENDBRANCH 19 21
ENDBRANCH 13 17
ENDBRANCH 5 10
ENDBRANCH 3 5
BRANCH 1 28
ATOM     28  CA  SER B   4     -15.958  -4.203  14.329  1.00 57.59 LIG 0.20  C 
BRANCH 28 29
ATOM     29  N   SER B   4     -14.853  -5.171  14.362  1.00 58.14 LIG-0.34  N 
ATOM     30  C   SER B   3     -14.100  -5.358  15.446  1.00 58.75 LIG 0.24  C 
ATOM     31 O    SER B   3     -14.375  -4.853  16.538  1.00 58.75 LIG-0.27  OA
ATOM     32 H    SER B   4     -14.740  -5.600  13.625  1.00 58.14 LIG 0.16  HD
BRANCH 30 33
ATOM     33  CA  SER B   3     -12.861  -6.264  15.286  1.00 59.17 LIG 0.20  C 
BRANCH 33 34
ATOM     34  N   SER B   3     -11.708  -5.711  16.013  1.00 59.50 LIG-0.34  N 
ATOM     35  C   PRO B   2     -10.525  -5.395  15.470  1.00 59.86 LIG 0.25  C 
ATOM     36 O    PRO B   2      -9.570  -5.020  16.160  1.00 59.80 LIG-0.27  OA
ATOM     37 H    SER B   3     -11.868  -5.604  16.852  1.00 59.50 LIG 0.16  HD
BRANCH 35 38
ATOM     38  CA  PRO B   2     -10.335  -5.507  13.948  1.00 60.11 LIG 0.35  C 
ATOM     39  CB  PRO B   2     -10.137  -6.967  13.514  1.00 60.16 LIG 0.05  C 
ATOM     40  CG  PRO B   2      -9.054  -6.941  12.489  1.00 60.30 LIG 0.04  C 
ATOM     41  CD  PRO B   2      -8.174  -5.787  12.837  1.00 60.25 LIG 0.32  C 
ATOM     42  N   PRO B   2      -9.091  -4.853  13.513  1.00 60.27 LIG 0.32  N 
ENDBRANCH 35 38
ENDBRANCH 33 34
BRANCH 33 43
ATOM     43  CB  SER B   3     -13.179  -7.675  15.795  1.00 59.26 LIG 0.20  C 
BRANCH 43 44
ATOM     44 OG   SER B   3     -13.193  -8.609  14.728  1.00 59.53 LIG-0.40  OA
ATOM     45 HG   SER B   3     -12.638  -8.375  14.144  1.00 59.53 LIG 0.21  HD
ENDBRANCH 43 44
ENDBRANCH 33 43
ENDBRANCH 30 33
ENDBRANCH 28 29
BRANCH 28 46
ATOM     46  CB  SER B   4     -15.525  -2.995  13.495  1.00 57.64 LIG 0.20  C 
BRANCH 46 47
ATOM     47 OG   SER B   4     -14.363  -2.391  14.046  1.00 57.32 LIG-0.40  OA
ATOM     48 HG   SER B   4     -14.589  -1.831  14.629  1.00 57.32 LIG 0.21  HD
ENDBRANCH 46 47
ENDBRANCH 28 46
ENDBRANCH 1 28
TORSDOF 18
ENDMDL
MODEL 81
USER: ADFR SOLUTION from run 184
USER: SCORE 13.229199 LL:  -4.119 LR: -11.160 RR:   0.000 FEB:  -5.790
USER: RMSD 10.281720
USER: SEED 183
USER: STATUS no improvement in best in 6 clusters for 5 generations
USER: GENES 20
USER: genes 0 Translation |==|  0.89191 0.60129 0.34702
USER: genes 1 Rotation |==|  0.66776 0.61103 0.04311 0.52787
USER: genes 2 Torsion [C]-N--CA-[CB] |==|  0.31788
USER: genes 3 Torsion [N]-CA--CB-[CG2] |==|  0.02977
USER: genes 4 Torsion [CA]-CB--OG1-[HG1] |==|  0.65452
USER: genes 5 Torsion [N]-CA--C-[N] |==|  0.83466
USER: genes 6 Torsion [N]-CA--C-[O] |==|  0.29007
USER: genes 7 Torsion [C]-N--CA-[CB] |==|  0.12917
USER: genes 8 Torsion [N]-CA--C-[O] |==|  0.18226
USER: genes 9 Torsion [N]-CA--CB-[SG] |==|  0.62099
USER: genes 10 Torsion [CA]-CB--SG-[HG] |==|  0.86420
USER: genes 11 Torsion [N]-C--CA-[N] |==|  0.90413
USER: genes 12 Torsion [C]-CA--N-[C] |==|  0.83847
USER: genes 13 Torsion [N]-C--CA-[N] |==|  0.91681
USER: genes 14 Torsion [C]-CA--N-[C] |==|  0.68797
USER: genes 15 Torsion [N]-C--CA-[N] |==|  0.50545
USER: genes 16 Torsion [C]-CA--CB-[OG] |==|  0.06198
USER: genes 17 Torsion [CA]-CB--OG-[HG] |==|  0.20427
USER: genes 18 Torsion [C]-CA--CB-[OG] |==|  0.15415
USER: genes 19 Torsion [CA]-CB--OG-[HG] |==|  0.86514
ROOT
ATOM      1  C   SER B   4      -8.377  -6.332  12.855  1.00 56.97 LIG 0.24  C 
ATOM      2 O    SER B   4      -7.591  -5.570  12.283  1.00 57.23 LIG-0.27  OA
ATOM      3  N   THR B   5      -9.377  -6.951  12.221  1.00 55.89 LIG-0.34  N 
ATOM      4 H    THR B   5      -9.940  -7.473  12.609  1.00 55.89 LIG 0.16  HD
ENDROOT
BRANCH 3 5
ATOM      5  CA  THR B   5      -9.599  -6.785  10.775  1.00 55.10 LIG 0.20  C 
BRANCH 5 6
ATOM      6  CB  THR B   5      -9.367  -8.128   9.994  1.00 55.33 LIG 0.15  C 
ATOM      7  CG2 THR B   5      -9.228  -9.323  10.946  1.00 55.26 LIG 0.04  C 
BRANCH 6 8
ATOM      8 OG1  THR B   5     -10.453  -8.370   9.083  1.00 55.55 LIG-0.39  OA
ATOM      9 HG1  THR B   5     -10.788  -9.124   9.240  1.00 55.55 LIG 0.21  HD
ENDBRANCH 6 8
ENDBRANCH 5 6
BRANCH 5 10
ATOM     10  C   THR B   5     -10.981  -6.204  10.421  1.00 54.13 LIG 0.24  C 
ATOM     11  N   PRO B   6     -12.069  -6.901  10.819  1.00 52.90 LIG-0.34  N 
ATOM     12  CD  PRO B   6     -12.099  -8.218  11.484  1.00 52.89 LIG 0.13  C 
ATOM     13  CA  PRO B   6     -13.419  -6.365  10.600  1.00 51.99 LIG 0.18  C 
ATOM     14  CG  PRO B   6     -13.569  -8.550  11.561  1.00 52.79 LIG 0.02  C 
ATOM     15  CB  PRO B   6     -14.309  -7.275  11.454  1.00 51.93 LIG 0.04  C 
ATOM     16 O    THR B   5     -11.067  -5.127   9.813  1.00 54.19 LIG-0.27  OA
BRANCH 13 17
ATOM     17  C   PRO B   6     -13.517  -4.920  11.077  1.00 51.04 LIG 0.24  C 
ATOM     18 O    PRO B   6     -13.528  -4.005  10.247  1.00 50.92 LIG-0.27  OA
ATOM     19  N   CYS B   7     -13.592  -4.711  12.392  1.00 49.72 LIG-0.34  N 
ATOM     20 H    CYS B   7     -13.494  -5.326  12.985  1.00 49.72 LIG 0.16  HD
BRANCH 19 21
ATOM     21  CA  CYS B   7     -13.856  -3.365  12.939  1.00 48.85 LIG 0.19  C 
BRANCH 21 22
ATOM     22  C   CYS B   7     -14.105  -3.347  14.446  1.00 48.04 LIG 0.20  C 
ATOM     23 OXT  CYS B   7     -15.197  -3.035  14.914  1.00 47.16 LIG-0.65  OA
ATOM     24 O    CYS B   7     -13.205  -3.652  15.224  1.00 47.51 LIG-0.65  OA
ENDBRANCH 21 22
BRANCH 21 25
ATOM     25  CB  CYS B   7     -15.020  -2.700  12.191  1.00 48.98 LIG 0.11  C 
BRANCH 25 26
ATOM     26 SG   CYS B   7     -14.686  -0.970  11.802  1.00 48.50 LIG-0.18  SA
ATOM     27 HG   CYS B   7     -14.290  -0.407  12.785  1.00 48.50 LIG 0.10  HD
ENDBRANCH 25 26
ENDBRANCH 21 25
ENDBRANCH 19 21
ENDBRANCH 13 17
ENDBRANCH 5 10
ENDBRANCH 3 5
BRANCH 1 28
ATOM     28  CA  SER B   4      -8.239  -6.596  14.359  1.00 57.59 LIG 0.20  C 
BRANCH 28 29
ATOM     29  N   SER B   4      -9.537  -6.776  15.022  1.00 58.14 LIG-0.34  N 
ATOM     30  C   SER B   3     -10.488  -5.842  14.994  1.00 58.75 LIG 0.24  C 
ATOM     31 O    SER B   3     -10.409  -4.837  14.282  1.00 58.75 LIG-0.27  OA
ATOM     32 H    SER B   4      -9.624  -7.531  15.425  1.00 58.14 LIG 0.16  HD
BRANCH 30 33
ATOM     33  CA  SER B   3     -11.726  -6.081  15.885  1.00 59.17 LIG 0.20  C 
BRANCH 33 34
ATOM     34  N   SER B   3     -11.986  -7.520  16.047  1.00 59.50 LIG-0.34  N 
ATOM     35  C   PRO B   2     -13.042  -8.179  15.553  1.00 59.86 LIG 0.25  C 
ATOM     36 O    PRO B   2     -13.244  -9.372  15.808  1.00 59.80 LIG-0.27  OA
ATOM     37 H    SER B   3     -11.374  -7.916  16.505  1.00 59.50 LIG 0.16  HD
BRANCH 35 38
ATOM     38  CA  PRO B   2     -14.045  -7.439  14.652  1.00 60.11 LIG 0.35  C 
ATOM     39  CB  PRO B   2     -14.749  -6.303  15.411  1.00 60.16 LIG 0.05  C 
ATOM     40  CG  PRO B   2     -16.180  -6.366  14.995  1.00 60.30 LIG 0.04  C 
ATOM     41  CD  PRO B   2     -16.464  -7.797  14.682  1.00 60.25 LIG 0.32  C 
ATOM     42  N   PRO B   2     -15.155  -8.316  14.250  1.00 60.27 LIG 0.32  N 
ENDBRANCH 35 38
ENDBRANCH 33 34
BRANCH 33 43
ATOM     43  CB  SER B   3     -11.515  -5.425  17.255  1.00 59.26 LIG 0.20  C 
BRANCH 43 44
ATOM     44 OG   SER B   3     -10.546  -4.392  17.179  1.00 59.53 LIG-0.40  OA
ATOM     45 HG   SER B   3     -10.877  -3.726  16.789  1.00 59.53 LIG 0.21  HD
ENDBRANCH 43 44
ENDBRANCH 33 43
ENDBRANCH 30 33
ENDBRANCH 28 29
BRANCH 28 46
ATOM     46  CB  SER B   4      -7.391  -7.849  14.594  1.00 57.64 LIG 0.20  C 
BRANCH 46 47
ATOM     47 OG   SER B   4      -6.128  -7.732  13.954  1.00 57.32 LIG-0.40  OA
ATOM     48 HG   SER B   4      -6.238  -7.479  13.161  1.00 57.32 LIG 0.21  HD
ENDBRANCH 46 47
ENDBRANCH 28 46
ENDBRANCH 1 28
TORSDOF 18
ENDMDL
MODEL 82
USER: ADFR SOLUTION from run 92
USER: SCORE 13.459294 LL:  -2.935 LR: -11.148 RR:   0.000 FEB:  -5.779
USER: RMSD 5.533481
USER: SEED 91
USER: STATUS no improvement in best in 4 clusters for 5 generations
USER: GENES 20
USER: genes 0 Translation |==|  0.65245 0.45348 0.33684
USER: genes 1 Rotation |==|  0.66599 0.30499 0.45776 0.92736
USER: genes 2 Torsion [C]-N--CA-[CB] |==|  0.78307
USER: genes 3 Torsion [N]-CA--CB-[CG2] |==|  0.83405
USER: genes 4 Torsion [CA]-CB--OG1-[HG1] |==|  0.33941
USER: genes 5 Torsion [N]-CA--C-[N] |==|  0.22308
USER: genes 6 Torsion [N]-CA--C-[O] |==|  0.78181
USER: genes 7 Torsion [C]-N--CA-[CB] |==|  0.22407
USER: genes 8 Torsion [N]-CA--C-[O] |==|  0.77169
USER: genes 9 Torsion [N]-CA--CB-[SG] |==|  0.62588
USER: genes 10 Torsion [CA]-CB--SG-[HG] |==|  0.67538
USER: genes 11 Torsion [N]-C--CA-[N] |==|  0.22625
USER: genes 12 Torsion [C]-CA--N-[C] |==|  0.76442
USER: genes 13 Torsion [N]-C--CA-[N] |==|  0.40380
USER: genes 14 Torsion [C]-CA--N-[C] |==|  0.69100
USER: genes 15 Torsion [N]-C--CA-[N] |==|  0.16894
USER: genes 16 Torsion [C]-CA--CB-[OG] |==|  0.93784
USER: genes 17 Torsion [CA]-CB--OG-[HG] |==|  0.82467
USER: genes 18 Torsion [C]-CA--CB-[OG] |==|  0.58430
USER: genes 19 Torsion [CA]-CB--OG-[HG] |==|  0.64756
ROOT
ATOM      1  C   SER B   4     -15.201  -8.549  12.710  1.00 56.97 LIG 0.24  C 
ATOM      2 O    SER B   4     -14.450  -8.081  11.848  1.00 57.23 LIG-0.27  OA
ATOM      3  N   THR B   5     -14.798  -8.817  13.955  1.00 55.89 LIG-0.34  N 
ATOM      4 H    THR B   5     -15.305  -9.156  14.562  1.00 55.89 LIG 0.16  HD
ENDROOT
BRANCH 3 5
ATOM      5  CA  THR B   5     -13.419  -8.549  14.398  1.00 55.10 LIG 0.20  C 
BRANCH 5 6
ATOM      6  CB  THR B   5     -12.421  -9.650  13.889  1.00 55.33 LIG 0.15  C 
ATOM      7  CG2 THR B   5     -12.803 -11.044  14.405  1.00 55.26 LIG 0.04  C 
BRANCH 6 8
ATOM      8 OG1  THR B   5     -12.387  -9.669  12.452  1.00 55.55 LIG-0.39  OA
ATOM      9 HG1  THR B   5     -11.600  -9.537  12.188  1.00 55.55 LIG 0.21  HD
ENDBRANCH 6 8
ENDBRANCH 5 6
BRANCH 5 10
ATOM     10  C   THR B   5     -12.901  -7.152  14.007  1.00 54.13 LIG 0.24  C 
ATOM     11  N   PRO B   6     -13.282  -6.109  14.780  1.00 52.90 LIG-0.34  N 
ATOM     12  CD  PRO B   6     -14.221  -6.129  15.918  1.00 52.89 LIG 0.13  C 
ATOM     13  CA  PRO B   6     -12.754  -4.761  14.527  1.00 51.99 LIG 0.18  C 
ATOM     14  CG  PRO B   6     -14.360  -4.676  16.298  1.00 52.79 LIG 0.02  C 
ATOM     15  CB  PRO B   6     -13.168  -3.975  15.775  1.00 51.93 LIG 0.04  C 
ATOM     16 O    THR B   5     -12.149  -7.016  13.031  1.00 54.19 LIG-0.27  OA
BRANCH 13 17
ATOM     17  C   PRO B   6     -11.236  -4.787  14.388  1.00 51.04 LIG 0.24  C 
ATOM     18 O    PRO B   6     -10.534  -4.851  15.402  1.00 50.92 LIG-0.27  OA
ATOM     19  N   CYS B   7     -10.732  -4.742  13.154  1.00 49.72 LIG-0.34  N 
ATOM     20 H    CYS B   7     -11.199  -4.606  12.445  1.00 49.72 LIG 0.16  HD
BRANCH 19 21
ATOM     21  CA  CYS B   7      -9.287  -4.929  12.911  1.00 48.85 LIG 0.19  C 
BRANCH 21 22
ATOM     22  C   CYS B   7      -8.782  -4.261  11.634  1.00 48.04 LIG 0.20  C 
ATOM     23 OXT  CYS B   7      -8.235  -3.161  11.657  1.00 47.16 LIG-0.65  OA
ATOM     24 O    CYS B   7      -8.916  -4.821  10.549  1.00 47.51 LIG-0.65  OA
ENDBRANCH 21 22
BRANCH 21 25
ATOM     25  CB  CYS B   7      -8.929  -6.422  12.918  1.00 48.98 LIG 0.11  C 
BRANCH 25 26
ATOM     26 SG   CYS B   7      -7.444  -6.767  13.881  1.00 48.50 LIG-0.18  SA
ATOM     27 HG   CYS B   7      -6.592  -7.210  13.160  1.00 48.50 LIG 0.10  HD
ENDBRANCH 25 26
ENDBRANCH 21 25
ENDBRANCH 19 21
ENDBRANCH 13 17
ENDBRANCH 5 10
ENDBRANCH 3 5
BRANCH 1 28
ATOM     28  CA  SER B   4     -16.665  -8.859  12.373  1.00 57.59 LIG 0.20  C 
BRANCH 28 29
ATOM     29  N   SER B   4     -17.582  -7.802  12.817  1.00 58.14 LIG-0.34  N 
ATOM     30  C   SER B   3     -18.067  -7.753  14.058  1.00 58.75 LIG 0.24  C 
ATOM     31 O    SER B   3     -17.659  -8.491  14.959  1.00 58.75 LIG-0.27  OA
ATOM     32 H    SER B   4     -17.774  -7.225  12.209  1.00 58.14 LIG 0.16  HD
BRANCH 30 33
ATOM     33  CA  SER B   3     -19.163  -6.702  14.337  1.00 59.17 LIG 0.20  C 
BRANCH 33 34
ATOM     34  N   SER B   3     -20.139  -7.208  15.314  1.00 59.50 LIG-0.34  N 
ATOM     35  C   PRO B   2     -21.416  -7.518  15.048  1.00 59.86 LIG 0.25  C 
ATOM     36 O    PRO B   2     -22.205  -7.851  15.940  1.00 59.80 LIG-0.27  OA
ATOM     37 H    SER B   3     -19.805  -7.290  16.102  1.00 59.50 LIG 0.16  HD
BRANCH 35 38
ATOM     38  CA  PRO B   2     -21.926  -7.453  13.599  1.00 60.11 LIG 0.35  C 
ATOM     39  CB  PRO B   2     -23.376  -7.949  13.492  1.00 60.16 LIG 0.05  C 
ATOM     40  CG  PRO B   2     -23.428  -8.783  12.257  1.00 60.30 LIG 0.04  C 
ATOM     41  CD  PRO B   2     -22.068  -9.374  12.091  1.00 60.25 LIG 0.32  C 
ATOM     42  N   PRO B   2     -21.187  -8.380  12.727  1.00 60.27 LIG 0.32  N 
ENDBRANCH 35 38
ENDBRANCH 33 34
BRANCH 33 43
ATOM     43  CB  SER B   3     -18.523  -5.407  14.853  1.00 59.26 LIG 0.20  C 
BRANCH 43 44
ATOM     44 OG   SER B   3     -17.243  -5.660  15.410  1.00 59.53 LIG-0.40  OA
ATOM     45 HG   SER B   3     -17.324  -6.164  16.077  1.00 59.53 LIG 0.21  HD
ENDBRANCH 43 44
ENDBRANCH 33 43
ENDBRANCH 30 33
ENDBRANCH 28 29
BRANCH 28 46
ATOM     46  CB  SER B   4     -16.825  -9.043  10.862  1.00 57.64 LIG 0.20  C 
BRANCH 46 47
ATOM     47 OG   SER B   4     -18.122  -8.644  10.439  1.00 57.32 LIG-0.40  OA
ATOM     48 HG   SER B   4     -18.478  -9.266  10.003  1.00 57.32 LIG 0.21  HD
ENDBRANCH 46 47
ENDBRANCH 28 46
ENDBRANCH 1 28
TORSDOF 18
ENDMDL
MODEL 83
USER: ADFR SOLUTION from run 84
USER: SCORE 13.287653 LL:  -3.357 LR: -11.143 RR:   0.000 FEB:  -5.774
USER: RMSD 7.795171
USER: SEED 83
USER: STATUS no improvement in best in 4 clusters for 5 generations
USER: GENES 20
USER: genes 0 Translation |==|  0.68812 0.69126 0.50496
USER: genes 1 Rotation |==|  0.03871 0.47811 0.53875 0.68770
USER: genes 2 Torsion [C]-N--CA-[CB] |==|  0.20950
USER: genes 3 Torsion [N]-CA--CB-[CG2] |==|  0.72796
USER: genes 4 Torsion [CA]-CB--OG1-[HG1] |==|  0.80576
USER: genes 5 Torsion [N]-CA--C-[N] |==|  0.49605
USER: genes 6 Torsion [N]-CA--C-[O] |==|  0.33131
USER: genes 7 Torsion [C]-N--CA-[CB] |==|  0.47695
USER: genes 8 Torsion [N]-CA--C-[O] |==|  0.89088
USER: genes 9 Torsion [N]-CA--CB-[SG] |==|  0.03149
USER: genes 10 Torsion [CA]-CB--SG-[HG] |==|  0.52819
USER: genes 11 Torsion [N]-C--CA-[N] |==|  0.37824
USER: genes 12 Torsion [C]-CA--N-[C] |==|  0.86664
USER: genes 13 Torsion [N]-C--CA-[N] |==|  0.14861
USER: genes 14 Torsion [C]-CA--N-[C] |==|  0.14802
USER: genes 15 Torsion [N]-C--CA-[N] |==|  0.35911
USER: genes 16 Torsion [C]-CA--CB-[OG] |==|  0.59307
USER: genes 17 Torsion [CA]-CB--OG-[HG] |==|  0.63942
USER: genes 18 Torsion [C]-CA--CB-[OG] |==|  0.11598
USER: genes 19 Torsion [CA]-CB--OG-[HG] |==|  0.43954
ROOT
ATOM      1  C   SER B   4     -14.185  -4.982  15.106  1.00 56.97 LIG 0.24  C 
ATOM      2 O    SER B   4     -14.182  -5.629  16.158  1.00 57.23 LIG-0.27  OA
ATOM      3  N   THR B   5     -13.123  -4.908  14.297  1.00 55.89 LIG-0.34  N 
ATOM      4 H    THR B   5     -13.106  -4.451  13.569  1.00 55.89 LIG 0.16  HD
ENDROOT
BRANCH 3 5
ATOM      5  CA  THR B   5     -11.870  -5.621  14.597  1.00 55.10 LIG 0.20  C 
BRANCH 5 6
ATOM      6  CB  THR B   5     -11.994  -7.160  14.306  1.00 55.33 LIG 0.15  C 
ATOM      7  CG2 THR B   5     -12.291  -7.958  15.583  1.00 55.26 LIG 0.04  C 
BRANCH 6 8
ATOM      8 OG1  THR B   5     -13.032  -7.405  13.341  1.00 55.55 LIG-0.39  OA
ATOM      9 HG1  THR B   5     -13.781  -7.250  13.689  1.00 55.55 LIG 0.21  HD
ENDBRANCH 6 8
ENDBRANCH 5 6
BRANCH 5 10
ATOM     10  C   THR B   5     -10.639  -5.048  13.871  1.00 54.13 LIG 0.24  C 
ATOM     11  N   PRO B   6      -9.444  -5.631  14.118  1.00 52.90 LIG-0.34  N 
ATOM     12  CD  PRO B   6      -9.152  -6.710  15.082  1.00 52.89 LIG 0.13  C 
ATOM     13  CA  PRO B   6      -8.240  -5.201  13.393  1.00 51.99 LIG 0.18  C 
ATOM     14  CG  PRO B   6      -7.652  -6.854  15.019  1.00 52.79 LIG 0.02  C 
ATOM     15  CB  PRO B   6      -7.215  -6.292  13.724  1.00 51.93 LIG 0.04  C 
ATOM     16 O    THR B   5     -10.766  -4.103  13.079  1.00 54.19 LIG-0.27  OA
BRANCH 13 17
ATOM     17  C   PRO B   6      -8.498  -5.146  11.891  1.00 51.04 LIG 0.24  C 
ATOM     18 O    PRO B   6      -8.376  -4.073  11.293  1.00 50.92 LIG-0.27  OA
ATOM     19  N   CYS B   7      -8.843  -6.283  11.285  1.00 49.72 LIG-0.34  N 
ATOM     20 H    CYS B   7      -9.020  -7.016  11.698  1.00 49.72 LIG 0.16  HD
BRANCH 19 21
ATOM     21  CA  CYS B   7      -8.949  -6.364   9.814  1.00 48.85 LIG 0.19  C 
BRANCH 21 22
ATOM     22  C   CYS B   7     -10.029  -5.460   9.222  1.00 48.04 LIG 0.20  C 
ATOM     23 OXT  CYS B   7      -9.851  -4.851   8.169  1.00 47.16 LIG-0.65  OA
ATOM     24 O    CYS B   7     -11.107  -5.326   9.795  1.00 47.51 LIG-0.65  OA
ENDBRANCH 21 22
BRANCH 21 25
ATOM     25  CB  CYS B   7      -9.157  -7.818   9.369  1.00 48.98 LIG 0.11  C 
BRANCH 25 26
ATOM     26 SG   CYS B   7      -9.532  -8.912  10.753  1.00 48.50 LIG-0.18  SA
ATOM     27 HG   CYS B   7      -9.489 -10.054  10.384  1.00 48.50 LIG 0.10  HD
ENDBRANCH 25 26
ENDBRANCH 21 25
ENDBRANCH 19 21
ENDBRANCH 13 17
ENDBRANCH 5 10
ENDBRANCH 3 5
BRANCH 1 28
ATOM     28  CA  SER B   4     -15.437  -4.208  14.679  1.00 57.59 LIG 0.20  C 
BRANCH 28 29
ATOM     29  N   SER B   4     -16.670  -4.987  14.853  1.00 58.14 LIG-0.34  N 
ATOM     30  C   SER B   3     -16.785  -6.244  14.425  1.00 58.75 LIG 0.24  C 
ATOM     31 O    SER B   3     -15.825  -6.891  14.000  1.00 58.75 LIG-0.27  OA
ATOM     32 H    SER B   4     -17.301  -4.560  15.253  1.00 58.14 LIG 0.16  HD
BRANCH 30 33
ATOM     33  CA  SER B   3     -18.190  -6.881  14.504  1.00 59.17 LIG 0.20  C 
BRANCH 33 34
ATOM     34  N   SER B   3     -19.187  -6.036  13.829  1.00 59.50 LIG-0.34  N 
ATOM     35  C   PRO B   2     -19.098  -5.583  12.571  1.00 59.86 LIG 0.25  C 
ATOM     36 O    PRO B   2     -19.931  -4.801  12.099  1.00 59.80 LIG-0.27  OA
ATOM     37 H    SER B   3     -19.860  -5.852  14.333  1.00 59.50 LIG 0.16  HD
BRANCH 35 38
ATOM     38  CA  PRO B   2     -17.926  -6.035  11.684  1.00 60.11 LIG 0.35  C 
ATOM     39  CB  PRO B   2     -17.025  -4.851  11.299  1.00 60.16 LIG 0.05  C 
ATOM     40  CG  PRO B   2     -16.688  -5.051   9.860  1.00 60.30 LIG 0.04  C 
ATOM     41  CD  PRO B   2     -17.845  -5.772   9.253  1.00 60.25 LIG 0.32  C 
ATOM     42  N   PRO B   2     -18.399  -6.536  10.384  1.00 60.27 LIG 0.32  N 
ENDBRANCH 35 38
ENDBRANCH 33 34
BRANCH 33 43
ATOM     43  CB  SER B   3     -18.165  -8.277  13.871  1.00 59.26 LIG 0.20  C 
BRANCH 43 44
ATOM     44 OG   SER B   3     -19.399  -8.570  13.237  1.00 59.53 LIG-0.40  OA
ATOM     45 HG   SER B   3     -19.674  -9.321  13.493  1.00 59.53 LIG 0.21  HD
ENDBRANCH 43 44
ENDBRANCH 33 43
ENDBRANCH 30 33
ENDBRANCH 28 29
BRANCH 28 46
ATOM     46  CB  SER B   4     -15.556  -2.916  15.492  1.00 57.64 LIG 0.20  C 
BRANCH 46 47
ATOM     47 OG   SER B   4     -14.288  -2.290  15.633  1.00 57.32 LIG-0.40  OA
ATOM     48 HG   SER B   4     -14.395  -1.475  15.804  1.00 57.32 LIG 0.21  HD
ENDBRANCH 46 47
ENDBRANCH 28 46
ENDBRANCH 1 28
TORSDOF 18
ENDMDL
MODEL 84
USER: ADFR SOLUTION from run 43
USER: SCORE 13.030800 LL:  -3.473 LR: -11.138 RR:   0.000 FEB:  -5.769
USER: RMSD 7.349060
USER: SEED 42
USER: STATUS no improvement in best in 2 clusters for 5 generations
USER: GENES 20
USER: genes 0 Translation |==|  0.63256 0.53921 0.46804
USER: genes 1 Rotation |==|  0.95176 0.51697 0.31741 0.61082
USER: genes 2 Torsion [C]-N--CA-[CB] |==|  0.54496
USER: genes 3 Torsion [N]-CA--CB-[CG2] |==|  0.49916
USER: genes 4 Torsion [CA]-CB--OG1-[HG1] |==|  0.19323
USER: genes 5 Torsion [N]-CA--C-[N] |==|  0.28595
USER: genes 6 Torsion [N]-CA--C-[O] |==|  0.28107
USER: genes 7 Torsion [C]-N--CA-[CB] |==|  0.52201
USER: genes 8 Torsion [N]-CA--C-[O] |==|  0.83467
USER: genes 9 Torsion [N]-CA--CB-[SG] |==|  0.98486
USER: genes 10 Torsion [CA]-CB--SG-[HG] |==|  0.13961
USER: genes 11 Torsion [N]-C--CA-[N] |==|  0.23427
USER: genes 12 Torsion [C]-CA--N-[C] |==|  0.75662
USER: genes 13 Torsion [N]-C--CA-[N] |==|  0.57222
USER: genes 14 Torsion [C]-CA--N-[C] |==|  0.15155
USER: genes 15 Torsion [N]-C--CA-[N] |==|  0.38445
USER: genes 16 Torsion [C]-CA--CB-[OG] |==|  0.57446
USER: genes 17 Torsion [CA]-CB--OG-[HG] |==|  0.55392
USER: genes 18 Torsion [C]-CA--CB-[OG] |==|  0.54208
USER: genes 19 Torsion [CA]-CB--OG-[HG] |==|  0.71312
ROOT
ATOM      1  C   SER B   4     -15.768  -7.263  14.580  1.00 56.97 LIG 0.24  C 
ATOM      2 O    SER B   4     -15.212  -6.491  15.367  1.00 57.23 LIG-0.27  OA
ATOM      3  N   THR B   5     -15.093  -8.046  13.733  1.00 55.89 LIG-0.34  N 
ATOM      4 H    THR B   5     -15.466  -8.578  13.169  1.00 55.89 LIG 0.16  HD
ENDROOT
BRANCH 3 5
ATOM      5  CA  THR B   5     -13.621  -8.060  13.698  1.00 55.10 LIG 0.20  C 
BRANCH 5 6
ATOM      6  CB  THR B   5     -13.077  -8.726  12.383  1.00 55.33 LIG 0.15  C 
ATOM      7  CG2 THR B   5     -11.543  -8.734  12.342  1.00 55.26 LIG 0.04  C 
BRANCH 6 8
ATOM      8 OG1  THR B   5     -13.562 -10.075  12.269  1.00 55.55 LIG-0.39  OA
ATOM      9 HG1  THR B   5     -14.388 -10.064  12.115  1.00 55.55 LIG 0.21  HD
ENDBRANCH 6 8
ENDBRANCH 5 6
BRANCH 5 10
ATOM     10  C   THR B   5     -12.980  -6.672  13.886  1.00 54.13 LIG 0.24  C 
ATOM     11  N   PRO B   6     -12.451  -6.390  15.098  1.00 52.90 LIG-0.34  N 
ATOM     12  CD  PRO B   6     -12.491  -7.227  16.313  1.00 52.89 LIG 0.13  C 
ATOM     13  CA  PRO B   6     -11.741  -5.124  15.326  1.00 51.99 LIG 0.18  C 
ATOM     14  CG  PRO B   6     -11.870  -6.353  17.374  1.00 52.79 LIG 0.02  C 
ATOM     15  CB  PRO B   6     -11.050  -5.340  16.677  1.00 51.93 LIG 0.04  C 
ATOM     16 O    THR B   5     -12.943  -5.869  12.942  1.00 54.19 LIG-0.27  OA
BRANCH 13 17
ATOM     17  C   PRO B   6     -10.710  -4.871  14.231  1.00 51.04 LIG 0.24  C 
ATOM     18 O    PRO B   6     -10.974  -4.081  13.320  1.00 50.92 LIG-0.27  OA
ATOM     19  N   CYS B   7      -9.551  -5.526  14.317  1.00 49.72 LIG-0.34  N 
ATOM     20 H    CYS B   7      -9.387  -6.145  14.890  1.00 49.72 LIG 0.16  HD
BRANCH 19 21
ATOM     21  CA  CYS B   7      -8.433  -5.222  13.401  1.00 48.85 LIG 0.19  C 
BRANCH 21 22
ATOM     22  C   CYS B   7      -8.845  -5.127  11.933  1.00 48.04 LIG 0.20  C 
ATOM     23 OXT  CYS B   7      -8.670  -4.100  11.281  1.00 47.16 LIG-0.65  OA
ATOM     24 O    CYS B   7      -9.362  -6.090  11.372  1.00 47.51 LIG-0.65  OA
ENDBRANCH 21 22
BRANCH 21 25
ATOM     25  CB  CYS B   7      -7.299  -6.241  13.580  1.00 48.98 LIG 0.11  C 
BRANCH 25 26
ATOM     26 SG   CYS B   7      -7.610  -7.381  14.943  1.00 48.50 LIG-0.18  SA
ATOM     27 HG   CYS B   7      -8.710  -7.847  14.832  1.00 48.50 LIG 0.10  HD
ENDBRANCH 25 26
ENDBRANCH 21 25
ENDBRANCH 19 21
ENDBRANCH 13 17
ENDBRANCH 5 10
ENDBRANCH 3 5
BRANCH 1 28
ATOM     28  CA  SER B   4     -17.298  -7.348  14.532  1.00 57.59 LIG 0.20  C 
BRANCH 28 29
ATOM     29  N   SER B   4     -17.828  -8.451  15.345  1.00 58.14 LIG-0.34  N 
ATOM     30  C   SER B   3     -17.976  -9.685  14.862  1.00 58.75 LIG 0.24  C 
ATOM     31 O    SER B   3     -17.534 -10.024  13.761  1.00 58.75 LIG-0.27  OA
ATOM     32 H    SER B   4     -18.031  -8.227  16.150  1.00 58.14 LIG 0.16  HD
BRANCH 30 33
ATOM     33  CA  SER B   3     -18.716 -10.700  15.761  1.00 59.17 LIG 0.20  C 
BRANCH 33 34
ATOM     34  N   SER B   3     -18.297 -12.076  15.452  1.00 59.50 LIG-0.34  N 
ATOM     35  C   PRO B   2     -17.034 -12.522  15.449  1.00 59.86 LIG 0.25  C 
ATOM     36 O    PRO B   2     -16.748 -13.670  15.089  1.00 59.80 LIG-0.27  OA
ATOM     37 H    SER B   3     -18.963 -12.589  15.267  1.00 59.50 LIG 0.16  HD
BRANCH 35 38
ATOM     38  CA  PRO B   2     -15.898 -11.586  15.893  1.00 60.11 LIG 0.35  C 
ATOM     39  CB  PRO B   2     -15.059 -11.114  14.696  1.00 60.16 LIG 0.05  C 
ATOM     40  CG  PRO B   2     -13.640 -11.169  15.150  1.00 60.30 LIG 0.04  C 
ATOM     41  CD  PRO B   2     -13.563 -12.266  16.159  1.00 60.25 LIG 0.32  C 
ATOM     42  N   PRO B   2     -14.919 -12.291  16.735  1.00 60.27 LIG 0.32  N 
ENDBRANCH 35 38
ENDBRANCH 33 34
BRANCH 33 43
ATOM     43  CB  SER B   3     -18.443 -10.383  17.236  1.00 59.26 LIG 0.20  C 
BRANCH 43 44
ATOM     44 OG   SER B   3     -18.552 -11.550  18.035  1.00 59.53 LIG-0.40  OA
ATOM     45 HG   SER B   3     -18.665 -11.330  18.838  1.00 59.53 LIG 0.21  HD
ENDBRANCH 43 44
ENDBRANCH 33 43
ENDBRANCH 30 33
ENDBRANCH 28 29
BRANCH 28 46
ATOM     46  CB  SER B   4     -17.910  -6.036  15.030  1.00 57.64 LIG 0.20  C 
BRANCH 46 47
ATOM     47 OG   SER B   4     -19.291  -6.202  15.325  1.00 57.32 LIG-0.40  OA
ATOM     48 HG   SER B   4     -19.751  -5.868  14.707  1.00 57.32 LIG 0.21  HD
ENDBRANCH 46 47
ENDBRANCH 28 46
ENDBRANCH 1 28
TORSDOF 18
ENDMDL
MODEL 85
USER: ADFR SOLUTION from run 56
USER: SCORE 12.687591 LL:  -3.638 LR: -11.134 RR:   0.000 FEB:  -5.764
USER: RMSD 8.694588
USER: SEED 55
USER: STATUS no improvement in best in 14 clusters for 5 generations
USER: GENES 20
USER: genes 0 Translation |==|  0.65299 0.57942 0.37525
USER: genes 1 Rotation |==|  0.44867 0.35116 0.71528 0.92292
USER: genes 2 Torsion [C]-N--CA-[CB] |==|  0.45081
USER: genes 3 Torsion [N]-CA--CB-[CG2] |==|  0.17745
USER: genes 4 Torsion [CA]-CB--OG1-[HG1] |==|  0.65842
USER: genes 5 Torsion [N]-CA--C-[N] |==|  0.90107
USER: genes 6 Torsion [N]-CA--C-[O] |==|  0.76191
USER: genes 7 Torsion [C]-N--CA-[CB] |==|  0.11624
USER: genes 8 Torsion [N]-CA--C-[O] |==|  0.03753
USER: genes 9 Torsion [N]-CA--CB-[SG] |==|  0.68561
USER: genes 10 Torsion [CA]-CB--SG-[HG] |==|  0.97960
USER: genes 11 Torsion [N]-C--CA-[N] |==|  0.62369
USER: genes 12 Torsion [C]-CA--N-[C] |==|  0.15507
USER: genes 13 Torsion [N]-C--CA-[N] |==|  0.28156
USER: genes 14 Torsion [C]-CA--N-[C] |==|  0.76621
USER: genes 15 Torsion [N]-C--CA-[N] |==|  0.24864
USER: genes 16 Torsion [C]-CA--CB-[OG] |==|  0.46587
USER: genes 17 Torsion [CA]-CB--OG-[HG] |==|  0.37160
USER: genes 18 Torsion [C]-CA--CB-[OG] |==|  0.54477
USER: genes 19 Torsion [CA]-CB--OG-[HG] |==|  0.52903
ROOT
ATOM      1  C   SER B   4     -15.186  -6.660  13.257  1.00 56.97 LIG 0.24  C 
ATOM      2 O    SER B   4     -14.392  -6.888  12.339  1.00 57.23 LIG-0.27  OA
ATOM      3  N   THR B   5     -15.284  -5.466  13.850  1.00 55.89 LIG-0.34  N 
ATOM      4 H    THR B   5     -15.822  -5.296  14.500  1.00 55.89 LIG 0.16  HD
ENDROOT
BRANCH 3 5
ATOM      5  CA  THR B   5     -14.460  -4.321  13.428  1.00 55.10 LIG 0.20  C 
BRANCH 5 6
ATOM      6  CB  THR B   5     -15.051  -2.959  13.942  1.00 55.33 LIG 0.15  C 
ATOM      7  CG2 THR B   5     -15.044  -2.879  15.475  1.00 55.26 LIG 0.04  C 
BRANCH 6 8
ATOM      8 OG1  THR B   5     -14.302  -1.855  13.406  1.00 55.55 LIG-0.39  OA
ATOM      9 HG1  THR B   5     -14.004  -1.385  14.035  1.00 55.55 LIG 0.21  HD
ENDBRANCH 6 8
ENDBRANCH 5 6
BRANCH 5 10
ATOM     10  C   THR B   5     -12.979  -4.437  13.834  1.00 54.13 LIG 0.24  C 
ATOM     11  N   PRO B   6     -12.704  -5.022  15.021  1.00 52.90 LIG-0.34  N 
ATOM     12  CD  PRO B   6     -13.667  -5.491  16.037  1.00 52.89 LIG 0.13  C 
ATOM     13  CA  PRO B   6     -11.313  -5.252  15.436  1.00 51.99 LIG 0.18  C 
ATOM     14  CG  PRO B   6     -12.795  -5.922  17.190  1.00 52.79 LIG 0.02  C 
ATOM     15  CB  PRO B   6     -11.449  -6.190  16.640  1.00 51.93 LIG 0.04  C 
ATOM     16 O    THR B   5     -12.091  -4.022  13.076  1.00 54.19 LIG-0.27  OA
BRANCH 13 17
ATOM     17  C   PRO B   6     -10.517  -5.923  14.321  1.00 51.04 LIG 0.24  C 
ATOM     18 O    PRO B   6     -10.538  -7.153  14.215  1.00 50.92 LIG-0.27  OA
ATOM     19  N   CYS B   7      -9.826  -5.132  13.499  1.00 49.72 LIG-0.34  N 
ATOM     20 H    CYS B   7      -9.727  -4.286  13.613  1.00 49.72 LIG 0.16  HD
BRANCH 19 21
ATOM     21  CA  CYS B   7      -9.163  -5.674  12.295  1.00 48.85 LIG 0.19  C 
BRANCH 21 22
ATOM     22  C   CYS B   7      -8.690  -4.603  11.315  1.00 48.04 LIG 0.20  C 
ATOM     23 OXT  CYS B   7      -8.349  -4.886  10.168  1.00 47.16 LIG-0.65  OA
ATOM     24 O    CYS B   7      -8.646  -3.425  11.660  1.00 47.51 LIG-0.65  OA
ENDBRANCH 21 22
BRANCH 21 25
ATOM     25  CB  CYS B   7     -10.073  -6.689  11.590  1.00 48.98 LIG 0.11  C 
BRANCH 25 26
ATOM     26 SG   CYS B   7      -9.414  -8.367  11.659  1.00 48.50 LIG-0.18  SA
ATOM     27 HG   CYS B   7      -8.308  -8.343  12.126  1.00 48.50 LIG 0.10  HD
ENDBRANCH 25 26
ENDBRANCH 21 25
ENDBRANCH 19 21
ENDBRANCH 13 17
ENDBRANCH 5 10
ENDBRANCH 3 5
BRANCH 1 28
ATOM     28  CA  SER B   4     -16.108  -7.770  13.776  1.00 57.59 LIG 0.20  C 
BRANCH 28 29
ATOM     29  N   SER B   4     -15.408  -9.049  13.950  1.00 58.14 LIG-0.34  N 
ATOM     30  C   SER B   3     -14.319  -9.170  14.710  1.00 58.75 LIG 0.24  C 
ATOM     31 O    SER B   3     -13.919  -8.261  15.443  1.00 58.75 LIG-0.27  OA
ATOM     32 H    SER B   4     -15.762  -9.705  13.519  1.00 58.14 LIG 0.16  HD
BRANCH 30 33
ATOM     33  CA  SER B   3     -13.578 -10.523  14.656  1.00 59.17 LIG 0.20  C 
BRANCH 33 34
ATOM     34  N   SER B   3     -12.384 -10.433  13.802  1.00 59.50 LIG-0.34  N 
ATOM     35  C   PRO B   2     -12.371 -10.570  12.469  1.00 59.86 LIG 0.25  C 
ATOM     36 O    PRO B   2     -11.315 -10.575  11.824  1.00 59.80 LIG-0.27  OA
ATOM     37 H    SER B   3     -11.667 -10.279  14.251  1.00 59.50 LIG 0.16  HD
BRANCH 35 38
ATOM     38  CA  PRO B   2     -13.698 -10.737  11.710  1.00 60.11 LIG 0.35  C 
ATOM     39  CB  PRO B   2     -13.489 -11.455  10.367  1.00 60.16 LIG 0.05  C 
ATOM     40  CG  PRO B   2     -14.347 -10.731   9.385  1.00 60.30 LIG 0.04  C 
ATOM     41  CD  PRO B   2     -14.423  -9.316   9.856  1.00 60.25 LIG 0.32  C 
ATOM     42  N   PRO B   2     -14.258  -9.436  11.315  1.00 60.27 LIG 0.32  N 
ENDBRANCH 35 38
ENDBRANCH 33 34
BRANCH 33 43
ATOM     43  CB  SER B   3     -13.182 -10.956  16.073  1.00 59.26 LIG 0.20  C 
BRANCH 43 44
ATOM     44 OG   SER B   3     -12.756 -12.308  16.091  1.00 59.53 LIG-0.40  OA
ATOM     45 HG   SER B   3     -12.046 -12.372  16.535  1.00 59.53 LIG 0.21  HD
ENDBRANCH 43 44
ENDBRANCH 33 43
ENDBRANCH 30 33
ENDBRANCH 28 29
BRANCH 28 46
ATOM     46  CB  SER B   4     -16.717  -7.359  15.118  1.00 57.64 LIG 0.20  C 
BRANCH 46 47
ATOM     47 OG   SER B   4     -17.265  -8.485  15.790  1.00 57.32 LIG-0.40  OA
ATOM     48 HG   SER B   4     -17.716  -8.226  16.449  1.00 57.32 LIG 0.21  HD
ENDBRANCH 46 47
ENDBRANCH 28 46
ENDBRANCH 1 28
TORSDOF 18
ENDMDL
MODEL 86
USER: ADFR SOLUTION from run 34
USER: SCORE 12.165207 LL:  -2.305 LR: -11.065 RR:   0.000 FEB:  -5.696
USER: RMSD 8.673038
USER: SEED 33
USER: STATUS no improvement in best in 10 clusters for 5 generations
USER: GENES 20
USER: genes 0 Translation |==|  0.75712 0.55987 0.41830
USER: genes 1 Rotation |==|  0.10726 0.42358 0.78811 0.58312
USER: genes 2 Torsion [C]-N--CA-[CB] |==|  0.50557
USER: genes 3 Torsion [N]-CA--CB-[CG2] |==|  0.15123
USER: genes 4 Torsion [CA]-CB--OG1-[HG1] |==|  0.95558
USER: genes 5 Torsion [N]-CA--C-[N] |==|  0.29015
USER: genes 6 Torsion [N]-CA--C-[O] |==|  0.00838
USER: genes 7 Torsion [C]-N--CA-[CB] |==|  0.86494
USER: genes 8 Torsion [N]-CA--C-[O] |==|  0.61401
USER: genes 9 Torsion [N]-CA--CB-[SG] |==|  0.45302
USER: genes 10 Torsion [CA]-CB--SG-[HG] |==|  0.79322
USER: genes 11 Torsion [N]-C--CA-[N] |==|  0.30760
USER: genes 12 Torsion [C]-CA--N-[C] |==|  0.78111
USER: genes 13 Torsion [N]-C--CA-[N] |==|  0.41163
USER: genes 14 Torsion [C]-CA--N-[C] |==|  0.73538
USER: genes 15 Torsion [N]-C--CA-[N] |==|  0.37075
USER: genes 16 Torsion [C]-CA--CB-[OG] |==|  0.42287
USER: genes 17 Torsion [CA]-CB--OG-[HG] |==|  0.54567
USER: genes 18 Torsion [C]-CA--CB-[OG] |==|  0.41445
USER: genes 19 Torsion [CA]-CB--OG-[HG] |==|  0.51369
ROOT
ATOM      1  C   SER B   4     -12.218  -6.953  13.871  1.00 56.97 LIG 0.24  C 
ATOM      2 O    SER B   4     -11.155  -6.895  14.497  1.00 57.23 LIG-0.27  OA
ATOM      3  N   THR B   5     -12.277  -6.904  12.536  1.00 55.89 LIG-0.34  N 
ATOM      4 H    THR B   5     -13.010  -6.929  12.087  1.00 55.89 LIG 0.16  HD
ENDROOT
BRANCH 3 5
ATOM      5  CA  THR B   5     -11.062  -6.802  11.711  1.00 55.10 LIG 0.20  C 
BRANCH 5 6
ATOM      6  CB  THR B   5     -11.406  -6.711  10.180  1.00 55.33 LIG 0.15  C 
ATOM      7  CG2 THR B   5     -12.383  -5.565   9.885  1.00 55.26 LIG 0.04  C 
BRANCH 6 8
ATOM      8 OG1  THR B   5     -10.207  -6.523   9.409  1.00 55.55 LIG-0.39  OA
ATOM      9 HG1  THR B   5      -9.582  -6.281   9.916  1.00 55.55 LIG 0.21  HD
ENDBRANCH 6 8
ENDBRANCH 5 6
BRANCH 5 10
ATOM     10  C   THR B   5     -10.135  -5.639  12.110  1.00 54.13 LIG 0.24  C 
ATOM     11  N   PRO B   6      -9.009  -5.947  12.791  1.00 52.90 LIG-0.34  N 
ATOM     12  CD  PRO B   6      -8.594  -7.273  13.289  1.00 52.89 LIG 0.13  C 
ATOM     13  CA  PRO B   6      -8.029  -4.904  13.125  1.00 51.99 LIG 0.18  C 
ATOM     14  CG  PRO B   6      -7.341  -6.987  14.079  1.00 52.79 LIG 0.02  C 
ATOM     15  CB  PRO B   6      -6.804  -5.699  13.591  1.00 51.93 LIG 0.04  C 
ATOM     16 O    THR B   5     -10.420  -4.476  11.788  1.00 54.19 LIG-0.27  OA
BRANCH 13 17
ATOM     17  C   PRO B   6      -7.688  -4.063  11.899  1.00 51.04 LIG 0.24  C 
ATOM     18 O    PRO B   6      -8.269  -4.282  10.832  1.00 50.92 LIG-0.27  OA
ATOM     19  N   CYS B   7      -6.765  -3.112  12.045  1.00 49.72 LIG-0.34  N 
ATOM     20 H    CYS B   7      -6.288  -3.006  12.753  1.00 49.72 LIG 0.16  HD
BRANCH 19 21
ATOM     21  CA  CYS B   7      -6.490  -2.142  10.966  1.00 48.85 LIG 0.19  C 
BRANCH 21 22
ATOM     22  C   CYS B   7      -7.542  -1.042  10.841  1.00 48.04 LIG 0.20  C 
ATOM     23 OXT  CYS B   7      -8.029  -0.502  11.832  1.00 47.16 LIG-0.65  OA
ATOM     24 O    CYS B   7      -7.921  -0.672   9.733  1.00 47.51 LIG-0.65  OA
ENDBRANCH 21 22
BRANCH 21 25
ATOM     25  CB  CYS B   7      -6.303  -2.867   9.626  1.00 48.98 LIG 0.11  C 
BRANCH 25 26
ATOM     26 SG   CYS B   7      -6.451  -1.752   8.216  1.00 48.50 LIG-0.18  SA
ATOM     27 HG   CYS B   7      -7.605  -1.468   8.049  1.00 48.50 LIG 0.10  HD
ENDBRANCH 25 26
ENDBRANCH 21 25
ENDBRANCH 19 21
ENDBRANCH 13 17
ENDBRANCH 5 10
ENDBRANCH 3 5
BRANCH 1 28
ATOM     28  CA  SER B   4     -13.550  -7.075  14.620  1.00 57.59 LIG 0.20  C 
BRANCH 28 29
ATOM     29  N   SER B   4     -13.718  -8.384  15.264  1.00 58.14 LIG-0.34  N 
ATOM     30  C   SER B   3     -14.084  -9.472  14.586  1.00 58.75 LIG 0.24  C 
ATOM     31 O    SER B   3     -14.151  -9.492  13.354  1.00 58.75 LIG-0.27  OA
ATOM     32 H    SER B   4     -13.560  -8.382  16.110  1.00 58.14 LIG 0.16  HD
BRANCH 30 33
ATOM     33  CA  SER B   3     -14.404 -10.735  15.414  1.00 59.17 LIG 0.20  C 
BRANCH 33 34
ATOM     34  N   SER B   3     -15.442 -11.543  14.757  1.00 59.50 LIG-0.34  N 
ATOM     35  C   PRO B   2     -16.754 -11.489  15.024  1.00 59.86 LIG 0.25  C 
ATOM     36 O    PRO B   2     -17.560 -12.265  14.498  1.00 59.80 LIG-0.27  OA
ATOM     37 H    SER B   3     -15.120 -12.075  14.163  1.00 59.50 LIG 0.16  HD
BRANCH 35 38
ATOM     38  CA  PRO B   2     -17.283 -10.442  16.019  1.00 60.11 LIG 0.35  C 
ATOM     39  CB  PRO B   2     -17.803 -11.103  17.305  1.00 60.16 LIG 0.05  C 
ATOM     40  CG  PRO B   2     -19.063 -10.382  17.649  1.00 60.30 LIG 0.04  C 
ATOM     41  CD  PRO B   2     -19.649  -9.921  16.357  1.00 60.25 LIG 0.32  C 
ATOM     42  N   PRO B   2     -18.469  -9.751  15.491  1.00 60.27 LIG 0.32  N 
ENDBRANCH 35 38
ENDBRANCH 33 34
BRANCH 33 43
ATOM     43  CB  SER B   3     -13.130 -11.566  15.607  1.00 59.26 LIG 0.20  C 
BRANCH 43 44
ATOM     44 OG   SER B   3     -13.194 -12.322  16.805  1.00 59.53 LIG-0.40  OA
ATOM     45 HG   SER B   3     -12.424 -12.588  17.010  1.00 59.53 LIG 0.21  HD
ENDBRANCH 43 44
ENDBRANCH 33 43
ENDBRANCH 30 33
ENDBRANCH 28 29
BRANCH 28 46
ATOM     46  CB  SER B   4     -13.649  -5.986  15.691  1.00 57.64 LIG 0.20  C 
BRANCH 46 47
ATOM     47 OG   SER B   4     -15.001  -5.600  15.897  1.00 57.32 LIG-0.40  OA
ATOM     48 HG   SER B   4     -15.030  -4.958  16.437  1.00 57.32 LIG 0.21  HD
ENDBRANCH 46 47
ENDBRANCH 28 46
ENDBRANCH 1 28
TORSDOF 18
ENDMDL
MODEL 87
USER: ADFR SOLUTION from run 11
USER: SCORE 12.901957 LL:  -2.942 LR: -11.036 RR:   0.000 FEB:  -5.667
USER: RMSD 5.687787
USER: SEED 691479
USER: STATUS no improvement in best in 7 clusters for 5 generations
USER: GENES 20
USER: genes 0 Translation |==|  0.62010 0.53249 0.48349
USER: genes 1 Rotation |==|  0.94080 0.48339 0.36544 0.69316
USER: genes 2 Torsion [C]-N--CA-[CB] |==|  0.51120
USER: genes 3 Torsion [N]-CA--CB-[CG2] |==|  0.78074
USER: genes 4 Torsion [CA]-CB--OG1-[HG1] |==|  0.77365
USER: genes 5 Torsion [N]-CA--C-[N] |==|  0.36535
USER: genes 6 Torsion [N]-CA--C-[O] |==|  0.26638
USER: genes 7 Torsion [C]-N--CA-[CB] |==|  0.81280
USER: genes 8 Torsion [N]-CA--C-[O] |==|  0.06504
USER: genes 9 Torsion [N]-CA--CB-[SG] |==|  0.79973
USER: genes 10 Torsion [CA]-CB--SG-[HG] |==|  0.87051
USER: genes 11 Torsion [N]-C--CA-[N] |==|  0.21093
USER: genes 12 Torsion [C]-CA--N-[C] |==|  0.77923
USER: genes 13 Torsion [N]-C--CA-[N] |==|  0.37931
USER: genes 14 Torsion [C]-CA--N-[C] |==|  0.67848
USER: genes 15 Torsion [N]-C--CA-[N] |==|  0.83978
USER: genes 16 Torsion [C]-CA--CB-[OG] |==|  0.23295
USER: genes 17 Torsion [CA]-CB--OG-[HG] |==|  0.33452
USER: genes 18 Torsion [C]-CA--CB-[OG] |==|  0.59954
USER: genes 19 Torsion [CA]-CB--OG-[HG] |==|  0.58138
ROOT
ATOM      1  C   SER B   4     -16.123  -7.364  14.800  1.00 56.97 LIG 0.24  C 
ATOM      2 O    SER B   4     -15.744  -6.331  15.360  1.00 57.23 LIG-0.27  OA
ATOM      3  N   THR B   5     -15.285  -8.333  14.420  1.00 55.89 LIG-0.34  N 
ATOM      4 H    THR B   5     -15.533  -9.051  14.016  1.00 55.89 LIG 0.16  HD
ENDROOT
BRANCH 3 5
ATOM      5  CA  THR B   5     -13.836  -8.244  14.667  1.00 55.10 LIG 0.20  C 
BRANCH 5 6
ATOM      6  CB  THR B   5     -13.064  -9.458  14.036  1.00 55.33 LIG 0.15  C 
ATOM      7  CG2 THR B   5     -13.181 -10.719  14.903  1.00 55.26 LIG 0.04  C 
BRANCH 6 8
ATOM      8 OG1  THR B   5     -13.568  -9.740  12.718  1.00 55.55 LIG-0.39  OA
ATOM      9 HG1  THR B   5     -14.268 -10.201  12.778  1.00 55.55 LIG 0.21  HD
ENDBRANCH 6 8
ENDBRANCH 5 6
BRANCH 5 10
ATOM     10  C   THR B   5     -13.204  -6.920  14.199  1.00 54.13 LIG 0.24  C 
ATOM     11  N   PRO B   6     -12.397  -6.274  15.071  1.00 52.90 LIG-0.34  N 
ATOM     12  CD  PRO B   6     -12.112  -6.639  16.472  1.00 52.89 LIG 0.13  C 
ATOM     13  CA  PRO B   6     -11.684  -5.055  14.665  1.00 51.99 LIG 0.18  C 
ATOM     14  CG  PRO B   6     -11.267  -5.496  16.978  1.00 52.79 LIG 0.02  C 
ATOM     15  CB  PRO B   6     -10.673  -4.838  15.796  1.00 51.93 LIG 0.04  C 
ATOM     16 O    THR B   5     -13.424  -6.495  13.056  1.00 54.19 LIG-0.27  OA
BRANCH 13 17
ATOM     17  C   PRO B   6     -10.965  -5.260  13.335  1.00 51.04 LIG 0.24  C 
ATOM     18 O    PRO B   6     -11.512  -4.903  12.287  1.00 50.92 LIG-0.27  OA
ATOM     19  N   CYS B   7      -9.756  -5.822  13.372  1.00 49.72 LIG-0.34  N 
ATOM     20 H    CYS B   7      -9.401  -6.158  14.079  1.00 49.72 LIG 0.16  HD
BRANCH 19 21
ATOM     21  CA  CYS B   7      -8.916  -5.908  12.160  1.00 48.85 LIG 0.19  C 
BRANCH 21 22
ATOM     22  C   CYS B   7      -8.618  -4.555  11.518  1.00 48.04 LIG 0.20  C 
ATOM     23 OXT  CYS B   7      -8.322  -4.458  10.329  1.00 47.16 LIG-0.65  OA
ATOM     24 O    CYS B   7      -8.671  -3.527  12.188  1.00 47.51 LIG-0.65  OA
ENDBRANCH 21 22
BRANCH 21 25
ATOM     25  CB  CYS B   7      -9.545  -6.865  11.137  1.00 48.98 LIG 0.11  C 
BRANCH 25 26
ATOM     26 SG   CYS B   7      -9.413  -8.592  11.643  1.00 48.50 LIG-0.18  SA
ATOM     27 HG   CYS B   7      -8.295  -8.816  12.016  1.00 48.50 LIG 0.10  HD
ENDBRANCH 25 26
ENDBRANCH 21 25
ENDBRANCH 19 21
ENDBRANCH 13 17
ENDBRANCH 5 10
ENDBRANCH 3 5
BRANCH 1 28
ATOM     28  CA  SER B   4     -17.612  -7.577  14.500  1.00 57.59 LIG 0.20  C 
BRANCH 28 29
ATOM     29  N   SER B   4     -18.241  -8.535  15.418  1.00 58.14 LIG-0.34  N 
ATOM     30  C   SER B   3     -18.110  -9.854  15.273  1.00 58.75 LIG 0.24  C 
ATOM     31 O    SER B   3     -17.328 -10.357  14.462  1.00 58.75 LIG-0.27  OA
ATOM     32 H    SER B   4     -18.696  -8.169  16.049  1.00 58.14 LIG 0.16  HD
BRANCH 30 33
ATOM     33  CA  SER B   3     -18.973 -10.745  16.192  1.00 59.17 LIG 0.20  C 
BRANCH 33 34
ATOM     34  N   SER B   3     -19.564 -11.860  15.437  1.00 59.50 LIG-0.34  N 
ATOM     35  C   PRO B   2     -20.875 -12.051  15.231  1.00 59.86 LIG 0.25  C 
ATOM     36 O    PRO B   2     -21.305 -13.062  14.664  1.00 59.80 LIG-0.27  OA
ATOM     37 H    SER B   3     -18.971 -12.400  15.127  1.00 59.50 LIG 0.16  HD
BRANCH 35 38
ATOM     38  CA  PRO B   2     -21.881 -10.994  15.717  1.00 60.11 LIG 0.35  C 
ATOM     39  CB  PRO B   2     -21.578  -9.613  15.114  1.00 60.16 LIG 0.05  C 
ATOM     40  CG  PRO B   2     -21.767  -8.637  16.226  1.00 60.30 LIG 0.04  C 
ATOM     41  CD  PRO B   2     -21.434  -9.365  17.486  1.00 60.25 LIG 0.32  C 
ATOM     42  N   PRO B   2     -21.761 -10.765  17.165  1.00 60.27 LIG 0.32  N 
ENDBRANCH 35 38
ENDBRANCH 33 34
BRANCH 33 43
ATOM     43  CB  SER B   3     -18.119 -11.283  17.347  1.00 59.26 LIG 0.20  C 
BRANCH 43 44
ATOM     44 OG   SER B   3     -18.039 -10.339  18.402  1.00 59.53 LIG-0.40  OA
ATOM     45 HG   SER B   3     -18.350 -10.678  19.105  1.00 59.53 LIG 0.21  HD
ENDBRANCH 43 44
ENDBRANCH 33 43
ENDBRANCH 30 33
ENDBRANCH 28 29
BRANCH 28 46
ATOM     46  CB  SER B   4     -18.360  -6.245  14.594  1.00 57.64 LIG 0.20  C 
BRANCH 46 47
ATOM     47 OG   SER B   4     -19.662  -6.434  15.132  1.00 57.32 LIG-0.40  OA
ATOM     48 HG   SER B   4     -20.179  -5.847  14.827  1.00 57.32 LIG 0.21  HD
ENDBRANCH 46 47
ENDBRANCH 28 46
ENDBRANCH 1 28
TORSDOF 18
ENDMDL
MODEL 88
USER: ADFR SOLUTION from run 8
USER: SCORE 12.621989 LL:  -3.284 LR: -11.036 RR:   0.000 FEB:  -5.667
USER: RMSD 6.649833
USER: SEED 435
USER: STATUS no improvement in best in 6 clusters for 5 generations
USER: GENES 20
USER: genes 0 Translation |==|  0.65672 0.57944 0.40615
USER: genes 1 Rotation |==|  0.41450 0.36508 0.73552 0.91112
USER: genes 2 Torsion [C]-N--CA-[CB] |==|  0.46111
USER: genes 3 Torsion [N]-CA--CB-[CG2] |==|  0.16825
USER: genes 4 Torsion [CA]-CB--OG1-[HG1] |==|  0.64641
USER: genes 5 Torsion [N]-CA--C-[N] |==|  0.91283
USER: genes 6 Torsion [N]-CA--C-[O] |==|  0.77272
USER: genes 7 Torsion [C]-N--CA-[CB] |==|  0.11631
USER: genes 8 Torsion [N]-CA--C-[O] |==|  0.56817
USER: genes 9 Torsion [N]-CA--CB-[SG] |==|  0.70001
USER: genes 10 Torsion [CA]-CB--SG-[HG] |==|  0.95797
USER: genes 11 Torsion [N]-C--CA-[N] |==|  0.19557
USER: genes 12 Torsion [C]-CA--N-[C] |==|  0.79287
USER: genes 13 Torsion [N]-C--CA-[N] |==|  0.91746
USER: genes 14 Torsion [C]-CA--N-[C] |==|  0.81848
USER: genes 15 Torsion [N]-C--CA-[N] |==|  0.26352
USER: genes 16 Torsion [C]-CA--CB-[OG] |==|  0.43740
USER: genes 17 Torsion [CA]-CB--OG-[HG] |==|  0.86630
USER: genes 18 Torsion [C]-CA--CB-[OG] |==|  0.71794
USER: genes 19 Torsion [CA]-CB--OG-[HG] |==|  0.19978
ROOT
ATOM      1  C   SER B   4     -15.080  -6.659  13.698  1.00 56.97 LIG 0.24  C 
ATOM      2 O    SER B   4     -14.258  -7.004  12.842  1.00 57.23 LIG-0.27  OA
ATOM      3  N   THR B   5     -15.239  -5.389  14.080  1.00 55.89 LIG-0.34  N 
ATOM      4 H    THR B   5     -15.797  -5.136  14.684  1.00 55.89 LIG 0.16  HD
ENDROOT
BRANCH 3 5
ATOM      5  CA  THR B   5     -14.454  -4.296  13.482  1.00 55.10 LIG 0.20  C 
BRANCH 5 6
ATOM      6  CB  THR B   5     -15.059  -2.888  13.831  1.00 55.33 LIG 0.15  C 
ATOM      7  CG2 THR B   5     -15.081  -2.638  15.345  1.00 55.26 LIG 0.04  C 
BRANCH 6 8
ATOM      8 OG1  THR B   5     -14.302  -1.847  13.189  1.00 55.55 LIG-0.39  OA
ATOM      9 HG1  THR B   5     -14.069  -1.277  13.760  1.00 55.55 LIG 0.21  HD
ENDBRANCH 6 8
ENDBRANCH 5 6
BRANCH 5 10
ATOM     10  C   THR B   5     -12.959  -4.330  13.851  1.00 54.13 LIG 0.24  C 
ATOM     11  N   PRO B   6     -12.629  -4.829  15.063  1.00 52.90 LIG-0.34  N 
ATOM     12  CD  PRO B   6     -13.545  -5.270  16.134  1.00 52.89 LIG 0.13  C 
ATOM     13  CA  PRO B   6     -11.220  -4.980  15.450  1.00 51.99 LIG 0.18  C 
ATOM     14  CG  PRO B   6     -12.625  -5.594  17.285  1.00 52.79 LIG 0.02  C 
ATOM     15  CB  PRO B   6     -11.285  -5.845  16.713  1.00 51.93 LIG 0.04  C 
ATOM     16 O    THR B   5     -12.108  -3.930  13.043  1.00 54.19 LIG-0.27  OA
BRANCH 13 17
ATOM     17  C   PRO B   6     -10.427  -5.689  14.356  1.00 51.04 LIG 0.24  C 
ATOM     18 O    PRO B   6     -10.462  -6.921  14.282  1.00 50.92 LIG-0.27  OA
ATOM     19  N   CYS B   7      -9.727  -4.928  13.514  1.00 49.72 LIG-0.34  N 
ATOM     20 H    CYS B   7      -9.619  -4.080  13.606  1.00 49.72 LIG 0.16  HD
BRANCH 19 21
ATOM     21  CA  CYS B   7      -9.066  -5.508  12.327  1.00 48.85 LIG 0.19  C 
BRANCH 21 22
ATOM     22  C   CYS B   7      -8.580  -4.468  11.320  1.00 48.04 LIG 0.20  C 
ATOM     23 OXT  CYS B   7      -8.321  -3.316  11.660  1.00 47.16 LIG-0.65  OA
ATOM     24 O    CYS B   7      -8.436  -4.771  10.139  1.00 47.51 LIG-0.65  OA
ENDBRANCH 21 22
BRANCH 21 25
ATOM     25  CB  CYS B   7      -9.986  -6.531  11.647  1.00 48.98 LIG 0.11  C 
BRANCH 25 26
ATOM     26 SG   CYS B   7      -9.424  -8.228  11.890  1.00 48.50 LIG-0.18  SA
ATOM     27 HG   CYS B   7      -8.289  -8.222  12.282  1.00 48.50 LIG 0.10  HD
ENDBRANCH 25 26
ENDBRANCH 21 25
ENDBRANCH 19 21
ENDBRANCH 13 17
ENDBRANCH 5 10
ENDBRANCH 3 5
BRANCH 1 28
ATOM     28  CA  SER B   4     -15.966  -7.706  14.383  1.00 57.59 LIG 0.20  C 
BRANCH 28 29
ATOM     29  N   SER B   4     -17.375  -7.604  13.979  1.00 58.14 LIG-0.34  N 
ATOM     30  C   SER B   3     -18.175  -6.634  14.421  1.00 58.75 LIG 0.24  C 
ATOM     31 O    SER B   3     -17.754  -5.670  15.067  1.00 58.75 LIG-0.27  OA
ATOM     32 H    SER B   4     -17.630  -8.222  13.438  1.00 58.14 LIG 0.16  HD
BRANCH 30 33
ATOM     33  CA  SER B   3     -19.674  -6.752  14.069  1.00 59.17 LIG 0.20  C 
BRANCH 33 34
ATOM     34  N   SER B   3     -19.858  -7.462  12.794  1.00 59.50 LIG-0.34  N 
ATOM     35  C   PRO B   2     -19.458  -7.020  11.594  1.00 59.86 LIG 0.25  C 
ATOM     36 O    PRO B   2     -19.730  -7.627  10.552  1.00 59.80 LIG-0.27  OA
ATOM     37 H    SER B   3     -20.262  -8.215  12.891  1.00 59.50 LIG 0.16  HD
BRANCH 35 38
ATOM     38  CA  PRO B   2     -18.647  -5.717  11.497  1.00 60.11 LIG 0.35  C 
ATOM     39  CB  PRO B   2     -18.896  -4.999  10.162  1.00 60.16 LIG 0.05  C 
ATOM     40  CG  PRO B   2     -17.560  -4.512   9.710  1.00 60.30 LIG 0.04  C 
ATOM     41  CD  PRO B   2     -16.556  -5.476  10.249  1.00 60.25 LIG 0.32  C 
ATOM     42  N   PRO B   2     -17.201  -5.987  11.472  1.00 60.27 LIG 0.32  N 
ENDBRANCH 35 38
ENDBRANCH 33 34
BRANCH 33 43
ATOM     43  CB  SER B   3     -20.416  -7.485  15.194  1.00 59.26 LIG 0.20  C 
BRANCH 43 44
ATOM     44 OG   SER B   3     -21.799  -7.173  15.177  1.00 59.53 LIG-0.40  OA
ATOM     45 HG   SER B   3     -21.898  -6.341  15.117  1.00 59.53 LIG 0.21  HD
ENDBRANCH 43 44
ENDBRANCH 33 43
ENDBRANCH 30 33
ENDBRANCH 28 29
BRANCH 28 46
ATOM     46  CB  SER B   4     -15.463  -9.114  14.052  1.00 57.64 LIG 0.20  C 
BRANCH 46 47
ATOM     47 OG   SER B   4     -16.265  -9.713  13.044  1.00 57.32 LIG-0.40  OA
ATOM     48 HG   SER B   4     -16.111  -9.343  12.306  1.00 57.32 LIG 0.21  HD
ENDBRANCH 46 47
ENDBRANCH 28 46
ENDBRANCH 1 28
TORSDOF 18
ENDMDL
MODEL 89
USER: ADFR SOLUTION from run 116
USER: SCORE 13.819070 LL:  -3.147 LR: -11.033 RR:   0.000 FEB:  -5.664
USER: RMSD 8.078385
USER: SEED 115
USER: STATUS no improvement in best in 8 clusters for 5 generations
USER: GENES 20
USER: genes 0 Translation |==|  0.71804 0.49446 0.42826
USER: genes 1 Rotation |==|  0.31015 0.26520 0.66341 0.86349
USER: genes 2 Torsion [C]-N--CA-[CB] |==|  0.75026
USER: genes 3 Torsion [N]-CA--CB-[CG2] |==|  0.14611
USER: genes 4 Torsion [CA]-CB--OG1-[HG1] |==|  0.30108
USER: genes 5 Torsion [N]-CA--C-[N] |==|  0.21507
USER: genes 6 Torsion [N]-CA--C-[O] |==|  0.45182
USER: genes 7 Torsion [C]-N--CA-[CB] |==|  0.85163
USER: genes 8 Torsion [N]-CA--C-[O] |==|  0.63564
USER: genes 9 Torsion [N]-CA--CB-[SG] |==|  0.87573
USER: genes 10 Torsion [CA]-CB--SG-[HG] |==|  0.38258
USER: genes 11 Torsion [N]-C--CA-[N] |==|  0.04701
USER: genes 12 Torsion [C]-CA--N-[C] |==|  0.73887
USER: genes 13 Torsion [N]-C--CA-[N] |==|  0.91090
USER: genes 14 Torsion [C]-CA--N-[C] |==|  0.84066
USER: genes 15 Torsion [N]-C--CA-[N] |==|  0.46309
USER: genes 16 Torsion [C]-CA--CB-[OG] |==|  0.43001
USER: genes 17 Torsion [CA]-CB--OG-[HG] |==|  0.07687
USER: genes 18 Torsion [C]-CA--CB-[OG] |==|  0.65420
USER: genes 19 Torsion [CA]-CB--OG-[HG] |==|  0.61533
ROOT
ATOM      1  C   SER B   4     -13.332  -7.934  14.013  1.00 56.97 LIG 0.24  C 
ATOM      2 O    SER B   4     -12.265  -8.530  13.839  1.00 57.23 LIG-0.27  OA
ATOM      3  N   THR B   5     -13.406  -6.608  14.166  1.00 55.89 LIG-0.34  N 
ATOM      4 H    THR B   5     -14.140  -6.181  14.302  1.00 55.89 LIG 0.16  HD
ENDROOT
BRANCH 3 5
ATOM      5  CA  THR B   5     -12.207  -5.755  14.114  1.00 55.10 LIG 0.20  C 
BRANCH 5 6
ATOM      6  CB  THR B   5     -11.558  -5.577  15.534  1.00 55.33 LIG 0.15  C 
ATOM      7  CG2 THR B   5     -11.296  -6.929  16.212  1.00 55.26 LIG 0.04  C 
BRANCH 6 8
ATOM      8 OG1  THR B   5     -10.320  -4.851  15.430  1.00 55.55 LIG-0.39  OA
ATOM      9 HG1  THR B   5     -10.421  -4.080  15.746  1.00 55.55 LIG 0.21  HD
ENDBRANCH 6 8
ENDBRANCH 5 6
BRANCH 5 10
ATOM     10  C   THR B   5     -11.144  -6.236  13.108  1.00 54.13 LIG 0.24  C 
ATOM     11  N   PRO B   6     -11.368  -5.982  11.799  1.00 52.90 LIG-0.34  N 
ATOM     12  CD  PRO B   6     -12.567  -5.370  11.193  1.00 52.89 LIG 0.13  C 
ATOM     13  CA  PRO B   6     -10.357  -6.326  10.789  1.00 51.99 LIG 0.18  C 
ATOM     14  CG  PRO B   6     -12.310  -5.464   9.710  1.00 52.79 LIG 0.02  C 
ATOM     15  CB  PRO B   6     -10.850  -5.605   9.530  1.00 51.93 LIG 0.04  C 
ATOM     16 O    THR B   5     -10.122  -6.811  13.509  1.00 54.19 LIG-0.27  OA
BRANCH 13 17
ATOM     17  C   PRO B   6      -8.980  -5.811  11.197  1.00 51.04 LIG 0.24  C 
ATOM     18 O    PRO B   6      -7.973  -6.272  10.652  1.00 50.92 LIG-0.27  OA
ATOM     19  N   CYS B   7      -8.933  -4.867  12.138  1.00 49.72 LIG-0.34  N 
ATOM     20 H    CYS B   7      -9.613  -4.602  12.591  1.00 49.72 LIG 0.16  HD
BRANCH 19 21
ATOM     21  CA  CYS B   7      -7.664  -4.191  12.478  1.00 48.85 LIG 0.19  C 
BRANCH 21 22
ATOM     22  C   CYS B   7      -7.174  -3.221  11.405  1.00 48.04 LIG 0.20  C 
ATOM     23 OXT  CYS B   7      -7.920  -2.379  10.910  1.00 47.16 LIG-0.65  OA
ATOM     24 O    CYS B   7      -6.010  -3.267  11.015  1.00 47.51 LIG-0.65  OA
ENDBRANCH 21 22
BRANCH 21 25
ATOM     25  CB  CYS B   7      -6.578  -5.222  12.813  1.00 48.98 LIG 0.11  C 
BRANCH 25 26
ATOM     26 SG   CYS B   7      -7.184  -6.530  13.897  1.00 48.50 LIG-0.18  SA
ATOM     27 HG   CYS B   7      -6.764  -7.590  13.520  1.00 48.50 LIG 0.10  HD
ENDBRANCH 25 26
ENDBRANCH 21 25
ENDBRANCH 19 21
ENDBRANCH 13 17
ENDBRANCH 5 10
ENDBRANCH 3 5
BRANCH 1 28
ATOM     28  CA  SER B   4     -14.651  -8.714  14.072  1.00 57.59 LIG 0.20  C 
BRANCH 28 29
ATOM     29  N   SER B   4     -15.826  -7.850  13.897  1.00 58.14 LIG-0.34  N 
ATOM     30  C   SER B   3     -16.490  -7.330  14.930  1.00 58.75 LIG 0.24  C 
ATOM     31 O    SER B   3     -16.075  -7.405  16.089  1.00 58.75 LIG-0.27  OA
ATOM     32 H    SER B   4     -16.042  -7.713  13.075  1.00 58.14 LIG 0.16  HD
BRANCH 30 33
ATOM     33  CA  SER B   3     -17.811  -6.597  14.611  1.00 59.17 LIG 0.20  C 
BRANCH 33 34
ATOM     34  N   SER B   3     -17.747  -5.951  13.291  1.00 59.50 LIG-0.34  N 
ATOM     35  C   PRO B   2     -16.835  -5.046  12.912  1.00 59.86 LIG 0.25  C 
ATOM     36 O    PRO B   2     -16.898  -4.476  11.816  1.00 59.80 LIG-0.27  OA
ATOM     37 H    SER B   3     -18.373  -6.217  12.763  1.00 59.50 LIG 0.16  HD
BRANCH 35 38
ATOM     38  CA  PRO B   2     -15.678  -4.692  13.861  1.00 60.11 LIG 0.35  C 
ATOM     39  CB  PRO B   2     -16.135  -3.726  14.965  1.00 60.16 LIG 0.05  C 
ATOM     40  CG  PRO B   2     -15.035  -2.728  15.109  1.00 60.30 LIG 0.04  C 
ATOM     41  CD  PRO B   2     -14.395  -2.612  13.766  1.00 60.25 LIG 0.32  C 
ATOM     42  N   PRO B   2     -14.625  -3.937  13.165  1.00 60.27 LIG 0.32  N 
ENDBRANCH 35 38
ENDBRANCH 33 34
BRANCH 33 43
ATOM     43  CB  SER B   3     -18.980  -7.589  14.659  1.00 59.26 LIG 0.20  C 
BRANCH 43 44
ATOM     44 OG   SER B   3     -20.199  -6.924  14.946  1.00 59.53 LIG-0.40  OA
ATOM     45 HG   SER B   3     -20.156  -6.130  14.675  1.00 59.53 LIG 0.21  HD
ENDBRANCH 43 44
ENDBRANCH 33 43
ENDBRANCH 30 33
ENDBRANCH 28 29
BRANCH 28 46
ATOM     46  CB  SER B   4     -14.670  -9.792  12.986  1.00 57.64 LIG 0.20  C 
BRANCH 46 47
ATOM     47 OG   SER B   4     -15.814  -9.651  12.154  1.00 57.32 LIG-0.40  OA
ATOM     48 HG   SER B   4     -16.137 -10.408  11.991  1.00 57.32 LIG 0.21  HD
ENDBRANCH 46 47
ENDBRANCH 28 46
ENDBRANCH 1 28
TORSDOF 18
ENDMDL
MODEL 90
USER: ADFR SOLUTION from run 149
USER: SCORE 14.159791 LL:  -4.811 LR: -11.022 RR:   0.000 FEB:  -5.652
USER: RMSD 9.119707
USER: SEED 148
USER: STATUS no improvement in best in 4 clusters for 5 generations
USER: GENES 20
USER: genes 0 Translation |==|  0.73356 0.73441 0.49545
USER: genes 1 Rotation |==|  0.95219 0.39466 0.31732 0.53249
USER: genes 2 Torsion [C]-N--CA-[CB] |==|  0.42363
USER: genes 3 Torsion [N]-CA--CB-[CG2] |==|  0.83390
USER: genes 4 Torsion [CA]-CB--OG1-[HG1] |==|  0.37206
USER: genes 5 Torsion [N]-CA--C-[N] |==|  0.45390
USER: genes 6 Torsion [N]-CA--C-[O] |==|  0.39308
USER: genes 7 Torsion [C]-N--CA-[CB] |==|  0.45981
USER: genes 8 Torsion [N]-CA--C-[O] |==|  0.38162
USER: genes 9 Torsion [N]-CA--CB-[SG] |==|  0.99435
USER: genes 10 Torsion [CA]-CB--SG-[HG] |==|  0.82306
USER: genes 11 Torsion [N]-C--CA-[N] |==|  0.08121
USER: genes 12 Torsion [C]-CA--N-[C] |==|  0.14610
USER: genes 13 Torsion [N]-C--CA-[N] |==|  0.31013
USER: genes 14 Torsion [C]-CA--N-[C] |==|  0.74114
USER: genes 15 Torsion [N]-C--CA-[N] |==|  0.19971
USER: genes 16 Torsion [C]-CA--CB-[OG] |==|  0.76894
USER: genes 17 Torsion [CA]-CB--OG-[HG] |==|  0.36379
USER: genes 18 Torsion [C]-CA--CB-[OG] |==|  0.46879
USER: genes 19 Torsion [CA]-CB--OG-[HG] |==|  0.69802
ROOT
ATOM      1  C   SER B   4     -12.890  -4.335  14.970  1.00 56.97 LIG 0.24  C 
ATOM      2 O    SER B   4     -12.112  -4.044  15.884  1.00 57.23 LIG-0.27  OA
ATOM      3  N   THR B   5     -12.631  -5.294  14.076  1.00 55.89 LIG-0.34  N 
ATOM      4 H    THR B   5     -13.156  -5.498  13.426  1.00 55.89 LIG 0.16  HD
ENDROOT
BRANCH 3 5
ATOM      5  CA  THR B   5     -11.397  -6.096  14.135  1.00 55.10 LIG 0.20  C 
BRANCH 5 6
ATOM      6  CB  THR B   5     -11.598  -7.519  13.501  1.00 55.33 LIG 0.15  C 
ATOM      7  CG2 THR B   5     -12.694  -8.314  14.224  1.00 55.26 LIG 0.04  C 
BRANCH 6 8
ATOM      8 OG1  THR B   5     -11.938  -7.402  12.108  1.00 55.55 LIG-0.39  OA
ATOM      9 HG1  THR B   5     -11.478  -7.944  11.660  1.00 55.55 LIG 0.21  HD
ENDBRANCH 6 8
ENDBRANCH 5 6
BRANCH 5 10
ATOM     10  C   THR B   5     -10.176  -5.406  13.499  1.00 54.13 LIG 0.24  C 
ATOM     11  N   PRO B   6      -8.955  -5.898  13.805  1.00 52.90 LIG-0.34  N 
ATOM     12  CD  PRO B   6      -8.633  -6.976  14.760  1.00 52.89 LIG 0.13  C 
ATOM     13  CA  PRO B   6      -7.749  -5.354  13.165  1.00 51.99 LIG 0.18  C 
ATOM     14  CG  PRO B   6      -7.125  -6.998  14.786  1.00 52.79 LIG 0.02  C 
ATOM     15  CB  PRO B   6      -6.660  -6.368  13.532  1.00 51.93 LIG 0.04  C 
ATOM     16 O    THR B   5     -10.333  -4.453  12.722  1.00 54.19 LIG-0.27  OA
BRANCH 13 17
ATOM     17  C   PRO B   6      -7.921  -5.278  11.651  1.00 51.04 LIG 0.24  C 
ATOM     18 O    PRO B   6      -7.462  -4.312  11.035  1.00 50.92 LIG-0.27  OA
ATOM     19  N   CYS B   7      -8.568  -6.282  11.056  1.00 49.72 LIG-0.34  N 
ATOM     20 H    CYS B   7      -8.972  -6.913  11.477  1.00 49.72 LIG 0.16  HD
BRANCH 19 21
ATOM     21  CA  CYS B   7      -8.638  -6.380   9.584  1.00 48.85 LIG 0.19  C 
BRANCH 21 22
ATOM     22  C   CYS B   7      -9.500  -5.299   8.933  1.00 48.04 LIG 0.20  C 
ATOM     23 OXT  CYS B   7     -10.582  -4.967   9.409  1.00 47.16 LIG-0.65  OA
ATOM     24 O    CYS B   7      -9.118  -4.737   7.910  1.00 47.51 LIG-0.65  OA
ENDBRANCH 21 22
BRANCH 21 25
ATOM     25  CB  CYS B   7      -9.110  -7.777   9.160  1.00 48.98 LIG 0.11  C 
BRANCH 25 26
ATOM     26 SG   CYS B   7      -9.372  -8.870  10.570  1.00 48.50 LIG-0.18  SA
ATOM     27 HG   CYS B   7      -8.330  -9.052  11.136  1.00 48.50 LIG 0.10  HD
ENDBRANCH 25 26
ENDBRANCH 21 25
ENDBRANCH 19 21
ENDBRANCH 13 17
ENDBRANCH 5 10
ENDBRANCH 3 5
BRANCH 1 28
ATOM     28  CA  SER B   4     -14.214  -3.579  14.813  1.00 57.59 LIG 0.20  C 
BRANCH 28 29
ATOM     29  N   SER B   4     -15.264  -4.401  14.196  1.00 58.14 LIG-0.34  N 
ATOM     30  C   SER B   3     -15.593  -5.606  14.662  1.00 58.75 LIG 0.24  C 
ATOM     31 O    SER B   3     -15.157  -6.045  15.730  1.00 58.75 LIG-0.27  OA
ATOM     32 H    SER B   4     -15.640  -4.036  13.514  1.00 58.14 LIG 0.16  HD
BRANCH 30 33
ATOM     33  CA  SER B   3     -16.577  -6.438  13.811  1.00 59.17 LIG 0.20  C 
BRANCH 33 34
ATOM     34  N   SER B   3     -15.905  -7.609  13.228  1.00 59.50 LIG-0.34  N 
ATOM     35  C   PRO B   2     -15.339  -7.656  12.014  1.00 59.86 LIG 0.25  C 
ATOM     36 O    PRO B   2     -14.874  -8.704  11.552  1.00 59.80 LIG-0.27  OA
ATOM     37 H    SER B   3     -15.908  -8.288  13.756  1.00 59.50 LIG 0.16  HD
BRANCH 35 38
ATOM     38  CA  PRO B   2     -15.270  -6.379  11.160  1.00 60.11 LIG 0.35  C 
ATOM     39  CB  PRO B   2     -14.738  -6.677   9.749  1.00 60.16 LIG 0.05  C 
ATOM     40  CG  PRO B   2     -13.800  -5.563   9.428  1.00 60.30 LIG 0.04  C 
ATOM     41  CD  PRO B   2     -13.225  -5.109  10.728  1.00 60.25 LIG 0.32  C 
ATOM     42  N   PRO B   2     -14.287  -5.426  11.697  1.00 60.27 LIG 0.32  N 
ENDBRANCH 35 38
ENDBRANCH 33 34
BRANCH 33 43
ATOM     43  CB  SER B   3     -17.763  -6.884  14.675  1.00 59.26 LIG 0.20  C 
BRANCH 43 44
ATOM     44 OG   SER B   3     -17.444  -8.056  15.408  1.00 59.53 LIG-0.40  OA
ATOM     45 HG   SER B   3     -17.654  -7.947  16.214  1.00 59.53 LIG 0.21  HD
ENDBRANCH 43 44
ENDBRANCH 33 43
ENDBRANCH 30 33
ENDBRANCH 28 29
BRANCH 28 46
ATOM     46  CB  SER B   4     -14.709  -3.101  16.181  1.00 57.64 LIG 0.20  C 
BRANCH 46 47
ATOM     47 OG   SER B   4     -15.787  -2.186  16.037  1.00 57.32 LIG-0.40  OA
ATOM     48 HG   SER B   4     -15.527  -1.413  16.238  1.00 57.32 LIG 0.21  HD
ENDBRANCH 46 47
ENDBRANCH 28 46
ENDBRANCH 1 28
TORSDOF 18
ENDMDL
MODEL 91
USER: ADFR SOLUTION from run 150
USER: SCORE 13.592147 LL:  -3.925 LR: -10.946 RR:   0.000 FEB:  -5.576
USER: RMSD 9.227924
USER: SEED 149
USER: STATUS no improvement in best in 8 clusters for 5 generations
USER: GENES 20
USER: genes 0 Translation |==|  0.71972 0.57010 0.27796
USER: genes 1 Rotation |==|  0.90248 0.33887 0.32889 0.68103
USER: genes 2 Torsion [C]-N--CA-[CB] |==|  0.52222
USER: genes 3 Torsion [N]-CA--CB-[CG2] |==|  0.39594
USER: genes 4 Torsion [CA]-CB--OG1-[HG1] |==|  0.28246
USER: genes 5 Torsion [N]-CA--C-[N] |==|  0.85259
USER: genes 6 Torsion [N]-CA--C-[O] |==|  0.81210
USER: genes 7 Torsion [C]-N--CA-[CB] |==|  0.42660
USER: genes 8 Torsion [N]-CA--C-[O] |==|  0.77489
USER: genes 9 Torsion [N]-CA--CB-[SG] |==|  0.87820
USER: genes 10 Torsion [CA]-CB--SG-[HG] |==|  0.21093
USER: genes 11 Torsion [N]-C--CA-[N] |==|  0.33629
USER: genes 12 Torsion [C]-CA--N-[C] |==|  0.79699
USER: genes 13 Torsion [N]-C--CA-[N] |==|  0.90676
USER: genes 14 Torsion [C]-CA--N-[C] |==|  0.81851
USER: genes 15 Torsion [N]-C--CA-[N] |==|  0.27155
USER: genes 16 Torsion [C]-CA--CB-[OG] |==|  0.34124
USER: genes 17 Torsion [CA]-CB--OG-[HG] |==|  0.54680
USER: genes 18 Torsion [C]-CA--CB-[OG] |==|  0.83219
USER: genes 19 Torsion [CA]-CB--OG-[HG] |==|  0.11258
ROOT
ATOM      1  C   SER B   4     -13.284  -6.799  11.871  1.00 56.97 LIG 0.24  C 
ATOM      2 O    SER B   4     -12.392  -6.068  12.313  1.00 57.23 LIG-0.27  OA
ATOM      3  N   THR B   5     -13.132  -8.119  11.720  1.00 55.89 LIG-0.34  N 
ATOM      4 H    THR B   5     -13.739  -8.638  11.400  1.00 55.89 LIG 0.16  HD
ENDROOT
BRANCH 3 5
ATOM      5  CA  THR B   5     -11.884  -8.803  12.098  1.00 55.10 LIG 0.20  C 
BRANCH 5 6
ATOM      6  CB  THR B   5     -11.884 -10.305  11.638  1.00 55.33 LIG 0.15  C 
ATOM      7  CG2 THR B   5     -10.496 -10.753  11.160  1.00 55.26 LIG 0.04  C 
BRANCH 6 8
ATOM      8 OG1  THR B   5     -12.312 -11.157  12.715  1.00 55.55 LIG-0.39  OA
ATOM      9 HG1  THR B   5     -13.113 -11.380  12.595  1.00 55.55 LIG 0.21  HD
ENDBRANCH 6 8
ENDBRANCH 5 6
BRANCH 5 10
ATOM     10  C   THR B   5     -10.611  -8.099  11.592  1.00 54.13 LIG 0.24  C 
ATOM     11  N   PRO B   6     -10.539  -7.818  10.271  1.00 52.90 LIG-0.34  N 
ATOM     12  CD  PRO B   6     -11.506  -8.188   9.219  1.00 52.89 LIG 0.13  C 
ATOM     13  CA  PRO B   6      -9.399  -7.066   9.729  1.00 51.99 LIG 0.18  C 
ATOM     14  CG  PRO B   6     -10.843  -7.733   7.943  1.00 52.79 LIG 0.02  C 
ATOM     15  CB  PRO B   6      -9.853  -6.699   8.312  1.00 51.93 LIG 0.04  C 
ATOM     16 O    THR B   5      -9.710  -7.793  12.386  1.00 54.19 LIG-0.27  OA
BRANCH 13 17
ATOM     17  C   PRO B   6      -9.136  -5.808  10.550  1.00 51.04 LIG 0.24  C 
ATOM     18 O    PRO B   6      -9.961  -4.889  10.536  1.00 50.92 LIG-0.27  OA
ATOM     19  N   CYS B   7      -8.008  -5.764  11.260  1.00 49.72 LIG-0.34  N 
ATOM     20 H    CYS B   7      -7.382  -6.352  11.211  1.00 49.72 LIG 0.16  HD
BRANCH 19 21
ATOM     21  CA  CYS B   7      -7.746  -4.665  12.212  1.00 48.85 LIG 0.19  C 
BRANCH 21 22
ATOM     22  C   CYS B   7      -7.221  -3.390  11.555  1.00 48.04 LIG 0.20  C 
ATOM     23 OXT  CYS B   7      -7.963  -2.443  11.304  1.00 47.16 LIG-0.65  OA
ATOM     24 O    CYS B   7      -6.032  -3.288  11.265  1.00 47.51 LIG-0.65  OA
ENDBRANCH 21 22
BRANCH 21 25
ATOM     25  CB  CYS B   7      -6.797  -5.131  13.324  1.00 48.98 LIG 0.11  C 
BRANCH 25 26
ATOM     26 SG   CYS B   7      -7.228  -6.765  13.954  1.00 48.50 LIG-0.18  SA
ATOM     27 HG   CYS B   7      -6.881  -7.602  13.167  1.00 48.50 LIG 0.10  HD
ENDBRANCH 25 26
ENDBRANCH 21 25
ENDBRANCH 19 21
ENDBRANCH 13 17
ENDBRANCH 5 10
ENDBRANCH 3 5
BRANCH 1 28
ATOM     28  CA  SER B   4     -14.635  -6.205  11.456  1.00 57.59 LIG 0.20  C 
BRANCH 28 29
ATOM     29  N   SER B   4     -15.314  -5.518  12.563  1.00 58.14 LIG-0.34  N 
ATOM     30  C   SER B   3     -15.883  -6.180  13.570  1.00 58.75 LIG 0.24  C 
ATOM     31 O    SER B   3     -15.743  -7.396  13.727  1.00 58.75 LIG-0.27  OA
ATOM     32 H    SER B   4     -15.309  -4.660  12.499  1.00 58.14 LIG 0.16  HD
BRANCH 30 33
ATOM     33  CA  SER B   3     -16.721  -5.348  14.565  1.00 59.17 LIG 0.20  C 
BRANCH 33 34
ATOM     34  N   SER B   3     -16.153  -4.002  14.731  1.00 59.50 LIG-0.34  N 
ATOM     35  C   PRO B   2     -14.960  -3.723  15.273  1.00 59.86 LIG 0.25  C 
ATOM     36 O    PRO B   2     -14.587  -2.560  15.466  1.00 59.80 LIG-0.27  OA
ATOM     37 H    SER B   3     -16.676  -3.384  14.438  1.00 59.50 LIG 0.16  HD
BRANCH 35 38
ATOM     38  CA  PRO B   2     -14.025  -4.873  15.680  1.00 60.11 LIG 0.35  C 
ATOM     39  CB  PRO B   2     -13.180  -4.502  16.909  1.00 60.16 LIG 0.05  C 
ATOM     40  CG  PRO B   2     -11.809  -5.018  16.629  1.00 60.30 LIG 0.04  C 
ATOM     41  CD  PRO B   2     -11.639  -4.976  15.147  1.00 60.25 LIG 0.32  C 
ATOM     42  N   PRO B   2     -13.014  -5.136  14.644  1.00 60.27 LIG 0.32  N 
ENDBRANCH 35 38
ENDBRANCH 33 34
BRANCH 33 43
ATOM     43  CB  SER B   3     -18.170  -5.253  14.072  1.00 59.26 LIG 0.20  C 
BRANCH 43 44
ATOM     44 OG   SER B   3     -19.072  -5.753  15.046  1.00 59.53 LIG-0.40  OA
ATOM     45 HG   SER B   3     -19.814  -5.909  14.686  1.00 59.53 LIG 0.21  HD
ENDBRANCH 43 44
ENDBRANCH 33 43
ENDBRANCH 30 33
ENDBRANCH 28 29
BRANCH 28 46
ATOM     46  CB  SER B   4     -14.437  -5.208  10.310  1.00 57.64 LIG 0.20  C 
BRANCH 46 47
ATOM     47 OG   SER B   4     -13.587  -4.142  10.709  1.00 57.32 LIG-0.40  OA
ATOM     48 HG   SER B   4     -12.956  -4.445  11.172  1.00 57.32 LIG 0.21  HD
ENDBRANCH 46 47
ENDBRANCH 28 46
ENDBRANCH 1 28
TORSDOF 18
ENDMDL
MODEL 92
USER: ADFR SOLUTION from run 178
USER: SCORE 14.226142 LL:  -3.858 LR: -10.935 RR:   0.000 FEB:  -5.566
USER: RMSD 7.772763
USER: SEED 177
USER: STATUS no improvement in best in 14 clusters for 5 generations
USER: GENES 20
USER: genes 0 Translation |==|  0.62972 0.68740 0.38142
USER: genes 1 Rotation |==|  0.92160 0.57110 0.29205 0.65479
USER: genes 2 Torsion [C]-N--CA-[CB] |==|  0.77392
USER: genes 3 Torsion [N]-CA--CB-[CG2] |==|  0.73496
USER: genes 4 Torsion [CA]-CB--OG1-[HG1] |==|  0.50924
USER: genes 5 Torsion [N]-CA--C-[N] |==|  0.18105
USER: genes 6 Torsion [N]-CA--C-[O] |==|  0.45632
USER: genes 7 Torsion [C]-N--CA-[CB] |==|  0.25625
USER: genes 8 Torsion [N]-CA--C-[O] |==|  0.40851
USER: genes 9 Torsion [N]-CA--CB-[SG] |==|  0.85799
USER: genes 10 Torsion [CA]-CB--SG-[HG] |==|  0.22471
USER: genes 11 Torsion [N]-C--CA-[N] |==|  0.11612
USER: genes 12 Torsion [C]-CA--N-[C] |==|  0.15752
USER: genes 13 Torsion [N]-C--CA-[N] |==|  0.47332
USER: genes 14 Torsion [C]-CA--N-[C] |==|  0.69695
USER: genes 15 Torsion [N]-C--CA-[N] |==|  0.39251
USER: genes 16 Torsion [C]-CA--CB-[OG] |==|  0.96981
USER: genes 17 Torsion [CA]-CB--OG-[HG] |==|  0.76885
USER: genes 18 Torsion [C]-CA--CB-[OG] |==|  0.56048
USER: genes 19 Torsion [CA]-CB--OG-[HG] |==|  0.17261
ROOT
ATOM      1  C   SER B   4     -15.849  -5.040  13.345  1.00 56.97 LIG 0.24  C 
ATOM      2 O    SER B   4     -15.382  -4.066  13.944  1.00 57.23 LIG-0.27  OA
ATOM      3  N   THR B   5     -15.147  -5.751  12.458  1.00 55.89 LIG-0.34  N 
ATOM      4 H    THR B   5     -15.463  -6.423  12.023  1.00 55.89 LIG 0.16  HD
ENDROOT
BRANCH 3 5
ATOM      5  CA  THR B   5     -13.743  -5.433  12.147  1.00 55.10 LIG 0.20  C 
BRANCH 5 6
ATOM      6  CB  THR B   5     -13.630  -4.255  11.113  1.00 55.33 LIG 0.15  C 
ATOM      7  CG2 THR B   5     -13.479  -4.774   9.676  1.00 55.26 LIG 0.04  C 
BRANCH 6 8
ATOM      8 OG1  THR B   5     -14.789  -3.407  11.192  1.00 55.55 LIG-0.39  OA
ATOM      9 HG1  THR B   5     -14.739  -2.809  10.605  1.00 55.55 LIG 0.21  HD
ENDBRANCH 6 8
ENDBRANCH 5 6
BRANCH 5 10
ATOM     10  C   THR B   5     -12.885  -5.124  13.388  1.00 54.13 LIG 0.24  C 
ATOM     11  N   PRO B   6     -12.682  -6.130  14.269  1.00 52.90 LIG-0.34  N 
ATOM     12  CD  PRO B   6     -13.265  -7.486  14.236  1.00 52.89 LIG 0.13  C 
ATOM     13  CA  PRO B   6     -11.799  -5.940  15.428  1.00 51.99 LIG 0.18  C 
ATOM     14  CG  PRO B   6     -12.796  -8.112  15.526  1.00 52.79 LIG 0.02  C 
ATOM     15  CB  PRO B   6     -11.599  -7.362  15.963  1.00 51.93 LIG 0.04  C 
ATOM     16 O    THR B   5     -12.393  -3.997  13.541  1.00 54.19 LIG-0.27  OA
BRANCH 13 17
ATOM     17  C   PRO B   6     -10.465  -5.335  15.004  1.00 51.04 LIG 0.24  C 
ATOM     18 O    PRO B   6      -9.723  -4.840  15.858  1.00 50.92 LIG-0.27  OA
ATOM     19  N   CYS B   7     -10.158  -5.375  13.707  1.00 49.72 LIG-0.34  N 
ATOM     20 H    CYS B   7     -10.699  -5.631  13.090  1.00 49.72 LIG 0.16  HD
BRANCH 19 21
ATOM     21  CA  CYS B   7      -8.822  -4.967  13.225  1.00 48.85 LIG 0.19  C 
BRANCH 21 22
ATOM     22  C   CYS B   7      -8.847  -4.221  11.892  1.00 48.04 LIG 0.20  C 
ATOM     23 OXT  CYS B   7      -9.683  -4.476  11.028  1.00 47.16 LIG-0.65  OA
ATOM     24 O    CYS B   7      -8.022  -3.342  11.660  1.00 47.51 LIG-0.65  OA
ENDBRANCH 21 22
BRANCH 21 25
ATOM     25  CB  CYS B   7      -7.885  -6.180  13.149  1.00 48.98 LIG 0.11  C 
BRANCH 25 26
ATOM     26 SG   CYS B   7      -7.861  -7.126  14.684  1.00 48.50 LIG-0.18  SA
ATOM     27 HG   CYS B   7      -8.817  -7.851  14.724  1.00 48.50 LIG 0.10  HD
ENDBRANCH 25 26
ENDBRANCH 21 25
ENDBRANCH 19 21
ENDBRANCH 13 17
ENDBRANCH 5 10
ENDBRANCH 3 5
BRANCH 1 28
ATOM     28  CA  SER B   4     -17.297  -5.478  13.595  1.00 57.59 LIG 0.20  C 
BRANCH 28 29
ATOM     29  N   SER B   4     -17.439  -6.937  13.679  1.00 58.14 LIG-0.34  N 
ATOM     30  C   SER B   3     -16.752  -7.671  14.555  1.00 58.75 LIG 0.24  C 
ATOM     31 O    SER B   3     -16.075  -7.168  15.455  1.00 58.75 LIG-0.27  OA
ATOM     32 H    SER B   4     -18.000  -7.268  13.118  1.00 58.14 LIG 0.16  HD
BRANCH 30 33
ATOM     33  CA  SER B   3     -16.856  -9.206  14.411  1.00 59.17 LIG 0.20  C 
BRANCH 33 34
ATOM     34  N   SER B   3     -15.882  -9.881  15.281  1.00 59.50 LIG-0.34  N 
ATOM     35  C   PRO B   2     -14.787 -10.531  14.865  1.00 59.86 LIG 0.25  C 
ATOM     36 O    PRO B   2     -14.061 -11.156  15.648  1.00 59.80 LIG-0.27  OA
ATOM     37 H    SER B   3     -16.086  -9.820  16.115  1.00 59.50 LIG 0.16  HD
BRANCH 35 38
ATOM     38  CA  PRO B   2     -14.417 -10.514  13.373  1.00 60.11 LIG 0.35  C 
ATOM     39  CB  PRO B   2     -14.761 -11.850  12.694  1.00 60.16 LIG 0.05  C 
ATOM     40  CG  PRO B   2     -13.611 -12.155  11.795  1.00 60.30 LIG 0.04  C 
ATOM     41  CD  PRO B   2     -12.407 -11.543  12.430  1.00 60.25 LIG 0.32  C 
ATOM     42  N   PRO B   2     -12.962 -10.404  13.181  1.00 60.27 LIG 0.32  N 
ENDBRANCH 35 38
ENDBRANCH 33 34
BRANCH 33 43
ATOM     43  CB  SER B   3     -18.278  -9.665  14.753  1.00 59.26 LIG 0.20  C 
BRANCH 43 44
ATOM     44 OG   SER B   3     -19.025  -8.611  15.339  1.00 59.53 LIG-0.40  OA
ATOM     45 HG   SER B   3     -18.854  -8.570  16.160  1.00 59.53 LIG 0.21  HD
ENDBRANCH 43 44
ENDBRANCH 33 43
ENDBRANCH 30 33
ENDBRANCH 28 29
BRANCH 28 46
ATOM     46  CB  SER B   4     -17.813  -4.860  14.897  1.00 57.64 LIG 0.20  C 
BRANCH 46 47
ATOM     47 OG   SER B   4     -18.910  -5.604  15.410  1.00 57.32 LIG-0.40  OA
ATOM     48 HG   SER B   4     -18.659  -6.385  15.590  1.00 57.32 LIG 0.21  HD
ENDBRANCH 46 47
ENDBRANCH 28 46
ENDBRANCH 1 28
TORSDOF 18
ENDMDL
