MODEL 1
USER: ADFR SOLUTION from run 64
USER: SCORE 20.351759 LL:  -6.260 LR: -18.116 RR:   0.000 FEB:  -9.465
USER: RMSD 13.841854
USER: SEED 63
USER: STATUS searching
USER: GENES 31
USER: genes 0 Translation |==|  0.70848 0.47339 0.35214
USER: genes 1 Rotation |==|  0.45488 0.18266 0.12045 0.55660
USER: genes 2 Torsion [C]-CA--CB-[CG] |==|  0.40721
USER: genes 3 Torsion [CA]-CB--CG-[CD] |==|  0.35903
USER: genes 4 Torsion [CB]-CG--CD-[NE] |==|  0.70396
USER: genes 5 Torsion [CG]-CD--NE-[CZ] |==|  0.58762
USER: genes 6 Torsion [N]-CA--C-[N] |==|  0.32029
USER: genes 7 Torsion [C]-N--CA-[CB] |==|  0.48934
USER: genes 8 Torsion [N]-CA--C-[N] |==|  0.29260
USER: genes 9 Torsion [C]-N--CA-[CB] |==|  0.43809
USER: genes 10 Torsion [N]-CA--CB-[CG2] |==|  0.25675
USER: genes 11 Torsion [N]-CA--C-[N] |==|  0.42189
USER: genes 12 Torsion [N]-CA--C-[O] |==|  0.27933
USER: genes 13 Torsion [C]-N--CA-[C] |==|  0.59785
USER: genes 14 Torsion [N]-CA--C-[O] |==|  0.02110
USER: genes 15 Torsion [N]-CA--CB-[SG] |==|  0.80576
USER: genes 16 Torsion [CA]-CB--SG-[HG] |==|  0.55081
USER: genes 17 Torsion [N]-CA--CB-[CG] |==|  0.15209
USER: genes 18 Torsion [CA]-CB--CG-[CD] |==|  0.74367
USER: genes 19 Torsion [CB]-CG--CD-[OE2] |==|  0.15899
USER: genes 20 Torsion [CB]-CA--N-[C] |==|  0.50000
USER: genes 21 Torsion [N]-C--CA-[N] |==|  0.18884
USER: genes 22 Torsion [C]-CA--N-[C] |==|  0.18203
USER: genes 23 Torsion [N]-C--CA-[N] |==|  0.31563
USER: genes 24 Torsion [C]-CA--CB-[CG] |==|  0.24954
USER: genes 25 Torsion [CA]-CB--CG-[CD] |==|  0.96259
USER: genes 26 Torsion [CB]-CG--CD-[OE1] |==|  0.72041
USER: genes 27 Torsion [C]-CA--N-[C] |==|  0.79561
USER: genes 28 Torsion [C]-CA--CB-[CG] |==|  0.19451
USER: genes 29 Torsion [CA]-CB--CG-[CD] |==|  0.75180
USER: genes 30 Torsion [CB]-CG--CD-[OE1] |==|  0.76346
ROOT
ATOM      1  CA  ARG B   3     -14.529  -8.615  13.414  0.80 33.15 LIG 0.18  C 
ENDROOT
BRANCH 1 2
ATOM      2  CB  ARG B   3     -14.597 -10.131  13.155  0.80 33.78 LIG 0.04  C 
BRANCH 2 3
ATOM      3  CG  ARG B   3     -14.018 -10.631  11.830  0.80 35.93 LIG 0.02  C 
BRANCH 3 4
ATOM      4  CD  ARG B   3     -13.043 -11.773  12.008  0.80 39.27 LIG 0.14  C 
BRANCH 4 5
ATOM      5  NE  ARG B   3     -11.655 -11.359  11.796  0.80 40.38 LIG-0.23  N 
ATOM      6  CZ  ARG B   3     -10.701 -12.148  11.304  0.80 40.37 LIG 0.67  C 
ATOM      7  NH1 ARG B   3     -10.981 -13.397  10.968  0.80 40.12 LIG-0.23  N 
ATOM      8  NH2 ARG B   3      -9.467 -11.683  11.136  0.80 41.10 LIG-0.23  N 
ATOM      9 2HH1 ARG B   3     -10.365 -13.905  10.650  0.80 40.12 LIG 0.17  HD
ATOM     10 1HH1 ARG B   3     -11.780 -13.701  11.068  0.80 40.12 LIG 0.17  HD
ATOM     11 2HH2 ARG B   3      -8.854 -12.194  10.818  0.80 41.10 LIG 0.17  HD
ATOM     12 1HH2 ARG B   3      -9.282 -10.869  11.347  0.80 41.10 LIG 0.17  HD
ATOM     13 HE   ARG B   3     -11.441 -10.552  12.004  0.80 40.38 LIG 0.18  HD
ENDBRANCH 4 5
ENDBRANCH 3 4
ENDBRANCH 2 3
ENDBRANCH 1 2
BRANCH 1 14
ATOM     14  C   ARG B   3     -15.729  -8.138  14.216  0.80 30.98 LIG 0.24  C 
ATOM     15 O    ARG B   3     -15.949  -8.606  15.330  0.80 30.41 LIG-0.27  OA
ATOM     16  N   GLU B   4     -16.472  -7.195  13.645  0.80 28.71 LIG-0.35  N 
ATOM     17 H    GLU B   4     -16.255  -6.792  12.917  0.80 28.71 LIG 0.16  HD
BRANCH 16 18
ATOM     18  CA  GLU B   4     -17.743  -6.758  14.214  0.80 27.21 LIG 0.18  C 
BRANCH 18 19
ATOM     19  C   GLU B   4     -18.706  -7.932  14.216  0.80 25.80 LIG 0.24  C 
ATOM     20 O    GLU B   4     -19.230  -8.336  13.161  0.80 26.39 LIG-0.27  OA
ATOM     21  N   VAL B   5     -18.922  -8.489  15.398  0.80 23.72 LIG-0.35  N 
ATOM     22 H    VAL B   5     -18.512  -8.253  16.116  0.80 23.72 LIG 0.16  HD
BRANCH 21 23
ATOM     23  CA  VAL B   5     -19.883  -9.562  15.591  0.80 22.93 LIG 0.18  C 
BRANCH 23 24
ATOM     24  CB  VAL B   5     -19.583 -10.390  16.846  0.80 23.26 LIG 0.01  C 
ATOM     25  CG2 VAL B   5     -20.351  -9.835  18.046  0.80 23.62 LIG 0.01  C 
ATOM     26  CG1 VAL B   5     -18.099 -10.392  17.128  0.80 24.46 LIG 0.01  C 
ENDBRANCH 23 24
BRANCH 23 27
ATOM     27  C   VAL B   5     -21.259  -8.914  15.711  0.80 21.40 LIG 0.24  C 
ATOM     28  N   PRO B   6     -22.311  -9.650  15.321  0.80 20.87 LIG-0.34  N 
ATOM     29  CD  PRO B   6     -22.366 -10.925  14.593  0.80 21.07 LIG 0.13  C 
ATOM     30  CA  PRO B   6     -23.647  -9.069  15.473  0.80 20.34 LIG 0.18  C 
ATOM     31  CG  PRO B   6     -23.747 -10.916  13.991  0.80 22.12 LIG 0.02  C 
ATOM     32  CB  PRO B   6     -24.571 -10.171  14.950  0.80 19.87 LIG 0.04  C 
ATOM     33 O    VAL B   5     -21.370  -7.764  16.151  0.80 20.67 LIG-0.27  OA
BRANCH 30 34
ATOM     34  C   PRO B   6     -23.957  -8.751  16.921  0.80 20.23 LIG 0.24  C 
ATOM     35 O    PRO B   6     -23.852  -7.576  17.330  0.80 20.62 LIG-0.27  OA
ATOM     36  N   CYS B   7     -24.358  -9.776  17.676  0.80 18.87 LIG-0.34  N 
ATOM     37 H    CYS B   7     -24.335 -10.596  17.419  0.80 18.87 LIG 0.16  HD
BRANCH 36 38
ATOM     38  CA  CYS B   7     -24.882  -9.582  19.039  0.80 19.21 LIG 0.19  C 
BRANCH 38 39
ATOM     39  C   CYS B   7     -24.480 -10.719  19.957  0.80 19.13 LIG 0.20  C 
ATOM     40 O    CYS B   7     -23.679 -11.592  19.582  0.80 18.45 LIG-0.65  OA
ATOM     41 OXT  CYS B   7     -24.909 -10.766  21.107  0.80 19.35 LIG-0.65  OA
ENDBRANCH 38 39
BRANCH 38 42
ATOM     42  CB  CYS B   7     -26.396  -9.386  19.022  0.80 19.02 LIG 0.11  C 
BRANCH 42 43
ATOM     43 SG   CYS B   7     -26.852  -7.792  18.296  0.80 21.06 LIG-0.18  SA
ATOM     44 HG   CYS B   7     -27.975  -7.513  18.613  0.80 21.06 LIG 0.10  HD
ENDBRANCH 42 43
ENDBRANCH 38 42
ENDBRANCH 36 38
ENDBRANCH 30 34
ENDBRANCH 23 27
ENDBRANCH 21 23
ENDBRANCH 18 19
BRANCH 18 45
ATOM     45  CB  GLU B   4     -18.352  -5.603  13.420  0.80 27.21 LIG 0.04  C 
BRANCH 45 46
ATOM     46  CG  GLU B   4     -18.527  -5.884  11.949  0.80 28.14 LIG 0.12  C 
BRANCH 46 47
ATOM     47  CD  GLU B   4     -17.346  -5.445  11.108  0.80 29.53 LIG 0.17  C 
ATOM     48 OE1  GLU B   4     -17.509  -4.636  10.165  0.80 28.59 LIG-0.65  OA
ATOM     49 OE2  GLU B   4     -16.234  -5.922  11.402  0.80 31.57 LIG-0.65  OA
ENDBRANCH 46 47
ENDBRANCH 45 46
ENDBRANCH 18 45
ENDBRANCH 16 18
ENDBRANCH 1 14
BRANCH 1 50
ATOM     50  N   ARG B   3     -13.316  -8.256  14.134  0.80 34.16 LIG-0.35  N 
ATOM     51  C   GLU B   2     -13.051  -6.995  14.464  0.80 36.27 LIG 0.24  C 
ATOM     52 O    GLU B   2     -13.761  -6.044  14.119  0.80 35.80 LIG-0.27  OA
ATOM     53 H    ARG B   3     -12.801  -8.920  14.320  0.80 34.16 LIG 0.16  HD
BRANCH 51 54
ATOM     54  CA  GLU B   2     -11.774  -6.767  15.268  0.80 37.72 LIG 0.18  C 
BRANCH 54 55
ATOM     55  N   GLU B   2     -10.602  -7.051  14.443  0.80 39.05 LIG-0.35  N 
ATOM     56  C   GLN B   1     -10.316  -6.302  13.381  0.80 40.84 LIG 0.24  C 
ATOM     57 O    GLN B   1     -10.984  -5.317  13.053  0.80 40.79 LIG-0.27  OA
ATOM     58 H    GLU B   2     -10.133  -7.724  14.702  0.80 39.05 LIG 0.16  HD
BRANCH 56 59
ATOM     59  CA  GLN B   1      -9.099  -6.718  12.556  0.80 42.15 LIG 0.18  C 
BRANCH 59 60
ATOM     60  CB  GLN B   1      -8.102  -5.564  12.412  0.80 42.68 LIG 0.04  C 
BRANCH 60 61
ATOM     61  CG  GLN B   1      -7.058  -5.529  13.537  0.80 43.94 LIG 0.10  C 
BRANCH 61 62
ATOM     62  CD  GLN B   1      -7.414  -6.421  14.710  0.80 46.27 LIG 0.21  C 
ATOM     63 OE1  GLN B   1      -7.905  -5.948  15.737  0.80 48.62 LIG-0.27  OA
ATOM     64  NE2 GLN B   1      -7.176  -7.724  14.562  0.80 47.40 LIG-0.37  N 
ATOM     65 22HE GLN B   1      -7.367  -8.271  15.198  0.80 47.40 LIG 0.16  HD
ATOM     66 21HE GLN B   1      -6.832  -8.018  13.831  0.80 47.40 LIG 0.16  HD
ENDBRANCH 61 62
ENDBRANCH 60 61
ENDBRANCH 59 60
BRANCH 59 67
ATOM     67  N   GLN B   1      -9.546  -7.160  11.238  0.80 42.89 LIG-0.35  N 
ATOM     68  C   ACE B   0     -10.161  -8.327  11.043  0.80 43.46 LIG 0.21  C 
ATOM     69  CH3 ACE B   0     -10.698  -8.527   9.654  0.80 43.70 LIG 0.12  C 
ATOM     70 O    ACE B   0     -10.525  -9.037  11.984  0.80 44.01 LIG-0.27  OA
ATOM     71 H    GLN B   1      -9.377  -6.601  10.606  0.80 42.89 LIG 0.16  HD
ENDBRANCH 59 67
ENDBRANCH 56 59
ENDBRANCH 54 55
BRANCH 54 72
ATOM     72  CB  GLU B   2     -11.733  -5.348  15.861  0.80 37.98 LIG 0.04  C 
BRANCH 72 73
ATOM     73  CG  GLU B   2     -12.721  -5.057  16.986  0.80 38.47 LIG 0.12  C 
BRANCH 73 74
ATOM     74  CD  GLU B   2     -14.058  -4.539  16.469  0.80 38.45 LIG 0.17  C 
ATOM     75 OE1  GLU B   2     -14.176  -3.317  16.243  0.80 41.05 LIG-0.65  OA
ATOM     76 OE2  GLU B   2     -14.981  -5.351  16.274  0.80 38.47 LIG-0.65  OA
ENDBRANCH 73 74
ENDBRANCH 72 73
ENDBRANCH 54 72
ENDBRANCH 51 54
ENDBRANCH 1 50
TORSDOF 29
ENDMDL
MODEL 2
USER: ADFR SOLUTION from run 123
USER: SCORE 20.766941 LL:  -6.464 LR: -17.915 RR:   0.000 FEB:  -9.264
USER: RMSD 13.272803
USER: SEED 122
USER: STATUS no improvement in best in 10 clusters for 5 generations
USER: GENES 31
USER: genes 0 Translation |==|  0.66324 0.52618 0.43948
USER: genes 1 Rotation |==|  0.37124 0.87515 0.19559 0.50444
USER: genes 2 Torsion [C]-CA--CB-[CG] |==|  0.57253
USER: genes 3 Torsion [CA]-CB--CG-[CD] |==|  0.74637
USER: genes 4 Torsion [CB]-CG--CD-[NE] |==|  0.13445
USER: genes 5 Torsion [CG]-CD--NE-[CZ] |==|  0.41456
USER: genes 6 Torsion [N]-CA--C-[N] |==|  0.50075
USER: genes 7 Torsion [C]-N--CA-[CB] |==|  0.49334
USER: genes 8 Torsion [N]-CA--C-[N] |==|  0.83051
USER: genes 9 Torsion [C]-N--CA-[CB] |==|  0.79835
USER: genes 10 Torsion [N]-CA--CB-[CG2] |==|  0.86842
USER: genes 11 Torsion [N]-CA--C-[N] |==|  0.20426
USER: genes 12 Torsion [N]-CA--C-[O] |==|  0.37742
USER: genes 13 Torsion [C]-N--CA-[C] |==|  0.64014
USER: genes 14 Torsion [N]-CA--C-[O] |==|  0.52924
USER: genes 15 Torsion [N]-CA--CB-[SG] |==|  0.02940
USER: genes 16 Torsion [CA]-CB--SG-[HG] |==|  0.20671
USER: genes 17 Torsion [N]-CA--CB-[CG] |==|  0.85709
USER: genes 18 Torsion [CA]-CB--CG-[CD] |==|  0.72787
USER: genes 19 Torsion [CB]-CG--CD-[OE2] |==|  0.25249
USER: genes 20 Torsion [CB]-CA--N-[C] |==|  0.25983
USER: genes 21 Torsion [N]-C--CA-[N] |==|  0.55800
USER: genes 22 Torsion [C]-CA--N-[C] |==|  0.67680
USER: genes 23 Torsion [N]-C--CA-[N] |==|  0.33754
USER: genes 24 Torsion [C]-CA--CB-[CG] |==|  0.04855
USER: genes 25 Torsion [CA]-CB--CG-[CD] |==|  0.30162
USER: genes 26 Torsion [CB]-CG--CD-[OE1] |==|  0.36570
USER: genes 27 Torsion [C]-CA--N-[C] |==|  0.80113
USER: genes 28 Torsion [C]-CA--CB-[CG] |==|  0.31552
USER: genes 29 Torsion [CA]-CB--CG-[CD] |==|  0.96251
USER: genes 30 Torsion [CB]-CG--CD-[OE1] |==|  0.73609
ROOT
ATOM      1  CA  ARG B   3     -15.954  -7.665  14.987  0.80 33.15 LIG 0.18  C 
ENDROOT
BRANCH 1 2
ATOM      2  CB  ARG B   3     -16.522  -6.300  15.415  0.80 33.78 LIG 0.04  C 
BRANCH 2 3
ATOM      3  CG  ARG B   3     -15.758  -5.058  14.951  0.80 35.93 LIG 0.02  C 
BRANCH 3 4
ATOM      4  CD  ARG B   3     -14.713  -4.604  15.946  0.80 39.27 LIG 0.14  C 
BRANCH 4 5
ATOM      5  NE  ARG B   3     -13.866  -5.706  16.406  0.80 40.38 LIG-0.23  N 
ATOM      6  CZ  ARG B   3     -12.591  -5.574  16.770  0.80 40.37 LIG 0.67  C 
ATOM      7  NH1 ARG B   3     -12.010  -4.386  16.731  0.80 40.12 LIG-0.23  N 
ATOM      8  NH2 ARG B   3     -11.901  -6.631  17.185  0.80 41.10 LIG-0.23  N 
ATOM      9 2HH1 ARG B   3     -11.187  -4.302  16.967  0.80 40.12 LIG 0.17  HD
ATOM     10 1HH1 ARG B   3     -12.455  -3.697  16.469  0.80 40.12 LIG 0.17  HD
ATOM     11 2HH2 ARG B   3     -11.078  -6.542  17.420  0.80 41.10 LIG 0.17  HD
ATOM     12 1HH2 ARG B   3     -12.276  -7.404  17.219  0.80 41.10 LIG 0.17  HD
ATOM     13 HE   ARG B   3     -14.215  -6.491  16.443  0.80 40.38 LIG 0.18  HD
ENDBRANCH 4 5
ENDBRANCH 3 4
ENDBRANCH 2 3
ENDBRANCH 1 2
BRANCH 1 14
ATOM     14  C   ARG B   3     -17.044  -8.722  14.926  0.80 30.98 LIG 0.24  C 
ATOM     15 O    ARG B   3     -17.230  -9.354  13.890  0.80 30.41 LIG-0.27  OA
ATOM     16  N   GLU B   4     -17.732  -8.912  16.048  0.80 28.71 LIG-0.35  N 
ATOM     17 H    GLU B   4     -17.529  -8.548  16.800  0.80 28.71 LIG 0.16  HD
BRANCH 16 18
ATOM     18  CA  GLU B   4     -18.913  -9.769  16.098  0.80 27.21 LIG 0.18  C 
BRANCH 18 19
ATOM     19  C   GLU B   4     -19.968  -9.199  15.166  0.80 25.80 LIG 0.24  C 
ATOM     20 O    GLU B   4     -20.405  -9.862  14.207  0.80 26.39 LIG-0.27  OA
ATOM     21  N   VAL B   5     -20.389  -7.978  15.461  0.80 23.72 LIG-0.35  N 
ATOM     22 H    VAL B   5     -20.136  -7.544  16.159  0.80 23.72 LIG 0.16  HD
BRANCH 21 23
ATOM     23  CA  VAL B   5     -21.327  -7.252  14.622  0.80 22.93 LIG 0.18  C 
BRANCH 23 24
ATOM     24  CB  VAL B   5     -20.682  -6.766  13.318  0.80 23.26 LIG 0.01  C 
ATOM     25  CG2 VAL B   5     -19.340  -6.094  13.606  0.80 23.62 LIG 0.01  C 
ATOM     26  CG1 VAL B   5     -21.607  -5.808  12.604  0.80 24.46 LIG 0.01  C 
ENDBRANCH 23 24
BRANCH 23 27
ATOM     27  C   VAL B   5     -22.478  -8.203  14.311  0.80 21.40 LIG 0.24  C 
ATOM     28  N   PRO B   6     -23.340  -8.457  15.308  0.80 20.87 LIG-0.34  N 
ATOM     29  CD  PRO B   6     -23.263  -8.136  16.740  0.80 21.07 LIG 0.13  C 
ATOM     30  CA  PRO B   6     -24.482  -9.327  15.021  0.80 20.34 LIG 0.18  C 
ATOM     31  CG  PRO B   6     -24.194  -9.142  17.365  0.80 22.12 LIG 0.02  C 
ATOM     32  CB  PRO B   6     -25.231  -9.376  16.354  0.80 19.87 LIG 0.04  C 
ATOM     33 O    VAL B   5     -22.588  -8.701  13.185  0.80 20.67 LIG-0.27  OA
BRANCH 30 34
ATOM     34  C   PRO B   6     -25.363  -8.752  13.931  0.80 20.23 LIG 0.24  C 
ATOM     35 O    PRO B   6     -25.787  -9.497  13.024  0.80 20.62 LIG-0.27  OA
ATOM     36  N   CYS B   7     -25.655  -7.454  14.034  0.80 18.87 LIG-0.34  N 
ATOM     37 H    CYS B   7     -25.284  -6.924  14.602  0.80 18.87 LIG 0.16  HD
BRANCH 36 38
ATOM     38  CA  CYS B   7     -26.655  -6.808  13.167  0.80 19.21 LIG 0.19  C 
BRANCH 38 39
ATOM     39  C   CYS B   7     -26.108  -5.548  12.527  0.80 19.13 LIG 0.20  C 
ATOM     40 O    CYS B   7     -26.855  -4.761  11.920  0.80 18.45 LIG-0.65  OA
ATOM     41 OXT  CYS B   7     -24.919  -5.263  12.642  0.80 19.35 LIG-0.65  OA
ENDBRANCH 38 39
BRANCH 38 42
ATOM     42  CB  CYS B   7     -27.947  -6.530  13.932  0.80 19.02 LIG 0.11  C 
BRANCH 42 43
ATOM     43 SG   CYS B   7     -27.736  -6.793  15.711  0.80 21.06 LIG-0.18  SA
ATOM     44 HG   CYS B   7     -27.104  -5.886  16.178  0.80 21.06 LIG 0.10  HD
ENDBRANCH 42 43
ENDBRANCH 38 42
ENDBRANCH 36 38
ENDBRANCH 30 34
ENDBRANCH 23 27
ENDBRANCH 21 23
ENDBRANCH 18 19
BRANCH 18 45
ATOM     45  CB  GLU B   4     -19.484  -9.865  17.512  0.80 27.21 LIG 0.04  C 
BRANCH 45 46
ATOM     46  CG  GLU B   4     -18.471 -10.236  18.567  0.80 28.14 LIG 0.12  C 
BRANCH 46 47
ATOM     47  CD  GLU B   4     -18.482 -11.710  18.919  0.80 29.53 LIG 0.17  C 
ATOM     48 OE1  GLU B   4     -19.235 -12.136  19.826  0.80 28.59 LIG-0.65  OA
ATOM     49 OE2  GLU B   4     -17.721 -12.452  18.271  0.80 31.57 LIG-0.65  OA
ENDBRANCH 46 47
ENDBRANCH 45 46
ENDBRANCH 18 45
ENDBRANCH 16 18
ENDBRANCH 1 14
BRANCH 1 50
ATOM     50  N   ARG B   3     -15.311  -7.583  13.683  0.80 34.16 LIG-0.35  N 
ATOM     51  C   GLU B   2     -14.005  -7.360  13.566  0.80 36.27 LIG 0.24  C 
ATOM     52 O    GLU B   2     -13.271  -7.128  14.531  0.80 35.80 LIG-0.27  OA
ATOM     53 H    ARG B   3     -15.843  -7.690  13.016  0.80 34.16 LIG 0.16  HD
BRANCH 51 54
ATOM     54  CA  GLU B   2     -13.452  -7.357  12.143  0.80 37.72 LIG 0.18  C 
BRANCH 54 55
ATOM     55  N   GLU B   2     -12.010  -7.598  12.163  0.80 39.05 LIG-0.35  N 
ATOM     56  C   GLN B   1     -11.155  -6.673  11.735  0.80 40.84 LIG 0.24  C 
ATOM     57 O    GLN B   1     -11.513  -5.559  11.339  0.80 40.79 LIG-0.27  OA
ATOM     58 H    GLU B   2     -11.778  -8.369  12.468  0.80 39.05 LIG 0.16  HD
BRANCH 56 59
ATOM     59  CA  GLN B   1      -9.674  -7.048  11.748  0.80 42.15 LIG 0.18  C 
BRANCH 59 60
ATOM     60  CB  GLN B   1      -8.881  -6.149  12.703  0.80 42.68 LIG 0.04  C 
BRANCH 60 61
ATOM     61  CG  GLN B   1      -9.772  -5.407  13.708  0.80 43.94 LIG 0.10  C 
BRANCH 61 62
ATOM     62  CD  GLN B   1      -9.641  -5.931  15.124  0.80 46.27 LIG 0.21  C 
ATOM     63 OE1  GLN B   1      -9.473  -5.160  16.070  0.80 48.62 LIG-0.27  OA
ATOM     64  NE2 GLN B   1      -9.727  -7.252  15.281  0.80 47.40 LIG-0.37  N 
ATOM     65 22HE GLN B   1      -9.665  -7.596  16.067  0.80 47.40 LIG 0.16  HD
ATOM     66 21HE GLN B   1      -9.844  -7.760  14.597  0.80 47.40 LIG 0.16  HD
ENDBRANCH 61 62
ENDBRANCH 60 61
ENDBRANCH 59 60
BRANCH 59 67
ATOM     67  N   GLN B   1      -9.142  -6.932  10.393  0.80 42.89 LIG-0.35  N 
ATOM     68  C   ACE B   0      -9.457  -7.792   9.424  0.80 43.46 LIG 0.21  C 
ATOM     69  CH3 ACE B   0      -8.951  -7.411   8.061  0.80 43.70 LIG 0.12  C 
ATOM     70 O    ACE B   0     -10.332  -8.648   9.571  0.80 44.01 LIG-0.27  OA
ATOM     71 H    GLN B   1      -8.613  -6.264  10.282  0.80 42.89 LIG 0.16  HD
ENDBRANCH 59 67
ENDBRANCH 56 59
ENDBRANCH 54 55
BRANCH 54 72
ATOM     72  CB  GLU B   2     -14.194  -8.367  11.252  0.80 37.98 LIG 0.04  C 
BRANCH 72 73
ATOM     73  CG  GLU B   2     -15.029  -7.781  10.117  0.80 38.47 LIG 0.12  C 
BRANCH 73 74
ATOM     74  CD  GLU B   2     -15.241  -6.279  10.267  0.80 38.45 LIG 0.17  C 
ATOM     75 OE1  GLU B   2     -16.286  -5.877  10.818  0.80 41.05 LIG-0.65  OA
ATOM     76 OE2  GLU B   2     -14.361  -5.504   9.849  0.80 38.47 LIG-0.65  OA
ENDBRANCH 73 74
ENDBRANCH 72 73
ENDBRANCH 54 72
ENDBRANCH 51 54
ENDBRANCH 1 50
TORSDOF 29
ENDMDL
MODEL 3
USER: ADFR SOLUTION from run 168
USER: SCORE 20.830516 LL:  -6.284 LR: -17.811 RR:   0.000 FEB:  -9.160
USER: RMSD 13.874512
USER: SEED 167
USER: STATUS no improvement in best in 3 clusters for 5 generations
USER: GENES 31
USER: genes 0 Translation |==|  0.70165 0.61413 0.43617
USER: genes 1 Rotation |==|  0.34752 0.82043 0.15164 0.55213
USER: genes 2 Torsion [C]-CA--CB-[CG] |==|  0.40297
USER: genes 3 Torsion [CA]-CB--CG-[CD] |==|  0.04059
USER: genes 4 Torsion [CB]-CG--CD-[NE] |==|  0.83105
USER: genes 5 Torsion [CG]-CD--NE-[CZ] |==|  0.49540
USER: genes 6 Torsion [N]-CA--C-[N] |==|  0.93216
USER: genes 7 Torsion [C]-N--CA-[CB] |==|  0.88333
USER: genes 8 Torsion [N]-CA--C-[N] |==|  0.85723
USER: genes 9 Torsion [C]-N--CA-[CB] |==|  0.86021
USER: genes 10 Torsion [N]-CA--CB-[CG2] |==|  0.84752
USER: genes 11 Torsion [N]-CA--C-[N] |==|  0.18193
USER: genes 12 Torsion [N]-CA--C-[O] |==|  0.38071
USER: genes 13 Torsion [C]-N--CA-[C] |==|  0.19276
USER: genes 14 Torsion [N]-CA--C-[O] |==|  0.40015
USER: genes 15 Torsion [N]-CA--CB-[SG] |==|  0.83903
USER: genes 16 Torsion [CA]-CB--SG-[HG] |==|  0.87347
USER: genes 17 Torsion [N]-CA--CB-[CG] |==|  0.58250
USER: genes 18 Torsion [CA]-CB--CG-[CD] |==|  0.61447
USER: genes 19 Torsion [CB]-CG--CD-[OE2] |==|  0.01069
USER: genes 20 Torsion [CB]-CA--N-[C] |==|  0.37589
USER: genes 21 Torsion [N]-C--CA-[N] |==|  0.44202
USER: genes 22 Torsion [C]-CA--N-[C] |==|  0.74754
USER: genes 23 Torsion [N]-C--CA-[N] |==|  0.93112
USER: genes 24 Torsion [C]-CA--CB-[CG] |==|  0.40187
USER: genes 25 Torsion [CA]-CB--CG-[CD] |==|  0.54709
USER: genes 26 Torsion [CB]-CG--CD-[OE1] |==|  0.42592
USER: genes 27 Torsion [C]-CA--N-[C] |==|  0.78688
USER: genes 28 Torsion [C]-CA--CB-[CG] |==|  0.26169
USER: genes 29 Torsion [CA]-CB--CG-[CD] |==|  0.99565
USER: genes 30 Torsion [CB]-CG--CD-[OE1] |==|  0.20158
ROOT
ATOM      1  CA  ARG B   3     -14.744  -6.082  14.927  0.80 33.15 LIG 0.18  C 
ENDROOT
BRANCH 1 2
ATOM      2  CB  ARG B   3     -15.663  -4.848  14.969  0.80 33.78 LIG 0.04  C 
BRANCH 2 3
ATOM      3  CG  ARG B   3     -15.130  -3.614  15.701  0.80 35.93 LIG 0.02  C 
BRANCH 3 4
ATOM      4  CD  ARG B   3     -13.642  -3.686  15.967  0.80 39.27 LIG 0.14  C 
BRANCH 4 5
ATOM      5  NE  ARG B   3     -13.281  -4.827  16.809  0.80 40.38 LIG-0.23  N 
ATOM      6  CZ  ARG B   3     -12.035  -5.135  17.165  0.80 40.37 LIG 0.67  C 
ATOM      7  NH1 ARG B   3     -11.024  -4.387  16.754  0.80 40.12 LIG-0.23  N 
ATOM      8  NH2 ARG B   3     -11.801  -6.187  17.943  0.80 41.10 LIG-0.23  N 
ATOM      9 2HH1 ARG B   3     -10.219  -4.587  16.984  0.80 40.12 LIG 0.17  HD
ATOM     10 1HH1 ARG B   3     -11.170  -3.701  16.256  0.80 40.12 LIG 0.17  HD
ATOM     11 2HH2 ARG B   3     -10.995  -6.383  18.171  0.80 41.10 LIG 0.17  HD
ATOM     12 1HH2 ARG B   3     -12.455  -6.673  18.218  0.80 41.10 LIG 0.17  HD
ATOM     13 HE   ARG B   3     -13.916  -5.333  17.094  0.80 40.38 LIG 0.18  HD
ENDBRANCH 4 5
ENDBRANCH 3 4
ENDBRANCH 2 3
ENDBRANCH 1 2
BRANCH 1 14
ATOM     14  C   ARG B   3     -15.546  -7.370  14.997  0.80 30.98 LIG 0.24  C 
ATOM     15 O    ARG B   3     -15.953  -7.783  16.080  0.80 30.41 LIG-0.27  OA
ATOM     16  N   GLU B   4     -15.782  -7.973  13.835  0.80 28.71 LIG-0.35  N 
ATOM     17 H    GLU B   4     -15.592  -7.626  13.071  0.80 28.71 LIG 0.16  HD
BRANCH 16 18
ATOM     18  CA  GLU B   4     -16.391  -9.296  13.757  0.80 27.21 LIG 0.18  C 
BRANCH 18 19
ATOM     19  C   GLU B   4     -17.890  -9.155  13.960  0.80 25.80 LIG 0.24  C 
ATOM     20 O    GLU B   4     -18.698  -9.671  13.166  0.80 26.39 LIG-0.27  OA
ATOM     21  N   VAL B   5     -18.257  -8.472  15.034  0.80 23.72 LIG-0.35  N 
ATOM     22 H    VAL B   5     -17.701  -8.170  15.618  0.80 23.72 LIG 0.16  HD
BRANCH 21 23
ATOM     23  CA  VAL B   5     -19.647  -8.166  15.327  0.80 22.93 LIG 0.18  C 
BRANCH 23 24
ATOM     24  CB  VAL B   5     -20.370  -7.545  14.126  0.80 23.26 LIG 0.01  C 
ATOM     25  CG2 VAL B   5     -19.616  -6.311  13.631  0.80 23.62 LIG 0.01  C 
ATOM     26  CG1 VAL B   5     -21.786  -7.179  14.502  0.80 24.46 LIG 0.01  C 
ENDBRANCH 23 24
BRANCH 23 27
ATOM     27  C   VAL B   5     -20.320  -9.478  15.720  0.80 21.40 LIG 0.24  C 
ATOM     28  N   PRO B   6     -19.898 -10.059  16.854  0.80 20.87 LIG-0.34  N 
ATOM     29  CD  PRO B   6     -18.738  -9.761  17.704  0.80 21.07 LIG 0.13  C 
ATOM     30  CA  PRO B   6     -20.564 -11.292  17.278  0.80 20.34 LIG 0.18  C 
ATOM     31  CG  PRO B   6     -18.510 -11.057  18.437  0.80 22.12 LIG 0.02  C 
ATOM     32  CB  PRO B   6     -19.846 -11.648  18.581  0.80 19.87 LIG 0.04  C 
ATOM     33 O    VAL B   5     -21.210  -9.957  15.009  0.80 20.67 LIG-0.27  OA
BRANCH 30 34
ATOM     34  C   PRO B   6     -22.043 -11.074  17.523  0.80 20.23 LIG 0.24  C 
ATOM     35 O    PRO B   6     -22.866 -11.918  17.113  0.80 20.62 LIG-0.27  OA
ATOM     36  N   CYS B   7     -22.371  -9.974  18.203  0.80 18.87 LIG-0.34  N 
ATOM     37 H    CYS B   7     -21.813  -9.349  18.398  0.80 18.87 LIG 0.16  HD
BRANCH 36 38
ATOM     38  CA  CYS B   7     -23.742  -9.735  18.686  0.80 19.21 LIG 0.19  C 
BRANCH 38 39
ATOM     39  C   CYS B   7     -24.114 -10.689  19.803  0.80 19.13 LIG 0.20  C 
ATOM     40 O    CYS B   7     -24.831 -10.320  20.749  0.80 18.45 LIG-0.65  OA
ATOM     41 OXT  CYS B   7     -23.746 -11.860  19.764  0.80 19.35 LIG-0.65  OA
ENDBRANCH 38 39
BRANCH 38 42
ATOM     42  CB  CYS B   7     -24.747  -9.800  17.538  0.80 19.02 LIG 0.11  C 
BRANCH 42 43
ATOM     43 SG   CYS B   7     -24.354  -8.599  16.242  0.80 21.06 LIG-0.18  SA
ATOM     44 HG   CYS B   7     -24.099  -7.539  16.742  0.80 21.06 LIG 0.10  HD
ENDBRANCH 42 43
ENDBRANCH 38 42
ENDBRANCH 36 38
ENDBRANCH 30 34
ENDBRANCH 23 27
ENDBRANCH 21 23
ENDBRANCH 18 19
BRANCH 18 45
ATOM     45  CB  GLU B   4     -15.824 -10.246  14.810  0.80 27.21 LIG 0.04  C 
BRANCH 45 46
ATOM     46  CG  GLU B   4     -15.824 -11.698  14.402  0.80 28.14 LIG 0.12  C 
BRANCH 46 47
ATOM     47  CD  GLU B   4     -16.234 -12.636  15.520  0.80 29.53 LIG 0.17  C 
ATOM     48 OE1  GLU B   4     -16.209 -13.876  15.343  0.80 28.59 LIG-0.65  OA
ATOM     49 OE2  GLU B   4     -16.588 -12.115  16.594  0.80 31.57 LIG-0.65  OA
ENDBRANCH 46 47
ENDBRANCH 45 46
ENDBRANCH 18 45
ENDBRANCH 16 18
ENDBRANCH 1 14
BRANCH 1 50
ATOM     50  N   ARG B   3     -13.940  -6.099  13.714  0.80 34.16 LIG-0.35  N 
ATOM     51  C   GLU B   2     -12.641  -6.385  13.746  0.80 36.27 LIG 0.24  C 
ATOM     52 O    GLU B   2     -12.017  -6.570  14.796  0.80 35.80 LIG-0.27  OA
ATOM     53 H    ARG B   3     -14.374  -5.912  12.995  0.80 34.16 LIG 0.16  HD
BRANCH 51 54
ATOM     54  CA  GLU B   2     -11.931  -6.426  12.396  0.80 37.72 LIG 0.18  C 
BRANCH 54 55
ATOM     55  N   GLU B   2     -10.491  -6.253  12.579  0.80 39.05 LIG-0.35  N 
ATOM     56  C   GLN B   1      -9.938  -5.043  12.548  0.80 40.84 LIG 0.24  C 
ATOM     57 O    GLN B   1     -10.595  -4.007  12.406  0.80 40.79 LIG-0.27  OA
ATOM     58 H    GLU B   2     -10.053  -6.982  12.704  0.80 39.05 LIG 0.16  HD
BRANCH 56 59
ATOM     59  CA  GLN B   1      -8.419  -4.978  12.696  0.80 42.15 LIG 0.18  C 
BRANCH 59 60
ATOM     60  CB  GLN B   1      -7.729  -4.887  11.330  0.80 42.68 LIG 0.04  C 
BRANCH 60 61
ATOM     61  CG  GLN B   1      -6.470  -4.011  11.351  0.80 43.94 LIG 0.10  C 
BRANCH 61 62
ATOM     62  CD  GLN B   1      -6.017  -3.581   9.969  0.80 46.27 LIG 0.21  C 
ATOM     63 OE1  GLN B   1      -5.376  -2.541   9.810  0.80 48.62 LIG-0.27  OA
ATOM     64  NE2 GLN B   1      -6.340  -4.387   8.959  0.80 47.40 LIG-0.37  N 
ATOM     65 22HE GLN B   1      -6.099  -4.189   8.157  0.80 47.40 LIG 0.16  HD
ATOM     66 21HE GLN B   1      -6.788  -5.106   9.108  0.80 47.40 LIG 0.16  HD
ENDBRANCH 61 62
ENDBRANCH 60 61
ENDBRANCH 59 60
BRANCH 59 67
ATOM     67  N   GLN B   1      -7.960  -6.166  13.410  0.80 42.89 LIG-0.35  N 
ATOM     68  C   ACE B   0      -8.093  -6.305  14.729  0.80 43.46 LIG 0.21  C 
ATOM     69  CH3 ACE B   0      -7.720  -7.662  15.257  0.80 43.70 LIG 0.12  C 
ATOM     70 O    ACE B   0      -8.747  -5.507  15.406  0.80 44.01 LIG-0.27  OA
ATOM     71 H    GLN B   1      -7.599  -6.760  12.904  0.80 42.89 LIG 0.16  HD
ENDBRANCH 59 67
ENDBRANCH 56 59
ENDBRANCH 54 55
BRANCH 54 72
ATOM     72  CB  GLU B   2     -12.264  -7.717  11.628  0.80 37.98 LIG 0.04  C 
BRANCH 72 73
ATOM     73  CG  GLU B   2     -13.419  -7.632  10.634  0.80 38.47 LIG 0.12  C 
BRANCH 73 74
ATOM     74  CD  GLU B   2     -14.070  -6.254  10.614  0.80 38.45 LIG 0.17  C 
ATOM     75 OE1  GLU B   2     -13.448  -5.309  10.088  0.80 41.05 LIG-0.65  OA
ATOM     76 OE2  GLU B   2     -15.205  -6.120  11.108  0.80 38.47 LIG-0.65  OA
ENDBRANCH 73 74
ENDBRANCH 72 73
ENDBRANCH 54 72
ENDBRANCH 51 54
ENDBRANCH 1 50
TORSDOF 29
ENDMDL
MODEL 4
USER: ADFR SOLUTION from run 173
USER: SCORE 20.616520 LL:  -5.818 LR: -17.795 RR:   0.000 FEB:  -9.144
USER: RMSD 13.569092
USER: SEED 172
USER: STATUS no improvement in best in 5 clusters for 5 generations
USER: GENES 31
USER: genes 0 Translation |==|  0.75003 0.54794 0.46698
USER: genes 1 Rotation |==|  0.41172 0.12476 0.76360 0.67865
USER: genes 2 Torsion [C]-CA--CB-[CG] |==|  0.61956
USER: genes 3 Torsion [CA]-CB--CG-[CD] |==|  0.59740
USER: genes 4 Torsion [CB]-CG--CD-[NE] |==|  0.54123
USER: genes 5 Torsion [CG]-CD--NE-[CZ] |==|  0.81390
USER: genes 6 Torsion [N]-CA--C-[N] |==|  0.11288
USER: genes 7 Torsion [C]-N--CA-[CB] |==|  0.23104
USER: genes 8 Torsion [N]-CA--C-[N] |==|  0.40894
USER: genes 9 Torsion [C]-N--CA-[CB] |==|  0.26104
USER: genes 10 Torsion [N]-CA--CB-[CG2] |==|  0.19513
USER: genes 11 Torsion [N]-CA--C-[N] |==|  0.46662
USER: genes 12 Torsion [N]-CA--C-[O] |==|  0.25204
USER: genes 13 Torsion [C]-N--CA-[C] |==|  0.63758
USER: genes 14 Torsion [N]-CA--C-[O] |==|  0.51909
USER: genes 15 Torsion [N]-CA--CB-[SG] |==|  0.93104
USER: genes 16 Torsion [CA]-CB--SG-[HG] |==|  0.90302
USER: genes 17 Torsion [N]-CA--CB-[CG] |==|  0.12265
USER: genes 18 Torsion [CA]-CB--CG-[CD] |==|  0.44527
USER: genes 19 Torsion [CB]-CG--CD-[OE2] |==|  0.41749
USER: genes 20 Torsion [CB]-CA--N-[C] |==|  0.80555
USER: genes 21 Torsion [N]-C--CA-[N] |==|  0.06821
USER: genes 22 Torsion [C]-CA--N-[C] |==|  0.71539
USER: genes 23 Torsion [N]-C--CA-[N] |==|  0.91800
USER: genes 24 Torsion [C]-CA--CB-[CG] |==|  0.10456
USER: genes 25 Torsion [CA]-CB--CG-[CD] |==|  0.18329
USER: genes 26 Torsion [CB]-CG--CD-[OE1] |==|  0.65661
USER: genes 27 Torsion [C]-CA--N-[C] |==|  0.82159
USER: genes 28 Torsion [C]-CA--CB-[CG] |==|  0.30515
USER: genes 29 Torsion [CA]-CB--CG-[CD] |==|  0.81369
USER: genes 30 Torsion [CB]-CG--CD-[OE1] |==|  0.68165
ROOT
ATOM      1  CA  ARG B   3     -13.220  -7.273  15.482  0.80 33.15 LIG 0.18  C 
ENDROOT
BRANCH 1 2
ATOM      2  CB  ARG B   3     -12.163  -6.203  15.807  0.80 33.78 LIG 0.04  C 
BRANCH 2 3
ATOM      3  CG  ARG B   3     -10.908  -6.184  14.931  0.80 35.93 LIG 0.02  C 
BRANCH 3 4
ATOM      4  CD  ARG B   3      -9.661  -5.803  15.697  0.80 39.27 LIG 0.14  C 
BRANCH 4 5
ATOM      5  NE  ARG B   3      -8.549  -5.450  14.813  0.80 40.38 LIG-0.23  N 
ATOM      6  CZ  ARG B   3      -7.926  -6.309  14.007  0.80 40.37 LIG 0.67  C 
ATOM      7  NH1 ARG B   3      -8.304  -7.577  13.970  0.80 40.12 LIG-0.23  N 
ATOM      8  NH2 ARG B   3      -6.931  -5.897  13.230  0.80 41.10 LIG-0.23  N 
ATOM      9 2HH1 ARG B   3      -7.902  -8.131  13.450  0.80 40.12 LIG 0.17  HD
ATOM     10 1HH1 ARG B   3      -8.953  -7.847  14.467  0.80 40.12 LIG 0.17  HD
ATOM     11 2HH2 ARG B   3      -6.531  -6.454  12.711  0.80 41.10 LIG 0.17  HD
ATOM     12 1HH2 ARG B   3      -6.686  -5.073  13.245  0.80 41.10 LIG 0.17  HD
ATOM     13 HE   ARG B   3      -8.280  -4.633  14.813  0.80 40.38 LIG 0.18  HD
ENDBRANCH 4 5
ENDBRANCH 3 4
ENDBRANCH 2 3
ENDBRANCH 1 2
BRANCH 1 14
ATOM     14  C   ARG B   3     -14.624  -6.694  15.532  0.80 30.98 LIG 0.24  C 
ATOM     15 O    ARG B   3     -14.823  -5.609  16.071  0.80 30.41 LIG-0.27  OA
ATOM     16  N   GLU B   4     -15.573  -7.419  14.946  0.80 28.71 LIG-0.35  N 
ATOM     17 H    GLU B   4     -15.415  -8.121  14.475  0.80 28.71 LIG 0.16  HD
BRANCH 16 18
ATOM     18  CA  GLU B   4     -16.988  -7.079  15.055  0.80 27.21 LIG 0.18  C 
BRANCH 18 19
ATOM     19  C   GLU B   4     -17.810  -8.335  14.827  0.80 25.80 LIG 0.24  C 
ATOM     20 O    GLU B   4     -17.413  -9.234  14.061  0.80 26.39 LIG-0.27  OA
ATOM     21  N   VAL B   5     -18.945  -8.404  15.507  0.80 23.72 LIG-0.35  N 
ATOM     22 H    VAL B   5     -19.190  -7.816  16.084  0.80 23.72 LIG 0.16  HD
BRANCH 21 23
ATOM     23  CA  VAL B   5     -19.891  -9.494  15.336  0.80 22.93 LIG 0.18  C 
BRANCH 23 24
ATOM     24  CB  VAL B   5     -19.672 -10.617  16.356  0.80 23.26 LIG 0.01  C 
ATOM     25  CG2 VAL B   5     -20.079 -10.153  17.755  0.80 23.62 LIG 0.01  C 
ATOM     26  CG1 VAL B   5     -18.226 -11.055  16.349  0.80 24.46 LIG 0.01  C 
ENDBRANCH 23 24
BRANCH 23 27
ATOM     27  C   VAL B   5     -21.288  -8.903  15.502  0.80 21.40 LIG 0.24  C 
ATOM     28  N   PRO B   6     -22.321  -9.680  15.141  0.80 20.87 LIG-0.34  N 
ATOM     29  CD  PRO B   6     -22.347 -10.953  14.408  0.80 21.07 LIG 0.13  C 
ATOM     30  CA  PRO B   6     -23.674  -9.155  15.338  0.80 20.34 LIG 0.18  C 
ATOM     31  CG  PRO B   6     -23.745 -10.997  13.849  0.80 22.12 LIG 0.02  C 
ATOM     32  CB  PRO B   6     -24.568 -10.291  14.838  0.80 19.87 LIG 0.04  C 
ATOM     33 O    VAL B   5     -21.431  -7.761  15.953  0.80 20.67 LIG-0.27  OA
BRANCH 30 34
ATOM     34  C   PRO B   6     -23.951  -8.857  16.797  0.80 20.23 LIG 0.24  C 
ATOM     35 O    PRO B   6     -23.704  -7.721  17.252  0.80 20.62 LIG-0.27  OA
ATOM     36  N   CYS B   7     -24.480  -9.852  17.511  0.80 18.87 LIG-0.34  N 
ATOM     37 H    CYS B   7     -24.557 -10.659  17.223  0.80 18.87 LIG 0.16  HD
BRANCH 36 38
ATOM     38  CA  CYS B   7     -24.984  -9.648  18.880  0.80 19.21 LIG 0.19  C 
BRANCH 38 39
ATOM     39  C   CYS B   7     -24.437 -10.688  19.837  0.80 19.13 LIG 0.20  C 
ATOM     40 O    CYS B   7     -24.846 -10.759  21.009  0.80 18.45 LIG-0.65  OA
ATOM     41 OXT  CYS B   7     -23.611 -11.510  19.449  0.80 19.35 LIG-0.65  OA
ENDBRANCH 38 39
BRANCH 38 42
ATOM     42  CB  CYS B   7     -26.511  -9.615  18.903  0.80 19.02 LIG 0.11  C 
BRANCH 42 43
ATOM     43 SG   CYS B   7     -27.189  -9.116  17.301  0.80 21.06 LIG-0.18  SA
ATOM     44 HG   CYS B   7     -26.464  -8.306  16.793  0.80 21.06 LIG 0.10  HD
ENDBRANCH 42 43
ENDBRANCH 38 42
ENDBRANCH 36 38
ENDBRANCH 30 34
ENDBRANCH 23 27
ENDBRANCH 21 23
ENDBRANCH 18 19
BRANCH 18 45
ATOM     45  CB  GLU B   4     -17.396  -6.014  14.037  0.80 27.21 LIG 0.04  C 
BRANCH 45 46
ATOM     46  CG  GLU B   4     -16.850  -6.241  12.649  0.80 28.14 LIG 0.12  C 
BRANCH 46 47
ATOM     47  CD  GLU B   4     -17.612  -5.491  11.575  0.80 29.53 LIG 0.17  C 
ATOM     48 OE1  GLU B   4     -18.831  -5.244  11.723  0.80 28.59 LIG-0.65  OA
ATOM     49 OE2  GLU B   4     -16.971  -5.145  10.565  0.80 31.57 LIG-0.65  OA
ENDBRANCH 46 47
ENDBRANCH 45 46
ENDBRANCH 18 45
ENDBRANCH 16 18
ENDBRANCH 1 14
BRANCH 1 50
ATOM     50  N   ARG B   3     -13.000  -7.849  14.163  0.80 34.16 LIG-0.35  N 
ATOM     51  C   GLU B   2     -13.212  -7.144  13.054  0.80 36.27 LIG 0.24  C 
ATOM     52 O    GLU B   2     -13.680  -6.001  13.060  0.80 35.80 LIG-0.27  OA
ATOM     53 H    ARG B   3     -12.729  -8.664  14.170  0.80 34.16 LIG 0.16  HD
BRANCH 51 54
ATOM     54  CA  GLU B   2     -12.886  -7.850  11.740  0.80 37.72 LIG 0.18  C 
BRANCH 54 55
ATOM     55  N   GLU B   2     -12.962  -9.299  11.914  0.80 39.05 LIG-0.35  N 
ATOM     56  C   GLN B   1     -11.858 -10.031  12.039  0.80 40.84 LIG 0.24  C 
ATOM     57 O    GLN B   1     -10.724  -9.541  12.055  0.80 40.79 LIG-0.27  OA
ATOM     58 H    GLU B   2     -13.760  -9.619  11.929  0.80 39.05 LIG 0.16  HD
BRANCH 56 59
ATOM     59  CA  GLN B   1     -12.047 -11.543  12.161  0.80 42.15 LIG 0.18  C 
BRANCH 59 60
ATOM     60  CB  GLN B   1     -11.988 -12.225  10.791  0.80 42.68 LIG 0.04  C 
BRANCH 60 61
ATOM     61  CG  GLN B   1     -10.948 -11.598   9.853  0.80 43.94 LIG 0.10  C 
BRANCH 61 62
ATOM     62  CD  GLN B   1      -9.521 -11.788  10.330  0.80 46.27 LIG 0.21  C 
ATOM     63 OE1  GLN B   1      -8.782 -10.818  10.510  0.80 48.62 LIG-0.27  OA
ATOM     64  NE2 GLN B   1      -9.127 -13.042  10.548  0.80 47.40 LIG-0.37  N 
ATOM     65 22HE GLN B   1      -8.329 -13.199  10.826  0.80 47.40 LIG 0.16  HD
ATOM     66 21HE GLN B   1      -9.672 -13.693  10.412  0.80 47.40 LIG 0.16  HD
ENDBRANCH 61 62
ENDBRANCH 60 61
ENDBRANCH 59 60
BRANCH 59 67
ATOM     67  N   GLN B   1     -13.332 -11.811  12.799  0.80 42.89 LIG-0.35  N 
ATOM     68  C   ACE B   0     -13.601 -11.444  14.053  0.80 43.46 LIG 0.21  C 
ATOM     69  CH3 ACE B   0     -15.029 -11.651  14.473  0.80 43.70 LIG 0.12  C 
ATOM     70 O    ACE B   0     -12.836 -10.724  14.699  0.80 44.01 LIG-0.27  OA
ATOM     71 H    GLN B   1     -13.893 -12.223  12.295  0.80 42.89 LIG 0.16  HD
ENDBRANCH 59 67
ENDBRANCH 56 59
ENDBRANCH 54 55
BRANCH 54 72
ATOM     72  CB  GLU B   2     -13.796  -7.357  10.601  0.80 37.98 LIG 0.04  C 
BRANCH 72 73
ATOM     73  CG  GLU B   2     -13.128  -6.509   9.523  0.80 38.47 LIG 0.12  C 
BRANCH 73 74
ATOM     74  CD  GLU B   2     -12.661  -5.157  10.052  0.80 38.45 LIG 0.17  C 
ATOM     75 OE1  GLU B   2     -13.203  -4.125   9.609  0.80 41.05 LIG-0.65  OA
ATOM     76 OE2  GLU B   2     -11.767  -5.128  10.917  0.80 38.47 LIG-0.65  OA
ENDBRANCH 73 74
ENDBRANCH 72 73
ENDBRANCH 54 72
ENDBRANCH 51 54
ENDBRANCH 1 50
TORSDOF 29
ENDMDL
MODEL 5
USER: ADFR SOLUTION from run 137
USER: SCORE 19.712966 LL:  -6.206 LR: -17.775 RR:   0.000 FEB:  -9.125
USER: RMSD 14.324197
USER: SEED 136
USER: STATUS no improvement in best in 1 clusters for 5 generations
USER: GENES 31
USER: genes 0 Translation |==|  0.71803 0.56272 0.42452
USER: genes 1 Rotation |==|  0.39741 0.90994 0.25032 0.59532
USER: genes 2 Torsion [C]-CA--CB-[CG] |==|  0.52310
USER: genes 3 Torsion [CA]-CB--CG-[CD] |==|  0.81299
USER: genes 4 Torsion [CB]-CG--CD-[NE] |==|  0.11786
USER: genes 5 Torsion [CG]-CD--NE-[CZ] |==|  0.23942
USER: genes 6 Torsion [N]-CA--C-[N] |==|  0.34815
USER: genes 7 Torsion [C]-N--CA-[CB] |==|  0.32402
USER: genes 8 Torsion [N]-CA--C-[N] |==|  0.25850
USER: genes 9 Torsion [C]-N--CA-[CB] |==|  0.18935
USER: genes 10 Torsion [N]-CA--CB-[CG2] |==|  0.72675
USER: genes 11 Torsion [N]-CA--C-[N] |==|  0.30024
USER: genes 12 Torsion [N]-CA--C-[O] |==|  0.32209
USER: genes 13 Torsion [C]-N--CA-[C] |==|  0.53494
USER: genes 14 Torsion [N]-CA--C-[O] |==|  0.00314
USER: genes 15 Torsion [N]-CA--CB-[SG] |==|  0.12906
USER: genes 16 Torsion [CA]-CB--SG-[HG] |==|  0.25745
USER: genes 17 Torsion [N]-CA--CB-[CG] |==|  0.02462
USER: genes 18 Torsion [CA]-CB--CG-[CD] |==|  0.20708
USER: genes 19 Torsion [CB]-CG--CD-[OE2] |==|  0.29467
USER: genes 20 Torsion [CB]-CA--N-[C] |==|  0.47222
USER: genes 21 Torsion [N]-C--CA-[N] |==|  0.30347
USER: genes 22 Torsion [C]-CA--N-[C] |==|  0.65089
USER: genes 23 Torsion [N]-C--CA-[N] |==|  0.01622
USER: genes 24 Torsion [C]-CA--CB-[CG] |==|  0.90251
USER: genes 25 Torsion [CA]-CB--CG-[CD] |==|  0.53661
USER: genes 26 Torsion [CB]-CG--CD-[OE1] |==|  0.94189
USER: genes 27 Torsion [C]-CA--N-[C] |==|  0.71613
USER: genes 28 Torsion [C]-CA--CB-[CG] |==|  0.30269
USER: genes 29 Torsion [CA]-CB--CG-[CD] |==|  0.95572
USER: genes 30 Torsion [CB]-CG--CD-[OE1] |==|  0.79551
ROOT
ATOM      1  CA  ARG B   3     -14.228  -7.007  14.717  0.80 33.15 LIG 0.18  C 
ENDROOT
BRANCH 1 2
ATOM      2  CB  ARG B   3     -15.089  -5.914  15.375  0.80 33.78 LIG 0.04  C 
BRANCH 2 3
ATOM      3  CG  ARG B   3     -14.347  -4.707  15.955  0.80 35.93 LIG 0.02  C 
BRANCH 3 4
ATOM      4  CD  ARG B   3     -13.497  -5.061  17.155  0.80 39.27 LIG 0.14  C 
BRANCH 4 5
ATOM      5  NE  ARG B   3     -12.765  -6.314  16.969  0.80 40.38 LIG-0.23  N 
ATOM      6  CZ  ARG B   3     -11.576  -6.410  16.374  0.80 40.37 LIG 0.67  C 
ATOM      7  NH1 ARG B   3     -10.980  -5.326  15.906  0.80 40.12 LIG-0.23  N 
ATOM      8  NH2 ARG B   3     -10.979  -7.592  16.258  0.80 41.10 LIG-0.23  N 
ATOM      9 2HH1 ARG B   3     -10.212  -5.388  15.523  0.80 40.12 LIG 0.17  HD
ATOM     10 1HH1 ARG B   3     -11.359  -4.557  15.985  0.80 40.12 LIG 0.17  HD
ATOM     11 2HH2 ARG B   3     -10.212  -7.650  15.874  0.80 41.10 LIG 0.17  HD
ATOM     12 1HH2 ARG B   3     -11.359  -8.298  16.566  0.80 41.10 LIG 0.17  HD
ATOM     13 HE   ARG B   3     -13.125  -7.037  17.263  0.80 40.38 LIG 0.18  HD
ENDBRANCH 4 5
ENDBRANCH 3 4
ENDBRANCH 2 3
ENDBRANCH 1 2
BRANCH 1 14
ATOM     14  C   ARG B   3     -15.091  -8.037  14.009  0.80 30.98 LIG 0.24  C 
ATOM     15 O    ARG B   3     -15.705  -7.730  12.990  0.80 30.41 LIG-0.27  OA
ATOM     16  N   GLU B   4     -15.106  -9.253  14.547  0.80 28.71 LIG-0.35  N 
ATOM     17 H    GLU B   4     -14.592  -9.495  15.193  0.80 28.71 LIG 0.16  HD
BRANCH 16 18
ATOM     18  CA  GLU B   4     -16.011 -10.298  14.081  0.80 27.21 LIG 0.18  C 
BRANCH 18 19
ATOM     19  C   GLU B   4     -16.856 -10.769  15.251  0.80 25.80 LIG 0.24  C 
ATOM     20 O    GLU B   4     -16.449 -11.657  16.023  0.80 26.39 LIG-0.27  OA
ATOM     21  N   VAL B   5     -18.024 -10.159  15.392  0.80 23.72 LIG-0.35  N 
ATOM     22 H    VAL B   5     -18.279  -9.502  14.899  0.80 23.72 LIG 0.16  HD
BRANCH 21 23
ATOM     23  CA  VAL B   5     -18.992 -10.550  16.403  0.80 22.93 LIG 0.18  C 
BRANCH 23 24
ATOM     24  CB  VAL B   5     -18.505 -10.236  17.823  0.80 23.26 LIG 0.01  C 
ATOM     25  CG2 VAL B   5     -17.914 -11.488  18.471  0.80 23.62 LIG 0.01  C 
ATOM     26  CG1 VAL B   5     -19.644  -9.700  18.659  0.80 24.46 LIG 0.01  C 
ENDBRANCH 23 24
BRANCH 23 27
ATOM     27  C   VAL B   5     -20.278  -9.783  16.112  0.80 21.40 LIG 0.24  C 
ATOM     28  N   PRO B   6     -21.307 -10.491  15.620  0.80 20.87 LIG-0.34  N 
ATOM     29  CD  PRO B   6     -21.360 -11.867  15.109  0.80 21.07 LIG 0.13  C 
ATOM     30  CA  PRO B   6     -22.568  -9.788  15.380  0.80 20.34 LIG 0.18  C 
ATOM     31  CG  PRO B   6     -22.578 -11.856  14.223  0.80 22.12 LIG 0.02  C 
ATOM     32  CB  PRO B   6     -23.488 -10.888  14.847  0.80 19.87 LIG 0.04  C 
ATOM     33 O    VAL B   5     -20.341  -8.568  16.330  0.80 20.67 LIG-0.27  OA
BRANCH 30 34
ATOM     34  C   PRO B   6     -23.128  -9.191  16.655  0.80 20.23 LIG 0.24  C 
ATOM     35 O    PRO B   6     -23.234  -7.952  16.761  0.80 20.62 LIG-0.27  OA
ATOM     36  N   CYS B   7     -23.505 -10.060  17.595  0.80 18.87 LIG-0.34  N 
ATOM     37 H    CYS B   7     -23.341 -10.903  17.559  0.80 18.87 LIG 0.16  HD
BRANCH 36 38
ATOM     38  CA  CYS B   7     -24.246  -9.637  18.796  0.80 19.21 LIG 0.19  C 
BRANCH 38 39
ATOM     39  C   CYS B   7     -24.287 -10.734  19.841  0.80 19.13 LIG 0.20  C 
ATOM     40 O    CYS B   7     -23.721 -11.824  19.647  0.80 18.45 LIG-0.65  OA
ATOM     41 OXT  CYS B   7     -24.844 -10.541  20.918  0.80 19.35 LIG-0.65  OA
ENDBRANCH 38 39
BRANCH 38 42
ATOM     42  CB  CYS B   7     -25.650  -9.158  18.433  0.80 19.02 LIG 0.11  C 
BRANCH 42 43
ATOM     43 SG   CYS B   7     -26.470 -10.302  17.295  0.80 21.06 LIG-0.18  SA
ATOM     44 HG   CYS B   7     -27.116 -11.095  17.921  0.80 21.06 LIG 0.10  HD
ENDBRANCH 42 43
ENDBRANCH 38 42
ENDBRANCH 36 38
ENDBRANCH 30 34
ENDBRANCH 23 27
ENDBRANCH 21 23
ENDBRANCH 18 19
BRANCH 18 45
ATOM     45  CB  GLU B   4     -15.252 -11.487  13.494  0.80 27.21 LIG 0.04  C 
BRANCH 45 46
ATOM     46  CG  GLU B   4     -13.759 -11.436  13.705  0.80 28.14 LIG 0.12  C 
BRANCH 46 47
ATOM     47  CD  GLU B   4     -13.342 -11.755  15.126  0.80 29.53 LIG 0.17  C 
ATOM     48 OE1  GLU B   4     -13.527 -10.919  16.041  0.80 28.59 LIG-0.65  OA
ATOM     49 OE2  GLU B   4     -12.821 -12.868  15.326  0.80 31.57 LIG-0.65  OA
ENDBRANCH 46 47
ENDBRANCH 45 46
ENDBRANCH 18 45
ENDBRANCH 16 18
ENDBRANCH 1 14
BRANCH 1 50
ATOM     50  N   ARG B   3     -13.297  -6.438  13.754  0.80 34.16 LIG-0.35  N 
ATOM     51  C   GLU B   2     -12.326  -7.167  13.212  0.80 36.27 LIG 0.24  C 
ATOM     52 O    GLU B   2     -12.095  -8.335  13.542  0.80 35.80 LIG-0.27  OA
ATOM     53 H    ARG B   3     -13.432  -5.608  13.574  0.80 34.16 LIG 0.16  HD
BRANCH 51 54
ATOM     54  CA  GLU B   2     -11.458  -6.462  12.173  0.80 37.72 LIG 0.18  C 
BRANCH 54 55
ATOM     55  N   GLU B   2     -10.120  -6.225  12.712  0.80 39.05 LIG-0.35  N 
ATOM     56  C   GLN B   1      -9.592  -5.004  12.718  0.80 40.84 LIG 0.24  C 
ATOM     57 O    GLN B   1     -10.199  -4.007  12.315  0.80 40.79 LIG-0.27  OA
ATOM     58 H    GLU B   2      -9.724  -6.926  13.013  0.80 39.05 LIG 0.16  HD
BRANCH 56 59
ATOM     59  CA  GLN B   1      -8.166  -4.875  13.254  0.80 42.15 LIG 0.18  C 
BRANCH 59 60
ATOM     60  CB  GLN B   1      -7.260  -4.146  12.256  0.80 42.68 LIG 0.04  C 
BRANCH 60 61
ATOM     61  CG  GLN B   1      -7.602  -4.460  10.794  0.80 43.94 LIG 0.10  C 
BRANCH 61 62
ATOM     62  CD  GLN B   1      -6.533  -4.007   9.819  0.80 46.27 LIG 0.21  C 
ATOM     63 OE1  GLN B   1      -5.720  -3.137  10.133  0.80 48.62 LIG-0.27  OA
ATOM     64  NE2 GLN B   1      -6.521  -4.604   8.628  0.80 47.40 LIG-0.37  N 
ATOM     65 22HE GLN B   1      -5.929  -4.386   8.043  0.80 47.40 LIG 0.16  HD
ATOM     66 21HE GLN B   1      -7.105  -5.209   8.444  0.80 47.40 LIG 0.16  HD
ENDBRANCH 61 62
ENDBRANCH 60 61
ENDBRANCH 59 60
BRANCH 59 67
ATOM     67  N   GLN B   1      -7.639  -6.209  13.526  0.80 42.89 LIG-0.35  N 
ATOM     68  C   ACE B   0      -7.566  -6.713  14.758  0.80 43.46 LIG 0.21  C 
ATOM     69  CH3 ACE B   0      -7.159  -8.158  14.821  0.80 43.70 LIG 0.12  C 
ATOM     70 O    ACE B   0      -8.078  -6.145  15.726  0.80 44.01 LIG-0.27  OA
ATOM     71 H    GLN B   1      -7.383  -6.634  12.824  0.80 42.89 LIG 0.16  HD
ENDBRANCH 59 67
ENDBRANCH 56 59
ENDBRANCH 54 55
BRANCH 54 72
ATOM     72  CB  GLU B   2     -11.417  -7.249  10.852  0.80 37.98 LIG 0.04  C 
BRANCH 72 73
ATOM     73  CG  GLU B   2     -12.167  -6.631   9.675  0.80 38.47 LIG 0.12  C 
BRANCH 73 74
ATOM     74  CD  GLU B   2     -13.142  -5.544  10.112  0.80 38.45 LIG 0.17  C 
ATOM     75 OE1  GLU B   2     -14.198  -5.885  10.682  0.80 41.05 LIG-0.65  OA
ATOM     76 OE2  GLU B   2     -12.846  -4.354   9.900  0.80 38.47 LIG-0.65  OA
ENDBRANCH 73 74
ENDBRANCH 72 73
ENDBRANCH 54 72
ENDBRANCH 51 54
ENDBRANCH 1 50
TORSDOF 29
ENDMDL
MODEL 6
USER: ADFR SOLUTION from run 8
USER: SCORE 20.069834 LL:  -5.871 LR: -17.766 RR:   0.000 FEB:  -9.115
USER: RMSD 13.755541
USER: SEED 682693
USER: STATUS 1 or 2 clusters left
USER: GENES 31
USER: genes 0 Translation |==|  0.68897 0.62192 0.46636
USER: genes 1 Rotation |==|  0.49496 0.16523 0.86971 0.53493
USER: genes 2 Torsion [C]-CA--CB-[CG] |==|  0.44564
USER: genes 3 Torsion [CA]-CB--CG-[CD] |==|  0.89489
USER: genes 4 Torsion [CB]-CG--CD-[NE] |==|  0.20249
USER: genes 5 Torsion [CG]-CD--NE-[CZ] |==|  0.22263
USER: genes 6 Torsion [N]-CA--C-[N] |==|  0.74735
USER: genes 7 Torsion [C]-N--CA-[CB] |==|  0.60107
USER: genes 8 Torsion [N]-CA--C-[N] |==|  0.29746
USER: genes 9 Torsion [C]-N--CA-[CB] |==|  0.28229
USER: genes 10 Torsion [N]-CA--CB-[CG2] |==|  0.62925
USER: genes 11 Torsion [N]-CA--C-[N] |==|  0.42679
USER: genes 12 Torsion [N]-CA--C-[O] |==|  0.94143
USER: genes 13 Torsion [C]-N--CA-[C] |==|  0.80647
USER: genes 14 Torsion [N]-CA--C-[O] |==|  0.05650
USER: genes 15 Torsion [N]-CA--CB-[SG] |==|  0.78222
USER: genes 16 Torsion [CA]-CB--SG-[HG] |==|  0.26202
USER: genes 17 Torsion [N]-CA--CB-[CG] |==|  0.18871
USER: genes 18 Torsion [CA]-CB--CG-[CD] |==|  0.73862
USER: genes 19 Torsion [CB]-CG--CD-[OE2] |==|  0.23661
USER: genes 20 Torsion [CB]-CA--N-[C] |==|  0.37213
USER: genes 21 Torsion [N]-C--CA-[N] |==|  0.26087
USER: genes 22 Torsion [C]-CA--N-[C] |==|  0.76972
USER: genes 23 Torsion [N]-C--CA-[N] |==|  0.99761
USER: genes 24 Torsion [C]-CA--CB-[CG] |==|  0.50017
USER: genes 25 Torsion [CA]-CB--CG-[CD] |==|  0.82916
USER: genes 26 Torsion [CB]-CG--CD-[OE1] |==|  0.94940
USER: genes 27 Torsion [C]-CA--N-[C] |==|  0.70120
USER: genes 28 Torsion [C]-CA--CB-[CG] |==|  0.15249
USER: genes 29 Torsion [CA]-CB--CG-[CD] |==|  0.69187
USER: genes 30 Torsion [CB]-CG--CD-[OE1] |==|  0.00388
ROOT
ATOM      1  CA  ARG B   3     -15.143  -5.941  15.470  0.80 33.15 LIG 0.18  C 
ENDROOT
BRANCH 1 2
ATOM      2  CB  ARG B   3     -15.054  -4.412  15.326  0.80 33.78 LIG 0.04  C 
BRANCH 2 3
ATOM      3  CG  ARG B   3     -13.809  -3.735  15.903  0.80 35.93 LIG 0.02  C 
BRANCH 3 4
ATOM      4  CD  ARG B   3     -13.348  -4.361  17.201  0.80 39.27 LIG 0.14  C 
BRANCH 4 5
ATOM      5  NE  ARG B   3     -12.727  -5.671  16.998  0.80 40.38 LIG-0.23  N 
ATOM      6  CZ  ARG B   3     -11.470  -5.854  16.595  0.80 40.37 LIG 0.67  C 
ATOM      7  NH1 ARG B   3     -10.694  -4.810  16.350  0.80 40.12 LIG-0.23  N 
ATOM      8  NH2 ARG B   3     -10.986  -7.083  16.447  0.80 41.10 LIG-0.23  N 
ATOM      9 2HH1 ARG B   3      -9.883  -4.929  16.090  0.80 40.12 LIG 0.17  HD
ATOM     10 1HH1 ARG B   3     -11.001  -4.013  16.451  0.80 40.12 LIG 0.17  HD
ATOM     11 2HH2 ARG B   3     -10.175  -7.197  16.186  0.80 41.10 LIG 0.17  HD
ATOM     12 1HH2 ARG B   3     -11.485  -7.764  16.611  0.80 41.10 LIG 0.17  HD
ATOM     13 HE   ARG B   3     -13.205  -6.369  17.150  0.80 40.38 LIG 0.18  HD
ENDBRANCH 4 5
ENDBRANCH 3 4
ENDBRANCH 2 3
ENDBRANCH 1 2
BRANCH 1 14
ATOM     14  C   ARG B   3     -16.574  -6.428  15.311  0.80 30.98 LIG 0.24  C 
ATOM     15 O    ARG B   3     -16.965  -7.406  15.943  0.80 30.41 LIG-0.27  OA
ATOM     16  N   GLU B   4     -17.340  -5.722  14.485  0.80 28.71 LIG-0.35  N 
ATOM     17 H    GLU B   4     -17.098  -4.977  14.130  0.80 28.71 LIG 0.16  HD
BRANCH 16 18
ATOM     18  CA  GLU B   4     -18.679  -6.159  14.103  0.80 27.21 LIG 0.18  C 
BRANCH 18 19
ATOM     19  C   GLU B   4     -18.774  -7.663  14.297  0.80 25.80 LIG 0.24  C 
ATOM     20 O    GLU B   4     -18.184  -8.449  13.533  0.80 26.39 LIG-0.27  OA
ATOM     21  N   VAL B   5     -19.502  -8.058  15.331  0.80 23.72 LIG-0.35  N 
ATOM     22 H    VAL B   5     -19.857  -7.516  15.897  0.80 23.72 LIG 0.16  HD
BRANCH 21 23
ATOM     23  CA  VAL B   5     -19.770  -9.459  15.606  0.80 22.93 LIG 0.18  C 
BRANCH 23 24
ATOM     24  CB  VAL B   5     -18.882 -10.010  16.728  0.80 23.26 LIG 0.01  C 
ATOM     25  CG2 VAL B   5     -18.288 -11.358  16.322  0.80 23.62 LIG 0.01  C 
ATOM     26  CG1 VAL B   5     -19.680 -10.151  18.004  0.80 24.46 LIG 0.01  C 
ENDBRANCH 23 24
BRANCH 23 27
ATOM     27  C   VAL B   5     -21.239  -9.564  16.004  0.80 21.40 LIG 0.24  C 
ATOM     28  N   PRO B   6     -21.845 -10.740  15.779  0.80 20.87 LIG-0.34  N 
ATOM     29  CD  PRO B   6     -21.398 -11.913  15.017  0.80 21.07 LIG 0.13  C 
ATOM     30  CA  PRO B   6     -23.241 -10.882  16.199  0.80 20.34 LIG 0.18  C 
ATOM     31  CG  PRO B   6     -22.688 -12.612  14.678  0.80 22.12 LIG 0.02  C 
ATOM     32  CB  PRO B   6     -23.582 -12.320  15.804  0.80 19.87 LIG 0.04  C 
ATOM     33 O    VAL B   5     -21.818  -8.595  16.509  0.80 20.67 LIG-0.27  OA
BRANCH 30 34
ATOM     34  C   PRO B   6     -23.399 -10.683  17.693  0.80 20.23 LIG 0.24  C 
ATOM     35 O    PRO B   6     -22.411 -10.827  18.442  0.80 20.62 LIG-0.27  OA
ATOM     36  N   CYS B   7     -24.616 -10.333  18.114  0.80 18.87 LIG-0.34  N 
ATOM     37 H    CYS B   7     -25.313 -10.331  17.611  0.80 18.87 LIG 0.16  HD
BRANCH 36 38
ATOM     38  CA  CYS B   7     -24.870  -9.914  19.503  0.80 19.21 LIG 0.19  C 
BRANCH 38 39
ATOM     39  C   CYS B   7     -24.738 -11.075  20.468  0.80 19.13 LIG 0.20  C 
ATOM     40 O    CYS B   7     -24.103 -12.098  20.157  0.80 18.45 LIG-0.65  OA
ATOM     41 OXT  CYS B   7     -25.221 -11.000  21.595  0.80 19.35 LIG-0.65  OA
ENDBRANCH 38 39
BRANCH 38 42
ATOM     42  CB  CYS B   7     -26.230  -9.233  19.631  0.80 19.02 LIG 0.11  C 
BRANCH 42 43
ATOM     43 SG   CYS B   7     -26.175  -7.522  19.043  0.80 21.06 LIG-0.18  SA
ATOM     44 HG   CYS B   7     -26.517  -7.481  17.894  0.80 21.06 LIG 0.10  HD
ENDBRANCH 42 43
ENDBRANCH 38 42
ENDBRANCH 36 38
ENDBRANCH 30 34
ENDBRANCH 23 27
ENDBRANCH 21 23
ENDBRANCH 18 19
BRANCH 18 45
ATOM     45  CB  GLU B   4     -18.994  -5.815  12.648  0.80 27.21 LIG 0.04  C 
BRANCH 45 46
ATOM     46  CG  GLU B   4     -18.183  -6.586  11.637  0.80 28.14 LIG 0.12  C 
BRANCH 46 47
ATOM     47  CD  GLU B   4     -16.935  -5.854  11.184  0.80 29.53 LIG 0.17  C 
ATOM     48 OE1  GLU B   4     -16.955  -5.159  10.142  0.80 28.59 LIG-0.65  OA
ATOM     49 OE2  GLU B   4     -15.918  -5.982  11.891  0.80 31.57 LIG-0.65  OA
ENDBRANCH 46 47
ENDBRANCH 45 46
ENDBRANCH 18 45
ENDBRANCH 16 18
ENDBRANCH 1 14
BRANCH 1 50
ATOM     50  N   ARG B   3     -14.310  -6.614  14.484  0.80 34.16 LIG-0.35  N 
ATOM     51  C   GLU B   2     -13.509  -7.621  14.823  0.80 36.27 LIG 0.24  C 
ATOM     52 O    GLU B   2     -13.354  -7.997  15.990  0.80 35.80 LIG-0.27  OA
ATOM     53 H    ARG B   3     -14.384  -6.306  13.685  0.80 34.16 LIG 0.16  HD
BRANCH 51 54
ATOM     54  CA  GLU B   2     -12.735  -8.274  13.681  0.80 37.72 LIG 0.18  C 
BRANCH 54 55
ATOM     55  N   GLU B   2     -11.412  -7.666  13.557  0.80 39.05 LIG-0.35  N 
ATOM     56  C   GLN B   1     -11.241  -6.530  12.885  0.80 40.84 LIG 0.24  C 
ATOM     57 O    GLN B   1     -12.174  -5.908  12.368  0.80 40.79 LIG-0.27  OA
ATOM     58 H    GLU B   2     -10.779  -8.098  13.947  0.80 39.05 LIG 0.16  HD
BRANCH 56 59
ATOM     59  CA  GLN B   1      -9.809  -6.009  12.771  0.80 42.15 LIG 0.18  C 
BRANCH 59 60
ATOM     60  CB  GLN B   1      -9.377  -5.885  11.306  0.80 42.68 LIG 0.04  C 
BRANCH 60 61
ATOM     61  CG  GLN B   1      -7.942  -5.365  11.145  0.80 43.94 LIG 0.10  C 
BRANCH 61 62
ATOM     62  CD  GLN B   1      -7.742  -3.975  11.718  0.80 46.27 LIG 0.21  C 
ATOM     63 OE1  GLN B   1      -8.705  -3.240  11.941  0.80 48.62 LIG-0.27  OA
ATOM     64  NE2 GLN B   1      -6.486  -3.610  11.969  0.80 47.40 LIG-0.37  N 
ATOM     65 22HE GLN B   1      -6.322  -2.833  12.301  0.80 47.40 LIG 0.16  HD
ATOM     66 21HE GLN B   1      -5.839  -4.150  11.801  0.80 47.40 LIG 0.16  HD
ENDBRANCH 61 62
ENDBRANCH 60 61
ENDBRANCH 59 60
BRANCH 59 67
ATOM     67  N   GLN B   1      -8.914  -6.918  13.481  0.80 42.89 LIG-0.35  N 
ATOM     68  C   ACE B   0      -8.345  -6.601  14.644  0.80 43.46 LIG 0.21  C 
ATOM     69  CH3 ACE B   0      -7.598  -7.726  15.303  0.80 43.70 LIG 0.12  C 
ATOM     70 O    ACE B   0      -8.657  -5.582  15.266  0.80 44.01 LIG-0.27  OA
ATOM     71 H    GLN B   1      -8.790  -7.670  13.081  0.80 42.89 LIG 0.16  HD
ENDBRANCH 59 67
ENDBRANCH 56 59
ENDBRANCH 54 55
BRANCH 54 72
ATOM     72  CB  GLU B   2     -12.655  -9.800  13.861  0.80 37.98 LIG 0.04  C 
BRANCH 72 73
ATOM     73  CG  GLU B   2     -13.984 -10.530  14.031  0.80 38.47 LIG 0.12  C 
BRANCH 73 74
ATOM     74  CD  GLU B   2     -14.167 -11.088  15.437  0.80 38.45 LIG 0.17  C 
ATOM     75 OE1  GLU B   2     -13.272 -10.882  16.281  0.80 41.05 LIG-0.65  OA
ATOM     76 OE2  GLU B   2     -15.208 -11.717  15.702  0.80 38.47 LIG-0.65  OA
ENDBRANCH 73 74
ENDBRANCH 72 73
ENDBRANCH 54 72
ENDBRANCH 51 54
ENDBRANCH 1 50
TORSDOF 29
ENDMDL
MODEL 7
USER: ADFR SOLUTION from run 179
USER: SCORE 22.749499 LL:  -6.933 LR: -17.660 RR:   0.000 FEB:  -9.009
USER: RMSD 13.507915
USER: SEED 178
USER: STATUS no improvement in best in 3 clusters for 5 generations
USER: GENES 31
USER: genes 0 Translation |==|  0.68586 0.59713 0.45622
USER: genes 1 Rotation |==|  0.34004 0.18419 0.82638 0.63473
USER: genes 2 Torsion [C]-CA--CB-[CG] |==|  0.26220
USER: genes 3 Torsion [CA]-CB--CG-[CD] |==|  0.21783
USER: genes 4 Torsion [CB]-CG--CD-[NE] |==|  0.08085
USER: genes 5 Torsion [CG]-CD--NE-[CZ] |==|  0.21203
USER: genes 6 Torsion [N]-CA--C-[N] |==|  0.14717
USER: genes 7 Torsion [C]-N--CA-[CB] |==|  0.17945
USER: genes 8 Torsion [N]-CA--C-[N] |==|  0.11615
USER: genes 9 Torsion [C]-N--CA-[CB] |==|  0.51720
USER: genes 10 Torsion [N]-CA--CB-[CG2] |==|  0.53465
USER: genes 11 Torsion [N]-CA--C-[N] |==|  0.37481
USER: genes 12 Torsion [N]-CA--C-[O] |==|  0.31464
USER: genes 13 Torsion [C]-N--CA-[C] |==|  0.70642
USER: genes 14 Torsion [N]-CA--C-[O] |==|  0.39758
USER: genes 15 Torsion [N]-CA--CB-[SG] |==|  0.00951
USER: genes 16 Torsion [CA]-CB--SG-[HG] |==|  0.56273
USER: genes 17 Torsion [N]-CA--CB-[CG] |==|  0.13985
USER: genes 18 Torsion [CA]-CB--CG-[CD] |==|  0.67601
USER: genes 19 Torsion [CB]-CG--CD-[OE2] |==|  0.76719
USER: genes 20 Torsion [CB]-CA--N-[C] |==|  0.19349
USER: genes 21 Torsion [N]-C--CA-[N] |==|  0.34705
USER: genes 22 Torsion [C]-CA--N-[C] |==|  0.84979
USER: genes 23 Torsion [N]-C--CA-[N] |==|  0.25143
USER: genes 24 Torsion [C]-CA--CB-[CG] |==|  0.29787
USER: genes 25 Torsion [CA]-CB--CG-[CD] |==|  0.52749
USER: genes 26 Torsion [CB]-CG--CD-[OE1] |==|  0.23495
USER: genes 27 Torsion [C]-CA--N-[C] |==|  0.66951
USER: genes 28 Torsion [C]-CA--CB-[CG] |==|  0.24509
USER: genes 29 Torsion [CA]-CB--CG-[CD] |==|  0.69950
USER: genes 30 Torsion [CB]-CG--CD-[OE1] |==|  0.83739
ROOT
ATOM      1  CA  ARG B   3     -15.242  -6.388  15.288  0.80 33.15 LIG 0.18  C 
ENDROOT
BRANCH 1 2
ATOM      2  CB  ARG B   3     -14.128  -5.325  15.294  0.80 33.78 LIG 0.04  C 
BRANCH 2 3
ATOM      3  CG  ARG B   3     -13.852  -4.622  16.625  0.80 35.93 LIG 0.02  C 
BRANCH 3 4
ATOM      4  CD  ARG B   3     -13.032  -5.464  17.576  0.80 39.27 LIG 0.14  C 
BRANCH 4 5
ATOM      5  NE  ARG B   3     -12.138  -6.386  16.874  0.80 40.38 LIG-0.23  N 
ATOM      6  CZ  ARG B   3     -10.999  -6.027  16.284  0.80 40.37 LIG 0.67  C 
ATOM      7  NH1 ARG B   3     -10.609  -4.762  16.308  0.80 40.12 LIG-0.23  N 
ATOM      8  NH2 ARG B   3     -10.243  -6.936  15.677  0.80 41.10 LIG-0.23  N 
ATOM      9 2HH1 ARG B   3      -9.874  -4.531  15.927  0.80 40.12 LIG 0.17  HD
ATOM     10 1HH1 ARG B   3     -11.092  -4.171  16.706  0.80 40.12 LIG 0.17  HD
ATOM     11 2HH2 ARG B   3      -9.509  -6.701  15.297  0.80 41.10 LIG 0.17  HD
ATOM     12 1HH2 ARG B   3     -10.489  -7.760  15.664  0.80 41.10 LIG 0.17  HD
ATOM     13 HE   ARG B   3     -12.363  -7.216  16.841  0.80 40.38 LIG 0.18  HD
ENDBRANCH 4 5
ENDBRANCH 3 4
ENDBRANCH 2 3
ENDBRANCH 1 2
BRANCH 1 14
ATOM     14  C   ARG B   3     -16.570  -5.793  14.851  0.80 30.98 LIG 0.24  C 
ATOM     15 O    ARG B   3     -16.657  -4.591  14.614  0.80 30.41 LIG-0.27  OA
ATOM     16  N   GLU B   4     -17.579  -6.650  14.730  0.80 28.71 LIG-0.35  N 
ATOM     17 H    GLU B   4     -17.490  -7.503  14.789  0.80 28.71 LIG 0.16  HD
BRANCH 16 18
ATOM     18  CA  GLU B   4     -18.948  -6.208  14.482  0.80 27.21 LIG 0.18  C 
BRANCH 18 19
ATOM     19  C   GLU B   4     -19.866  -7.416  14.532  0.80 25.80 LIG 0.24  C 
ATOM     20 O    GLU B   4     -20.775  -7.570  13.695  0.80 26.39 LIG-0.27  OA
ATOM     21  N   VAL B   5     -19.616  -8.282  15.504  0.80 23.72 LIG-0.35  N 
ATOM     22 H    VAL B   5     -18.950  -8.211  16.043  0.80 23.72 LIG 0.16  HD
BRANCH 21 23
ATOM     23  CA  VAL B   5     -20.454  -9.443  15.749  0.80 22.93 LIG 0.18  C 
BRANCH 23 24
ATOM     24  CB  VAL B   5     -20.041 -10.198  17.018  0.80 23.26 LIG 0.01  C 
ATOM     25  CG2 VAL B   5     -20.730 -11.561  17.074  0.80 23.62 LIG 0.01  C 
ATOM     26  CG1 VAL B   5     -20.384  -9.386  18.245  0.80 24.46 LIG 0.01  C 
ENDBRANCH 23 24
BRANCH 23 27
ATOM     27  C   VAL B   5     -21.888  -8.939  15.886  0.80 21.40 LIG 0.24  C 
ATOM     28  N   PRO B   6     -22.836  -9.627  15.232  0.80 20.87 LIG-0.34  N 
ATOM     29  CD  PRO B   6     -22.721 -10.685  14.220  0.80 21.07 LIG 0.13  C 
ATOM     30  CA  PRO B   6     -24.226  -9.193  15.389  0.80 20.34 LIG 0.18  C 
ATOM     31  CG  PRO B   6     -24.046 -10.622  13.508  0.80 22.12 LIG 0.02  C 
ATOM     32  CB  PRO B   6     -25.005 -10.193  14.532  0.80 19.87 LIG 0.04  C 
ATOM     33 O    VAL B   5     -22.134  -7.942  16.575  0.80 20.67 LIG-0.27  OA
BRANCH 30 34
ATOM     34  C   PRO B   6     -24.675  -9.261  16.835  0.80 20.23 LIG 0.24  C 
ATOM     35 O    PRO B   6     -24.936  -8.207  17.449  0.80 20.62 LIG-0.27  OA
ATOM     36  N   CYS B   7     -24.787 -10.483  17.359  0.80 18.87 LIG-0.34  N 
ATOM     37 H    CYS B   7     -24.514 -11.198  16.967  0.80 18.87 LIG 0.16  HD
BRANCH 36 38
ATOM     38  CA  CYS B   7     -25.399 -10.713  18.679  0.80 19.21 LIG 0.19  C 
BRANCH 38 39
ATOM     39  C   CYS B   7     -24.355 -11.033  19.730  0.80 19.13 LIG 0.20  C 
ATOM     40 O    CYS B   7     -24.471 -10.617  20.895  0.80 18.45 LIG-0.65  OA
ATOM     41 OXT  CYS B   7     -23.399 -11.751  19.451  0.80 19.35 LIG-0.65  OA
ENDBRANCH 38 39
BRANCH 38 42
ATOM     42  CB  CYS B   7     -26.470 -11.798  18.605  0.80 19.02 LIG 0.11  C 
BRANCH 42 43
ATOM     43 SG   CYS B   7     -26.572 -12.521  16.949  0.80 21.06 LIG-0.18  SA
ATOM     44 HG   CYS B   7     -27.654 -13.016  16.793  0.80 21.06 LIG 0.10  HD
ENDBRANCH 42 43
ENDBRANCH 38 42
ENDBRANCH 36 38
ENDBRANCH 30 34
ENDBRANCH 23 27
ENDBRANCH 21 23
ENDBRANCH 18 19
BRANCH 18 45
ATOM     45  CB  GLU B   4     -19.085  -5.523  13.123  0.80 27.21 LIG 0.04  C 
BRANCH 45 46
ATOM     46  CG  GLU B   4     -18.507  -6.306  11.971  0.80 28.14 LIG 0.12  C 
BRANCH 46 47
ATOM     47  CD  GLU B   4     -17.348  -5.606  11.289  0.80 29.53 LIG 0.17  C 
ATOM     48 OE1  GLU B   4     -16.168  -5.887  11.604  0.80 28.59 LIG-0.65  OA
ATOM     49 OE2  GLU B   4     -17.632  -4.759  10.422  0.80 31.57 LIG-0.65  OA
ENDBRANCH 46 47
ENDBRANCH 45 46
ENDBRANCH 18 45
ENDBRANCH 16 18
ENDBRANCH 1 14
BRANCH 1 50
ATOM     50  N   ARG B   3     -14.912  -7.493  14.399  0.80 34.16 LIG-0.35  N 
ATOM     51  C   GLU B   2     -13.936  -8.349  14.689  0.80 36.27 LIG 0.24  C 
ATOM     52 O    GLU B   2     -13.198  -8.223  15.672  0.80 35.80 LIG-0.27  OA
ATOM     53 H    ARG B   3     -15.395  -7.536  13.690  0.80 34.16 LIG 0.16  HD
BRANCH 51 54
ATOM     54  CA  GLU B   2     -13.734  -9.494  13.700  0.80 37.72 LIG 0.18  C 
BRANCH 54 55
ATOM     55  N   GLU B   2     -12.351  -9.516  13.231  0.80 39.05 LIG-0.35  N 
ATOM     56  C   GLN B   1     -11.792  -8.433  12.696  0.80 40.84 LIG 0.24  C 
ATOM     57 O    GLN B   1     -12.380  -7.351  12.601  0.80 40.79 LIG-0.27  OA
ATOM     58 H    GLU B   2     -11.948 -10.270  13.330  0.80 39.05 LIG 0.16  HD
BRANCH 56 59
ATOM     59  CA  GLN B   1     -10.359  -8.579  12.188  0.80 42.15 LIG 0.18  C 
BRANCH 59 60
ATOM     60  CB  GLN B   1      -9.577  -7.271  12.343  0.80 42.68 LIG 0.04  C 
BRANCH 60 61
ATOM     61  CG  GLN B   1      -8.535  -7.325  13.469  0.80 43.94 LIG 0.10  C 
BRANCH 61 62
ATOM     62  CD  GLN B   1      -7.927  -5.973  13.787  0.80 46.27 LIG 0.21  C 
ATOM     63 OE1  GLN B   1      -8.489  -5.194  14.558  0.80 48.62 LIG-0.27  OA
ATOM     64  NE2 GLN B   1      -6.766  -5.688  13.199  0.80 47.40 LIG-0.37  N 
ATOM     65 22HE GLN B   1      -6.379  -4.935  13.354  0.80 47.40 LIG 0.16  HD
ATOM     66 21HE GLN B   1      -6.403  -6.257  12.666  0.80 47.40 LIG 0.16  HD
ENDBRANCH 61 62
ENDBRANCH 60 61
ENDBRANCH 59 60
BRANCH 59 67
ATOM     67  N   GLN B   1     -10.391  -8.979  10.784  0.80 42.89 LIG-0.35  N 
ATOM     68  C   ACE B   0      -9.863 -10.125  10.353  0.80 43.46 LIG 0.21  C 
ATOM     69  CH3 ACE B   0     -10.145 -10.441   8.911  0.80 43.70 LIG 0.12  C 
ATOM     70 O    ACE B   0      -9.450 -10.986  11.133  0.80 44.01 LIG-0.27  OA
ATOM     71 H    GLN B   1     -10.779  -8.411  10.267  0.80 42.89 LIG 0.16  HD
ENDBRANCH 59 67
ENDBRANCH 56 59
ENDBRANCH 54 55
BRANCH 54 72
ATOM     72  CB  GLU B   2     -14.158 -10.841  14.311  0.80 37.98 LIG 0.04  C 
BRANCH 72 73
ATOM     73  CG  GLU B   2     -15.624 -11.227  14.142  0.80 38.47 LIG 0.12  C 
BRANCH 73 74
ATOM     74  CD  GLU B   2     -16.406 -11.134  15.448  0.80 38.45 LIG 0.17  C 
ATOM     75 OE1  GLU B   2     -16.025 -11.817  16.420  0.80 41.05 LIG-0.65  OA
ATOM     76 OE2  GLU B   2     -17.387 -10.370  15.505  0.80 38.47 LIG-0.65  OA
ENDBRANCH 73 74
ENDBRANCH 72 73
ENDBRANCH 54 72
ENDBRANCH 51 54
ENDBRANCH 1 50
TORSDOF 29
ENDMDL
MODEL 8
USER: ADFR SOLUTION from run 64
USER: SCORE 20.089921 LL:  -6.337 LR: -17.564 RR:   0.000 FEB:  -8.914
USER: RMSD 13.382560
USER: SEED 63
USER: STATUS searching
USER: GENES 31
USER: genes 0 Translation |==|  0.70274 0.47526 0.39076
USER: genes 1 Rotation |==|  0.42689 0.14175 0.16075 0.53492
USER: genes 2 Torsion [C]-CA--CB-[CG] |==|  0.03417
USER: genes 3 Torsion [CA]-CB--CG-[CD] |==|  0.26325
USER: genes 4 Torsion [CB]-CG--CD-[NE] |==|  0.91729
USER: genes 5 Torsion [CG]-CD--NE-[CZ] |==|  0.63401
USER: genes 6 Torsion [N]-CA--C-[N] |==|  0.38123
USER: genes 7 Torsion [C]-N--CA-[CB] |==|  0.40035
USER: genes 8 Torsion [N]-CA--C-[N] |==|  0.21195
USER: genes 9 Torsion [C]-N--CA-[CB] |==|  0.51211
USER: genes 10 Torsion [N]-CA--CB-[CG2] |==|  0.24326
USER: genes 11 Torsion [N]-CA--C-[N] |==|  0.39709
USER: genes 12 Torsion [N]-CA--C-[O] |==|  0.30421
USER: genes 13 Torsion [C]-N--CA-[C] |==|  0.60899
USER: genes 14 Torsion [N]-CA--C-[O] |==|  0.01882
USER: genes 15 Torsion [N]-CA--CB-[SG] |==|  0.81517
USER: genes 16 Torsion [CA]-CB--SG-[HG] |==|  0.55075
USER: genes 17 Torsion [N]-CA--CB-[CG] |==|  0.14357
USER: genes 18 Torsion [CA]-CB--CG-[CD] |==|  0.73914
USER: genes 19 Torsion [CB]-CG--CD-[OE2] |==|  0.16151
USER: genes 20 Torsion [CB]-CA--N-[C] |==|  0.50556
USER: genes 21 Torsion [N]-C--CA-[N] |==|  0.21639
USER: genes 22 Torsion [C]-CA--N-[C] |==|  0.18254
USER: genes 23 Torsion [N]-C--CA-[N] |==|  0.33179
USER: genes 24 Torsion [C]-CA--CB-[CG] |==|  0.25679
USER: genes 25 Torsion [CA]-CB--CG-[CD] |==|  0.94780
USER: genes 26 Torsion [CB]-CG--CD-[OE1] |==|  0.72574
USER: genes 27 Torsion [C]-CA--N-[C] |==|  0.80158
USER: genes 28 Torsion [C]-CA--CB-[CG] |==|  0.18586
USER: genes 29 Torsion [CA]-CB--CG-[CD] |==|  0.76266
USER: genes 30 Torsion [CB]-CG--CD-[OE1] |==|  0.76376
ROOT
ATOM      1  CA  ARG B   3     -14.710  -8.581  14.110  0.80 33.15 LIG 0.18  C 
ENDROOT
BRANCH 1 2
ATOM      2  CB  ARG B   3     -14.938 -10.098  14.232  0.80 33.78 LIG 0.04  C 
BRANCH 2 3
ATOM      3  CG  ARG B   3     -16.318 -10.552  14.716  0.80 35.93 LIG 0.02  C 
BRANCH 3 4
ATOM      4  CD  ARG B   3     -17.262 -10.876  13.579  0.80 39.27 LIG 0.14  C 
BRANCH 4 5
ATOM      5  NE  ARG B   3     -16.981 -10.085  12.379  0.80 40.38 LIG-0.23  N 
ATOM      6  CZ  ARG B   3     -17.904  -9.430  11.677  0.80 40.37 LIG 0.67  C 
ATOM      7  NH1 ARG B   3     -19.173  -9.467  12.052  0.80 40.12 LIG-0.23  N 
ATOM      8  NH2 ARG B   3     -17.556  -8.728  10.604  0.80 41.10 LIG-0.23  N 
ATOM      9 2HH1 ARG B   3     -19.768  -9.043  11.599  0.80 40.12 LIG 0.17  HD
ATOM     10 1HH1 ARG B   3     -19.402  -9.914  12.751  0.80 40.12 LIG 0.17  HD
ATOM     11 2HH2 ARG B   3     -18.154  -8.306  10.153  0.80 41.10 LIG 0.17  HD
ATOM     12 1HH2 ARG B   3     -16.732  -8.695  10.360  0.80 41.10 LIG 0.17  HD
ATOM     13 HE   ARG B   3     -16.166 -10.041  12.110  0.80 40.38 LIG 0.18  HD
ENDBRANCH 4 5
ENDBRANCH 3 4
ENDBRANCH 2 3
ENDBRANCH 1 2
BRANCH 1 14
ATOM     14  C   ARG B   3     -15.824  -7.799  14.785  0.80 30.98 LIG 0.24  C 
ATOM     15 O    ARG B   3     -15.807  -7.630  16.001  0.80 30.41 LIG-0.27  OA
ATOM     16  N   GLU B   4     -16.764  -7.314  13.979  0.80 28.71 LIG-0.35  N 
ATOM     17 H    GLU B   4     -16.716  -7.338  13.121  0.80 28.71 LIG 0.16  HD
BRANCH 16 18
ATOM     18  CA  GLU B   4     -17.979  -6.687  14.492  0.80 27.21 LIG 0.18  C 
BRANCH 18 19
ATOM     19  C   GLU B   4     -19.080  -7.732  14.545  0.80 25.80 LIG 0.24  C 
ATOM     20 O    GLU B   4     -19.978  -7.765  13.683  0.80 26.39 LIG-0.27  OA
ATOM     21  N   VAL B   5     -18.999  -8.595  15.547  0.80 23.72 LIG-0.35  N 
ATOM     22 H    VAL B   5     -18.345  -8.614  16.106  0.80 23.72 LIG 0.16  HD
BRANCH 21 23
ATOM     23  CA  VAL B   5     -20.019  -9.599  15.796  0.80 22.93 LIG 0.18  C 
BRANCH 23 24
ATOM     24  CB  VAL B   5     -19.743 -10.401  17.074  0.80 23.26 LIG 0.01  C 
ATOM     25  CG2 VAL B   5     -20.349  -9.694  18.286  0.80 23.62 LIG 0.01  C 
ATOM     26  CG1 VAL B   5     -18.256 -10.586  17.263  0.80 24.46 LIG 0.01  C 
ENDBRANCH 23 24
BRANCH 23 27
ATOM     27  C   VAL B   5     -21.350  -8.864  15.919  0.80 21.40 LIG 0.24  C 
ATOM     28  N   PRO B   6     -22.429  -9.475  15.405  0.80 20.87 LIG-0.34  N 
ATOM     29  CD  PRO B   6     -22.534 -10.662  14.546  0.80 21.07 LIG 0.13  C 
ATOM     30  CA  PRO B   6     -23.726  -8.813  15.555  0.80 20.34 LIG 0.18  C 
ATOM     31  CG  PRO B   6     -23.876 -10.487  13.885  0.80 22.12 LIG 0.02  C 
ATOM     32  CB  PRO B   6     -24.696  -9.783  14.878  0.80 19.87 LIG 0.04  C 
ATOM     33 O    VAL B   5     -21.402  -7.760  16.472  0.80 20.67 LIG-0.27  OA
BRANCH 30 34
ATOM     34  C   PRO B   6     -24.091  -8.620  17.013  0.80 20.23 LIG 0.24  C 
ATOM     35 O    PRO B   6     -24.086  -7.472  17.503  0.80 20.62 LIG-0.27  OA
ATOM     36  N   CYS B   7     -24.428  -9.722  17.686  0.80 18.87 LIG-0.34  N 
ATOM     37 H    CYS B   7     -24.336 -10.519  17.375  0.80 18.87 LIG 0.16  HD
BRANCH 36 38
ATOM     38  CA  CYS B   7     -24.994  -9.664  19.044  0.80 19.21 LIG 0.19  C 
BRANCH 38 39
ATOM     39  C   CYS B   7     -24.450 -10.772  19.923  0.80 19.13 LIG 0.20  C 
ATOM     40 O    CYS B   7     -23.538 -11.516  19.524  0.80 18.45 LIG-0.65  OA
ATOM     41 OXT  CYS B   7     -24.875 -10.919  21.066  0.80 19.35 LIG-0.65  OA
ENDBRANCH 38 39
BRANCH 38 42
ATOM     42  CB  CYS B   7     -26.520  -9.682  19.003  0.80 19.02 LIG 0.11  C 
BRANCH 42 43
ATOM     43 SG   CYS B   7     -27.183  -8.178  18.243  0.80 21.06 LIG-0.18  SA
ATOM     44 HG   CYS B   7     -28.339  -8.054  18.540  0.80 21.06 LIG 0.10  HD
ENDBRANCH 42 43
ENDBRANCH 38 42
ENDBRANCH 36 38
ENDBRANCH 30 34
ENDBRANCH 23 27
ENDBRANCH 21 23
ENDBRANCH 18 19
BRANCH 18 45
ATOM     45  CB  GLU B   4     -18.428  -5.520  13.616  0.80 27.21 LIG 0.04  C 
BRANCH 45 46
ATOM     46  CG  GLU B   4     -18.546  -5.853  12.149  0.80 28.14 LIG 0.12  C 
BRANCH 46 47
ATOM     47  CD  GLU B   4     -17.295  -5.528  11.357  0.80 29.53 LIG 0.17  C 
ATOM     48 OE1  GLU B   4     -17.351  -4.739  10.386  0.80 28.59 LIG-0.65  OA
ATOM     49 OE2  GLU B   4     -16.239  -6.078  11.720  0.80 31.57 LIG-0.65  OA
ENDBRANCH 46 47
ENDBRANCH 45 46
ENDBRANCH 18 45
ENDBRANCH 16 18
ENDBRANCH 1 14
BRANCH 1 50
ATOM     50  N   ARG B   3     -13.440  -8.189  14.703  0.80 34.16 LIG-0.35  N 
ATOM     51  C   GLU B   2     -13.057  -6.916  14.744  0.80 36.27 LIG 0.24  C 
ATOM     52 O    GLU B   2     -13.698  -6.001  14.218  0.80 35.80 LIG-0.27  OA
ATOM     53 H    ARG B   3     -12.975  -8.842  15.015  0.80 34.16 LIG 0.16  HD
BRANCH 51 54
ATOM     54  CA  GLU B   2     -11.730  -6.638  15.447  0.80 37.72 LIG 0.18  C 
BRANCH 54 55
ATOM     55  N   GLU B   2     -10.614  -6.985  14.570  0.80 39.05 LIG-0.35  N 
ATOM     56  C   GLN B   1     -10.394  -6.312  13.444  0.80 40.84 LIG 0.24  C 
ATOM     57 O    GLN B   1     -11.079  -5.346  13.093  0.80 40.79 LIG-0.27  OA
ATOM     58 H    GLU B   2     -10.131  -7.642  14.845  0.80 39.05 LIG 0.16  HD
BRANCH 56 59
ATOM     59  CA  GLN B   1      -9.233  -6.791  12.573  0.80 42.15 LIG 0.18  C 
BRANCH 59 60
ATOM     60  CB  GLN B   1      -8.172  -5.698  12.408  0.80 42.68 LIG 0.04  C 
BRANCH 60 61
ATOM     61  CG  GLN B   1      -7.057  -5.779  13.459  0.80 43.94 LIG 0.10  C 
BRANCH 61 62
ATOM     62  CD  GLN B   1      -7.443  -6.595  14.678  0.80 46.27 LIG 0.21  C 
ATOM     63 OE1  GLN B   1      -7.830  -6.043  15.710  0.80 48.62 LIG-0.27  OA
ATOM     64  NE2 GLN B   1      -7.350  -7.919  14.564  0.80 47.40 LIG-0.37  N 
ATOM     65 22HE GLN B   1      -7.564  -8.424  15.227  0.80 47.40 LIG 0.16  HD
ATOM     66 21HE GLN B   1      -7.076  -8.268  13.827  0.80 47.40 LIG 0.16  HD
ENDBRANCH 61 62
ENDBRANCH 60 61
ENDBRANCH 59 60
BRANCH 59 67
ATOM     67  N   GLN B   1      -9.750  -7.189  11.267  0.80 42.89 LIG-0.35  N 
ATOM     68  C   ACE B   0     -10.477  -8.292  11.089  0.80 43.46 LIG 0.21  C 
ATOM     69  CH3 ACE B   0     -11.062  -8.441   9.713  0.80 43.70 LIG 0.12  C 
ATOM     70 O    ACE B   0     -10.884  -8.965  12.040  0.80 44.01 LIG-0.27  OA
ATOM     71 H    GLN B   1      -9.543  -6.649  10.630  0.80 42.89 LIG 0.16  HD
ENDBRANCH 59 67
ENDBRANCH 56 59
ENDBRANCH 54 55
BRANCH 54 72
ATOM     72  CB  GLU B   2     -11.650  -5.181  15.934  0.80 37.98 LIG 0.04  C 
BRANCH 72 73
ATOM     73  CG  GLU B   2     -12.616  -4.788  17.048  0.80 38.47 LIG 0.12  C 
BRANCH 73 74
ATOM     74  CD  GLU B   2     -13.982  -4.369  16.515  0.80 38.45 LIG 0.17  C 
ATOM     75 OE1  GLU B   2     -14.141  -3.186  16.152  0.80 41.05 LIG-0.65  OA
ATOM     76 OE2  GLU B   2     -14.885  -5.222  16.445  0.80 38.47 LIG-0.65  OA
ENDBRANCH 73 74
ENDBRANCH 72 73
ENDBRANCH 54 72
ENDBRANCH 51 54
ENDBRANCH 1 50
TORSDOF 29
ENDMDL
MODEL 9
USER: ADFR SOLUTION from run 133
USER: SCORE 20.001889 LL:  -6.106 LR: -17.459 RR:   0.000 FEB:  -8.808
USER: RMSD 13.511078
USER: SEED 132
USER: STATUS 1 or 2 clusters left
USER: GENES 31
USER: genes 0 Translation |==|  0.65163 0.55342 0.45624
USER: genes 1 Rotation |==|  0.41612 0.17186 0.86605 0.53603
USER: genes 2 Torsion [C]-CA--CB-[CG] |==|  0.54149
USER: genes 3 Torsion [CA]-CB--CG-[CD] |==|  0.71450
USER: genes 4 Torsion [CB]-CG--CD-[NE] |==|  0.52938
USER: genes 5 Torsion [CG]-CD--NE-[CZ] |==|  0.77759
USER: genes 6 Torsion [N]-CA--C-[N] |==|  0.59299
USER: genes 7 Torsion [C]-N--CA-[CB] |==|  0.77064
USER: genes 8 Torsion [N]-CA--C-[N] |==|  0.13450
USER: genes 9 Torsion [C]-N--CA-[CB] |==|  0.45747
USER: genes 10 Torsion [N]-CA--CB-[CG2] |==|  0.70519
USER: genes 11 Torsion [N]-CA--C-[N] |==|  0.38334
USER: genes 12 Torsion [N]-CA--C-[O] |==|  0.30352
USER: genes 13 Torsion [C]-N--CA-[C] |==|  0.62705
USER: genes 14 Torsion [N]-CA--C-[O] |==|  0.99478
USER: genes 15 Torsion [N]-CA--CB-[SG] |==|  0.78210
USER: genes 16 Torsion [CA]-CB--SG-[HG] |==|  0.56218
USER: genes 17 Torsion [N]-CA--CB-[CG] |==|  0.07244
USER: genes 18 Torsion [CA]-CB--CG-[CD] |==|  0.73009
USER: genes 19 Torsion [CB]-CG--CD-[OE2] |==|  0.13005
USER: genes 20 Torsion [CB]-CA--N-[C] |==|  0.22340
USER: genes 21 Torsion [N]-C--CA-[N] |==|  0.36261
USER: genes 22 Torsion [C]-CA--N-[C] |==|  0.82990
USER: genes 23 Torsion [N]-C--CA-[N] |==|  0.46479
USER: genes 24 Torsion [C]-CA--CB-[CG] |==|  0.43879
USER: genes 25 Torsion [CA]-CB--CG-[CD] |==|  0.29386
USER: genes 26 Torsion [CB]-CG--CD-[OE1] |==|  0.17150
USER: genes 27 Torsion [C]-CA--N-[C] |==|  0.21457
USER: genes 28 Torsion [C]-CA--CB-[CG] |==|  0.23779
USER: genes 29 Torsion [CA]-CB--CG-[CD] |==|  0.73107
USER: genes 30 Torsion [CB]-CG--CD-[OE1] |==|  0.67020
ROOT
ATOM      1  CA  ARG B   3     -16.320  -7.174  15.288  0.80 33.15 LIG 0.18  C 
ENDROOT
BRANCH 1 2
ATOM      2  CB  ARG B   3     -15.871  -5.708  15.158  0.80 33.78 LIG 0.04  C 
BRANCH 2 3
ATOM      3  CG  ARG B   3     -14.370  -5.433  15.264  0.80 35.93 LIG 0.02  C 
BRANCH 3 4
ATOM      4  CD  ARG B   3     -13.969  -4.869  16.609  0.80 39.27 LIG 0.14  C 
BRANCH 4 5
ATOM      5  NE  ARG B   3     -12.589  -4.381  16.620  0.80 40.38 LIG-0.23  N 
ATOM      6  CZ  ARG B   3     -11.516  -5.160  16.752  0.80 40.37 LIG 0.67  C 
ATOM      7  NH1 ARG B   3     -11.660  -6.468  16.885  0.80 40.12 LIG-0.23  N 
ATOM      8  NH2 ARG B   3     -10.298  -4.629  16.741  0.80 41.10 LIG-0.23  N 
ATOM      9 2HH1 ARG B   3     -10.967  -6.971  16.970  0.80 40.12 LIG 0.17  HD
ATOM     10 1HH1 ARG B   3     -12.446  -6.818  16.886  0.80 40.12 LIG 0.17  HD
ATOM     11 2HH2 ARG B   3      -9.608  -5.135  16.826  0.80 41.10 LIG 0.17  HD
ATOM     12 1HH2 ARG B   3     -10.199  -3.780  16.648  0.80 41.10 LIG 0.17  HD
ATOM     13 HE   ARG B   3     -12.462  -3.534  16.535  0.80 40.38 LIG 0.18  HD
ENDBRANCH 4 5
ENDBRANCH 3 4
ENDBRANCH 2 3
ENDBRANCH 1 2
BRANCH 1 14
ATOM     14  C   ARG B   3     -17.750  -7.359  14.809  0.80 30.98 LIG 0.24  C 
ATOM     15 O    ARG B   3     -18.139  -8.467  14.448  0.80 30.41 LIG-0.27  OA
ATOM     16  N   GLU B   4     -18.517  -6.273  14.835  0.80 28.71 LIG-0.35  N 
ATOM     17 H    GLU B   4     -18.276  -5.528  15.190  0.80 28.71 LIG 0.16  HD
BRANCH 16 18
ATOM     18  CA  GLU B   4     -19.855  -6.253  14.254  0.80 27.21 LIG 0.18  C 
BRANCH 18 19
ATOM     19  C   GLU B   4     -20.526  -7.587  14.531  0.80 25.80 LIG 0.24  C 
ATOM     20 O    GLU B   4     -21.082  -8.229  13.620  0.80 26.39 LIG-0.27  OA
ATOM     21  N   VAL B   5     -20.456  -8.010  15.784  0.80 23.72 LIG-0.35  N 
ATOM     22 H    VAL B   5     -20.017  -7.600  16.400  0.80 23.72 LIG 0.16  HD
BRANCH 21 23
ATOM     23  CA  VAL B   5     -21.122  -9.220  16.238  0.80 22.93 LIG 0.18  C 
BRANCH 23 24
ATOM     24  CB  VAL B   5     -20.597  -9.695  17.598  0.80 23.26 LIG 0.01  C 
ATOM     25  CG2 VAL B   5     -19.714 -10.931  17.425  0.80 23.62 LIG 0.01  C 
ATOM     26  CG1 VAL B   5     -21.750 -10.000  18.525  0.80 24.46 LIG 0.01  C 
ENDBRANCH 23 24
BRANCH 23 27
ATOM     27  C   VAL B   5     -22.610  -8.901  16.336  0.80 21.40 LIG 0.24  C 
ATOM     28  N   PRO B   6     -23.461  -9.837  15.887  0.80 20.87 LIG-0.34  N 
ATOM     29  CD  PRO B   6     -23.211 -11.061  15.115  0.80 21.07 LIG 0.13  C 
ATOM     30  CA  PRO B   6     -24.896  -9.576  16.017  0.80 20.34 LIG 0.18  C 
ATOM     31  CG  PRO B   6     -24.545 -11.335  14.470  0.80 22.12 LIG 0.02  C 
ATOM     32  CB  PRO B   6     -25.537 -10.833  15.428  0.80 19.87 LIG 0.04  C 
ATOM     33 O    VAL B   5     -22.986  -7.824  16.813  0.80 20.67 LIG-0.27  OA
BRANCH 30 34
ATOM     34  C   PRO B   6     -25.303  -9.394  17.465  0.80 20.23 LIG 0.24  C 
ATOM     35 O    PRO B   6     -25.632  -8.262  17.876  0.80 20.62 LIG-0.27  OA
ATOM     36  N   CYS B   7     -25.306 -10.496  18.218  0.80 18.87 LIG-0.34  N 
ATOM     37 H    CYS B   7     -24.987 -11.252  17.960  0.80 18.87 LIG 0.16  HD
BRANCH 36 38
ATOM     38  CA  CYS B   7     -25.868 -10.508  19.580  0.80 19.21 LIG 0.19  C 
BRANCH 38 39
ATOM     39  C   CYS B   7     -24.946 -11.213  20.556  0.80 19.13 LIG 0.20  C 
ATOM     40 O    CYS B   7     -23.881 -11.726  20.174  0.80 18.45 LIG-0.65  OA
ATOM     41 OXT  CYS B   7     -25.221 -11.243  21.752  0.80 19.35 LIG-0.65  OA
ENDBRANCH 38 39
BRANCH 38 42
ATOM     42  CB  CYS B   7     -27.266 -11.120  19.591  0.80 19.02 LIG 0.11  C 
BRANCH 42 43
ATOM     43 SG   CYS B   7     -28.511  -9.943  19.007  0.80 21.06 LIG-0.18  SA
ATOM     44 HG   CYS B   7     -29.591 -10.262  19.423  0.80 21.06 LIG 0.10  HD
ENDBRANCH 42 43
ENDBRANCH 38 42
ENDBRANCH 36 38
ENDBRANCH 30 34
ENDBRANCH 23 27
ENDBRANCH 21 23
ENDBRANCH 18 19
BRANCH 18 45
ATOM     45  CB  GLU B   4     -19.815  -6.009  12.746  0.80 27.21 LIG 0.04  C 
BRANCH 45 46
ATOM     46  CG  GLU B   4     -18.533  -6.444  12.080  0.80 28.14 LIG 0.12  C 
BRANCH 46 47
ATOM     47  CD  GLU B   4     -17.546  -5.313  11.878  0.80 29.53 LIG 0.17  C 
ATOM     48 OE1  GLU B   4     -16.975  -5.163  10.773  0.80 28.59 LIG-0.65  OA
ATOM     49 OE2  GLU B   4     -17.343  -4.561  12.850  0.80 31.57 LIG-0.65  OA
ENDBRANCH 46 47
ENDBRANCH 45 46
ENDBRANCH 18 45
ENDBRANCH 16 18
ENDBRANCH 1 14
BRANCH 1 50
ATOM     50  N   ARG B   3     -15.454  -8.061  14.524  0.80 34.16 LIG-0.35  N 
ATOM     51  C   GLU B   2     -14.276  -8.458  14.997  0.80 36.27 LIG 0.24  C 
ATOM     52 O    GLU B   2     -13.802  -8.047  16.061  0.80 35.80 LIG-0.27  OA
ATOM     53 H    ARG B   3     -15.769  -8.295  13.759  0.80 34.16 LIG 0.16  HD
BRANCH 51 54
ATOM     54  CA  GLU B   2     -13.496  -9.433  14.118  0.80 37.72 LIG 0.18  C 
BRANCH 54 55
ATOM     55  N   GLU B   2     -12.119  -8.971  13.953  0.80 39.05 LIG-0.35  N 
ATOM     56  C   GLN B   1     -11.855  -7.801  13.376  0.80 40.84 LIG 0.24  C 
ATOM     57 O    GLN B   1     -12.737  -7.029  12.988  0.80 40.79 LIG-0.27  OA
ATOM     58 H    GLU B   2     -11.520  -9.509  14.254  0.80 39.05 LIG 0.16  HD
BRANCH 56 59
ATOM     59  CA  GLN B   1     -10.381  -7.438  13.203  0.80 42.15 LIG 0.18  C 
BRANCH 59 60
ATOM     60  CB  GLN B   1      -9.728  -7.107  14.549  0.80 42.68 LIG 0.04  C 
BRANCH 60 61
ATOM     61  CG  GLN B   1      -8.202  -7.263  14.530  0.80 43.94 LIG 0.10  C 
BRANCH 61 62
ATOM     62  CD  GLN B   1      -7.465  -5.938  14.510  0.80 46.27 LIG 0.21  C 
ATOM     63 OE1  GLN B   1      -7.584  -5.136  15.438  0.80 48.62 LIG-0.27  OA
ATOM     64  NE2 GLN B   1      -6.689  -5.704  13.453  0.80 47.40 LIG-0.37  N 
ATOM     65 22HE GLN B   1      -6.245  -4.968  13.399  0.80 47.40 LIG 0.16  HD
ATOM     66 21HE GLN B   1      -6.630  -6.288  12.824  0.80 47.40 LIG 0.16  HD
ENDBRANCH 61 62
ENDBRANCH 60 61
ENDBRANCH 59 60
BRANCH 59 67
ATOM     67  N   GLN B   1     -10.275  -6.295  12.301  0.80 42.89 LIG-0.35  N 
ATOM     68  C   ACE B   0     -10.538  -5.048  12.691  0.80 43.46 LIG 0.21  C 
ATOM     69  CH3 ACE B   0     -10.208  -3.992  11.673  0.80 43.70 LIG 0.12  C 
ATOM     70 O    ACE B   0     -10.741  -4.763  13.873  0.80 44.01 LIG-0.27  OA
ATOM     71 H    GLN B   1     -10.030  -6.502  11.503  0.80 42.89 LIG 0.16  HD
ENDBRANCH 59 67
ENDBRANCH 56 59
ENDBRANCH 54 55
BRANCH 54 72
ATOM     72  CB  GLU B   2     -13.561 -10.865  14.678  0.80 37.98 LIG 0.04  C 
BRANCH 72 73
ATOM     73  CG  GLU B   2     -14.773 -11.695  14.267  0.80 38.47 LIG 0.12  C 
BRANCH 73 74
ATOM     74  CD  GLU B   2     -15.878 -11.673  15.317  0.80 38.45 LIG 0.17  C 
ATOM     75 OE1  GLU B   2     -16.219 -12.750  15.846  0.80 41.05 LIG-0.65  OA
ATOM     76 OE2  GLU B   2     -16.392 -10.581  15.623  0.80 38.47 LIG-0.65  OA
ENDBRANCH 73 74
ENDBRANCH 72 73
ENDBRANCH 54 72
ENDBRANCH 51 54
ENDBRANCH 1 50
TORSDOF 29
ENDMDL
MODEL 10
USER: ADFR SOLUTION from run 84
USER: SCORE 19.614237 LL:  -5.731 LR: -17.236 RR:   0.000 FEB:  -8.585
USER: RMSD 12.806473
USER: SEED 83
USER: STATUS searching
USER: GENES 31
USER: genes 0 Translation |==|  0.72438 0.53114 0.42506
USER: genes 1 Rotation |==|  0.42490 0.41816 0.93925 0.71148
USER: genes 2 Torsion [C]-CA--CB-[CG] |==|  0.36338
USER: genes 3 Torsion [CA]-CB--CG-[CD] |==|  0.01924
USER: genes 4 Torsion [CB]-CG--CD-[NE] |==|  0.72212
USER: genes 5 Torsion [CG]-CD--NE-[CZ] |==|  0.34670
USER: genes 6 Torsion [N]-CA--C-[N] |==|  0.86958
USER: genes 7 Torsion [C]-N--CA-[CB] |==|  0.26841
USER: genes 8 Torsion [N]-CA--C-[N] |==|  0.22744
USER: genes 9 Torsion [C]-N--CA-[CB] |==|  0.48158
USER: genes 10 Torsion [N]-CA--CB-[CG2] |==|  0.54779
USER: genes 11 Torsion [N]-CA--C-[N] |==|  0.41250
USER: genes 12 Torsion [N]-CA--C-[O] |==|  0.29692
USER: genes 13 Torsion [C]-N--CA-[C] |==|  0.60355
USER: genes 14 Torsion [N]-CA--C-[O] |==|  0.49020
USER: genes 15 Torsion [N]-CA--CB-[SG] |==|  0.17800
USER: genes 16 Torsion [CA]-CB--SG-[HG] |==|  0.85074
USER: genes 17 Torsion [N]-CA--CB-[CG] |==|  0.16615
USER: genes 18 Torsion [CA]-CB--CG-[CD] |==|  0.69138
USER: genes 19 Torsion [CB]-CG--CD-[OE2] |==|  0.19191
USER: genes 20 Torsion [CB]-CA--N-[C] |==|  0.87110
USER: genes 21 Torsion [N]-C--CA-[N] |==|  0.79384
USER: genes 22 Torsion [C]-CA--N-[C] |==|  0.68265
USER: genes 23 Torsion [N]-C--CA-[N] |==|  0.25408
USER: genes 24 Torsion [C]-CA--CB-[CG] |==|  0.19868
USER: genes 25 Torsion [CA]-CB--CG-[CD] |==|  0.34889
USER: genes 26 Torsion [CB]-CG--CD-[OE1] |==|  0.24996
USER: genes 27 Torsion [C]-CA--N-[C] |==|  0.77050
USER: genes 28 Torsion [C]-CA--CB-[CG] |==|  0.34402
USER: genes 29 Torsion [CA]-CB--CG-[CD] |==|  0.40128
USER: genes 30 Torsion [CB]-CG--CD-[OE1] |==|  0.24433
ROOT
ATOM      1  CA  ARG B   3     -14.028  -7.575  14.727  0.80 33.15 LIG 0.18  C 
ENDROOT
BRANCH 1 2
ATOM      2  CB  ARG B   3     -13.451  -7.261  13.335  0.80 33.78 LIG 0.04  C 
BRANCH 2 3
ATOM      3  CG  ARG B   3     -11.966  -6.900  13.269  0.80 35.93 LIG 0.02  C 
BRANCH 3 4
ATOM      4  CD  ARG B   3     -11.259  -7.074  14.595  0.80 39.27 LIG 0.14  C 
BRANCH 4 5
ATOM      5  NE  ARG B   3     -11.089  -5.806  15.306  0.80 40.38 LIG-0.23  N 
ATOM      6  CZ  ARG B   3     -11.510  -5.579  16.550  0.80 40.37 LIG 0.67  C 
ATOM      7  NH1 ARG B   3     -12.127  -6.534  17.226  0.80 40.12 LIG-0.23  N 
ATOM      8  NH2 ARG B   3     -11.303  -4.397  17.122  0.80 41.10 LIG-0.23  N 
ATOM      9 2HH1 ARG B   3     -12.398  -6.387  18.029  0.80 40.12 LIG 0.17  HD
ATOM     10 1HH1 ARG B   3     -12.257  -7.303  16.863  0.80 40.12 LIG 0.17  HD
ATOM     11 2HH2 ARG B   3     -11.576  -4.254  17.924  0.80 41.10 LIG 0.17  HD
ATOM     12 1HH2 ARG B   3     -10.896  -3.775  16.689  0.80 41.10 LIG 0.17  HD
ATOM     13 HE   ARG B   3     -10.690  -5.165  14.894  0.80 40.38 LIG 0.18  HD
ENDBRANCH 4 5
ENDBRANCH 3 4
ENDBRANCH 2 3
ENDBRANCH 1 2
BRANCH 1 14
ATOM     14  C   ARG B   3     -15.312  -6.803  14.979  0.80 30.98 LIG 0.24  C 
ATOM     15 O    ARG B   3     -15.301  -5.810  15.701  0.80 30.41 LIG-0.27  OA
ATOM     16  N   GLU B   4     -16.397  -7.260  14.360  0.80 28.71 LIG-0.35  N 
ATOM     17 H    GLU B   4     -16.381  -7.886  13.770  0.80 28.71 LIG 0.16  HD
BRANCH 16 18
ATOM     18  CA  GLU B   4     -17.728  -6.728  14.632  0.80 27.21 LIG 0.18  C 
BRANCH 18 19
ATOM     19  C   GLU B   4     -18.727  -7.872  14.592  0.80 25.80 LIG 0.24  C 
ATOM     20 O    GLU B   4     -19.395  -8.107  13.568  0.80 26.39 LIG-0.27  OA
ATOM     21  N   VAL B   5     -18.812  -8.592  15.701  0.80 23.72 LIG-0.35  N 
ATOM     22 H    VAL B   5     -18.306  -8.471  16.386  0.80 23.72 LIG 0.16  HD
BRANCH 21 23
ATOM     23  CA  VAL B   5     -19.780  -9.663  15.862  0.80 22.93 LIG 0.18  C 
BRANCH 23 24
ATOM     24  CB  VAL B   5     -19.568 -10.445  17.165  0.80 23.26 LIG 0.01  C 
ATOM     25  CG2 VAL B   5     -20.297 -11.787  17.104  0.80 23.62 LIG 0.01  C 
ATOM     26  CG1 VAL B   5     -20.056  -9.636  18.344  0.80 24.46 LIG 0.01  C 
ENDBRANCH 23 24
BRANCH 23 27
ATOM     27  C   VAL B   5     -21.164  -9.021  15.859  0.80 21.40 LIG 0.24  C 
ATOM     28  N   PRO B   6     -22.170  -9.752  15.356  0.80 20.87 LIG-0.34  N 
ATOM     29  CD  PRO B   6     -22.149 -11.014  14.605  0.80 21.07 LIG 0.13  C 
ATOM     30  CA  PRO B   6     -23.516  -9.177  15.388  0.80 20.34 LIG 0.18  C 
ATOM     31  CG  PRO B   6     -23.465 -10.997  13.872  0.80 22.12 LIG 0.02  C 
ATOM     32  CB  PRO B   6     -24.381 -10.271  14.759  0.80 19.87 LIG 0.04  C 
ATOM     33 O    VAL B   5     -21.321  -7.879  16.307  0.80 20.67 LIG-0.27  OA
BRANCH 30 34
ATOM     34  C   PRO B   6     -23.967  -8.885  16.805  0.80 20.23 LIG 0.24  C 
ATOM     35 O    PRO B   6     -24.019  -7.703  17.204  0.80 20.62 LIG-0.27  OA
ATOM     36  N   CYS B   7     -24.312  -9.942  17.542  0.80 18.87 LIG-0.34  N 
ATOM     37 H    CYS B   7     -24.182 -10.757  17.299  0.80 18.87 LIG 0.16  HD
BRANCH 36 38
ATOM     38  CA  CYS B   7     -24.954  -9.798  18.860  0.80 19.21 LIG 0.19  C 
BRANCH 38 39
ATOM     39  C   CYS B   7     -24.466 -10.849  19.837  0.80 19.13 LIG 0.20  C 
ATOM     40 O    CYS B   7     -24.846 -10.850  21.020  0.80 18.45 LIG-0.65  OA
ATOM     41 OXT  CYS B   7     -23.720 -11.747  19.455  0.80 19.35 LIG-0.65  OA
ENDBRANCH 38 39
BRANCH 38 42
ATOM     42  CB  CYS B   7     -26.476  -9.817  18.733  0.80 19.02 LIG 0.11  C 
BRANCH 42 43
ATOM     43 SG   CYS B   7     -27.072 -11.411  18.116  0.80 21.06 LIG-0.18  SA
ATOM     44 HG   CYS B   7     -26.507 -11.681  17.093  0.80 21.06 LIG 0.10  HD
ENDBRANCH 42 43
ENDBRANCH 38 42
ENDBRANCH 36 38
ENDBRANCH 30 34
ENDBRANCH 23 27
ENDBRANCH 21 23
ENDBRANCH 18 19
BRANCH 18 45
ATOM     45  CB  GLU B   4     -18.134  -5.665  13.613  0.80 27.21 LIG 0.04  C 
BRANCH 45 46
ATOM     46  CG  GLU B   4     -18.170  -6.153  12.186  0.80 28.14 LIG 0.12  C 
BRANCH 46 47
ATOM     47  CD  GLU B   4     -17.080  -5.557  11.319  0.80 29.53 LIG 0.17  C 
ATOM     48 OE1  GLU B   4     -17.371  -4.746  10.409  0.80 28.59 LIG-0.65  OA
ATOM     49 OE2  GLU B   4     -15.911  -5.912  11.558  0.80 31.57 LIG-0.65  OA
ENDBRANCH 46 47
ENDBRANCH 45 46
ENDBRANCH 18 45
ENDBRANCH 16 18
ENDBRANCH 1 14
BRANCH 1 50
ATOM     50  N   ARG B   3     -14.303  -8.997  14.876  0.80 34.16 LIG-0.35  N 
ATOM     51  C   GLU B   2     -14.937  -9.684  13.930  0.80 36.27 LIG 0.24  C 
ATOM     52 O    GLU B   2     -15.404  -9.160  12.913  0.80 35.80 LIG-0.27  OA
ATOM     53 H    ARG B   3     -14.024  -9.339  15.614  0.80 34.16 LIG 0.16  HD
BRANCH 51 54
ATOM     54  CA  GLU B   2     -15.109 -11.179  14.188  0.80 37.72 LIG 0.18  C 
BRANCH 54 55
ATOM     55  N   GLU B   2     -13.836 -11.872  13.999  0.80 39.05 LIG-0.35  N 
ATOM     56  C   GLN B   1     -13.675 -12.751  13.012  0.80 40.84 LIG 0.24  C 
ATOM     57 O    GLN B   1     -14.559 -13.003  12.187  0.80 40.79 LIG-0.27  OA
ATOM     58 H    GLU B   2     -13.224 -11.663  14.566  0.80 39.05 LIG 0.16  HD
BRANCH 56 59
ATOM     59  CA  GLN B   1     -12.323 -13.458  12.936  0.80 42.15 LIG 0.18  C 
BRANCH 59 60
ATOM     60  CB  GLN B   1     -11.931 -13.756  11.485  0.80 42.68 LIG 0.04  C 
BRANCH 60 61
ATOM     61  CG  GLN B   1     -11.542 -12.497  10.699  0.80 43.94 LIG 0.10  C 
BRANCH 61 62
ATOM     62  CD  GLN B   1     -10.173 -12.595  10.053  0.80 46.27 LIG 0.21  C 
ATOM     63 OE1  GLN B   1     -10.044 -13.044   8.913  0.80 48.62 LIG-0.27  OA
ATOM     64  NE2 GLN B   1      -9.141 -12.164  10.777  0.80 47.40 LIG-0.37  N 
ATOM     65 22HE GLN B   1      -8.345 -12.194  10.451  0.80 47.40 LIG 0.16  HD
ATOM     66 21HE GLN B   1      -9.270 -11.857  11.570  0.80 47.40 LIG 0.16  HD
ENDBRANCH 61 62
ENDBRANCH 60 61
ENDBRANCH 59 60
BRANCH 59 67
ATOM     67  N   GLN B   1     -12.393 -14.700  13.701  0.80 42.89 LIG-0.35  N 
ATOM     68  C   ACE B   0     -12.229 -14.738  15.023  0.80 43.46 LIG 0.21  C 
ATOM     69  CH3 ACE B   0     -12.507 -16.075  15.651  0.80 43.70 LIG 0.12  C 
ATOM     70 O    ACE B   0     -12.158 -13.710  15.701  0.80 44.01 LIG-0.27  OA
ATOM     71 H    GLN B   1     -12.548 -15.397  13.222  0.80 42.89 LIG 0.16  HD
ENDBRANCH 59 67
ENDBRANCH 56 59
ENDBRANCH 54 55
BRANCH 54 72
ATOM     72  CB  GLU B   2     -15.706 -11.441  15.581  0.80 37.98 LIG 0.04  C 
BRANCH 72 73
ATOM     73  CG  GLU B   2     -16.991 -12.262  15.621  0.80 38.47 LIG 0.12  C 
BRANCH 73 74
ATOM     74  CD  GLU B   2     -17.062 -13.176  16.839  0.80 38.45 LIG 0.17  C 
ATOM     75 OE1  GLU B   2     -17.546 -12.724  17.896  0.80 41.05 LIG-0.65  OA
ATOM     76 OE2  GLU B   2     -16.649 -14.346  16.735  0.80 38.47 LIG-0.65  OA
ENDBRANCH 73 74
ENDBRANCH 72 73
ENDBRANCH 54 72
ENDBRANCH 51 54
ENDBRANCH 1 50
TORSDOF 29
ENDMDL
MODEL 11
USER: ADFR SOLUTION from run 2
USER: SCORE 20.698821 LL:  -5.568 LR: -17.230 RR:   0.000 FEB:  -8.580
USER: RMSD 13.104524
USER: SEED 66637
USER: STATUS searching
USER: GENES 31
USER: genes 0 Translation |==|  0.76281 0.56211 0.49738
USER: genes 1 Rotation |==|  0.41958 0.09763 0.76762 0.60007
USER: genes 2 Torsion [C]-CA--CB-[CG] |==|  0.68358
USER: genes 3 Torsion [CA]-CB--CG-[CD] |==|  0.79897
USER: genes 4 Torsion [CB]-CG--CD-[NE] |==|  0.46878
USER: genes 5 Torsion [CG]-CD--NE-[CZ] |==|  0.62044
USER: genes 6 Torsion [N]-CA--C-[N] |==|  0.16669
USER: genes 7 Torsion [C]-N--CA-[CB] |==|  0.28333
USER: genes 8 Torsion [N]-CA--C-[N] |==|  0.41475
USER: genes 9 Torsion [C]-N--CA-[CB] |==|  0.18694
USER: genes 10 Torsion [N]-CA--CB-[CG2] |==|  0.51812
USER: genes 11 Torsion [N]-CA--C-[N] |==|  0.15259
USER: genes 12 Torsion [N]-CA--C-[O] |==|  0.77258
USER: genes 13 Torsion [C]-N--CA-[C] |==|  0.46648
USER: genes 14 Torsion [N]-CA--C-[O] |==|  0.14673
USER: genes 15 Torsion [N]-CA--CB-[SG] |==|  0.22022
USER: genes 16 Torsion [CA]-CB--SG-[HG] |==|  0.94787
USER: genes 17 Torsion [N]-CA--CB-[CG] |==|  0.61543
USER: genes 18 Torsion [CA]-CB--CG-[CD] |==|  0.09369
USER: genes 19 Torsion [CB]-CG--CD-[OE2] |==|  0.19291
USER: genes 20 Torsion [CB]-CA--N-[C] |==|  0.78146
USER: genes 21 Torsion [N]-C--CA-[N] |==|  0.12203
USER: genes 22 Torsion [C]-CA--N-[C] |==|  0.15765
USER: genes 23 Torsion [N]-C--CA-[N] |==|  0.92230
USER: genes 24 Torsion [C]-CA--CB-[CG] |==|  0.17913
USER: genes 25 Torsion [CA]-CB--CG-[CD] |==|  0.25421
USER: genes 26 Torsion [CB]-CG--CD-[OE1] |==|  0.38938
USER: genes 27 Torsion [C]-CA--N-[C] |==|  0.81531
USER: genes 28 Torsion [C]-CA--CB-[CG] |==|  0.21939
USER: genes 29 Torsion [CA]-CB--CG-[CD] |==|  0.59540
USER: genes 30 Torsion [CB]-CG--CD-[OE1] |==|  0.98746
ROOT
ATOM      1  CA  ARG B   3     -12.818  -7.018  16.029  0.80 33.15 LIG 0.18  C 
ENDROOT
BRANCH 1 2
ATOM      2  CB  ARG B   3     -12.127  -5.759  16.581  0.80 33.78 LIG 0.04  C 
BRANCH 2 3
ATOM      3  CG  ARG B   3     -11.027  -5.139  15.717  0.80 35.93 LIG 0.02  C 
BRANCH 3 4
ATOM      4  CD  ARG B   3      -9.758  -5.963  15.699  0.80 39.27 LIG 0.14  C 
BRANCH 4 5
ATOM      5  NE  ARG B   3      -8.814  -5.512  14.676  0.80 40.38 LIG-0.23  N 
ATOM      6  CZ  ARG B   3      -8.130  -6.324  13.872  0.80 40.37 LIG 0.67  C 
ATOM      7  NH1 ARG B   3      -8.283  -7.635  13.969  0.80 40.12 LIG-0.23  N 
ATOM      8  NH2 ARG B   3      -7.300  -5.824  12.962  0.80 41.10 LIG-0.23  N 
ATOM      9 2HH1 ARG B   3      -7.841  -8.159  13.449  0.80 40.12 LIG 0.17  HD
ATOM     10 1HH1 ARG B   3      -8.824  -7.964  14.551  0.80 40.12 LIG 0.17  HD
ATOM     11 2HH2 ARG B   3      -6.860  -6.351  12.445  0.80 41.10 LIG 0.17  HD
ATOM     12 1HH2 ARG B   3      -7.203  -4.973  12.891  0.80 41.10 LIG 0.17  HD
ATOM     13 HE   ARG B   3      -8.693  -4.665  14.588  0.80 40.38 LIG 0.18  HD
ENDBRANCH 4 5
ENDBRANCH 3 4
ENDBRANCH 2 3
ENDBRANCH 1 2
BRANCH 1 14
ATOM     14  C   ARG B   3     -14.279  -6.750  15.708  0.80 30.98 LIG 0.24  C 
ATOM     15 O    ARG B   3     -14.738  -5.618  15.831  0.80 30.41 LIG-0.27  OA
ATOM     16  N   GLU B   4     -14.981  -7.795  15.279  0.80 28.71 LIG-0.35  N 
ATOM     17 H    GLU B   4     -14.632  -8.558  15.089  0.80 28.71 LIG 0.16  HD
BRANCH 16 18
ATOM     18  CA  GLU B   4     -16.427  -7.734  15.090  0.80 27.21 LIG 0.18  C 
BRANCH 18 19
ATOM     19  C   GLU B   4     -17.043  -9.011  15.635  0.80 25.80 LIG 0.24  C 
ATOM     20 O    GLU B   4     -16.411 -10.084  15.630  0.80 26.39 LIG-0.27  OA
ATOM     21  N   VAL B   5     -18.269  -8.889  16.122  0.80 23.72 LIG-0.35  N 
ATOM     22 H    VAL B   5     -18.682  -8.137  16.186  0.80 23.72 LIG 0.16  HD
BRANCH 21 23
ATOM     23  CA  VAL B   5     -19.036 -10.027  16.599  0.80 22.93 LIG 0.18  C 
BRANCH 23 24
ATOM     24  CB  VAL B   5     -18.432 -10.645  17.865  0.80 23.26 LIG 0.01  C 
ATOM     25  CG2 VAL B   5     -19.173 -11.929  18.236  0.80 23.62 LIG 0.01  C 
ATOM     26  CG1 VAL B   5     -18.489  -9.657  19.007  0.80 24.46 LIG 0.01  C 
ENDBRANCH 23 24
BRANCH 23 27
ATOM     27  C   VAL B   5     -20.448  -9.526  16.885  0.80 21.40 LIG 0.24  C 
ATOM     28  N   PRO B   6     -21.086  -8.904  15.882  0.80 20.87 LIG-0.34  N 
ATOM     29  CD  PRO B   6     -20.587  -8.426  14.586  0.80 21.07 LIG 0.13  C 
ATOM     30  CA  PRO B   6     -22.461  -8.459  16.117  0.80 20.34 LIG 0.18  C 
ATOM     31  CG  PRO B   6     -21.588  -7.367  14.204  0.80 22.12 LIG 0.02  C 
ATOM     32  CB  PRO B   6     -22.857  -7.822  14.784  0.80 19.87 LIG 0.04  C 
ATOM     33 O    VAL B   5     -20.956  -9.701  17.999  0.80 20.67 LIG-0.27  OA
BRANCH 30 34
ATOM     34  C   PRO B   6     -23.376  -9.620  16.450  0.80 20.23 LIG 0.24  C 
ATOM     35 O    PRO B   6     -23.849 -10.315  15.528  0.80 20.62 LIG-0.27  OA
ATOM     36  N   CYS B   7     -23.599  -9.840  17.747  0.80 18.87 LIG-0.34  N 
ATOM     37 H    CYS B   7     -23.352  -9.303  18.372  0.80 18.87 LIG 0.16  HD
BRANCH 36 38
ATOM     38  CA  CYS B   7     -24.300 -11.045  18.224  0.80 19.21 LIG 0.19  C 
BRANCH 38 39
ATOM     39  C   CYS B   7     -24.169 -11.207  19.725  0.80 19.13 LIG 0.20  C 
ATOM     40 O    CYS B   7     -24.470 -10.282  20.498  0.80 18.45 LIG-0.65  OA
ATOM     41 OXT  CYS B   7     -23.806 -12.279  20.201  0.80 19.35 LIG-0.65  OA
ENDBRANCH 38 39
BRANCH 38 42
ATOM     42  CB  CYS B   7     -23.818 -12.290  17.483  0.80 19.02 LIG 0.11  C 
BRANCH 42 43
ATOM     43 SG   CYS B   7     -22.238 -12.884  18.138  0.80 21.06 LIG-0.18  SA
ATOM     44 HG   CYS B   7     -21.705 -12.005  18.757  0.80 21.06 LIG 0.10  HD
ENDBRANCH 42 43
ENDBRANCH 38 42
ENDBRANCH 36 38
ENDBRANCH 30 34
ENDBRANCH 23 27
ENDBRANCH 21 23
ENDBRANCH 18 19
BRANCH 18 45
ATOM     45  CB  GLU B   4     -16.801  -7.579  13.617  0.80 27.21 LIG 0.04  C 
BRANCH 45 46
ATOM     46  CG  GLU B   4     -17.924  -6.604  13.361  0.80 28.14 LIG 0.12  C 
BRANCH 46 47
ATOM     47  CD  GLU B   4     -17.935  -5.435  14.324  0.80 29.53 LIG 0.17  C 
ATOM     48 OE1  GLU B   4     -18.845  -5.331  15.179  0.80 28.59 LIG-0.65  OA
ATOM     49 OE2  GLU B   4     -17.012  -4.606  14.217  0.80 31.57 LIG-0.65  OA
ENDBRANCH 46 47
ENDBRANCH 45 46
ENDBRANCH 18 45
ENDBRANCH 16 18
ENDBRANCH 1 14
BRANCH 1 50
ATOM     50  N   ARG B   3     -12.157  -7.497  14.823  0.80 34.16 LIG-0.35  N 
ATOM     51  C   GLU B   2     -12.363  -6.919  13.643  0.80 36.27 LIG 0.24  C 
ATOM     52 O    GLU B   2     -13.178  -6.006  13.471  0.80 35.80 LIG-0.27  OA
ATOM     53 H    ARG B   3     -11.635  -8.169  14.945  0.80 34.16 LIG 0.16  HD
BRANCH 51 54
ATOM     54  CA  GLU B   2     -11.562  -7.484  12.472  0.80 37.72 LIG 0.18  C 
BRANCH 54 55
ATOM     55  N   GLU B   2     -11.574  -8.945  12.511  0.80 39.05 LIG-0.35  N 
ATOM     56  C   GLN B   1     -12.721  -9.619  12.511  0.80 40.84 LIG 0.24  C 
ATOM     57 O    GLN B   1     -13.825  -9.069  12.438  0.80 40.79 LIG-0.27  OA
ATOM     58 H    GLU B   2     -10.797  -9.311  12.534  0.80 39.05 LIG 0.16  HD
BRANCH 56 59
ATOM     59  CA  GLN B   1     -12.623 -11.141  12.609  0.80 42.15 LIG 0.18  C 
BRANCH 59 60
ATOM     60  CB  GLN B   1     -12.729 -11.614  14.062  0.80 42.68 LIG 0.04  C 
BRANCH 60 61
ATOM     61  CG  GLN B   1     -14.094 -11.312  14.693  0.80 43.94 LIG 0.10  C 
BRANCH 61 62
ATOM     62  CD  GLN B   1     -15.090 -12.444  14.535  0.80 46.27 LIG 0.21  C 
ATOM     63 OE1  GLN B   1     -15.851 -12.748  15.455  0.80 48.62 LIG-0.27  OA
ATOM     64  NE2 GLN B   1     -15.098 -13.071  13.359  0.80 47.40 LIG-0.37  N 
ATOM     65 22HE GLN B   1     -15.650 -13.715  13.219  0.80 47.40 LIG 0.16  HD
ATOM     66 21HE GLN B   1     -14.552 -12.830  12.740  0.80 47.40 LIG 0.16  HD
ENDBRANCH 61 62
ENDBRANCH 60 61
ENDBRANCH 59 60
BRANCH 59 67
ATOM     67  N   GLN B   1     -11.352 -11.573  12.033  0.80 42.89 LIG-0.35  N 
ATOM     68  C   ACE B   0     -11.074 -11.446  10.735  0.80 43.46 LIG 0.21  C 
ATOM     69  CH3 ACE B   0      -9.658 -11.786  10.363  0.80 43.70 LIG 0.12  C 
ATOM     70 O    ACE B   0     -11.810 -10.821   9.968  0.80 44.01 LIG-0.27  OA
ATOM     71 H    GLN B   1     -10.807 -11.913  12.604  0.80 42.89 LIG 0.16  HD
ENDBRANCH 59 67
ENDBRANCH 56 59
ENDBRANCH 54 55
BRANCH 54 72
ATOM     72  CB  GLU B   2     -12.076  -6.938  11.129  0.80 37.98 LIG 0.04  C 
BRANCH 72 73
ATOM     73  CG  GLU B   2     -11.625  -5.529  10.756  0.80 38.47 LIG 0.12  C 
BRANCH 73 74
ATOM     74  CD  GLU B   2     -12.693  -4.759   9.988  0.80 38.45 LIG 0.17  C 
ATOM     75 OE1  GLU B   2     -13.745  -5.352   9.674  0.80 41.05 LIG-0.65  OA
ATOM     76 OE2  GLU B   2     -12.488  -3.562   9.713  0.80 38.47 LIG-0.65  OA
ENDBRANCH 73 74
ENDBRANCH 72 73
ENDBRANCH 54 72
ENDBRANCH 51 54
ENDBRANCH 1 50
TORSDOF 29
ENDMDL
MODEL 12
USER: ADFR SOLUTION from run 149
USER: SCORE 20.311822 LL:  -6.007 LR: -17.227 RR:   0.000 FEB:  -8.576
USER: RMSD 14.035405
USER: SEED 148
USER: STATUS no improvement in best in 2 clusters for 5 generations
USER: GENES 31
USER: genes 0 Translation |==|  0.73436 0.50590 0.44200
USER: genes 1 Rotation |==|  0.42382 0.05328 0.59739 0.68748
USER: genes 2 Torsion [C]-CA--CB-[CG] |==|  0.72829
USER: genes 3 Torsion [CA]-CB--CG-[CD] |==|  0.32728
USER: genes 4 Torsion [CB]-CG--CD-[NE] |==|  0.72231
USER: genes 5 Torsion [CG]-CD--NE-[CZ] |==|  0.30100
USER: genes 6 Torsion [N]-CA--C-[N] |==|  0.20718
USER: genes 7 Torsion [C]-N--CA-[CB] |==|  0.23797
USER: genes 8 Torsion [N]-CA--C-[N] |==|  0.40599
USER: genes 9 Torsion [C]-N--CA-[CB] |==|  0.24959
USER: genes 10 Torsion [N]-CA--CB-[CG2] |==|  0.45915
USER: genes 11 Torsion [N]-CA--C-[N] |==|  0.39195
USER: genes 12 Torsion [N]-CA--C-[O] |==|  0.34190
USER: genes 13 Torsion [C]-N--CA-[C] |==|  0.79770
USER: genes 14 Torsion [N]-CA--C-[O] |==|  0.37350
USER: genes 15 Torsion [N]-CA--CB-[SG] |==|  0.24295
USER: genes 16 Torsion [CA]-CB--SG-[HG] |==|  0.82758
USER: genes 17 Torsion [N]-CA--CB-[CG] |==|  0.21625
USER: genes 18 Torsion [CA]-CB--CG-[CD] |==|  0.73289
USER: genes 19 Torsion [CB]-CG--CD-[OE2] |==|  0.73671
USER: genes 20 Torsion [CB]-CA--N-[C] |==|  0.78329
USER: genes 21 Torsion [N]-C--CA-[N] |==|  0.82307
USER: genes 22 Torsion [C]-CA--N-[C] |==|  0.81981
USER: genes 23 Torsion [N]-C--CA-[N] |==|  0.12348
USER: genes 24 Torsion [C]-CA--CB-[CG] |==|  0.30054
USER: genes 25 Torsion [CA]-CB--CG-[CD] |==|  0.86630
USER: genes 26 Torsion [CB]-CG--CD-[OE1] |==|  0.72940
USER: genes 27 Torsion [C]-CA--N-[C] |==|  0.15617
USER: genes 28 Torsion [C]-CA--CB-[CG] |==|  0.44656
USER: genes 29 Torsion [CA]-CB--CG-[CD] |==|  0.86527
USER: genes 30 Torsion [CB]-CG--CD-[OE1] |==|  0.18227
ROOT
ATOM      1  CA  ARG B   3     -13.714  -8.030  15.032  0.80 33.15 LIG 0.18  C 
ENDROOT
BRANCH 1 2
ATOM      2  CB  ARG B   3     -12.647  -7.644  16.072  0.80 33.78 LIG 0.04  C 
BRANCH 2 3
ATOM      3  CG  ARG B   3     -11.652  -6.554  15.669  0.80 35.93 LIG 0.02  C 
BRANCH 3 4
ATOM      4  CD  ARG B   3     -11.734  -5.327  16.551  0.80 39.27 LIG 0.14  C 
BRANCH 4 5
ATOM      5  NE  ARG B   3     -12.504  -4.247  15.932  0.80 40.38 LIG-0.23  N 
ATOM      6  CZ  ARG B   3     -13.718  -3.865  16.328  0.80 40.37 LIG 0.67  C 
ATOM      7  NH1 ARG B   3     -14.305  -4.474  17.345  0.80 40.12 LIG-0.23  N 
ATOM      8  NH2 ARG B   3     -14.340  -2.865  15.712  0.80 41.10 LIG-0.23  N 
ATOM      9 2HH1 ARG B   3     -15.088  -4.227  17.601  0.80 40.12 LIG 0.17  HD
ATOM     10 1HH1 ARG B   3     -13.904  -5.118  17.752  0.80 40.12 LIG 0.17  HD
ATOM     11 2HH2 ARG B   3     -15.123  -2.622  15.970  0.80 41.10 LIG 0.17  HD
ATOM     12 1HH2 ARG B   3     -13.960  -2.462  15.054  0.80 41.10 LIG 0.17  HD
ATOM     13 HE   ARG B   3     -12.150  -3.831  15.268  0.80 40.38 LIG 0.18  HD
ENDBRANCH 4 5
ENDBRANCH 3 4
ENDBRANCH 2 3
ENDBRANCH 1 2
BRANCH 1 14
ATOM     14  C   ARG B   3     -15.030  -7.320  15.302  0.80 30.98 LIG 0.24  C 
ATOM     15 O    ARG B   3     -15.054  -6.321  16.016  0.80 30.41 LIG-0.27  OA
ATOM     16  N   GLU B   4     -16.101  -7.835  14.707  0.80 28.71 LIG-0.35  N 
ATOM     17 H    GLU B   4     -16.066  -8.465  14.122  0.80 28.71 LIG 0.16  HD
BRANCH 16 18
ATOM     18  CA  GLU B   4     -17.452  -7.368  15.000  0.80 27.21 LIG 0.18  C 
BRANCH 18 19
ATOM     19  C   GLU B   4     -18.429  -8.497  14.723  0.80 25.80 LIG 0.24  C 
ATOM     20 O    GLU B   4     -18.220  -9.320  13.813  0.80 26.39 LIG-0.27  OA
ATOM     21  N   VAL B   5     -19.486  -8.544  15.520  0.80 23.72 LIG-0.35  N 
ATOM     22 H    VAL B   5     -19.601  -8.016  16.189  0.80 23.72 LIG 0.16  HD
BRANCH 21 23
ATOM     23  CA  VAL B   5     -20.561  -9.504  15.334  0.80 22.93 LIG 0.18  C 
BRANCH 23 24
ATOM     24  CB  VAL B   5     -20.312 -10.809  16.100  0.80 23.26 LIG 0.01  C 
ATOM     25  CG2 VAL B   5     -21.598 -11.632  16.181  0.80 23.62 LIG 0.01  C 
ATOM     26  CG1 VAL B   5     -19.792 -10.510  17.486  0.80 24.46 LIG 0.01  C 
ENDBRANCH 23 24
BRANCH 23 27
ATOM     27  C   VAL B   5     -21.843  -8.843  15.834  0.80 21.40 LIG 0.24  C 
ATOM     28  N   PRO B   6     -22.959  -9.073  15.126  0.80 20.87 LIG-0.34  N 
ATOM     29  CD  PRO B   6     -23.141  -9.699  13.809  0.80 21.07 LIG 0.13  C 
ATOM     30  CA  PRO B   6     -24.211  -8.491  15.613  0.80 20.34 LIG 0.18  C 
ATOM     31  CG  PRO B   6     -24.470  -9.155  13.354  0.80 22.12 LIG 0.02  C 
ATOM     32  CB  PRO B   6     -25.242  -8.965  14.587  0.80 19.87 LIG 0.04  C 
ATOM     33 O    VAL B   5     -21.823  -8.135  16.847  0.80 20.67 LIG-0.27  OA
BRANCH 30 34
ATOM     34  C   PRO B   6     -24.561  -8.997  16.998  0.80 20.23 LIG 0.24  C 
ATOM     35 O    PRO B   6     -24.730  -8.181  17.927  0.80 20.62 LIG-0.27  OA
ATOM     36  N   CYS B   7     -24.694 -10.319  17.126  0.80 18.87 LIG-0.34  N 
ATOM     37 H    CYS B   7     -24.482 -10.882  16.511  0.80 18.87 LIG 0.16  HD
BRANCH 36 38
ATOM     38  CA  CYS B   7     -25.224 -10.934  18.355  0.80 19.21 LIG 0.19  C 
BRANCH 38 39
ATOM     39  C   CYS B   7     -24.221 -10.867  19.489  0.80 19.13 LIG 0.20  C 
ATOM     40 O    CYS B   7     -24.567 -10.515  20.630  0.80 18.45 LIG-0.65  OA
ATOM     41 OXT  CYS B   7     -23.055 -11.206  19.304  0.80 19.35 LIG-0.65  OA
ENDBRANCH 38 39
BRANCH 38 42
ATOM     42  CB  CYS B   7     -25.681 -12.368  18.097  0.80 19.02 LIG 0.11  C 
BRANCH 42 43
ATOM     43 SG   CYS B   7     -24.321 -13.545  18.297  0.80 21.06 LIG-0.18  SA
ATOM     44 HG   CYS B   7     -23.462 -13.307  17.493  0.80 21.06 LIG 0.10  HD
ENDBRANCH 42 43
ENDBRANCH 38 42
ENDBRANCH 36 38
ENDBRANCH 30 34
ENDBRANCH 23 27
ENDBRANCH 21 23
ENDBRANCH 18 19
BRANCH 18 45
ATOM     45  CB  GLU B   4     -17.828  -6.152  14.154  0.80 27.21 LIG 0.04  C 
BRANCH 45 46
ATOM     46  CG  GLU B   4     -18.209  -6.479  12.732  0.80 28.14 LIG 0.12  C 
BRANCH 46 47
ATOM     47  CD  GLU B   4     -17.064  -6.324  11.752  0.80 29.53 LIG 0.17  C 
ATOM     48 OE1  GLU B   4     -16.255  -7.265  11.574  0.80 28.59 LIG-0.65  OA
ATOM     49 OE2  GLU B   4     -16.977  -5.237  11.152  0.80 31.57 LIG-0.65  OA
ENDBRANCH 46 47
ENDBRANCH 45 46
ENDBRANCH 18 45
ENDBRANCH 16 18
ENDBRANCH 1 14
BRANCH 1 50
ATOM     50  N   ARG B   3     -13.277  -7.703  13.682  0.80 34.16 LIG-0.35  N 
ATOM     51  C   GLU B   2     -13.324  -6.456  13.221  0.80 36.27 LIG 0.24  C 
ATOM     52 O    GLU B   2     -13.808  -5.517  13.861  0.80 35.80 LIG-0.27  OA
ATOM     53 H    ARG B   3     -12.995  -8.375  13.226  0.80 34.16 LIG 0.16  HD
BRANCH 51 54
ATOM     54  CA  GLU B   2     -12.781  -6.244  11.810  0.80 37.72 LIG 0.18  C 
BRANCH 54 55
ATOM     55  N   GLU B   2     -11.353  -6.554  11.767  0.80 39.05 LIG-0.35  N 
ATOM     56  C   GLN B   1     -10.475  -5.826  12.452  0.80 40.84 LIG 0.24  C 
ATOM     57 O    GLN B   1     -10.804  -4.887  13.184  0.80 40.79 LIG-0.27  OA
ATOM     58 H    GLU B   2     -11.145  -7.228  11.275  0.80 39.05 LIG 0.16  HD
BRANCH 56 59
ATOM     59  CA  GLN B   1      -9.002  -6.201  12.295  0.80 42.15 LIG 0.18  C 
BRANCH 59 60
ATOM     60  CB  GLN B   1      -8.086  -5.101  12.841  0.80 42.68 LIG 0.04  C 
BRANCH 60 61
ATOM     61  CG  GLN B   1      -7.393  -5.494  14.153  0.80 43.94 LIG 0.10  C 
BRANCH 61 62
ATOM     62  CD  GLN B   1      -8.344  -6.078  15.180  0.80 46.27 LIG 0.21  C 
ATOM     63 OE1  GLN B   1      -8.815  -5.375  16.076  0.80 48.62 LIG-0.27  OA
ATOM     64  NE2 GLN B   1      -8.642  -7.370  15.050  0.80 47.40 LIG-0.37  N 
ATOM     65 22HE GLN B   1      -9.182  -7.745  15.604  0.80 47.40 LIG 0.16  HD
ATOM     66 21HE GLN B   1      -8.294  -7.829  14.411  0.80 47.40 LIG 0.16  HD
ENDBRANCH 61 62
ENDBRANCH 60 61
ENDBRANCH 59 60
BRANCH 59 67
ATOM     67  N   GLN B   1      -8.718  -6.433  10.882  0.80 42.89 LIG-0.35  N 
ATOM     68  C   ACE B   0      -8.956  -5.516   9.943  0.80 43.46 LIG 0.21  C 
ATOM     69  CH3 ACE B   0      -8.441  -5.871   8.577  0.80 43.70 LIG 0.12  C 
ATOM     70 O    ACE B   0      -9.288  -4.363  10.228  0.80 44.01 LIG-0.27  OA
ATOM     71 H    GLN B   1      -8.388  -7.209  10.714  0.80 42.89 LIG 0.16  HD
ENDBRANCH 59 67
ENDBRANCH 56 59
ENDBRANCH 54 55
BRANCH 54 72
ATOM     72  CB  GLU B   2     -13.579  -7.057  10.776  0.80 37.98 LIG 0.04  C 
BRANCH 72 73
ATOM     73  CG  GLU B   2     -13.456  -6.606   9.323  0.80 38.47 LIG 0.12  C 
BRANCH 73 74
ATOM     74  CD  GLU B   2     -13.658  -5.104   9.160  0.80 38.45 LIG 0.17  C 
ATOM     75 OE1  GLU B   2     -12.821  -4.332   9.670  0.80 41.05 LIG-0.65  OA
ATOM     76 OE2  GLU B   2     -14.639  -4.698   8.511  0.80 38.47 LIG-0.65  OA
ENDBRANCH 73 74
ENDBRANCH 72 73
ENDBRANCH 54 72
ENDBRANCH 51 54
ENDBRANCH 1 50
TORSDOF 29
ENDMDL
MODEL 13
USER: ADFR SOLUTION from run 8
USER: SCORE 20.353380 LL:  -6.318 LR: -17.196 RR:   0.000 FEB:  -8.545
USER: RMSD 13.714685
USER: SEED 682693
USER: STATUS 1 or 2 clusters left
USER: GENES 31
USER: genes 0 Translation |==|  0.68923 0.62184 0.46575
USER: genes 1 Rotation |==|  0.49299 0.16392 0.86869 0.53267
USER: genes 2 Torsion [C]-CA--CB-[CG] |==|  0.44684
USER: genes 3 Torsion [CA]-CB--CG-[CD] |==|  0.89542
USER: genes 4 Torsion [CB]-CG--CD-[NE] |==|  0.20190
USER: genes 5 Torsion [CG]-CD--NE-[CZ] |==|  0.22210
USER: genes 6 Torsion [N]-CA--C-[N] |==|  0.74162
USER: genes 7 Torsion [C]-N--CA-[CB] |==|  0.55820
USER: genes 8 Torsion [N]-CA--C-[N] |==|  0.38997
USER: genes 9 Torsion [C]-N--CA-[CB] |==|  0.22316
USER: genes 10 Torsion [N]-CA--CB-[CG2] |==|  0.37862
USER: genes 11 Torsion [N]-CA--C-[N] |==|  0.87602
USER: genes 12 Torsion [N]-CA--C-[O] |==|  0.28144
USER: genes 13 Torsion [C]-N--CA-[C] |==|  0.62419
USER: genes 14 Torsion [N]-CA--C-[O] |==|  0.05773
USER: genes 15 Torsion [N]-CA--CB-[SG] |==|  0.03577
USER: genes 16 Torsion [CA]-CB--SG-[HG] |==|  0.23441
USER: genes 17 Torsion [N]-CA--CB-[CG] |==|  0.23477
USER: genes 18 Torsion [CA]-CB--CG-[CD] |==|  0.74509
USER: genes 19 Torsion [CB]-CG--CD-[OE2] |==|  0.21868
USER: genes 20 Torsion [CB]-CA--N-[C] |==|  0.37200
USER: genes 21 Torsion [N]-C--CA-[N] |==|  0.25794
USER: genes 22 Torsion [C]-CA--N-[C] |==|  0.77934
USER: genes 23 Torsion [N]-C--CA-[N] |==|  0.00002
USER: genes 24 Torsion [C]-CA--CB-[CG] |==|  0.50745
USER: genes 25 Torsion [CA]-CB--CG-[CD] |==|  0.81614
USER: genes 26 Torsion [CB]-CG--CD-[OE1] |==|  0.95847
USER: genes 27 Torsion [C]-CA--N-[C] |==|  0.70106
USER: genes 28 Torsion [C]-CA--CB-[CG] |==|  0.15425
USER: genes 29 Torsion [CA]-CB--CG-[CD] |==|  0.69671
USER: genes 30 Torsion [CB]-CG--CD-[OE1] |==|  0.99993
ROOT
ATOM      1  CA  ARG B   3     -15.135  -5.943  15.460  0.80 33.15 LIG 0.18  C 
ENDROOT
BRANCH 1 2
ATOM      2  CB  ARG B   3     -15.046  -4.412  15.325  0.80 33.78 LIG 0.04  C 
BRANCH 2 3
ATOM      3  CG  ARG B   3     -13.804  -3.739  15.913  0.80 35.93 LIG 0.02  C 
BRANCH 3 4
ATOM      4  CD  ARG B   3     -13.346  -4.376  17.206  0.80 39.27 LIG 0.14  C 
BRANCH 4 5
ATOM      5  NE  ARG B   3     -12.727  -5.685  16.994  0.80 40.38 LIG-0.23  N 
ATOM      6  CZ  ARG B   3     -11.471  -5.866  16.588  0.80 40.37 LIG 0.67  C 
ATOM      7  NH1 ARG B   3     -10.694  -4.822  16.349  0.80 40.12 LIG-0.23  N 
ATOM      8  NH2 ARG B   3     -10.988  -7.095  16.431  0.80 41.10 LIG-0.23  N 
ATOM      9 2HH1 ARG B   3      -9.883  -4.940  16.087  0.80 40.12 LIG 0.17  HD
ATOM     10 1HH1 ARG B   3     -11.000  -4.025  16.456  0.80 40.12 LIG 0.17  HD
ATOM     11 2HH2 ARG B   3     -10.177  -7.208  16.169  0.80 41.10 LIG 0.17  HD
ATOM     12 1HH2 ARG B   3     -11.487  -7.777  16.592  0.80 41.10 LIG 0.17  HD
ATOM     13 HE   ARG B   3     -13.206  -6.384  17.142  0.80 40.38 LIG 0.18  HD
ENDBRANCH 4 5
ENDBRANCH 3 4
ENDBRANCH 2 3
ENDBRANCH 1 2
BRANCH 1 14
ATOM     14  C   ARG B   3     -16.563  -6.430  15.280  0.80 30.98 LIG 0.24  C 
ATOM     15 O    ARG B   3     -16.949  -7.435  15.872  0.80 30.41 LIG-0.27  OA
ATOM     16  N   GLU B   4     -17.332  -5.696  14.481  0.80 28.71 LIG-0.35  N 
ATOM     17 H    GLU B   4     -17.094  -4.936  14.157  0.80 28.71 LIG 0.16  HD
BRANCH 16 18
ATOM     18  CA  GLU B   4     -18.669  -6.124  14.081  0.80 27.21 LIG 0.18  C 
BRANCH 18 19
ATOM     19  C   GLU B   4     -18.648  -7.624  13.844  0.80 25.80 LIG 0.24  C 
ATOM     20 O    GLU B   4     -17.673  -8.177  13.302  0.80 26.39 LIG-0.27  OA
ATOM     21  N   VAL B   5     -19.717  -8.282  14.269  0.80 23.72 LIG-0.35  N 
ATOM     22 H    VAL B   5     -20.362  -7.912  14.701  0.80 23.72 LIG 0.16  HD
BRANCH 21 23
ATOM     23  CA  VAL B   5     -19.899  -9.706  14.040  0.80 22.93 LIG 0.18  C 
BRANCH 23 24
ATOM     24  CB  VAL B   5     -19.113 -10.559  15.042  0.80 23.26 LIG 0.01  C 
ATOM     25  CG2 VAL B   5     -19.975 -11.715  15.549  0.80 23.62 LIG 0.01  C 
ATOM     26  CG1 VAL B   5     -18.644  -9.708  16.199  0.80 24.46 LIG 0.01  C 
ENDBRANCH 23 24
BRANCH 23 27
ATOM     27  C   VAL B   5     -21.392  -9.993  14.169  0.80 21.40 LIG 0.24  C 
ATOM     28  N   PRO B   6     -22.030  -9.428  15.206  0.80 20.87 LIG-0.34  N 
ATOM     29  CD  PRO B   6     -21.502  -8.727  16.384  0.80 21.07 LIG 0.13  C 
ATOM     30  CA  PRO B   6     -23.473  -9.647  15.323  0.80 20.34 LIG 0.18  C 
ATOM     31  CG  PRO B   6     -22.619  -8.853  17.385  0.80 22.12 LIG 0.02  C 
ATOM     32  CB  PRO B   6     -23.847  -8.862  16.581  0.80 19.87 LIG 0.04  C 
ATOM     33 O    VAL B   5     -21.960 -10.715  13.342  0.80 20.67 LIG-0.27  OA
BRANCH 30 34
ATOM     34  C   PRO B   6     -24.220  -9.115  14.116  0.80 20.23 LIG 0.24  C 
ATOM     35 O    PRO B   6     -24.603  -9.907  13.231  0.80 20.62 LIG-0.27  OA
ATOM     36  N   CYS B   7     -24.445  -7.800  14.097  0.80 18.87 LIG-0.34  N 
ATOM     37 H    CYS B   7     -24.097  -7.248  14.656  0.80 18.87 LIG 0.16  HD
BRANCH 36 38
ATOM     38  CA  CYS B   7     -25.326  -7.175  13.096  0.80 19.21 LIG 0.19  C 
BRANCH 38 39
ATOM     39  C   CYS B   7     -24.709  -5.916  12.519  0.80 19.13 LIG 0.20  C 
ATOM     40 O    CYS B   7     -23.483  -5.717  12.582  0.80 18.45 LIG-0.65  OA
ATOM     41 OXT  CYS B   7     -25.412  -5.094  11.938  0.80 19.35 LIG-0.65  OA
ENDBRANCH 38 39
BRANCH 38 42
ATOM     42  CB  CYS B   7     -26.711  -6.902  13.677  0.80 19.02 LIG 0.11  C 
BRANCH 42 43
ATOM     43 SG   CYS B   7     -26.722  -7.079  15.479  0.80 21.06 LIG-0.18  SA
ATOM     44 HG   CYS B   7     -26.357  -6.053  15.984  0.80 21.06 LIG 0.10  HD
ENDBRANCH 42 43
ENDBRANCH 38 42
ENDBRANCH 36 38
ENDBRANCH 30 34
ENDBRANCH 23 27
ENDBRANCH 21 23
ENDBRANCH 18 19
BRANCH 18 45
ATOM     45  CB  GLU B   4     -19.134  -5.417  12.810  0.80 27.21 LIG 0.04  C 
BRANCH 45 46
ATOM     46  CG  GLU B   4     -18.663  -6.063  11.531  0.80 28.14 LIG 0.12  C 
BRANCH 46 47
ATOM     47  CD  GLU B   4     -17.352  -5.498  11.020  0.80 29.53 LIG 0.17  C 
ATOM     48 OE1  GLU B   4     -17.346  -4.669  10.081  0.80 28.59 LIG-0.65  OA
ATOM     49 OE2  GLU B   4     -16.312  -5.896  11.576  0.80 31.57 LIG-0.65  OA
ENDBRANCH 46 47
ENDBRANCH 45 46
ENDBRANCH 18 45
ENDBRANCH 16 18
ENDBRANCH 1 14
BRANCH 1 50
ATOM     50  N   ARG B   3     -14.289  -6.609  14.480  0.80 34.16 LIG-0.35  N 
ATOM     51  C   GLU B   2     -13.491  -7.616  14.822  0.80 36.27 LIG 0.24  C 
ATOM     52 O    GLU B   2     -13.349  -7.998  15.989  0.80 35.80 LIG-0.27  OA
ATOM     53 H    ARG B   3     -14.354  -6.296  13.681  0.80 34.16 LIG 0.16  HD
BRANCH 51 54
ATOM     54  CA  GLU B   2     -12.702  -8.262  13.686  0.80 37.72 LIG 0.18  C 
BRANCH 54 55
ATOM     55  N   GLU B   2     -11.388  -7.634  13.565  0.80 39.05 LIG-0.35  N 
ATOM     56  C   GLN B   1     -11.243  -6.464  12.948  0.80 40.84 LIG 0.24  C 
ATOM     57 O    GLN B   1     -12.193  -5.826  12.483  0.80 40.79 LIG-0.27  OA
ATOM     58 H    GLU B   2     -10.742  -8.078  13.920  0.80 39.05 LIG 0.16  HD
BRANCH 56 59
ATOM     59  CA  GLN B   1      -9.819  -5.922  12.830  0.80 42.15 LIG 0.18  C 
BRANCH 59 60
ATOM     60  CB  GLN B   1      -9.428  -5.699  11.365  0.80 42.68 LIG 0.04  C 
BRANCH 60 61
ATOM     61  CG  GLN B   1      -7.981  -5.216  11.198  0.80 43.94 LIG 0.10  C 
BRANCH 61 62
ATOM     62  CD  GLN B   1      -7.742  -3.832  11.769  0.80 46.27 LIG 0.21  C 
ATOM     63 OE1  GLN B   1      -8.687  -3.095  12.053  0.80 48.62 LIG-0.27  OA
ATOM     64  NE2 GLN B   1      -6.471  -3.474  11.951  0.80 47.40 LIG-0.37  N 
ATOM     65 22HE GLN B   1      -6.286  -2.700  12.279  0.80 47.40 LIG 0.16  HD
ATOM     66 21HE GLN B   1      -5.837  -4.016  11.741  0.80 47.40 LIG 0.16  HD
ENDBRANCH 61 62
ENDBRANCH 60 61
ENDBRANCH 59 60
BRANCH 59 67
ATOM     67  N   GLN B   1      -8.897  -6.866  13.456  0.80 42.89 LIG-0.35  N 
ATOM     68  C   ACE B   0      -8.299  -6.618  14.621  0.80 43.46 LIG 0.21  C 
ATOM     69  CH3 ACE B   0      -7.525  -7.775  15.186  0.80 43.70 LIG 0.12  C 
ATOM     70 O    ACE B   0      -8.602  -5.644  15.315  0.80 44.01 LIG-0.27  OA
ATOM     71 H    GLN B   1      -8.779  -7.589  13.006  0.80 42.89 LIG 0.16  HD
ENDBRANCH 59 67
ENDBRANCH 56 59
ENDBRANCH 54 55
BRANCH 54 72
ATOM     72  CB  GLU B   2     -12.599  -9.785  13.873  0.80 37.98 LIG 0.04  C 
BRANCH 72 73
ATOM     73  CG  GLU B   2     -13.918 -10.537  14.025  0.80 38.47 LIG 0.12  C 
BRANCH 73 74
ATOM     74  CD  GLU B   2     -14.132 -11.058  15.441  0.80 38.45 LIG 0.17  C 
ATOM     75 OE1  GLU B   2     -13.254 -10.831  16.298  0.80 41.05 LIG-0.65  OA
ATOM     76 OE2  GLU B   2     -15.181 -11.676  15.700  0.80 38.47 LIG-0.65  OA
ENDBRANCH 73 74
ENDBRANCH 72 73
ENDBRANCH 54 72
ENDBRANCH 51 54
ENDBRANCH 1 50
TORSDOF 29
ENDMDL
MODEL 14
USER: ADFR SOLUTION from run 149
USER: SCORE 20.073697 LL:  -6.100 LR: -17.166 RR:   0.000 FEB:  -8.515
USER: RMSD 14.458150
USER: SEED 148
USER: STATUS no improvement in best in 2 clusters for 5 generations
USER: GENES 31
USER: genes 0 Translation |==|  0.73469 0.51377 0.46434
USER: genes 1 Rotation |==|  0.40791 0.05676 0.66352 0.63536
USER: genes 2 Torsion [C]-CA--CB-[CG] |==|  0.69760
USER: genes 3 Torsion [CA]-CB--CG-[CD] |==|  0.36523
USER: genes 4 Torsion [CB]-CG--CD-[NE] |==|  0.78527
USER: genes 5 Torsion [CG]-CD--NE-[CZ] |==|  0.27000
USER: genes 6 Torsion [N]-CA--C-[N] |==|  0.20571
USER: genes 7 Torsion [C]-N--CA-[CB] |==|  0.27116
USER: genes 8 Torsion [N]-CA--C-[N] |==|  0.38449
USER: genes 9 Torsion [C]-N--CA-[CB] |==|  0.25477
USER: genes 10 Torsion [N]-CA--CB-[CG2] |==|  0.35444
USER: genes 11 Torsion [N]-CA--C-[N] |==|  0.36265
USER: genes 12 Torsion [N]-CA--C-[O] |==|  0.29834
USER: genes 13 Torsion [C]-N--CA-[C] |==|  0.74979
USER: genes 14 Torsion [N]-CA--C-[O] |==|  0.34890
USER: genes 15 Torsion [N]-CA--CB-[SG] |==|  0.63851
USER: genes 16 Torsion [CA]-CB--SG-[HG] |==|  0.86271
USER: genes 17 Torsion [N]-CA--CB-[CG] |==|  0.03810
USER: genes 18 Torsion [CA]-CB--CG-[CD] |==|  0.60991
USER: genes 19 Torsion [CB]-CG--CD-[OE2] |==|  0.97476
USER: genes 20 Torsion [CB]-CA--N-[C] |==|  0.77875
USER: genes 21 Torsion [N]-C--CA-[N] |==|  0.76960
USER: genes 22 Torsion [C]-CA--N-[C] |==|  0.72372
USER: genes 23 Torsion [N]-C--CA-[N] |==|  0.95317
USER: genes 24 Torsion [C]-CA--CB-[CG] |==|  0.28438
USER: genes 25 Torsion [CA]-CB--CG-[CD] |==|  0.19858
USER: genes 26 Torsion [CB]-CG--CD-[OE1] |==|  0.31869
USER: genes 27 Torsion [C]-CA--N-[C] |==|  0.75592
USER: genes 28 Torsion [C]-CA--CB-[CG] |==|  0.77440
USER: genes 29 Torsion [CA]-CB--CG-[CD] |==|  0.76101
USER: genes 30 Torsion [CB]-CG--CD-[OE1] |==|  0.24427
ROOT
ATOM      1  CA  ARG B   3     -13.703  -7.888  15.434  0.80 33.15 LIG 0.18  C 
ENDROOT
BRANCH 1 2
ATOM      2  CB  ARG B   3     -12.844  -7.116  16.451  0.80 33.78 LIG 0.04  C 
BRANCH 2 3
ATOM      3  CG  ARG B   3     -11.687  -6.287  15.888  0.80 35.93 LIG 0.02  C 
BRANCH 3 4
ATOM      4  CD  ARG B   3     -11.652  -4.878  16.437  0.80 39.27 LIG 0.14  C 
BRANCH 4 5
ATOM      5  NE  ARG B   3     -12.653  -4.012  15.813  0.80 40.38 LIG-0.23  N 
ATOM      6  CZ  ARG B   3     -13.848  -3.742  16.338  0.80 40.37 LIG 0.67  C 
ATOM      7  NH1 ARG B   3     -14.196  -4.270  17.500  0.80 40.12 LIG-0.23  N 
ATOM      8  NH2 ARG B   3     -14.691  -2.934  15.703  0.80 41.10 LIG-0.23  N 
ATOM      9 2HH1 ARG B   3     -14.967  -4.095  17.838  0.80 40.12 LIG 0.17  HD
ATOM     10 1HH1 ARG B   3     -13.650  -4.788  17.918  0.80 40.12 LIG 0.17  HD
ATOM     11 2HH2 ARG B   3     -15.461  -2.762  16.045  0.80 41.10 LIG 0.17  HD
ATOM     12 1HH2 ARG B   3     -14.467  -2.583  14.951  0.80 41.10 LIG 0.17  HD
ATOM     13 HE   ARG B   3     -12.457  -3.652  15.056  0.80 40.38 LIG 0.18  HD
ENDBRANCH 4 5
ENDBRANCH 3 4
ENDBRANCH 2 3
ENDBRANCH 1 2
BRANCH 1 14
ATOM     14  C   ARG B   3     -15.084  -7.269  15.296  0.80 30.98 LIG 0.24  C 
ATOM     15 O    ARG B   3     -15.284  -6.120  15.680  0.80 30.41 LIG-0.27  OA
ATOM     16  N   GLU B   4     -16.011  -8.035  14.727  0.80 28.71 LIG-0.35  N 
ATOM     17 H    GLU B   4     -15.843  -8.794  14.361  0.80 28.71 LIG 0.16  HD
BRANCH 16 18
ATOM     18  CA  GLU B   4     -17.416  -7.645  14.676  0.80 27.21 LIG 0.18  C 
BRANCH 18 19
ATOM     19  C   GLU B   4     -18.272  -8.879  14.898  0.80 25.80 LIG 0.24  C 
ATOM     20 O    GLU B   4     -17.976  -9.970  14.377  0.80 26.39 LIG-0.27  OA
ATOM     21  N   VAL B   5     -19.324  -8.708  15.686  0.80 23.72 LIG-0.35  N 
ATOM     22 H    VAL B   5     -19.494  -7.973  16.098  0.80 23.72 LIG 0.16  HD
BRANCH 21 23
ATOM     23  CA  VAL B   5     -20.295  -9.761  15.929  0.80 22.93 LIG 0.18  C 
BRANCH 23 24
ATOM     24  CB  VAL B   5     -19.944 -10.601  17.163  0.80 23.26 LIG 0.01  C 
ATOM     25  CG2 VAL B   5     -21.138 -10.674  18.114  0.80 23.62 LIG 0.01  C 
ATOM     26  CG1 VAL B   5     -18.745 -10.014  17.870  0.80 24.46 LIG 0.01  C 
ENDBRANCH 23 24
BRANCH 23 27
ATOM     27  C   VAL B   5     -21.648  -9.084  16.127  0.80 21.40 LIG 0.24  C 
ATOM     28  N   PRO B   6     -22.678  -9.570  15.417  0.80 20.87 LIG-0.34  N 
ATOM     29  CD  PRO B   6     -22.702 -10.530  14.305  0.80 21.07 LIG 0.13  C 
ATOM     30  CA  PRO B   6     -23.997  -8.970  15.627  0.80 20.34 LIG 0.18  C 
ATOM     31  CG  PRO B   6     -24.003 -10.219  13.614  0.80 22.12 LIG 0.02  C 
ATOM     32  CB  PRO B   6     -24.900  -9.767  14.684  0.80 19.87 LIG 0.04  C 
ATOM     33 O    VAL B   5     -21.761  -8.136  16.912  0.80 20.67 LIG-0.27  OA
BRANCH 30 34
ATOM     34  C   PRO B   6     -24.458  -9.119  17.063  0.80 20.23 LIG 0.24  C 
ATOM     35 O    PRO B   6     -24.472  -8.121  17.812  0.80 20.62 LIG-0.27  OA
ATOM     36  N   CYS B   7     -24.852 -10.339  17.431  0.80 18.87 LIG-0.34  N 
ATOM     37 H    CYS B   7     -24.749 -11.041  16.945  0.80 18.87 LIG 0.16  HD
BRANCH 36 38
ATOM     38  CA  CYS B   7     -25.508 -10.589  18.726  0.80 19.21 LIG 0.19  C 
BRANCH 38 39
ATOM     39  C   CYS B   7     -24.499 -10.913  19.809  0.80 19.13 LIG 0.20  C 
ATOM     40 O    CYS B   7     -24.471 -10.269  20.872  0.80 18.45 LIG-0.65  OA
ATOM     41 OXT  CYS B   7     -23.722 -11.853  19.668  0.80 19.35 LIG-0.65  OA
ENDBRANCH 38 39
BRANCH 38 42
ATOM     42  CB  CYS B   7     -26.566 -11.683  18.603  0.80 19.02 LIG 0.11  C 
BRANCH 42 43
ATOM     43 SG   CYS B   7     -28.143 -11.168  19.327  0.80 21.06 LIG-0.18  SA
ATOM     44 HG   CYS B   7     -27.954 -10.726  20.426  0.80 21.06 LIG 0.10  HD
ENDBRANCH 42 43
ENDBRANCH 38 42
ENDBRANCH 36 38
ENDBRANCH 30 34
ENDBRANCH 23 27
ENDBRANCH 21 23
ENDBRANCH 18 19
BRANCH 18 45
ATOM     45  CB  GLU B   4     -17.780  -7.009  13.335  0.80 27.21 LIG 0.04  C 
BRANCH 45 46
ATOM     46  CG  GLU B   4     -16.747  -7.206  12.253  0.80 28.14 LIG 0.12  C 
BRANCH 46 47
ATOM     47  CD  GLU B   4     -16.546  -5.982  11.384  0.80 29.53 LIG 0.17  C 
ATOM     48 OE1  GLU B   4     -15.605  -5.943  10.558  0.80 28.59 LIG-0.65  OA
ATOM     49 OE2  GLU B   4     -17.350  -5.043  11.535  0.80 31.57 LIG-0.65  OA
ENDBRANCH 46 47
ENDBRANCH 45 46
ENDBRANCH 18 45
ENDBRANCH 16 18
ENDBRANCH 1 14
BRANCH 1 50
ATOM     50  N   ARG B   3     -13.072  -7.915  14.122  0.80 34.16 LIG-0.35  N 
ATOM     51  C   GLU B   2     -13.141  -6.875  13.297  0.80 36.27 LIG 0.24  C 
ATOM     52 O    GLU B   2     -13.802  -5.860  13.544  0.80 35.80 LIG-0.27  OA
ATOM     53 H    ARG B   3     -12.663  -8.649  13.939  0.80 34.16 LIG 0.16  HD
BRANCH 51 54
ATOM     54  CA  GLU B   2     -12.386  -7.015  11.978  0.80 37.72 LIG 0.18  C 
BRANCH 54 55
ATOM     55  N   GLU B   2     -10.976  -6.682  12.167  0.80 39.05 LIG-0.35  N 
ATOM     56  C   GLN B   1     -10.505  -5.483  11.833  0.80 40.84 LIG 0.24  C 
ATOM     57 O    GLN B   1     -11.220  -4.580  11.389  0.80 40.79 LIG-0.27  OA
ATOM     58 H    GLU B   2     -10.499  -7.314  12.503  0.80 39.05 LIG 0.16  HD
BRANCH 56 59
ATOM     59  CA  GLN B   1      -9.005  -5.258  12.021  0.80 42.15 LIG 0.18  C 
BRANCH 59 60
ATOM     60  CB  GLN B   1      -8.265  -5.286  10.680  0.80 42.68 LIG 0.04  C 
BRANCH 60 61
ATOM     61  CG  GLN B   1      -7.901  -3.886  10.167  0.80 43.94 LIG 0.10  C 
BRANCH 61 62
ATOM     62  CD  GLN B   1      -6.792  -3.226  10.963  0.80 46.27 LIG 0.21  C 
ATOM     63 OE1  GLN B   1      -5.702  -2.981  10.444  0.80 48.62 LIG-0.27  OA
ATOM     64  NE2 GLN B   1      -7.067  -2.925  12.232  0.80 47.40 LIG-0.37  N 
ATOM     65 22HE GLN B   1      -6.472  -2.544  12.722  0.80 47.40 LIG 0.16  HD
ATOM     66 21HE GLN B   1      -7.840  -3.112  12.560  0.80 47.40 LIG 0.16  HD
ENDBRANCH 61 62
ENDBRANCH 60 61
ENDBRANCH 59 60
BRANCH 59 67
ATOM     67  N   GLN B   1      -8.477  -6.293  12.906  0.80 42.89 LIG-0.35  N 
ATOM     68  C   ACE B   0      -8.465  -6.164  14.233  0.80 43.46 LIG 0.21  C 
ATOM     69  CH3 ACE B   0      -8.043  -7.399  14.978  0.80 43.70 LIG 0.12  C 
ATOM     70 O    ACE B   0      -9.036  -5.231  14.802  0.80 44.01 LIG-0.27  OA
ATOM     71 H    GLN B   1      -8.176  -6.985  12.494  0.80 42.89 LIG 0.16  HD
ENDBRANCH 59 67
ENDBRANCH 56 59
ENDBRANCH 54 55
BRANCH 54 72
ATOM     72  CB  GLU B   2     -12.573  -8.417  11.373  0.80 37.98 LIG 0.04  C 
BRANCH 72 73
ATOM     73  CG  GLU B   2     -11.684  -9.520  11.940  0.80 38.47 LIG 0.12  C 
BRANCH 73 74
ATOM     74  CD  GLU B   2     -10.328  -9.589  11.248  0.80 38.45 LIG 0.17  C 
ATOM     75 OE1  GLU B   2      -9.399  -8.880  11.686  0.80 41.05 LIG-0.65  OA
ATOM     76 OE2  GLU B   2     -10.187 -10.360  10.281  0.80 38.47 LIG-0.65  OA
ENDBRANCH 73 74
ENDBRANCH 72 73
ENDBRANCH 54 72
ENDBRANCH 51 54
ENDBRANCH 1 50
TORSDOF 29
ENDMDL
MODEL 15
USER: ADFR SOLUTION from run 181
USER: SCORE 19.338353 LL:  -5.297 LR: -17.173 RR:   0.000 FEB:  -8.522
USER: RMSD 13.270186
USER: SEED 180
USER: STATUS no improvement in best in 4 clusters for 5 generations
USER: GENES 31
USER: genes 0 Translation |==|  0.76532 0.54914 0.48340
USER: genes 1 Rotation |==|  0.40312 0.12707 0.77375 0.66309
USER: genes 2 Torsion [C]-CA--CB-[CG] |==|  0.69247
USER: genes 3 Torsion [CA]-CB--CG-[CD] |==|  0.64639
USER: genes 4 Torsion [CB]-CG--CD-[NE] |==|  0.24232
USER: genes 5 Torsion [CG]-CD--NE-[CZ] |==|  0.32165
USER: genes 6 Torsion [N]-CA--C-[N] |==|  0.13368
USER: genes 7 Torsion [C]-N--CA-[CB] |==|  0.21544
USER: genes 8 Torsion [N]-CA--C-[N] |==|  0.43455
USER: genes 9 Torsion [C]-N--CA-[CB] |==|  0.23528
USER: genes 10 Torsion [N]-CA--CB-[CG2] |==|  0.16417
USER: genes 11 Torsion [N]-CA--C-[N] |==|  0.46351
USER: genes 12 Torsion [N]-CA--C-[O] |==|  0.24513
USER: genes 13 Torsion [C]-N--CA-[C] |==|  0.62442
USER: genes 14 Torsion [N]-CA--C-[O] |==|  0.51039
USER: genes 15 Torsion [N]-CA--CB-[SG] |==|  0.91518
USER: genes 16 Torsion [CA]-CB--SG-[HG] |==|  0.54752
USER: genes 17 Torsion [N]-CA--CB-[CG] |==|  0.15558
USER: genes 18 Torsion [CA]-CB--CG-[CD] |==|  0.42739
USER: genes 19 Torsion [CB]-CG--CD-[OE2] |==|  0.26806
USER: genes 20 Torsion [CB]-CA--N-[C] |==|  0.78981
USER: genes 21 Torsion [N]-C--CA-[N] |==|  0.15348
USER: genes 22 Torsion [C]-CA--N-[C] |==|  0.62993
USER: genes 23 Torsion [N]-C--CA-[N] |==|  0.40305
USER: genes 24 Torsion [C]-CA--CB-[CG] |==|  0.09730
USER: genes 25 Torsion [CA]-CB--CG-[CD] |==|  0.21576
USER: genes 26 Torsion [CB]-CG--CD-[OE1] |==|  0.46484
USER: genes 27 Torsion [C]-CA--N-[C] |==|  0.59684
USER: genes 28 Torsion [C]-CA--CB-[CG] |==|  0.17530
USER: genes 29 Torsion [CA]-CB--CG-[CD] |==|  0.59694
USER: genes 30 Torsion [CB]-CG--CD-[OE1] |==|  0.97079
ROOT
ATOM      1  CA  ARG B   3     -12.739  -7.251  15.777  0.80 33.15 LIG 0.18  C 
ENDROOT
BRANCH 1 2
ATOM      2  CB  ARG B   3     -11.720  -6.142  16.095  0.80 33.78 LIG 0.04  C 
BRANCH 2 3
ATOM      3  CG  ARG B   3     -10.764  -5.740  14.970  0.80 35.93 LIG 0.02  C 
BRANCH 3 4
ATOM      4  CD  ARG B   3      -9.312  -5.780  15.390  0.80 39.27 LIG 0.14  C 
BRANCH 4 5
ATOM      5  NE  ARG B   3      -8.716  -7.105  15.210  0.80 40.38 LIG-0.23  N 
ATOM      6  CZ  ARG B   3      -7.720  -7.374  14.367  0.80 40.37 LIG 0.67  C 
ATOM      7  NH1 ARG B   3      -7.203  -6.410  13.622  0.80 40.12 LIG-0.23  N 
ATOM      8  NH2 ARG B   3      -7.234  -8.608  14.277  0.80 41.10 LIG-0.23  N 
ATOM      9 2HH1 ARG B   3      -6.560  -6.585  13.078  0.80 40.12 LIG 0.17  HD
ATOM     10 1HH1 ARG B   3      -7.510  -5.608  13.682  0.80 40.12 LIG 0.17  HD
ATOM     11 2HH2 ARG B   3      -6.591  -8.778  13.732  0.80 41.10 LIG 0.17  HD
ATOM     12 1HH2 ARG B   3      -7.562  -9.236  14.764  0.80 41.10 LIG 0.17  HD
ATOM     13 HE   ARG B   3      -9.029  -7.753  15.681  0.80 40.38 LIG 0.18  HD
ENDBRANCH 4 5
ENDBRANCH 3 4
ENDBRANCH 2 3
ENDBRANCH 1 2
BRANCH 1 14
ATOM     14  C   ARG B   3     -14.154  -6.701  15.717  0.80 30.98 LIG 0.24  C 
ATOM     15 O    ARG B   3     -14.377  -5.541  16.053  0.80 30.41 LIG-0.27  OA
ATOM     16  N   GLU B   4     -15.084  -7.537  15.267  0.80 28.71 LIG-0.35  N 
ATOM     17 H    GLU B   4     -14.909  -8.309  14.930  0.80 28.71 LIG 0.16  HD
BRANCH 16 18
ATOM     18  CA  GLU B   4     -16.506  -7.211  15.308  0.80 27.21 LIG 0.18  C 
BRANCH 18 19
ATOM     19  C   GLU B   4     -17.304  -8.495  15.165  0.80 25.80 LIG 0.24  C 
ATOM     20 O    GLU B   4     -16.807  -9.507  14.636  0.80 26.39 LIG-0.27  OA
ATOM     21  N   VAL B   5     -18.535  -8.458  15.653  0.80 23.72 LIG-0.35  N 
ATOM     22 H    VAL B   5     -18.858  -7.782  16.076  0.80 23.72 LIG 0.16  HD
BRANCH 21 23
ATOM     23  CA  VAL B   5     -19.463  -9.568  15.518  0.80 22.93 LIG 0.18  C 
BRANCH 23 24
ATOM     24  CB  VAL B   5     -19.274 -10.619  16.618  0.80 23.26 LIG 0.01  C 
ATOM     25  CG2 VAL B   5     -19.477  -9.990  17.996  0.80 23.62 LIG 0.01  C 
ATOM     26  CG1 VAL B   5     -17.898 -11.236  16.521  0.80 24.46 LIG 0.01  C 
ENDBRANCH 23 24
BRANCH 23 27
ATOM     27  C   VAL B   5     -20.871  -8.987  15.589  0.80 21.40 LIG 0.24  C 
ATOM     28  N   PRO B   6     -21.878  -9.792  15.217  0.80 20.87 LIG-0.34  N 
ATOM     29  CD  PRO B   6     -21.857 -11.098  14.545  0.80 21.07 LIG 0.13  C 
ATOM     30  CA  PRO B   6     -23.244  -9.273  15.324  0.80 20.34 LIG 0.18  C 
ATOM     31  CG  PRO B   6     -23.226 -11.185  13.924  0.80 22.12 LIG 0.02  C 
ATOM     32  CB  PRO B   6     -24.102 -10.442  14.837  0.80 19.87 LIG 0.04  C 
ATOM     33 O    VAL B   5     -21.046  -7.826  15.977  0.80 20.67 LIG-0.27  OA
BRANCH 30 34
ATOM     34  C   PRO B   6     -23.593  -8.908  16.752  0.80 20.23 LIG 0.24  C 
ATOM     35 O    PRO B   6     -23.336  -7.763  17.176  0.80 20.62 LIG-0.27  OA
ATOM     36  N   CYS B   7     -24.194  -9.859  17.472  0.80 18.87 LIG-0.34  N 
ATOM     37 H    CYS B   7     -24.280 -10.673  17.210  0.80 18.87 LIG 0.16  HD
BRANCH 36 38
ATOM     38  CA  CYS B   7     -24.768  -9.585  18.800  0.80 19.21 LIG 0.19  C 
BRANCH 38 39
ATOM     39  C   CYS B   7     -24.404 -10.665  19.799  0.80 19.13 LIG 0.20  C 
ATOM     40 O    CYS B   7     -24.854 -10.645  20.957  0.80 18.45 LIG-0.65  OA
ATOM     41 OXT  CYS B   7     -23.691 -11.606  19.458  0.80 19.35 LIG-0.65  OA
ENDBRANCH 38 39
BRANCH 38 42
ATOM     42  CB  CYS B   7     -26.280  -9.390  18.715  0.80 19.02 LIG 0.11  C 
BRANCH 42 43
ATOM     43 SG   CYS B   7     -26.770  -8.684  17.122  0.80 21.06 LIG-0.18  SA
ATOM     44 HG   CYS B   7     -27.882  -8.239  17.205  0.80 21.06 LIG 0.10  HD
ENDBRANCH 42 43
ENDBRANCH 38 42
ENDBRANCH 36 38
ENDBRANCH 30 34
ENDBRANCH 23 27
ENDBRANCH 21 23
ENDBRANCH 18 19
BRANCH 18 45
ATOM     45  CB  GLU B   4     -16.899  -6.243  14.193  0.80 27.21 LIG 0.04  C 
BRANCH 45 46
ATOM     46  CG  GLU B   4     -16.552  -6.721  12.805  0.80 28.14 LIG 0.12  C 
BRANCH 46 47
ATOM     47  CD  GLU B   4     -17.444  -6.136  11.728  0.80 29.53 LIG 0.17  C 
ATOM     48 OE1  GLU B   4     -18.557  -6.654  11.480  0.80 28.59 LIG-0.65  OA
ATOM     49 OE2  GLU B   4     -17.015  -5.136  11.122  0.80 31.57 LIG-0.65  OA
ENDBRANCH 46 47
ENDBRANCH 45 46
ENDBRANCH 18 45
ENDBRANCH 16 18
ENDBRANCH 1 14
BRANCH 1 50
ATOM     50  N   ARG B   3     -12.436  -7.898  14.508  0.80 34.16 LIG-0.35  N 
ATOM     51  C   GLU B   2     -12.703  -7.306  13.347  0.80 36.27 LIG 0.24  C 
ATOM     52 O    GLU B   2     -13.291  -6.223  13.261  0.80 35.80 LIG-0.27  OA
ATOM     53 H    ARG B   3     -12.079  -8.676  14.580  0.80 34.16 LIG 0.16  HD
BRANCH 51 54
ATOM     54  CA  GLU B   2     -12.282  -8.069  12.094  0.80 37.72 LIG 0.18  C 
BRANCH 54 55
ATOM     55  N   GLU B   2     -12.869  -9.408  12.099  0.80 39.05 LIG-0.35  N 
ATOM     56  C   GLN B   1     -12.131 -10.479  11.818  0.80 40.84 LIG 0.24  C 
ATOM     57 O    GLN B   1     -10.920 -10.418  11.580  0.80 40.79 LIG-0.27  OA
ATOM     58 H    GLU B   2     -13.706  -9.434  12.294  0.80 39.05 LIG 0.16  HD
BRANCH 56 59
ATOM     59  CA  GLN B   1     -12.854 -11.825  11.798  0.80 42.15 LIG 0.18  C 
BRANCH 59 60
ATOM     60  CB  GLN B   1     -12.767 -12.525  13.158  0.80 42.68 LIG 0.04  C 
BRANCH 60 61
ATOM     61  CG  GLN B   1     -12.806 -11.546  14.339  0.80 43.94 LIG 0.10  C 
BRANCH 61 62
ATOM     62  CD  GLN B   1     -14.200 -11.034  14.647  0.80 46.27 LIG 0.21  C 
ATOM     63 OE1  GLN B   1     -14.433 -10.431  15.696  0.80 48.62 LIG-0.27  OA
ATOM     64  NE2 GLN B   1     -15.135 -11.263  13.726  0.80 47.40 LIG-0.37  N 
ATOM     65 22HE GLN B   1     -15.940 -10.985  13.852  0.80 47.40 LIG 0.16  HD
ATOM     66 21HE GLN B   1     -14.935 -11.687  13.005  0.80 47.40 LIG 0.16  HD
ENDBRANCH 61 62
ENDBRANCH 60 61
ENDBRANCH 59 60
BRANCH 59 67
ATOM     67  N   GLN B   1     -12.261 -12.667  10.763  0.80 42.89 LIG-0.35  N 
ATOM     68  C   ACE B   0     -12.980 -13.525  10.038  0.80 43.46 LIG 0.21  C 
ATOM     69  CH3 ACE B   0     -12.229 -14.175   8.910  0.80 43.70 LIG 0.12  C 
ATOM     70 O    ACE B   0     -14.212 -13.552  10.092  0.80 44.01 LIG-0.27  OA
ATOM     71 H    GLN B   1     -11.414 -12.559  10.667  0.80 42.89 LIG 0.16  HD
ENDBRANCH 59 67
ENDBRANCH 56 59
ENDBRANCH 54 55
BRANCH 54 72
ATOM     72  CB  GLU B   2     -12.638  -7.288  10.818  0.80 37.98 LIG 0.04  C 
BRANCH 72 73
ATOM     73  CG  GLU B   2     -11.943  -5.941  10.635  0.80 38.47 LIG 0.12  C 
BRANCH 73 74
ATOM     74  CD  GLU B   2     -12.838  -4.911   9.956  0.80 38.45 LIG 0.17  C 
ATOM     75 OE1  GLU B   2     -13.912  -5.295   9.453  0.80 41.05 LIG-0.65  OA
ATOM     76 OE2  GLU B   2     -12.475  -3.720   9.940  0.80 38.47 LIG-0.65  OA
ENDBRANCH 73 74
ENDBRANCH 72 73
ENDBRANCH 54 72
ENDBRANCH 51 54
ENDBRANCH 1 50
TORSDOF 29
ENDMDL
MODEL 16
USER: ADFR SOLUTION from run 173
USER: SCORE 18.876537 LL:  -6.003 LR: -17.131 RR:   0.000 FEB:  -8.480
USER: RMSD 13.416685
USER: SEED 172
USER: STATUS no improvement in best in 5 clusters for 5 generations
USER: GENES 31
USER: genes 0 Translation |==|  0.74686 0.58013 0.47159
USER: genes 1 Rotation |==|  0.40814 0.14435 0.79627 0.66523
USER: genes 2 Torsion [C]-CA--CB-[CG] |==|  0.62173
USER: genes 3 Torsion [CA]-CB--CG-[CD] |==|  0.72394
USER: genes 4 Torsion [CB]-CG--CD-[NE] |==|  0.55364
USER: genes 5 Torsion [CG]-CD--NE-[CZ] |==|  0.72347
USER: genes 6 Torsion [N]-CA--C-[N] |==|  0.08383
USER: genes 7 Torsion [C]-N--CA-[CB] |==|  0.24071
USER: genes 8 Torsion [N]-CA--C-[N] |==|  0.40138
USER: genes 9 Torsion [C]-N--CA-[CB] |==|  0.25534
USER: genes 10 Torsion [N]-CA--CB-[CG2] |==|  0.26538
USER: genes 11 Torsion [N]-CA--C-[N] |==|  0.46513
USER: genes 12 Torsion [N]-CA--C-[O] |==|  0.25203
USER: genes 13 Torsion [C]-N--CA-[C] |==|  0.64033
USER: genes 14 Torsion [N]-CA--C-[O] |==|  0.51233
USER: genes 15 Torsion [N]-CA--CB-[SG] |==|  0.82145
USER: genes 16 Torsion [CA]-CB--SG-[HG] |==|  0.07952
USER: genes 17 Torsion [N]-CA--CB-[CG] |==|  0.22881
USER: genes 18 Torsion [CA]-CB--CG-[CD] |==|  0.69356
USER: genes 19 Torsion [CB]-CG--CD-[OE2] |==|  0.68468
USER: genes 20 Torsion [CB]-CA--N-[C] |==|  0.40973
USER: genes 21 Torsion [N]-C--CA-[N] |==|  0.04710
USER: genes 22 Torsion [C]-CA--N-[C] |==|  0.66291
USER: genes 23 Torsion [N]-C--CA-[N] |==|  0.90469
USER: genes 24 Torsion [C]-CA--CB-[CG] |==|  0.95775
USER: genes 25 Torsion [CA]-CB--CG-[CD] |==|  0.75246
USER: genes 26 Torsion [CB]-CG--CD-[OE1] |==|  0.09783
USER: genes 27 Torsion [C]-CA--N-[C] |==|  0.68550
USER: genes 28 Torsion [C]-CA--CB-[CG] |==|  0.25608
USER: genes 29 Torsion [CA]-CB--CG-[CD] |==|  0.73393
USER: genes 30 Torsion [CB]-CG--CD-[OE1] |==|  0.32846
ROOT
ATOM      1  CA  ARG B   3     -13.320  -6.694  15.565  0.80 33.15 LIG 0.18  C 
ENDROOT
BRANCH 1 2
ATOM      2  CB  ARG B   3     -12.318  -5.535  15.714  0.80 33.78 LIG 0.04  C 
BRANCH 2 3
ATOM      3  CG  ARG B   3     -11.075  -5.578  14.823  0.80 35.93 LIG 0.02  C 
BRANCH 3 4
ATOM      4  CD  ARG B   3      -9.853  -6.106  15.543  0.80 39.27 LIG 0.14  C 
BRANCH 4 5
ATOM      5  NE  ARG B   3      -8.607  -5.735  14.871  0.80 40.38 LIG-0.23  N 
ATOM      6  CZ  ARG B   3      -7.917  -6.542  14.066  0.80 40.37 LIG 0.67  C 
ATOM      7  NH1 ARG B   3      -8.350  -7.770  13.829  0.80 40.12 LIG-0.23  N 
ATOM      8  NH2 ARG B   3      -6.798  -6.116  13.490  0.80 41.10 LIG-0.23  N 
ATOM      9 2HH1 ARG B   3      -7.905  -8.290  13.309  0.80 40.12 LIG 0.17  HD
ATOM     10 1HH1 ARG B   3      -9.078  -8.048  14.194  0.80 40.12 LIG 0.17  HD
ATOM     11 2HH2 ARG B   3      -6.356  -6.639  12.971  0.80 41.10 LIG 0.17  HD
ATOM     12 1HH2 ARG B   3      -6.516  -5.317  13.636  0.80 41.10 LIG 0.17  HD
ATOM     13 HE   ARG B   3      -8.300  -4.943  15.005  0.80 40.38 LIG 0.18  HD
ENDBRANCH 4 5
ENDBRANCH 3 4
ENDBRANCH 2 3
ENDBRANCH 1 2
BRANCH 1 14
ATOM     14  C   ARG B   3     -14.752  -6.185  15.535  0.80 30.98 LIG 0.24  C 
ATOM     15 O    ARG B   3     -15.037  -5.121  16.077  0.80 30.41 LIG-0.27  OA
ATOM     16  N   GLU B   4     -15.625  -6.945  14.881  0.80 28.71 LIG-0.35  N 
ATOM     17 H    GLU B   4     -15.404  -7.629  14.410  0.80 28.71 LIG 0.16  HD
BRANCH 16 18
ATOM     18  CA  GLU B   4     -17.060  -6.676  14.906  0.80 27.21 LIG 0.18  C 
BRANCH 18 19
ATOM     19  C   GLU B   4     -17.804  -7.983  14.694  0.80 25.80 LIG 0.24  C 
ATOM     20 O    GLU B   4     -17.347  -8.870  13.949  0.80 26.39 LIG-0.27  OA
ATOM     21  N   VAL B   5     -18.939  -8.106  15.365  0.80 23.72 LIG-0.35  N 
ATOM     22 H    VAL B   5     -19.224  -7.522  15.929  0.80 23.72 LIG 0.16  HD
BRANCH 21 23
ATOM     23  CA  VAL B   5     -19.818  -9.252  15.206  0.80 22.93 LIG 0.18  C 
BRANCH 23 24
ATOM     24  CB  VAL B   5     -19.510 -10.363  16.218  0.80 23.26 LIG 0.01  C 
ATOM     25  CG2 VAL B   5     -20.428 -10.245  17.434  0.80 23.62 LIG 0.01  C 
ATOM     26  CG1 VAL B   5     -18.063 -10.295  16.644  0.80 24.46 LIG 0.01  C 
ENDBRANCH 23 24
BRANCH 23 27
ATOM     27  C   VAL B   5     -21.246  -8.752  15.401  0.80 21.40 LIG 0.24  C 
ATOM     28  N   PRO B   6     -22.234  -9.587  15.044  0.80 20.87 LIG-0.34  N 
ATOM     29  CD  PRO B   6     -22.192 -10.850  14.295  0.80 21.07 LIG 0.13  C 
ATOM     30  CA  PRO B   6     -23.614  -9.149  15.267  0.80 20.34 LIG 0.18  C 
ATOM     31  CG  PRO B   6     -23.593 -10.974  13.756  0.80 22.12 LIG 0.02  C 
ATOM     32  CB  PRO B   6     -24.444 -10.332  14.766  0.80 19.87 LIG 0.04  C 
ATOM     33 O    VAL B   5     -21.453  -7.626  15.868  0.80 20.67 LIG-0.27  OA
BRANCH 30 34
ATOM     34  C   PRO B   6     -23.887  -8.886  16.734  0.80 20.23 LIG 0.24  C 
ATOM     35 O    PRO B   6     -23.704  -7.742  17.200  0.80 20.62 LIG-0.27  OA
ATOM     36  N   CYS B   7     -24.342  -9.921  17.443  0.80 18.87 LIG-0.34  N 
ATOM     37 H    CYS B   7     -24.374 -10.727  17.145  0.80 18.87 LIG 0.16  HD
BRANCH 36 38
ATOM     38  CA  CYS B   7     -24.838  -9.765  18.821  0.80 19.21 LIG 0.19  C 
BRANCH 38 39
ATOM     39  C   CYS B   7     -24.195 -10.765  19.761  0.80 19.13 LIG 0.20  C 
ATOM     40 O    CYS B   7     -24.546 -10.843  20.951  0.80 18.45 LIG-0.65  OA
ATOM     41 OXT  CYS B   7     -23.346 -11.548  19.343  0.80 19.35 LIG-0.65  OA
ENDBRANCH 38 39
BRANCH 38 42
ATOM     42  CB  CYS B   7     -26.361  -9.852  18.870  0.80 19.02 LIG 0.11  C 
BRANCH 42 43
ATOM     43 SG   CYS B   7     -27.134  -8.488  17.964  0.80 21.06 LIG-0.18  SA
ATOM     44 HG   CYS B   7     -26.405  -8.129  17.082  0.80 21.06 LIG 0.10  HD
ENDBRANCH 42 43
ENDBRANCH 38 42
ENDBRANCH 36 38
ENDBRANCH 30 34
ENDBRANCH 23 27
ENDBRANCH 21 23
ENDBRANCH 18 19
BRANCH 18 45
ATOM     45  CB  GLU B   4     -17.469  -5.678  13.823  0.80 27.21 LIG 0.04  C 
BRANCH 45 46
ATOM     46  CG  GLU B   4     -17.670  -6.289  12.459  0.80 28.14 LIG 0.12  C 
BRANCH 46 47
ATOM     47  CD  GLU B   4     -16.606  -5.886  11.458  0.80 29.53 LIG 0.17  C 
ATOM     48 OE1  GLU B   4     -15.420  -6.260  11.612  0.80 28.59 LIG-0.65  OA
ATOM     49 OE2  GLU B   4     -16.971  -5.181  10.499  0.80 31.57 LIG-0.65  OA
ENDBRANCH 46 47
ENDBRANCH 45 46
ENDBRANCH 18 45
ENDBRANCH 16 18
ENDBRANCH 1 14
BRANCH 1 50
ATOM     50  N   ARG B   3     -13.071  -7.453  14.348  0.80 34.16 LIG-0.35  N 
ATOM     51  C   GLU B   2     -13.306  -8.761  14.286  0.80 36.27 LIG 0.24  C 
ATOM     52 O    GLU B   2     -13.666  -9.429  15.260  0.80 35.80 LIG-0.27  OA
ATOM     53 H    ARG B   3     -12.765  -6.987  13.693  0.80 34.16 LIG 0.16  HD
BRANCH 51 54
ATOM     54  CA  GLU B   2     -13.056  -9.422  12.933  0.80 37.72 LIG 0.18  C 
BRANCH 54 55
ATOM     55  N   GLU B   2     -12.232  -8.556  12.093  0.80 39.05 LIG-0.35  N 
ATOM     56  C   GLN B   1     -12.670  -8.132  10.910  0.80 40.84 LIG 0.24  C 
ATOM     57 O    GLN B   1     -13.793  -8.404  10.472  0.80 40.79 LIG-0.27  OA
ATOM     58 H    GLU B   2     -11.465  -8.354  12.426  0.80 39.05 LIG 0.16  HD
BRANCH 56 59
ATOM     59  CA  GLN B   1     -11.709  -7.275  10.088  0.80 42.15 LIG 0.18  C 
BRANCH 59 60
ATOM     60  CB  GLN B   1     -10.789  -8.143   9.223  0.80 42.68 LIG 0.04  C 
BRANCH 60 61
ATOM     61  CG  GLN B   1     -10.783  -9.618   9.647  0.80 43.94 LIG 0.10  C 
BRANCH 61 62
ATOM     62  CD  GLN B   1      -9.737  -9.934  10.699  0.80 46.27 LIG 0.21  C 
ATOM     63 OE1  GLN B   1      -9.453  -9.113  11.573  0.80 48.62 LIG-0.27  OA
ATOM     64  NE2 GLN B   1      -9.161 -11.133  10.626  0.80 47.40 LIG-0.37  N 
ATOM     65 22HE GLN B   1      -8.566 -11.361  11.204  0.80 47.40 LIG 0.16  HD
ATOM     66 21HE GLN B   1      -9.385 -11.680  10.001  0.80 47.40 LIG 0.16  HD
ENDBRANCH 61 62
ENDBRANCH 60 61
ENDBRANCH 59 60
BRANCH 59 67
ATOM     67  N   GLN B   1     -10.914  -6.451  10.994  0.80 42.89 LIG-0.35  N 
ATOM     68  C   ACE B   0     -11.023  -5.123  11.038  0.80 43.46 LIG 0.21  C 
ATOM     69  CH3 ACE B   0     -10.252  -4.468  12.149  0.80 43.70 LIG 0.12  C 
ATOM     70 O    ACE B   0     -11.908  -4.521  10.425  0.80 44.01 LIG-0.27  OA
ATOM     71 H    GLN B   1     -10.374  -6.900  11.491  0.80 42.89 LIG 0.16  HD
ENDBRANCH 59 67
ENDBRANCH 56 59
ENDBRANCH 54 55
BRANCH 54 72
ATOM     72  CB  GLU B   2     -12.438 -10.821  13.100  0.80 37.98 LIG 0.04  C 
BRANCH 72 73
ATOM     73  CG  GLU B   2     -13.418 -11.989  13.159  0.80 38.47 LIG 0.12  C 
BRANCH 73 74
ATOM     74  CD  GLU B   2     -13.759 -12.392  14.589  0.80 38.45 LIG 0.17  C 
ATOM     75 OE1  GLU B   2     -14.944 -12.302  14.966  0.80 41.05 LIG-0.65  OA
ATOM     76 OE2  GLU B   2     -12.848 -12.812  15.327  0.80 38.47 LIG-0.65  OA
ENDBRANCH 73 74
ENDBRANCH 72 73
ENDBRANCH 54 72
ENDBRANCH 51 54
ENDBRANCH 1 50
TORSDOF 29
ENDMDL
MODEL 17
USER: ADFR SOLUTION from run 168
USER: SCORE 19.563336 LL:  -6.477 LR: -17.090 RR:   0.000 FEB:  -8.439
USER: RMSD 13.644689
USER: SEED 167
USER: STATUS no improvement in best in 3 clusters for 5 generations
USER: GENES 31
USER: genes 0 Translation |==|  0.69864 0.61592 0.43368
USER: genes 1 Rotation |==|  0.33516 0.82884 0.16377 0.54049
USER: genes 2 Torsion [C]-CA--CB-[CG] |==|  0.39967
USER: genes 3 Torsion [CA]-CB--CG-[CD] |==|  0.03701
USER: genes 4 Torsion [CB]-CG--CD-[NE] |==|  0.82530
USER: genes 5 Torsion [CG]-CD--NE-[CZ] |==|  0.50872
USER: genes 6 Torsion [N]-CA--C-[N] |==|  0.94230
USER: genes 7 Torsion [C]-N--CA-[CB] |==|  0.88857
USER: genes 8 Torsion [N]-CA--C-[N] |==|  0.85282
USER: genes 9 Torsion [C]-N--CA-[CB] |==|  0.85742
USER: genes 10 Torsion [N]-CA--CB-[CG2] |==|  0.84939
USER: genes 11 Torsion [N]-CA--C-[N] |==|  0.17539
USER: genes 12 Torsion [N]-CA--C-[O] |==|  0.38375
USER: genes 13 Torsion [C]-N--CA-[C] |==|  0.19628
USER: genes 14 Torsion [N]-CA--C-[O] |==|  0.40094
USER: genes 15 Torsion [N]-CA--CB-[SG] |==|  0.84445
USER: genes 16 Torsion [CA]-CB--SG-[HG] |==|  0.87791
USER: genes 17 Torsion [N]-CA--CB-[CG] |==|  0.56731
USER: genes 18 Torsion [CA]-CB--CG-[CD] |==|  0.59284
USER: genes 19 Torsion [CB]-CG--CD-[OE2] |==|  0.98430
USER: genes 20 Torsion [CB]-CA--N-[C] |==|  0.36736
USER: genes 21 Torsion [N]-C--CA-[N] |==|  0.44106
USER: genes 22 Torsion [C]-CA--N-[C] |==|  0.64689
USER: genes 23 Torsion [N]-C--CA-[N] |==|  0.47130
USER: genes 24 Torsion [C]-CA--CB-[CG] |==|  0.30177
USER: genes 25 Torsion [CA]-CB--CG-[CD] |==|  0.70521
USER: genes 26 Torsion [CB]-CG--CD-[OE1] |==|  0.85529
USER: genes 27 Torsion [C]-CA--N-[C] |==|  0.48336
USER: genes 28 Torsion [C]-CA--CB-[CG] |==|  0.26147
USER: genes 29 Torsion [CA]-CB--CG-[CD] |==|  0.01689
USER: genes 30 Torsion [CB]-CG--CD-[OE1] |==|  0.19875
ROOT
ATOM      1  CA  ARG B   3     -14.839  -6.049  14.882  0.80 33.15 LIG 0.18  C 
ENDROOT
BRANCH 1 2
ATOM      2  CB  ARG B   3     -15.742  -4.814  15.043  0.80 33.78 LIG 0.04  C 
BRANCH 2 3
ATOM      3  CG  ARG B   3     -15.151  -3.620  15.795  0.80 35.93 LIG 0.02  C 
BRANCH 3 4
ATOM      4  CD  ARG B   3     -13.654  -3.727  15.986  0.80 39.27 LIG 0.14  C 
BRANCH 4 5
ATOM      5  NE  ARG B   3     -13.279  -4.880  16.806  0.80 40.38 LIG-0.23  N 
ATOM      6  CZ  ARG B   3     -12.031  -5.168  17.174  0.80 40.37 LIG 0.67  C 
ATOM      7  NH1 ARG B   3     -11.032  -4.386  16.797  0.80 40.12 LIG-0.23  N 
ATOM      8  NH2 ARG B   3     -11.783  -6.233  17.929  0.80 41.10 LIG-0.23  N 
ATOM      9 2HH1 ARG B   3     -10.227  -4.572  17.035  0.80 40.12 LIG 0.17  HD
ATOM     10 1HH1 ARG B   3     -11.187  -3.691  16.313  0.80 40.12 LIG 0.17  HD
ATOM     11 2HH2 ARG B   3     -10.977  -6.415  18.165  0.80 41.10 LIG 0.17  HD
ATOM     12 1HH2 ARG B   3     -12.430  -6.740  18.182  0.80 41.10 LIG 0.17  HD
ATOM     13 HE   ARG B   3     -13.906  -5.408  17.068  0.80 40.38 LIG 0.18  HD
ENDBRANCH 4 5
ENDBRANCH 3 4
ENDBRANCH 2 3
ENDBRANCH 1 2
BRANCH 1 14
ATOM     14  C   ARG B   3     -15.642  -7.336  14.974  0.80 30.98 LIG 0.24  C 
ATOM     15 O    ARG B   3     -16.019  -7.750  16.067  0.80 30.41 LIG-0.27  OA
ATOM     16  N   GLU B   4     -15.912  -7.936  13.818  0.80 28.71 LIG-0.35  N 
ATOM     17 H    GLU B   4     -15.744  -7.589  13.049  0.80 28.71 LIG 0.16  HD
BRANCH 16 18
ATOM     18  CA  GLU B   4     -16.528  -9.258  13.755  0.80 27.21 LIG 0.18  C 
BRANCH 18 19
ATOM     19  C   GLU B   4     -18.026  -9.108  13.954  0.80 25.80 LIG 0.24  C 
ATOM     20 O    GLU B   4     -18.835  -9.606  13.150  0.80 26.39 LIG-0.27  OA
ATOM     21  N   VAL B   5     -18.391  -8.438  15.037  0.80 23.72 LIG-0.35  N 
ATOM     22 H    VAL B   5     -17.836  -8.149  15.627  0.80 23.72 LIG 0.16  HD
BRANCH 21 23
ATOM     23  CA  VAL B   5     -19.780  -8.126  15.330  0.80 22.93 LIG 0.18  C 
BRANCH 23 24
ATOM     24  CB  VAL B   5     -20.487  -7.459  14.144  0.80 23.26 LIG 0.01  C 
ATOM     25  CG2 VAL B   5     -19.706  -6.228  13.683  0.80 23.62 LIG 0.01  C 
ATOM     26  CG1 VAL B   5     -21.897  -7.074  14.525  0.80 24.46 LIG 0.01  C 
ENDBRANCH 23 24
BRANCH 23 27
ATOM     27  C   VAL B   5     -20.471  -9.441  15.676  0.80 21.40 LIG 0.24  C 
ATOM     28  N   PRO B   6     -20.031 -10.088  16.766  0.80 20.87 LIG-0.34  N 
ATOM     29  CD  PRO B   6     -18.842  -9.857  17.598  0.80 21.07 LIG 0.13  C 
ATOM     30  CA  PRO B   6     -20.712 -11.327  17.148  0.80 20.34 LIG 0.18  C 
ATOM     31  CG  PRO B   6     -18.623 -11.193  18.258  0.80 22.12 LIG 0.02  C 
ATOM     32  CB  PRO B   6     -19.967 -11.763  18.410  0.80 19.87 LIG 0.04  C 
ATOM     33 O    VAL B   5     -21.391  -9.866  14.967  0.80 20.67 LIG-0.27  OA
BRANCH 30 34
ATOM     34  C   PRO B   6     -22.179 -11.091  17.445  0.80 20.23 LIG 0.24  C 
ATOM     35 O    PRO B   6     -23.030 -11.907  17.034  0.80 20.62 LIG-0.27  OA
ATOM     36  N   CYS B   7     -22.466 -10.008  18.169  0.80 18.87 LIG-0.34  N 
ATOM     37 H    CYS B   7     -21.891  -9.399  18.365  0.80 18.87 LIG 0.16  HD
BRANCH 36 38
ATOM     38  CA  CYS B   7     -23.817  -9.760  18.701  0.80 19.21 LIG 0.19  C 
BRANCH 38 39
ATOM     39  C   CYS B   7     -24.160 -10.723  19.820  0.80 19.13 LIG 0.20  C 
ATOM     40 O    CYS B   7     -24.846 -10.359  20.791  0.80 18.45 LIG-0.65  OA
ATOM     41 OXT  CYS B   7     -23.802 -11.896  19.757  0.80 19.35 LIG-0.65  OA
ENDBRANCH 38 39
BRANCH 38 42
ATOM     42  CB  CYS B   7     -24.861  -9.802  17.587  0.80 19.02 LIG 0.11  C 
BRANCH 42 43
ATOM     43 SG   CYS B   7     -24.470  -8.630  16.265  0.80 21.06 LIG-0.18  SA
ATOM     44 HG   CYS B   7     -24.131  -7.584  16.744  0.80 21.06 LIG 0.10  HD
ENDBRANCH 42 43
ENDBRANCH 38 42
ENDBRANCH 36 38
ENDBRANCH 30 34
ENDBRANCH 23 27
ENDBRANCH 21 23
ENDBRANCH 18 19
BRANCH 18 45
ATOM     45  CB  GLU B   4     -15.965 -10.197  14.821  0.80 27.21 LIG 0.04  C 
BRANCH 45 46
ATOM     46  CG  GLU B   4     -16.090 -11.663  14.486  0.80 28.14 LIG 0.12  C 
BRANCH 46 47
ATOM     47  CD  GLU B   4     -16.312 -12.540  15.701  0.80 29.53 LIG 0.17  C 
ATOM     48 OE1  GLU B   4     -16.538 -13.765  15.562  0.80 28.59 LIG-0.65  OA
ATOM     49 OE2  GLU B   4     -16.257 -11.986  16.815  0.80 31.57 LIG-0.65  OA
ENDBRANCH 46 47
ENDBRANCH 45 46
ENDBRANCH 18 45
ENDBRANCH 16 18
ENDBRANCH 1 14
BRANCH 1 50
ATOM     50  N   ARG B   3     -14.138  -6.028  13.607  0.80 34.16 LIG-0.35  N 
ATOM     51  C   GLU B   2     -12.831  -6.261  13.529  0.80 36.27 LIG 0.24  C 
ATOM     52 O    GLU B   2     -12.115  -6.427  14.523  0.80 35.80 LIG-0.27  OA
ATOM     53 H    ARG B   3     -14.636  -5.854  12.928  0.80 34.16 LIG 0.16  HD
BRANCH 51 54
ATOM     54  CA  GLU B   2     -12.233  -6.266  12.125  0.80 37.72 LIG 0.18  C 
BRANCH 54 55
ATOM     55  N   GLU B   2     -10.792  -6.028  12.190  0.80 39.05 LIG-0.35  N 
ATOM     56  C   GLN B   1     -10.225  -5.063  11.469  0.80 40.84 LIG 0.24  C 
ATOM     57 O    GLN B   1     -10.869  -4.297  10.745  0.80 40.79 LIG-0.27  OA
ATOM     58 H    GLU B   2     -10.364  -6.552  12.720  0.80 39.05 LIG 0.16  HD
BRANCH 56 59
ATOM     59  CA  GLN B   1      -8.706  -4.935  11.570  0.80 42.15 LIG 0.18  C 
BRANCH 59 60
ATOM     60  CB  GLN B   1      -8.279  -4.442  12.956  0.80 42.68 LIG 0.04  C 
BRANCH 60 61
ATOM     61  CG  GLN B   1      -7.600  -5.531  13.797  0.80 43.94 LIG 0.10  C 
BRANCH 61 62
ATOM     62  CD  GLN B   1      -8.482  -6.064  14.910  0.80 46.27 LIG 0.21  C 
ATOM     63 OE1  GLN B   1      -9.025  -5.297  15.706  0.80 48.62 LIG-0.27  OA
ATOM     64  NE2 GLN B   1      -8.637  -7.386  14.966  0.80 47.40 LIG-0.37  N 
ATOM     65 22HE GLN B   1      -9.133  -7.735  15.576  0.80 47.40 LIG 0.16  HD
ATOM     66 21HE GLN B   1      -8.241  -7.890  14.393  0.80 47.40 LIG 0.16  HD
ENDBRANCH 61 62
ENDBRANCH 60 61
ENDBRANCH 59 60
BRANCH 59 67
ATOM     67  N   GLN B   1      -8.238  -4.008  10.543  0.80 42.89 LIG-0.35  N 
ATOM     68  C   ACE B   0      -6.969  -3.608  10.462  0.80 43.46 LIG 0.21  C 
ATOM     69  CH3 ACE B   0      -6.646  -2.793   9.241  0.80 43.70 LIG 0.12  C 
ATOM     70 O    ACE B   0      -6.081  -4.112  11.155  0.80 44.01 LIG-0.27  OA
ATOM     71 H    GLN B   1      -8.853  -3.747  10.001  0.80 42.89 LIG 0.16  HD
ENDBRANCH 59 67
ENDBRANCH 56 59
ENDBRANCH 54 55
BRANCH 54 72
ATOM     72  CB  GLU B   2     -12.570  -7.568  11.378  0.80 37.98 LIG 0.04  C 
BRANCH 72 73
ATOM     73  CG  GLU B   2     -13.807  -7.533  10.485  0.80 38.47 LIG 0.12  C 
BRANCH 73 74
ATOM     74  CD  GLU B   2     -14.413  -6.138  10.383  0.80 38.45 LIG 0.17  C 
ATOM     75 OE1  GLU B   2     -13.801  -5.270   9.729  0.80 41.05 LIG-0.65  OA
ATOM     76 OE2  GLU B   2     -15.503  -5.916  10.942  0.80 38.47 LIG-0.65  OA
ENDBRANCH 73 74
ENDBRANCH 72 73
ENDBRANCH 54 72
ENDBRANCH 51 54
ENDBRANCH 1 50
TORSDOF 29
ENDMDL
MODEL 18
USER: ADFR SOLUTION from run 87
USER: SCORE 20.031221 LL:  -6.190 LR: -16.926 RR:   0.000 FEB:  -8.276
USER: RMSD 13.059806
USER: SEED 86
USER: STATUS no improvement in best in 2 clusters for 5 generations
USER: GENES 31
USER: genes 0 Translation |==|  0.76461 0.53639 0.45097
USER: genes 1 Rotation |==|  0.55800 0.11384 0.80109 0.58282
USER: genes 2 Torsion [C]-CA--CB-[CG] |==|  0.54200
USER: genes 3 Torsion [CA]-CB--CG-[CD] |==|  0.88384
USER: genes 4 Torsion [CB]-CG--CD-[NE] |==|  0.44375
USER: genes 5 Torsion [CG]-CD--NE-[CZ] |==|  0.63844
USER: genes 6 Torsion [N]-CA--C-[N] |==|  0.07931
USER: genes 7 Torsion [C]-N--CA-[CB] |==|  0.76666
USER: genes 8 Torsion [N]-CA--C-[N] |==|  0.20410
USER: genes 9 Torsion [C]-N--CA-[CB] |==|  0.38704
USER: genes 10 Torsion [N]-CA--CB-[CG2] |==|  0.77105
USER: genes 11 Torsion [N]-CA--C-[N] |==|  0.30335
USER: genes 12 Torsion [N]-CA--C-[O] |==|  0.30855
USER: genes 13 Torsion [C]-N--CA-[C] |==|  0.21772
USER: genes 14 Torsion [N]-CA--C-[O] |==|  0.44965
USER: genes 15 Torsion [N]-CA--CB-[SG] |==|  0.77882
USER: genes 16 Torsion [CA]-CB--SG-[HG] |==|  0.94705
USER: genes 17 Torsion [N]-CA--CB-[CG] |==|  0.51409
USER: genes 18 Torsion [CA]-CB--CG-[CD] |==|  0.50434
USER: genes 19 Torsion [CB]-CG--CD-[OE2] |==|  0.74580
USER: genes 20 Torsion [CB]-CA--N-[C] |==|  0.83116
USER: genes 21 Torsion [N]-C--CA-[N] |==|  0.10148
USER: genes 22 Torsion [C]-CA--N-[C] |==|  0.15740
USER: genes 23 Torsion [N]-C--CA-[N] |==|  0.43775
USER: genes 24 Torsion [C]-CA--CB-[CG] |==|  0.22024
USER: genes 25 Torsion [CA]-CB--CG-[CD] |==|  0.14780
USER: genes 26 Torsion [CB]-CG--CD-[OE1] |==|  0.74890
USER: genes 27 Torsion [C]-CA--N-[C] |==|  0.80714
USER: genes 28 Torsion [C]-CA--CB-[CG] |==|  0.35320
USER: genes 29 Torsion [CA]-CB--CG-[CD] |==|  0.71641
USER: genes 30 Torsion [CB]-CG--CD-[OE1] |==|  0.26332
ROOT
ATOM      1  CA  ARG B   3     -12.761  -7.481  15.193  0.80 33.15 LIG 0.18  C 
ENDROOT
BRANCH 1 2
ATOM      2  CB  ARG B   3     -12.652  -5.993  15.570  0.80 33.78 LIG 0.04  C 
BRANCH 2 3
ATOM      3  CG  ARG B   3     -11.358  -5.275  15.179  0.80 35.93 LIG 0.02  C 
BRANCH 3 4
ATOM      4  CD  ARG B   3     -10.123  -6.112  15.427  0.80 39.27 LIG 0.14  C 
BRANCH 4 5
ATOM      5  NE  ARG B   3      -8.973  -5.654  14.646  0.80 40.38 LIG-0.23  N 
ATOM      6  CZ  ARG B   3      -8.207  -6.447  13.898  0.80 40.37 LIG 0.67  C 
ATOM      7  NH1 ARG B   3      -8.466  -7.743  13.826  0.80 40.12 LIG-0.23  N 
ATOM      8  NH2 ARG B   3      -7.187  -5.941  13.213  0.80 41.10 LIG-0.23  N 
ATOM      9 2HH1 ARG B   3      -7.971  -8.254  13.343  0.80 40.12 LIG 0.17  HD
ATOM     10 1HH1 ARG B   3      -9.129  -8.074  14.262  0.80 40.12 LIG 0.17  HD
ATOM     11 2HH2 ARG B   3      -6.695  -6.455  12.731  0.80 41.10 LIG 0.17  HD
ATOM     12 1HH2 ARG B   3      -7.019  -5.098  13.251  0.80 41.10 LIG 0.17  HD
ATOM     13 HE   ARG B   3      -8.779  -4.816  14.671  0.80 40.38 LIG 0.18  HD
ENDBRANCH 4 5
ENDBRANCH 3 4
ENDBRANCH 2 3
ENDBRANCH 1 2
BRANCH 1 14
ATOM     14  C   ARG B   3     -14.195  -7.972  15.294  0.80 30.98 LIG 0.24  C 
ATOM     15 O    ARG B   3     -14.976  -7.434  16.075  0.80 30.41 LIG-0.27  OA
ATOM     16  N   GLU B   4     -14.526  -8.973  14.483  0.80 28.71 LIG-0.35  N 
ATOM     17 H    GLU B   4     -14.012  -9.273  13.862  0.80 28.71 LIG 0.16  HD
BRANCH 16 18
ATOM     18  CA  GLU B   4     -15.810  -9.658  14.579  0.80 27.21 LIG 0.18  C 
BRANCH 18 19
ATOM     19  C   GLU B   4     -16.881  -8.641  14.932  0.80 25.80 LIG 0.24  C 
ATOM     20 O    GLU B   4     -17.366  -8.588  16.078  0.80 26.39 LIG-0.27  OA
ATOM     21  N   VAL B   5     -17.233  -7.821  13.952  0.80 23.72 LIG-0.35  N 
ATOM     22 H    VAL B   5     -16.854  -7.814  13.180  0.80 23.72 LIG 0.16  HD
BRANCH 21 23
ATOM     23  CA  VAL B   5     -18.304  -6.850  14.095  0.80 22.93 LIG 0.18  C 
BRANCH 23 24
ATOM     24  CB  VAL B   5     -17.958  -5.505  13.446  0.80 23.26 LIG 0.01  C 
ATOM     25  CG2 VAL B   5     -17.104  -4.662  14.392  0.80 23.62 LIG 0.01  C 
ATOM     26  CG1 VAL B   5     -19.221  -4.763  13.076  0.80 24.46 LIG 0.01  C 
ENDBRANCH 23 24
BRANCH 23 27
ATOM     27  C   VAL B   5     -19.541  -7.447  13.429  0.80 21.40 LIG 0.24  C 
ATOM     28  N   PRO B   6     -20.537  -7.836  14.240  0.80 20.87 LIG-0.34  N 
ATOM     29  CD  PRO B   6     -20.576  -7.980  15.701  0.80 21.07 LIG 0.13  C 
ATOM     30  CA  PRO B   6     -21.754  -8.365  13.622  0.80 20.34 LIG 0.18  C 
ATOM     31  CG  PRO B   6     -21.709  -8.950  15.918  0.80 22.12 LIG 0.02  C 
ATOM     32  CB  PRO B   6     -22.648  -8.683  14.822  0.80 19.87 LIG 0.04  C 
ATOM     33 O    VAL B   5     -19.594  -7.554  12.198  0.80 20.67 LIG-0.27  OA
BRANCH 30 34
ATOM     34  C   PRO B   6     -22.413  -7.343  12.718  0.80 20.23 LIG 0.24  C 
ATOM     35 O    PRO B   6     -22.418  -7.524  11.483  0.80 20.62 LIG-0.27  OA
ATOM     36  N   CYS B   7     -22.983  -6.300  13.326  0.80 18.87 LIG-0.34  N 
ATOM     37 H    CYS B   7     -22.894  -6.129  14.164  0.80 18.87 LIG 0.16  HD
BRANCH 36 38
ATOM     38  CA  CYS B   7     -23.828  -5.339  12.597  0.80 19.21 LIG 0.19  C 
BRANCH 38 39
ATOM     39  C   CYS B   7     -25.219  -5.889  12.357  0.80 19.13 LIG 0.20  C 
ATOM     40 O    CYS B   7     -26.165  -5.136  12.068  0.80 18.45 LIG-0.65  OA
ATOM     41 OXT  CYS B   7     -25.420  -7.100  12.399  0.80 19.35 LIG-0.65  OA
ENDBRANCH 38 39
BRANCH 38 42
ATOM     42  CB  CYS B   7     -23.165  -4.905  11.292  0.80 19.02 LIG 0.11  C 
BRANCH 42 43
ATOM     43 SG   CYS B   7     -21.898  -3.645  11.576  0.80 21.06 LIG-0.18  SA
ATOM     44 HG   CYS B   7     -22.074  -3.133  12.647  0.80 21.06 LIG 0.10  HD
ENDBRANCH 42 43
ENDBRANCH 38 42
ENDBRANCH 36 38
ENDBRANCH 30 34
ENDBRANCH 23 27
ENDBRANCH 21 23
ENDBRANCH 18 19
BRANCH 18 45
ATOM     45  CB  GLU B   4     -15.788 -10.759  15.638  0.80 27.21 LIG 0.04  C 
BRANCH 45 46
ATOM     46  CG  GLU B   4     -17.048 -11.585  15.703  0.80 28.14 LIG 0.12  C 
BRANCH 46 47
ATOM     47  CD  GLU B   4     -17.017 -12.646  16.785  0.80 29.53 LIG 0.17  C 
ATOM     48 OE1  GLU B   4     -17.405 -12.374  17.945  0.80 28.59 LIG-0.65  OA
ATOM     49 OE2  GLU B   4     -16.596 -13.771  16.461  0.80 31.57 LIG-0.65  OA
ENDBRANCH 46 47
ENDBRANCH 45 46
ENDBRANCH 18 45
ENDBRANCH 16 18
ENDBRANCH 1 14
BRANCH 1 50
ATOM     50  N   ARG B   3     -12.281  -7.720  13.840  0.80 34.16 LIG-0.35  N 
ATOM     51  C   GLU B   2     -12.852  -7.139  12.789  0.80 36.27 LIG 0.24  C 
ATOM     52 O    GLU B   2     -13.863  -6.433  12.873  0.80 35.80 LIG-0.27  OA
ATOM     53 H    ARG B   3     -11.612  -8.258  13.788  0.80 34.16 LIG 0.16  HD
BRANCH 51 54
ATOM     54  CA  GLU B   2     -12.212  -7.430  11.433  0.80 37.72 LIG 0.18  C 
BRANCH 54 55
ATOM     55  N   GLU B   2     -11.739  -8.812  11.386  0.80 39.05 LIG-0.35  N 
ATOM     56  C   GLN B   1     -12.570  -9.827  11.610  0.80 40.84 LIG 0.24  C 
ATOM     57 O    GLN B   1     -13.776  -9.674  11.828  0.80 40.79 LIG-0.27  OA
ATOM     58 H    GLU B   2     -10.903  -8.900  11.206  0.80 39.05 LIG 0.16  HD
BRANCH 56 59
ATOM     59  CA  GLN B   1     -11.962 -11.229  11.591  0.80 42.15 LIG 0.18  C 
BRANCH 59 60
ATOM     60  CB  GLN B   1     -11.795 -11.743  10.157  0.80 42.68 LIG 0.04  C 
BRANCH 60 61
ATOM     61  CG  GLN B   1     -10.559 -11.168   9.453  0.80 43.94 LIG 0.10  C 
BRANCH 61 62
ATOM     62  CD  GLN B   1      -9.278 -11.360  10.241  0.80 46.27 LIG 0.21  C 
ATOM     63 OE1  GLN B   1      -8.899 -10.507  11.046  0.80 48.62 LIG-0.27  OA
ATOM     64  NE2 GLN B   1      -8.606 -12.489  10.022  0.80 47.40 LIG-0.37  N 
ATOM     65 22HE GLN B   1      -7.877 -12.646  10.451  0.80 47.40 LIG 0.16  HD
ATOM     66 21HE GLN B   1      -8.902 -13.062   9.452  0.80 47.40 LIG 0.16  HD
ENDBRANCH 61 62
ENDBRANCH 60 61
ENDBRANCH 59 60
BRANCH 59 67
ATOM     67  N   GLN B   1     -12.823 -12.131  12.350  0.80 42.89 LIG-0.35  N 
ATOM     68  C   ACE B   0     -12.952 -12.053  13.674  0.80 43.46 LIG 0.21  C 
ATOM     69  CH3 ACE B   0     -14.010 -12.950  14.254  0.80 43.70 LIG 0.12  C 
ATOM     70 O    ACE B   0     -12.471 -11.120  14.323  0.80 44.01 LIG-0.27  OA
ATOM     71 H    GLN B   1     -13.233 -12.711  11.866  0.80 42.89 LIG 0.16  HD
ENDBRANCH 59 67
ENDBRANCH 56 59
ENDBRANCH 54 55
BRANCH 54 72
ATOM     72  CB  GLU B   2     -13.179  -7.111  10.279  0.80 37.98 LIG 0.04  C 
BRANCH 72 73
ATOM     73  CG  GLU B   2     -12.645  -6.186   9.189  0.80 38.47 LIG 0.12  C 
BRANCH 73 74
ATOM     74  CD  GLU B   2     -13.169  -4.761   9.325  0.80 38.45 LIG 0.17  C 
ATOM     75 OE1  GLU B   2     -12.472  -3.926   9.937  0.80 41.05 LIG-0.65  OA
ATOM     76 OE2  GLU B   2     -14.265  -4.473   8.810  0.80 38.47 LIG-0.65  OA
ENDBRANCH 73 74
ENDBRANCH 72 73
ENDBRANCH 54 72
ENDBRANCH 51 54
ENDBRANCH 1 50
TORSDOF 29
ENDMDL
MODEL 19
USER: ADFR SOLUTION from run 159
USER: SCORE 20.162574 LL:  -5.603 LR: -16.902 RR:   0.000 FEB:  -8.251
USER: RMSD 12.232531
USER: SEED 158
USER: STATUS searching
USER: GENES 31
USER: genes 0 Translation |==|  0.62774 0.53734 0.44744
USER: genes 1 Rotation |==|  0.49029 0.68609 0.04320 0.58134
USER: genes 2 Torsion [C]-CA--CB-[CG] |==|  0.12900
USER: genes 3 Torsion [CA]-CB--CG-[CD] |==|  0.55153
USER: genes 4 Torsion [CB]-CG--CD-[NE] |==|  0.53431
USER: genes 5 Torsion [CG]-CD--NE-[CZ] |==|  0.58136
USER: genes 6 Torsion [N]-CA--C-[N] |==|  0.22742
USER: genes 7 Torsion [C]-N--CA-[CB] |==|  0.53144
USER: genes 8 Torsion [N]-CA--C-[N] |==|  0.40064
USER: genes 9 Torsion [C]-N--CA-[CB] |==|  0.78333
USER: genes 10 Torsion [N]-CA--CB-[CG2] |==|  0.51105
USER: genes 11 Torsion [N]-CA--C-[N] |==|  0.22735
USER: genes 12 Torsion [N]-CA--C-[O] |==|  0.34031
USER: genes 13 Torsion [C]-N--CA-[C] |==|  0.17357
USER: genes 14 Torsion [N]-CA--C-[O] |==|  0.57218
USER: genes 15 Torsion [N]-CA--CB-[SG] |==|  0.87364
USER: genes 16 Torsion [CA]-CB--SG-[HG] |==|  0.22880
USER: genes 17 Torsion [N]-CA--CB-[CG] |==|  0.82968
USER: genes 18 Torsion [CA]-CB--CG-[CD] |==|  0.67821
USER: genes 19 Torsion [CB]-CG--CD-[OE2] |==|  0.32873
USER: genes 20 Torsion [CB]-CA--N-[C] |==|  0.26044
USER: genes 21 Torsion [N]-C--CA-[N] |==|  0.48242
USER: genes 22 Torsion [C]-CA--N-[C] |==|  0.76851
USER: genes 23 Torsion [N]-C--CA-[N] |==|  0.41268
USER: genes 24 Torsion [C]-CA--CB-[CG] |==|  0.11320
USER: genes 25 Torsion [CA]-CB--CG-[CD] |==|  0.69999
USER: genes 26 Torsion [CB]-CG--CD-[OE1] |==|  0.55201
USER: genes 27 Torsion [C]-CA--N-[C] |==|  0.58228
USER: genes 28 Torsion [C]-CA--CB-[CG] |==|  0.27133
USER: genes 29 Torsion [CA]-CB--CG-[CD] |==|  0.71370
USER: genes 30 Torsion [CB]-CG--CD-[OE1] |==|  0.26377
ROOT
ATOM      1  CA  ARG B   3     -17.072  -7.464  15.130  0.80 33.15 LIG 0.18  C 
ENDROOT
BRANCH 1 2
ATOM      2  CB  ARG B   3     -17.390  -6.448  14.019  0.80 33.78 LIG 0.04  C 
BRANCH 2 3
ATOM      3  CG  ARG B   3     -18.815  -5.892  13.978  0.80 35.93 LIG 0.02  C 
BRANCH 3 4
ATOM      4  CD  ARG B   3     -19.168  -5.275  12.643  0.80 39.27 LIG 0.14  C 
BRANCH 4 5
ATOM      5  NE  ARG B   3     -20.408  -4.498  12.699  0.80 40.38 LIG-0.23  N 
ATOM      6  CZ  ARG B   3     -21.234  -4.325  11.668  0.80 40.37 LIG 0.67  C 
ATOM      7  NH1 ARG B   3     -20.957  -4.874  10.496  0.80 40.12 LIG-0.23  N 
ATOM      8  NH2 ARG B   3     -22.345  -3.610  11.813  0.80 41.10 LIG-0.23  N 
ATOM      9 2HH1 ARG B   3     -21.491  -4.762   9.832  0.80 40.12 LIG 0.17  HD
ATOM     10 1HH1 ARG B   3     -20.243  -5.344  10.399  0.80 40.12 LIG 0.17  HD
ATOM     11 2HH2 ARG B   3     -22.876  -3.500  11.146  0.80 41.10 LIG 0.17  HD
ATOM     12 1HH2 ARG B   3     -22.533  -3.256  12.574  0.80 41.10 LIG 0.17  HD
ATOM     13 HE   ARG B   3     -20.616  -4.129  13.447  0.80 40.38 LIG 0.18  HD
ENDBRANCH 4 5
ENDBRANCH 3 4
ENDBRANCH 2 3
ENDBRANCH 1 2
BRANCH 1 14
ATOM     14  C   ARG B   3     -18.156  -8.524  15.234  0.80 30.98 LIG 0.24  C 
ATOM     15 O    ARG B   3     -18.845  -8.798  14.255  0.80 30.41 LIG-0.27  OA
ATOM     16  N   GLU B   4     -18.274  -9.120  16.417  0.80 28.71 LIG-0.35  N 
ATOM     17 H    GLU B   4     -17.721  -9.006  17.066  0.80 28.71 LIG 0.16  HD
BRANCH 16 18
ATOM     18  CA  GLU B   4     -19.370 -10.035  16.720  0.80 27.21 LIG 0.18  C 
BRANCH 18 19
ATOM     19  C   GLU B   4     -20.675  -9.390  16.286  0.80 25.80 LIG 0.24  C 
ATOM     20 O    GLU B   4     -20.848  -8.161  16.378  0.80 26.39 LIG-0.27  OA
ATOM     21  N   VAL B   5     -21.585 -10.220  15.797  0.80 23.72 LIG-0.35  N 
ATOM     22 H    VAL B   5     -21.445 -11.060  15.673  0.80 23.72 LIG 0.16  HD
BRANCH 21 23
ATOM     23  CA  VAL B   5     -22.919  -9.782  15.422  0.80 22.93 LIG 0.18  C 
BRANCH 23 24
ATOM     24  CB  VAL B   5     -23.833  -9.597  16.639  0.80 23.26 LIG 0.01  C 
ATOM     25  CG2 VAL B   5     -25.248  -9.233  16.191  0.80 23.62 LIG 0.01  C 
ATOM     26  CG1 VAL B   5     -23.279  -8.527  17.550  0.80 24.46 LIG 0.01  C 
ENDBRANCH 23 24
BRANCH 23 27
ATOM     27  C   VAL B   5     -22.763  -8.458  14.681  0.80 21.40 LIG 0.24  C 
ATOM     28  N   PRO B   6     -22.436  -8.526  13.381  0.80 20.87 LIG-0.34  N 
ATOM     29  CD  PRO B   6     -21.993  -9.666  12.567  0.80 21.07 LIG 0.13  C 
ATOM     30  CA  PRO B   6     -22.330  -7.270  12.636  0.80 20.34 LIG 0.18  C 
ATOM     31  CG  PRO B   6     -21.270  -9.007  11.422  0.80 22.12 LIG 0.02  C 
ATOM     32  CB  PRO B   6     -21.965  -7.729  11.223  0.80 19.87 LIG 0.04  C 
ATOM     33 O    VAL B   5     -22.937  -7.388  15.275  0.80 20.67 LIG-0.27  OA
BRANCH 30 34
ATOM     34  C   PRO B   6     -23.641  -6.510  12.630  0.80 20.23 LIG 0.24  C 
ATOM     35 O    PRO B   6     -23.680  -5.345  13.076  0.80 20.62 LIG-0.27  OA
ATOM     36  N   CYS B   7     -24.690  -7.150  12.110  0.80 18.87 LIG-0.34  N 
ATOM     37 H    CYS B   7     -24.683  -7.983  11.895  0.80 18.87 LIG 0.16  HD
BRANCH 36 38
ATOM     38  CA  CYS B   7     -25.972  -6.469  11.856  0.80 19.21 LIG 0.19  C 
BRANCH 38 39
ATOM     39  C   CYS B   7     -25.820  -5.355  10.840  0.80 19.13 LIG 0.20  C 
ATOM     40 O    CYS B   7     -26.597  -4.386  10.832  0.80 18.45 LIG-0.65  OA
ATOM     41 OXT  CYS B   7     -24.891  -5.375  10.037  0.80 19.35 LIG-0.65  OA
ENDBRANCH 38 39
BRANCH 38 42
ATOM     42  CB  CYS B   7     -26.588  -5.960  13.157  0.80 19.02 LIG 0.11  C 
BRANCH 42 43
ATOM     43 SG   CYS B   7     -26.520  -7.213  14.461  0.80 21.06 LIG-0.18  SA
ATOM     44 HG   CYS B   7     -25.437  -7.196  14.977  0.80 21.06 LIG 0.10  HD
ENDBRANCH 42 43
ENDBRANCH 38 42
ENDBRANCH 36 38
ENDBRANCH 30 34
ENDBRANCH 23 27
ENDBRANCH 21 23
ENDBRANCH 18 19
BRANCH 18 45
ATOM     45  CB  GLU B   4     -19.438 -10.366  18.210  0.80 27.21 LIG 0.04  C 
BRANCH 45 46
ATOM     46  CG  GLU B   4     -18.208 -11.052  18.751  0.80 28.14 LIG 0.12  C 
BRANCH 46 47
ATOM     47  CD  GLU B   4     -18.475 -12.459  19.246  0.80 29.53 LIG 0.17  C 
ATOM     48 OE1  GLU B   4     -19.272 -12.654  20.193  0.80 28.59 LIG-0.65  OA
ATOM     49 OE2  GLU B   4     -17.870 -13.384  18.672  0.80 31.57 LIG-0.65  OA
ENDBRANCH 46 47
ENDBRANCH 45 46
ENDBRANCH 18 45
ENDBRANCH 16 18
ENDBRANCH 1 14
BRANCH 1 50
ATOM     50  N   ARG B   3     -15.797  -8.124  14.892  0.80 34.16 LIG-0.35  N 
ATOM     51  C   GLU B   2     -14.669  -7.669  15.431  0.80 36.27 LIG 0.24  C 
ATOM     52 O    GLU B   2     -14.609  -6.626  16.090  0.80 35.80 LIG-0.27  OA
ATOM     53 H    ARG B   3     -15.842  -8.816  14.385  0.80 34.16 LIG 0.16  HD
BRANCH 51 54
ATOM     54  CA  GLU B   2     -13.413  -8.489  15.148  0.80 37.72 LIG 0.18  C 
BRANCH 54 55
ATOM     55  N   GLU B   2     -12.234  -7.800  15.668  0.80 39.05 LIG-0.35  N 
ATOM     56  C   GLN B   1     -11.633  -6.845  14.963  0.80 40.84 LIG 0.24  C 
ATOM     57 O    GLN B   1     -12.047  -6.458  13.866  0.80 40.79 LIG-0.27  OA
ATOM     58 H    GLU B   2     -11.976  -8.063  16.446  0.80 39.05 LIG 0.16  HD
BRANCH 56 59
ATOM     59  CA  GLN B   1     -10.377  -6.226  15.575  0.80 42.15 LIG 0.18  C 
BRANCH 59 60
ATOM     60  CB  GLN B   1     -10.721  -5.018  16.452  0.80 42.68 LIG 0.04  C 
BRANCH 60 61
ATOM     61  CG  GLN B   1     -11.978  -5.235  17.306  0.80 43.94 LIG 0.10  C 
BRANCH 61 62
ATOM     62  CD  GLN B   1     -13.171  -4.431  16.830  0.80 46.27 LIG 0.21  C 
ATOM     63 OE1  GLN B   1     -14.129  -4.222  17.576  0.80 48.62 LIG-0.27  OA
ATOM     64  NE2 GLN B   1     -13.117  -3.965  15.583  0.80 47.40 LIG-0.37  N 
ATOM     65 22HE GLN B   1     -13.767  -3.497  15.270  0.80 47.40 LIG 0.16  HD
ATOM     66 21HE GLN B   1     -12.430  -4.131  15.091  0.80 47.40 LIG 0.16  HD
ENDBRANCH 61 62
ENDBRANCH 60 61
ENDBRANCH 59 60
BRANCH 59 67
ATOM     67  N   GLN B   1      -9.474  -5.824  14.501  0.80 42.89 LIG-0.35  N 
ATOM     68  C   ACE B   0      -8.149  -5.802  14.649  0.80 43.46 LIG 0.21  C 
ATOM     69  CH3 ACE B   0      -7.382  -5.528  13.386  0.80 43.70 LIG 0.12  C 
ATOM     70 O    ACE B   0      -7.597  -6.263  15.651  0.80 44.01 LIG-0.27  OA
ATOM     71 H    GLN B   1      -9.873  -5.605  13.772  0.80 42.89 LIG 0.16  HD
ENDBRANCH 59 67
ENDBRANCH 56 59
ENDBRANCH 54 55
BRANCH 54 72
ATOM     72  CB  GLU B   2     -13.540  -9.917  15.707  0.80 37.98 LIG 0.04  C 
BRANCH 72 73
ATOM     73  CG  GLU B   2     -13.963 -10.995  14.713  0.80 38.47 LIG 0.12  C 
BRANCH 73 74
ATOM     74  CD  GLU B   2     -15.427 -11.389  14.868  0.80 38.45 LIG 0.17  C 
ATOM     75 OE1  GLU B   2     -16.274 -10.832  14.140  0.80 41.05 LIG-0.65  OA
ATOM     76 OE2  GLU B   2     -15.728 -12.262  15.703  0.80 38.47 LIG-0.65  OA
ENDBRANCH 73 74
ENDBRANCH 72 73
ENDBRANCH 54 72
ENDBRANCH 51 54
ENDBRANCH 1 50
TORSDOF 29
ENDMDL
MODEL 20
USER: ADFR SOLUTION from run 187
USER: SCORE 19.390639 LL:  -5.946 LR: -16.854 RR:   0.000 FEB:  -8.204
USER: RMSD 13.472021
USER: SEED 186
USER: STATUS searching
USER: GENES 31
USER: genes 0 Translation |==|  0.76516 0.57714 0.44178
USER: genes 1 Rotation |==|  0.49978 0.13463 0.77793 0.69813
USER: genes 2 Torsion [C]-CA--CB-[CG] |==|  0.34101
USER: genes 3 Torsion [CA]-CB--CG-[CD] |==|  0.29174
USER: genes 4 Torsion [CB]-CG--CD-[NE] |==|  0.70868
USER: genes 5 Torsion [CG]-CD--NE-[CZ] |==|  0.47276
USER: genes 6 Torsion [N]-CA--C-[N] |==|  0.07422
USER: genes 7 Torsion [C]-N--CA-[CB] |==|  0.23298
USER: genes 8 Torsion [N]-CA--C-[N] |==|  0.42975
USER: genes 9 Torsion [C]-N--CA-[CB] |==|  0.36938
USER: genes 10 Torsion [N]-CA--CB-[CG2] |==|  0.96412
USER: genes 11 Torsion [N]-CA--C-[N] |==|  0.79932
USER: genes 12 Torsion [N]-CA--C-[O] |==|  0.97692
USER: genes 13 Torsion [C]-N--CA-[C] |==|  0.63967
USER: genes 14 Torsion [N]-CA--C-[O] |==|  0.82019
USER: genes 15 Torsion [N]-CA--CB-[SG] |==|  0.86398
USER: genes 16 Torsion [CA]-CB--SG-[HG] |==|  0.10343
USER: genes 17 Torsion [N]-CA--CB-[CG] |==|  0.23485
USER: genes 18 Torsion [CA]-CB--CG-[CD] |==|  0.76574
USER: genes 19 Torsion [CB]-CG--CD-[OE2] |==|  0.16591
USER: genes 20 Torsion [CB]-CA--N-[C] |==|  0.17692
USER: genes 21 Torsion [N]-C--CA-[N] |==|  0.77778
USER: genes 22 Torsion [C]-CA--N-[C] |==|  0.73322
USER: genes 23 Torsion [N]-C--CA-[N] |==|  0.92673
USER: genes 24 Torsion [C]-CA--CB-[CG] |==|  0.18683
USER: genes 25 Torsion [CA]-CB--CG-[CD] |==|  0.14512
USER: genes 26 Torsion [CB]-CG--CD-[OE1] |==|  0.25182
USER: genes 27 Torsion [C]-CA--N-[C] |==|  0.82293
USER: genes 28 Torsion [C]-CA--CB-[CG] |==|  0.30230
USER: genes 29 Torsion [CA]-CB--CG-[CD] |==|  0.70687
USER: genes 30 Torsion [CB]-CG--CD-[OE1] |==|  0.72744
ROOT
ATOM      1  CA  ARG B   3     -12.743  -6.748  15.028  0.80 33.15 LIG 0.18  C 
ENDROOT
BRANCH 1 2
ATOM      2  CB  ARG B   3     -11.903  -5.468  15.185  0.80 33.78 LIG 0.04  C 
BRANCH 2 3
ATOM      3  CG  ARG B   3     -10.640  -5.572  16.042  0.80 35.93 LIG 0.02  C 
BRANCH 3 4
ATOM      4  CD  ARG B   3      -9.371  -5.597  15.220  0.80 39.27 LIG 0.14  C 
BRANCH 4 5
ATOM      5  NE  ARG B   3      -8.782  -6.935  15.146  0.80 40.38 LIG-0.23  N 
ATOM      6  CZ  ARG B   3      -7.776  -7.271  14.340  0.80 40.37 LIG 0.67  C 
ATOM      7  NH1 ARG B   3      -7.242  -6.367  13.534  0.80 40.12 LIG-0.23  N 
ATOM      8  NH2 ARG B   3      -7.296  -8.511  14.347  0.80 41.10 LIG-0.23  N 
ATOM      9 2HH1 ARG B   3      -6.592  -6.585  13.014  0.80 40.12 LIG 0.17  HD
ATOM     10 1HH1 ARG B   3      -7.544  -5.562  13.530  0.80 40.12 LIG 0.17  HD
ATOM     11 2HH2 ARG B   3      -6.647  -8.724  13.826  0.80 41.10 LIG 0.17  HD
ATOM     12 1HH2 ARG B   3      -7.635  -9.100  14.874  0.80 41.10 LIG 0.17  HD
ATOM     13 HE   ARG B   3      -9.106  -7.545  15.658  0.80 40.38 LIG 0.18  HD
ENDBRANCH 4 5
ENDBRANCH 3 4
ENDBRANCH 2 3
ENDBRANCH 1 2
BRANCH 1 14
ATOM     14  C   ARG B   3     -14.173  -6.530  15.495  0.80 30.98 LIG 0.24  C 
ATOM     15 O    ARG B   3     -14.413  -5.710  16.378  0.80 30.41 LIG-0.27  OA
ATOM     16  N   GLU B   4     -15.103  -7.253  14.878  0.80 28.71 LIG-0.35  N 
ATOM     17 H    GLU B   4     -14.947  -7.743  14.189  0.80 28.71 LIG 0.16  HD
BRANCH 16 18
ATOM     18  CA  GLU B   4     -16.492  -7.277  15.327  0.80 27.21 LIG 0.18  C 
BRANCH 18 19
ATOM     19  C   GLU B   4     -17.129  -8.577  14.867  0.80 25.80 LIG 0.24  C 
ATOM     20 O    GLU B   4     -16.686  -9.198  13.884  0.80 26.39 LIG-0.27  OA
ATOM     21  N   VAL B   5     -18.156  -8.995  15.592  0.80 23.72 LIG-0.35  N 
ATOM     22 H    VAL B   5     -18.423  -8.601  16.309  0.80 23.72 LIG 0.16  HD
BRANCH 21 23
ATOM     23  CA  VAL B   5     -18.935 -10.169  15.238  0.80 22.93 LIG 0.18  C 
BRANCH 23 24
ATOM     24  CB  VAL B   5     -19.166 -11.095  16.437  0.80 23.26 LIG 0.01  C 
ATOM     25  CG2 VAL B   5     -18.254 -10.700  17.598  0.80 23.62 LIG 0.01  C 
ATOM     26  CG1 VAL B   5     -18.920 -12.533  16.042  0.80 24.46 LIG 0.01  C 
ENDBRANCH 23 24
BRANCH 23 27
ATOM     27  C   VAL B   5     -20.273  -9.672  14.697  0.80 21.40 LIG 0.24  C 
ATOM     28  N   PRO B   6     -21.133  -9.159  15.589  0.80 20.87 LIG-0.34  N 
ATOM     29  CD  PRO B   6     -21.105  -9.170  17.058  0.80 21.07 LIG 0.13  C 
ATOM     30  CA  PRO B   6     -22.403  -8.629  15.088  0.80 20.34 LIG 0.18  C 
ATOM     31  CG  PRO B   6     -22.550  -8.965  17.429  0.80 22.12 LIG 0.02  C 
ATOM     32  CB  PRO B   6     -23.100  -8.130  16.355  0.80 19.87 LIG 0.04  C 
ATOM     33 O    VAL B   5     -20.523  -9.751  13.489  0.80 20.67 LIG-0.27  OA
BRANCH 30 34
ATOM     34  C   PRO B   6     -22.189  -7.492  14.110  0.80 20.23 LIG 0.24  C 
ATOM     35 O    PRO B   6     -21.043  -7.024  13.950  0.80 20.62 LIG-0.27  OA
ATOM     36  N   CYS B   7     -23.269  -7.074  13.448  0.80 18.87 LIG-0.34  N 
ATOM     37 H    CYS B   7     -24.070  -7.330  13.630  0.80 18.87 LIG 0.16  HD
BRANCH 36 38
ATOM     38  CA  CYS B   7     -23.178  -6.121  12.329  0.80 19.21 LIG 0.19  C 
BRANCH 38 39
ATOM     39  C   CYS B   7     -24.144  -4.966  12.500  0.80 19.13 LIG 0.20  C 
ATOM     40 O    CYS B   7     -25.373  -5.152  12.488  0.80 18.45 LIG-0.65  OA
ATOM     41 OXT  CYS B   7     -23.721  -3.831  12.701  0.80 19.35 LIG-0.65  OA
ENDBRANCH 38 39
BRANCH 38 42
ATOM     42  CB  CYS B   7     -23.381  -6.825  10.990  0.80 19.02 LIG 0.11  C 
BRANCH 42 43
ATOM     43 SG   CYS B   7     -22.350  -8.307  10.855  0.80 21.06 LIG-0.18  SA
ATOM     44 HG   CYS B   7     -22.293  -8.854  11.921  0.80 21.06 LIG 0.10  HD
ENDBRANCH 42 43
ENDBRANCH 38 42
ENDBRANCH 36 38
ENDBRANCH 30 34
ENDBRANCH 23 27
ENDBRANCH 21 23
ENDBRANCH 18 19
BRANCH 18 45
ATOM     45  CB  GLU B   4     -17.288  -6.098  14.771  0.80 27.21 LIG 0.04  C 
BRANCH 45 46
ATOM     46  CG  GLU B   4     -17.846  -6.321  13.387  0.80 28.14 LIG 0.12  C 
BRANCH 46 47
ATOM     47  CD  GLU B   4     -16.854  -6.014  12.283  0.80 29.53 LIG 0.17  C 
ATOM     48 OE1  GLU B   4     -17.115  -5.136  11.428  0.80 28.59 LIG-0.65  OA
ATOM     49 OE2  GLU B   4     -15.795  -6.668  12.277  0.80 31.57 LIG-0.65  OA
ENDBRANCH 46 47
ENDBRANCH 45 46
ENDBRANCH 18 45
ENDBRANCH 16 18
ENDBRANCH 1 14
BRANCH 1 50
ATOM     50  N   ARG B   3     -12.770  -7.195  13.643  0.80 34.16 LIG-0.35  N 
ATOM     51  C   GLU B   2     -11.662  -7.585  13.019  0.80 36.27 LIG 0.24  C 
ATOM     52 O    GLU B   2     -10.539  -7.518  13.531  0.80 35.80 LIG-0.27  OA
ATOM     53 H    ARG B   3     -13.548  -7.183  13.279  0.80 34.16 LIG 0.16  HD
BRANCH 51 54
ATOM     54  CA  GLU B   2     -11.840  -8.086  11.588  0.80 37.72 LIG 0.18  C 
BRANCH 54 55
ATOM     55  N   GLU B   2     -12.315  -9.468  11.593  0.80 39.05 LIG-0.35  N 
ATOM     56  C   GLN B   1     -11.465 -10.484  11.471  0.80 40.84 LIG 0.24  C 
ATOM     57 O    GLN B   1     -10.242 -10.331  11.387  0.80 40.79 LIG-0.27  OA
ATOM     58 H    GLU B   2     -13.166  -9.556  11.680  0.80 39.05 LIG 0.16  HD
BRANCH 56 59
ATOM     59  CA  GLN B   1     -12.071 -11.886  11.434  0.80 42.15 LIG 0.18  C 
BRANCH 59 60
ATOM     60  CB  GLN B   1     -12.279 -12.366   9.994  0.80 42.68 LIG 0.04  C 
BRANCH 60 61
ATOM     61  CG  GLN B   1     -10.961 -12.599   9.243  0.80 43.94 LIG 0.10  C 
BRANCH 61 62
ATOM     62  CD  GLN B   1      -9.998 -13.501   9.991  0.80 46.27 LIG 0.21  C 
ATOM     63 OE1  GLN B   1     -10.011 -14.721   9.816  0.80 48.62 LIG-0.27  OA
ATOM     64  NE2 GLN B   1      -9.148 -12.904  10.825  0.80 47.40 LIG-0.37  N 
ATOM     65 22HE GLN B   1      -8.578 -13.373  11.267  0.80 47.40 LIG 0.16  HD
ATOM     66 21HE GLN B   1      -9.168 -12.049  10.921  0.80 47.40 LIG 0.16  HD
ENDBRANCH 61 62
ENDBRANCH 60 61
ENDBRANCH 59 60
BRANCH 59 67
ATOM     67  N   GLN B   1     -13.346 -11.871  12.146  0.80 42.89 LIG-0.35  N 
ATOM     68  C   ACE B   0     -13.436 -11.608  13.450  0.80 43.46 LIG 0.21  C 
ATOM     69  CH3 ACE B   0     -14.841 -11.469  13.965  0.80 43.70 LIG 0.12  C 
ATOM     70 O    ACE B   0     -12.467 -11.213  14.104  0.80 44.01 LIG-0.27  OA
ATOM     71 H    GLN B   1     -14.025 -12.047  11.649  0.80 42.89 LIG 0.16  HD
ENDBRANCH 59 67
ENDBRANCH 56 59
ENDBRANCH 54 55
BRANCH 54 72
ATOM     72  CB  GLU B   2     -12.768  -7.160  10.783  0.80 37.98 LIG 0.04  C 
BRANCH 72 73
ATOM     73  CG  GLU B   2     -12.104  -6.311   9.703  0.80 38.47 LIG 0.12  C 
BRANCH 73 74
ATOM     74  CD  GLU B   2     -11.980  -4.846  10.107  0.80 38.45 LIG 0.17  C 
ATOM     75 OE1  GLU B   2     -12.836  -4.039   9.690  0.80 41.05 LIG-0.65  OA
ATOM     76 OE2  GLU B   2     -11.041  -4.507  10.849  0.80 38.47 LIG-0.65  OA
ENDBRANCH 73 74
ENDBRANCH 72 73
ENDBRANCH 54 72
ENDBRANCH 51 54
ENDBRANCH 1 50
TORSDOF 29
ENDMDL
MODEL 21
USER: ADFR SOLUTION from run 121
USER: SCORE 19.476481 LL:  -6.381 LR: -16.784 RR:   0.000 FEB:  -8.133
USER: RMSD 14.003971
USER: SEED 120
USER: STATUS no improvement in best in 2 clusters for 5 generations
USER: GENES 31
USER: genes 0 Translation |==|  0.70526 0.59458 0.42804
USER: genes 1 Rotation |==|  0.35867 0.84219 0.17450 0.58356
USER: genes 2 Torsion [C]-CA--CB-[CG] |==|  0.43121
USER: genes 3 Torsion [CA]-CB--CG-[CD] |==|  0.04353
USER: genes 4 Torsion [CB]-CG--CD-[NE] |==|  0.80428
USER: genes 5 Torsion [CG]-CD--NE-[CZ] |==|  0.51232
USER: genes 6 Torsion [N]-CA--C-[N] |==|  0.54445
USER: genes 7 Torsion [C]-N--CA-[CB] |==|  0.38803
USER: genes 8 Torsion [N]-CA--C-[N] |==|  0.86024
USER: genes 9 Torsion [C]-N--CA-[CB] |==|  0.80556
USER: genes 10 Torsion [N]-CA--CB-[CG2] |==|  0.87838
USER: genes 11 Torsion [N]-CA--C-[N] |==|  0.19280
USER: genes 12 Torsion [N]-CA--C-[O] |==|  0.35370
USER: genes 13 Torsion [C]-N--CA-[C] |==|  0.13118
USER: genes 14 Torsion [N]-CA--C-[O] |==|  0.19829
USER: genes 15 Torsion [N]-CA--CB-[SG] |==|  0.84887
USER: genes 16 Torsion [CA]-CB--SG-[HG] |==|  0.57611
USER: genes 17 Torsion [N]-CA--CB-[CG] |==|  0.55148
USER: genes 18 Torsion [CA]-CB--CG-[CD] |==|  0.31003
USER: genes 19 Torsion [CB]-CG--CD-[OE2] |==|  0.76003
USER: genes 20 Torsion [CB]-CA--N-[C] |==|  0.37877
USER: genes 21 Torsion [N]-C--CA-[N] |==|  0.44004
USER: genes 22 Torsion [C]-CA--N-[C] |==|  0.69596
USER: genes 23 Torsion [N]-C--CA-[N] |==|  0.96796
USER: genes 24 Torsion [C]-CA--CB-[CG] |==|  0.02008
USER: genes 25 Torsion [CA]-CB--CG-[CD] |==|  0.62636
USER: genes 26 Torsion [CB]-CG--CD-[OE1] |==|  0.28348
USER: genes 27 Torsion [C]-CA--N-[C] |==|  0.77606
USER: genes 28 Torsion [C]-CA--CB-[CG] |==|  0.29772
USER: genes 29 Torsion [CA]-CB--CG-[CD] |==|  0.94730
USER: genes 30 Torsion [CB]-CG--CD-[OE1] |==|  0.75540
ROOT
ATOM      1  CA  ARG B   3     -14.630  -6.434  14.781  0.80 33.15 LIG 0.18  C 
ENDROOT
BRANCH 1 2
ATOM      2  CB  ARG B   3     -15.608  -5.257  14.948  0.80 33.78 LIG 0.04  C 
BRANCH 2 3
ATOM      3  CG  ARG B   3     -15.093  -4.035  15.711  0.80 35.93 LIG 0.02  C 
BRANCH 3 4
ATOM      4  CD  ARG B   3     -13.588  -4.023  15.857  0.80 39.27 LIG 0.14  C 
BRANCH 4 5
ATOM      5  NE  ARG B   3     -13.110  -5.053  16.781  0.80 40.38 LIG-0.23  N 
ATOM      6  CZ  ARG B   3     -11.838  -5.201  17.150  0.80 40.37 LIG 0.67  C 
ATOM      7  NH1 ARG B   3     -10.910  -4.386  16.675  0.80 40.12 LIG-0.23  N 
ATOM      8  NH2 ARG B   3     -11.496  -6.161  18.004  0.80 41.10 LIG-0.23  N 
ATOM      9 2HH1 ARG B   3     -10.090  -4.482  16.914  0.80 40.12 LIG 0.17  HD
ATOM     10 1HH1 ARG B   3     -11.128  -3.759  16.127  0.80 40.12 LIG 0.17  HD
ATOM     11 2HH2 ARG B   3     -10.675  -6.253  18.240  0.80 41.10 LIG 0.17  HD
ATOM     12 1HH2 ARG B   3     -12.096  -6.689  18.321  0.80 41.10 LIG 0.17  HD
ATOM     13 HE   ARG B   3     -13.689  -5.599  17.108  0.80 40.38 LIG 0.18  HD
ENDBRANCH 4 5
ENDBRANCH 3 4
ENDBRANCH 2 3
ENDBRANCH 1 2
BRANCH 1 14
ATOM     14  C   ARG B   3     -15.373  -7.744  14.581  0.80 30.98 LIG 0.24  C 
ATOM     15 O    ARG B   3     -14.959  -8.569  13.771  0.80 30.41 LIG-0.27  OA
ATOM     16  N   GLU B   4     -16.448  -7.925  15.343  0.80 28.71 LIG-0.35  N 
ATOM     17 H    GLU B   4     -16.673  -7.398  15.984  0.80 28.71 LIG 0.16  HD
BRANCH 16 18
ATOM     18  CA  GLU B   4     -17.355  -9.052  15.151  0.80 27.21 LIG 0.18  C 
BRANCH 18 19
ATOM     19  C   GLU B   4     -18.562  -8.577  14.361  0.80 25.80 LIG 0.24  C 
ATOM     20 O    GLU B   4     -18.964  -9.201  13.361  0.80 26.39 LIG-0.27  OA
ATOM     21  N   VAL B   5     -19.149  -7.483  14.822  0.80 23.72 LIG-0.35  N 
ATOM     22 H    VAL B   5     -18.913  -7.087  15.548  0.80 23.72 LIG 0.16  HD
BRANCH 21 23
ATOM     23  CA  VAL B   5     -20.259  -6.844  14.134  0.80 22.93 LIG 0.18  C 
BRANCH 23 24
ATOM     24  CB  VAL B   5     -19.822  -6.177  12.825  0.80 23.26 LIG 0.01  C 
ATOM     25  CG2 VAL B   5     -18.516  -5.410  13.028  0.80 23.62 LIG 0.01  C 
ATOM     26  CG1 VAL B   5     -20.904  -5.248  12.326  0.80 24.46 LIG 0.01  C 
ENDBRANCH 23 24
BRANCH 23 27
ATOM     27  C   VAL B   5     -21.292  -7.929  13.848  0.80 21.40 LIG 0.24  C 
ATOM     28  N   PRO B   6     -21.945  -8.438  14.904  0.80 20.87 LIG-0.34  N 
ATOM     29  CD  PRO B   6     -21.700  -8.280  16.344  0.80 21.07 LIG 0.13  C 
ATOM     30  CA  PRO B   6     -22.978  -9.444  14.650  0.80 20.34 LIG 0.18  C 
ATOM     31  CG  PRO B   6     -22.366  -9.493  16.938  0.80 22.12 LIG 0.02  C 
ATOM     32  CB  PRO B   6     -23.500  -9.774  16.050  0.80 19.87 LIG 0.04  C 
ATOM     33 O    VAL B   5     -21.498  -8.301  12.687  0.80 20.67 LIG-0.27  OA
BRANCH 30 34
ATOM     34  C   PRO B   6     -24.090  -8.898  13.777  0.80 20.23 LIG 0.24  C 
ATOM     35 O    PRO B   6     -24.424  -9.516  12.746  0.80 20.62 LIG-0.27  OA
ATOM     36  N   CYS B   7     -24.670  -7.773  14.200  0.80 18.87 LIG-0.34  N 
ATOM     37 H    CYS B   7     -24.374  -7.299  14.854  0.80 18.87 LIG 0.16  HD
BRANCH 36 38
ATOM     38  CA  CYS B   7     -25.888  -7.238  13.567  0.80 19.21 LIG 0.19  C 
BRANCH 38 39
ATOM     39  C   CYS B   7     -26.934  -8.317  13.372  0.80 19.13 LIG 0.20  C 
ATOM     40 O    CYS B   7     -27.549  -8.796  14.340  0.80 18.45 LIG-0.65  OA
ATOM     41 OXT  CYS B   7     -27.221  -8.702  12.241  0.80 19.35 LIG-0.65  OA
ENDBRANCH 38 39
BRANCH 38 42
ATOM     42  CB  CYS B   7     -25.559  -6.534  12.253  0.80 19.02 LIG 0.11  C 
BRANCH 42 43
ATOM     43 SG   CYS B   7     -24.299  -5.254  12.481  0.80 21.06 LIG-0.18  SA
ATOM     44 HG   CYS B   7     -24.437  -4.403  11.647  0.80 21.06 LIG 0.10  HD
ENDBRANCH 42 43
ENDBRANCH 38 42
ENDBRANCH 36 38
ENDBRANCH 30 34
ENDBRANCH 23 27
ENDBRANCH 21 23
ENDBRANCH 18 19
BRANCH 18 45
ATOM     45  CB  GLU B   4     -17.820  -9.640  16.482  0.80 27.21 LIG 0.04  C 
BRANCH 45 46
ATOM     46  CG  GLU B   4     -18.382 -11.036  16.382  0.80 28.14 LIG 0.12  C 
BRANCH 46 47
ATOM     47  CD  GLU B   4     -17.509 -12.084  17.044  0.80 29.53 LIG 0.17  C 
ATOM     48 OE1  GLU B   4     -17.721 -12.422  18.232  0.80 28.59 LIG-0.65  OA
ATOM     49 OE2  GLU B   4     -16.596 -12.575  16.356  0.80 31.57 LIG-0.65  OA
ENDBRANCH 46 47
ENDBRANCH 45 46
ENDBRANCH 18 45
ENDBRANCH 16 18
ENDBRANCH 1 14
BRANCH 1 50
ATOM     50  N   ARG B   3     -13.742  -6.225  13.646  0.80 34.16 LIG-0.35  N 
ATOM     51  C   GLU B   2     -12.440  -6.484  13.727  0.80 36.27 LIG 0.24  C 
ATOM     52 O    GLU B   2     -11.886  -6.835  14.774  0.80 35.80 LIG-0.27  OA
ATOM     53 H    ARG B   3     -14.130  -5.925  12.940  0.80 34.16 LIG 0.16  HD
BRANCH 51 54
ATOM     54  CA  GLU B   2     -11.635  -6.276  12.447  0.80 37.72 LIG 0.18  C 
BRANCH 54 55
ATOM     55  N   GLU B   2     -10.221  -6.090  12.767  0.80 39.05 LIG-0.35  N 
ATOM     56  C   GLN B   1      -9.637  -4.904  12.620  0.80 40.84 LIG 0.24  C 
ATOM     57 O    GLN B   1     -10.247  -3.895  12.252  0.80 40.79 LIG-0.27  OA
ATOM     58 H    GLU B   2      -9.819  -6.797  13.048  0.80 39.05 LIG 0.16  HD
BRANCH 56 59
ATOM     59  CA  GLN B   1      -8.142  -4.831  12.931  0.80 42.15 LIG 0.18  C 
BRANCH 59 60
ATOM     60  CB  GLN B   1      -7.318  -4.624  11.656  0.80 42.68 LIG 0.04  C 
BRANCH 60 61
ATOM     61  CG  GLN B   1      -8.185  -4.363  10.417  0.80 43.94 LIG 0.10  C 
BRANCH 61 62
ATOM     62  CD  GLN B   1      -7.752  -5.165   9.205  0.80 46.27 LIG 0.21  C 
ATOM     63 OE1  GLN B   1      -8.369  -6.176   8.864  0.80 48.62 LIG-0.27  OA
ATOM     64  NE2 GLN B   1      -6.691  -4.712   8.538  0.80 47.40 LIG-0.37  N 
ATOM     65 22HE GLN B   1      -6.412  -5.129   7.840  0.80 47.40 LIG 0.16  HD
ATOM     66 21HE GLN B   1      -6.286  -4.002   8.806  0.80 47.40 LIG 0.16  HD
ENDBRANCH 61 62
ENDBRANCH 60 61
ENDBRANCH 59 60
BRANCH 59 67
ATOM     67  N   GLN B   1      -7.734  -6.066  13.595  0.80 42.89 LIG-0.35  N 
ATOM     68  C   ACE B   0      -7.933  -6.279  14.896  0.80 43.46 LIG 0.21  C 
ATOM     69  CH3 ACE B   0      -7.604  -7.671  15.359  0.80 43.70 LIG 0.12  C 
ATOM     70 O    ACE B   0      -8.607  -5.512  15.587  0.80 44.01 LIG-0.27  OA
ATOM     71 H    GLN B   1      -7.358  -6.636  13.072  0.80 42.89 LIG 0.16  HD
ENDBRANCH 59 67
ENDBRANCH 56 59
ENDBRANCH 54 55
BRANCH 54 72
ATOM     72  CB  GLU B   2     -11.856  -7.430  11.454  0.80 37.98 LIG 0.04  C 
BRANCH 72 73
ATOM     73  CG  GLU B   2     -12.707  -7.112  10.229  0.80 38.47 LIG 0.12  C 
BRANCH 73 74
ATOM     74  CD  GLU B   2     -13.562  -5.865  10.421  0.80 38.45 LIG 0.17  C 
ATOM     75 OE1  GLU B   2     -14.693  -5.991  10.933  0.80 41.05 LIG-0.65  OA
ATOM     76 OE2  GLU B   2     -13.099  -4.762  10.076  0.80 38.47 LIG-0.65  OA
ENDBRANCH 73 74
ENDBRANCH 72 73
ENDBRANCH 54 72
ENDBRANCH 51 54
ENDBRANCH 1 50
TORSDOF 29
ENDMDL
MODEL 22
USER: ADFR SOLUTION from run 177
USER: SCORE 19.726682 LL:  -6.720 LR: -16.759 RR:   0.000 FEB:  -8.108
USER: RMSD 13.461679
USER: SEED 176
USER: STATUS no improvement in best in 4 clusters for 5 generations
USER: GENES 31
USER: genes 0 Translation |==|  0.74466 0.57779 0.46732
USER: genes 1 Rotation |==|  0.39589 0.22464 0.86977 0.66313
USER: genes 2 Torsion [C]-CA--CB-[CG] |==|  0.36439
USER: genes 3 Torsion [CA]-CB--CG-[CD] |==|  0.23376
USER: genes 4 Torsion [CB]-CG--CD-[NE] |==|  0.26815
USER: genes 5 Torsion [CG]-CD--NE-[CZ] |==|  0.58838
USER: genes 6 Torsion [N]-CA--C-[N] |==|  0.00940
USER: genes 7 Torsion [C]-N--CA-[CB] |==|  0.26200
USER: genes 8 Torsion [N]-CA--C-[N] |==|  0.39742
USER: genes 9 Torsion [C]-N--CA-[CB] |==|  0.26319
USER: genes 10 Torsion [N]-CA--CB-[CG2] |==|  0.28446
USER: genes 11 Torsion [N]-CA--C-[N] |==|  0.46126
USER: genes 12 Torsion [N]-CA--C-[O] |==|  0.26756
USER: genes 13 Torsion [C]-N--CA-[C] |==|  0.59005
USER: genes 14 Torsion [N]-CA--C-[O] |==|  0.52130
USER: genes 15 Torsion [N]-CA--CB-[SG] |==|  0.80730
USER: genes 16 Torsion [CA]-CB--SG-[HG] |==|  0.25663
USER: genes 17 Torsion [N]-CA--CB-[CG] |==|  0.15557
USER: genes 18 Torsion [CA]-CB--CG-[CD] |==|  0.50912
USER: genes 19 Torsion [CB]-CG--CD-[OE2] |==|  0.36289
USER: genes 20 Torsion [CB]-CA--N-[C] |==|  0.85000
USER: genes 21 Torsion [N]-C--CA-[N] |==|  0.64057
USER: genes 22 Torsion [C]-CA--N-[C] |==|  0.12901
USER: genes 23 Torsion [N]-C--CA-[N] |==|  0.91524
USER: genes 24 Torsion [C]-CA--CB-[CG] |==|  0.05881
USER: genes 25 Torsion [CA]-CB--CG-[CD] |==|  0.66808
USER: genes 26 Torsion [CB]-CG--CD-[OE1] |==|  0.69482
USER: genes 27 Torsion [C]-CA--N-[C] |==|  0.76693
USER: genes 28 Torsion [C]-CA--CB-[CG] |==|  0.28653
USER: genes 29 Torsion [CA]-CB--CG-[CD] |==|  0.71155
USER: genes 30 Torsion [CB]-CG--CD-[OE1] |==|  0.99827
ROOT
ATOM      1  CA  ARG B   3     -13.389  -6.736  15.488  0.80 33.15 LIG 0.18  C 
ENDROOT
BRANCH 1 2
ATOM      2  CB  ARG B   3     -12.417  -5.635  15.028  0.80 33.78 LIG 0.04  C 
BRANCH 2 3
ATOM      3  CG  ARG B   3     -11.212  -5.357  15.930  0.80 35.93 LIG 0.02  C 
BRANCH 3 4
ATOM      4  CD  ARG B   3     -10.054  -6.295  15.670  0.80 39.27 LIG 0.14  C 
BRANCH 4 5
ATOM      5  NE  ARG B   3      -9.058  -5.713  14.769  0.80 40.38 LIG-0.23  N 
ATOM      6  CZ  ARG B   3      -8.316  -6.416  13.914  0.80 40.37 LIG 0.67  C 
ATOM      7  NH1 ARG B   3      -8.455  -7.730  13.838  0.80 40.12 LIG-0.23  N 
ATOM      8  NH2 ARG B   3      -7.441  -5.801  13.124  0.80 41.10 LIG-0.23  N 
ATOM      9 2HH1 ARG B   3      -7.976  -8.182  13.286  0.80 40.12 LIG 0.17  HD
ATOM     10 1HH1 ARG B   3      -9.026  -8.131  14.342  0.80 40.12 LIG 0.17  HD
ATOM     11 2HH2 ARG B   3      -6.964  -6.257  12.574  0.80 41.10 LIG 0.17  HD
ATOM     12 1HH2 ARG B   3      -7.351  -4.946  13.165  0.80 41.10 LIG 0.17  HD
ATOM     13 HE   ARG B   3      -8.944  -4.861  14.793  0.80 40.38 LIG 0.18  HD
ENDBRANCH 4 5
ENDBRANCH 3 4
ENDBRANCH 2 3
ENDBRANCH 1 2
BRANCH 1 14
ATOM     14  C   ARG B   3     -14.830  -6.258  15.432  0.80 30.98 LIG 0.24  C 
ATOM     15 O    ARG B   3     -15.153  -5.212  15.988  0.80 30.41 LIG-0.27  OA
ATOM     16  N   GLU B   4     -15.670  -7.021  14.738  0.80 28.71 LIG-0.35  N 
ATOM     17 H    GLU B   4     -15.421  -7.691  14.260  0.80 28.71 LIG 0.16  HD
BRANCH 16 18
ATOM     18  CA  GLU B   4     -17.110  -6.784  14.732  0.80 27.21 LIG 0.18  C 
BRANCH 18 19
ATOM     19  C   GLU B   4     -17.823  -8.123  14.664  0.80 25.80 LIG 0.24  C 
ATOM     20 O    GLU B   4     -17.358  -9.068  14.000  0.80 26.39 LIG-0.27  OA
ATOM     21  N   VAL B   5     -18.944  -8.207  15.366  0.80 23.72 LIG-0.35  N 
ATOM     22 H    VAL B   5     -19.233  -7.578  15.876  0.80 23.72 LIG 0.16  HD
BRANCH 21 23
ATOM     23  CA  VAL B   5     -19.795  -9.384  15.339  0.80 22.93 LIG 0.18  C 
BRANCH 23 24
ATOM     24  CB  VAL B   5     -19.487 -10.350  16.489  0.80 23.26 LIG 0.01  C 
ATOM     25  CG2 VAL B   5     -20.537 -10.217  17.592  0.80 23.62 LIG 0.01  C 
ATOM     26  CG1 VAL B   5     -18.107 -10.080  17.042  0.80 24.46 LIG 0.01  C 
ENDBRANCH 23 24
BRANCH 23 27
ATOM     27  C   VAL B   5     -21.237  -8.896  15.440  0.80 21.40 LIG 0.24  C 
ATOM     28  N   PRO B   6     -22.199  -9.784  15.146  0.80 20.87 LIG-0.34  N 
ATOM     29  CD  PRO B   6     -22.113 -11.117  14.534  0.80 21.07 LIG 0.13  C 
ATOM     30  CA  PRO B   6     -23.592  -9.354  15.284  0.80 20.34 LIG 0.18  C 
ATOM     31  CG  PRO B   6     -23.495 -11.326  13.974  0.80 22.12 LIG 0.02  C 
ATOM     32  CB  PRO B   6     -24.386 -10.600  14.887  0.80 19.87 LIG 0.04  C 
ATOM     33 O    VAL B   5     -21.478  -7.732  15.781  0.80 20.67 LIG-0.27  OA
BRANCH 30 34
ATOM     34  C   PRO B   6     -23.913  -8.945  16.708  0.80 20.23 LIG 0.24  C 
ATOM     35 O    PRO B   6     -23.866  -7.740  17.028  0.80 20.62 LIG-0.27  OA
ATOM     36  N   CYS B   7     -24.260  -9.930  17.539  0.80 18.87 LIG-0.34  N 
ATOM     37 H    CYS B   7     -24.197 -10.765  17.342  0.80 18.87 LIG 0.16  HD
BRANCH 36 38
ATOM     38  CA  CYS B   7     -24.788  -9.663  18.887  0.80 19.21 LIG 0.19  C 
BRANCH 38 39
ATOM     39  C   CYS B   7     -24.383 -10.745  19.869  0.80 19.13 LIG 0.20  C 
ATOM     40 O    CYS B   7     -24.849 -10.770  21.021  0.80 18.45 LIG-0.65  OA
ATOM     41 OXT  CYS B   7     -23.621 -11.641  19.520  0.80 19.35 LIG-0.65  OA
ENDBRANCH 38 39
BRANCH 38 42
ATOM     42  CB  CYS B   7     -26.303  -9.475  18.856  0.80 19.02 LIG 0.11  C 
BRANCH 42 43
ATOM     43 SG   CYS B   7     -26.765  -7.934  18.026  0.80 21.06 LIG-0.18  SA
ATOM     44 HG   CYS B   7     -26.960  -8.149  16.861  0.80 21.06 LIG 0.10  HD
ENDBRANCH 42 43
ENDBRANCH 38 42
ENDBRANCH 36 38
ENDBRANCH 30 34
ENDBRANCH 23 27
ENDBRANCH 21 23
ENDBRANCH 18 19
BRANCH 18 45
ATOM     45  CB  GLU B   4     -17.537  -5.921  13.545  0.80 27.21 LIG 0.04  C 
BRANCH 45 46
ATOM     46  CG  GLU B   4     -17.132  -6.469  12.200  0.80 28.14 LIG 0.12  C 
BRANCH 46 47
ATOM     47  CD  GLU B   4     -17.496  -5.559  11.045  0.80 29.53 LIG 0.17  C 
ATOM     48 OE1  GLU B   4     -18.656  -5.092  10.952  0.80 28.59 LIG-0.65  OA
ATOM     49 OE2  GLU B   4     -16.600  -5.308  10.218  0.80 31.57 LIG-0.65  OA
ENDBRANCH 46 47
ENDBRANCH 45 46
ENDBRANCH 18 45
ENDBRANCH 16 18
ENDBRANCH 1 14
BRANCH 1 50
ATOM     50  N   ARG B   3     -13.262  -7.930  14.664  0.80 34.16 LIG-0.35  N 
ATOM     51  C   GLU B   2     -13.367  -7.873  13.340  0.80 36.27 LIG 0.24  C 
ATOM     52 O    GLU B   2     -13.656  -6.839  12.729  0.80 35.80 LIG-0.27  OA
ATOM     53 H    ARG B   3     -13.118  -8.653  15.105  0.80 34.16 LIG 0.16  HD
BRANCH 51 54
ATOM     54  CA  GLU B   2     -13.155  -9.189  12.595  0.80 37.72 LIG 0.18  C 
BRANCH 54 55
ATOM     55  N   GLU B   2     -12.183  -9.007  11.518  0.80 39.05 LIG-0.35  N 
ATOM     56  C   GLN B   1     -11.040  -8.360  11.731  0.80 40.84 LIG 0.24  C 
ATOM     57 O    GLN B   1     -10.714  -7.916  12.836  0.80 40.79 LIG-0.27  OA
ATOM     58 H    GLU B   2     -12.415  -9.347  10.762  0.80 39.05 LIG 0.16  HD
BRANCH 56 59
ATOM     59  CA  GLN B   1     -10.119  -8.178  10.525  0.80 42.15 LIG 0.18  C 
BRANCH 59 60
ATOM     60  CB  GLN B   1     -10.410  -6.862   9.796  0.80 42.68 LIG 0.04  C 
BRANCH 60 61
ATOM     61  CG  GLN B   1     -11.132  -5.835  10.677  0.80 43.94 LIG 0.10  C 
BRANCH 61 62
ATOM     62  CD  GLN B   1     -12.488  -5.428  10.133  0.80 46.27 LIG 0.21  C 
ATOM     63 OE1  GLN B   1     -12.671  -4.299   9.675  0.80 48.62 LIG-0.27  OA
ATOM     64  NE2 GLN B   1     -13.447  -6.352  10.171  0.80 47.40 LIG-0.37  N 
ATOM     65 22HE GLN B   1     -14.231  -6.171   9.867  0.80 47.40 LIG 0.16  HD
ATOM     66 21HE GLN B   1     -13.282  -7.131  10.497  0.80 47.40 LIG 0.16  HD
ENDBRANCH 61 62
ENDBRANCH 60 61
ENDBRANCH 59 60
BRANCH 59 67
ATOM     67  N   GLN B   1     -10.301  -9.306   9.615  0.80 42.89 LIG-0.35  N 
ATOM     68  C   ACE B   0      -9.663 -10.465   9.774  0.80 43.46 LIG 0.21  C 
ATOM     69  CH3 ACE B   0     -10.107 -11.558   8.843  0.80 43.70 LIG 0.12  C 
ATOM     70 O    ACE B   0      -8.997 -10.710  10.783  0.80 44.01 LIG-0.27  OA
ATOM     71 H    GLN B   1     -10.852  -9.151   8.973  0.80 42.89 LIG 0.16  HD
ENDBRANCH 59 67
ENDBRANCH 56 59
ENDBRANCH 54 55
BRANCH 54 72
ATOM     72  CB  GLU B   2     -12.746 -10.317  13.557  0.80 37.98 LIG 0.04  C 
BRANCH 72 73
ATOM     73  CG  GLU B   2     -13.836 -11.320  13.922  0.80 38.47 LIG 0.12  C 
BRANCH 73 74
ATOM     74  CD  GLU B   2     -14.394 -11.091  15.323  0.80 38.45 LIG 0.17  C 
ATOM     75 OE1  GLU B   2     -13.921 -10.161  16.006  0.80 41.05 LIG-0.65  OA
ATOM     76 OE2  GLU B   2     -15.310 -11.828  15.731  0.80 38.47 LIG-0.65  OA
ENDBRANCH 73 74
ENDBRANCH 72 73
ENDBRANCH 54 72
ENDBRANCH 51 54
ENDBRANCH 1 50
TORSDOF 29
ENDMDL
MODEL 23
USER: ADFR SOLUTION from run 131
USER: SCORE 18.526423 LL:  -5.330 LR: -16.634 RR:   0.000 FEB:  -7.983
USER: RMSD 12.872219
USER: SEED 130
USER: STATUS no improvement in best in 4 clusters for 5 generations
USER: GENES 31
USER: genes 0 Translation |==|  0.57772 0.39301 0.49710
USER: genes 1 Rotation |==|  0.50376 0.03307 0.35953 0.61061
USER: genes 2 Torsion [C]-CA--CB-[CG] |==|  0.00457
USER: genes 3 Torsion [CA]-CB--CG-[CD] |==|  0.33613
USER: genes 4 Torsion [CB]-CG--CD-[NE] |==|  0.32749
USER: genes 5 Torsion [CG]-CD--NE-[CZ] |==|  0.45500
USER: genes 6 Torsion [N]-CA--C-[N] |==|  0.45559
USER: genes 7 Torsion [C]-N--CA-[CB] |==|  0.77964
USER: genes 8 Torsion [N]-CA--C-[N] |==|  0.21351
USER: genes 9 Torsion [C]-N--CA-[CB] |==|  0.36564
USER: genes 10 Torsion [N]-CA--CB-[CG2] |==|  0.09086
USER: genes 11 Torsion [N]-CA--C-[N] |==|  0.20005
USER: genes 12 Torsion [N]-CA--C-[O] |==|  0.74679
USER: genes 13 Torsion [C]-N--CA-[C] |==|  0.19231
USER: genes 14 Torsion [N]-CA--C-[O] |==|  0.50597
USER: genes 15 Torsion [N]-CA--CB-[SG] |==|  0.85912
USER: genes 16 Torsion [CA]-CB--SG-[HG] |==|  0.21207
USER: genes 17 Torsion [N]-CA--CB-[CG] |==|  0.50876
USER: genes 18 Torsion [CA]-CB--CG-[CD] |==|  0.41998
USER: genes 19 Torsion [CB]-CG--CD-[OE2] |==|  0.35825
USER: genes 20 Torsion [CB]-CA--N-[C] |==|  0.49149
USER: genes 21 Torsion [N]-C--CA-[N] |==|  0.11341
USER: genes 22 Torsion [C]-CA--N-[C] |==|  0.60031
USER: genes 23 Torsion [N]-C--CA-[N] |==|  0.09045
USER: genes 24 Torsion [C]-CA--CB-[CG] |==|  0.65603
USER: genes 25 Torsion [CA]-CB--CG-[CD] |==|  0.71677
USER: genes 26 Torsion [CB]-CG--CD-[OE1] |==|  0.76249
USER: genes 27 Torsion [C]-CA--N-[C] |==|  0.71627
USER: genes 28 Torsion [C]-CA--CB-[CG] |==|  0.80849
USER: genes 29 Torsion [CA]-CB--CG-[CD] |==|  0.59938
USER: genes 30 Torsion [CB]-CG--CD-[OE1] |==|  0.32208
ROOT
ATOM      1  CA  ARG B   3     -18.648 -10.062  16.024  0.80 33.15 LIG 0.18  C 
ENDROOT
BRANCH 1 2
ATOM      2  CB  ARG B   3     -18.078 -10.881  17.196  0.80 33.78 LIG 0.04  C 
BRANCH 2 3
ATOM      3  CG  ARG B   3     -19.025 -11.163  18.365  0.80 35.93 LIG 0.02  C 
BRANCH 3 4
ATOM      4  CD  ARG B   3     -19.223 -12.641  18.618  0.80 39.27 LIG 0.14  C 
BRANCH 4 5
ATOM      5  NE  ARG B   3     -18.756 -13.046  19.945  0.80 40.38 LIG-0.23  N 
ATOM      6  CZ  ARG B   3     -19.083 -14.193  20.540  0.80 40.37 LIG 0.67  C 
ATOM      7  NH1 ARG B   3     -19.879 -15.054  19.927  0.80 40.12 LIG-0.23  N 
ATOM      8  NH2 ARG B   3     -18.604 -14.483  21.745  0.80 41.10 LIG-0.23  N 
ATOM      9 2HH1 ARG B   3     -20.089 -15.794  20.311  0.80 40.12 LIG 0.17  HD
ATOM     10 1HH1 ARG B   3     -20.187 -14.874  19.144  0.80 40.12 LIG 0.17  HD
ATOM     11 2HH2 ARG B   3     -18.816 -15.223  22.126  0.80 41.10 LIG 0.17  HD
ATOM     12 1HH2 ARG B   3     -18.080 -13.929  22.144  0.80 41.10 LIG 0.17  HD
ATOM     13 HE   ARG B   3     -18.236 -12.508  20.369  0.80 40.38 LIG 0.18  HD
ENDBRANCH 4 5
ENDBRANCH 3 4
ENDBRANCH 2 3
ENDBRANCH 1 2
BRANCH 1 14
ATOM     14  C   ARG B   3     -20.085  -9.645  16.289  0.80 30.98 LIG 0.24  C 
ATOM     15 O    ARG B   3     -20.349  -8.473  16.541  0.80 30.41 LIG-0.27  OA
ATOM     16  N   GLU B   4     -20.995 -10.611  16.203  0.80 28.71 LIG-0.35  N 
ATOM     17 H    GLU B   4     -20.824 -11.404  15.919  0.80 28.71 LIG 0.16  HD
BRANCH 16 18
ATOM     18  CA  GLU B   4     -22.387 -10.403  16.591  0.80 27.21 LIG 0.18  C 
BRANCH 18 19
ATOM     19  C   GLU B   4     -22.832  -9.039  16.092  0.80 25.80 LIG 0.24  C 
ATOM     20 O    GLU B   4     -22.912  -8.066  16.864  0.80 26.39 LIG-0.27  OA
ATOM     21  N   VAL B   5     -23.104  -8.967  14.797  0.80 23.72 LIG-0.35  N 
ATOM     22 H    VAL B   5     -22.988  -9.621  14.250  0.80 23.72 LIG 0.16  HD
BRANCH 21 23
ATOM     23  CA  VAL B   5     -23.629  -7.763  14.176  0.80 22.93 LIG 0.18  C 
BRANCH 23 24
ATOM     24  CB  VAL B   5     -22.861  -7.386  12.903  0.80 23.26 LIG 0.01  C 
ATOM     25  CG2 VAL B   5     -22.365  -8.642  12.189  0.80 23.62 LIG 0.01  C 
ATOM     26  CG1 VAL B   5     -21.699  -6.482  13.243  0.80 24.46 LIG 0.01  C 
ENDBRANCH 23 24
BRANCH 23 27
ATOM     27  C   VAL B   5     -25.092  -8.034  13.841  0.80 21.40 LIG 0.24  C 
ATOM     28  N   PRO B   6     -25.949  -8.088  14.871  0.80 20.87 LIG-0.34  N 
ATOM     29  CD  PRO B   6     -25.700  -8.134  16.318  0.80 21.07 LIG 0.13  C 
ATOM     30  CA  PRO B   6     -27.367  -8.296  14.572  0.80 20.34 LIG 0.18  C 
ATOM     31  CG  PRO B   6     -26.966  -8.741  16.864  0.80 22.12 LIG 0.02  C 
ATOM     32  CB  PRO B   6     -28.024  -8.288  15.953  0.80 19.87 LIG 0.04  C 
ATOM     33 O    VAL B   5     -25.443  -8.191  12.665  0.80 20.67 LIG-0.27  OA
BRANCH 30 34
ATOM     34  C   PRO B   6     -27.926  -7.185  13.706  0.80 20.23 LIG 0.24  C 
ATOM     35 O    PRO B   6     -28.443  -6.185  14.245  0.80 20.62 LIG-0.27  OA
ATOM     36  N   CYS B   7     -27.799  -7.346  12.387  0.80 18.87 LIG-0.34  N 
ATOM     37 H    CYS B   7     -27.533  -8.076  12.019  0.80 18.87 LIG 0.16  HD
BRANCH 36 38
ATOM     38  CA  CYS B   7     -28.112  -6.266  11.436  0.80 19.21 LIG 0.19  C 
BRANCH 38 39
ATOM     39  C   CYS B   7     -27.105  -5.136  11.525  0.80 19.13 LIG 0.20  C 
ATOM     40 O    CYS B   7     -27.225  -4.115  10.826  0.80 18.45 LIG-0.65  OA
ATOM     41 OXT  CYS B   7     -26.179  -5.196  12.328  0.80 19.35 LIG-0.65  OA
ENDBRANCH 38 39
BRANCH 38 42
ATOM     42  CB  CYS B   7     -29.539  -5.760  11.630  0.80 19.02 LIG 0.11  C 
BRANCH 42 43
ATOM     43 SG   CYS B   7     -30.731  -7.122  11.646  0.80 21.06 LIG-0.18  SA
ATOM     44 HG   CYS B   7     -30.680  -7.687  12.703  0.80 21.06 LIG 0.10  HD
ENDBRANCH 42 43
ENDBRANCH 38 42
ENDBRANCH 36 38
ENDBRANCH 30 34
ENDBRANCH 23 27
ENDBRANCH 21 23
ENDBRANCH 18 19
BRANCH 18 45
ATOM     45  CB  GLU B   4     -22.570 -10.474  18.106  0.80 27.21 LIG 0.04  C 
BRANCH 45 46
ATOM     46  CG  GLU B   4     -24.001 -10.340  18.565  0.80 28.14 LIG 0.12  C 
BRANCH 46 47
ATOM     47  CD  GLU B   4     -24.284 -11.063  19.867  0.80 29.53 LIG 0.17  C 
ATOM     48 OE1  GLU B   4     -23.955 -12.264  20.005  0.80 28.59 LIG-0.65  OA
ATOM     49 OE2  GLU B   4     -24.846 -10.409  20.765  0.80 31.57 LIG-0.65  OA
ENDBRANCH 46 47
ENDBRANCH 45 46
ENDBRANCH 18 45
ENDBRANCH 16 18
ENDBRANCH 1 14
BRANCH 1 50
ATOM     50  N   ARG B   3     -17.854  -8.866  15.781  0.80 34.16 LIG-0.35  N 
ATOM     51  C   GLU B   2     -18.131  -8.042  14.774  0.80 36.27 LIG 0.24  C 
ATOM     52 O    GLU B   2     -19.012  -8.270  13.938  0.80 35.80 LIG-0.27  OA
ATOM     53 H    ARG B   3     -17.207  -8.748  16.335  0.80 34.16 LIG 0.16  HD
BRANCH 51 54
ATOM     54  CA  GLU B   2     -17.255  -6.796  14.668  0.80 37.72 LIG 0.18  C 
BRANCH 54 55
ATOM     55  N   GLU B   2     -15.861  -7.134  14.949  0.80 39.05 LIG-0.35  N 
ATOM     56  C   GLN B   1     -15.069  -6.286  15.600  0.80 40.84 LIG 0.24  C 
ATOM     57 O    GLN B   1     -15.462  -5.200  16.037  0.80 40.79 LIG-0.27  OA
ATOM     58 H    GLU B   2     -15.613  -7.906  14.662  0.80 39.05 LIG 0.16  HD
BRANCH 56 59
ATOM     59  CA  GLN B   1     -13.616  -6.715  15.794  0.80 42.15 LIG 0.18  C 
BRANCH 59 60
ATOM     60  CB  GLN B   1     -12.693  -5.502  15.947  0.80 42.68 LIG 0.04  C 
BRANCH 60 61
ATOM     61  CG  GLN B   1     -11.551  -5.483  14.921  0.80 43.94 LIG 0.10  C 
BRANCH 61 62
ATOM     62  CD  GLN B   1     -10.223  -5.935  15.496  0.80 46.27 LIG 0.21  C 
ATOM     63 OE1  GLN B   1      -9.483  -5.139  16.076  0.80 48.62 LIG-0.27  OA
ATOM     64  NE2 GLN B   1      -9.916  -7.223  15.346  0.80 47.40 LIG-0.37  N 
ATOM     65 22HE GLN B   1      -9.176  -7.528  15.661  0.80 47.40 LIG 0.16  HD
ATOM     66 21HE GLN B   1     -10.459  -7.749  14.935  0.80 47.40 LIG 0.16  HD
ENDBRANCH 61 62
ENDBRANCH 60 61
ENDBRANCH 59 60
BRANCH 59 67
ATOM     67  N   GLN B   1     -13.201  -7.518  14.647  0.80 42.89 LIG-0.35  N 
ATOM     68  C   ACE B   0     -13.119  -8.848  14.695  0.80 43.46 LIG 0.21  C 
ATOM     69  CH3 ACE B   0     -12.843  -9.506  13.372  0.80 43.70 LIG 0.12  C 
ATOM     70 O    ACE B   0     -13.533  -9.492  15.662  0.80 44.01 LIG-0.27  OA
ATOM     71 H    GLN B   1     -13.015  -7.056  13.946  0.80 42.89 LIG 0.16  HD
ENDBRANCH 59 67
ENDBRANCH 56 59
ENDBRANCH 54 55
BRANCH 54 72
ATOM     72  CB  GLU B   2     -17.419  -6.112  13.300  0.80 37.98 LIG 0.04  C 
BRANCH 72 73
ATOM     73  CG  GLU B   2     -16.861  -6.867  12.097  0.80 38.47 LIG 0.12  C 
BRANCH 73 74
ATOM     74  CD  GLU B   2     -16.264  -5.934  11.050  0.80 38.45 LIG 0.17  C 
ATOM     75 OE1  GLU B   2     -15.041  -6.009  10.813  0.80 41.05 LIG-0.65  OA
ATOM     76 OE2  GLU B   2     -17.017  -5.141  10.455  0.80 38.47 LIG-0.65  OA
ENDBRANCH 73 74
ENDBRANCH 72 73
ENDBRANCH 54 72
ENDBRANCH 51 54
ENDBRANCH 1 50
TORSDOF 29
ENDMDL
MODEL 24
USER: ADFR SOLUTION from run 159
USER: SCORE 19.423716 LL:  -6.345 LR: -16.574 RR:   0.000 FEB:  -7.924
USER: RMSD 12.214498
USER: SEED 158
USER: STATUS searching
USER: GENES 31
USER: genes 0 Translation |==|  0.62511 0.53883 0.43695
USER: genes 1 Rotation |==|  0.50529 0.69489 0.04735 0.58426
USER: genes 2 Torsion [C]-CA--CB-[CG] |==|  0.14460
USER: genes 3 Torsion [CA]-CB--CG-[CD] |==|  0.72345
USER: genes 4 Torsion [CB]-CG--CD-[NE] |==|  0.36598
USER: genes 5 Torsion [CG]-CD--NE-[CZ] |==|  0.34573
USER: genes 6 Torsion [N]-CA--C-[N] |==|  0.26913
USER: genes 7 Torsion [C]-N--CA-[CB] |==|  0.51701
USER: genes 8 Torsion [N]-CA--C-[N] |==|  0.30176
USER: genes 9 Torsion [C]-N--CA-[CB] |==|  0.44120
USER: genes 10 Torsion [N]-CA--CB-[CG2] |==|  0.90547
USER: genes 11 Torsion [N]-CA--C-[N] |==|  0.87576
USER: genes 12 Torsion [N]-CA--C-[O] |==|  0.45799
USER: genes 13 Torsion [C]-N--CA-[C] |==|  0.16098
USER: genes 14 Torsion [N]-CA--C-[O] |==|  0.09069
USER: genes 15 Torsion [N]-CA--CB-[SG] |==|  0.89159
USER: genes 16 Torsion [CA]-CB--SG-[HG] |==|  0.87740
USER: genes 17 Torsion [N]-CA--CB-[CG] |==|  0.88414
USER: genes 18 Torsion [CA]-CB--CG-[CD] |==|  0.72333
USER: genes 19 Torsion [CB]-CG--CD-[OE2] |==|  0.28478
USER: genes 20 Torsion [CB]-CA--N-[C] |==|  0.26098
USER: genes 21 Torsion [N]-C--CA-[N] |==|  0.47198
USER: genes 22 Torsion [C]-CA--N-[C] |==|  0.77031
USER: genes 23 Torsion [N]-C--CA-[N] |==|  0.41312
USER: genes 24 Torsion [C]-CA--CB-[CG] |==|  0.11263
USER: genes 25 Torsion [CA]-CB--CG-[CD] |==|  0.69656
USER: genes 26 Torsion [CB]-CG--CD-[OE1] |==|  0.55116
USER: genes 27 Torsion [C]-CA--N-[C] |==|  0.58216
USER: genes 28 Torsion [C]-CA--CB-[CG] |==|  0.26996
USER: genes 29 Torsion [CA]-CB--CG-[CD] |==|  0.70996
USER: genes 30 Torsion [CB]-CG--CD-[OE1] |==|  0.27211
ROOT
ATOM      1  CA  ARG B   3     -17.155  -7.437  14.941  0.80 33.15 LIG 0.18  C 
ENDROOT
BRANCH 1 2
ATOM      2  CB  ARG B   3     -17.405  -6.365  13.865  0.80 33.78 LIG 0.04  C 
BRANCH 2 3
ATOM      3  CG  ARG B   3     -18.782  -5.698  13.862  0.80 35.93 LIG 0.02  C 
BRANCH 3 4
ATOM      4  CD  ARG B   3     -19.715  -6.280  12.824  0.80 39.27 LIG 0.14  C 
BRANCH 4 5
ATOM      5  NE  ARG B   3     -21.033  -6.597  13.375  0.80 40.38 LIG-0.23  N 
ATOM      6  CZ  ARG B   3     -22.184  -6.129  12.891  0.80 40.37 LIG 0.67  C 
ATOM      7  NH1 ARG B   3     -22.183  -5.322  11.843  0.80 40.12 LIG-0.23  N 
ATOM      8  NH2 ARG B   3     -23.337  -6.479  13.451  0.80 41.10 LIG-0.23  N 
ATOM      9 2HH1 ARG B   3     -22.925  -5.021  11.531  0.80 40.12 LIG 0.17  HD
ATOM     10 1HH1 ARG B   3     -21.439  -5.098  11.473  0.80 40.12 LIG 0.17  HD
ATOM     11 2HH2 ARG B   3     -24.077  -6.176  13.136  0.80 41.10 LIG 0.17  HD
ATOM     12 1HH2 ARG B   3     -23.344  -7.009  14.128  0.80 41.10 LIG 0.17  HD
ATOM     13 HE   ARG B   3     -21.068  -7.120  14.057  0.80 40.38 LIG 0.18  HD
ENDBRANCH 4 5
ENDBRANCH 3 4
ENDBRANCH 2 3
ENDBRANCH 1 2
BRANCH 1 14
ATOM     14  C   ARG B   3     -18.252  -8.489  14.937  0.80 30.98 LIG 0.24  C 
ATOM     15 O    ARG B   3     -18.699  -8.907  13.872  0.80 30.41 LIG-0.27  OA
ATOM     16  N   GLU B   4     -18.651  -8.918  16.131  0.80 28.71 LIG-0.35  N 
ATOM     17 H    GLU B   4     -18.262  -8.706  16.868  0.80 28.71 LIG 0.16  HD
BRANCH 16 18
ATOM     18  CA  GLU B   4     -19.804  -9.798  16.294  0.80 27.21 LIG 0.18  C 
BRANCH 18 19
ATOM     19  C   GLU B   4     -20.996  -9.174  15.591  0.80 25.80 LIG 0.24  C 
ATOM     20 O    GLU B   4     -21.547  -8.153  16.042  0.80 26.39 LIG-0.27  OA
ATOM     21  N   VAL B   5     -21.382  -9.779  14.477  0.80 23.72 LIG-0.35  N 
ATOM     22 H    VAL B   5     -20.964 -10.446  14.130  0.80 23.72 LIG 0.16  HD
BRANCH 21 23
ATOM     23  CA  VAL B   5     -22.559  -9.367  13.732  0.80 22.93 LIG 0.18  C 
BRANCH 23 24
ATOM     24  CB  VAL B   5     -22.515  -9.835  12.273  0.80 23.26 LIG 0.01  C 
ATOM     25  CG2 VAL B   5     -21.077  -9.828  11.755  0.80 23.62 LIG 0.01  C 
ATOM     26  CG1 VAL B   5     -23.386  -8.949  11.414  0.80 24.46 LIG 0.01  C 
ENDBRANCH 23 24
BRANCH 23 27
ATOM     27  C   VAL B   5     -23.769  -9.972  14.437  0.80 21.40 LIG 0.24  C 
ATOM     28  N   PRO B   6     -23.672 -11.256  14.812  0.80 20.87 LIG-0.34  N 
ATOM     29  CD  PRO B   6     -22.664 -12.273  14.483  0.80 21.07 LIG 0.13  C 
ATOM     30  CA  PRO B   6     -24.801 -11.845  15.536  0.80 20.34 LIG 0.18  C 
ATOM     31  CG  PRO B   6     -23.397 -13.568  14.716  0.80 22.12 LIG 0.02  C 
ATOM     32  CB  PRO B   6     -24.338 -13.278  15.803  0.80 19.87 LIG 0.04  C 
ATOM     33 O    VAL B   5     -24.778  -9.286  14.641  0.80 20.67 LIG-0.27  OA
BRANCH 30 34
ATOM     34  C   PRO B   6     -25.073 -11.117  16.837  0.80 20.23 LIG 0.24  C 
ATOM     35 O    PRO B   6     -26.156 -11.300  17.430  0.80 20.62 LIG-0.27  OA
ATOM     36  N   CYS B   7     -24.096 -10.327  17.284  0.80 18.87 LIG-0.34  N 
ATOM     37 H    CYS B   7     -23.395 -10.128  16.827  0.80 18.87 LIG 0.16  HD
BRANCH 36 38
ATOM     38  CA  CYS B   7     -24.138  -9.717  18.624  0.80 19.21 LIG 0.19  C 
BRANCH 38 39
ATOM     39  C   CYS B   7     -24.249 -10.768  19.711  0.80 19.13 LIG 0.20  C 
ATOM     40 O    CYS B   7     -23.721 -11.886  19.578  0.80 18.45 LIG-0.65  OA
ATOM     41 OXT  CYS B   7     -24.826 -10.509  20.764  0.80 19.35 LIG-0.65  OA
ENDBRANCH 38 39
BRANCH 38 42
ATOM     42  CB  CYS B   7     -25.261  -8.689  18.725  0.80 19.02 LIG 0.11  C 
BRANCH 42 43
ATOM     43 SG   CYS B   7     -25.416  -7.722  17.202  0.80 21.06 LIG-0.18  SA
ATOM     44 HG   CYS B   7     -24.326  -7.396  16.821  0.80 21.06 LIG 0.10  HD
ENDBRANCH 42 43
ENDBRANCH 38 42
ENDBRANCH 36 38
ENDBRANCH 30 34
ENDBRANCH 23 27
ENDBRANCH 21 23
ENDBRANCH 18 19
BRANCH 18 45
ATOM     45  CB  GLU B   4     -20.143 -10.022  17.767  0.80 27.21 LIG 0.04  C 
BRANCH 45 46
ATOM     46  CG  GLU B   4     -18.942 -10.232  18.656  0.80 28.14 LIG 0.12  C 
BRANCH 46 47
ATOM     47  CD  GLU B   4     -18.675 -11.690  18.971  0.80 29.53 LIG 0.17  C 
ATOM     48 OE1  GLU B   4     -19.370 -12.287  19.826  0.80 28.59 LIG-0.65  OA
ATOM     49 OE2  GLU B   4     -17.751 -12.243  18.347  0.80 31.57 LIG-0.65  OA
ENDBRANCH 46 47
ENDBRANCH 45 46
ENDBRANCH 18 45
ENDBRANCH 16 18
ENDBRANCH 1 14
BRANCH 1 50
ATOM     50  N   ARG B   3     -15.874  -8.099  14.740  0.80 34.16 LIG-0.35  N 
ATOM     51  C   GLU B   2     -14.774  -7.685  15.361  0.80 36.27 LIG 0.24  C 
ATOM     52 O    GLU B   2     -14.741  -6.678  16.076  0.80 35.80 LIG-0.27  OA
ATOM     53 H    ARG B   3     -15.898  -8.764  14.195  0.80 34.16 LIG 0.16  HD
BRANCH 51 54
ATOM     54  CA  GLU B   2     -13.511  -8.504  15.105  0.80 37.72 LIG 0.18  C 
BRANCH 54 55
ATOM     55  N   GLU B   2     -12.344  -7.812  15.646  0.80 39.05 LIG-0.35  N 
ATOM     56  C   GLN B   1     -11.738  -6.849  14.956  0.80 40.84 LIG 0.24  C 
ATOM     57 O    GLN B   1     -12.139  -6.458  13.855  0.80 40.79 LIG-0.27  OA
ATOM     58 H    GLU B   2     -12.096  -8.078  16.426  0.80 39.05 LIG 0.16  HD
BRANCH 56 59
ATOM     59  CA  GLN B   1     -10.494  -6.227  15.589  0.80 42.15 LIG 0.18  C 
BRANCH 59 60
ATOM     60  CB  GLN B   1     -10.858  -5.029  16.472  0.80 42.68 LIG 0.04  C 
BRANCH 60 61
ATOM     61  CG  GLN B   1     -12.127  -5.260  17.304  0.80 43.94 LIG 0.10  C 
BRANCH 61 62
ATOM     62  CD  GLN B   1     -13.308  -4.434  16.835  0.80 46.27 LIG 0.21  C 
ATOM     63 OE1  GLN B   1     -14.277  -4.243  17.572  0.80 48.62 LIG-0.27  OA
ATOM     64  NE2 GLN B   1     -13.232  -3.929  15.604  0.80 47.40 LIG-0.37  N 
ATOM     65 22HE GLN B   1     -13.875  -3.448  15.295  0.80 47.40 LIG 0.16  HD
ATOM     66 21HE GLN B   1     -12.539  -4.084  15.118  0.80 47.40 LIG 0.16  HD
ENDBRANCH 61 62
ENDBRANCH 60 61
ENDBRANCH 59 60
BRANCH 59 67
ATOM     67  N   GLN B   1      -9.580  -5.810  14.530  0.80 42.89 LIG-0.35  N 
ATOM     68  C   ACE B   0      -8.258  -5.780  14.696  0.80 43.46 LIG 0.21  C 
ATOM     69  CH3 ACE B   0      -7.476  -5.490  13.445  0.80 43.70 LIG 0.12  C 
ATOM     70 O    ACE B   0      -7.715  -6.245  15.701  0.80 44.01 LIG-0.27  OA
ATOM     71 H    GLN B   1      -9.972  -5.588  13.798  0.80 42.89 LIG 0.16  HD
ENDBRANCH 59 67
ENDBRANCH 56 59
ENDBRANCH 54 55
BRANCH 54 72
ATOM     72  CB  GLU B   2     -13.648  -9.930  15.665  0.80 37.98 LIG 0.04  C 
BRANCH 72 73
ATOM     73  CG  GLU B   2     -14.061 -11.010  14.669  0.80 38.47 LIG 0.12  C 
BRANCH 73 74
ATOM     74  CD  GLU B   2     -15.519 -11.425  14.830  0.80 38.45 LIG 0.17  C 
ATOM     75 OE1  GLU B   2     -16.369 -10.918  14.071  0.80 41.05 LIG-0.65  OA
ATOM     76 OE2  GLU B   2     -15.810 -12.264  15.701  0.80 38.47 LIG-0.65  OA
ENDBRANCH 73 74
ENDBRANCH 72 73
ENDBRANCH 54 72
ENDBRANCH 51 54
ENDBRANCH 1 50
TORSDOF 29
ENDMDL
MODEL 25
USER: ADFR SOLUTION from run 45
USER: SCORE 21.255547 LL:  -7.190 LR: -16.543 RR:   0.000 FEB:  -7.892
USER: RMSD 13.341369
USER: SEED 44
USER: STATUS 1 or 2 clusters left
USER: GENES 31
USER: genes 0 Translation |==|  0.73659 0.50220 0.43046
USER: genes 1 Rotation |==|  0.55440 0.06445 0.69986 0.63188
USER: genes 2 Torsion [C]-CA--CB-[CG] |==|  0.59148
USER: genes 3 Torsion [CA]-CB--CG-[CD] |==|  0.70608
USER: genes 4 Torsion [CB]-CG--CD-[NE] |==|  0.30825
USER: genes 5 Torsion [CG]-CD--NE-[CZ] |==|  0.34730
USER: genes 6 Torsion [N]-CA--C-[N] |==|  0.17369
USER: genes 7 Torsion [C]-N--CA-[CB] |==|  0.85561
USER: genes 8 Torsion [N]-CA--C-[N] |==|  0.72222
USER: genes 9 Torsion [C]-N--CA-[CB] |==|  0.81646
USER: genes 10 Torsion [N]-CA--CB-[CG2] |==|  0.80993
USER: genes 11 Torsion [N]-CA--C-[N] |==|  0.24008
USER: genes 12 Torsion [N]-CA--C-[O] |==|  0.39838
USER: genes 13 Torsion [C]-N--CA-[C] |==|  0.15809
USER: genes 14 Torsion [N]-CA--C-[O] |==|  0.67665
USER: genes 15 Torsion [N]-CA--CB-[SG] |==|  0.76507
USER: genes 16 Torsion [CA]-CB--SG-[HG] |==|  0.37688
USER: genes 17 Torsion [N]-CA--CB-[CG] |==|  0.60878
USER: genes 18 Torsion [CA]-CB--CG-[CD] |==|  0.30218
USER: genes 19 Torsion [CB]-CG--CD-[OE2] |==|  0.30708
USER: genes 20 Torsion [CB]-CA--N-[C] |==|  0.79995
USER: genes 21 Torsion [N]-C--CA-[N] |==|  0.91812
USER: genes 22 Torsion [C]-CA--N-[C] |==|  0.81254
USER: genes 23 Torsion [N]-C--CA-[N] |==|  0.95305
USER: genes 24 Torsion [C]-CA--CB-[CG] |==|  0.35879
USER: genes 25 Torsion [CA]-CB--CG-[CD] |==|  0.83789
USER: genes 26 Torsion [CB]-CG--CD-[OE1] |==|  0.98411
USER: genes 27 Torsion [C]-CA--N-[C] |==|  0.82751
USER: genes 28 Torsion [C]-CA--CB-[CG] |==|  0.15012
USER: genes 29 Torsion [CA]-CB--CG-[CD] |==|  0.15599
USER: genes 30 Torsion [CB]-CG--CD-[OE1] |==|  0.66008
ROOT
ATOM      1  CA  ARG B   3     -13.643  -8.096  14.824  0.80 33.15 LIG 0.18  C 
ENDROOT
BRANCH 1 2
ATOM      2  CB  ARG B   3     -13.134  -6.941  15.705  0.80 33.78 LIG 0.04  C 
BRANCH 2 3
ATOM      3  CG  ARG B   3     -11.986  -6.100  15.143  0.80 35.93 LIG 0.02  C 
BRANCH 3 4
ATOM      4  CD  ARG B   3     -10.661  -6.390  15.813  0.80 39.27 LIG 0.14  C 
BRANCH 4 5
ATOM      5  NE  ARG B   3      -9.720  -7.066  14.918  0.80 40.38 LIG-0.23  N 
ATOM      6  CZ  ARG B   3      -8.492  -6.626  14.645  0.80 40.37 LIG 0.67  C 
ATOM      7  NH1 ARG B   3      -8.051  -5.507  15.198  0.80 40.12 LIG-0.23  N 
ATOM      8  NH2 ARG B   3      -7.701  -7.311  13.826  0.80 41.10 LIG-0.23  N 
ATOM      9 2HH1 ARG B   3      -7.258  -5.224  15.022  0.80 40.12 LIG 0.17  HD
ATOM     10 1HH1 ARG B   3      -8.557  -5.064  15.735  0.80 40.12 LIG 0.17  HD
ATOM     11 2HH2 ARG B   3      -6.910  -7.024  13.653  0.80 41.10 LIG 0.17  HD
ATOM     12 1HH2 ARG B   3      -7.981  -8.042  13.469  0.80 41.10 LIG 0.17  HD
ATOM     13 HE   ARG B   3      -9.977  -7.796  14.543  0.80 40.38 LIG 0.18  HD
ENDBRANCH 4 5
ENDBRANCH 3 4
ENDBRANCH 2 3
ENDBRANCH 1 2
BRANCH 1 14
ATOM     14  C   ARG B   3     -15.135  -8.317  15.013  0.80 30.98 LIG 0.24  C 
ATOM     15 O    ARG B   3     -15.790  -7.537  15.699  0.80 30.41 LIG-0.27  OA
ATOM     16  N   GLU B   4     -15.652  -9.365  14.379  0.80 28.71 LIG-0.35  N 
ATOM     17 H    GLU B   4     -15.216  -9.843  13.813  0.80 28.71 LIG 0.16  HD
BRANCH 16 18
ATOM     18  CA  GLU B   4     -17.028  -9.801  14.594  0.80 27.21 LIG 0.18  C 
BRANCH 18 19
ATOM     19  C   GLU B   4     -17.966  -8.758  14.013  0.80 25.80 LIG 0.24  C 
ATOM     20 O    GLU B   4     -18.217  -8.727  12.794  0.80 26.39 LIG-0.27  OA
ATOM     21  N   VAL B   5     -18.498  -7.918  14.889  0.80 23.72 LIG-0.35  N 
ATOM     22 H    VAL B   5     -18.376  -7.979  15.738  0.80 23.72 LIG 0.16  HD
BRANCH 21 23
ATOM     23  CA  VAL B   5     -19.343  -6.806  14.490  0.80 22.93 LIG 0.18  C 
BRANCH 23 24
ATOM     24  CB  VAL B   5     -18.573  -5.753  13.684  0.80 23.26 LIG 0.01  C 
ATOM     25  CG2 VAL B   5     -17.559  -5.037  14.575  0.80 23.62 LIG 0.01  C 
ATOM     26  CG1 VAL B   5     -19.533  -4.757  13.075  0.80 24.46 LIG 0.01  C 
ENDBRANCH 23 24
BRANCH 23 27
ATOM     27  C   VAL B   5     -20.475  -7.384  13.646  0.80 21.40 LIG 0.24  C 
ATOM     28  N   PRO B   6     -21.555  -7.830  14.305  0.80 20.87 LIG-0.34  N 
ATOM     29  CD  PRO B   6     -21.772  -8.053  15.741  0.80 21.07 LIG 0.13  C 
ATOM     30  CA  PRO B   6     -22.676  -8.343  13.515  0.80 20.34 LIG 0.18  C 
ATOM     31  CG  PRO B   6     -22.902  -9.048  15.765  0.80 22.12 LIG 0.02  C 
ATOM     32  CB  PRO B   6     -23.704  -8.737  14.576  0.80 19.87 LIG 0.04  C 
ATOM     33 O    VAL B   5     -20.374  -7.426  12.414  0.80 20.67 LIG-0.27  OA
BRANCH 30 34
ATOM     34  C   PRO B   6     -23.239  -7.283  12.589  0.80 20.23 LIG 0.24  C 
ATOM     35 O    PRO B   6     -23.646  -7.609  11.455  0.80 20.62 LIG-0.27  OA
ATOM     36  N   CYS B   7     -23.287  -6.042  13.076  0.80 18.87 LIG-0.34  N 
ATOM     37 H    CYS B   7     -22.918  -5.804  13.816  0.80 18.87 LIG 0.16  HD
BRANCH 36 38
ATOM     38  CA  CYS B   7     -23.988  -4.954  12.372  0.80 19.21 LIG 0.19  C 
BRANCH 38 39
ATOM     39  C   CYS B   7     -25.443  -5.298  12.125  0.80 19.13 LIG 0.20  C 
ATOM     40 O    CYS B   7     -25.886  -5.415  10.969  0.80 18.45 LIG-0.65  OA
ATOM     41 OXT  CYS B   7     -26.197  -5.511  13.070  0.80 19.35 LIG-0.65  OA
ENDBRANCH 38 39
BRANCH 38 42
ATOM     42  CB  CYS B   7     -23.271  -4.590  11.074  0.80 19.02 LIG 0.11  C 
BRANCH 42 43
ATOM     43 SG   CYS B   7     -21.927  -3.413  11.364  0.80 21.06 LIG-0.18  SA
ATOM     44 HG   CYS B   7     -20.956  -3.753  10.747  0.80 21.06 LIG 0.10  HD
ENDBRANCH 42 43
ENDBRANCH 38 42
ENDBRANCH 36 38
ENDBRANCH 30 34
ENDBRANCH 23 27
ENDBRANCH 21 23
ENDBRANCH 18 19
BRANCH 18 45
ATOM     45  CB  GLU B   4     -17.338  -9.990  16.079  0.80 27.21 LIG 0.04  C 
BRANCH 45 46
ATOM     46  CG  GLU B   4     -18.205 -11.186  16.385  0.80 28.14 LIG 0.12  C 
BRANCH 46 47
ATOM     47  CD  GLU B   4     -17.457 -12.310  17.073  0.80 29.53 LIG 0.17  C 
ATOM     48 OE1  GLU B   4     -16.596 -12.970  16.446  0.80 28.59 LIG-0.65  OA
ATOM     49 OE2  GLU B   4     -17.742 -12.532  18.264  0.80 31.57 LIG-0.65  OA
ENDBRANCH 46 47
ENDBRANCH 45 46
ENDBRANCH 18 45
ENDBRANCH 16 18
ENDBRANCH 1 14
BRANCH 1 50
ATOM     50  N   ARG B   3     -13.385  -7.839  13.415  0.80 34.16 LIG-0.35  N 
ATOM     51  C   GLU B   2     -14.071  -6.922  12.740  0.80 36.27 LIG 0.24  C 
ATOM     52 O    GLU B   2     -15.016  -6.292  13.227  0.80 35.80 LIG-0.27  OA
ATOM     53 H    ARG B   3     -12.764  -8.325  13.072  0.80 34.16 LIG 0.16  HD
BRANCH 51 54
ATOM     54  CA  GLU B   2     -13.659  -6.714  11.284  0.80 37.72 LIG 0.18  C 
BRANCH 54 55
ATOM     55  N   GLU B   2     -12.238  -7.009  11.116  0.80 39.05 LIG-0.35  N 
ATOM     56  C   GLN B   1     -11.308  -6.238  11.674  0.80 40.84 LIG 0.24  C 
ATOM     57 O    GLN B   1     -11.579  -5.266  12.387  0.80 40.79 LIG-0.27  OA
ATOM     58 H    GLU B   2     -12.069  -7.705  10.640  0.80 39.05 LIG 0.16  HD
BRANCH 56 59
ATOM     59  CA  GLN B   1      -9.852  -6.604  11.391  0.80 42.15 LIG 0.18  C 
BRANCH 59 60
ATOM     60  CB  GLN B   1      -9.222  -5.643  10.377  0.80 42.68 LIG 0.04  C 
BRANCH 60 61
ATOM     61  CG  GLN B   1      -7.883  -5.063  10.852  0.80 43.94 LIG 0.10  C 
BRANCH 61 62
ATOM     62  CD  GLN B   1      -7.989  -4.310  12.164  0.80 46.27 LIG 0.21  C 
ATOM     63 OE1  GLN B   1      -9.085  -4.117  12.694  0.80 48.62 LIG-0.27  OA
ATOM     64  NE2 GLN B   1      -6.846  -3.888  12.703  0.80 47.40 LIG-0.37  N 
ATOM     65 22HE GLN B   1      -6.855  -3.462  13.450  0.80 47.40 LIG 0.16  HD
ATOM     66 21HE GLN B   1      -6.100  -4.043  12.304  0.80 47.40 LIG 0.16  HD
ENDBRANCH 61 62
ENDBRANCH 60 61
ENDBRANCH 59 60
BRANCH 59 67
ATOM     67  N   GLN B   1      -9.796  -7.973  10.884  0.80 42.89 LIG-0.35  N 
ATOM     68  C   ACE B   0     -10.197  -9.020  11.604  0.80 43.46 LIG 0.21  C 
ATOM     69  CH3 ACE B   0     -10.225 -10.322  10.854  0.80 43.70 LIG 0.12  C 
ATOM     70 O    ACE B   0     -10.779  -8.886  12.683  0.80 44.01 LIG-0.27  OA
ATOM     71 H    GLN B   1      -9.483  -8.037  10.086  0.80 42.89 LIG 0.16  HD
ENDBRANCH 59 67
ENDBRANCH 56 59
ENDBRANCH 54 55
BRANCH 54 72
ATOM     72  CB  GLU B   2     -14.538  -7.541  10.331  0.80 37.98 LIG 0.04  C 
BRANCH 72 73
ATOM     73  CG  GLU B   2     -16.046  -7.344  10.460  0.80 38.47 LIG 0.12  C 
BRANCH 73 74
ATOM     74  CD  GLU B   2     -16.459  -5.886  10.295  0.80 38.45 LIG 0.17  C 
ATOM     75 OE1  GLU B   2     -17.087  -5.337  11.223  0.80 41.05 LIG-0.65  OA
ATOM     76 OE2  GLU B   2     -16.144  -5.288   9.250  0.80 38.47 LIG-0.65  OA
ENDBRANCH 73 74
ENDBRANCH 72 73
ENDBRANCH 54 72
ENDBRANCH 51 54
ENDBRANCH 1 50
TORSDOF 29
ENDMDL
MODEL 26
USER: ADFR SOLUTION from run 187
USER: SCORE 19.706033 LL:  -6.257 LR: -16.520 RR:   0.000 FEB:  -7.869
USER: RMSD 13.687696
USER: SEED 186
USER: STATUS searching
USER: GENES 31
USER: genes 0 Translation |==|  0.75310 0.58269 0.43873
USER: genes 1 Rotation |==|  0.44373 0.13731 0.76815 0.70829
USER: genes 2 Torsion [C]-CA--CB-[CG] |==|  0.35669
USER: genes 3 Torsion [CA]-CB--CG-[CD] |==|  0.33712
USER: genes 4 Torsion [CB]-CG--CD-[NE] |==|  0.68204
USER: genes 5 Torsion [CG]-CD--NE-[CZ] |==|  0.45211
USER: genes 6 Torsion [N]-CA--C-[N] |==|  0.09489
USER: genes 7 Torsion [C]-N--CA-[CB] |==|  0.24840
USER: genes 8 Torsion [N]-CA--C-[N] |==|  0.48782
USER: genes 9 Torsion [C]-N--CA-[CB] |==|  0.25456
USER: genes 10 Torsion [N]-CA--CB-[CG2] |==|  0.82588
USER: genes 11 Torsion [N]-CA--C-[N] |==|  0.25870
USER: genes 12 Torsion [N]-CA--C-[O] |==|  0.87810
USER: genes 13 Torsion [C]-N--CA-[C] |==|  0.63831
USER: genes 14 Torsion [N]-CA--C-[O] |==|  0.91535
USER: genes 15 Torsion [N]-CA--CB-[SG] |==|  0.92264
USER: genes 16 Torsion [CA]-CB--SG-[HG] |==|  0.17624
USER: genes 17 Torsion [N]-CA--CB-[CG] |==|  0.21976
USER: genes 18 Torsion [CA]-CB--CG-[CD] |==|  0.74657
USER: genes 19 Torsion [CB]-CG--CD-[OE2] |==|  0.16048
USER: genes 20 Torsion [CB]-CA--N-[C] |==|  0.15633
USER: genes 21 Torsion [N]-C--CA-[N] |==|  0.75951
USER: genes 22 Torsion [C]-CA--N-[C] |==|  0.73143
USER: genes 23 Torsion [N]-C--CA-[N] |==|  0.92047
USER: genes 24 Torsion [C]-CA--CB-[CG] |==|  0.18267
USER: genes 25 Torsion [CA]-CB--CG-[CD] |==|  0.14201
USER: genes 26 Torsion [CB]-CG--CD-[OE1] |==|  0.23604
USER: genes 27 Torsion [C]-CA--N-[C] |==|  0.82140
USER: genes 28 Torsion [C]-CA--CB-[CG] |==|  0.29799
USER: genes 29 Torsion [CA]-CB--CG-[CD] |==|  0.71376
USER: genes 30 Torsion [CB]-CG--CD-[OE1] |==|  0.72614
ROOT
ATOM      1  CA  ARG B   3     -13.123  -6.648  14.973  0.80 33.15 LIG 0.18  C 
ENDROOT
BRANCH 1 2
ATOM      2  CB  ARG B   3     -12.056  -5.551  15.138  0.80 33.78 LIG 0.04  C 
BRANCH 2 3
ATOM      3  CG  ARG B   3     -10.848  -5.889  16.014  0.80 35.93 LIG 0.02  C 
BRANCH 3 4
ATOM      4  CD  ARG B   3      -9.534  -5.776  15.274  0.80 39.27 LIG 0.14  C 
BRANCH 4 5
ATOM      5  NE  ARG B   3      -8.863  -7.069  15.130  0.80 40.38 LIG-0.23  N 
ATOM      6  CZ  ARG B   3      -7.884  -7.315  14.260  0.80 40.37 LIG 0.67  C 
ATOM      7  NH1 ARG B   3      -7.458  -6.358  13.452  0.80 40.12 LIG-0.23  N 
ATOM      8  NH2 ARG B   3      -7.325  -8.520  14.205  0.80 41.10 LIG-0.23  N 
ATOM      9 2HH1 ARG B   3      -6.826  -6.518  12.891  0.80 40.12 LIG 0.17  HD
ATOM     10 1HH1 ARG B   3      -7.812  -5.574  13.489  0.80 40.12 LIG 0.17  HD
ATOM     11 2HH2 ARG B   3      -6.693  -8.676  13.643  0.80 41.10 LIG 0.17  HD
ATOM     12 1HH2 ARG B   3      -7.594  -9.144  14.732  0.80 41.10 LIG 0.17  HD
ATOM     13 HE   ARG B   3      -9.117  -7.712  15.641  0.80 40.38 LIG 0.18  HD
ENDBRANCH 4 5
ENDBRANCH 3 4
ENDBRANCH 2 3
ENDBRANCH 1 2
BRANCH 1 14
ATOM     14  C   ARG B   3     -14.512  -6.117  15.287  0.80 30.98 LIG 0.24  C 
ATOM     15 O    ARG B   3     -14.645  -5.117  15.986  0.80 30.41 LIG-0.27  OA
ATOM     16  N   GLU B   4     -15.526  -6.785  14.744  0.80 28.71 LIG-0.35  N 
ATOM     17 H    GLU B   4     -15.428  -7.416  14.168  0.80 28.71 LIG 0.16  HD
BRANCH 16 18
ATOM     18  CA  GLU B   4     -16.916  -6.500  15.086  0.80 27.21 LIG 0.18  C 
BRANCH 18 19
ATOM     19  C   GLU B   4     -17.722  -7.780  14.955  0.80 25.80 LIG 0.24  C 
ATOM     20 O    GLU B   4     -17.198  -8.832  14.544  0.80 26.39 LIG-0.27  OA
ATOM     21  N   VAL B   5     -18.992  -7.693  15.324  0.80 23.72 LIG-0.35  N 
ATOM     22 H    VAL B   5     -19.339  -6.985  15.668  0.80 23.72 LIG 0.16  HD
BRANCH 21 23
ATOM     23  CA  VAL B   5     -19.924  -8.798  15.177  0.80 22.93 LIG 0.18  C 
BRANCH 23 24
ATOM     24  CB  VAL B   5     -19.982  -9.678  16.431  0.80 23.26 LIG 0.01  C 
ATOM     25  CG2 VAL B   5     -18.621 -10.324  16.690  0.80 23.62 LIG 0.01  C 
ATOM     26  CG1 VAL B   5     -21.046 -10.739  16.276  0.80 24.46 LIG 0.01  C 
ENDBRANCH 23 24
BRANCH 23 27
ATOM     27  C   VAL B   5     -21.297  -8.192  14.903  0.80 21.40 LIG 0.24  C 
ATOM     28  N   PRO B   6     -21.647  -8.042  13.616  0.80 20.87 LIG-0.34  N 
ATOM     29  CD  PRO B   6     -20.849  -8.173  12.389  0.80 21.07 LIG 0.13  C 
ATOM     30  CA  PRO B   6     -22.980  -7.510  13.326  0.80 20.34 LIG 0.18  C 
ATOM     31  CG  PRO B   6     -21.625  -7.356  11.389  0.80 22.12 LIG 0.02  C 
ATOM     32  CB  PRO B   6     -23.027  -7.493  11.797  0.80 19.87 LIG 0.04  C 
ATOM     33 O    VAL B   5     -22.032  -7.864  15.842  0.80 20.67 LIG-0.27  OA
BRANCH 30 34
ATOM     34  C   PRO B   6     -24.072  -8.398  13.888  0.80 20.23 LIG 0.24  C 
ATOM     35 O    PRO B   6     -23.989  -9.636  13.753  0.80 20.62 LIG-0.27  OA
ATOM     36  N   CYS B   7     -25.064  -7.777  14.529  0.80 18.87 LIG-0.34  N 
ATOM     37 H    CYS B   7     -25.168  -6.923  14.535  0.80 18.87 LIG 0.16  HD
BRANCH 36 38
ATOM     38  CA  CYS B   7     -26.082  -8.517  15.294  0.80 19.21 LIG 0.19  C 
BRANCH 38 39
ATOM     39  C   CYS B   7     -27.485  -8.081  14.921  0.80 19.13 LIG 0.20  C 
ATOM     40 O    CYS B   7     -27.716  -6.918  14.548  0.80 18.45 LIG-0.65  OA
ATOM     41 OXT  CYS B   7     -28.408  -8.890  14.939  0.80 19.35 LIG-0.65  OA
ENDBRANCH 38 39
BRANCH 38 42
ATOM     42  CB  CYS B   7     -25.838  -8.392  16.796  0.80 19.02 LIG 0.11  C 
BRANCH 42 43
ATOM     43 SG   CYS B   7     -24.085  -8.133  17.165  0.80 21.06 LIG-0.18  SA
ATOM     44 HG   CYS B   7     -23.726  -7.090  16.692  0.80 21.06 LIG 0.10  HD
ENDBRANCH 42 43
ENDBRANCH 38 42
ENDBRANCH 36 38
ENDBRANCH 30 34
ENDBRANCH 23 27
ENDBRANCH 21 23
ENDBRANCH 18 19
BRANCH 18 45
ATOM     45  CB  GLU B   4     -17.515  -5.428  14.176  0.80 27.21 LIG 0.04  C 
BRANCH 45 46
ATOM     46  CG  GLU B   4     -17.941  -5.931  12.820  0.80 28.14 LIG 0.12  C 
BRANCH 46 47
ATOM     47  CD  GLU B   4     -16.854  -5.823  11.770  0.80 29.53 LIG 0.17  C 
ATOM     48 OE1  GLU B   4     -17.053  -5.166  10.722  0.80 28.59 LIG-0.65  OA
ATOM     49 OE2  GLU B   4     -15.781  -6.409  12.005  0.80 31.57 LIG-0.65  OA
ENDBRANCH 46 47
ENDBRANCH 45 46
ENDBRANCH 18 45
ENDBRANCH 16 18
ENDBRANCH 1 14
BRANCH 1 50
ATOM     50  N   ARG B   3     -13.124  -7.184  13.620  0.80 34.16 LIG-0.35  N 
ATOM     51  C   GLU B   2     -12.026  -7.701  13.077  0.80 36.27 LIG 0.24  C 
ATOM     52 O    GLU B   2     -10.926  -7.689  13.639  0.80 35.80 LIG-0.27  OA
ATOM     53 H    ARG B   3     -13.883  -7.135  13.217  0.80 34.16 LIG 0.16  HD
BRANCH 51 54
ATOM     54  CA  GLU B   2     -12.181  -8.281  11.673  0.80 37.72 LIG 0.18  C 
BRANCH 54 55
ATOM     55  N   GLU B   2     -12.620  -9.673  11.749  0.80 39.05 LIG-0.35  N 
ATOM     56  C   GLN B   1     -11.744 -10.671  11.673  0.80 40.84 LIG 0.24  C 
ATOM     57 O    GLN B   1     -10.526 -10.491  11.576  0.80 40.79 LIG-0.27  OA
ATOM     58 H    GLU B   2     -13.468  -9.778  11.845  0.80 39.05 LIG 0.16  HD
BRANCH 56 59
ATOM     59  CA  GLN B   1     -12.314 -12.089  11.709  0.80 42.15 LIG 0.18  C 
BRANCH 59 60
ATOM     60  CB  GLN B   1     -12.567 -12.623  10.295  0.80 42.68 LIG 0.04  C 
BRANCH 60 61
ATOM     61  CG  GLN B   1     -11.276 -12.815   9.487  0.80 43.94 LIG 0.10  C 
BRANCH 61 62
ATOM     62  CD  GLN B   1     -10.224 -13.621  10.222  0.80 46.27 LIG 0.21  C 
ATOM     63 OE1  GLN B   1     -10.234 -14.853  10.188  0.80 48.62 LIG-0.27  OA
ATOM     64  NE2 GLN B   1      -9.300 -12.929  10.888  0.80 47.40 LIG-0.37  N 
ATOM     65 22HE GLN B   1      -8.678 -13.343  11.316  0.80 47.40 LIG 0.16  HD
ATOM     66 21HE GLN B   1      -9.325 -12.070  10.889  0.80 47.40 LIG 0.16  HD
ENDBRANCH 61 62
ENDBRANCH 60 61
ENDBRANCH 59 60
BRANCH 59 67
ATOM     67  N   GLN B   1     -13.559 -12.081  12.471  0.80 42.89 LIG-0.35  N 
ATOM     68  C   ACE B   0     -13.602 -11.786  13.770  0.80 43.46 LIG 0.21  C 
ATOM     69  CH3 ACE B   0     -14.988 -11.662  14.338  0.80 43.70 LIG 0.12  C 
ATOM     70 O    ACE B   0     -12.617 -11.354  14.374  0.80 44.01 LIG-0.27  OA
ATOM     71 H    GLN B   1     -14.254 -12.283  12.007  0.80 42.89 LIG 0.16  HD
ENDBRANCH 59 67
ENDBRANCH 56 59
ENDBRANCH 54 55
BRANCH 54 72
ATOM     72  CB  GLU B   2     -13.127  -7.423  10.816  0.80 37.98 LIG 0.04  C 
BRANCH 72 73
ATOM     73  CG  GLU B   2     -12.472  -6.587   9.720  0.80 38.47 LIG 0.12  C 
BRANCH 73 74
ATOM     74  CD  GLU B   2     -12.362  -5.114  10.097  0.80 38.45 LIG 0.17  C 
ATOM     75 OE1  GLU B   2     -13.221  -4.322   9.661  0.80 41.05 LIG-0.65  OA
ATOM     76 OE2  GLU B   2     -11.430  -4.754  10.839  0.80 38.47 LIG-0.65  OA
ENDBRANCH 73 74
ENDBRANCH 72 73
ENDBRANCH 54 72
ENDBRANCH 51 54
ENDBRANCH 1 50
TORSDOF 29
ENDMDL
MODEL 27
USER: ADFR SOLUTION from run 129
USER: SCORE 18.723223 LL:  -6.217 LR: -16.505 RR:   0.000 FEB:  -7.854
USER: RMSD 13.740849
USER: SEED 128
USER: STATUS no improvement in best in 5 clusters for 5 generations
USER: GENES 31
USER: genes 0 Translation |==|  0.69856 0.58143 0.45493
USER: genes 1 Rotation |==|  0.48839 0.15069 0.83669 0.62037
USER: genes 2 Torsion [C]-CA--CB-[CG] |==|  0.27570
USER: genes 3 Torsion [CA]-CB--CG-[CD] |==|  0.08026
USER: genes 4 Torsion [CB]-CG--CD-[NE] |==|  0.14196
USER: genes 5 Torsion [CG]-CD--NE-[CZ] |==|  0.17243
USER: genes 6 Torsion [N]-CA--C-[N] |==|  0.77129
USER: genes 7 Torsion [C]-N--CA-[CB] |==|  0.57161
USER: genes 8 Torsion [N]-CA--C-[N] |==|  0.35575
USER: genes 9 Torsion [C]-N--CA-[CB] |==|  0.27772
USER: genes 10 Torsion [N]-CA--CB-[CG2] |==|  0.58081
USER: genes 11 Torsion [N]-CA--C-[N] |==|  0.41224
USER: genes 12 Torsion [N]-CA--C-[O] |==|  0.23868
USER: genes 13 Torsion [C]-N--CA-[C] |==|  0.75464
USER: genes 14 Torsion [N]-CA--C-[O] |==|  0.43062
USER: genes 15 Torsion [N]-CA--CB-[SG] |==|  0.02133
USER: genes 16 Torsion [CA]-CB--SG-[HG] |==|  0.15081
USER: genes 17 Torsion [N]-CA--CB-[CG] |==|  0.19533
USER: genes 18 Torsion [CA]-CB--CG-[CD] |==|  0.74127
USER: genes 19 Torsion [CB]-CG--CD-[OE2] |==|  0.73408
USER: genes 20 Torsion [CB]-CA--N-[C] |==|  0.10692
USER: genes 21 Torsion [N]-C--CA-[N] |==|  0.44405
USER: genes 22 Torsion [C]-CA--N-[C] |==|  0.18777
USER: genes 23 Torsion [N]-C--CA-[N] |==|  0.45026
USER: genes 24 Torsion [C]-CA--CB-[CG] |==|  0.05680
USER: genes 25 Torsion [CA]-CB--CG-[CD] |==|  0.70848
USER: genes 26 Torsion [CB]-CG--CD-[OE1] |==|  0.58738
USER: genes 27 Torsion [C]-CA--N-[C] |==|  0.80106
USER: genes 28 Torsion [C]-CA--CB-[CG] |==|  0.14888
USER: genes 29 Torsion [CA]-CB--CG-[CD] |==|  0.70418
USER: genes 30 Torsion [CB]-CG--CD-[OE1] |==|  0.16625
ROOT
ATOM      1  CA  ARG B   3     -14.841  -6.670  15.265  0.80 33.15 LIG 0.18  C 
ENDROOT
BRANCH 1 2
ATOM      2  CB  ARG B   3     -14.344  -5.214  15.261  0.80 33.78 LIG 0.04  C 
BRANCH 2 3
ATOM      3  CG  ARG B   3     -13.815  -4.662  16.587  0.80 35.93 LIG 0.02  C 
BRANCH 3 4
ATOM      4  CD  ARG B   3     -13.222  -5.733  17.476  0.80 39.27 LIG 0.14  C 
BRANCH 4 5
ATOM      5  NE  ARG B   3     -12.238  -6.557  16.773  0.80 40.38 LIG-0.23  N 
ATOM      6  CZ  ARG B   3     -11.103  -6.094  16.251  0.80 40.37 LIG 0.67  C 
ATOM      7  NH1 ARG B   3     -10.804  -4.809  16.351  0.80 40.12 LIG-0.23  N 
ATOM      8  NH2 ARG B   3     -10.262  -6.919  15.637  0.80 41.10 LIG-0.23  N 
ATOM      9 2HH1 ARG B   3     -10.071  -4.510  16.014  0.80 40.12 LIG 0.17  HD
ATOM     10 1HH1 ARG B   3     -11.342  -4.271  16.754  0.80 40.12 LIG 0.17  HD
ATOM     11 2HH2 ARG B   3      -9.530  -6.617  15.302  0.80 41.10 LIG 0.17  HD
ATOM     12 1HH2 ARG B   3     -10.449  -7.757  15.575  0.80 41.10 LIG 0.17  HD
ATOM     13 HE   ARG B   3     -12.403  -7.398  16.691  0.80 40.38 LIG 0.18  HD
ENDBRANCH 4 5
ENDBRANCH 3 4
ENDBRANCH 2 3
ENDBRANCH 1 2
BRANCH 1 14
ATOM     14  C   ARG B   3     -16.356  -6.736  15.374  0.80 30.98 LIG 0.24  C 
ATOM     15 O    ARG B   3     -16.884  -7.572  16.102  0.80 30.41 LIG-0.27  OA
ATOM     16  N   GLU B   4     -17.029  -5.835  14.664  0.80 28.71 LIG-0.35  N 
ATOM     17 H    GLU B   4     -16.657  -5.183  14.244  0.80 28.71 LIG 0.16  HD
BRANCH 16 18
ATOM     18  CA  GLU B   4     -18.482  -5.876  14.536  0.80 27.21 LIG 0.18  C 
BRANCH 18 19
ATOM     19  C   GLU B   4     -18.931  -7.327  14.540  0.80 25.80 LIG 0.24  C 
ATOM     20 O    GLU B   4     -18.409  -8.164  13.780  0.80 26.39 LIG-0.27  OA
ATOM     21  N   VAL B   5     -19.884  -7.626  15.411  0.80 23.72 LIG-0.35  N 
ATOM     22 H    VAL B   5     -20.200  -7.065  15.980  0.80 23.72 LIG 0.16  HD
BRANCH 21 23
ATOM     23  CA  VAL B   5     -20.490  -8.945  15.482  0.80 22.93 LIG 0.18  C 
BRANCH 23 24
ATOM     24  CB  VAL B   5     -19.906  -9.790  16.620  0.80 23.26 LIG 0.01  C 
ATOM     25  CG2 VAL B   5     -19.976 -11.276  16.269  0.80 23.62 LIG 0.01  C 
ATOM     26  CG1 VAL B   5     -20.652  -9.519  17.906  0.80 24.46 LIG 0.01  C 
ENDBRANCH 23 24
BRANCH 23 27
ATOM     27  C   VAL B   5     -21.986  -8.739  15.699  0.80 21.40 LIG 0.24  C 
ATOM     28  N   PRO B   6     -22.806  -9.661  15.172  0.80 20.87 LIG-0.34  N 
ATOM     29  CD  PRO B   6     -22.533 -10.754  14.228  0.80 21.07 LIG 0.13  C 
ATOM     30  CA  PRO B   6     -24.244  -9.513  15.409  0.80 20.34 LIG 0.18  C 
ATOM     31  CG  PRO B   6     -23.885 -11.026  13.622  0.80 22.12 LIG 0.02  C 
ATOM     32  CB  PRO B   6     -24.845 -10.721  14.688  0.80 19.87 LIG 0.04  C 
ATOM     33 O    VAL B   5     -22.393  -7.761  16.335  0.80 20.67 LIG-0.27  OA
BRANCH 30 34
ATOM     34  C   PRO B   6     -24.574  -9.551  16.888  0.80 20.23 LIG 0.24  C 
ATOM     35 O    PRO B   6     -24.513  -8.501  17.560  0.80 20.62 LIG-0.27  OA
ATOM     36  N   CYS B   7     -24.942 -10.736  17.378  0.80 18.87 LIG-0.34  N 
ATOM     37 H    CYS B   7     -24.888 -11.473  16.937  0.80 18.87 LIG 0.16  HD
BRANCH 36 38
ATOM     38  CA  CYS B   7     -25.481 -10.883  18.741  0.80 19.21 LIG 0.19  C 
BRANCH 38 39
ATOM     39  C   CYS B   7     -24.376 -11.099  19.756  0.80 19.13 LIG 0.20  C 
ATOM     40 O    CYS B   7     -24.536 -10.795  20.951  0.80 18.45 LIG-0.65  OA
ATOM     41 OXT  CYS B   7     -23.320 -11.625  19.417  0.80 19.35 LIG-0.65  OA
ENDBRANCH 38 39
BRANCH 38 42
ATOM     42  CB  CYS B   7     -26.522 -11.998  18.802  0.80 19.02 LIG 0.11  C 
BRANCH 42 43
ATOM     43 SG   CYS B   7     -26.598 -12.923  17.247  0.80 21.06 LIG-0.18  SA
ATOM     44 HG   CYS B   7     -25.502 -13.322  16.965  0.80 21.06 LIG 0.10  HD
ENDBRANCH 42 43
ENDBRANCH 38 42
ENDBRANCH 36 38
ENDBRANCH 30 34
ENDBRANCH 23 27
ENDBRANCH 21 23
ENDBRANCH 18 19
BRANCH 18 45
ATOM     45  CB  GLU B   4     -18.958  -5.202  13.250  0.80 27.21 LIG 0.04  C 
BRANCH 45 46
ATOM     46  CG  GLU B   4     -18.625  -5.962  11.990  0.80 28.14 LIG 0.12  C 
BRANCH 46 47
ATOM     47  CD  GLU B   4     -17.318  -5.532  11.356  0.80 29.53 LIG 0.17  C 
ATOM     48 OE1  GLU B   4     -16.234  -6.018  11.755  0.80 28.59 LIG-0.65  OA
ATOM     49 OE2  GLU B   4     -17.385  -4.690  10.441  0.80 31.57 LIG-0.65  OA
ENDBRANCH 46 47
ENDBRANCH 45 46
ENDBRANCH 18 45
ENDBRANCH 16 18
ENDBRANCH 1 14
BRANCH 1 50
ATOM     50  N   ARG B   3     -14.431  -7.371  14.057  0.80 34.16 LIG-0.35  N 
ATOM     51  C   GLU B   2     -13.234  -7.172  13.512  0.80 36.27 LIG 0.24  C 
ATOM     52 O    GLU B   2     -12.431  -6.335  13.935  0.80 35.80 LIG-0.27  OA
ATOM     53 H    ARG B   3     -15.021  -7.909  13.739  0.80 34.16 LIG 0.16  HD
BRANCH 51 54
ATOM     54  CA  GLU B   2     -12.910  -8.015  12.281  0.80 37.72 LIG 0.18  C 
BRANCH 54 55
ATOM     55  N   GLU B   2     -11.829  -7.395  11.517  0.80 39.05 LIG-0.35  N 
ATOM     56  C   GLN B   1     -10.594  -7.329  12.010  0.80 40.84 LIG 0.24  C 
ATOM     57 O    GLN B   1     -10.280  -7.811  13.103  0.80 40.79 LIG-0.27  OA
ATOM     58 H    GLU B   2     -12.060  -7.090  10.747  0.80 39.05 LIG 0.16  HD
BRANCH 56 59
ATOM     59  CA  GLN B   1      -9.551  -6.613  11.154  0.80 42.15 LIG 0.18  C 
BRANCH 59 60
ATOM     60  CB  GLN B   1      -9.092  -7.491   9.985  0.80 42.68 LIG 0.04  C 
BRANCH 60 61
ATOM     61  CG  GLN B   1     -10.087  -8.610   9.649  0.80 43.94 LIG 0.10  C 
BRANCH 61 62
ATOM     62  CD  GLN B   1      -9.630  -9.978  10.116  0.80 46.27 LIG 0.21  C 
ATOM     63 OE1  GLN B   1      -9.939 -10.994   9.492  0.80 48.62 LIG-0.27  OA
ATOM     64  NE2 GLN B   1      -8.879 -10.011  11.217  0.80 47.40 LIG-0.37  N 
ATOM     65 22HE GLN B   1      -8.590 -10.764  11.517  0.80 47.40 LIG 0.16  HD
ATOM     66 21HE GLN B   1      -8.683  -9.281  11.626  0.80 47.40 LIG 0.16  HD
ENDBRANCH 61 62
ENDBRANCH 60 61
ENDBRANCH 59 60
BRANCH 59 67
ATOM     67  N   GLN B   1      -8.409  -6.259  11.993  0.80 42.89 LIG-0.35  N 
ATOM     68  C   ACE B   0      -8.467  -5.294  12.911  0.80 43.46 LIG 0.21  C 
ATOM     69  CH3 ACE B   0      -7.252  -5.193  13.789  0.80 43.70 LIG 0.12  C 
ATOM     70 O    ACE B   0      -9.529  -4.744  13.213  0.80 44.01 LIG-0.27  OA
ATOM     71 H    GLN B   1      -7.704  -6.727  11.839  0.80 42.89 LIG 0.16  HD
ENDBRANCH 59 67
ENDBRANCH 56 59
ENDBRANCH 54 55
BRANCH 54 72
ATOM     72  CB  GLU B   2     -12.585  -9.468  12.667  0.80 37.98 LIG 0.04  C 
BRANCH 72 73
ATOM     73  CG  GLU B   2     -13.626 -10.188  13.520  0.80 38.47 LIG 0.12  C 
BRANCH 73 74
ATOM     74  CD  GLU B   2     -13.178 -10.355  14.968  0.80 38.45 LIG 0.17  C 
ATOM     75 OE1  GLU B   2     -12.926  -9.332  15.635  0.80 41.05 LIG-0.65  OA
ATOM     76 OE2  GLU B   2     -13.093 -11.504  15.439  0.80 38.47 LIG-0.65  OA
ENDBRANCH 73 74
ENDBRANCH 72 73
ENDBRANCH 54 72
ENDBRANCH 51 54
ENDBRANCH 1 50
TORSDOF 29
ENDMDL
MODEL 28
USER: ADFR SOLUTION from run 156
USER: SCORE 17.856948 LL:  -5.460 LR: -16.449 RR:   0.000 FEB:  -7.798
USER: RMSD 12.764091
USER: SEED 155
USER: STATUS no improvement in best in 3 clusters for 5 generations
USER: GENES 31
USER: genes 0 Translation |==|  0.63463 0.56131 0.44100
USER: genes 1 Rotation |==|  0.44031 0.77856 0.11095 0.63223
USER: genes 2 Torsion [C]-CA--CB-[CG] |==|  0.11631
USER: genes 3 Torsion [CA]-CB--CG-[CD] |==|  0.73235
USER: genes 4 Torsion [CB]-CG--CD-[NE] |==|  0.46746
USER: genes 5 Torsion [CG]-CD--NE-[CZ] |==|  0.43409
USER: genes 6 Torsion [N]-CA--C-[N] |==|  0.46938
USER: genes 7 Torsion [C]-N--CA-[CB] |==|  0.26458
USER: genes 8 Torsion [N]-CA--C-[N] |==|  0.47863
USER: genes 9 Torsion [C]-N--CA-[CB] |==|  0.51192
USER: genes 10 Torsion [N]-CA--CB-[CG2] |==|  0.04985
USER: genes 11 Torsion [N]-CA--C-[N] |==|  0.45639
USER: genes 12 Torsion [N]-CA--C-[O] |==|  0.41156
USER: genes 13 Torsion [C]-N--CA-[C] |==|  0.82265
USER: genes 14 Torsion [N]-CA--C-[O] |==|  0.90149
USER: genes 15 Torsion [N]-CA--CB-[SG] |==|  0.02929
USER: genes 16 Torsion [CA]-CB--SG-[HG] |==|  0.23926
USER: genes 17 Torsion [N]-CA--CB-[CG] |==|  0.94835
USER: genes 18 Torsion [CA]-CB--CG-[CD] |==|  0.57642
USER: genes 19 Torsion [CB]-CG--CD-[OE2] |==|  0.27408
USER: genes 20 Torsion [CB]-CA--N-[C] |==|  0.87977
USER: genes 21 Torsion [N]-C--CA-[N] |==|  0.00672
USER: genes 22 Torsion [C]-CA--N-[C] |==|  0.64743
USER: genes 23 Torsion [N]-C--CA-[N] |==|  0.35065
USER: genes 24 Torsion [C]-CA--CB-[CG] |==|  0.03496
USER: genes 25 Torsion [CA]-CB--CG-[CD] |==|  0.20061
USER: genes 26 Torsion [CB]-CG--CD-[OE1] |==|  0.50592
USER: genes 27 Torsion [C]-CA--N-[C] |==|  0.17852
USER: genes 28 Torsion [C]-CA--CB-[CG] |==|  0.28174
USER: genes 29 Torsion [CA]-CB--CG-[CD] |==|  0.96949
USER: genes 30 Torsion [CB]-CG--CD-[OE1] |==|  0.76157
ROOT
ATOM      1  CA  ARG B   3     -16.855  -7.032  15.014  0.80 33.15 LIG 0.18  C 
ENDROOT
BRANCH 1 2
ATOM      2  CB  ARG B   3     -17.662  -5.838  14.474  0.80 33.78 LIG 0.04  C 
BRANCH 2 3
ATOM      3  CG  ARG B   3     -19.171  -5.852  14.728  0.80 35.93 LIG 0.02  C 
BRANCH 3 4
ATOM      4  CD  ARG B   3     -19.959  -6.395  13.558  0.80 39.27 LIG 0.14  C 
BRANCH 4 5
ATOM      5  NE  ARG B   3     -21.357  -6.661  13.903  0.80 40.38 LIG-0.23  N 
ATOM      6  CZ  ARG B   3     -22.355  -6.701  13.022  0.80 40.37 LIG 0.67  C 
ATOM      7  NH1 ARG B   3     -22.115  -6.493  11.737  0.80 40.12 LIG-0.23  N 
ATOM      8  NH2 ARG B   3     -23.595  -6.960  13.425  0.80 41.10 LIG-0.23  N 
ATOM      9 2HH1 ARG B   3     -22.760  -6.519  11.169  0.80 40.12 LIG 0.17  HD
ATOM     10 1HH1 ARG B   3     -21.313  -6.332  11.470  0.80 40.12 LIG 0.17  HD
ATOM     11 2HH2 ARG B   3     -24.237  -6.985  12.854  0.80 41.10 LIG 0.17  HD
ATOM     12 1HH2 ARG B   3     -23.755  -7.102  14.258  0.80 41.10 LIG 0.17  HD
ATOM     13 HE   ARG B   3     -21.546  -6.801  14.730  0.80 40.38 LIG 0.18  HD
ENDBRANCH 4 5
ENDBRANCH 3 4
ENDBRANCH 2 3
ENDBRANCH 1 2
BRANCH 1 14
ATOM     14  C   ARG B   3     -17.585  -8.344  14.776  0.80 30.98 LIG 0.24  C 
ATOM     15 O    ARG B   3     -17.124  -9.171  13.994  0.80 30.41 LIG-0.27  OA
ATOM     16  N   GLU B   4     -18.703  -8.522  15.473  0.80 28.71 LIG-0.35  N 
ATOM     17 H    GLU B   4     -18.965  -7.993  16.099  0.80 28.71 LIG 0.16  HD
BRANCH 16 18
ATOM     18  CA  GLU B   4     -19.597  -9.650  15.232  0.80 27.21 LIG 0.18  C 
BRANCH 18 19
ATOM     19  C   GLU B   4     -21.030  -9.185  15.424  0.80 25.80 LIG 0.24  C 
ATOM     20 O    GLU B   4     -21.285  -8.046  15.857  0.80 26.39 LIG-0.27  OA
ATOM     21  N   VAL B   5     -21.964 -10.062  15.083  0.80 23.72 LIG-0.35  N 
ATOM     22 H    VAL B   5     -21.791 -10.824  14.724  0.80 23.72 LIG 0.16  HD
BRANCH 21 23
ATOM     23  CA  VAL B   5     -23.380  -9.812  15.288  0.80 22.93 LIG 0.18  C 
BRANCH 23 24
ATOM     24  CB  VAL B   5     -24.243 -11.022  14.908  0.80 23.26 LIG 0.01  C 
ATOM     25  CG2 VAL B   5     -23.387 -12.286  14.843  0.80 23.62 LIG 0.01  C 
ATOM     26  CG1 VAL B   5     -24.924 -10.781  13.581  0.80 24.46 LIG 0.01  C 
ENDBRANCH 23 24
BRANCH 23 27
ATOM     27  C   VAL B   5     -23.568  -9.482  16.765  0.80 21.40 LIG 0.24  C 
ATOM     28  N   PRO B   6     -24.728  -8.906  17.115  0.80 20.87 LIG-0.34  N 
ATOM     29  CD  PRO B   6     -25.799  -8.338  16.285  0.80 21.07 LIG 0.13  C 
ATOM     30  CA  PRO B   6     -24.953  -8.625  18.534  0.80 20.34 LIG 0.18  C 
ATOM     31  CG  PRO B   6     -26.492  -7.388  17.226  0.80 22.12 LIG 0.02  C 
ATOM     32  CB  PRO B   6     -26.348  -7.999  18.552  0.80 19.87 LIG 0.04  C 
ATOM     33 O    VAL B   5     -22.675  -9.745  17.580  0.80 20.67 LIG-0.27  OA
BRANCH 30 34
ATOM     34  C   PRO B   6     -24.922  -9.891  19.367  0.80 20.23 LIG 0.24  C 
ATOM     35 O    PRO B   6     -24.505  -9.845  20.543  0.80 20.62 LIG-0.27  OA
ATOM     36  N   CYS B   7     -25.381 -10.996  18.775  0.80 18.87 LIG-0.34  N 
ATOM     37 H    CYS B   7     -25.575 -11.044  17.939  0.80 18.87 LIG 0.16  HD
BRANCH 36 38
ATOM     38  CA  CYS B   7     -25.597 -12.247  19.521  0.80 19.21 LIG 0.19  C 
BRANCH 38 39
ATOM     39  C   CYS B   7     -24.297 -12.801  20.070  0.80 19.13 LIG 0.20  C 
ATOM     40 O    CYS B   7     -23.235 -12.691  19.433  0.80 18.45 LIG-0.65  OA
ATOM     41 OXT  CYS B   7     -24.270 -13.327  21.179  0.80 19.35 LIG-0.65  OA
ENDBRANCH 38 39
BRANCH 38 42
ATOM     42  CB  CYS B   7     -26.326 -13.278  18.663  0.80 19.02 LIG 0.11  C 
BRANCH 42 43
ATOM     43 SG   CYS B   7     -26.417 -12.758  16.932  0.80 21.06 LIG-0.18  SA
ATOM     44 HG   CYS B   7     -25.419 -13.098  16.358  0.80 21.06 LIG 0.10  HD
ENDBRANCH 42 43
ENDBRANCH 38 42
ENDBRANCH 36 38
ENDBRANCH 30 34
ENDBRANCH 23 27
ENDBRANCH 21 23
ENDBRANCH 18 19
BRANCH 18 45
ATOM     45  CB  GLU B   4     -19.311 -10.814  16.180  0.80 27.21 LIG 0.04  C 
BRANCH 45 46
ATOM     46  CG  GLU B   4     -17.951 -10.764  16.832  0.80 28.14 LIG 0.12  C 
BRANCH 46 47
ATOM     47  CD  GLU B   4     -17.411 -12.131  17.201  0.80 29.53 LIG 0.17  C 
ATOM     48 OE1  GLU B   4     -17.786 -12.692  18.257  0.80 28.59 LIG-0.65  OA
ATOM     49 OE2  GLU B   4     -16.597 -12.648  16.415  0.80 31.57 LIG-0.65  OA
ENDBRANCH 46 47
ENDBRANCH 45 46
ENDBRANCH 18 45
ENDBRANCH 16 18
ENDBRANCH 1 14
BRANCH 1 50
ATOM     50  N   ARG B   3     -15.543  -7.110  14.388  0.80 34.16 LIG-0.35  N 
ATOM     51  C   GLU B   2     -15.386  -6.928  13.080  0.80 36.27 LIG 0.24  C 
ATOM     52 O    GLU B   2     -16.333  -6.766  12.303  0.80 35.80 LIG-0.27  OA
ATOM     53 H    ARG B   3     -14.898  -7.280  14.931  0.80 34.16 LIG 0.16  HD
BRANCH 51 54
ATOM     54  CA  GLU B   2     -13.950  -6.978  12.564  0.80 37.72 LIG 0.18  C 
BRANCH 54 55
ATOM     55  N   GLU B   2     -13.032  -7.282  13.660  0.80 39.05 LIG-0.35  N 
ATOM     56  C   GLN B   1     -11.981  -6.505  13.907  0.80 40.84 LIG 0.24  C 
ATOM     57 O    GLN B   1     -11.741  -5.475  13.268  0.80 40.79 LIG-0.27  OA
ATOM     58 H    GLU B   2     -13.231  -7.987  14.111  0.80 39.05 LIG 0.16  HD
BRANCH 56 59
ATOM     59  CA  GLN B   1     -11.055  -6.943  15.041  0.80 42.15 LIG 0.18  C 
BRANCH 59 60
ATOM     60  CB  GLN B   1     -11.125  -5.972  16.224  0.80 42.68 LIG 0.04  C 
BRANCH 60 61
ATOM     61  CG  GLN B   1     -12.303  -4.992  16.127  0.80 43.94 LIG 0.10  C 
BRANCH 61 62
ATOM     62  CD  GLN B   1     -13.647  -5.647  16.380  0.80 46.27 LIG 0.21  C 
ATOM     63 OE1  GLN B   1     -14.690  -4.997  16.299  0.80 48.62 LIG-0.27  OA
ATOM     64  NE2 GLN B   1     -13.631  -6.945  16.680  0.80 47.40 LIG-0.37  N 
ATOM     65 22HE GLN B   1     -14.369  -7.362  16.825  0.80 47.40 LIG 0.16  HD
ATOM     66 21HE GLN B   1     -12.882  -7.366  16.728  0.80 47.40 LIG 0.16  HD
ENDBRANCH 61 62
ENDBRANCH 60 61
ENDBRANCH 59 60
BRANCH 59 67
ATOM     67  N   GLN B   1      -9.687  -7.017  14.535  0.80 42.89 LIG-0.35  N 
ATOM     68  C   ACE B   0      -9.024  -5.945  14.100  0.80 43.46 LIG 0.21  C 
ATOM     69  CH3 ACE B   0      -7.576  -6.191  13.782  0.80 43.70 LIG 0.12  C 
ATOM     70 O    ACE B   0      -9.469  -4.803  14.238  0.80 44.01 LIG-0.27  OA
ATOM     71 H    GLN B   1      -9.354  -7.810  14.544  0.80 42.89 LIG 0.16  HD
ENDBRANCH 59 67
ENDBRANCH 56 59
ENDBRANCH 54 55
BRANCH 54 72
ATOM     72  CB  GLU B   2     -13.809  -7.973  11.399  0.80 37.98 LIG 0.04  C 
BRANCH 72 73
ATOM     73  CG  GLU B   2     -13.763  -7.370   9.999  0.80 38.47 LIG 0.12  C 
BRANCH 73 74
ATOM     74  CD  GLU B   2     -14.132  -5.891   9.988  0.80 38.45 LIG 0.17  C 
ATOM     75 OE1  GLU B   2     -15.338  -5.579   9.914  0.80 41.05 LIG-0.65  OA
ATOM     76 OE2  GLU B   2     -13.223  -5.045  10.069  0.80 38.47 LIG-0.65  OA
ENDBRANCH 73 74
ENDBRANCH 72 73
ENDBRANCH 54 72
ENDBRANCH 51 54
ENDBRANCH 1 50
TORSDOF 29
ENDMDL
MODEL 29
USER: ADFR SOLUTION from run 171
USER: SCORE 21.451986 LL:  -6.419 LR: -16.450 RR:   0.000 FEB:  -7.800
USER: RMSD 12.989668
USER: SEED 170
USER: STATUS no improvement in best in 4 clusters for 5 generations
USER: GENES 31
USER: genes 0 Translation |==|  0.67804 0.58998 0.46683
USER: genes 1 Rotation |==|  0.31613 0.23082 0.85178 0.64136
USER: genes 2 Torsion [C]-CA--CB-[CG] |==|  0.27438
USER: genes 3 Torsion [CA]-CB--CG-[CD] |==|  0.23122
USER: genes 4 Torsion [CB]-CG--CD-[NE] |==|  0.10591
USER: genes 5 Torsion [CG]-CD--NE-[CZ] |==|  0.22163
USER: genes 6 Torsion [N]-CA--C-[N] |==|  0.12666
USER: genes 7 Torsion [C]-N--CA-[CB] |==|  0.18180
USER: genes 8 Torsion [N]-CA--C-[N] |==|  0.08275
USER: genes 9 Torsion [C]-N--CA-[CB] |==|  0.54444
USER: genes 10 Torsion [N]-CA--CB-[CG2] |==|  0.88976
USER: genes 11 Torsion [N]-CA--C-[N] |==|  0.34479
USER: genes 12 Torsion [N]-CA--C-[O] |==|  0.36114
USER: genes 13 Torsion [C]-N--CA-[C] |==|  0.67975
USER: genes 14 Torsion [N]-CA--C-[O] |==|  0.39111
USER: genes 15 Torsion [N]-CA--CB-[SG] |==|  0.86541
USER: genes 16 Torsion [CA]-CB--SG-[HG] |==|  0.77978
USER: genes 17 Torsion [N]-CA--CB-[CG] |==|  0.11750
USER: genes 18 Torsion [CA]-CB--CG-[CD] |==|  0.70203
USER: genes 19 Torsion [CB]-CG--CD-[OE2] |==|  0.79071
USER: genes 20 Torsion [CB]-CA--N-[C] |==|  0.18219
USER: genes 21 Torsion [N]-C--CA-[N] |==|  0.17703
USER: genes 22 Torsion [C]-CA--N-[C] |==|  0.17197
USER: genes 23 Torsion [N]-C--CA-[N] |==|  0.43085
USER: genes 24 Torsion [C]-CA--CB-[CG] |==|  0.66068
USER: genes 25 Torsion [CA]-CB--CG-[CD] |==|  0.25464
USER: genes 26 Torsion [CB]-CG--CD-[OE1] |==|  0.78516
USER: genes 27 Torsion [C]-CA--N-[C] |==|  0.78817
USER: genes 28 Torsion [C]-CA--CB-[CG] |==|  0.44478
USER: genes 29 Torsion [CA]-CB--CG-[CD] |==|  0.92750
USER: genes 30 Torsion [CB]-CG--CD-[OE1] |==|  0.27169
ROOT
ATOM      1  CA  ARG B   3     -15.488  -6.516  15.479  0.80 33.15 LIG 0.18  C 
ENDROOT
BRANCH 1 2
ATOM      2  CB  ARG B   3     -14.270  -5.607  15.239  0.80 33.78 LIG 0.04  C 
BRANCH 2 3
ATOM      3  CG  ARG B   3     -13.794  -4.764  16.425  0.80 35.93 LIG 0.02  C 
BRANCH 3 4
ATOM      4  CD  ARG B   3     -12.889  -5.528  17.365  0.80 39.27 LIG 0.14  C 
BRANCH 4 5
ATOM      5  NE  ARG B   3     -11.979  -6.428  16.653  0.80 40.38 LIG-0.23  N 
ATOM      6  CZ  ARG B   3     -10.854  -6.041  16.054  0.80 40.37 LIG 0.67  C 
ATOM      7  NH1 ARG B   3     -10.493  -4.768  16.078  0.80 40.12 LIG-0.23  N 
ATOM      8  NH2 ARG B   3     -10.083  -6.932  15.439  0.80 41.10 LIG-0.23  N 
ATOM      9 2HH1 ARG B   3      -9.766  -4.520  15.692  0.80 40.12 LIG 0.17  HD
ATOM     10 1HH1 ARG B   3     -10.985  -4.189  16.482  0.80 40.12 LIG 0.17  HD
ATOM     11 2HH2 ARG B   3      -9.357  -6.679  15.053  0.80 41.10 LIG 0.17  HD
ATOM     12 1HH2 ARG B   3     -10.309  -7.761  15.426  0.80 41.10 LIG 0.17  HD
ATOM     13 HE   ARG B   3     -12.186  -7.262  16.620  0.80 40.38 LIG 0.18  HD
ENDBRANCH 4 5
ENDBRANCH 3 4
ENDBRANCH 2 3
ENDBRANCH 1 2
BRANCH 1 14
ATOM     14  C   ARG B   3     -16.765  -5.874  14.964  0.80 30.98 LIG 0.24  C 
ATOM     15 O    ARG B   3     -16.764  -4.697  14.615  0.80 30.41 LIG-0.27  OA
ATOM     16  N   GLU B   4     -17.831  -6.667  14.904  0.80 28.71 LIG-0.35  N 
ATOM     17 H    GLU B   4     -17.803  -7.515  15.043  0.80 28.71 LIG 0.16  HD
BRANCH 16 18
ATOM     18  CA  GLU B   4     -19.162  -6.157  14.590  0.80 27.21 LIG 0.18  C 
BRANCH 18 19
ATOM     19  C   GLU B   4     -20.167  -7.283  14.755  0.80 25.80 LIG 0.24  C 
ATOM     20 O    GLU B   4     -21.200  -7.331  14.062  0.80 26.39 LIG-0.27  OA
ATOM     21  N   VAL B   5     -19.853  -8.198  15.661  0.80 23.72 LIG-0.35  N 
ATOM     22 H    VAL B   5     -19.110  -8.202  16.094  0.80 23.72 LIG 0.16  HD
BRANCH 21 23
ATOM     23  CA  VAL B   5     -20.745  -9.291  16.007  0.80 22.93 LIG 0.18  C 
BRANCH 23 24
ATOM     24  CB  VAL B   5     -20.347  -9.970  17.323  0.80 23.26 LIG 0.01  C 
ATOM     25  CG2 VAL B   5     -18.826 -10.092  17.420  0.80 23.62 LIG 0.01  C 
ATOM     26  CG1 VAL B   5     -20.990 -11.334  17.423  0.80 24.46 LIG 0.01  C 
ENDBRANCH 23 24
BRANCH 23 27
ATOM     27  C   VAL B   5     -22.148  -8.703  16.128  0.80 21.40 LIG 0.24  C 
ATOM     28  N   PRO B   6     -23.104  -9.254  15.365  0.80 20.87 LIG-0.34  N 
ATOM     29  CD  PRO B   6     -23.005 -10.214  14.258  0.80 21.07 LIG 0.13  C 
ATOM     30  CA  PRO B   6     -24.468  -8.740  15.501  0.80 20.34 LIG 0.18  C 
ATOM     31  CG  PRO B   6     -24.284  -9.988  13.495  0.80 22.12 LIG 0.02  C 
ATOM     32  CB  PRO B   6     -25.265  -9.594  14.513  0.80 19.87 LIG 0.04  C 
ATOM     33 O    VAL B   5     -22.363  -7.763  16.903  0.80 20.67 LIG-0.27  OA
BRANCH 30 34
ATOM     34  C   PRO B   6     -24.996  -8.917  16.910  0.80 20.23 LIG 0.24  C 
ATOM     35 O    PRO B   6     -25.512  -7.946  17.501  0.80 20.62 LIG-0.27  OA
ATOM     36  N   CYS B   7     -24.892 -10.143  17.427  0.80 18.87 LIG-0.34  N 
ATOM     37 H    CYS B   7     -24.450 -10.781  17.058  0.80 18.87 LIG 0.16  HD
BRANCH 36 38
ATOM     38  CA  CYS B   7     -25.538 -10.509  18.700  0.80 19.21 LIG 0.19  C 
BRANCH 38 39
ATOM     39  C   CYS B   7     -24.515 -10.850  19.766  0.80 19.13 LIG 0.20  C 
ATOM     40 O    CYS B   7     -24.679 -10.497  20.946  0.80 18.45 LIG-0.65  OA
ATOM     41 OXT  CYS B   7     -23.529 -11.525  19.482  0.80 19.35 LIG-0.65  OA
ENDBRANCH 38 39
BRANCH 38 42
ATOM     42  CB  CYS B   7     -26.537 -11.646  18.500  0.80 19.02 LIG 0.11  C 
BRANCH 42 43
ATOM     43 SG   CYS B   7     -27.642 -11.322  17.103  0.80 21.06 LIG-0.18  SA
ATOM     44 HG   CYS B   7     -28.503 -10.559  17.441  0.80 21.06 LIG 0.10  HD
ENDBRANCH 42 43
ENDBRANCH 38 42
ENDBRANCH 36 38
ENDBRANCH 30 34
ENDBRANCH 23 27
ENDBRANCH 21 23
ENDBRANCH 18 19
BRANCH 18 45
ATOM     45  CB  GLU B   4     -19.239  -5.613  13.165  0.80 27.21 LIG 0.04  C 
BRANCH 45 46
ATOM     46  CG  GLU B   4     -18.542  -6.467  12.135  0.80 28.14 LIG 0.12  C 
BRANCH 46 47
ATOM     47  CD  GLU B   4     -17.249  -5.860  11.627  0.80 29.53 LIG 0.17  C 
ATOM     48 OE1  GLU B   4     -16.147  -6.313  12.014  0.80 28.59 LIG-0.65  OA
ATOM     49 OE2  GLU B   4     -17.346  -4.913  10.826  0.80 31.57 LIG-0.65  OA
ENDBRANCH 46 47
ENDBRANCH 45 46
ENDBRANCH 18 45
ENDBRANCH 16 18
ENDBRANCH 1 14
BRANCH 1 50
ATOM     50  N   ARG B   3     -15.319  -7.807  14.826  0.80 34.16 LIG-0.35  N 
ATOM     51  C   GLU B   2     -14.373  -8.660  15.208  0.80 36.27 LIG 0.24  C 
ATOM     52 O    GLU B   2     -13.532  -8.391  16.072  0.80 35.80 LIG-0.27  OA
ATOM     53 H    ARG B   3     -15.875  -7.959  14.188  0.80 34.16 LIG 0.16  HD
BRANCH 51 54
ATOM     54  CA  GLU B   2     -14.345 -10.000  14.478  0.80 37.72 LIG 0.18  C 
BRANCH 54 55
ATOM     55  N   GLU B   2     -14.045  -9.796  13.062  0.80 39.05 LIG-0.35  N 
ATOM     56  C   GLN B   1     -12.891  -9.256  12.678  0.80 40.84 LIG 0.24  C 
ATOM     57 O    GLN B   1     -12.001  -8.937  13.472  0.80 40.79 LIG-0.27  OA
ATOM     58 H    GLU B   2     -14.665 -10.050  12.523  0.80 39.05 LIG 0.16  HD
BRANCH 56 59
ATOM     59  CA  GLN B   1     -12.702  -9.037  11.178  0.80 42.15 LIG 0.18  C 
BRANCH 59 60
ATOM     60  CB  GLN B   1     -12.217 -10.315  10.485  0.80 42.68 LIG 0.04  C 
BRANCH 60 61
ATOM     61  CG  GLN B   1     -10.885 -10.128   9.746  0.80 43.94 LIG 0.10  C 
BRANCH 61 62
ATOM     62  CD  GLN B   1      -9.676 -10.457  10.599  0.80 46.27 LIG 0.21  C 
ATOM     63 OE1  GLN B   1      -9.272  -9.665  11.452  0.80 48.62 LIG-0.27  OA
ATOM     64  NE2 GLN B   1      -9.095 -11.635  10.380  0.80 47.40 LIG-0.37  N 
ATOM     65 22HE GLN B   1      -8.409 -11.869  10.844  0.80 47.40 LIG 0.16  HD
ATOM     66 21HE GLN B   1      -9.405 -12.163   9.776  0.80 47.40 LIG 0.16  HD
ENDBRANCH 61 62
ENDBRANCH 60 61
ENDBRANCH 59 60
BRANCH 59 67
ATOM     67  N   GLN B   1     -11.738  -7.960  10.973  0.80 42.89 LIG-0.35  N 
ATOM     68  C   ACE B   0     -12.052  -6.675  11.140  0.80 43.46 LIG 0.21  C 
ATOM     69  CH3 ACE B   0     -10.887  -5.729  11.052  0.80 43.70 LIG 0.12  C 
ATOM     70 O    ACE B   0     -13.131  -6.326  11.624  0.80 44.01 LIG-0.27  OA
ATOM     71 H    GLN B   1     -10.956  -8.231  10.736  0.80 42.89 LIG 0.16  HD
ENDBRANCH 59 67
ENDBRANCH 56 59
ENDBRANCH 54 55
BRANCH 54 72
ATOM     72  CB  GLU B   2     -13.360 -10.977  15.142  0.80 37.98 LIG 0.04  C 
BRANCH 72 73
ATOM     73  CG  GLU B   2     -13.564 -12.457  14.831  0.80 38.47 LIG 0.12  C 
BRANCH 73 74
ATOM     74  CD  GLU B   2     -15.008 -12.781  14.465  0.80 38.45 LIG 0.17  C 
ATOM     75 OE1  GLU B   2     -15.312 -12.862  13.257  0.80 41.05 LIG-0.65  OA
ATOM     76 OE2  GLU B   2     -15.830 -12.970  15.380  0.80 38.47 LIG-0.65  OA
ENDBRANCH 73 74
ENDBRANCH 72 73
ENDBRANCH 54 72
ENDBRANCH 51 54
ENDBRANCH 1 50
TORSDOF 29
ENDMDL
MODEL 30
USER: ADFR SOLUTION from run 39
USER: SCORE 20.068321 LL:  -6.141 LR: -16.415 RR:   0.000 FEB:  -7.765
USER: RMSD 14.003809
USER: SEED 38
USER: STATUS no improvement in best in 3 clusters for 5 generations
USER: GENES 31
USER: genes 0 Translation |==|  0.71009 0.61325 0.43940
USER: genes 1 Rotation |==|  0.45562 0.09867 0.79484 0.50561
USER: genes 2 Torsion [C]-CA--CB-[CG] |==|  0.40564
USER: genes 3 Torsion [CA]-CB--CG-[CD] |==|  0.95971
USER: genes 4 Torsion [CB]-CG--CD-[NE] |==|  0.19994
USER: genes 5 Torsion [CG]-CD--NE-[CZ] |==|  0.14172
USER: genes 6 Torsion [N]-CA--C-[N] |==|  0.97726
USER: genes 7 Torsion [C]-N--CA-[CB] |==|  0.52464
USER: genes 8 Torsion [N]-CA--C-[N] |==|  0.42060
USER: genes 9 Torsion [C]-N--CA-[CB] |==|  0.86580
USER: genes 10 Torsion [N]-CA--CB-[CG2] |==|  0.82992
USER: genes 11 Torsion [N]-CA--C-[N] |==|  0.34492
USER: genes 12 Torsion [N]-CA--C-[O] |==|  0.75504
USER: genes 13 Torsion [C]-N--CA-[C] |==|  0.22508
USER: genes 14 Torsion [N]-CA--C-[O] |==|  0.07223
USER: genes 15 Torsion [N]-CA--CB-[SG] |==|  0.24938
USER: genes 16 Torsion [CA]-CB--SG-[HG] |==|  0.14868
USER: genes 17 Torsion [N]-CA--CB-[CG] |==|  0.67473
USER: genes 18 Torsion [CA]-CB--CG-[CD] |==|  0.21450
USER: genes 19 Torsion [CB]-CG--CD-[OE2] |==|  0.15707
USER: genes 20 Torsion [CB]-CA--N-[C] |==|  0.42134
USER: genes 21 Torsion [N]-C--CA-[N] |==|  0.19279
USER: genes 22 Torsion [C]-CA--N-[C] |==|  0.74126
USER: genes 23 Torsion [N]-C--CA-[N] |==|  0.06774
USER: genes 24 Torsion [C]-CA--CB-[CG] |==|  0.77300
USER: genes 25 Torsion [CA]-CB--CG-[CD] |==|  0.58808
USER: genes 26 Torsion [CB]-CG--CD-[OE1] |==|  0.07654
USER: genes 27 Torsion [C]-CA--N-[C] |==|  0.66704
USER: genes 28 Torsion [C]-CA--CB-[CG] |==|  0.44326
USER: genes 29 Torsion [CA]-CB--CG-[CD] |==|  0.20225
USER: genes 30 Torsion [CB]-CG--CD-[OE1] |==|  0.27589
ROOT
ATOM      1  CA  ARG B   3     -14.478  -6.097  14.985  0.80 33.15 LIG 0.18  C 
ENDROOT
BRANCH 1 2
ATOM      2  CB  ARG B   3     -14.368  -4.636  15.454  0.80 33.78 LIG 0.04  C 
BRANCH 2 3
ATOM      3  CG  ARG B   3     -13.535  -4.374  16.710  0.80 35.93 LIG 0.02  C 
BRANCH 3 4
ATOM      4  CD  ARG B   3     -13.237  -5.635  17.491  0.80 39.27 LIG 0.14  C 
BRANCH 4 5
ATOM      5  NE  ARG B   3     -12.260  -6.490  16.815  0.80 40.38 LIG-0.23  N 
ATOM      6  CZ  ARG B   3     -11.081  -6.070  16.358  0.80 40.37 LIG 0.67  C 
ATOM      7  NH1 ARG B   3     -10.726  -4.803  16.503  0.80 40.12 LIG-0.23  N 
ATOM      8  NH2 ARG B   3     -10.250  -6.921  15.764  0.80 41.10 LIG-0.23  N 
ATOM      9 2HH1 ARG B   3      -9.965  -4.533  16.208  0.80 40.12 LIG 0.17  HD
ATOM     10 1HH1 ARG B   3     -11.258  -4.250  16.893  0.80 40.12 LIG 0.17  HD
ATOM     11 2HH2 ARG B   3      -9.490  -6.647  15.471  0.80 41.10 LIG 0.17  HD
ATOM     12 1HH2 ARG B   3     -10.473  -7.747  15.674  0.80 41.10 LIG 0.17  HD
ATOM     13 HE   ARG B   3     -12.460  -7.319  16.706  0.80 40.38 LIG 0.18  HD
ENDBRANCH 4 5
ENDBRANCH 3 4
ENDBRANCH 2 3
ENDBRANCH 1 2
BRANCH 1 14
ATOM     14  C   ARG B   3     -15.837  -6.378  14.365  0.80 30.98 LIG 0.24  C 
ATOM     15 O    ARG B   3     -16.853  -6.302  15.050  0.80 30.41 LIG-0.27  OA
ATOM     16  N   GLU B   4     -15.834  -6.674  13.068  0.80 28.71 LIG-0.35  N 
ATOM     17 H    GLU B   4     -15.137  -6.618  12.568  0.80 28.71 LIG 0.16  HD
BRANCH 16 18
ATOM     18  CA  GLU B   4     -17.035  -7.127  12.373  0.80 27.21 LIG 0.18  C 
BRANCH 18 19
ATOM     19  C   GLU B   4     -17.656  -8.264  13.165  0.80 25.80 LIG 0.24  C 
ATOM     20 O    GLU B   4     -16.959  -9.002  13.886  0.80 26.39 LIG-0.27  OA
ATOM     21  N   VAL B   5     -18.969  -8.392  13.043  0.80 23.72 LIG-0.35  N 
ATOM     22 H    VAL B   5     -19.460  -7.845  12.597  0.80 23.72 LIG 0.16  HD
BRANCH 21 23
ATOM     23  CA  VAL B   5     -19.707  -9.481  13.659  0.80 22.93 LIG 0.18  C 
BRANCH 23 24
ATOM     24  CB  VAL B   5     -19.060 -10.845  13.390  0.80 23.26 LIG 0.01  C 
ATOM     25  CG2 VAL B   5     -19.029 -11.132  11.890  0.80 23.62 LIG 0.01  C 
ATOM     26  CG1 VAL B   5     -19.815 -11.933  14.118  0.80 24.46 LIG 0.01  C 
ENDBRANCH 23 24
BRANCH 23 27
ATOM     27  C   VAL B   5     -19.741  -9.207  15.160  0.80 21.40 LIG 0.24  C 
ATOM     28  N   PRO B   6     -20.950  -9.154  15.739  0.80 20.87 LIG-0.34  N 
ATOM     29  CD  PRO B   6     -22.292  -9.113  15.143  0.80 21.07 LIG 0.13  C 
ATOM     30  CA  PRO B   6     -21.007  -8.942  17.186  0.80 20.34 LIG 0.18  C 
ATOM     31  CG  PRO B   6     -23.132  -8.505  16.235  0.80 22.12 LIG 0.02  C 
ATOM     32  CB  PRO B   6     -22.507  -8.953  17.485  0.80 19.87 LIG 0.04  C 
ATOM     33 O    VAL B   5     -18.687  -9.046  15.787  0.80 20.67 LIG-0.27  OA
BRANCH 30 34
ATOM     34  C   PRO B   6     -20.301 -10.050  17.942  0.80 20.23 LIG 0.24  C 
ATOM     35 O    PRO B   6     -20.935 -11.076  18.266  0.80 20.62 LIG-0.27  OA
ATOM     36  N   CYS B   7     -19.006  -9.857  18.195  0.80 18.87 LIG-0.34  N 
ATOM     37 H    CYS B   7     -18.598  -9.112  18.059  0.80 18.87 LIG 0.16  HD
BRANCH 36 38
ATOM     38  CA  CYS B   7     -18.150 -10.925  18.740  0.80 19.21 LIG 0.19  C 
BRANCH 38 39
ATOM     39  C   CYS B   7     -17.685 -11.875  17.655  0.80 19.13 LIG 0.20  C 
ATOM     40 O    CYS B   7     -17.593 -11.501  16.473  0.80 18.45 LIG-0.65  OA
ATOM     41 OXT  CYS B   7     -17.346 -13.020  17.940  0.80 19.35 LIG-0.65  OA
ENDBRANCH 38 39
BRANCH 38 42
ATOM     42  CB  CYS B   7     -18.855 -11.670  19.871  0.80 19.02 LIG 0.11  C 
BRANCH 42 43
ATOM     43 SG   CYS B   7     -19.810 -13.075  19.246  0.80 21.06 LIG-0.18  SA
ATOM     44 HG   CYS B   7     -19.101 -13.778  18.580  0.80 21.06 LIG 0.10  HD
ENDBRANCH 42 43
ENDBRANCH 38 42
ENDBRANCH 36 38
ENDBRANCH 30 34
ENDBRANCH 23 27
ENDBRANCH 21 23
ENDBRANCH 18 19
BRANCH 18 45
ATOM     45  CB  GLU B   4     -16.723  -7.606  10.956  0.80 27.21 LIG 0.04  C 
BRANCH 45 46
ATOM     46  CG  GLU B   4     -17.385  -6.798   9.867  0.80 28.14 LIG 0.12  C 
BRANCH 46 47
ATOM     47  CD  GLU B   4     -16.702  -5.471   9.605  0.80 29.53 LIG 0.17  C 
ATOM     48 OE1  GLU B   4     -17.349  -4.401   9.687  0.80 28.59 LIG-0.65  OA
ATOM     49 OE2  GLU B   4     -15.492  -5.506   9.311  0.80 31.57 LIG-0.65  OA
ENDBRANCH 46 47
ENDBRANCH 45 46
ENDBRANCH 18 45
ENDBRANCH 16 18
ENDBRANCH 1 14
BRANCH 1 50
ATOM     50  N   ARG B   3     -13.446  -6.418  14.010  0.80 34.16 LIG-0.35  N 
ATOM     51  C   GLU B   2     -12.977  -7.656  13.877  0.80 36.27 LIG 0.24  C 
ATOM     52 O    GLU B   2     -13.316  -8.588  14.613  0.80 35.80 LIG-0.27  OA
ATOM     53 H    ARG B   3     -13.177  -5.749  13.542  0.80 34.16 LIG 0.16  HD
BRANCH 51 54
ATOM     54  CA  GLU B   2     -11.939  -7.864  12.777  0.80 37.72 LIG 0.18  C 
BRANCH 54 55
ATOM     55  N   GLU B   2     -10.687  -7.200  13.134  0.80 39.05 LIG-0.35  N 
ATOM     56  C   GLN B   1     -10.433  -5.958  12.729  0.80 40.84 LIG 0.24  C 
ATOM     57 O    GLN B   1     -11.237  -5.285  12.075  0.80 40.79 LIG-0.27  OA
ATOM     58 H    GLU B   2     -10.152  -7.673  13.613  0.80 39.05 LIG 0.16  HD
BRANCH 56 59
ATOM     59  CA  GLN B   1      -9.072  -5.376  13.111  0.80 42.15 LIG 0.18  C 
BRANCH 59 60
ATOM     60  CB  GLN B   1      -8.541  -4.440  12.021  0.80 42.68 LIG 0.04  C 
BRANCH 60 61
ATOM     61  CG  GLN B   1      -7.865  -5.188  10.865  0.80 43.94 LIG 0.10  C 
BRANCH 61 62
ATOM     62  CD  GLN B   1      -6.734  -4.406  10.226  0.80 46.27 LIG 0.21  C 
ATOM     63 OE1  GLN B   1      -6.096  -3.575  10.875  0.80 48.62 LIG-0.27  OA
ATOM     64  NE2 GLN B   1      -6.471  -4.674   8.948  0.80 47.40 LIG-0.37  N 
ATOM     65 22HE GLN B   1      -5.834  -4.260   8.544  0.80 47.40 LIG 0.16  HD
ATOM     66 21HE GLN B   1      -6.937  -5.261   8.527  0.80 47.40 LIG 0.16  HD
ENDBRANCH 61 62
ENDBRANCH 60 61
ENDBRANCH 59 60
BRANCH 59 67
ATOM     67  N   GLN B   1      -8.133  -6.472  13.332  0.80 42.89 LIG-0.35  N 
ATOM     68  C   ACE B   0      -7.521  -6.667  14.500  0.80 43.46 LIG 0.21  C 
ATOM     69  CH3 ACE B   0      -6.727  -7.940  14.586  0.80 43.70 LIG 0.12  C 
ATOM     70 O    ACE B   0      -7.824  -6.026  15.510  0.80 44.01 LIG-0.27  OA
ATOM     71 H    GLN B   1      -8.013  -6.973  12.644  0.80 42.89 LIG 0.16  HD
ENDBRANCH 59 67
ENDBRANCH 56 59
ENDBRANCH 54 55
BRANCH 54 72
ATOM     72  CB  GLU B   2     -11.734  -9.359  12.478  0.80 37.98 LIG 0.04  C 
BRANCH 72 73
ATOM     73  CG  GLU B   2     -11.120  -9.698  11.123  0.80 38.47 LIG 0.12  C 
BRANCH 73 74
ATOM     74  CD  GLU B   2      -9.635  -9.362  11.056  0.80 38.45 LIG 0.17  C 
ATOM     75 OE1  GLU B   2      -8.809 -10.282  11.219  0.80 41.05 LIG-0.65  OA
ATOM     76 OE2  GLU B   2      -9.296  -8.187  10.824  0.80 38.47 LIG-0.65  OA
ENDBRANCH 73 74
ENDBRANCH 72 73
ENDBRANCH 54 72
ENDBRANCH 51 54
ENDBRANCH 1 50
TORSDOF 29
ENDMDL
MODEL 31
USER: ADFR SOLUTION from run 2
USER: SCORE 19.717177 LL:  -5.577 LR: -16.395 RR:   0.000 FEB:  -7.745
USER: RMSD 13.100254
USER: SEED 66637
USER: STATUS searching
USER: GENES 31
USER: genes 0 Translation |==|  0.76295 0.56533 0.49865
USER: genes 1 Rotation |==|  0.41114 0.09563 0.76224 0.59911
USER: genes 2 Torsion [C]-CA--CB-[CG] |==|  0.69181
USER: genes 3 Torsion [CA]-CB--CG-[CD] |==|  0.79886
USER: genes 4 Torsion [CB]-CG--CD-[NE] |==|  0.45634
USER: genes 5 Torsion [CG]-CD--NE-[CZ] |==|  0.61826
USER: genes 6 Torsion [N]-CA--C-[N] |==|  0.15722
USER: genes 7 Torsion [C]-N--CA-[CB] |==|  0.26665
USER: genes 8 Torsion [N]-CA--C-[N] |==|  0.26793
USER: genes 9 Torsion [C]-N--CA-[CB] |==|  0.50556
USER: genes 10 Torsion [N]-CA--CB-[CG2] |==|  0.63825
USER: genes 11 Torsion [N]-CA--C-[N] |==|  0.44343
USER: genes 12 Torsion [N]-CA--C-[O] |==|  0.78381
USER: genes 13 Torsion [C]-N--CA-[C] |==|  0.18393
USER: genes 14 Torsion [N]-CA--C-[O] |==|  0.12207
USER: genes 15 Torsion [N]-CA--CB-[SG] |==|  0.48657
USER: genes 16 Torsion [CA]-CB--SG-[HG] |==|  0.05156
USER: genes 17 Torsion [N]-CA--CB-[CG] |==|  0.61594
USER: genes 18 Torsion [CA]-CB--CG-[CD] |==|  0.09483
USER: genes 19 Torsion [CB]-CG--CD-[OE2] |==|  0.19291
USER: genes 20 Torsion [CB]-CA--N-[C] |==|  0.78330
USER: genes 21 Torsion [N]-C--CA-[N] |==|  0.09531
USER: genes 22 Torsion [C]-CA--N-[C] |==|  0.16958
USER: genes 23 Torsion [N]-C--CA-[N] |==|  0.44082
USER: genes 24 Torsion [C]-CA--CB-[CG] |==|  0.02100
USER: genes 25 Torsion [CA]-CB--CG-[CD] |==|  0.26490
USER: genes 26 Torsion [CB]-CG--CD-[OE1] |==|  0.56778
USER: genes 27 Torsion [C]-CA--N-[C] |==|  0.79454
USER: genes 28 Torsion [C]-CA--CB-[CG] |==|  0.24822
USER: genes 29 Torsion [CA]-CB--CG-[CD] |==|  0.62035
USER: genes 30 Torsion [CB]-CG--CD-[OE1] |==|  0.96187
ROOT
ATOM      1  CA  ARG B   3     -12.813  -6.960  16.052  0.80 33.15 LIG 0.18  C 
ENDROOT
BRANCH 1 2
ATOM      2  CB  ARG B   3     -12.102  -5.728  16.640  0.80 33.78 LIG 0.04  C 
BRANCH 2 3
ATOM      3  CG  ARG B   3     -11.010  -5.086  15.782  0.80 35.93 LIG 0.02  C 
BRANCH 3 4
ATOM      4  CD  ARG B   3      -9.749  -5.920  15.715  0.80 39.27 LIG 0.14  C 
BRANCH 4 5
ATOM      5  NE  ARG B   3      -8.864  -5.504  14.626  0.80 40.38 LIG-0.23  N 
ATOM      6  CZ  ARG B   3      -8.221  -6.344  13.816  0.80 40.37 LIG 0.67  C 
ATOM      7  NH1 ARG B   3      -8.362  -7.650  13.968  0.80 40.12 LIG-0.23  N 
ATOM      8  NH2 ARG B   3      -7.443  -5.875  12.845  0.80 41.10 LIG-0.23  N 
ATOM      9 2HH1 ARG B   3      -7.947  -8.192  13.445  0.80 40.12 LIG 0.17  HD
ATOM     10 1HH1 ARG B   3      -8.870  -7.959  14.591  0.80 40.12 LIG 0.17  HD
ATOM     11 2HH2 ARG B   3      -7.030  -6.420  12.324  0.80 41.10 LIG 0.17  HD
ATOM     12 1HH2 ARG B   3      -7.353  -5.026  12.738  0.80 41.10 LIG 0.17  HD
ATOM     13 HE   ARG B   3      -8.752  -4.660  14.500  0.80 40.38 LIG 0.18  HD
ENDBRANCH 4 5
ENDBRANCH 3 4
ENDBRANCH 2 3
ENDBRANCH 1 2
BRANCH 1 14
ATOM     14  C   ARG B   3     -14.257  -6.647  15.697  0.80 30.98 LIG 0.24  C 
ATOM     15 O    ARG B   3     -14.705  -5.519  15.884  0.80 30.41 LIG-0.27  OA
ATOM     16  N   GLU B   4     -14.956  -7.647  15.169  0.80 28.71 LIG-0.35  N 
ATOM     17 H    GLU B   4     -14.611  -8.400  14.938  0.80 28.71 LIG 0.16  HD
BRANCH 16 18
ATOM     18  CA  GLU B   4     -16.393  -7.549  14.932  0.80 27.21 LIG 0.18  C 
BRANCH 18 19
ATOM     19  C   GLU B   4     -17.026  -8.899  15.220  0.80 25.80 LIG 0.24  C 
ATOM     20 O    GLU B   4     -17.025  -9.806  14.366  0.80 26.39 LIG-0.27  OA
ATOM     21  N   VAL B   5     -17.550  -9.036  16.429  0.80 23.72 LIG-0.35  N 
ATOM     22 H    VAL B   5     -17.495  -8.435  17.041  0.80 23.72 LIG 0.16  HD
BRANCH 21 23
ATOM     23  CA  VAL B   5     -18.273 -10.229  16.836  0.80 22.93 LIG 0.18  C 
BRANCH 23 24
ATOM     24  CB  VAL B   5     -18.819 -10.117  18.264  0.80 23.26 LIG 0.01  C 
ATOM     25  CG2 VAL B   5     -18.444 -11.357  19.075  0.80 23.62 LIG 0.01  C 
ATOM     26  CG1 VAL B   5     -20.319  -9.942  18.237  0.80 24.46 LIG 0.01  C 
ENDBRANCH 23 24
BRANCH 23 27
ATOM     27  C   VAL B   5     -19.424 -10.413  15.851  0.80 21.40 LIG 0.24  C 
ATOM     28  N   PRO B   6     -19.959 -11.640  15.767  0.80 20.87 LIG-0.34  N 
ATOM     29  CD  PRO B   6     -19.499 -12.921  16.318  0.80 21.07 LIG 0.13  C 
ATOM     30  CA  PRO B   6     -21.098 -11.829  14.866  0.80 20.34 LIG 0.18  C 
ATOM     31  CG  PRO B   6     -20.172 -13.936  15.431  0.80 22.12 LIG 0.02  C 
ATOM     32  CB  PRO B   6     -21.440 -13.310  15.039  0.80 19.87 LIG 0.04  C 
ATOM     33 O    VAL B   5     -19.823  -9.457  15.176  0.80 20.67 LIG-0.27  OA
BRANCH 30 34
ATOM     34  C   PRO B   6     -22.273 -10.957  15.258  0.80 20.23 LIG 0.24  C 
ATOM     35 O    PRO B   6     -22.997 -11.293  16.217  0.80 20.62 LIG-0.27  OA
ATOM     36  N   CYS B   7     -22.443  -9.843  14.543  0.80 18.87 LIG-0.34  N 
ATOM     37 H    CYS B   7     -22.005  -9.665  13.825  0.80 18.87 LIG 0.16  HD
BRANCH 36 38
ATOM     38  CA  CYS B   7     -23.415  -8.807  14.933  0.80 19.21 LIG 0.19  C 
BRANCH 38 39
ATOM     39  C   CYS B   7     -23.022  -8.137  16.235  0.80 19.13 LIG 0.20  C 
ATOM     40 O    CYS B   7     -21.846  -7.795  16.449  0.80 18.45 LIG-0.65  OA
ATOM     41 OXT  CYS B   7     -23.875  -7.879  17.079  0.80 19.35 LIG-0.65  OA
ENDBRANCH 38 39
BRANCH 38 42
ATOM     42  CB  CYS B   7     -24.829  -9.379  15.004  0.80 19.02 LIG 0.11  C 
BRANCH 42 43
ATOM     43 SG   CYS B   7     -26.012  -8.155  15.618  0.80 21.06 LIG-0.18  SA
ATOM     44 HG   CYS B   7     -25.544  -7.055  15.507  0.80 21.06 LIG 0.10  HD
ENDBRANCH 42 43
ENDBRANCH 38 42
ENDBRANCH 36 38
ENDBRANCH 30 34
ENDBRANCH 23 27
ENDBRANCH 21 23
ENDBRANCH 18 19
BRANCH 18 45
ATOM     45  CB  GLU B   4     -16.704  -7.139  13.493  0.80 27.21 LIG 0.04  C 
BRANCH 45 46
ATOM     46  CG  GLU B   4     -17.816  -6.128  13.362  0.80 28.14 LIG 0.12  C 
BRANCH 46 47
ATOM     47  CD  GLU B   4     -17.864  -5.136  14.507  0.80 29.53 LIG 0.17  C 
ATOM     48 OE1  GLU B   4     -18.806  -5.172  15.333  0.80 28.59 LIG-0.65  OA
ATOM     49 OE2  GLU B   4     -16.937  -4.308  14.576  0.80 31.57 LIG-0.65  OA
ENDBRANCH 46 47
ENDBRANCH 45 46
ENDBRANCH 18 45
ENDBRANCH 16 18
ENDBRANCH 1 14
BRANCH 1 50
ATOM     50  N   ARG B   3     -12.134  -7.440  14.857  0.80 34.16 LIG-0.35  N 
ATOM     51  C   GLU B   2     -12.283  -6.834  13.683  0.80 36.27 LIG 0.24  C 
ATOM     52 O    GLU B   2     -13.057  -5.887  13.505  0.80 35.80 LIG-0.27  OA
ATOM     53 H    ARG B   3     -11.642  -8.135  14.981  0.80 34.16 LIG 0.16  HD
BRANCH 51 54
ATOM     54  CA  GLU B   2     -11.468  -7.406  12.525  0.80 37.72 LIG 0.18  C 
BRANCH 54 55
ATOM     55  N   GLU B   2     -11.346  -8.855  12.664  0.80 39.05 LIG-0.35  N 
ATOM     56  C   GLN B   1     -12.424  -9.636  12.664  0.80 40.84 LIG 0.24  C 
ATOM     57 O    GLN B   1     -13.569  -9.200  12.511  0.80 40.79 LIG-0.27  OA
ATOM     58 H    GLU B   2     -10.539  -9.143  12.741  0.80 39.05 LIG 0.16  HD
BRANCH 56 59
ATOM     59  CA  GLN B   1     -12.188 -11.132  12.869  0.80 42.15 LIG 0.18  C 
BRANCH 59 60
ATOM     60  CB  GLN B   1     -11.729 -11.806  11.572  0.80 42.68 LIG 0.04  C 
BRANCH 60 61
ATOM     61  CG  GLN B   1     -11.440 -10.805  10.445  0.80 43.94 LIG 0.10  C 
BRANCH 61 62
ATOM     62  CD  GLN B   1      -9.977 -10.422  10.347  0.80 46.27 LIG 0.21  C 
ATOM     63 OE1  GLN B   1      -9.638  -9.352   9.839  0.80 48.62 LIG-0.27  OA
ATOM     64  NE2 GLN B   1      -9.098 -11.292  10.841  0.80 47.40 LIG-0.37  N 
ATOM     65 22HE GLN B   1      -8.256 -11.116  10.814  0.80 47.40 LIG 0.16  HD
ATOM     66 21HE GLN B   1      -9.372 -12.030  11.189  0.80 47.40 LIG 0.16  HD
ENDBRANCH 61 62
ENDBRANCH 60 61
ENDBRANCH 59 60
BRANCH 59 67
ATOM     67  N   GLN B   1     -13.425 -11.747  13.343  0.80 42.89 LIG-0.35  N 
ATOM     68  C   ACE B   0     -13.875 -11.585  14.587  0.80 43.46 LIG 0.21  C 
ATOM     69  CH3 ACE B   0     -15.245 -12.151  14.836  0.80 43.70 LIG 0.12  C 
ATOM     70 O    ACE B   0     -13.356 -10.786  15.370  0.80 44.01 LIG-0.27  OA
ATOM     71 H    GLN B   1     -13.830 -12.218  12.749  0.80 42.89 LIG 0.16  HD
ENDBRANCH 59 67
ENDBRANCH 56 59
ENDBRANCH 54 55
BRANCH 54 72
ATOM     72  CB  GLU B   2     -12.069  -7.004  11.167  0.80 37.98 LIG 0.04  C 
BRANCH 72 73
ATOM     73  CG  GLU B   2     -11.567  -5.693  10.568  0.80 38.47 LIG 0.12  C 
BRANCH 73 74
ATOM     74  CD  GLU B   2     -12.694  -4.850   9.983  0.80 38.45 LIG 0.17  C 
ATOM     75 OE1  GLU B   2     -13.808  -5.384   9.808  0.80 41.05 LIG-0.65  OA
ATOM     76 OE2  GLU B   2     -12.471  -3.655   9.715  0.80 38.47 LIG-0.65  OA
ENDBRANCH 73 74
ENDBRANCH 72 73
ENDBRANCH 54 72
ENDBRANCH 51 54
ENDBRANCH 1 50
TORSDOF 29
ENDMDL
MODEL 32
USER: ADFR SOLUTION from run 189
USER: SCORE 19.906419 LL:  -5.885 LR: -16.373 RR:   0.000 FEB:  -7.723
USER: RMSD 13.210618
USER: SEED 188
USER: STATUS no improvement in best in 5 clusters for 5 generations
USER: GENES 31
USER: genes 0 Translation |==|  0.67681 0.61862 0.45830
USER: genes 1 Rotation |==|  0.35568 0.12466 0.78063 0.59769
USER: genes 2 Torsion [C]-CA--CB-[CG] |==|  0.60819
USER: genes 3 Torsion [CA]-CB--CG-[CD] |==|  0.66568
USER: genes 4 Torsion [CB]-CG--CD-[NE] |==|  0.52895
USER: genes 5 Torsion [CG]-CD--NE-[CZ] |==|  0.79097
USER: genes 6 Torsion [N]-CA--C-[N] |==|  0.19683
USER: genes 7 Torsion [C]-N--CA-[CB] |==|  0.20775
USER: genes 8 Torsion [N]-CA--C-[N] |==|  0.43299
USER: genes 9 Torsion [C]-N--CA-[CB] |==|  0.85942
USER: genes 10 Torsion [N]-CA--CB-[CG2] |==|  0.67081
USER: genes 11 Torsion [N]-CA--C-[N] |==|  0.40973
USER: genes 12 Torsion [N]-CA--C-[O] |==|  0.75379
USER: genes 13 Torsion [C]-N--CA-[C] |==|  0.65923
USER: genes 14 Torsion [N]-CA--C-[O] |==|  0.07875
USER: genes 15 Torsion [N]-CA--CB-[SG] |==|  0.09602
USER: genes 16 Torsion [CA]-CB--SG-[HG] |==|  0.02689
USER: genes 17 Torsion [N]-CA--CB-[CG] |==|  0.10917
USER: genes 18 Torsion [CA]-CB--CG-[CD] |==|  0.71610
USER: genes 19 Torsion [CB]-CG--CD-[OE2] |==|  0.82711
USER: genes 20 Torsion [CB]-CA--N-[C] |==|  0.21568
USER: genes 21 Torsion [N]-C--CA-[N] |==|  0.33429
USER: genes 22 Torsion [C]-CA--N-[C] |==|  0.80750
USER: genes 23 Torsion [N]-C--CA-[N] |==|  0.09828
USER: genes 24 Torsion [C]-CA--CB-[CG] |==|  0.50871
USER: genes 25 Torsion [CA]-CB--CG-[CD] |==|  0.81377
USER: genes 26 Torsion [CB]-CG--CD-[OE1] |==|  0.77657
USER: genes 27 Torsion [C]-CA--N-[C] |==|  0.13889
USER: genes 28 Torsion [C]-CA--CB-[CG] |==|  0.09108
USER: genes 29 Torsion [CA]-CB--CG-[CD] |==|  0.65069
USER: genes 30 Torsion [CB]-CG--CD-[OE1] |==|  0.60892
ROOT
ATOM      1  CA  ARG B   3     -15.527  -6.001  15.325  0.80 33.15 LIG 0.18  C 
ENDROOT
BRANCH 1 2
ATOM      2  CB  ARG B   3     -14.639  -4.829  15.782  0.80 33.78 LIG 0.04  C 
BRANCH 2 3
ATOM      3  CG  ARG B   3     -13.143  -4.939  15.482  0.80 35.93 LIG 0.02  C 
BRANCH 3 4
ATOM      4  CD  ARG B   3     -12.288  -4.898  16.729  0.80 39.27 LIG 0.14  C 
BRANCH 4 5
ATOM      5  NE  ARG B   3     -10.864  -4.758  16.424  0.80 40.38 LIG-0.23  N 
ATOM      6  CZ  ARG B   3     -10.093  -5.742  15.962  0.80 40.37 LIG 0.67  C 
ATOM      7  NH1 ARG B   3     -10.607  -6.942  15.749  0.80 40.12 LIG-0.23  N 
ATOM      8  NH2 ARG B   3      -8.808  -5.521  15.703  0.80 41.10 LIG-0.23  N 
ATOM      9 2HH1 ARG B   3     -10.109  -7.576  15.450  0.80 40.12 LIG 0.17  HD
ATOM     10 1HH1 ARG B   3     -11.440  -7.089  15.908  0.80 40.12 LIG 0.17  HD
ATOM     11 2HH2 ARG B   3      -8.314  -6.157  15.405  0.80 41.10 LIG 0.17  HD
ATOM     12 1HH2 ARG B   3      -8.471  -4.740  15.834  0.80 41.10 LIG 0.17  HD
ATOM     13 HE   ARG B   3     -10.500  -3.989  16.552  0.80 40.38 LIG 0.18  HD
ENDBRANCH 4 5
ENDBRANCH 3 4
ENDBRANCH 2 3
ENDBRANCH 1 2
BRANCH 1 14
ATOM     14  C   ARG B   3     -16.858  -5.507  14.785  0.80 30.98 LIG 0.24  C 
ATOM     15 O    ARG B   3     -17.005  -4.321  14.501  0.80 30.41 LIG-0.27  OA
ATOM     16  N   GLU B   4     -17.801  -6.431  14.629  0.80 28.71 LIG-0.35  N 
ATOM     17 H    GLU B   4     -17.663  -7.274  14.723  0.80 28.71 LIG 0.16  HD
BRANCH 16 18
ATOM     18  CA  GLU B   4     -19.176  -6.086  14.279  0.80 27.21 LIG 0.18  C 
BRANCH 18 19
ATOM     19  C   GLU B   4     -20.064  -7.286  14.555  0.80 25.80 LIG 0.24  C 
ATOM     20 O    GLU B   4     -19.596  -8.440  14.590  0.80 26.39 LIG-0.27  OA
ATOM     21  N   VAL B   5     -21.342  -7.011  14.771  0.80 23.72 LIG-0.35  N 
ATOM     22 H    VAL B   5     -21.655  -6.211  14.812  0.80 23.72 LIG 0.16  HD
BRANCH 21 23
ATOM     23  CA  VAL B   5     -22.342  -8.048  14.960  0.80 22.93 LIG 0.18  C 
BRANCH 23 24
ATOM     24  CB  VAL B   5     -22.292  -9.110  13.856  0.80 23.26 LIG 0.01  C 
ATOM     25  CG2 VAL B   5     -23.615  -9.144  13.090  0.80 23.62 LIG 0.01  C 
ATOM     26  CG1 VAL B   5     -21.995 -10.467  14.450  0.80 24.46 LIG 0.01  C 
ENDBRANCH 23 24
BRANCH 23 27
ATOM     27  C   VAL B   5     -22.069  -8.692  16.316  0.80 21.40 LIG 0.24  C 
ATOM     28  N   PRO B   6     -23.133  -9.143  16.998  0.80 20.87 LIG-0.34  N 
ATOM     29  CD  PRO B   6     -24.569  -8.946  16.764  0.80 21.07 LIG 0.13  C 
ATOM     30  CA  PRO B   6     -22.891  -9.810  18.279  0.80 20.34 LIG 0.18  C 
ATOM     31  CG  PRO B   6     -25.174  -9.194  18.121  0.80 22.12 LIG 0.02  C 
ATOM     32  CB  PRO B   6     -24.297 -10.190  18.748  0.80 19.87 LIG 0.04  C 
ATOM     33 O    VAL B   5     -20.911  -8.781  16.740  0.80 20.67 LIG-0.27  OA
BRANCH 30 34
ATOM     34  C   PRO B   6     -22.029 -11.045  18.113  0.80 20.23 LIG 0.24  C 
ATOM     35 O    PRO B   6     -22.567 -12.145  17.874  0.80 20.62 LIG-0.27  OA
ATOM     36  N   CYS B   7     -20.711 -10.860  18.212  0.80 18.87 LIG-0.34  N 
ATOM     37 H    CYS B   7     -20.350 -10.124  18.472  0.80 18.87 LIG 0.16  HD
BRANCH 36 38
ATOM     38  CA  CYS B   7     -19.747 -11.922  17.877  0.80 19.21 LIG 0.19  C 
BRANCH 38 39
ATOM     39  C   CYS B   7     -18.837 -12.238  19.048  0.80 19.13 LIG 0.20  C 
ATOM     40 O    CYS B   7     -19.220 -12.071  20.219  0.80 18.45 LIG-0.65  OA
ATOM     41 OXT  CYS B   7     -17.721 -12.711  18.852  0.80 19.35 LIG-0.65  OA
ENDBRANCH 38 39
BRANCH 38 42
ATOM     42  CB  CYS B   7     -18.946 -11.562  16.628  0.80 19.02 LIG 0.11  C 
BRANCH 42 43
ATOM     43 SG   CYS B   7     -18.631  -9.782  16.531  0.80 21.06 LIG-0.18  SA
ATOM     44 HG   CYS B   7     -18.951  -9.261  17.563  0.80 21.06 LIG 0.10  HD
ENDBRANCH 42 43
ENDBRANCH 38 42
ENDBRANCH 36 38
ENDBRANCH 30 34
ENDBRANCH 23 27
ENDBRANCH 21 23
ENDBRANCH 18 19
BRANCH 18 45
ATOM     45  CB  GLU B   4     -19.304  -5.688  12.810  0.80 27.21 LIG 0.04  C 
BRANCH 45 46
ATOM     46  CG  GLU B   4     -18.468  -6.516  11.866  0.80 28.14 LIG 0.12  C 
BRANCH 46 47
ATOM     47  CD  GLU B   4     -17.205  -5.814  11.410  0.80 29.53 LIG 0.17  C 
ATOM     48 OE1  GLU B   4     -16.081  -6.295  11.687  0.80 28.59 LIG-0.65  OA
ATOM     49 OE2  GLU B   4     -17.346  -4.761  10.761  0.80 31.57 LIG-0.65  OA
ENDBRANCH 46 47
ENDBRANCH 45 46
ENDBRANCH 18 45
ENDBRANCH 16 18
ENDBRANCH 1 14
BRANCH 1 50
ATOM     50  N   ARG B   3     -14.869  -6.790  14.294  0.80 34.16 LIG-0.35  N 
ATOM     51  C   GLU B   2     -13.913  -7.664  14.593  0.80 36.27 LIG 0.24  C 
ATOM     52 O    GLU B   2     -13.462  -7.808  15.734  0.80 35.80 LIG-0.27  OA
ATOM     53 H    ARG B   3     -15.151  -6.639  13.495  0.80 34.16 LIG 0.16  HD
BRANCH 51 54
ATOM     54  CA  GLU B   2     -13.349  -8.467  13.423  0.80 37.72 LIG 0.18  C 
BRANCH 54 55
ATOM     55  N   GLU B   2     -11.914  -8.225  13.291  0.80 39.05 LIG-0.35  N 
ATOM     56  C   GLN B   1     -11.453  -7.043  12.889  0.80 40.84 LIG 0.24  C 
ATOM     57 O    GLN B   1     -12.190  -6.082  12.645  0.80 40.79 LIG-0.27  OA
ATOM     58 H    GLU B   2     -11.415  -8.896  13.492  0.80 39.05 LIG 0.16  HD
BRANCH 56 59
ATOM     59  CA  GLN B   1      -9.939  -6.913  12.733  0.80 42.15 LIG 0.18  C 
BRANCH 59 60
ATOM     60  CB  GLN B   1      -9.573  -5.781  11.767  0.80 42.68 LIG 0.04  C 
BRANCH 60 61
ATOM     61  CG  GLN B   1      -8.063  -5.665  11.522  0.80 43.94 LIG 0.10  C 
BRANCH 61 62
ATOM     62  CD  GLN B   1      -7.290  -5.227  12.751  0.80 46.27 LIG 0.21  C 
ATOM     63 OE1  GLN B   1      -7.240  -4.039  13.074  0.80 48.62 LIG-0.27  OA
ATOM     64  NE2 GLN B   1      -6.688  -6.188  13.451  0.80 47.40 LIG-0.37  N 
ATOM     65 22HE GLN B   1      -6.243  -5.989  14.159  0.80 47.40 LIG 0.16  HD
ATOM     66 21HE GLN B   1      -6.746  -7.007  13.194  0.80 47.40 LIG 0.16  HD
ENDBRANCH 61 62
ENDBRANCH 60 61
ENDBRANCH 59 60
BRANCH 59 67
ATOM     67  N   GLN B   1      -9.401  -8.180  12.246  0.80 42.89 LIG-0.35  N 
ATOM     68  C   ACE B   0      -9.909  -8.816  11.191  0.80 43.46 LIG 0.21  C 
ATOM     69  CH3 ACE B   0      -9.116 -10.010  10.739  0.80 43.70 LIG 0.12  C 
ATOM     70 O    ACE B   0     -10.766  -8.301  10.469  0.80 44.01 LIG-0.27  OA
ATOM     71 H    GLN B   1      -8.732  -8.473  12.701  0.80 42.89 LIG 0.16  HD
ENDBRANCH 59 67
ENDBRANCH 56 59
ENDBRANCH 54 55
BRANCH 54 72
ATOM     72  CB  GLU B   2     -13.671  -9.964  13.565  0.80 37.98 LIG 0.04  C 
BRANCH 72 73
ATOM     73  CG  GLU B   2     -14.995 -10.308  14.242  0.80 38.47 LIG 0.12  C 
BRANCH 73 74
ATOM     74  CD  GLU B   2     -14.817 -11.257  15.422  0.80 38.45 LIG 0.17  C 
ATOM     75 OE1  GLU B   2     -15.662 -12.158  15.593  0.80 41.05 LIG-0.65  OA
ATOM     76 OE2  GLU B   2     -13.828 -11.112  16.164  0.80 38.47 LIG-0.65  OA
ENDBRANCH 73 74
ENDBRANCH 72 73
ENDBRANCH 54 72
ENDBRANCH 51 54
ENDBRANCH 1 50
TORSDOF 29
ENDMDL
MODEL 33
USER: ADFR SOLUTION from run 119
USER: SCORE 20.901867 LL:  -8.114 LR: -16.360 RR:   0.000 FEB:  -7.709
USER: RMSD 13.605086
USER: SEED 118
USER: STATUS no improvement in best in 6 clusters for 5 generations
USER: GENES 31
USER: genes 0 Translation |==|  0.72147 0.52732 0.39216
USER: genes 1 Rotation |==|  0.39643 0.05091 0.39278 0.66153
USER: genes 2 Torsion [C]-CA--CB-[CG] |==|  0.23733
USER: genes 3 Torsion [CA]-CB--CG-[CD] |==|  0.26942
USER: genes 4 Torsion [CB]-CG--CD-[NE] |==|  0.63208
USER: genes 5 Torsion [CG]-CD--NE-[CZ] |==|  0.31468
USER: genes 6 Torsion [N]-CA--C-[N] |==|  0.22574
USER: genes 7 Torsion [C]-N--CA-[CB] |==|  0.41070
USER: genes 8 Torsion [N]-CA--C-[N] |==|  0.95065
USER: genes 9 Torsion [C]-N--CA-[CB] |==|  0.45090
USER: genes 10 Torsion [N]-CA--CB-[CG2] |==|  0.50549
USER: genes 11 Torsion [N]-CA--C-[N] |==|  0.39187
USER: genes 12 Torsion [N]-CA--C-[O] |==|  0.39827
USER: genes 13 Torsion [C]-N--CA-[C] |==|  0.75342
USER: genes 14 Torsion [N]-CA--C-[O] |==|  0.03162
USER: genes 15 Torsion [N]-CA--CB-[SG] |==|  0.02100
USER: genes 16 Torsion [CA]-CB--SG-[HG] |==|  0.48779
USER: genes 17 Torsion [N]-CA--CB-[CG] |==|  0.18491
USER: genes 18 Torsion [CA]-CB--CG-[CD] |==|  0.76827
USER: genes 19 Torsion [CB]-CG--CD-[OE2] |==|  0.26200
USER: genes 20 Torsion [CB]-CA--N-[C] |==|  0.19399
USER: genes 21 Torsion [N]-C--CA-[N] |==|  0.30009
USER: genes 22 Torsion [C]-CA--N-[C] |==|  0.63788
USER: genes 23 Torsion [N]-C--CA-[N] |==|  0.40530
USER: genes 24 Torsion [C]-CA--CB-[CG] |==|  0.10598
USER: genes 25 Torsion [CA]-CB--CG-[CD] |==|  0.75415
USER: genes 26 Torsion [CB]-CG--CD-[OE1] |==|  0.33423
USER: genes 27 Torsion [C]-CA--N-[C] |==|  0.82407
USER: genes 28 Torsion [C]-CA--CB-[CG] |==|  0.38778
USER: genes 29 Torsion [CA]-CB--CG-[CD] |==|  0.83484
USER: genes 30 Torsion [CB]-CG--CD-[OE1] |==|  0.87451
ROOT
ATOM      1  CA  ARG B   3     -14.120  -7.644  14.135  0.80 33.15 LIG 0.18  C 
ENDROOT
BRANCH 1 2
ATOM      2  CB  ARG B   3     -13.424  -8.430  15.261  0.80 33.78 LIG 0.04  C 
BRANCH 2 3
ATOM      3  CG  ARG B   3     -14.086  -9.738  15.701  0.80 35.93 LIG 0.02  C 
BRANCH 3 4
ATOM      4  CD  ARG B   3     -13.477 -10.956  15.044  0.80 39.27 LIG 0.14  C 
BRANCH 4 5
ATOM      5  NE  ARG B   3     -14.491 -11.863  14.504  0.80 40.38 LIG-0.23  N 
ATOM      6  CZ  ARG B   3     -14.669 -12.106  13.206  0.80 40.37 LIG 0.67  C 
ATOM      7  NH1 ARG B   3     -13.900 -11.511  12.308  0.80 40.12 LIG-0.23  N 
ATOM      8  NH2 ARG B   3     -15.611 -12.954  12.806  0.80 41.10 LIG-0.23  N 
ATOM      9 2HH1 ARG B   3     -14.015 -11.668  11.471  0.80 40.12 LIG 0.17  HD
ATOM     10 1HH1 ARG B   3     -13.284 -10.966  12.562  0.80 40.12 LIG 0.17  HD
ATOM     11 2HH2 ARG B   3     -15.723 -13.109  11.968  0.80 41.10 LIG 0.17  HD
ATOM     12 1HH2 ARG B   3     -16.109 -13.349  13.385  0.80 41.10 LIG 0.17  HD
ATOM     13 HE   ARG B   3     -15.007 -12.266  15.062  0.80 40.38 LIG 0.18  HD
ENDBRANCH 4 5
ENDBRANCH 3 4
ENDBRANCH 2 3
ENDBRANCH 1 2
BRANCH 1 14
ATOM     14  C   ARG B   3     -15.205  -6.735  14.686  0.80 30.98 LIG 0.24  C 
ATOM     15 O    ARG B   3     -15.142  -6.336  15.846  0.80 30.41 LIG-0.27  OA
ATOM     16  N   GLU B   4     -16.173  -6.403  13.836  0.80 28.71 LIG-0.35  N 
ATOM     17 H    GLU B   4     -16.157  -6.592  12.998  0.80 28.71 LIG 0.16  HD
BRANCH 16 18
ATOM     18  CA  GLU B   4     -17.365  -5.677  14.262  0.80 27.21 LIG 0.18  C 
BRANCH 18 19
ATOM     19  C   GLU B   4     -18.437  -6.682  14.643  0.80 25.80 LIG 0.24  C 
ATOM     20 O    GLU B   4     -19.424  -6.344  15.323  0.80 26.39 LIG-0.27  OA
ATOM     21  N   VAL B   5     -18.252  -7.912  14.187  0.80 23.72 LIG-0.35  N 
ATOM     22 H    VAL B   5     -17.606  -8.133  13.664  0.80 23.72 LIG 0.16  HD
BRANCH 21 23
ATOM     23  CA  VAL B   5     -19.134  -9.013  14.534  0.80 22.93 LIG 0.18  C 
BRANCH 23 24
ATOM     24  CB  VAL B   5     -18.986 -10.199  13.573  0.80 23.26 LIG 0.01  C 
ATOM     25  CG2 VAL B   5     -19.965 -11.312  13.947  0.80 23.62 LIG 0.01  C 
ATOM     26  CG1 VAL B   5     -17.567 -10.718  13.599  0.80 24.46 LIG 0.01  C 
ENDBRANCH 23 24
BRANCH 23 27
ATOM     27  C   VAL B   5     -18.776  -9.444  15.953  0.80 21.40 LIG 0.24  C 
ATOM     28  N   PRO B   6     -19.794  -9.784  16.758  0.80 20.87 LIG-0.34  N 
ATOM     29  CD  PRO B   6     -21.244  -9.624  16.582  0.80 21.07 LIG 0.13  C 
ATOM     30  CA  PRO B   6     -19.473 -10.249  18.108  0.80 20.34 LIG 0.18  C 
ATOM     31  CG  PRO B   6     -21.765  -9.661  17.995  0.80 22.12 LIG 0.02  C 
ATOM     32  CB  PRO B   6     -20.846 -10.551  18.712  0.80 19.87 LIG 0.04  C 
ATOM     33 O    VAL B   5     -17.594  -9.470  16.316  0.80 20.67 LIG-0.27  OA
BRANCH 30 34
ATOM     34  C   PRO B   6     -18.613 -11.497  18.081  0.80 20.23 LIG 0.24  C 
ATOM     35 O    PRO B   6     -17.721 -11.649  18.941  0.80 20.62 LIG-0.27  OA
ATOM     36  N   CYS B   7     -18.895 -12.385  17.126  0.80 18.87 LIG-0.34  N 
ATOM     37 H    CYS B   7     -19.441 -12.234  16.479  0.80 18.87 LIG 0.16  HD
BRANCH 36 38
ATOM     38  CA  CYS B   7     -18.280 -13.723  17.100  0.80 19.21 LIG 0.19  C 
BRANCH 38 39
ATOM     39  C   CYS B   7     -16.971 -13.721  16.336  0.80 19.13 LIG 0.20  C 
ATOM     40 O    CYS B   7     -16.426 -12.654  16.002  0.80 18.45 LIG-0.65  OA
ATOM     41 OXT  CYS B   7     -16.406 -14.779  16.076  0.80 19.35 LIG-0.65  OA
ENDBRANCH 38 39
BRANCH 38 42
ATOM     42  CB  CYS B   7     -19.251 -14.762  16.543  0.80 19.02 LIG 0.11  C 
BRANCH 42 43
ATOM     43 SG   CYS B   7     -20.752 -13.987  15.893  0.80 21.06 LIG-0.18  SA
ATOM     44 HG   CYS B   7     -21.449 -14.824  15.389  0.80 21.06 LIG 0.10  HD
ENDBRANCH 42 43
ENDBRANCH 38 42
ENDBRANCH 36 38
ENDBRANCH 30 34
ENDBRANCH 23 27
ENDBRANCH 21 23
ENDBRANCH 18 19
BRANCH 18 45
ATOM     45  CB  GLU B   4     -17.895  -4.761  13.160  0.80 27.21 LIG 0.04  C 
BRANCH 45 46
ATOM     46  CG  GLU B   4     -18.431  -5.489  11.952  0.80 28.14 LIG 0.12  C 
BRANCH 46 47
ATOM     47  CD  GLU B   4     -17.354  -5.885  10.963  0.80 29.53 LIG 0.17  C 
ATOM     48 OE1  GLU B   4     -16.973  -5.074  10.087  0.80 28.59 LIG-0.65  OA
ATOM     49 OE2  GLU B   4     -16.884  -7.033  11.070  0.80 31.57 LIG-0.65  OA
ENDBRANCH 46 47
ENDBRANCH 45 46
ENDBRANCH 18 45
ENDBRANCH 16 18
ENDBRANCH 1 14
BRANCH 1 50
ATOM     50  N   ARG B   3     -13.167  -6.834  13.391  0.80 34.16 LIG-0.35  N 
ATOM     51  C   GLU B   2     -12.256  -7.388  12.595  0.80 36.27 LIG 0.24  C 
ATOM     52 O    GLU B   2     -12.101  -8.610  12.496  0.80 35.80 LIG-0.27  OA
ATOM     53 H    ARG B   3     -13.247  -5.986  13.512  0.80 34.16 LIG 0.16  HD
BRANCH 51 54
ATOM     54  CA  GLU B   2     -11.358  -6.420  11.829  0.80 37.72 LIG 0.18  C 
BRANCH 54 55
ATOM     55  N   GLU B   2     -10.006  -6.442  12.384  0.80 39.05 LIG-0.35  N 
ATOM     56  C   GLN B   1      -9.377  -5.311  12.697  0.80 40.84 LIG 0.24  C 
ATOM     57 O    GLN B   1      -9.897  -4.198  12.579  0.80 40.79 LIG-0.27  OA
ATOM     58 H    GLU B   2      -9.670  -7.227  12.485  0.80 39.05 LIG 0.16  HD
BRANCH 56 59
ATOM     59  CA  GLN B   1      -7.947  -5.444  13.219  0.80 42.15 LIG 0.18  C 
BRANCH 59 60
ATOM     60  CB  GLN B   1      -7.918  -5.522  14.749  0.80 42.68 LIG 0.04  C 
BRANCH 60 61
ATOM     61  CG  GLN B   1      -9.078  -6.341  15.330  0.80 43.94 LIG 0.10  C 
BRANCH 61 62
ATOM     62  CD  GLN B   1     -10.320  -5.513  15.596  0.80 46.27 LIG 0.21  C 
ATOM     63 OE1  GLN B   1     -11.388  -5.780  15.042  0.80 48.62 LIG-0.27  OA
ATOM     64  NE2 GLN B   1     -10.191  -4.505  16.458  0.80 47.40 LIG-0.37  N 
ATOM     65 22HE GLN B   1     -10.869  -4.011  16.646  0.80 47.40 LIG 0.16  HD
ATOM     66 21HE GLN B   1      -9.429  -4.349  16.826  0.80 47.40 LIG 0.16  HD
ENDBRANCH 61 62
ENDBRANCH 60 61
ENDBRANCH 59 60
BRANCH 59 67
ATOM     67  N   GLN B   1      -7.166  -4.297  12.762  0.80 42.89 LIG-0.35  N 
ATOM     68  C   ACE B   0      -6.933  -4.058  11.471  0.80 43.46 LIG 0.21  C 
ATOM     69  CH3 ACE B   0      -6.261  -2.744  11.190  0.80 43.70 LIG 0.12  C 
ATOM     70 O    ACE B   0      -7.487  -4.703  10.578  0.80 44.01 LIG-0.27  OA
ATOM     71 H    GLN B   1      -6.874  -3.798  13.397  0.80 42.89 LIG 0.16  HD
ENDBRANCH 59 67
ENDBRANCH 56 59
ENDBRANCH 54 55
BRANCH 54 72
ATOM     72  CB  GLU B   2     -11.368  -6.724  10.321  0.80 37.98 LIG 0.04  C 
BRANCH 72 73
ATOM     73  CG  GLU B   2     -11.397  -5.515   9.390  0.80 38.47 LIG 0.12  C 
BRANCH 73 74
ATOM     74  CD  GLU B   2     -12.623  -4.637   9.613  0.80 38.45 LIG 0.17  C 
ATOM     75 OE1  GLU B   2     -13.736  -5.187   9.731  0.80 41.05 LIG-0.65  OA
ATOM     76 OE2  GLU B   2     -12.471  -3.404   9.686  0.80 38.47 LIG-0.65  OA
ENDBRANCH 73 74
ENDBRANCH 72 73
ENDBRANCH 54 72
ENDBRANCH 51 54
ENDBRANCH 1 50
TORSDOF 29
ENDMDL
MODEL 34
USER: ADFR SOLUTION from run 119
USER: SCORE 20.064325 LL:  -7.039 LR: -16.340 RR:   0.000 FEB:  -7.689
USER: RMSD 14.361017
USER: SEED 118
USER: STATUS no improvement in best in 6 clusters for 5 generations
USER: GENES 31
USER: genes 0 Translation |==|  0.73099 0.53121 0.40002
USER: genes 1 Rotation |==|  0.40596 0.05072 0.40581 0.67444
USER: genes 2 Torsion [C]-CA--CB-[CG] |==|  0.29707
USER: genes 3 Torsion [CA]-CB--CG-[CD] |==|  0.11045
USER: genes 4 Torsion [CB]-CG--CD-[NE] |==|  0.75890
USER: genes 5 Torsion [CG]-CD--NE-[CZ] |==|  0.32703
USER: genes 6 Torsion [N]-CA--C-[N] |==|  0.29890
USER: genes 7 Torsion [C]-N--CA-[CB] |==|  0.28329
USER: genes 8 Torsion [N]-CA--C-[N] |==|  0.03778
USER: genes 9 Torsion [C]-N--CA-[CB] |==|  0.53002
USER: genes 10 Torsion [N]-CA--CB-[CG2] |==|  0.47366
USER: genes 11 Torsion [N]-CA--C-[N] |==|  0.31713
USER: genes 12 Torsion [N]-CA--C-[O] |==|  0.41513
USER: genes 13 Torsion [C]-N--CA-[C] |==|  0.16252
USER: genes 14 Torsion [N]-CA--C-[O] |==|  0.68503
USER: genes 15 Torsion [N]-CA--CB-[SG] |==|  0.91328
USER: genes 16 Torsion [CA]-CB--SG-[HG] |==|  0.39682
USER: genes 17 Torsion [N]-CA--CB-[CG] |==|  0.20908
USER: genes 18 Torsion [CA]-CB--CG-[CD] |==|  0.79969
USER: genes 19 Torsion [CB]-CG--CD-[OE2] |==|  0.23432
USER: genes 20 Torsion [CB]-CA--N-[C] |==|  0.15800
USER: genes 21 Torsion [N]-C--CA-[N] |==|  0.34194
USER: genes 22 Torsion [C]-CA--N-[C] |==|  0.62691
USER: genes 23 Torsion [N]-C--CA-[N] |==|  0.91843
USER: genes 24 Torsion [C]-CA--CB-[CG] |==|  0.14522
USER: genes 25 Torsion [CA]-CB--CG-[CD] |==|  0.19439
USER: genes 26 Torsion [CB]-CG--CD-[OE1] |==|  0.24818
USER: genes 27 Torsion [C]-CA--N-[C] |==|  0.78076
USER: genes 28 Torsion [C]-CA--CB-[CG] |==|  0.40071
USER: genes 29 Torsion [CA]-CB--CG-[CD] |==|  0.81237
USER: genes 30 Torsion [CB]-CG--CD-[OE1] |==|  0.87965
ROOT
ATOM      1  CA  ARG B   3     -13.820  -7.574  14.276  0.80 33.15 LIG 0.18  C 
ENDROOT
BRANCH 1 2
ATOM      2  CB  ARG B   3     -13.023  -8.287  15.384  0.80 33.78 LIG 0.04  C 
BRANCH 2 3
ATOM      3  CG  ARG B   3     -13.250  -9.792  15.537  0.80 35.93 LIG 0.02  C 
BRANCH 3 4
ATOM      4  CD  ARG B   3     -13.378 -10.506  14.210  0.80 39.27 LIG 0.14  C 
BRANCH 4 5
ATOM      5  NE  ARG B   3     -14.752 -10.500  13.705  0.80 40.38 LIG-0.23  N 
ATOM      6  CZ  ARG B   3     -15.132  -9.923  12.565  0.80 40.37 LIG 0.67  C 
ATOM      7  NH1 ARG B   3     -14.243  -9.303  11.807  0.80 40.12 LIG-0.23  N 
ATOM      8  NH2 ARG B   3     -16.403  -9.976  12.179  0.80 41.10 LIG-0.23  N 
ATOM      9 2HH1 ARG B   3     -14.489  -8.931  11.072  0.80 40.12 LIG 0.17  HD
ATOM     10 1HH1 ARG B   3     -13.418  -9.272  12.049  0.80 40.12 LIG 0.17  HD
ATOM     11 2HH2 ARG B   3     -16.645  -9.603  11.444  0.80 41.10 LIG 0.17  HD
ATOM     12 1HH2 ARG B   3     -16.984 -10.384  12.666  0.80 41.10 LIG 0.17  HD
ATOM     13 HE   ARG B   3     -15.354 -10.896  14.175  0.80 40.38 LIG 0.18  HD
ENDBRANCH 4 5
ENDBRANCH 3 4
ENDBRANCH 2 3
ENDBRANCH 1 2
BRANCH 1 14
ATOM     14  C   ARG B   3     -14.933  -6.720  14.860  0.80 30.98 LIG 0.24  C 
ATOM     15 O    ARG B   3     -14.684  -5.909  15.748  0.80 30.41 LIG-0.27  OA
ATOM     16  N   GLU B   4     -16.141  -6.899  14.334  0.80 28.71 LIG-0.35  N 
ATOM     17 H    GLU B   4     -16.292  -7.385  13.640  0.80 28.71 LIG 0.16  HD
BRANCH 16 18
ATOM     18  CA  GLU B   4     -17.334  -6.277  14.898  0.80 27.21 LIG 0.18  C 
BRANCH 18 19
ATOM     19  C   GLU B   4     -18.456  -7.299  14.913  0.80 25.80 LIG 0.24  C 
ATOM     20 O    GLU B   4     -19.639  -6.955  15.093  0.80 26.39 LIG-0.27  OA
ATOM     21  N   VAL B   5     -18.086  -8.554  14.704  0.80 23.72 LIG-0.35  N 
ATOM     22 H    VAL B   5     -17.279  -8.786  14.516  0.80 23.72 LIG 0.16  HD
BRANCH 21 23
ATOM     23  CA  VAL B   5     -19.019  -9.665  14.775  0.80 22.93 LIG 0.18  C 
BRANCH 23 24
ATOM     24  CB  VAL B   5     -18.307 -11.023  14.760  0.80 23.26 LIG 0.01  C 
ATOM     25  CG2 VAL B   5     -19.296 -12.146  15.071  0.80 23.62 LIG 0.01  C 
ATOM     26  CG1 VAL B   5     -17.174 -11.030  15.758  0.80 24.46 LIG 0.01  C 
ENDBRANCH 23 24
BRANCH 23 27
ATOM     27  C   VAL B   5     -19.808  -9.505  16.072  0.80 21.40 LIG 0.24  C 
ATOM     28  N   PRO B   6     -21.121  -9.255  15.955  0.80 20.87 LIG-0.34  N 
ATOM     29  CD  PRO B   6     -21.923  -8.898  14.777  0.80 21.07 LIG 0.13  C 
ATOM     30  CA  PRO B   6     -21.908  -9.147  17.185  0.80 20.34 LIG 0.18  C 
ATOM     31  CG  PRO B   6     -23.126  -8.219  15.377  0.80 22.12 LIG 0.02  C 
ATOM     32  CB  PRO B   6     -23.325  -8.878  16.673  0.80 19.87 LIG 0.04  C 
ATOM     33 O    VAL B   5     -19.237  -9.608  17.164  0.80 20.67 LIG-0.27  OA
BRANCH 30 34
ATOM     34  C   PRO B   6     -21.864 -10.428  17.992  0.80 20.23 LIG 0.24  C 
ATOM     35 O    PRO B   6     -21.953 -10.377  19.236  0.80 20.62 LIG-0.27  OA
ATOM     36  N   CYS B   7     -21.755 -11.560  17.294  0.80 18.87 LIG-0.34  N 
ATOM     37 H    CYS B   7     -21.597 -11.587  16.449  0.80 18.87 LIG 0.16  HD
BRANCH 36 38
ATOM     38  CA  CYS B   7     -21.901 -12.883  17.925  0.80 19.21 LIG 0.19  C 
BRANCH 38 39
ATOM     39  C   CYS B   7     -23.253 -13.037  18.593  0.80 19.13 LIG 0.20  C 
ATOM     40 O    CYS B   7     -23.349 -13.137  19.828  0.80 18.45 LIG-0.65  OA
ATOM     41 OXT  CYS B   7     -24.280 -13.017  17.920  0.80 19.35 LIG-0.65  OA
ENDBRANCH 38 39
BRANCH 38 42
ATOM     42  CB  CYS B   7     -20.760 -13.152  18.903  0.80 19.02 LIG 0.11  C 
BRANCH 42 43
ATOM     43 SG   CYS B   7     -19.230 -12.340  18.380  0.80 21.06 LIG-0.18  SA
ATOM     44 HG   CYS B   7     -18.641 -11.934  19.344  0.80 21.06 LIG 0.10  HD
ENDBRANCH 42 43
ENDBRANCH 38 42
ENDBRANCH 36 38
ENDBRANCH 30 34
ENDBRANCH 23 27
ENDBRANCH 21 23
ENDBRANCH 18 19
BRANCH 18 45
ATOM     45  CB  GLU B   4     -17.771  -5.054  14.092  0.80 27.21 LIG 0.04  C 
BRANCH 45 46
ATOM     46  CG  GLU B   4     -18.447  -5.382  12.784  0.80 28.14 LIG 0.12  C 
BRANCH 46 47
ATOM     47  CD  GLU B   4     -17.493  -5.912  11.732  0.80 29.53 LIG 0.17  C 
ATOM     48 OE1  GLU B   4     -16.998  -5.136  10.882  0.80 28.59 LIG-0.65  OA
ATOM     49 OE2  GLU B   4     -17.238  -7.130  11.763  0.80 31.57 LIG-0.65  OA
ENDBRANCH 46 47
ENDBRANCH 45 46
ENDBRANCH 18 45
ENDBRANCH 16 18
ENDBRANCH 1 14
BRANCH 1 50
ATOM     50  N   ARG B   3     -12.957  -6.725  13.468  0.80 34.16 LIG-0.35  N 
ATOM     51  C   GLU B   2     -11.892  -7.216  12.839  0.80 36.27 LIG 0.24  C 
ATOM     52 O    GLU B   2     -11.518  -8.388  12.960  0.80 35.80 LIG-0.27  OA
ATOM     53 H    ARG B   3     -13.195  -5.900  13.438  0.80 34.16 LIG 0.16  HD
BRANCH 51 54
ATOM     54  CA  GLU B   2     -11.108  -6.229  11.979  0.80 37.72 LIG 0.18  C 
BRANCH 54 55
ATOM     55  N   GLU B   2      -9.713  -6.182  12.412  0.80 39.05 LIG-0.35  N 
ATOM     56  C   GLN B   1      -9.085  -5.019  12.572  0.80 40.84 LIG 0.24  C 
ATOM     57 O    GLN B   1      -9.640  -3.928  12.408  0.80 40.79 LIG-0.27  OA
ATOM     58 H    GLU B   2      -9.351  -6.950  12.548  0.80 39.05 LIG 0.16  HD
BRANCH 56 59
ATOM     59  CA  GLN B   1      -7.613  -5.084  12.975  0.80 42.15 LIG 0.18  C 
BRANCH 59 60
ATOM     60  CB  GLN B   1      -6.698  -5.066  11.746  0.80 42.68 LIG 0.04  C 
BRANCH 60 61
ATOM     61  CG  GLN B   1      -6.995  -3.900  10.793  0.80 43.94 LIG 0.10  C 
BRANCH 61 62
ATOM     62  CD  GLN B   1      -6.603  -2.550  11.360  0.80 46.27 LIG 0.21  C 
ATOM     63 OE1  GLN B   1      -5.472  -2.094  11.182  0.80 48.62 LIG-0.27  OA
ATOM     64  NE2 GLN B   1      -7.542  -1.894  12.042  0.80 47.40 LIG-0.37  N 
ATOM     65 22HE GLN B   1      -7.369  -1.121  12.377  0.80 47.40 LIG 0.16  HD
ATOM     66 21HE GLN B   1      -8.321  -2.244  12.146  0.80 47.40 LIG 0.16  HD
ENDBRANCH 61 62
ENDBRANCH 60 61
ENDBRANCH 59 60
BRANCH 59 67
ATOM     67  N   GLN B   1      -7.385  -6.299  13.751  0.80 42.89 LIG-0.35  N 
ATOM     68  C   ACE B   0      -7.712  -6.398  15.040  0.80 43.46 LIG 0.21  C 
ATOM     69  CH3 ACE B   0      -7.562  -7.777  15.619  0.80 43.70 LIG 0.12  C 
ATOM     70 O    ACE B   0      -8.363  -5.524  15.616  0.80 44.01 LIG-0.27  OA
ATOM     71 H    GLN B   1      -7.024  -6.938  13.302  0.80 42.89 LIG 0.16  HD
ENDBRANCH 59 67
ENDBRANCH 56 59
ENDBRANCH 54 55
BRANCH 54 72
ATOM     72  CB  GLU B   2     -11.237  -6.566  10.483  0.80 37.98 LIG 0.04  C 
BRANCH 72 73
ATOM     73  CG  GLU B   2     -11.290  -5.378   9.527  0.80 38.47 LIG 0.12  C 
BRANCH 73 74
ATOM     74  CD  GLU B   2     -12.566  -4.559   9.684  0.80 38.45 LIG 0.17  C 
ATOM     75 OE1  GLU B   2     -13.650  -5.164   9.805  0.80 41.05 LIG-0.65  OA
ATOM     76 OE2  GLU B   2     -12.483  -3.318   9.702  0.80 38.47 LIG-0.65  OA
ENDBRANCH 73 74
ENDBRANCH 72 73
ENDBRANCH 54 72
ENDBRANCH 51 54
ENDBRANCH 1 50
TORSDOF 29
ENDMDL
MODEL 35
USER: ADFR SOLUTION from run 53
USER: SCORE 20.177064 LL:  -6.866 LR: -16.288 RR:   0.000 FEB:  -7.638
USER: RMSD 13.720332
USER: SEED 52
USER: STATUS no improvement in best in 1 clusters for 5 generations
USER: GENES 31
USER: genes 0 Translation |==|  0.74103 0.43823 0.33536
USER: genes 1 Rotation |==|  0.55022 0.01250 0.48536 0.59800
USER: genes 2 Torsion [C]-CA--CB-[CG] |==|  0.19412
USER: genes 3 Torsion [CA]-CB--CG-[CD] |==|  0.10733
USER: genes 4 Torsion [CB]-CG--CD-[NE] |==|  0.62707
USER: genes 5 Torsion [CG]-CD--NE-[CZ] |==|  0.49614
USER: genes 6 Torsion [N]-CA--C-[N] |==|  0.47856
USER: genes 7 Torsion [C]-N--CA-[CB] |==|  0.54931
USER: genes 8 Torsion [N]-CA--C-[N] |==|  0.31448
USER: genes 9 Torsion [C]-N--CA-[CB] |==|  0.42012
USER: genes 10 Torsion [N]-CA--CB-[CG2] |==|  0.30887
USER: genes 11 Torsion [N]-CA--C-[N] |==|  0.90025
USER: genes 12 Torsion [N]-CA--C-[O] |==|  0.26308
USER: genes 13 Torsion [C]-N--CA-[C] |==|  0.17479
USER: genes 14 Torsion [N]-CA--C-[O] |==|  0.97678
USER: genes 15 Torsion [N]-CA--CB-[SG] |==|  0.89407
USER: genes 16 Torsion [CA]-CB--SG-[HG] |==|  0.21921
USER: genes 17 Torsion [N]-CA--CB-[CG] |==|  0.13121
USER: genes 18 Torsion [CA]-CB--CG-[CD] |==|  0.52875
USER: genes 19 Torsion [CB]-CG--CD-[OE2] |==|  0.69196
USER: genes 20 Torsion [CB]-CA--N-[C] |==|  0.19964
USER: genes 21 Torsion [N]-C--CA-[N] |==|  0.41141
USER: genes 22 Torsion [C]-CA--N-[C] |==|  0.69866
USER: genes 23 Torsion [N]-C--CA-[N] |==|  0.37435
USER: genes 24 Torsion [C]-CA--CB-[CG] |==|  0.07862
USER: genes 25 Torsion [CA]-CB--CG-[CD] |==|  0.71956
USER: genes 26 Torsion [CB]-CG--CD-[OE1] |==|  0.94238
USER: genes 27 Torsion [C]-CA--N-[C] |==|  0.62007
USER: genes 28 Torsion [C]-CA--CB-[CG] |==|  0.41946
USER: genes 29 Torsion [CA]-CB--CG-[CD] |==|  0.86117
USER: genes 30 Torsion [CB]-CG--CD-[OE1] |==|  0.89303
ROOT
ATOM      1  CA  ARG B   3     -13.503  -9.248  13.112  0.80 33.15 LIG 0.18  C 
ENDROOT
BRANCH 1 2
ATOM      2  CB  ARG B   3     -12.977  -9.299  14.558  0.80 33.78 LIG 0.04  C 
BRANCH 2 3
ATOM      3  CG  ARG B   3     -13.229 -10.591  15.339  0.80 35.93 LIG 0.02  C 
BRANCH 3 4
ATOM      4  CD  ARG B   3     -13.077 -11.832  14.487  0.80 39.27 LIG 0.14  C 
BRANCH 4 5
ATOM      5  NE  ARG B   3     -14.171 -12.784  14.690  0.80 40.38 LIG-0.23  N 
ATOM      6  CZ  ARG B   3     -14.290 -13.942  14.043  0.80 40.37 LIG 0.67  C 
ATOM      7  NH1 ARG B   3     -13.382 -14.299  13.149  0.80 40.12 LIG-0.23  N 
ATOM      8  NH2 ARG B   3     -15.313 -14.751  14.299  0.80 41.10 LIG-0.23  N 
ATOM      9 2HH1 ARG B   3     -13.459 -15.047  12.732  0.80 40.12 LIG 0.17  HD
ATOM     10 1HH1 ARG B   3     -12.714 -13.782  12.984  0.80 40.12 LIG 0.17  HD
ATOM     11 2HH2 ARG B   3     -15.387 -15.498  13.880  0.80 41.10 LIG 0.17  HD
ATOM     12 1HH2 ARG B   3     -15.902 -14.527  14.885  0.80 41.10 LIG 0.17  HD
ATOM     13 HE   ARG B   3     -14.777 -12.581  15.266  0.80 40.38 LIG 0.18  HD
ENDBRANCH 4 5
ENDBRANCH 3 4
ENDBRANCH 2 3
ENDBRANCH 1 2
BRANCH 1 14
ATOM     14  C   ARG B   3     -15.022  -9.191  13.080  0.80 30.98 LIG 0.24  C 
ATOM     15 O    ARG B   3     -15.591  -8.206  12.618  0.80 30.41 LIG-0.27  OA
ATOM     16  N   GLU B   4     -15.654 -10.263  13.551  0.80 28.71 LIG-0.35  N 
ATOM     17 H    GLU B   4     -15.256 -10.993  13.771  0.80 28.71 LIG 0.16  HD
BRANCH 16 18
ATOM     18  CA  GLU B   4     -17.101 -10.290  13.739  0.80 27.21 LIG 0.18  C 
BRANCH 18 19
ATOM     19  C   GLU B   4     -17.541  -8.960  14.324  0.80 25.80 LIG 0.24  C 
ATOM     20 O    GLU B   4     -17.192  -8.613  15.467  0.80 26.39 LIG-0.27  OA
ATOM     21  N   VAL B   5     -18.293  -8.210  13.531  0.80 23.72 LIG-0.35  N 
ATOM     22 H    VAL B   5     -18.482  -8.420  12.719  0.80 23.72 LIG 0.16  HD
BRANCH 21 23
ATOM     23  CA  VAL B   5     -18.874  -6.952  13.968  0.80 22.93 LIG 0.18  C 
BRANCH 23 24
ATOM     24  CB  VAL B   5     -19.069  -5.970  12.807  0.80 23.26 LIG 0.01  C 
ATOM     25  CG2 VAL B   5     -20.557  -5.771  12.522  0.80 23.62 LIG 0.01  C 
ATOM     26  CG1 VAL B   5     -18.360  -6.474  11.572  0.80 24.46 LIG 0.01  C 
ENDBRANCH 23 24
BRANCH 23 27
ATOM     27  C   VAL B   5     -20.220  -7.278  14.607  0.80 21.40 LIG 0.24  C 
ATOM     28  N   PRO B   6     -20.926  -8.278  14.056  0.80 20.87 LIG-0.34  N 
ATOM     29  CD  PRO B   6     -20.726  -9.004  12.795  0.80 21.07 LIG 0.13  C 
ATOM     30  CA  PRO B   6     -22.198  -8.643  14.682  0.80 20.34 LIG 0.18  C 
ATOM     31  CG  PRO B   6     -22.097  -9.553  12.497  0.80 22.12 LIG 0.02  C 
ATOM     32  CB  PRO B   6     -22.699  -9.798  13.813  0.80 19.87 LIG 0.04  C 
ATOM     33 O    VAL B   5     -20.616  -6.635  15.586  0.80 20.67 LIG-0.27  OA
BRANCH 30 34
ATOM     34  C   PRO B   6     -22.007  -9.094  16.116  0.80 20.23 LIG 0.24  C 
ATOM     35 O    PRO B   6     -22.144  -8.271  17.045  0.80 20.62 LIG-0.27  OA
ATOM     36  N   CYS B   7     -21.723 -10.386  16.293  0.80 18.87 LIG-0.34  N 
ATOM     37 H    CYS B   7     -21.534 -10.926  15.651  0.80 18.87 LIG 0.16  HD
BRANCH 36 38
ATOM     38  CA  CYS B   7     -21.708 -11.005  17.630  0.80 19.21 LIG 0.19  C 
BRANCH 38 39
ATOM     39  C   CYS B   7     -23.077 -10.960  18.280  0.80 19.13 LIG 0.20  C 
ATOM     40 O    CYS B   7     -24.008 -10.315  17.768  0.80 18.45 LIG-0.65  OA
ATOM     41 OXT  CYS B   7     -23.296 -11.603  19.303  0.80 19.35 LIG-0.65  OA
ENDBRANCH 38 39
BRANCH 38 42
ATOM     42  CB  CYS B   7     -20.645 -10.365  18.520  0.80 19.02 LIG 0.11  C 
BRANCH 42 43
ATOM     43 SG   CYS B   7     -19.145  -9.973  17.586  0.80 21.06 LIG-0.18  SA
ATOM     44 HG   CYS B   7     -19.313  -8.961  16.964  0.80 21.06 LIG 0.10  HD
ENDBRANCH 42 43
ENDBRANCH 38 42
ENDBRANCH 36 38
ENDBRANCH 30 34
ENDBRANCH 23 27
ENDBRANCH 21 23
ENDBRANCH 18 19
BRANCH 18 45
ATOM     45  CB  GLU B   4     -17.530 -11.422  14.671  0.80 27.21 LIG 0.04  C 
BRANCH 45 46
ATOM     46  CG  GLU B   4     -16.722 -11.521  15.941  0.80 28.14 LIG 0.12  C 
BRANCH 46 47
ATOM     47  CD  GLU B   4     -16.994 -12.787  16.728  0.80 29.53 LIG 0.17  C 
ATOM     48 OE1  GLU B   4     -16.624 -13.898  16.283  0.80 28.59 LIG-0.65  OA
ATOM     49 OE2  GLU B   4     -17.589 -12.660  17.814  0.80 31.57 LIG-0.65  OA
ENDBRANCH 46 47
ENDBRANCH 45 46
ENDBRANCH 18 45
ENDBRANCH 16 18
ENDBRANCH 1 14
BRANCH 1 50
ATOM     50  N   ARG B   3     -12.979  -8.091  12.401  0.80 34.16 LIG-0.35  N 
ATOM     51  C   GLU B   2     -11.706  -8.028  12.021  0.80 36.27 LIG 0.24  C 
ATOM     52 O    GLU B   2     -10.872  -8.892  12.312  0.80 35.80 LIG-0.27  OA
ATOM     53 H    ARG B   3     -13.556  -7.471  12.254  0.80 34.16 LIG 0.16  HD
BRANCH 51 54
ATOM     54  CA  GLU B   2     -11.303  -6.785  11.232  0.80 37.72 LIG 0.18  C 
BRANCH 54 55
ATOM     55  N   GLU B   2      -9.912  -6.439  11.515  0.80 39.05 LIG-0.35  N 
ATOM     56  C   GLN B   1      -9.608  -5.367  12.244  0.80 40.84 LIG 0.24  C 
ATOM     57 O    GLN B   1     -10.463  -4.636  12.752  0.80 40.79 LIG-0.27  OA
ATOM     58 H    GLU B   2      -9.331  -6.975  11.177  0.80 39.05 LIG 0.16  HD
BRANCH 56 59
ATOM     59  CA  GLN B   1      -8.122  -5.065  12.435  0.80 42.15 LIG 0.18  C 
BRANCH 59 60
ATOM     60  CB  GLN B   1      -7.647  -5.468  13.835  0.80 42.68 LIG 0.04  C 
BRANCH 60 61
ATOM     61  CG  GLN B   1      -8.455  -6.628  14.432  0.80 43.94 LIG 0.10  C 
BRANCH 61 62
ATOM     62  CD  GLN B   1      -9.496  -6.176  15.438  0.80 46.27 LIG 0.21  C 
ATOM     63 OE1  GLN B   1      -9.402  -5.081  15.995  0.80 48.62 LIG-0.27  OA
ATOM     64  NE2 GLN B   1     -10.504  -7.016  15.670  0.80 47.40 LIG-0.37  N 
ATOM     65 22HE GLN B   1     -11.122  -6.801  16.228  0.80 47.40 LIG 0.16  HD
ATOM     66 21HE GLN B   1     -10.536  -7.772  15.262  0.80 47.40 LIG 0.16  HD
ENDBRANCH 61 62
ENDBRANCH 60 61
ENDBRANCH 59 60
BRANCH 59 67
ATOM     67  N   GLN B   1      -7.896  -3.639  12.220  0.80 42.89 LIG-0.35  N 
ATOM     68  C   ACE B   0      -6.864  -3.175  11.516  0.80 43.46 LIG 0.21  C 
ATOM     69  CH3 ACE B   0      -6.896  -1.694  11.260  0.80 43.70 LIG 0.12  C 
ATOM     70 O    ACE B   0      -6.122  -3.923  10.876  0.80 44.01 LIG-0.27  OA
ATOM     71 H    GLN B   1      -8.486  -3.132  12.588  0.80 42.89 LIG 0.16  HD
ENDBRANCH 59 67
ENDBRANCH 56 59
ENDBRANCH 54 55
BRANCH 54 72
ATOM     72  CB  GLU B   2     -11.557  -6.972   9.726  0.80 37.98 LIG 0.04  C 
BRANCH 72 73
ATOM     73  CG  GLU B   2     -11.864  -5.707   8.932  0.80 38.47 LIG 0.12  C 
BRANCH 73 74
ATOM     74  CD  GLU B   2     -12.957  -4.864   9.578  0.80 38.45 LIG 0.17  C 
ATOM     75 OE1  GLU B   2     -13.924  -5.447  10.107  0.80 41.05 LIG-0.65  OA
ATOM     76 OE2  GLU B   2     -12.842  -3.624   9.570  0.80 38.47 LIG-0.65  OA
ENDBRANCH 73 74
ENDBRANCH 72 73
ENDBRANCH 54 72
ENDBRANCH 51 54
ENDBRANCH 1 50
TORSDOF 29
ENDMDL
MODEL 36
USER: ADFR SOLUTION from run 175
USER: SCORE 20.540975 LL:  -6.455 LR: -16.276 RR:   0.000 FEB:  -7.625
USER: RMSD 13.735903
USER: SEED 174
USER: STATUS 1 or 2 clusters left
USER: GENES 31
USER: genes 0 Translation |==|  0.84203 0.56704 0.37882
USER: genes 1 Rotation |==|  0.47467 0.12915 0.76425 0.70494
USER: genes 2 Torsion [C]-CA--CB-[CG] |==|  0.38453
USER: genes 3 Torsion [CA]-CB--CG-[CD] |==|  0.34242
USER: genes 4 Torsion [CB]-CG--CD-[NE] |==|  0.92721
USER: genes 5 Torsion [CG]-CD--NE-[CZ] |==|  0.32711
USER: genes 6 Torsion [N]-CA--C-[N] |==|  0.36996
USER: genes 7 Torsion [C]-N--CA-[CB] |==|  0.87205
USER: genes 8 Torsion [N]-CA--C-[N] |==|  0.76241
USER: genes 9 Torsion [C]-N--CA-[CB] |==|  0.87608
USER: genes 10 Torsion [N]-CA--CB-[CG2] |==|  0.70946
USER: genes 11 Torsion [N]-CA--C-[N] |==|  0.37222
USER: genes 12 Torsion [N]-CA--C-[O] |==|  0.82662
USER: genes 13 Torsion [C]-N--CA-[C] |==|  0.65768
USER: genes 14 Torsion [N]-CA--C-[O] |==|  0.52583
USER: genes 15 Torsion [N]-CA--CB-[SG] |==|  0.87982
USER: genes 16 Torsion [CA]-CB--SG-[HG] |==|  0.28841
USER: genes 17 Torsion [N]-CA--CB-[CG] |==|  0.79011
USER: genes 18 Torsion [CA]-CB--CG-[CD] |==|  0.11330
USER: genes 19 Torsion [CB]-CG--CD-[OE2] |==|  0.76569
USER: genes 20 Torsion [CB]-CA--N-[C] |==|  0.50759
USER: genes 21 Torsion [N]-C--CA-[N] |==|  0.39776
USER: genes 22 Torsion [C]-CA--N-[C] |==|  0.80322
USER: genes 23 Torsion [N]-C--CA-[N] |==|  0.48600
USER: genes 24 Torsion [C]-CA--CB-[CG] |==|  0.92879
USER: genes 25 Torsion [CA]-CB--CG-[CD] |==|  0.47869
USER: genes 26 Torsion [CB]-CG--CD-[OE1] |==|  0.54929
USER: genes 27 Torsion [C]-CA--N-[C] |==|  0.55567
USER: genes 28 Torsion [C]-CA--CB-[CG] |==|  0.19125
USER: genes 29 Torsion [CA]-CB--CG-[CD] |==|  0.61494
USER: genes 30 Torsion [CB]-CG--CD-[OE1] |==|  0.03057
ROOT
ATOM      1  CA  ARG B   3     -10.322  -6.929  13.895  0.80 33.15 LIG 0.18  C 
ENDROOT
BRANCH 1 2
ATOM      2  CB  ARG B   3      -9.354  -5.751  14.107  0.80 33.78 LIG 0.04  C 
BRANCH 2 3
ATOM      3  CG  ARG B   3      -7.981  -6.084  14.696  0.80 35.93 LIG 0.02  C 
BRANCH 3 4
ATOM      4  CD  ARG B   3      -6.839  -5.626  13.817  0.80 39.27 LIG 0.14  C 
BRANCH 4 5
ATOM      5  NE  ARG B   3      -7.219  -5.543  12.406  0.80 40.38 LIG-0.23  N 
ATOM      6  CZ  ARG B   3      -7.214  -4.419  11.690  0.80 40.37 LIG 0.67  C 
ATOM      7  NH1 ARG B   3      -6.846  -3.278  12.250  0.80 40.12 LIG-0.23  N 
ATOM      8  NH2 ARG B   3      -7.566  -4.440  10.409  0.80 41.10 LIG-0.23  N 
ATOM      9 2HH1 ARG B   3      -6.843  -2.553  11.787  0.80 40.12 LIG 0.17  HD
ATOM     10 1HH1 ARG B   3      -6.610  -3.261  13.078  0.80 40.12 LIG 0.17  HD
ATOM     11 2HH2 ARG B   3      -7.562  -3.713   9.950  0.80 41.10 LIG 0.17  HD
ATOM     12 1HH2 ARG B   3      -7.800  -5.180  10.039  0.80 41.10 LIG 0.17  HD
ATOM     13 HE   ARG B   3      -7.462  -6.268  12.013  0.80 40.38 LIG 0.18  HD
ENDBRANCH 4 5
ENDBRANCH 3 4
ENDBRANCH 2 3
ENDBRANCH 1 2
BRANCH 1 14
ATOM     14  C   ARG B   3     -11.739  -6.560  14.302  0.80 30.98 LIG 0.24  C 
ATOM     15 O    ARG B   3     -12.429  -5.863  13.563  0.80 30.41 LIG-0.27  OA
ATOM     16  N   GLU B   4     -12.157  -7.054  15.464  0.80 28.71 LIG-0.35  N 
ATOM     17 H    GLU B   4     -11.714  -7.628  15.925  0.80 28.71 LIG 0.16  HD
BRANCH 16 18
ATOM     18  CA  GLU B   4     -13.425  -6.654  16.066  0.80 27.21 LIG 0.18  C 
BRANCH 18 19
ATOM     19  C   GLU B   4     -14.557  -7.323  15.305  0.80 25.80 LIG 0.24  C 
ATOM     20 O    GLU B   4     -15.053  -8.395  15.700  0.80 26.39 LIG-0.27  OA
ATOM     21  N   VAL B   5     -14.975  -6.680  14.225  0.80 23.72 LIG-0.35  N 
ATOM     22 H    VAL B   5     -14.678  -5.909  13.987  0.80 23.72 LIG 0.16  HD
BRANCH 21 23
ATOM     23  CA  VAL B   5     -15.985  -7.225  13.335  0.80 22.93 LIG 0.18  C 
BRANCH 23 24
ATOM     24  CB  VAL B   5     -15.745  -8.707  13.022  0.80 23.26 LIG 0.01  C 
ATOM     25  CG2 VAL B   5     -15.183  -8.868  11.610  0.80 23.62 LIG 0.01  C 
ATOM     26  CG1 VAL B   5     -17.030  -9.487  13.168  0.80 24.46 LIG 0.01  C 
ENDBRANCH 23 24
BRANCH 23 27
ATOM     27  C   VAL B   5     -17.334  -7.051  14.027  0.80 21.40 LIG 0.24  C 
ATOM     28  N   PRO B   6     -18.339  -6.565  13.282  0.80 20.87 LIG-0.34  N 
ATOM     29  CD  PRO B   6     -18.329  -5.966  11.941  0.80 21.07 LIG 0.13  C 
ATOM     30  CA  PRO B   6     -19.655  -6.436  13.910  0.80 20.34 LIG 0.18  C 
ATOM     31  CG  PRO B   6     -19.592  -5.145  11.924  0.80 22.12 LIG 0.02  C 
ATOM     32  CB  PRO B   6     -20.528  -5.877  12.785  0.80 19.87 LIG 0.04  C 
ATOM     33 O    VAL B   5     -17.465  -7.352  15.219  0.80 20.67 LIG-0.27  OA
BRANCH 30 34
ATOM     34  C   PRO B   6     -20.183  -7.774  14.385  0.80 20.23 LIG 0.24  C 
ATOM     35 O    PRO B   6     -20.402  -8.680  13.554  0.80 20.62 LIG-0.27  OA
ATOM     36  N   CYS B   7     -20.358  -7.905  15.701  0.80 18.87 LIG-0.34  N 
ATOM     37 H    CYS B   7     -20.300  -7.252  16.258  0.80 18.87 LIG 0.16  HD
BRANCH 36 38
ATOM     38  CA  CYS B   7     -20.672  -9.203  16.322  0.80 19.21 LIG 0.19  C 
BRANCH 38 39
ATOM     39  C   CYS B   7     -21.959  -9.143  17.120  0.80 19.13 LIG 0.20  C 
ATOM     40 O    CYS B   7     -22.301 -10.086  17.854  0.80 18.45 LIG-0.65  OA
ATOM     41 OXT  CYS B   7     -22.660  -8.136  17.086  0.80 19.35 LIG-0.65  OA
ENDBRANCH 38 39
BRANCH 38 42
ATOM     42  CB  CYS B   7     -19.507  -9.699  17.175  0.80 19.02 LIG 0.11  C 
BRANCH 42 43
ATOM     43 SG   CYS B   7     -17.920  -9.455  16.341  0.80 21.06 LIG-0.18  SA
ATOM     44 HG   CYS B   7     -17.352  -8.515  16.826  0.80 21.06 LIG 0.10  HD
ENDBRANCH 42 43
ENDBRANCH 38 42
ENDBRANCH 36 38
ENDBRANCH 30 34
ENDBRANCH 23 27
ENDBRANCH 21 23
ENDBRANCH 18 19
BRANCH 18 45
ATOM     45  CB  GLU B   4     -13.617  -5.139  16.032  0.80 27.21 LIG 0.04  C 
BRANCH 45 46
ATOM     46  CG  GLU B   4     -12.797  -4.386  17.050  0.80 28.14 LIG 0.12  C 
BRANCH 46 47
ATOM     47  CD  GLU B   4     -11.388  -4.922  17.201  0.80 29.53 LIG 0.17  C 
ATOM     48 OE1  GLU B   4     -10.442  -4.398  16.567  0.80 28.59 LIG-0.65  OA
ATOM     49 OE2  GLU B   4     -11.230  -5.887  17.972  0.80 31.57 LIG-0.65  OA
ENDBRANCH 46 47
ENDBRANCH 45 46
ENDBRANCH 18 45
ENDBRANCH 16 18
ENDBRANCH 1 14
BRANCH 1 50
ATOM     50  N   ARG B   3     -10.335  -7.358  12.504  0.80 34.16 LIG-0.35  N 
ATOM     51  C   GLU B   2     -11.141  -8.328  12.084  0.80 36.27 LIG 0.24  C 
ATOM     52 O    GLU B   2     -11.865  -8.981  12.843  0.80 35.80 LIG-0.27  OA
ATOM     53 H    ARG B   3      -9.785  -6.935  11.995  0.80 34.16 LIG 0.16  HD
BRANCH 51 54
ATOM     54  CA  GLU B   2     -11.095  -8.638  10.589  0.80 37.72 LIG 0.18  C 
BRANCH 54 55
ATOM     55  N   GLU B   2     -11.243 -10.075  10.369  0.80 39.05 LIG-0.35  N 
ATOM     56  C   GLN B   1     -10.268 -10.921  10.693  0.80 40.84 LIG 0.24  C 
ATOM     57 O    GLN B   1      -9.215 -10.560  11.227  0.80 40.79 LIG-0.27  OA
ATOM     58 H    GLU B   2     -11.994 -10.311  10.022  0.80 39.05 LIG 0.16  HD
BRANCH 56 59
ATOM     59  CA  GLN B   1     -10.504 -12.396  10.370  0.80 42.15 LIG 0.18  C 
BRANCH 59 60
ATOM     60  CB  GLN B   1     -11.690 -12.957  11.162  0.80 42.68 LIG 0.04  C 
BRANCH 60 61
ATOM     61  CG  GLN B   1     -11.951 -12.198  12.470  0.80 43.94 LIG 0.10  C 
BRANCH 61 62
ATOM     62  CD  GLN B   1     -13.229 -12.625  13.165  0.80 46.27 LIG 0.21  C 
ATOM     63 OE1  GLN B   1     -13.746 -11.914  14.028  0.80 48.62 LIG-0.27  OA
ATOM     64  NE2 GLN B   1     -13.753 -13.790  12.786  0.80 47.40 LIG-0.37  N 
ATOM     65 22HE GLN B   1     -14.481 -14.072  13.147  0.80 47.40 LIG 0.16  HD
ATOM     66 21HE GLN B   1     -13.363 -14.260  12.179  0.80 47.40 LIG 0.16  HD
ENDBRANCH 61 62
ENDBRANCH 60 61
ENDBRANCH 59 60
BRANCH 59 67
ATOM     67  N   GLN B   1      -9.293 -13.150  10.682  0.80 42.89 LIG-0.35  N 
ATOM     68  C   ACE B   0      -9.044 -14.352  10.163  0.80 43.46 LIG 0.21  C 
ATOM     69  CH3 ACE B   0      -7.674 -14.893  10.464  0.80 43.70 LIG 0.12  C 
ATOM     70 O    ACE B   0      -9.747 -14.837   9.272  0.80 44.01 LIG-0.27  OA
ATOM     71 H    GLN B   1      -8.762 -12.749  11.226  0.80 42.89 LIG 0.16  HD
ENDBRANCH 59 67
ENDBRANCH 56 59
ENDBRANCH 54 55
BRANCH 54 72
ATOM     72  CB  GLU B   2     -12.147  -7.824   9.817  0.80 37.98 LIG 0.04  C 
BRANCH 72 73
ATOM     73  CG  GLU B   2     -11.906  -6.319   9.732  0.80 38.47 LIG 0.12  C 
BRANCH 73 74
ATOM     74  CD  GLU B   2     -13.186  -5.513   9.923  0.80 38.45 LIG 0.17  C 
ATOM     75 OE1  GLU B   2     -14.208  -6.105  10.324  0.80 41.05 LIG-0.65  OA
ATOM     76 OE2  GLU B   2     -13.165  -4.291   9.687  0.80 38.47 LIG-0.65  OA
ENDBRANCH 73 74
ENDBRANCH 72 73
ENDBRANCH 54 72
ENDBRANCH 51 54
ENDBRANCH 1 50
TORSDOF 29
ENDMDL
MODEL 37
USER: ADFR SOLUTION from run 123
USER: SCORE 19.435727 LL:  -6.781 LR: -16.189 RR:   0.000 FEB:  -7.538
USER: RMSD 12.849454
USER: SEED 122
USER: STATUS no improvement in best in 10 clusters for 5 generations
USER: GENES 31
USER: genes 0 Translation |==|  0.64717 0.51510 0.45080
USER: genes 1 Rotation |==|  0.39081 0.84950 0.15995 0.51695
USER: genes 2 Torsion [C]-CA--CB-[CG] |==|  0.89113
USER: genes 3 Torsion [CA]-CB--CG-[CD] |==|  0.67087
USER: genes 4 Torsion [CB]-CG--CD-[NE] |==|  0.28116
USER: genes 5 Torsion [CG]-CD--NE-[CZ] |==|  0.31166
USER: genes 6 Torsion [N]-CA--C-[N] |==|  0.45215
USER: genes 7 Torsion [C]-N--CA-[CB] |==|  0.50273
USER: genes 8 Torsion [N]-CA--C-[N] |==|  0.85461
USER: genes 9 Torsion [C]-N--CA-[CB] |==|  0.78178
USER: genes 10 Torsion [N]-CA--CB-[CG2] |==|  0.48202
USER: genes 11 Torsion [N]-CA--C-[N] |==|  0.21543
USER: genes 12 Torsion [N]-CA--C-[O] |==|  0.39356
USER: genes 13 Torsion [C]-N--CA-[C] |==|  0.62674
USER: genes 14 Torsion [N]-CA--C-[O] |==|  0.50085
USER: genes 15 Torsion [N]-CA--CB-[SG] |==|  0.01351
USER: genes 16 Torsion [CA]-CB--SG-[HG] |==|  0.21070
USER: genes 17 Torsion [N]-CA--CB-[CG] |==|  0.85977
USER: genes 18 Torsion [CA]-CB--CG-[CD] |==|  0.74957
USER: genes 19 Torsion [CB]-CG--CD-[OE2] |==|  0.25272
USER: genes 20 Torsion [CB]-CA--N-[C] |==|  0.16531
USER: genes 21 Torsion [N]-C--CA-[N] |==|  0.68797
USER: genes 22 Torsion [C]-CA--N-[C] |==|  0.63936
USER: genes 23 Torsion [N]-C--CA-[N] |==|  0.31835
USER: genes 24 Torsion [C]-CA--CB-[CG] |==|  0.06224
USER: genes 25 Torsion [CA]-CB--CG-[CD] |==|  0.27130
USER: genes 26 Torsion [CB]-CG--CD-[OE1] |==|  0.35622
USER: genes 27 Torsion [C]-CA--N-[C] |==|  0.80884
USER: genes 28 Torsion [C]-CA--CB-[CG] |==|  0.31619
USER: genes 29 Torsion [CA]-CB--CG-[CD] |==|  0.94233
USER: genes 30 Torsion [CB]-CG--CD-[OE1] |==|  0.72805
ROOT
ATOM      1  CA  ARG B   3     -16.460  -7.864  15.190  0.80 33.15 LIG 0.18  C 
ENDROOT
BRANCH 1 2
ATOM      2  CB  ARG B   3     -17.059  -6.453  15.329  0.80 33.78 LIG 0.04  C 
BRANCH 2 3
ATOM      3  CG  ARG B   3     -18.343  -6.168  14.548  0.80 35.93 LIG 0.02  C 
BRANCH 3 4
ATOM      4  CD  ARG B   3     -18.178  -5.062  13.530  0.80 39.27 LIG 0.14  C 
BRANCH 4 5
ATOM      5  NE  ARG B   3     -18.012  -5.576  12.169  0.80 40.38 LIG-0.23  N 
ATOM      6  CZ  ARG B   3     -18.906  -5.425  11.193  0.80 40.37 LIG 0.67  C 
ATOM      7  NH1 ARG B   3     -20.034  -4.773  11.422  0.80 40.12 LIG-0.23  N 
ATOM      8  NH2 ARG B   3     -18.665  -5.919   9.983  0.80 41.10 LIG-0.23  N 
ATOM      9 2HH1 ARG B   3     -20.610  -4.675  10.791  0.80 40.12 LIG 0.17  HD
ATOM     10 1HH1 ARG B   3     -20.191  -4.445  12.202  0.80 40.12 LIG 0.17  HD
ATOM     11 2HH2 ARG B   3     -19.244  -5.820   9.355  0.80 41.10 LIG 0.17  HD
ATOM     12 1HH2 ARG B   3     -17.931  -6.338   9.827  0.80 41.10 LIG 0.17  HD
ATOM     13 HE   ARG B   3     -17.288  -6.005  11.988  0.80 40.38 LIG 0.18  HD
ENDBRANCH 4 5
ENDBRANCH 3 4
ENDBRANCH 2 3
ENDBRANCH 1 2
BRANCH 1 14
ATOM     14  C   ARG B   3     -17.548  -8.925  15.161  0.80 30.98 LIG 0.24  C 
ATOM     15 O    ARG B   3     -17.824  -9.493  14.108  0.80 30.41 LIG-0.27  OA
ATOM     16  N   GLU B   4     -18.132  -9.191  16.326  0.80 28.71 LIG-0.35  N 
ATOM     17 H    GLU B   4     -17.863  -8.873  17.078  0.80 28.71 LIG 0.16  HD
BRANCH 16 18
ATOM     18  CA  GLU B   4     -19.301 -10.059  16.428  0.80 27.21 LIG 0.18  C 
BRANCH 18 19
ATOM     19  C   GLU B   4     -20.410  -9.486  15.564  0.80 25.80 LIG 0.24  C 
ATOM     20 O    GLU B   4     -21.003 -10.191  14.726  0.80 26.39 LIG-0.27  OA
ATOM     21  N   VAL B   5     -20.702  -8.212  15.782  0.80 23.72 LIG-0.35  N 
ATOM     22 H    VAL B   5     -20.338  -7.741  16.404  0.80 23.72 LIG 0.16  HD
BRANCH 21 23
ATOM     23  CA  VAL B   5     -21.673  -7.485  14.982  0.80 22.93 LIG 0.18  C 
BRANCH 23 24
ATOM     24  CB  VAL B   5     -21.098  -7.045  13.631  0.80 23.26 LIG 0.01  C 
ATOM     25  CG2 VAL B   5     -22.194  -6.429  12.762  0.80 23.62 LIG 0.01  C 
ATOM     26  CG1 VAL B   5     -20.466  -8.222  12.924  0.80 24.46 LIG 0.01  C 
ENDBRANCH 23 24
BRANCH 23 27
ATOM     27  C   VAL B   5     -22.861  -8.417  14.765  0.80 21.40 LIG 0.24  C 
ATOM     28  N   PRO B   6     -23.712  -8.563  15.792  0.80 20.87 LIG-0.34  N 
ATOM     29  CD  PRO B   6     -23.600  -8.134  17.192  0.80 21.07 LIG 0.13  C 
ATOM     30  CA  PRO B   6     -24.888  -9.412  15.590  0.80 20.34 LIG 0.18  C 
ATOM     31  CG  PRO B   6     -24.552  -9.056  17.909  0.80 22.12 LIG 0.02  C 
ATOM     32  CB  PRO B   6     -25.614  -9.332  16.934  0.80 19.87 LIG 0.04  C 
ATOM     33 O    VAL B   5     -23.007  -8.997  13.683  0.80 20.67 LIG-0.27  OA
BRANCH 30 34
ATOM     34  C   PRO B   6     -25.769  -8.894  14.472  0.80 20.23 LIG 0.24  C 
ATOM     35 O    PRO B   6     -26.322  -9.701  13.698  0.80 20.62 LIG-0.27  OA
ATOM     36  N   CYS B   7     -25.917  -7.569  14.407  0.80 18.87 LIG-0.34  N 
ATOM     37 H    CYS B   7     -25.460  -7.013  14.878  0.80 18.87 LIG 0.16  HD
BRANCH 36 38
ATOM     38  CA  CYS B   7     -26.896  -6.938  13.504  0.80 19.21 LIG 0.19  C 
BRANCH 38 39
ATOM     39  C   CYS B   7     -26.290  -5.767  12.757  0.80 19.13 LIG 0.20  C 
ATOM     40 O    CYS B   7     -26.965  -5.103  11.951  0.80 18.45 LIG-0.65  OA
ATOM     41 OXT  CYS B   7     -25.130  -5.429  12.975  0.80 19.35 LIG-0.65  OA
ENDBRANCH 38 39
BRANCH 38 42
ATOM     42  CB  CYS B   7     -28.155  -6.525  14.263  0.80 19.02 LIG 0.11  C 
BRANCH 42 43
ATOM     43 SG   CYS B   7     -27.984  -6.814  16.042  0.80 21.06 LIG-0.18  SA
ATOM     44 HG   CYS B   7     -27.285  -5.965  16.520  0.80 21.06 LIG 0.10  HD
ENDBRANCH 42 43
ENDBRANCH 38 42
ENDBRANCH 36 38
ENDBRANCH 30 34
ENDBRANCH 23 27
ENDBRANCH 21 23
ENDBRANCH 18 19
BRANCH 18 45
ATOM     45  CB  GLU B   4     -19.792 -10.182  17.869  0.80 27.21 LIG 0.04  C 
BRANCH 45 46
ATOM     46  CG  GLU B   4     -18.715 -10.537  18.864  0.80 28.14 LIG 0.12  C 
BRANCH 46 47
ATOM     47  CD  GLU B   4     -18.546 -12.030  19.060  0.80 29.53 LIG 0.17  C 
ATOM     48 OE1  GLU B   4     -19.221 -12.632  19.928  0.80 28.59 LIG-0.65  OA
ATOM     49 OE2  GLU B   4     -17.721 -12.606  18.328  0.80 31.57 LIG-0.65  OA
ENDBRANCH 46 47
ENDBRANCH 45 46
ENDBRANCH 18 45
ENDBRANCH 16 18
ENDBRANCH 1 14
BRANCH 1 50
ATOM     50  N   ARG B   3     -15.662  -7.982  13.978  0.80 34.16 LIG-0.35  N 
ATOM     51  C   GLU B   2     -14.607  -7.202  13.764  0.80 36.27 LIG 0.24  C 
ATOM     52 O    GLU B   2     -14.281  -6.283  14.523  0.80 35.80 LIG-0.27  OA
ATOM     53 H    ARG B   3     -15.933  -8.587  13.430  0.80 34.16 LIG 0.16  HD
BRANCH 51 54
ATOM     54  CA  GLU B   2     -13.825  -7.471  12.480  0.80 37.72 LIG 0.18  C 
BRANCH 54 55
ATOM     55  N   GLU B   2     -12.501  -8.000  12.799  0.80 39.05 LIG-0.35  N 
ATOM     56  C   GLN B   1     -11.405  -7.473  12.259  0.80 40.84 LIG 0.24  C 
ATOM     57 O    GLN B   1     -11.431  -6.496  11.502  0.80 40.79 LIG-0.27  OA
ATOM     58 H    GLU B   2     -12.500  -8.662  13.349  0.80 39.05 LIG 0.16  HD
BRANCH 56 59
ATOM     59  CA  GLN B   1     -10.075  -8.136  12.616  0.80 42.15 LIG 0.18  C 
BRANCH 59 60
ATOM     60  CB  GLN B   1      -9.096  -7.128  13.225  0.80 42.68 LIG 0.04  C 
BRANCH 60 61
ATOM     61  CG  GLN B   1      -9.794  -5.902  13.829  0.80 43.94 LIG 0.10  C 
BRANCH 61 62
ATOM     62  CD  GLN B   1      -9.988  -6.004  15.329  0.80 46.27 LIG 0.21  C 
ATOM     63 OE1  GLN B   1      -9.619  -5.096  16.076  0.80 48.62 LIG-0.27  OA
ATOM     64  NE2 GLN B   1     -10.580  -7.109  15.781  0.80 47.40 LIG-0.37  N 
ATOM     65 22HE GLN B   1     -10.718  -7.209  16.624  0.80 47.40 LIG 0.16  HD
ATOM     66 21HE GLN B   1     -10.825  -7.722  15.229  0.80 47.40 LIG 0.16  HD
ENDBRANCH 61 62
ENDBRANCH 60 61
ENDBRANCH 59 60
BRANCH 59 67
ATOM     67  N   GLN B   1      -9.501  -8.728  11.411  0.80 42.89 LIG-0.35  N 
ATOM     68  C   ACE B   0     -10.040  -9.786  10.806  0.80 43.46 LIG 0.21  C 
ATOM     69  CH3 ACE B   0      -9.408 -10.143   9.490  0.80 43.70 LIG 0.12  C 
ATOM     70 O    ACE B   0     -11.138 -10.238  11.137  0.80 44.01 LIG-0.27  OA
ATOM     71 H    GLN B   1      -8.789  -8.333  11.133  0.80 42.89 LIG 0.16  HD
ENDBRANCH 59 67
ENDBRANCH 56 59
ENDBRANCH 54 55
BRANCH 54 72
ATOM     72  CB  GLU B   2     -14.606  -8.399  11.534  0.80 37.98 LIG 0.04  C 
BRANCH 72 73
ATOM     73  CG  GLU B   2     -15.071  -7.783  10.218  0.80 38.47 LIG 0.12  C 
BRANCH 73 74
ATOM     74  CD  GLU B   2     -15.130  -6.261  10.274  0.80 38.45 LIG 0.17  C 
ATOM     75 OE1  GLU B   2     -16.230  -5.715  10.493  0.80 41.05 LIG-0.65  OA
ATOM     76 OE2  GLU B   2     -14.078  -5.615  10.116  0.80 38.47 LIG-0.65  OA
ENDBRANCH 73 74
ENDBRANCH 72 73
ENDBRANCH 54 72
ENDBRANCH 51 54
ENDBRANCH 1 50
TORSDOF 29
ENDMDL
MODEL 38
USER: ADFR SOLUTION from run 200
USER: SCORE 19.164895 LL:  -5.902 LR: -16.172 RR:   0.000 FEB:  -7.521
USER: RMSD 11.931781
USER: SEED 199
USER: STATUS searching
USER: GENES 31
USER: genes 0 Translation |==|  0.62931 0.54955 0.45048
USER: genes 1 Rotation |==|  0.53347 0.70648 0.05836 0.60584
USER: genes 2 Torsion [C]-CA--CB-[CG] |==|  0.15884
USER: genes 3 Torsion [CA]-CB--CG-[CD] |==|  0.67892
USER: genes 4 Torsion [CB]-CG--CD-[NE] |==|  0.49994
USER: genes 5 Torsion [CG]-CD--NE-[CZ] |==|  0.66813
USER: genes 6 Torsion [N]-CA--C-[N] |==|  0.27222
USER: genes 7 Torsion [C]-N--CA-[CB] |==|  0.47721
USER: genes 8 Torsion [N]-CA--C-[N] |==|  0.40921
USER: genes 9 Torsion [C]-N--CA-[CB] |==|  0.48357
USER: genes 10 Torsion [N]-CA--CB-[CG2] |==|  0.12492
USER: genes 11 Torsion [N]-CA--C-[N] |==|  0.49257
USER: genes 12 Torsion [N]-CA--C-[O] |==|  0.76771
USER: genes 13 Torsion [C]-N--CA-[C] |==|  0.50504
USER: genes 14 Torsion [N]-CA--C-[O] |==|  0.18745
USER: genes 15 Torsion [N]-CA--CB-[SG] |==|  0.17959
USER: genes 16 Torsion [CA]-CB--SG-[HG] |==|  0.08435
USER: genes 17 Torsion [N]-CA--CB-[CG] |==|  0.67645
USER: genes 18 Torsion [CA]-CB--CG-[CD] |==|  0.35316
USER: genes 19 Torsion [CB]-CG--CD-[OE2] |==|  0.74901
USER: genes 20 Torsion [CB]-CA--N-[C] |==|  0.20908
USER: genes 21 Torsion [N]-C--CA-[N] |==|  0.02307
USER: genes 22 Torsion [C]-CA--N-[C] |==|  0.69492
USER: genes 23 Torsion [N]-C--CA-[N] |==|  0.45280
USER: genes 24 Torsion [C]-CA--CB-[CG] |==|  0.90289
USER: genes 25 Torsion [CA]-CB--CG-[CD] |==|  0.66806
USER: genes 26 Torsion [CB]-CG--CD-[OE1] |==|  0.22589
USER: genes 27 Torsion [C]-CA--N-[C] |==|  0.55077
USER: genes 28 Torsion [C]-CA--CB-[CG] |==|  0.15062
USER: genes 29 Torsion [CA]-CB--CG-[CD] |==|  0.44788
USER: genes 30 Torsion [CB]-CG--CD-[OE1] |==|  0.64871
ROOT
ATOM      1  CA  ARG B   3     -17.023  -7.244  15.185  0.80 33.15 LIG 0.18  C 
ENDROOT
BRANCH 1 2
ATOM      2  CB  ARG B   3     -17.184  -6.100  14.168  0.80 33.78 LIG 0.04  C 
BRANCH 2 3
ATOM      3  CG  ARG B   3     -18.547  -5.405  14.122  0.80 35.93 LIG 0.02  C 
BRANCH 3 4
ATOM      4  CD  ARG B   3     -19.261  -5.599  12.802  0.80 39.27 LIG 0.14  C 
BRANCH 4 5
ATOM      5  NE  ARG B   3     -20.563  -4.930  12.770  0.80 40.38 LIG-0.23  N 
ATOM      6  CZ  ARG B   3     -21.726  -5.555  12.589  0.80 40.37 LIG 0.67  C 
ATOM      7  NH1 ARG B   3     -21.754  -6.868  12.424  0.80 40.12 LIG-0.23  N 
ATOM      8  NH2 ARG B   3     -22.863  -4.867  12.585  0.80 41.10 LIG-0.23  N 
ATOM      9 2HH1 ARG B   3     -22.505  -7.271  12.308  0.80 40.12 LIG 0.17  HD
ATOM     10 1HH1 ARG B   3     -21.021  -7.319  12.434  0.80 40.12 LIG 0.17  HD
ATOM     11 2HH2 ARG B   3     -23.611  -5.274  12.468  0.80 41.10 LIG 0.17  HD
ATOM     12 1HH2 ARG B   3     -22.850  -4.015  12.698  0.80 41.10 LIG 0.17  HD
ATOM     13 HE   ARG B   3     -20.578  -4.077  12.876  0.80 40.38 LIG 0.18  HD
ENDBRANCH 4 5
ENDBRANCH 3 4
ENDBRANCH 2 3
ENDBRANCH 1 2
BRANCH 1 14
ATOM     14  C   ARG B   3     -18.059  -8.332  14.960  0.80 30.98 LIG 0.24  C 
ATOM     15 O    ARG B   3     -18.333  -8.694  13.819  0.80 30.41 LIG-0.27  OA
ATOM     16  N   GLU B   4     -18.603  -8.853  16.056  0.80 28.71 LIG-0.35  N 
ATOM     17 H    GLU B   4     -18.331  -8.677  16.853  0.80 28.71 LIG 0.16  HD
BRANCH 16 18
ATOM     18  CA  GLU B   4     -19.726  -9.783  16.000  0.80 27.21 LIG 0.18  C 
BRANCH 18 19
ATOM     19  C   GLU B   4     -20.949  -9.040  15.492  0.80 25.80 LIG 0.24  C 
ATOM     20 O    GLU B   4     -21.116  -7.831  15.739  0.80 26.39 LIG-0.27  OA
ATOM     21  N   VAL B   5     -21.792  -9.760  14.767  0.80 23.72 LIG-0.35  N 
ATOM     22 H    VAL B   5     -21.647 -10.577  14.542  0.80 23.72 LIG 0.16  HD
BRANCH 21 23
ATOM     23  CA  VAL B   5     -23.054  -9.228  14.282  0.80 22.93 LIG 0.18  C 
BRANCH 23 24
ATOM     24  CB  VAL B   5     -23.777 -10.209  13.351  0.80 23.26 LIG 0.01  C 
ATOM     25  CG2 VAL B   5     -23.749 -11.619  13.938  0.80 23.62 LIG 0.01  C 
ATOM     26  CG1 VAL B   5     -23.137 -10.197  11.982  0.80 24.46 LIG 0.01  C 
ENDBRANCH 23 24
BRANCH 23 27
ATOM     27  C   VAL B   5     -23.918  -8.938  15.506  0.80 21.40 LIG 0.24  C 
ATOM     28  N   PRO B   6     -25.119  -8.383  15.281  0.80 20.87 LIG-0.34  N 
ATOM     29  CD  PRO B   6     -25.689  -7.804  14.058  0.80 21.07 LIG 0.13  C 
ATOM     30  CA  PRO B   6     -25.987  -8.142  16.436  0.80 20.34 LIG 0.18  C 
ATOM     31  CG  PRO B   6     -26.761  -6.885  14.582  0.80 22.12 LIG 0.02  C 
ATOM     32  CB  PRO B   6     -27.242  -7.529  15.810  0.80 19.87 LIG 0.04  C 
ATOM     33 O    VAL B   5     -23.506  -9.214  16.638  0.80 20.67 LIG-0.27  OA
BRANCH 30 34
ATOM     34  C   PRO B   6     -26.324  -9.428  17.162  0.80 20.23 LIG 0.24  C 
ATOM     35 O    PRO B   6     -27.262 -10.141  16.752  0.80 20.62 LIG-0.27  OA
ATOM     36  N   CYS B   7     -25.552  -9.732  18.207  0.80 18.87 LIG-0.34  N 
ATOM     37 H    CYS B   7     -24.972  -9.195  18.546  0.80 18.87 LIG 0.16  HD
BRANCH 36 38
ATOM     38  CA  CYS B   7     -25.632 -11.040  18.882  0.80 19.21 LIG 0.19  C 
BRANCH 38 39
ATOM     39  C   CYS B   7     -24.685 -11.116  20.063  0.80 19.13 LIG 0.20  C 
ATOM     40 O    CYS B   7     -24.868 -10.420  21.077  0.80 18.45 LIG-0.65  OA
ATOM     41 OXT  CYS B   7     -23.746 -11.907  20.052  0.80 19.35 LIG-0.65  OA
ENDBRANCH 38 39
BRANCH 38 42
ATOM     42  CB  CYS B   7     -25.390 -12.181  17.897  0.80 19.02 LIG 0.11  C 
BRANCH 42 43
ATOM     43 SG   CYS B   7     -23.708 -12.139  17.231  0.80 21.06 LIG-0.18  SA
ATOM     44 HG   CYS B   7     -22.965 -11.669  18.047  0.80 21.06 LIG 0.10  HD
ENDBRANCH 42 43
ENDBRANCH 38 42
ENDBRANCH 36 38
ENDBRANCH 30 34
ENDBRANCH 23 27
ENDBRANCH 21 23
ENDBRANCH 18 19
BRANCH 18 45
ATOM     45  CB  GLU B   4     -20.032 -10.387  17.369  0.80 27.21 LIG 0.04  C 
BRANCH 45 46
ATOM     46  CG  GLU B   4     -19.837 -11.882  17.447  0.80 28.14 LIG 0.12  C 
BRANCH 46 47
ATOM     47  CD  GLU B   4     -18.938 -12.312  18.588  0.80 29.53 LIG 0.17  C 
ATOM     48 OE1  GLU B   4     -19.425 -12.564  19.714  0.80 28.59 LIG-0.65  OA
ATOM     49 OE2  GLU B   4     -17.720 -12.399  18.345  0.80 31.57 LIG-0.65  OA
ENDBRANCH 46 47
ENDBRANCH 45 46
ENDBRANCH 18 45
ENDBRANCH 16 18
ENDBRANCH 1 14
BRANCH 1 50
ATOM     50  N   ARG B   3     -15.697  -7.840  15.102  0.80 34.16 LIG-0.35  N 
ATOM     51  C   GLU B   2     -14.628  -7.224  15.599  0.80 36.27 LIG 0.24  C 
ATOM     52 O    GLU B   2     -14.666  -6.088  16.082  0.80 35.80 LIG-0.27  OA
ATOM     53 H    ARG B   3     -15.674  -8.606  14.712  0.80 34.16 LIG 0.16  HD
BRANCH 51 54
ATOM     54  CA  GLU B   2     -13.309  -7.987  15.497  0.80 37.72 LIG 0.18  C 
BRANCH 54 55
ATOM     55  N   GLU B   2     -13.482  -9.185  14.679  0.80 39.05 LIG-0.35  N 
ATOM     56  C   GLN B   1     -13.447 -10.398  15.226  0.80 40.84 LIG 0.24  C 
ATOM     57 O    GLN B   1     -13.310 -10.585  16.439  0.80 40.79 LIG-0.27  OA
ATOM     58 H    GLU B   2     -13.604  -9.035  13.841  0.80 39.05 LIG 0.16  HD
BRANCH 56 59
ATOM     59  CA  GLN B   1     -13.584 -11.585  14.273  0.80 42.15 LIG 0.18  C 
BRANCH 59 60
ATOM     60  CB  GLN B   1     -15.033 -11.759  13.806  0.80 42.68 LIG 0.04  C 
BRANCH 60 61
ATOM     61  CG  GLN B   1     -16.059 -11.402  14.889  0.80 43.94 LIG 0.10  C 
BRANCH 61 62
ATOM     62  CD  GLN B   1     -16.957 -12.564  15.269  0.80 46.27 LIG 0.21  C 
ATOM     63 OE1  GLN B   1     -16.573 -13.425  16.062  0.80 48.62 LIG-0.27  OA
ATOM     64  NE2 GLN B   1     -18.167 -12.590  14.711  0.80 47.40 LIG-0.37  N 
ATOM     65 22HE GLN B   1     -18.714 -13.226  14.901  0.80 47.40 LIG 0.16  HD
ATOM     66 21HE GLN B   1     -18.400 -11.971  14.162  0.80 47.40 LIG 0.16  HD
ENDBRANCH 61 62
ENDBRANCH 60 61
ENDBRANCH 59 60
BRANCH 59 67
ATOM     67  N   GLN B   1     -13.128 -12.794  14.952  0.80 42.89 LIG-0.35  N 
ATOM     68  C   ACE B   0     -12.793 -13.903  14.293  0.80 43.46 LIG 0.21  C 
ATOM     69  CH3 ACE B   0     -12.186 -14.980  15.147  0.80 43.70 LIG 0.12  C 
ATOM     70 O    ACE B   0     -12.703 -13.929  13.063  0.80 44.01 LIG-0.27  OA
ATOM     71 H    GLN B   1     -13.096 -12.723  15.809  0.80 42.89 LIG 0.16  HD
ENDBRANCH 59 67
ENDBRANCH 56 59
ENDBRANCH 54 55
BRANCH 54 72
ATOM     72  CB  GLU B   2     -12.181  -7.084  14.968  0.80 37.98 LIG 0.04  C 
BRANCH 72 73
ATOM     73  CG  GLU B   2     -11.948  -5.781  15.726  0.80 38.47 LIG 0.12  C 
BRANCH 73 74
ATOM     74  CD  GLU B   2     -10.574  -5.182  15.449  0.80 38.45 LIG 0.17  C 
ATOM     75 OE1  GLU B   2      -9.838  -4.906  16.418  0.80 41.05 LIG-0.65  OA
ATOM     76 OE2  GLU B   2     -10.225  -5.005  14.267  0.80 38.47 LIG-0.65  OA
ENDBRANCH 73 74
ENDBRANCH 72 73
ENDBRANCH 54 72
ENDBRANCH 51 54
ENDBRANCH 1 50
TORSDOF 29
ENDMDL
MODEL 39
USER: ADFR SOLUTION from run 87
USER: SCORE 19.474195 LL:  -5.850 LR: -16.137 RR:   0.000 FEB:  -7.486
USER: RMSD 12.996831
USER: SEED 86
USER: STATUS no improvement in best in 2 clusters for 5 generations
USER: GENES 31
USER: genes 0 Translation |==|  0.76350 0.53168 0.47421
USER: genes 1 Rotation |==|  0.50652 0.08811 0.77333 0.57479
USER: genes 2 Torsion [C]-CA--CB-[CG] |==|  0.60870
USER: genes 3 Torsion [CA]-CB--CG-[CD] |==|  0.85211
USER: genes 4 Torsion [CB]-CG--CD-[NE] |==|  0.45143
USER: genes 5 Torsion [CG]-CD--NE-[CZ] |==|  0.62420
USER: genes 6 Torsion [N]-CA--C-[N] |==|  0.09894
USER: genes 7 Torsion [C]-N--CA-[CB] |==|  0.81895
USER: genes 8 Torsion [N]-CA--C-[N] |==|  0.53168
USER: genes 9 Torsion [C]-N--CA-[CB] |==|  0.21160
USER: genes 10 Torsion [N]-CA--CB-[CG2] |==|  0.37343
USER: genes 11 Torsion [N]-CA--C-[N] |==|  0.87264
USER: genes 12 Torsion [N]-CA--C-[O] |==|  0.23009
USER: genes 13 Torsion [C]-N--CA-[C] |==|  0.18511
USER: genes 14 Torsion [N]-CA--C-[O] |==|  0.39809
USER: genes 15 Torsion [N]-CA--CB-[SG] |==|  0.78935
USER: genes 16 Torsion [CA]-CB--SG-[HG] |==|  0.50071
USER: genes 17 Torsion [N]-CA--CB-[CG] |==|  0.62220
USER: genes 18 Torsion [CA]-CB--CG-[CD] |==|  0.39736
USER: genes 19 Torsion [CB]-CG--CD-[OE2] |==|  0.67409
USER: genes 20 Torsion [CB]-CA--N-[C] |==|  0.81625
USER: genes 21 Torsion [N]-C--CA-[N] |==|  0.10939
USER: genes 22 Torsion [C]-CA--N-[C] |==|  0.15578
USER: genes 23 Torsion [N]-C--CA-[N] |==|  0.41317
USER: genes 24 Torsion [C]-CA--CB-[CG] |==|  0.20499
USER: genes 25 Torsion [CA]-CB--CG-[CD] |==|  0.14467
USER: genes 26 Torsion [CB]-CG--CD-[OE1] |==|  0.74788
USER: genes 27 Torsion [C]-CA--N-[C] |==|  0.81806
USER: genes 28 Torsion [C]-CA--CB-[CG] |==|  0.36077
USER: genes 29 Torsion [CA]-CB--CG-[CD] |==|  0.73290
USER: genes 30 Torsion [CB]-CG--CD-[OE1] |==|  0.28311
ROOT
ATOM      1  CA  ARG B   3     -12.796  -7.566  15.612  0.80 33.15 LIG 0.18  C 
ENDROOT
BRANCH 1 2
ATOM      2  CB  ARG B   3     -12.513  -6.167  16.189  0.80 33.78 LIG 0.04  C 
BRANCH 2 3
ATOM      3  CG  ARG B   3     -11.307  -5.417  15.620  0.80 35.93 LIG 0.02  C 
BRANCH 3 4
ATOM      4  CD  ARG B   3     -10.030  -6.226  15.678  0.80 39.27 LIG 0.14  C 
BRANCH 4 5
ATOM      5  NE  ARG B   3      -8.995  -5.697  14.789  0.80 40.38 LIG-0.23  N 
ATOM      6  CZ  ARG B   3      -8.237  -6.445  13.987  0.80 40.37 LIG 0.67  C 
ATOM      7  NH1 ARG B   3      -8.397  -7.758  13.959  0.80 40.12 LIG-0.23  N 
ATOM      8  NH2 ARG B   3      -7.326  -5.876  13.204  0.80 41.10 LIG-0.23  N 
ATOM      9 2HH1 ARG B   3      -7.907  -8.240  13.441  0.80 40.12 LIG 0.17  HD
ATOM     10 1HH1 ARG B   3      -8.990  -8.130  14.459  0.80 40.12 LIG 0.17  HD
ATOM     11 2HH2 ARG B   3      -6.839  -6.361  12.688  0.80 41.10 LIG 0.17  HD
ATOM     12 1HH2 ARG B   3      -7.223  -5.022  13.214  0.80 41.10 LIG 0.17  HD
ATOM     13 HE   ARG B   3      -8.867  -4.846  14.783  0.80 40.38 LIG 0.18  HD
ENDBRANCH 4 5
ENDBRANCH 3 4
ENDBRANCH 2 3
ENDBRANCH 1 2
BRANCH 1 14
ATOM     14  C   ARG B   3     -14.287  -7.802  15.444  0.80 30.98 LIG 0.24  C 
ATOM     15 O    ARG B   3     -15.093  -7.124  16.077  0.80 30.41 LIG-0.27  OA
ATOM     16  N   GLU B   4     -14.632  -8.745  14.572  0.80 28.71 LIG-0.35  N 
ATOM     17 H    GLU B   4     -14.074  -9.140  14.051  0.80 28.71 LIG 0.16  HD
BRANCH 16 18
ATOM     18  CA  GLU B   4     -16.011  -9.199  14.425  0.80 27.21 LIG 0.18  C 
BRANCH 18 19
ATOM     19  C   GLU B   4     -16.890  -7.998  14.124  0.80 25.80 LIG 0.24  C 
ATOM     20 O    GLU B   4     -16.394  -6.898  13.815  0.80 26.39 LIG-0.27  OA
ATOM     21  N   VAL B   5     -18.195  -8.214  14.196  0.80 23.72 LIG-0.35  N 
ATOM     22 H    VAL B   5     -18.541  -8.987  14.346  0.80 23.72 LIG 0.16  HD
BRANCH 21 23
ATOM     23  CA  VAL B   5     -19.173  -7.153  14.027  0.80 22.93 LIG 0.18  C 
BRANCH 23 24
ATOM     24  CB  VAL B   5     -19.346  -6.753  12.557  0.80 23.26 LIG 0.01  C 
ATOM     25  CG2 VAL B   5     -20.830  -6.627  12.211  0.80 23.62 LIG 0.01  C 
ATOM     26  CG1 VAL B   5     -18.681  -7.768  11.658  0.80 24.46 LIG 0.01  C 
ENDBRANCH 23 24
BRANCH 23 27
ATOM     27  C   VAL B   5     -20.495  -7.668  14.586  0.80 21.40 LIG 0.24  C 
ATOM     28  N   PRO B   6     -20.860  -8.909  14.230  0.80 20.87 LIG-0.34  N 
ATOM     29  CD  PRO B   6     -20.305  -9.813  13.214  0.80 21.07 LIG 0.13  C 
ATOM     30  CA  PRO B   6     -22.100  -9.446  14.794  0.80 20.34 LIG 0.18  C 
ATOM     31  CG  PRO B   6     -21.451 -10.746  12.923  0.80 22.12 LIG 0.02  C 
ATOM     32  CB  PRO B   6     -22.184 -10.849  14.190  0.80 19.87 LIG 0.04  C 
ATOM     33 O    VAL B   5     -21.176  -6.954  15.332  0.80 20.67 LIG-0.27  OA
BRANCH 30 34
ATOM     34  C   PRO B   6     -22.043  -9.515  16.307  0.80 20.23 LIG 0.24  C 
ATOM     35 O    PRO B   6     -22.298  -8.496  16.981  0.80 20.62 LIG-0.27  OA
ATOM     36  N   CYS B   7     -21.740 -10.705  16.830  0.80 18.87 LIG-0.34  N 
ATOM     37 H    CYS B   7     -21.471 -11.377  16.365  0.80 18.87 LIG 0.16  HD
BRANCH 36 38
ATOM     38  CA  CYS B   7     -21.844 -10.971  18.275  0.80 19.21 LIG 0.19  C 
BRANCH 38 39
ATOM     39  C   CYS B   7     -23.283 -10.928  18.748  0.80 19.13 LIG 0.20  C 
ATOM     40 O    CYS B   7     -23.692 -11.709  19.625  0.80 18.45 LIG-0.65  OA
ATOM     41 OXT  CYS B   7     -24.056 -10.086  18.300  0.80 19.35 LIG-0.65  OA
ENDBRANCH 38 39
BRANCH 38 42
ATOM     42  CB  CYS B   7     -20.965 -10.011  19.074  0.80 19.02 LIG 0.11  C 
BRANCH 42 43
ATOM     43 SG   CYS B   7     -19.216 -10.466  18.967  0.80 21.06 LIG-0.18  SA
ATOM     44 HG   CYS B   7     -18.561  -9.693  19.609  0.80 21.06 LIG 0.10  HD
ENDBRANCH 42 43
ENDBRANCH 38 42
ENDBRANCH 36 38
ENDBRANCH 30 34
ENDBRANCH 23 27
ENDBRANCH 21 23
ENDBRANCH 18 19
BRANCH 18 45
ATOM     45  CB  GLU B   4     -16.518  -9.895  15.687  0.80 27.21 LIG 0.04  C 
BRANCH 45 46
ATOM     46  CG  GLU B   4     -17.288 -11.166  15.430  0.80 28.14 LIG 0.12  C 
BRANCH 46 47
ATOM     47  CD  GLU B   4     -17.032 -12.243  16.464  0.80 29.53 LIG 0.17  C 
ATOM     48 OE1  GLU B   4     -17.344 -12.053  17.663  0.80 28.59 LIG-0.65  OA
ATOM     49 OE2  GLU B   4     -16.509 -13.299  16.063  0.80 31.57 LIG-0.65  OA
ENDBRANCH 46 47
ENDBRANCH 45 46
ENDBRANCH 18 45
ENDBRANCH 16 18
ENDBRANCH 1 14
BRANCH 1 50
ATOM     50  N   ARG B   3     -12.148  -7.745  14.321  0.80 34.16 LIG-0.35  N 
ATOM     51  C   GLU B   2     -12.515  -7.037  13.256  0.80 36.27 LIG 0.24  C 
ATOM     52 O    GLU B   2     -13.468  -6.252  13.263  0.80 35.80 LIG-0.27  OA
ATOM     53 H    ARG B   3     -11.523  -8.335  14.314  0.80 34.16 LIG 0.16  HD
BRANCH 51 54
ATOM     54  CA  GLU B   2     -11.713  -7.282  11.980  0.80 37.72 LIG 0.18  C 
BRANCH 54 55
ATOM     55  N   GLU B   2     -11.407  -8.705  11.843  0.80 39.05 LIG-0.35  N 
ATOM     56  C   GLN B   1     -12.376  -9.616  11.843  0.80 40.84 LIG 0.24  C 
ATOM     57 O    GLN B   1     -13.574  -9.324  11.916  0.80 40.79 LIG-0.27  OA
ATOM     58 H    GLU B   2     -10.570  -8.887  11.766  0.80 39.05 LIG 0.16  HD
BRANCH 56 59
ATOM     59  CA  GLN B   1     -11.943 -11.079  11.749  0.80 42.15 LIG 0.18  C 
BRANCH 59 60
ATOM     60  CB  GLN B   1     -11.845 -11.538  10.291  0.80 42.68 LIG 0.04  C 
BRANCH 60 61
ATOM     61  CG  GLN B   1     -10.617 -10.972   9.565  0.80 43.94 LIG 0.10  C 
BRANCH 61 62
ATOM     62  CD  GLN B   1      -9.319 -11.212  10.310  0.80 46.27 LIG 0.21  C 
ATOM     63 OE1  GLN B   1      -8.894 -10.386  11.120  0.80 48.62 LIG-0.27  OA
ATOM     64  NE2 GLN B   1      -8.683 -12.353  10.048  0.80 47.40 LIG-0.37  N 
ATOM     65 22HE GLN B   1      -7.945 -12.537  10.451  0.80 47.40 LIG 0.16  HD
ATOM     66 21HE GLN B   1      -9.010 -12.906   9.477  0.80 47.40 LIG 0.16  HD
ENDBRANCH 61 62
ENDBRANCH 60 61
ENDBRANCH 59 60
BRANCH 59 67
ATOM     67  N   GLN B   1     -12.905 -11.907  12.471  0.80 42.89 LIG-0.35  N 
ATOM     68  C   ACE B   0     -13.074 -11.824  13.791  0.80 43.46 LIG 0.21  C 
ATOM     69  CH3 ACE B   0     -14.225 -12.628  14.327  0.80 43.70 LIG 0.12  C 
ATOM     70 O    ACE B   0     -12.537 -10.941  14.463  0.80 44.01 LIG-0.27  OA
ATOM     71 H    GLN B   1     -13.348 -12.446  11.969  0.80 42.89 LIG 0.16  HD
ENDBRANCH 59 67
ENDBRANCH 56 59
ENDBRANCH 54 55
BRANCH 54 72
ATOM     72  CB  GLU B   2     -12.445  -6.728  10.745  0.80 37.98 LIG 0.04  C 
BRANCH 72 73
ATOM     73  CG  GLU B   2     -11.624  -5.837   9.818  0.80 38.47 LIG 0.12  C 
BRANCH 73 74
ATOM     74  CD  GLU B   2     -11.821  -4.354  10.111  0.80 38.45 LIG 0.17  C 
ATOM     75 OE1  GLU B   2     -10.937  -3.751  10.753  0.80 41.05 LIG-0.65  OA
ATOM     76 OE2  GLU B   2     -12.846  -3.790   9.686  0.80 38.47 LIG-0.65  OA
ENDBRANCH 73 74
ENDBRANCH 72 73
ENDBRANCH 54 72
ENDBRANCH 51 54
ENDBRANCH 1 50
TORSDOF 29
ENDMDL
