MODEL 1
USER: ADFR SOLUTION from run 153
USER: SCORE 20.881206 LL:  -4.521 LR: -17.033 RR:   0.000 FEB: -11.067
USER: RMSD 8.807258
USER: SEED 152
USER: STATUS no improvement in best in 1 clusters for 5 generations
USER: GENES 22
USER: genes 0 Translation |==|  0.55096 0.54998 0.59230
USER: genes 1 Rotation |==|  0.36587 0.09705 0.71800 0.64871
USER: genes 2 Torsion [N]-C--CA-[N] |==|  0.47124
USER: genes 3 Torsion [C]-CA--CB-[CG] |==|  0.92040
USER: genes 4 Torsion [CA]-CB--CG-[CD2] |==|  0.72269
USER: genes 5 Torsion [C]-CA--N-[C] |==|  0.77971
USER: genes 6 Torsion [N]-C--CA-[N] |==|  0.20365
USER: genes 7 Torsion [C]-CA--N-[C] |==|  0.77378
USER: genes 8 Torsion [N]-C--CA-[N] |==|  0.26224
USER: genes 9 Torsion [C]-CA--CB-[CG] |==|  0.25078
USER: genes 10 Torsion [CA]-CB--CG-[CD1] |==|  0.02958
USER: genes 11 Torsion [C]-N--CA-[CB] |==|  0.84570
USER: genes 12 Torsion [N]-CA--C-[N] |==|  0.34450
USER: genes 13 Torsion [C]-N--CA-[C] |==|  0.75381
USER: genes 14 Torsion [N]-CA--C-[N] |==|  0.18142
USER: genes 15 Torsion [C]-N--CA-[C] |==|  0.50831
USER: genes 16 Torsion [N]-CA--C-[O] |==|  0.17148
USER: genes 17 Torsion [N]-CA--CB-[CG] |==|  0.61951
USER: genes 18 Torsion [CA]-CB--CG-[CD] |==|  0.91030
USER: genes 19 Torsion [CB]-CG--CD-[OE2] |==|  0.37054
USER: genes 20 Torsion [N]-CA--CB-[CG] |==|  0.83886
USER: genes 21 Torsion [CA]-CB--CG-[CD2] |==|  0.84367
ROOT
ATOM      1  C   LEU B   4      -1.934  36.583  69.923  1.00 29.18 LIG 0.24  C 
ATOM      2 O    LEU B   4      -1.576  37.694  69.525  1.00 28.54 LIG-0.27  OA
ATOM      3  N   PHE B   5      -1.945  36.244  71.210  1.00 29.99 LIG-0.35  N 
ATOM      4 H    PHE B   5      -2.077  35.445  71.499  1.00 29.99 LIG 0.16  HD
ENDROOT
BRANCH 1 5
ATOM      5  CA  LEU B   4      -2.369  35.512  68.901  1.00 28.82 LIG 0.18  C 
BRANCH 5 6
ATOM      6  CB  LEU B   4      -1.396  34.358  68.912  1.00 28.29 LIG 0.04  C 
BRANCH 6 7
ATOM      7  CG  LEU B   4       0.041  34.739  69.314  1.00 28.88 LIG-0.02  C 
ATOM      8  CD2 LEU B   4       0.878  34.877  68.053  1.00 30.37 LIG 0.01  C 
ATOM      9  CD1 LEU B   4       0.707  33.745  70.298  1.00 31.50 LIG 0.01  C 
ENDBRANCH 6 7
ENDBRANCH 5 6
BRANCH 5 10
ATOM     10  N   LEU B   4      -2.555  36.040  67.552  1.00 28.20 LIG-0.35  N 
ATOM     11  C   TRP B   3      -3.653  36.689  67.222  1.00 29.51 LIG 0.24  C 
ATOM     12 O    TRP B   3      -4.543  36.925  68.032  1.00 30.32 LIG-0.27  OA
ATOM     13 H    LEU B   4      -1.900  35.890  67.015  1.00 28.20 LIG 0.16  HD
BRANCH 11 14
ATOM     14  CA  TRP B   3      -3.789  37.106  65.748  1.00 31.78 LIG 0.18  C 
BRANCH 14 15
ATOM     15  N   TRP B   3      -4.082  35.917  64.914  1.00 33.85 LIG-0.35  N 
ATOM     16  C   ALA B   2      -3.046  35.139  64.552  1.00 37.00 LIG 0.26  C 
ATOM     17 O    ALA B   2      -1.863  35.450  64.862  1.00 38.56 LIG-0.27  OA
ATOM     18 H    TRP B   3      -4.908  35.791  64.707  1.00 33.85 LIG 0.16  HD
BRANCH 16 19
ATOM     19  CA  ALA B   2      -3.278  33.879  63.764  1.00 38.11 LIG 0.40  C 
ATOM     20  CB  ALA B   2      -2.365  32.715  64.355  1.00 38.97 LIG 0.06  C 
ATOM     21  N   ALA B   2      -3.172  33.930  62.254  1.00 37.81 LIG 0.61  N 
ENDBRANCH 16 19
ENDBRANCH 14 15
BRANCH 14 22
ATOM     22  CB  TRP B   3      -4.874  38.198  65.631  1.00 31.58 LIG 0.07  C 
BRANCH 22 23
ATOM     23  CG  TRP B   3      -4.336  39.541  65.763  1.00 30.60 LIG-0.03  A 
ATOM     24  CD1 TRP B   3      -3.038  39.900  65.768  1.00 31.03 LIG 0.10  A 
ATOM     25  NE1 TRP B   3      -2.925  41.255  65.971  1.00 29.84 LIG-0.36  N 
ATOM     26 HE1  TRP B   3      -2.188  41.697  66.012  1.00 29.84 LIG 0.17  HD
ATOM     27  CE2 TRP B   3      -4.179  41.782  66.096  1.00 27.79 LIG 0.04  A 
ATOM     28  CD2 TRP B   3      -5.086  40.732  65.965  1.00 28.46 LIG-0.00  A 
ATOM     29  CZ2 TRP B   3      -4.577  43.094  66.301  1.00 27.89 LIG 0.03  A 
ATOM     30  CE3 TRP B   3      -6.439  41.000  66.069  1.00 31.78 LIG 0.01  A 
ATOM     31  CZ3 TRP B   3      -6.842  42.300  66.247  1.00 30.70 LIG 0.00  A 
ATOM     32  CH2 TRP B   3      -5.905  43.331  66.389  1.00 27.16 LIG 0.00  A 
ENDBRANCH 22 23
ENDBRANCH 14 22
ENDBRANCH 11 14
ENDBRANCH 5 10
ENDBRANCH 1 5
BRANCH 3 33
ATOM     33  CA  PHE B   5      -1.722  37.252  72.269  1.00 32.14 LIG 0.18  C 
BRANCH 33 34
ATOM     34  C   PHE B   5      -2.814  38.298  72.367  1.00 34.99 LIG 0.24  C 
ATOM     35 O    PHE B   5      -3.129  38.938  71.357  1.00 34.76 LIG-0.27  OA
ATOM     36  N   GLU B   6      -3.408  38.431  73.563  1.00 37.97 LIG-0.35  N 
ATOM     37 H    GLU B   6      -3.414  37.802  74.149  1.00 37.97 LIG 0.16  HD
BRANCH 36 38
ATOM     38  CA  GLU B   6      -4.115  39.654  74.018  1.00 41.44 LIG 0.18  C 
BRANCH 38 39
ATOM     39  C   GLU B   6      -3.046  40.548  74.691  1.00 42.63 LIG 0.24  C 
ATOM     40  N   ALA B   7      -2.079  41.025  73.907  1.00 44.72 LIG-0.35  N 
ATOM     41 H    ALA B   7      -2.078  40.992  73.048  1.00 44.72 LIG 0.16  HD
ATOM     42 O    GLU B   6      -3.040  40.746  75.924  1.00 39.57 LIG-0.27  OA
BRANCH 40 43
ATOM     43  CA  ALA B   7      -0.871  41.682  74.532  1.00 46.42 LIG 0.16  C 
ATOM     44  CB  ALA B   7      -0.165  40.725  75.518  1.00 46.36 LIG 0.04  C 
BRANCH 43 45
ATOM     45  C   ALA B   7       0.090  42.228  73.490  1.00 46.87 LIG 0.22  C 
ATOM     46 O    ALA B   7      -0.303  43.109  72.722  1.00 48.90 LIG-0.29  OA
ENDBRANCH 43 45
ENDBRANCH 40 43
ENDBRANCH 38 39
BRANCH 38 47
ATOM     47  CB  GLU B   6      -5.258  39.346  74.992  1.00 42.54 LIG 0.04  C 
BRANCH 47 48
ATOM     48  CG  GLU B   6      -6.550  40.178  74.685  1.00 48.04 LIG 0.12  C 
BRANCH 48 49
ATOM     49  CD  GLU B   6      -6.318  41.583  74.104  1.00 53.57 LIG 0.17  C 
ATOM     50 OE2  GLU B   6      -7.022  41.912  73.096  1.00 60.38 LIG-0.65  OA
ATOM     51 OE1  GLU B   6      -5.493  42.375  74.633  1.00 57.14 LIG-0.65  OA
ENDBRANCH 48 49
ENDBRANCH 47 48
ENDBRANCH 38 47
ENDBRANCH 36 38
ENDBRANCH 33 34
BRANCH 33 52
ATOM     52  CB  PHE B   5      -0.394  38.008  72.068  1.00 32.62 LIG 0.07  C 
BRANCH 52 53
ATOM     53  CG  PHE B   5       0.823  37.131  72.032  1.00 30.35 LIG-0.06  A 
ATOM     54  CD1 PHE B   5       1.651  37.102  70.934  1.00 31.18 LIG 0.01  A 
ATOM     55  CE1 PHE B   5       2.762  36.267  70.910  1.00 30.23 LIG 0.00  A 
ATOM     56  CZ  PHE B   5       3.072  35.438  72.006  1.00 31.30 LIG 0.00  A 
ATOM     57  CE2 PHE B   5       2.208  35.427  73.101  1.00 30.12 LIG 0.00  A 
ATOM     58  CD2 PHE B   5       1.101  36.274  73.101  1.00 31.88 LIG 0.01  A 
ENDBRANCH 52 53
ENDBRANCH 33 52
ENDBRANCH 3 33
TORSDOF 20
ENDMDL
MODEL 2
USER: ADFR SOLUTION from run 93
USER: SCORE 19.478993 LL:  -4.648 LR: -16.534 RR:   0.000 FEB: -10.568
USER: RMSD 5.648668
USER: SEED 92
USER: STATUS no improvement in best in 13 clusters for 5 generations
USER: GENES 22
USER: genes 0 Translation |==|  0.48249 0.59222 0.52373
USER: genes 1 Rotation |==|  0.61850 0.64544 0.91264 0.71104
USER: genes 2 Torsion [N]-C--CA-[N] |==|  0.44019
USER: genes 3 Torsion [C]-CA--CB-[CG] |==|  0.43552
USER: genes 4 Torsion [CA]-CB--CG-[CD2] |==|  0.98541
USER: genes 5 Torsion [C]-CA--N-[C] |==|  0.72354
USER: genes 6 Torsion [N]-C--CA-[N] |==|  0.90910
USER: genes 7 Torsion [C]-CA--N-[C] |==|  0.82092
USER: genes 8 Torsion [N]-C--CA-[N] |==|  0.90490
USER: genes 9 Torsion [C]-CA--CB-[CG] |==|  0.16472
USER: genes 10 Torsion [CA]-CB--CG-[CD1] |==|  0.61695
USER: genes 11 Torsion [C]-N--CA-[CB] |==|  0.37286
USER: genes 12 Torsion [N]-CA--C-[N] |==|  0.92394
USER: genes 13 Torsion [C]-N--CA-[C] |==|  0.66113
USER: genes 14 Torsion [N]-CA--C-[N] |==|  0.94497
USER: genes 15 Torsion [C]-N--CA-[C] |==|  0.16637
USER: genes 16 Torsion [N]-CA--C-[O] |==|  0.10087
USER: genes 17 Torsion [N]-CA--CB-[CG] |==|  0.73264
USER: genes 18 Torsion [CA]-CB--CG-[CD] |==|  0.27581
USER: genes 19 Torsion [CB]-CG--CD-[OE2] |==|  0.42910
USER: genes 20 Torsion [N]-CA--CB-[CG] |==|  0.66046
USER: genes 21 Torsion [CA]-CB--CG-[CD2] |==|  0.42071
ROOT
ATOM      1  C   LEU B   4      -3.270  37.406  68.380  1.00 29.18 LIG 0.24  C 
ATOM      2 O    LEU B   4      -4.454  37.129  68.587  1.00 28.54 LIG-0.27  OA
ATOM      3  N   PHE B   5      -2.847  37.978  67.255  1.00 29.99 LIG-0.35  N 
ATOM      4 H    PHE B   5      -2.019  38.073  67.042  1.00 29.99 LIG 0.16  HD
ENDROOT
BRANCH 1 5
ATOM      5  CA  LEU B   4      -2.210  37.061  69.446  1.00 28.82 LIG 0.18  C 
BRANCH 5 6
ATOM      6  CB  LEU B   4      -1.438  35.831  69.032  1.00 28.29 LIG 0.04  C 
BRANCH 6 7
ATOM      7  CG  LEU B   4      -0.043  35.708  69.674  1.00 28.88 LIG-0.02  C 
ATOM      8  CD2 LEU B   4       0.233  36.968  70.478  1.00 30.37 LIG 0.01  C 
ATOM      9  CD1 LEU B   4       1.099  35.454  68.658  1.00 31.50 LIG 0.01  C 
ENDBRANCH 6 7
ENDBRANCH 5 6
BRANCH 5 10
ATOM     10  N   LEU B   4      -2.764  36.916  70.789  1.00 28.20 LIG-0.35  N 
ATOM     11  C   TRP B   3      -2.684  37.896  71.666  1.00 29.51 LIG 0.24  C 
ATOM     12 O    TRP B   3      -2.193  38.985  71.389  1.00 30.32 LIG-0.27  OA
ATOM     13 H    LEU B   4      -3.134  36.155  70.945  1.00 28.20 LIG 0.16  HD
BRANCH 11 14
ATOM     14  CA  TRP B   3      -3.204  37.597  73.082  1.00 31.78 LIG 0.18  C 
BRANCH 14 15
ATOM     15  N   TRP B   3      -4.338  36.646  73.010  1.00 33.85 LIG-0.35  N 
ATOM     16  C   ALA B   2      -5.460  37.058  72.390  1.00 37.00 LIG 0.26  C 
ATOM     17 O    ALA B   2      -5.557  38.233  71.942  1.00 38.56 LIG-0.27  OA
ATOM     18 H    TRP B   3      -4.214  35.876  73.374  1.00 33.85 LIG 0.16  HD
BRANCH 16 19
ATOM     19  CA  ALA B   2      -6.624  36.121  72.220  1.00 38.11 LIG 0.40  C 
ATOM     20  CB  ALA B   2      -7.646  36.330  73.423  1.00 38.97 LIG 0.06  C 
ATOM     21  N   ALA B   2      -6.352  34.649  71.995  1.00 37.81 LIG 0.61  N 
ENDBRANCH 16 19
ENDBRANCH 14 15
BRANCH 14 22
ATOM     22  CB  TRP B   3      -2.039  37.070  73.947  1.00 31.58 LIG 0.07  C 
BRANCH 22 23
ATOM     23  CG  TRP B   3      -0.942  38.018  74.048  1.00 30.60 LIG-0.03  A 
ATOM     24  CD1 TRP B   3       0.375  37.748  73.980  1.00 31.03 LIG 0.10  A 
ATOM     25  NE1 TRP B   3       1.102  38.898  74.176  1.00 29.84 LIG-0.36  N 
ATOM     26 HE1  TRP B   3       1.961  38.956  74.175  1.00 29.84 LIG 0.17  HD
ATOM     27  CE2 TRP B   3       0.234  39.934  74.370  1.00 27.79 LIG 0.04  A 
ATOM     28  CD2 TRP B   3      -1.058  39.415  74.291  1.00 28.46 LIG-0.00  A 
ATOM     29  CZ2 TRP B   3       0.487  41.278  74.596  1.00 27.89 LIG 0.03  A 
ATOM     30  CE3 TRP B   3      -2.133  40.266  74.470  1.00 31.78 LIG 0.01  A 
ATOM     31  CZ3 TRP B   3      -1.891  41.601  74.669  1.00 30.70 LIG 0.00  A 
ATOM     32  CH2 TRP B   3      -0.581  42.090  74.758  1.00 27.16 LIG 0.00  A 
ENDBRANCH 22 23
ENDBRANCH 14 22
ENDBRANCH 11 14
ENDBRANCH 5 10
ENDBRANCH 1 5
BRANCH 3 33
ATOM     33  CA  PHE B   5      -3.802  38.510  66.259  1.00 32.14 LIG 0.18  C 
BRANCH 33 34
ATOM     34  C   PHE B   5      -3.964  37.639  65.030  1.00 34.99 LIG 0.24  C 
ATOM     35 O    PHE B   5      -5.015  37.700  64.381  1.00 34.76 LIG-0.27  OA
ATOM     36  N   GLU B   6      -2.912  36.875  64.696  1.00 37.97 LIG-0.35  N 
ATOM     37 H    GLU B   6      -2.109  37.061  64.944  1.00 37.97 LIG 0.16  HD
BRANCH 36 38
ATOM     38  CA  GLU B   6      -2.996  35.641  63.876  1.00 41.44 LIG 0.18  C 
BRANCH 38 39
ATOM     39  C   GLU B   6      -2.407  34.504  64.743  1.00 42.63 LIG 0.24  C 
ATOM     40  N   ALA B   7      -1.620  34.865  65.758  1.00 44.72 LIG-0.35  N 
ATOM     41 H    ALA B   7      -1.528  35.669  66.049  1.00 44.72 LIG 0.16  HD
ATOM     42 O    GLU B   6      -2.589  33.302  64.460  1.00 39.57 LIG-0.27  OA
BRANCH 40 43
ATOM     43  CA  ALA B   7      -0.809  33.816  66.481  1.00 46.42 LIG 0.16  C 
ATOM     44  CB  ALA B   7      -1.725  32.830  67.238  1.00 46.36 LIG 0.04  C 
BRANCH 43 45
ATOM     45  C   ALA B   7       0.155  33.096  65.556  1.00 46.87 LIG 0.22  C 
ATOM     46 O    ALA B   7       0.704  33.733  64.655  1.00 48.90 LIG-0.29  OA
ENDBRANCH 43 45
ENDBRANCH 40 43
ENDBRANCH 38 39
BRANCH 38 47
ATOM     47  CB  GLU B   6      -2.238  35.763  62.550  1.00 42.54 LIG 0.04  C 
BRANCH 47 48
ATOM     48  CG  GLU B   6      -3.173  36.166  61.358  1.00 48.04 LIG 0.12  C 
BRANCH 48 49
ATOM     49  CD  GLU B   6      -3.156  37.654  60.970  1.00 53.57 LIG 0.17  C 
ATOM     50 OE2  GLU B   6      -3.470  37.938  59.769  1.00 60.38 LIG-0.65  OA
ATOM     51 OE1  GLU B   6      -2.879  38.543  61.819  1.00 57.14 LIG-0.65  OA
ENDBRANCH 48 49
ENDBRANCH 47 48
ENDBRANCH 38 47
ENDBRANCH 36 38
ENDBRANCH 33 34
BRANCH 33 52
ATOM     52  CB  PHE B   5      -3.393  39.910  65.765  1.00 32.62 LIG 0.07  C 
BRANCH 52 53
ATOM     53  CG  PHE B   5      -4.429  40.975  65.980  1.00 30.35 LIG-0.06  A 
ATOM     54  CD1 PHE B   5      -5.772  40.681  65.949  1.00 31.18 LIG 0.01  A 
ATOM     55  CE1 PHE B   5      -6.718  41.685  66.129  1.00 30.23 LIG 0.00  A 
ATOM     56  CZ  PHE B   5      -6.328  43.020  66.353  1.00 31.30 LIG 0.00  A 
ATOM     57  CE2 PHE B   5      -4.967  43.330  66.337  1.00 30.12 LIG 0.00  A 
ATOM     58  CD2 PHE B   5      -4.040  42.306  66.155  1.00 31.88 LIG 0.01  A 
ENDBRANCH 52 53
ENDBRANCH 33 52
ENDBRANCH 3 33
TORSDOF 20
ENDMDL
MODEL 3
USER: ADFR SOLUTION from run 99
USER: SCORE 18.253587 LL:  -4.559 LR: -16.513 RR:   0.000 FEB: -10.547
USER: RMSD 5.168557
USER: SEED 98
USER: STATUS no improvement in best in 9 clusters for 5 generations
USER: GENES 22
USER: genes 0 Translation |==|  0.51045 0.59486 0.63159
USER: genes 1 Rotation |==|  0.63964 0.53431 0.34911 0.95448
USER: genes 2 Torsion [N]-C--CA-[N] |==|  0.96305
USER: genes 3 Torsion [C]-CA--CB-[CG] |==|  0.78571
USER: genes 4 Torsion [CA]-CB--CG-[CD2] |==|  0.69197
USER: genes 5 Torsion [C]-CA--N-[C] |==|  0.82133
USER: genes 6 Torsion [N]-C--CA-[N] |==|  0.91694
USER: genes 7 Torsion [C]-CA--N-[C] |==|  0.83508
USER: genes 8 Torsion [N]-C--CA-[N] |==|  0.84754
USER: genes 9 Torsion [C]-CA--CB-[CG] |==|  0.11717
USER: genes 10 Torsion [CA]-CB--CG-[CD1] |==|  0.22435
USER: genes 11 Torsion [C]-N--CA-[CB] |==|  0.37980
USER: genes 12 Torsion [N]-CA--C-[N] |==|  0.36666
USER: genes 13 Torsion [C]-N--CA-[C] |==|  0.21125
USER: genes 14 Torsion [N]-CA--C-[N] |==|  0.36928
USER: genes 15 Torsion [C]-N--CA-[C] |==|  0.22000
USER: genes 16 Torsion [N]-CA--C-[O] |==|  0.21073
USER: genes 17 Torsion [N]-CA--CB-[CG] |==|  0.53299
USER: genes 18 Torsion [CA]-CB--CG-[CD] |==|  0.25456
USER: genes 19 Torsion [CB]-CG--CD-[OE2] |==|  0.06470
USER: genes 20 Torsion [N]-CA--CB-[CG] |==|  0.69653
USER: genes 21 Torsion [CA]-CB--CG-[CD2] |==|  0.63564
ROOT
ATOM      1  C   LEU B   4      -2.724  37.458  70.807  1.00 29.18 LIG 0.24  C 
ATOM      2 O    LEU B   4      -1.800  38.233  70.547  1.00 28.54 LIG-0.27  OA
ATOM      3  N   PHE B   5      -3.383  36.778  69.871  1.00 29.99 LIG-0.35  N 
ATOM      4 H    PHE B   5      -4.100  36.326  70.016  1.00 29.99 LIG 0.16  HD
ENDROOT
BRANCH 1 5
ATOM      5  CA  LEU B   4      -3.171  37.272  72.271  1.00 28.82 LIG 0.18  C 
BRANCH 5 6
ATOM      6  CB  LEU B   4      -2.097  36.557  73.056  1.00 28.29 LIG 0.04  C 
BRANCH 6 7
ATOM      7  CG  LEU B   4      -2.029  35.038  72.805  1.00 28.88 LIG-0.02  C 
ATOM      8  CD2 LEU B   4      -2.487  34.319  74.063  1.00 30.37 LIG 0.01  C 
ATOM      9  CD1 LEU B   4      -0.631  34.532  72.372  1.00 31.50 LIG 0.01  C 
ENDBRANCH 6 7
ENDBRANCH 5 6
BRANCH 5 10
ATOM     10  N   LEU B   4      -4.462  36.603  72.403  1.00 28.20 LIG-0.35  N 
ATOM     11  C   TRP B   3      -5.567  37.160  71.948  1.00 29.51 LIG 0.24  C 
ATOM     12 O    TRP B   3      -5.562  38.233  71.354  1.00 30.32 LIG-0.27  OA
ATOM     13 H    LEU B   4      -4.431  35.836  72.792  1.00 28.20 LIG 0.16  HD
BRANCH 11 14
ATOM     14  CA  TRP B   3      -6.882  36.418  72.236  1.00 31.78 LIG 0.18  C 
BRANCH 14 15
ATOM     15  N   TRP B   3      -6.629  34.960  72.314  1.00 33.85 LIG-0.35  N 
ATOM     16  C   ALA B   2      -6.106  34.359  71.229  1.00 37.00 LIG 0.26  C 
ATOM     17 O    ALA B   2      -5.898  35.007  70.167  1.00 38.56 LIG-0.27  OA
ATOM     18 H    TRP B   3      -6.834  34.576  73.056  1.00 33.85 LIG 0.16  HD
BRANCH 16 19
ATOM     19  CA  ALA B   2      -5.760  32.895  71.261  1.00 38.11 LIG 0.40  C 
ATOM     20  CB  ALA B   2      -7.101  32.037  71.216  1.00 38.97 LIG 0.06  C 
ATOM     21  N   ALA B   2      -4.833  32.387  72.346  1.00 37.81 LIG 0.61  N 
ENDBRANCH 16 19
ENDBRANCH 14 15
BRANCH 14 22
ATOM     22  CB  TRP B   3      -7.509  36.983  73.529  1.00 31.58 LIG 0.07  C 
BRANCH 22 23
ATOM     23  CG  TRP B   3      -7.428  38.432  73.604  1.00 30.60 LIG-0.03  A 
ATOM     24  CD1 TRP B   3      -8.239  39.324  73.005  1.00 31.03 LIG 0.10  A 
ATOM     25  NE1 TRP B   3      -7.808  40.603  73.269  1.00 29.84 LIG-0.36  N 
ATOM     26 HE1  TRP B   3      -8.178  41.327  72.984  1.00 29.84 LIG 0.17  HD
ATOM     27  CE2 TRP B   3      -6.696  40.533  74.058  1.00 27.79 LIG 0.04  A 
ATOM     28  CD2 TRP B   3      -6.435  39.184  74.290  1.00 28.46 LIG-0.00  A 
ATOM     29  CZ2 TRP B   3      -5.916  41.549  74.589  1.00 27.89 LIG 0.03  A 
ATOM     30  CE3 TRP B   3      -5.338  38.838  75.059  1.00 31.78 LIG 0.01  A 
ATOM     31  CZ3 TRP B   3      -4.575  39.837  75.608  1.00 30.70 LIG 0.00  A 
ATOM     32  CH2 TRP B   3      -4.856  41.184  75.344  1.00 27.16 LIG 0.00  A 
ENDBRANCH 22 23
ENDBRANCH 14 22
ENDBRANCH 11 14
ENDBRANCH 5 10
ENDBRANCH 1 5
BRANCH 3 33
ATOM     33  CA  PHE B   5      -2.912  36.750  68.470  1.00 32.14 LIG 0.18  C 
BRANCH 33 34
ATOM     34  C   PHE B   5      -3.678  37.669  67.540  1.00 34.99 LIG 0.24  C 
ATOM     35 O    PHE B   5      -4.914  37.682  67.589  1.00 34.76 LIG-0.27  OA
ATOM     36  N   GLU B   6      -2.944  38.457  66.739  1.00 37.97 LIG-0.35  N 
ATOM     37 H    GLU B   6      -2.131  38.672  66.921  1.00 37.97 LIG 0.16  HD
BRANCH 36 38
ATOM     38  CA  GLU B   6      -3.430  39.046  65.467  1.00 41.44 LIG 0.18  C 
BRANCH 38 39
ATOM     39  C   GLU B   6      -4.356  40.222  65.859  1.00 42.63 LIG 0.24  C 
ATOM     40  N   ALA B   7      -4.168  41.377  65.218  1.00 44.72 LIG-0.35  N 
ATOM     41 H    ALA B   7      -3.678  41.480  64.519  1.00 44.72 LIG 0.16  HD
ATOM     42 O    GLU B   6      -5.183  40.123  66.789  1.00 39.57 LIG-0.27  OA
BRANCH 40 43
ATOM     43  CA  ALA B   7      -4.850  42.627  65.722  1.00 46.42 LIG 0.16  C 
ATOM     44  CB  ALA B   7      -6.341  42.363  66.025  1.00 46.36 LIG 0.04  C 
BRANCH 43 45
ATOM     45  C   ALA B   7      -4.130  43.234  66.913  1.00 46.87 LIG 0.22  C 
ATOM     46 O    ALA B   7      -3.085  43.859  66.721  1.00 48.90 LIG-0.29  OA
ENDBRANCH 43 45
ENDBRANCH 40 43
ENDBRANCH 38 39
BRANCH 38 47
ATOM     47  CB  GLU B   6      -4.179  38.031  64.596  1.00 42.54 LIG 0.04  C 
BRANCH 47 48
ATOM     48  CG  GLU B   6      -4.430  38.557  63.142  1.00 48.04 LIG 0.12  C 
BRANCH 48 49
ATOM     49  CD  GLU B   6      -3.349  38.205  62.107  1.00 53.57 LIG 0.17  C 
ATOM     50 OE2  GLU B   6      -2.623  37.189  62.357  1.00 60.38 LIG-0.65  OA
ATOM     51 OE1  GLU B   6      -3.222  38.875  61.048  1.00 57.14 LIG-0.65  OA
ENDBRANCH 48 49
ENDBRANCH 47 48
ENDBRANCH 38 47
ENDBRANCH 36 38
ENDBRANCH 33 34
BRANCH 33 52
ATOM     52  CB  PHE B   5      -2.994  35.334  67.867  1.00 32.62 LIG 0.07  C 
BRANCH 52 53
ATOM     53  CG  PHE B   5      -1.665  34.675  67.643  1.00 30.35 LIG-0.06  A 
ATOM     54  CD1 PHE B   5      -0.685  34.695  68.607  1.00 31.18 LIG 0.01  A 
ATOM     55  CE1 PHE B   5       0.549  34.097  68.372  1.00 30.23 LIG 0.00  A 
ATOM     56  CZ  PHE B   5       0.823  33.451  67.150  1.00 31.30 LIG 0.00  A 
ATOM     57  CE2 PHE B   5      -0.151  33.470  66.151  1.00 30.12 LIG 0.00  A 
ATOM     58  CD2 PHE B   5      -1.379  34.076  66.412  1.00 31.88 LIG 0.01  A 
ENDBRANCH 52 53
ENDBRANCH 33 52
ENDBRANCH 3 33
TORSDOF 20
ENDMDL
MODEL 4
USER: ADFR SOLUTION from run 97
USER: SCORE 20.712076 LL:  -5.579 LR: -16.397 RR:   0.000 FEB: -10.431
USER: RMSD 2.515563
USER: SEED 96
USER: STATUS no improvement in best in 7 clusters for 5 generations
USER: GENES 22
USER: genes 0 Translation |==|  0.53405 0.62646 0.65389
USER: genes 1 Rotation |==|  0.53874 0.43930 0.39456 0.98342
USER: genes 2 Torsion [N]-C--CA-[N] |==|  0.01643
USER: genes 3 Torsion [C]-CA--CB-[CG] |==|  0.17218
USER: genes 4 Torsion [CA]-CB--CG-[CD2] |==|  0.65660
USER: genes 5 Torsion [C]-CA--N-[C] |==|  0.75556
USER: genes 6 Torsion [N]-C--CA-[N] |==|  0.90626
USER: genes 7 Torsion [C]-CA--N-[C] |==|  0.83008
USER: genes 8 Torsion [N]-C--CA-[N] |==|  0.25975
USER: genes 9 Torsion [C]-CA--CB-[CG] |==|  0.06778
USER: genes 10 Torsion [CA]-CB--CG-[CD1] |==|  0.23888
USER: genes 11 Torsion [C]-N--CA-[CB] |==|  0.24170
USER: genes 12 Torsion [N]-CA--C-[N] |==|  0.30293
USER: genes 13 Torsion [C]-N--CA-[C] |==|  0.85954
USER: genes 14 Torsion [N]-CA--C-[N] |==|  0.89222
USER: genes 15 Torsion [C]-N--CA-[C] |==|  0.14035
USER: genes 16 Torsion [N]-CA--C-[O] |==|  0.15068
USER: genes 17 Torsion [N]-CA--CB-[CG] |==|  0.84073
USER: genes 18 Torsion [CA]-CB--CG-[CD] |==|  0.20229
USER: genes 19 Torsion [CB]-CG--CD-[OE2] |==|  0.24627
USER: genes 20 Torsion [N]-CA--CB-[CG] |==|  0.72061
USER: genes 21 Torsion [CA]-CB--CG-[CD2] |==|  0.76744
ROOT
ATOM      1  C   LEU B   4      -2.264  38.074  71.309  1.00 29.18 LIG 0.24  C 
ATOM      2 O    LEU B   4      -1.341  38.798  70.928  1.00 28.54 LIG-0.27  OA
ATOM      3  N   PHE B   5      -2.579  36.929  70.707  1.00 29.99 LIG-0.35  N 
ATOM      4 H    PHE B   5      -3.286  36.470  70.881  1.00 29.99 LIG 0.16  HD
ENDROOT
BRANCH 1 5
ATOM      5  CA  LEU B   4      -3.122  38.505  72.516  1.00 28.82 LIG 0.18  C 
BRANCH 5 6
ATOM      6  CB  LEU B   4      -2.232  38.904  73.669  1.00 28.29 LIG 0.04  C 
BRANCH 6 7
ATOM      7  CG  LEU B   4      -1.315  40.107  73.380  1.00 28.88 LIG-0.02  C 
ATOM      8  CD2 LEU B   4       0.125  39.690  73.627  1.00 30.37 LIG 0.01  C 
ATOM      9  CD1 LEU B   4      -1.659  41.374  74.203  1.00 31.50 LIG 0.01  C 
ENDBRANCH 6 7
ENDBRANCH 5 6
BRANCH 5 10
ATOM     10  N   LEU B   4      -4.101  37.501  72.920  1.00 28.20 LIG-0.35  N 
ATOM     11  C   TRP B   3      -5.302  37.467  72.378  1.00 29.51 LIG 0.24  C 
ATOM     12 O    TRP B   3      -5.639  38.234  71.483  1.00 30.32 LIG-0.27  OA
ATOM     13 H    LEU B   4      -3.826  36.955  73.525  1.00 28.20 LIG 0.16  HD
BRANCH 11 14
ATOM     14  CA  TRP B   3      -6.288  36.437  72.955  1.00 31.78 LIG 0.18  C 
BRANCH 14 15
ATOM     15  N   TRP B   3      -5.554  35.222  73.380  1.00 33.85 LIG-0.35  N 
ATOM     16  C   ALA B   2      -4.879  34.539  72.436  1.00 37.00 LIG 0.26  C 
ATOM     17 O    ALA B   2      -4.923  34.892  71.226  1.00 38.56 LIG-0.27  OA
ATOM     18 H    TRP B   3      -5.603  35.020  74.214  1.00 33.85 LIG 0.16  HD
BRANCH 16 19
ATOM     19  CA  ALA B   2      -4.056  33.336  72.809  1.00 38.11 LIG 0.40  C 
ATOM     20  CB  ALA B   2      -2.678  33.376  72.011  1.00 38.97 LIG 0.06  C 
ATOM     21  N   ALA B   2      -4.687  31.963  72.722  1.00 37.81 LIG 0.61  N 
ENDBRANCH 16 19
ENDBRANCH 14 15
BRANCH 14 22
ATOM     22  CB  TRP B   3      -7.081  37.088  74.108  1.00 31.58 LIG 0.07  C 
BRANCH 22 23
ATOM     23  CG  TRP B   3      -7.144  38.535  73.999  1.00 30.60 LIG-0.03  A 
ATOM     24  CD1 TRP B   3      -8.040  39.260  73.303  1.00 31.03 LIG 0.10  A 
ATOM     25  NE1 TRP B   3      -7.738  40.598  73.397  1.00 29.84 LIG-0.36  N 
ATOM     26 HE1  TRP B   3      -8.178  41.240  73.028  1.00 29.84 LIG 0.17  HD
ATOM     27  CE2 TRP B   3      -6.625  40.739  74.175  1.00 27.79 LIG 0.04  A 
ATOM     28  CD2 TRP B   3      -6.231  39.462  74.573  1.00 28.46 LIG-0.00  A 
ATOM     29  CZ2 TRP B   3      -5.949  41.886  74.564  1.00 27.89 LIG 0.03  A 
ATOM     30  CE3 TRP B   3      -5.106  39.326  75.366  1.00 31.78 LIG 0.01  A 
ATOM     31  CZ3 TRP B   3      -4.446  40.457  75.775  1.00 30.70 LIG 0.00  A 
ATOM     32  CH2 TRP B   3      -4.859  41.726  75.346  1.00 27.16 LIG 0.00  A 
ENDBRANCH 22 23
ENDBRANCH 14 22
ENDBRANCH 11 14
ENDBRANCH 5 10
ENDBRANCH 1 5
BRANCH 3 33
ATOM     33  CA  PHE B   5      -1.708  36.346  69.665  1.00 32.14 LIG 0.18  C 
BRANCH 33 34
ATOM     34  C   PHE B   5      -2.444  35.502  68.643  1.00 34.99 LIG 0.24  C 
ATOM     35 O    PHE B   5      -2.935  34.423  68.993  1.00 34.76 LIG-0.27  OA
ATOM     36  N   GLU B   6      -2.553  36.019  67.409  1.00 37.97 LIG-0.35  N 
ATOM     37 H    GLU B   6      -2.498  36.863  67.255  1.00 37.97 LIG 0.16  HD
BRANCH 36 38
ATOM     38  CA  GLU B   6      -2.778  35.218  66.180  1.00 41.44 LIG 0.18  C 
BRANCH 38 39
ATOM     39  C   GLU B   6      -1.715  34.094  66.196  1.00 42.63 LIG 0.24  C 
ATOM     40  N   ALA B   7      -0.498  34.422  66.631  1.00 44.72 LIG-0.35  N 
ATOM     41 H    ALA B   7      -0.296  35.158  67.027  1.00 44.72 LIG 0.16  HD
ATOM     42 O    GLU B   6      -1.959  32.955  65.746  1.00 39.57 LIG-0.27  OA
BRANCH 40 43
ATOM     43  CA  ALA B   7       0.648  33.457  66.434  1.00 46.42 LIG 0.16  C 
ATOM     44  CB  ALA B   7       0.564  32.283  67.434  1.00 46.36 LIG 0.04  C 
BRANCH 43 45
ATOM     45  C   ALA B   7       0.751  32.971  64.999  1.00 46.87 LIG 0.22  C 
ATOM     46 O    ALA B   7       0.823  33.803  64.092  1.00 48.90 LIG-0.29  OA
ENDBRANCH 43 45
ENDBRANCH 40 43
ENDBRANCH 38 39
BRANCH 38 47
ATOM     47  CB  GLU B   6      -2.665  36.056  64.902  1.00 42.54 LIG 0.04  C 
BRANCH 47 48
ATOM     48  CG  GLU B   6      -3.661  37.266  64.888  1.00 48.04 LIG 0.12  C 
BRANCH 48 49
ATOM     49  CD  GLU B   6      -3.310  38.431  65.828  1.00 53.57 LIG 0.17  C 
ATOM     50 OE2  GLU B   6      -2.553  39.341  65.359  1.00 60.38 LIG-0.65  OA
ATOM     51 OE1  GLU B   6      -3.787  38.489  66.993  1.00 57.14 LIG-0.65  OA
ENDBRANCH 48 49
ENDBRANCH 47 48
ENDBRANCH 38 47
ENDBRANCH 36 38
ENDBRANCH 33 34
BRANCH 33 52
ATOM     52  CB  PHE B   5      -0.608  35.454  70.273  1.00 32.62 LIG 0.07  C 
BRANCH 52 53
ATOM     53  CG  PHE B   5       0.738  36.108  70.375  1.00 30.35 LIG-0.06  A 
ATOM     54  CD1 PHE B   5       1.133  36.757  71.521  1.00 31.18 LIG 0.01  A 
ATOM     55  CE1 PHE B   5       2.376  37.376  71.590  1.00 30.23 LIG 0.00  A 
ATOM     56  CZ  PHE B   5       3.263  37.348  70.496  1.00 31.30 LIG 0.00  A 
ATOM     57  CE2 PHE B   5       2.848  36.732  69.314  1.00 30.12 LIG 0.00  A 
ATOM     58  CD2 PHE B   5       1.597  36.119  69.272  1.00 31.88 LIG 0.01  A 
ENDBRANCH 52 53
ENDBRANCH 33 52
ENDBRANCH 3 33
TORSDOF 20
ENDMDL
MODEL 5
USER: ADFR SOLUTION from run 88
USER: SCORE 18.934173 LL:  -4.200 LR: -16.361 RR:   0.000 FEB: -10.395
USER: RMSD 7.349259
USER: SEED 87
USER: STATUS no improvement in best in 8 clusters for 5 generations
USER: GENES 22
USER: genes 0 Translation |==|  0.47251 0.53201 0.37817
USER: genes 1 Rotation |==|  0.27415 0.69672 0.71367 0.83858
USER: genes 2 Torsion [N]-C--CA-[N] |==|  0.91897
USER: genes 3 Torsion [C]-CA--CB-[CG] |==|  0.36064
USER: genes 4 Torsion [CA]-CB--CG-[CD2] |==|  0.72280
USER: genes 5 Torsion [C]-CA--N-[C] |==|  0.71668
USER: genes 6 Torsion [N]-C--CA-[N] |==|  0.52764
USER: genes 7 Torsion [C]-CA--N-[C] |==|  0.76336
USER: genes 8 Torsion [N]-C--CA-[N] |==|  0.00398
USER: genes 9 Torsion [C]-CA--CB-[CG] |==|  0.41869
USER: genes 10 Torsion [CA]-CB--CG-[CD1] |==|  0.04252
USER: genes 11 Torsion [C]-N--CA-[CB] |==|  0.18730
USER: genes 12 Torsion [N]-CA--C-[N] |==|  0.46247
USER: genes 13 Torsion [C]-N--CA-[C] |==|  0.61851
USER: genes 14 Torsion [N]-CA--C-[N] |==|  0.43800
USER: genes 15 Torsion [C]-N--CA-[C] |==|  0.54517
USER: genes 16 Torsion [N]-CA--C-[O] |==|  0.97570
USER: genes 17 Torsion [N]-CA--CB-[CG] |==|  0.53446
USER: genes 18 Torsion [CA]-CB--CG-[CD] |==|  0.34072
USER: genes 19 Torsion [CB]-CG--CD-[OE2] |==|  0.48923
USER: genes 20 Torsion [N]-CA--CB-[CG] |==|  0.57575
USER: genes 21 Torsion [CA]-CB--CG-[CD2] |==|  0.58923
ROOT
ATOM      1  C   LEU B   4      -3.464  36.232  65.105  1.00 29.18 LIG 0.24  C 
ATOM      2 O    LEU B   4      -4.298  35.892  64.261  1.00 28.54 LIG-0.27  OA
ATOM      3  N   PHE B   5      -2.301  35.604  65.267  1.00 29.99 LIG-0.35  N 
ATOM      4 H    PHE B   5      -1.761  35.749  65.920  1.00 29.99 LIG 0.16  HD
ENDROOT
BRANCH 1 5
ATOM      5  CA  LEU B   4      -3.771  37.418  66.042  1.00 28.82 LIG 0.18  C 
BRANCH 5 6
ATOM      6  CB  LEU B   4      -3.410  38.720  65.367  1.00 28.29 LIG 0.04  C 
BRANCH 6 7
ATOM      7  CG  LEU B   4      -4.522  39.786  65.404  1.00 28.88 LIG-0.02  C 
ATOM      8  CD2 LEU B   4      -5.242  39.782  64.066  1.00 30.37 LIG 0.01  C 
ATOM      9  CD1 LEU B   4      -4.019  41.211  65.744  1.00 31.50 LIG 0.01  C 
ENDBRANCH 6 7
ENDBRANCH 5 6
BRANCH 5 10
ATOM     10  N   LEU B   4      -3.135  37.303  67.351  1.00 28.20 LIG-0.35  N 
ATOM     11  C   TRP B   3      -3.822  36.920  68.409  1.00 29.51 LIG 0.24  C 
ATOM     12 O    TRP B   3      -5.003  36.598  68.341  1.00 30.32 LIG-0.27  OA
ATOM     13 H    LEU B   4      -2.298  37.501  67.363  1.00 28.20 LIG 0.16  HD
BRANCH 11 14
ATOM     14  CA  TRP B   3      -3.079  36.937  69.755  1.00 31.78 LIG 0.18  C 
BRANCH 14 15
ATOM     15  N   TRP B   3      -3.897  36.263  70.790  1.00 33.85 LIG-0.35  N 
ATOM     16  C   ALA B   2      -4.826  36.999  71.428  1.00 37.00 LIG 0.26  C 
ATOM     17 O    ALA B   2      -4.949  38.232  71.192  1.00 38.56 LIG-0.27  OA
ATOM     18 H    TRP B   3      -3.730  35.430  70.925  1.00 33.85 LIG 0.16  HD
BRANCH 16 19
ATOM     19  CA  ALA B   2      -5.739  36.363  72.440  1.00 38.11 LIG 0.40  C 
ATOM     20  CB  ALA B   2      -5.725  37.228  73.777  1.00 38.97 LIG 0.06  C 
ATOM     21  N   ALA B   2      -5.574  34.890  72.751  1.00 37.81 LIG 0.61  N 
ENDBRANCH 16 19
ENDBRANCH 14 15
BRANCH 14 22
ATOM     22  CB  TRP B   3      -1.692  36.284  69.574  1.00 31.58 LIG 0.07  C 
BRANCH 22 23
ATOM     23  CG  TRP B   3      -0.697  36.816  70.490  1.00 30.60 LIG-0.03  A 
ATOM     24  CD1 TRP B   3      -0.921  37.548  71.598  1.00 31.03 LIG 0.10  A 
ATOM     25  NE1 TRP B   3       0.275  37.914  72.170  1.00 29.84 LIG-0.36  N 
ATOM     26 HE1  TRP B   3       0.366  38.385  72.884  1.00 29.84 LIG 0.17  HD
ATOM     27  CE2 TRP B   3       1.292  37.402  71.416  1.00 27.79 LIG 0.04  A 
ATOM     28  CD2 TRP B   3       0.714  36.704  70.357  1.00 28.46 LIG-0.00  A 
ATOM     29  CZ2 TRP B   3       2.664  37.493  71.593  1.00 27.89 LIG 0.03  A 
ATOM     30  CE3 TRP B   3       1.539  36.097  69.427  1.00 31.78 LIG 0.01  A 
ATOM     31  CZ3 TRP B   3       2.897  36.161  69.609  1.00 30.70 LIG 0.00  A 
ATOM     32  CH2 TRP B   3       3.447  36.883  70.676  1.00 27.16 LIG 0.00  A 
ENDBRANCH 22 23
ENDBRANCH 14 22
ENDBRANCH 11 14
ENDBRANCH 5 10
ENDBRANCH 1 5
BRANCH 3 33
ATOM     33  CA  PHE B   5      -1.843  34.581  64.303  1.00 32.14 LIG 0.18  C 
BRANCH 33 34
ATOM     34  C   PHE B   5      -0.610  33.820  64.747  1.00 34.99 LIG 0.24  C 
ATOM     35 O    PHE B   5       0.030  34.227  65.724  1.00 34.76 LIG-0.27  OA
ATOM     36  N   GLU B   6      -0.316  32.706  64.060  1.00 37.97 LIG-0.35  N 
ATOM     37 H    GLU B   6      -0.906  32.269  63.612  1.00 37.97 LIG 0.16  HD
BRANCH 36 38
ATOM     38  CA  GLU B   6       1.036  32.097  63.986  1.00 41.44 LIG 0.18  C 
BRANCH 38 39
ATOM     39  C   GLU B   6       1.244  31.683  62.510  1.00 42.63 LIG 0.24  C 
ATOM     40  N   ALA B   7       2.504  31.544  62.095  1.00 44.72 LIG-0.35  N 
ATOM     41 H    ALA B   7       3.194  31.529  62.608  1.00 44.72 LIG 0.16  HD
ATOM     42 O    GLU B   6       0.284  31.566  61.721  1.00 39.57 LIG-0.27  OA
BRANCH 40 43
ATOM     43  CA  ALA B   7       2.790  31.397  60.619  1.00 46.42 LIG 0.16  C 
ATOM     44  CB  ALA B   7       2.530  32.722  59.868  1.00 46.36 LIG 0.04  C 
BRANCH 43 45
ATOM     45  C   ALA B   7       4.186  30.862  60.354  1.00 46.87 LIG 0.22  C 
ATOM     46 O    ALA B   7       4.975  30.765  61.296  1.00 48.90 LIG-0.29  OA
ENDBRANCH 43 45
ENDBRANCH 40 43
ENDBRANCH 38 39
BRANCH 38 47
ATOM     47  CB  GLU B   6       1.190  30.890  64.917  1.00 42.54 LIG 0.04  C 
BRANCH 47 48
ATOM     48  CG  GLU B   6       2.682  30.440  65.076  1.00 48.04 LIG 0.12  C 
BRANCH 48 49
ATOM     49  CD  GLU B   6       3.224  30.417  66.515  1.00 53.57 LIG 0.17  C 
ATOM     50 OE2  GLU B   6       4.409  29.982  66.677  1.00 60.38 LIG-0.65  OA
ATOM     51 OE1  GLU B   6       2.530  30.845  67.476  1.00 57.14 LIG-0.65  OA
ENDBRANCH 48 49
ENDBRANCH 47 48
ENDBRANCH 38 47
ENDBRANCH 36 38
ENDBRANCH 33 34
BRANCH 33 52
ATOM     52  CB  PHE B   5      -1.518  35.196  62.928  1.00 32.62 LIG 0.07  C 
BRANCH 52 53
ATOM     53  CG  PHE B   5      -1.675  34.254  61.771  1.00 30.35 LIG-0.06  A 
ATOM     54  CD1 PHE B   5      -2.582  33.221  61.808  1.00 31.18 LIG 0.01  A 
ATOM     55  CE1 PHE B   5      -2.698  32.344  60.735  1.00 30.23 LIG 0.00  A 
ATOM     56  CZ  PHE B   5      -1.899  32.495  59.584  1.00 31.30 LIG 0.00  A 
ATOM     57  CE2 PHE B   5      -0.944  33.512  59.562  1.00 30.12 LIG 0.00  A 
ATOM     58  CD2 PHE B   5      -0.848  34.377  60.651  1.00 31.88 LIG 0.01  A 
ENDBRANCH 52 53
ENDBRANCH 33 52
ENDBRANCH 3 33
TORSDOF 20
ENDMDL
MODEL 6
USER: ADFR SOLUTION from run 173
USER: SCORE 19.218507 LL:  -4.227 LR: -16.303 RR:   0.000 FEB: -10.337
USER: RMSD 8.574628
USER: SEED 172
USER: STATUS no improvement in best in 7 clusters for 5 generations
USER: GENES 22
USER: genes 0 Translation |==|  0.49969 0.59032 0.61549
USER: genes 1 Rotation |==|  0.77375 0.89385 0.35879 0.50038
USER: genes 2 Torsion [N]-C--CA-[N] |==|  0.37123
USER: genes 3 Torsion [C]-CA--CB-[CG] |==|  0.50799
USER: genes 4 Torsion [CA]-CB--CG-[CD2] |==|  0.26511
USER: genes 5 Torsion [C]-CA--N-[C] |==|  0.82447
USER: genes 6 Torsion [N]-C--CA-[N] |==|  0.13280
USER: genes 7 Torsion [C]-CA--N-[C] |==|  0.18333
USER: genes 8 Torsion [N]-C--CA-[N] |==|  0.56818
USER: genes 9 Torsion [C]-CA--CB-[CG] |==|  0.23560
USER: genes 10 Torsion [CA]-CB--CG-[CD1] |==|  0.08861
USER: genes 11 Torsion [C]-N--CA-[CB] |==|  0.57003
USER: genes 12 Torsion [N]-CA--C-[N] |==|  0.87502
USER: genes 13 Torsion [C]-N--CA-[C] |==|  0.60914
USER: genes 14 Torsion [N]-CA--C-[N] |==|  0.44082
USER: genes 15 Torsion [C]-N--CA-[C] |==|  0.16791
USER: genes 16 Torsion [N]-CA--C-[O] |==|  0.38234
USER: genes 17 Torsion [N]-CA--CB-[CG] |==|  0.65585
USER: genes 18 Torsion [CA]-CB--CG-[CD] |==|  0.16512
USER: genes 19 Torsion [CB]-CG--CD-[OE2] |==|  0.15273
USER: genes 20 Torsion [N]-CA--CB-[CG] |==|  0.51521
USER: genes 21 Torsion [CA]-CB--CG-[CD2] |==|  0.70110
ROOT
ATOM      1  C   LEU B   4      -2.934  37.369  70.445  1.00 29.18 LIG 0.24  C 
ATOM      2 O    LEU B   4      -2.089  38.268  70.471  1.00 28.54 LIG-0.27  OA
ATOM      3  N   PHE B   5      -3.951  37.308  71.301  1.00 29.99 LIG-0.35  N 
ATOM      4 H    PHE B   5      -4.481  36.634  71.375  1.00 29.99 LIG 0.16  HD
ENDROOT
BRANCH 1 5
ATOM      5  CA  LEU B   4      -2.813  36.242  69.399  1.00 28.82 LIG 0.18  C 
BRANCH 5 6
ATOM      6  CB  LEU B   4      -1.768  35.241  69.833  1.00 28.29 LIG 0.04  C 
BRANCH 6 7
ATOM      7  CG  LEU B   4      -1.516  34.106  68.823  1.00 28.88 LIG-0.02  C 
ATOM      8  CD2 LEU B   4      -0.326  34.482  67.956  1.00 30.37 LIG 0.01  C 
ATOM      9  CD1 LEU B   4      -2.742  33.763  67.939  1.00 31.50 LIG 0.01  C 
ENDBRANCH 6 7
ENDBRANCH 5 6
BRANCH 5 10
ATOM     10  N   LEU B   4      -2.556  36.729  68.048  1.00 28.20 LIG-0.35  N 
ATOM     11  C   TRP B   3      -3.434  37.486  67.420  1.00 29.51 LIG 0.24  C 
ATOM     12 O    TRP B   3      -4.475  37.858  67.950  1.00 30.32 LIG-0.27  OA
ATOM     13 H    LEU B   4      -1.803  36.482  67.714  1.00 28.20 LIG 0.16  HD
BRANCH 11 14
ATOM     14  CA  TRP B   3      -3.109  37.853  65.962  1.00 31.78 LIG 0.18  C 
BRANCH 14 15
ATOM     15  N   TRP B   3      -2.704  36.638  65.216  1.00 33.85 LIG-0.35  N 
ATOM     16  C   ALA B   2      -3.635  35.684  65.027  1.00 37.00 LIG 0.26  C 
ATOM     17 O    ALA B   2      -4.790  35.799  65.522  1.00 38.56 LIG-0.27  OA
ATOM     18 H    TRP B   3      -1.889  36.612  64.944  1.00 33.85 LIG 0.16  HD
BRANCH 16 19
ATOM     19  CA  ALA B   2      -3.314  34.457  64.219  1.00 38.11 LIG 0.40  C 
ATOM     20  CB  ALA B   2      -2.171  34.805  63.166  1.00 38.97 LIG 0.06  C 
ATOM     21  N   ALA B   2      -4.446  33.703  63.553  1.00 37.81 LIG 0.61  N 
ENDBRANCH 16 19
ENDBRANCH 14 15
BRANCH 14 22
ATOM     22  CB  TRP B   3      -4.330  38.558  65.335  1.00 31.58 LIG 0.07  C 
BRANCH 22 23
ATOM     23  CG  TRP B   3      -4.359  39.984  65.614  1.00 30.60 LIG-0.03  A 
ATOM     24  CD1 TRP B   3      -3.303  40.803  65.773  1.00 31.03 LIG 0.10  A 
ATOM     25  NE1 TRP B   3      -3.733  42.073  66.081  1.00 29.84 LIG-0.36  N 
ATOM     26 HE1  TRP B   3      -3.228  42.753  66.226  1.00 29.84 LIG 0.17  HD
ATOM     27  CE2 TRP B   3      -5.099  42.071  66.117  1.00 27.79 LIG 0.04  A 
ATOM     28  CD2 TRP B   3      -5.522  40.776  65.823  1.00 28.46 LIG-0.00  A 
ATOM     29  CZ2 TRP B   3      -5.984  43.108  66.373  1.00 27.89 LIG 0.03  A 
ATOM     30  CE3 TRP B   3      -6.877  40.502  65.811  1.00 31.78 LIG 0.01  A 
ATOM     31  CZ3 TRP B   3      -7.760  41.527  66.039  1.00 30.70 LIG 0.00  A 
ATOM     32  CH2 TRP B   3      -7.303  42.815  66.346  1.00 27.16 LIG 0.00  A 
ENDBRANCH 22 23
ENDBRANCH 14 22
ENDBRANCH 11 14
ENDBRANCH 5 10
ENDBRANCH 1 5
BRANCH 3 33
ATOM     33  CA  PHE B   5      -4.253  38.432  72.214  1.00 32.14 LIG 0.18  C 
BRANCH 33 34
ATOM     34  C   PHE B   5      -3.030  39.193  72.684  1.00 34.99 LIG 0.24  C 
ATOM     35 O    PHE B   5      -3.067  40.428  72.721  1.00 34.76 LIG-0.27  OA
ATOM     36  N   GLU B   6      -1.982  38.454  73.079  1.00 37.97 LIG-0.35  N 
ATOM     37 H    GLU B   6      -2.064  37.640  73.345  1.00 37.97 LIG 0.16  HD
BRANCH 36 38
ATOM     38  CA  GLU B   6      -0.578  38.936  73.108  1.00 41.44 LIG 0.18  C 
BRANCH 38 39
ATOM     39  C   GLU B   6       0.295  37.753  72.628  1.00 42.63 LIG 0.24  C 
ATOM     40  N   ALA B   7       1.507  38.051  72.155  1.00 44.72 LIG-0.35  N 
ATOM     41 H    ALA B   7       1.889  38.818  72.224  1.00 44.72 LIG 0.16  HD
ATOM     42 O    GLU B   6      -0.140  36.584  72.605  1.00 39.57 LIG-0.27  OA
BRANCH 40 43
ATOM     43  CA  ALA B   7       2.307  36.991  71.437  1.00 46.42 LIG 0.16  C 
ATOM     44  CB  ALA B   7       2.695  35.843  72.395  1.00 46.36 LIG 0.04  C 
BRANCH 43 45
ATOM     45  C   ALA B   7       1.598  36.477  70.197  1.00 46.87 LIG 0.22  C 
ATOM     46 O    ALA B   7       2.253  36.295  69.168  1.00 48.90 LIG-0.29  OA
ENDBRANCH 43 45
ENDBRANCH 40 43
ENDBRANCH 38 39
BRANCH 38 47
ATOM     47  CB  GLU B   6      -0.145  39.403  74.502  1.00 42.54 LIG 0.04  C 
BRANCH 47 48
ATOM     48  CG  GLU B   6       0.380  40.879  74.505  1.00 48.04 LIG 0.12  C 
BRANCH 48 49
ATOM     49  CD  GLU B   6      -0.619  41.945  74.026  1.00 53.57 LIG 0.17  C 
ATOM     50 OE2  GLU B   6      -1.745  41.986  74.620  1.00 60.38 LIG-0.65  OA
ATOM     51 OE1  GLU B   6      -0.313  42.757  73.113  1.00 57.14 LIG-0.65  OA
ENDBRANCH 48 49
ENDBRANCH 47 48
ENDBRANCH 38 47
ENDBRANCH 36 38
ENDBRANCH 33 34
BRANCH 33 52
ATOM     52  CB  PHE B   5      -4.998  37.957  73.476  1.00 32.62 LIG 0.07  C 
BRANCH 52 53
ATOM     53  CG  PHE B   5      -5.450  39.062  74.386  1.00 30.35 LIG-0.06  A 
ATOM     54  CD1 PHE B   5      -6.457  39.923  74.018  1.00 31.18 LIG 0.01  A 
ATOM     55  CE1 PHE B   5      -6.848  40.955  74.865  1.00 30.23 LIG 0.00  A 
ATOM     56  CZ  PHE B   5      -6.231  41.139  76.118  1.00 31.30 LIG 0.00  A 
ATOM     57  CE2 PHE B   5      -5.176  40.298  76.474  1.00 30.12 LIG 0.00  A 
ATOM     58  CD2 PHE B   5      -4.804  39.272  75.607  1.00 31.88 LIG 0.01  A 
ENDBRANCH 52 53
ENDBRANCH 33 52
ENDBRANCH 3 33
TORSDOF 20
ENDMDL
MODEL 7
USER: ADFR SOLUTION from run 198
USER: SCORE 19.034378 LL:  -5.454 LR: -16.153 RR:   0.000 FEB: -10.187
USER: RMSD 5.068234
USER: SEED 197
USER: STATUS no improvement in best in 3 clusters for 5 generations
USER: GENES 22
USER: genes 0 Translation |==|  0.63865 0.50463 0.61834
USER: genes 1 Rotation |==|  0.57869 0.15694 0.14541 0.51957
USER: genes 2 Torsion [N]-C--CA-[N] |==|  0.37978
USER: genes 3 Torsion [C]-CA--CB-[CG] |==|  0.09243
USER: genes 4 Torsion [CA]-CB--CG-[CD2] |==|  0.65199
USER: genes 5 Torsion [C]-CA--N-[C] |==|  0.77080
USER: genes 6 Torsion [N]-C--CA-[N] |==|  0.78528
USER: genes 7 Torsion [C]-CA--N-[C] |==|  0.70437
USER: genes 8 Torsion [N]-C--CA-[N] |==|  0.81906
USER: genes 9 Torsion [C]-CA--CB-[CG] |==|  0.56090
USER: genes 10 Torsion [CA]-CB--CG-[CD1] |==|  0.34502
USER: genes 11 Torsion [C]-N--CA-[CB] |==|  0.29974
USER: genes 12 Torsion [N]-CA--C-[N] |==|  0.38661
USER: genes 13 Torsion [C]-N--CA-[C] |==|  0.87222
USER: genes 14 Torsion [N]-CA--C-[N] |==|  0.30263
USER: genes 15 Torsion [C]-N--CA-[C] |==|  0.14398
USER: genes 16 Torsion [N]-CA--C-[O] |==|  0.08799
USER: genes 17 Torsion [N]-CA--CB-[CG] |==|  0.72379
USER: genes 18 Torsion [CA]-CB--CG-[CD] |==|  0.81878
USER: genes 19 Torsion [CB]-CG--CD-[OE2] |==|  0.11252
USER: genes 20 Torsion [N]-CA--CB-[CG] |==|  0.87984
USER: genes 21 Torsion [CA]-CB--CG-[CD2] |==|  0.33372
ROOT
ATOM      1  C   LEU B   4      -0.224  35.698  70.509  1.00 29.18 LIG 0.24  C 
ATOM      2 O    LEU B   4      -0.590  34.874  71.350  1.00 28.54 LIG-0.27  OA
ATOM      3  N   PHE B   5       0.001  35.381  69.236  1.00 29.99 LIG-0.35  N 
ATOM      4 H    PHE B   5       0.365  35.908  68.663  1.00 29.99 LIG 0.16  HD
ENDROOT
BRANCH 1 5
ATOM      5  CA  LEU B   4       0.015  37.162  70.931  1.00 28.82 LIG 0.18  C 
BRANCH 5 6
ATOM      6  CB  LEU B   4       1.380  37.304  71.563  1.00 28.29 LIG 0.04  C 
BRANCH 6 7
ATOM      7  CG  LEU B   4       2.454  36.369  70.976  1.00 28.88 LIG-0.02  C 
ATOM      8  CD2 LEU B   4       3.072  35.569  72.110  1.00 30.37 LIG 0.01  C 
ATOM      9  CD1 LEU B   4       3.554  37.101  70.168  1.00 31.50 LIG 0.01  C 
ENDBRANCH 6 7
ENDBRANCH 5 6
BRANCH 5 10
ATOM     10  N   LEU B   4      -1.031  37.694  71.798  1.00 28.20 LIG-0.35  N 
ATOM     11  C   TRP B   3      -2.156  38.166  71.296  1.00 29.51 LIG 0.24  C 
ATOM     12 O    TRP B   3      -2.399  38.136  70.095  1.00 30.32 LIG-0.27  OA
ATOM     13 H    LEU B   4      -0.849  37.671  72.638  1.00 28.20 LIG 0.16  HD
BRANCH 11 14
ATOM     14  CA  TRP B   3      -3.141  38.799  72.292  1.00 31.78 LIG 0.18  C 
BRANCH 14 15
ATOM     15  N   TRP B   3      -3.861  37.736  73.032  1.00 33.85 LIG-0.35  N 
ATOM     16  C   ALA B   2      -5.149  37.516  72.713  1.00 37.00 LIG 0.26  C 
ATOM     17 O    ALA B   2      -5.735  38.233  71.856  1.00 38.56 LIG-0.27  OA
ATOM     18 H    TRP B   3      -3.408  37.316  73.631  1.00 33.85 LIG 0.16  HD
BRANCH 16 19
ATOM     19  CA  ALA B   2      -5.920  36.407  73.375  1.00 38.11 LIG 0.40  C 
ATOM     20  CB  ALA B   2      -6.027  36.702  74.937  1.00 38.97 LIG 0.06  C 
ATOM     21  N   ALA B   2      -5.499  34.974  73.127  1.00 37.81 LIG 0.61  N 
ENDBRANCH 16 19
ENDBRANCH 14 15
BRANCH 14 22
ATOM     22  CB  TRP B   3      -2.371  39.758  73.224  1.00 31.58 LIG 0.07  C 
BRANCH 22 23
ATOM     23  CG  TRP B   3      -3.069  40.005  74.475  1.00 30.60 LIG-0.03  A 
ATOM     24  CD1 TRP B   3      -2.596  39.815  75.721  1.00 31.03 LIG 0.10  A 
ATOM     25  NE1 TRP B   3      -3.572  40.108  76.645  1.00 29.84 LIG-0.36  N 
ATOM     26 HE1  TRP B   3      -3.487  40.054  77.500  1.00 29.84 LIG 0.17  HD
ATOM     27  CE2 TRP B   3      -4.698  40.499  75.978  1.00 27.79 LIG 0.04  A 
ATOM     28  CD2 TRP B   3      -4.412  40.450  74.615  1.00 28.46 LIG-0.00  A 
ATOM     29  CZ2 TRP B   3      -5.930  40.899  76.471  1.00 27.89 LIG 0.03  A 
ATOM     30  CE3 TRP B   3      -5.404  40.788  73.711  1.00 31.78 LIG 0.01  A 
ATOM     31  CZ3 TRP B   3      -6.618  41.209  74.192  1.00 30.70 LIG 0.00  A 
ATOM     32  CH2 TRP B   3      -6.878  41.233  75.568  1.00 27.16 LIG 0.00  A 
ENDBRANCH 22 23
ENDBRANCH 14 22
ENDBRANCH 11 14
ENDBRANCH 5 10
ENDBRANCH 1 5
BRANCH 3 33
ATOM     33  CA  PHE B   5      -0.374  34.055  68.699  1.00 32.14 LIG 0.18  C 
BRANCH 33 34
ATOM     34  C   PHE B   5       0.731  33.365  67.925  1.00 34.99 LIG 0.24  C 
ATOM     35 O    PHE B   5       1.463  34.038  67.191  1.00 34.76 LIG-0.27  OA
ATOM     36  N   GLU B   6       0.869  32.046  68.129  1.00 37.97 LIG-0.35  N 
ATOM     37 H    GLU B   6       0.586  31.656  68.841  1.00 37.97 LIG 0.16  HD
BRANCH 36 38
ATOM     38  CA  GLU B   6       1.513  31.111  67.172  1.00 41.44 LIG 0.18  C 
BRANCH 38 39
ATOM     39  C   GLU B   6       0.934  31.452  65.778  1.00 42.63 LIG 0.24  C 
ATOM     40  N   ALA B   7       1.756  32.047  64.913  1.00 44.72 LIG-0.35  N 
ATOM     41 H    ALA B   7       2.606  32.129  65.016  1.00 44.72 LIG 0.16  HD
ATOM     42 O    GLU B   6      -0.268  31.256  65.502  1.00 39.57 LIG-0.27  OA
BRANCH 40 43
ATOM     43  CA  ALA B   7       1.197  32.638  63.640  1.00 46.42 LIG 0.16  C 
ATOM     44  CB  ALA B   7       0.827  31.531  62.629  1.00 46.36 LIG 0.04  C 
BRANCH 43 45
ATOM     45  C   ALA B   7       0.031  33.574  63.904  1.00 46.87 LIG 0.22  C 
ATOM     46 O    ALA B   7       0.013  34.221  64.954  1.00 48.90 LIG-0.29  OA
ENDBRANCH 43 45
ENDBRANCH 40 43
ENDBRANCH 38 39
BRANCH 38 47
ATOM     47  CB  GLU B   6       1.257  29.641  67.522  1.00 42.54 LIG 0.04  C 
BRANCH 47 48
ATOM     48  CG  GLU B   6       2.464  28.985  68.277  1.00 48.04 LIG 0.12  C 
BRANCH 48 49
ATOM     49  CD  GLU B   6       3.767  28.858  67.471  1.00 53.57 LIG 0.17  C 
ATOM     50 OE2  GLU B   6       4.082  29.842  66.728  1.00 60.38 LIG-0.65  OA
ATOM     51 OE1  GLU B   6       4.499  27.838  67.578  1.00 57.14 LIG-0.65  OA
ENDBRANCH 48 49
ENDBRANCH 47 48
ENDBRANCH 38 47
ENDBRANCH 36 38
ENDBRANCH 33 34
BRANCH 33 52
ATOM     52  CB  PHE B   5      -1.592  34.143  67.759  1.00 32.62 LIG 0.07  C 
BRANCH 52 53
ATOM     53  CG  PHE B   5      -2.698  35.028  68.254  1.00 30.35 LIG-0.06  A 
ATOM     54  CD1 PHE B   5      -3.375  34.744  69.416  1.00 31.18 LIG 0.01  A 
ATOM     55  CE1 PHE B   5      -4.413  35.563  69.848  1.00 30.23 LIG 0.00  A 
ATOM     56  CZ  PHE B   5      -4.790  36.704  69.113  1.00 31.30 LIG 0.00  A 
ATOM     57  CE2 PHE B   5      -4.139  36.969  67.908  1.00 30.12 LIG 0.00  A 
ATOM     58  CD2 PHE B   5      -3.103  36.132  67.498  1.00 31.88 LIG 0.01  A 
ENDBRANCH 52 53
ENDBRANCH 33 52
ENDBRANCH 3 33
TORSDOF 20
ENDMDL
MODEL 8
USER: ADFR SOLUTION from run 197
USER: SCORE 20.528865 LL:  -5.577 LR: -16.121 RR:   0.000 FEB: -10.155
USER: RMSD 2.337891
USER: SEED 196
USER: STATUS no improvement in best in 4 clusters for 5 generations
USER: GENES 22
USER: genes 0 Translation |==|  0.51674 0.63418 0.65054
USER: genes 1 Rotation |==|  0.53210 0.38137 0.40817 0.97588
USER: genes 2 Torsion [N]-C--CA-[N] |==|  0.04810
USER: genes 3 Torsion [C]-CA--CB-[CG] |==|  0.91979
USER: genes 4 Torsion [CA]-CB--CG-[CD2] |==|  0.77382
USER: genes 5 Torsion [C]-CA--N-[C] |==|  0.71111
USER: genes 6 Torsion [N]-C--CA-[N] |==|  0.92693
USER: genes 7 Torsion [C]-CA--N-[C] |==|  0.83204
USER: genes 8 Torsion [N]-C--CA-[N] |==|  0.33542
USER: genes 9 Torsion [C]-CA--CB-[CG] |==|  0.01140
USER: genes 10 Torsion [CA]-CB--CG-[CD1] |==|  0.25545
USER: genes 11 Torsion [C]-N--CA-[CB] |==|  0.21265
USER: genes 12 Torsion [N]-CA--C-[N] |==|  0.40556
USER: genes 13 Torsion [C]-N--CA-[C] |==|  0.69623
USER: genes 14 Torsion [N]-CA--C-[N] |==|  0.39109
USER: genes 15 Torsion [C]-N--CA-[C] |==|  0.71553
USER: genes 16 Torsion [N]-CA--C-[O] |==|  0.50141
USER: genes 17 Torsion [N]-CA--CB-[CG] |==|  0.43126
USER: genes 18 Torsion [CA]-CB--CG-[CD] |==|  0.70542
USER: genes 19 Torsion [CB]-CG--CD-[OE2] |==|  0.19411
USER: genes 20 Torsion [N]-CA--CB-[CG] |==|  0.64760
USER: genes 21 Torsion [CA]-CB--CG-[CD2] |==|  0.37888
ROOT
ATOM      1  C   LEU B   4      -2.602  38.225  71.233  1.00 29.18 LIG 0.24  C 
ATOM      2 O    LEU B   4      -1.628  38.949  71.012  1.00 28.54 LIG-0.27  OA
ATOM      3  N   PHE B   5      -2.755  37.027  70.672  1.00 29.99 LIG-0.35  N 
ATOM      4 H    PHE B   5      -3.475  36.560  70.720  1.00 29.99 LIG 0.16  HD
ENDROOT
BRANCH 1 5
ATOM      5  CA  LEU B   4      -3.716  38.716  72.179  1.00 28.82 LIG 0.18  C 
BRANCH 5 6
ATOM      6  CB  LEU B   4      -3.117  39.480  73.336  1.00 28.29 LIG 0.04  C 
BRANCH 6 7
ATOM      7  CG  LEU B   4      -1.692  39.038  73.721  1.00 28.88 LIG-0.02  C 
ATOM      8  CD2 LEU B   4      -1.789  37.799  74.596  1.00 30.37 LIG 0.01  C 
ATOM      9  CD1 LEU B   4      -0.861  40.136  74.430  1.00 31.50 LIG 0.01  C 
ENDBRANCH 6 7
ENDBRANCH 5 6
BRANCH 5 10
ATOM     10  N   LEU B   4      -4.596  37.649  72.644  1.00 28.20 LIG-0.35  N 
ATOM     11  C   TRP B   3      -5.806  37.499  72.145  1.00 29.51 LIG 0.24  C 
ATOM     12 O    TRP B   3      -6.234  38.208  71.240  1.00 30.32 LIG-0.27  OA
ATOM     13 H    LEU B   4      -4.258  37.145  73.254  1.00 28.20 LIG 0.16  HD
BRANCH 11 14
ATOM     14  CA  TRP B   3      -6.684  36.410  72.783  1.00 31.78 LIG 0.18  C 
BRANCH 14 15
ATOM     15  N   TRP B   3      -5.828  35.356  73.376  1.00 33.85 LIG-0.35  N 
ATOM     16  C   ALA B   2      -5.000  34.688  72.551  1.00 37.00 LIG 0.26  C 
ATOM     17 O    ALA B   2      -5.003  34.913  71.310  1.00 38.56 LIG-0.27  OA
ATOM     18 H    TRP B   3      -5.910  35.231  74.223  1.00 33.85 LIG 0.16  HD
BRANCH 16 19
ATOM     19  CA  ALA B   2      -4.053  33.654  73.096  1.00 38.11 LIG 0.40  C 
ATOM     20  CB  ALA B   2      -2.559  34.194  72.971  1.00 38.97 LIG 0.06  C 
ATOM     21  N   ALA B   2      -4.154  32.231  72.590  1.00 37.81 LIG 0.61  N 
ENDBRANCH 16 19
ENDBRANCH 14 15
BRANCH 14 22
ATOM     22  CB  TRP B   3      -7.627  37.063  73.816  1.00 31.58 LIG 0.07  C 
BRANCH 22 23
ATOM     23  CG  TRP B   3      -7.511  38.511  73.846  1.00 30.60 LIG-0.03  A 
ATOM     24  CD1 TRP B   3      -8.237  39.400  73.143  1.00 31.03 LIG 0.10  A 
ATOM     25  NE1 TRP B   3      -7.794  40.677  73.398  1.00 29.84 LIG-0.36  N 
ATOM     26 HE1  TRP B   3      -8.115  41.397  73.055  1.00 29.84 LIG 0.17  HD
ATOM     27  CE2 TRP B   3      -6.762  40.608  74.290  1.00 27.79 LIG 0.04  A 
ATOM     28  CD2 TRP B   3      -6.564  39.262  74.595  1.00 28.46 LIG-0.00  A 
ATOM     29  CZ2 TRP B   3      -6.004  41.623  74.854  1.00 27.89 LIG 0.03  A 
ATOM     30  CE3 TRP B   3      -5.553  38.918  75.474  1.00 31.78 LIG 0.01  A 
ATOM     31  CZ3 TRP B   3      -4.815  39.918  76.056  1.00 30.70 LIG 0.00  A 
ATOM     32  CH2 TRP B   3      -5.030  41.260  75.718  1.00 27.16 LIG 0.00  A 
ENDBRANCH 22 23
ENDBRANCH 14 22
ENDBRANCH 11 14
ENDBRANCH 5 10
ENDBRANCH 1 5
BRANCH 3 33
ATOM     33  CA  PHE B   5      -1.662  36.397  69.901  1.00 32.14 LIG 0.18  C 
BRANCH 33 34
ATOM     34  C   PHE B   5      -2.114  35.275  68.988  1.00 34.99 LIG 0.24  C 
ATOM     35 O    PHE B   5      -3.079  34.579  69.322  1.00 34.76 LIG-0.27  OA
ATOM     36  N   GLU B   6      -1.447  35.141  67.831  1.00 37.97 LIG-0.35  N 
ATOM     37 H    GLU B   6      -1.011  35.789  67.471  1.00 37.97 LIG 0.16  HD
BRANCH 36 38
ATOM     38  CA  GLU B   6      -1.378  33.885  67.043  1.00 41.44 LIG 0.18  C 
BRANCH 38 39
ATOM     39  C   GLU B   6       0.072  33.364  67.185  1.00 42.63 LIG 0.24  C 
ATOM     40  N   ALA B   7       0.230  32.046  67.315  1.00 44.72 LIG-0.35  N 
ATOM     41 H    ALA B   7      -0.387  31.460  67.188  1.00 44.72 LIG 0.16  HD
ATOM     42 O    GLU B   6       1.044  34.144  67.259  1.00 39.57 LIG-0.27  OA
BRANCH 40 43
ATOM     43  CA  ALA B   7       1.577  31.493  67.714  1.00 46.42 LIG 0.16  C 
ATOM     44  CB  ALA B   7       1.440  30.471  68.864  1.00 46.36 LIG 0.04  C 
BRANCH 43 45
ATOM     45  C   ALA B   7       2.334  30.914  66.531  1.00 46.87 LIG 0.22  C 
ATOM     46 O    ALA B   7       3.447  30.420  66.721  1.00 48.90 LIG-0.29  OA
ENDBRANCH 43 45
ENDBRANCH 40 43
ENDBRANCH 38 39
BRANCH 38 47
ATOM     47  CB  GLU B   6      -1.739  34.094  65.569  1.00 42.54 LIG 0.04  C 
BRANCH 47 48
ATOM     48  CG  GLU B   6      -1.103  33.009  64.635  1.00 48.04 LIG 0.12  C 
BRANCH 48 49
ATOM     49  CD  GLU B   6       0.084  33.477  63.777  1.00 53.57 LIG 0.17  C 
ATOM     50 OE2  GLU B   6       1.170  33.733  64.389  1.00 60.38 LIG-0.65  OA
ATOM     51 OE1  GLU B   6      -0.016  33.563  62.523  1.00 57.14 LIG-0.65  OA
ENDBRANCH 48 49
ENDBRANCH 47 48
ENDBRANCH 38 47
ENDBRANCH 36 38
ENDBRANCH 33 34
BRANCH 33 52
ATOM     52  CB  PHE B   5      -0.576  35.813  70.824  1.00 32.62 LIG 0.07  C 
BRANCH 52 53
ATOM     53  CG  PHE B   5       0.818  36.277  70.519  1.00 30.35 LIG-0.06  A 
ATOM     54  CD1 PHE B   5       1.301  36.292  69.232  1.00 31.18 LIG 0.01  A 
ATOM     55  CE1 PHE B   5       2.603  36.706  68.971  1.00 30.23 LIG 0.00  A 
ATOM     56  CZ  PHE B   5       3.455  37.124  70.012  1.00 31.30 LIG 0.00  A 
ATOM     57  CE2 PHE B   5       2.985  37.065  71.324  1.00 30.12 LIG 0.00  A 
ATOM     58  CD2 PHE B   5       1.677  36.647  71.559  1.00 31.88 LIG 0.01  A 
ENDBRANCH 52 53
ENDBRANCH 33 52
ENDBRANCH 3 33
TORSDOF 20
ENDMDL
MODEL 9
USER: ADFR SOLUTION from run 89
USER: SCORE 20.009713 LL:  -4.701 LR: -16.121 RR:   0.000 FEB: -10.155
USER: RMSD 8.434433
USER: SEED 88
USER: STATUS no improvement in best in 5 clusters for 5 generations
USER: GENES 22
USER: genes 0 Translation |==|  0.60224 0.55114 0.65339
USER: genes 1 Rotation |==|  0.30146 0.06107 0.62537 0.54694
USER: genes 2 Torsion [N]-C--CA-[N] |==|  0.18085
USER: genes 3 Torsion [C]-CA--CB-[CG] |==|  0.26937
USER: genes 4 Torsion [CA]-CB--CG-[CD2] |==|  0.01313
USER: genes 5 Torsion [C]-CA--N-[C] |==|  0.14478
USER: genes 6 Torsion [N]-C--CA-[N] |==|  0.11972
USER: genes 7 Torsion [C]-CA--N-[C] |==|  0.16022
USER: genes 8 Torsion [N]-C--CA-[N] |==|  0.36631
USER: genes 9 Torsion [C]-CA--CB-[CG] |==|  0.23881
USER: genes 10 Torsion [CA]-CB--CG-[CD1] |==|  0.95218
USER: genes 11 Torsion [C]-N--CA-[CB] |==|  0.82664
USER: genes 12 Torsion [N]-CA--C-[N] |==|  0.42533
USER: genes 13 Torsion [C]-N--CA-[C] |==|  0.78333
USER: genes 14 Torsion [N]-CA--C-[N] |==|  0.21178
USER: genes 15 Torsion [C]-N--CA-[C] |==|  0.55498
USER: genes 16 Torsion [N]-CA--C-[O] |==|  0.11882
USER: genes 17 Torsion [N]-CA--CB-[CG] |==|  0.54520
USER: genes 18 Torsion [CA]-CB--CG-[CD] |==|  0.19351
USER: genes 19 Torsion [CB]-CG--CD-[OE2] |==|  0.67229
USER: genes 20 Torsion [N]-CA--CB-[CG] |==|  0.94799
USER: genes 21 Torsion [CA]-CB--CG-[CD2] |==|  0.82455
ROOT
ATOM      1  C   LEU B   4      -0.934  36.605  71.297  1.00 29.18 LIG 0.24  C 
ATOM      2 O    LEU B   4      -0.364  37.696  71.387  1.00 28.54 LIG-0.27  OA
ATOM      3  N   PHE B   5      -1.683  36.099  72.274  1.00 29.99 LIG-0.35  N 
ATOM      4 H    PHE B   5      -1.992  35.296  72.280  1.00 29.99 LIG 0.16  HD
ENDROOT
BRANCH 1 5
ATOM      5  CA  LEU B   4      -0.766  35.762  70.017  1.00 28.82 LIG 0.18  C 
BRANCH 5 6
ATOM      6  CB  LEU B   4       0.309  36.357  69.140  1.00 28.29 LIG 0.04  C 
BRANCH 6 7
ATOM      7  CG  LEU B   4       1.694  35.702  69.297  1.00 28.88 LIG-0.02  C 
ATOM      8  CD2 LEU B   4       1.567  34.520  70.242  1.00 30.37 LIG 0.01  C 
ATOM      9  CD1 LEU B   4       2.799  36.672  69.788  1.00 31.50 LIG 0.01  C 
ENDBRANCH 6 7
ENDBRANCH 5 6
BRANCH 5 10
ATOM     10  N   LEU B   4      -2.011  35.572  69.280  1.00 28.20 LIG-0.35  N 
ATOM     11  C   TRP B   3      -2.767  36.599  68.945  1.00 29.51 LIG 0.24  C 
ATOM     12 O    TRP B   3      -2.442  37.757  69.187  1.00 30.32 LIG-0.27  OA
ATOM     13 H    LEU B   4      -2.196  34.753  69.092  1.00 28.20 LIG 0.16  HD
BRANCH 11 14
ATOM     14  CA  TRP B   3      -4.107  36.275  68.265  1.00 31.78 LIG 0.18  C 
BRANCH 14 15
ATOM     15  N   TRP B   3      -4.762  35.141  68.958  1.00 33.85 LIG-0.35  N 
ATOM     16  C   ALA B   2      -5.016  35.278  70.273  1.00 37.00 LIG 0.26  C 
ATOM     17 O    ALA B   2      -4.653  36.311  70.899  1.00 38.56 LIG-0.27  OA
ATOM     18 H    TRP B   3      -4.944  34.453  68.476  1.00 33.85 LIG 0.16  HD
BRANCH 16 19
ATOM     19  CA  ALA B   2      -5.741  34.195  71.025  1.00 38.11 LIG 0.40  C 
ATOM     20  CB  ALA B   2      -7.273  34.601  71.182  1.00 38.97 LIG 0.06  C 
ATOM     21  N   ALA B   2      -5.174  33.716  72.345  1.00 37.81 LIG 0.61  N 
ENDBRANCH 16 19
ENDBRANCH 14 15
BRANCH 14 22
ATOM     22  CB  TRP B   3      -4.983  37.546  68.244  1.00 31.58 LIG 0.07  C 
BRANCH 22 23
ATOM     23  CG  TRP B   3      -4.714  38.394  67.095  1.00 30.60 LIG-0.03  A 
ATOM     24  CD1 TRP B   3      -3.632  38.360  66.294  1.00 31.03 LIG 0.10  A 
ATOM     25  NE1 TRP B   3      -3.713  39.356  65.350  1.00 29.84 LIG-0.36  N 
ATOM     26 HE1  TRP B   3      -3.129  39.518  64.739  1.00 29.84 LIG 0.17  HD
ATOM     27  CE2 TRP B   3      -4.875  40.046  65.545  1.00 27.79 LIG 0.04  A 
ATOM     28  CD2 TRP B   3      -5.529  39.463  66.630  1.00 28.46 LIG-0.00  A 
ATOM     29  CZ2 TRP B   3      -5.400  41.122  64.846  1.00 27.89 LIG 0.03  A 
ATOM     30  CE3 TRP B   3      -6.737  39.993  67.047  1.00 31.78 LIG 0.01  A 
ATOM     31  CZ3 TRP B   3      -7.274  41.042  66.345  1.00 30.70 LIG 0.00  A 
ATOM     32  CH2 TRP B   3      -6.586  41.614  65.267  1.00 27.16 LIG 0.00  A 
ENDBRANCH 22 23
ENDBRANCH 14 22
ENDBRANCH 11 14
ENDBRANCH 5 10
ENDBRANCH 1 5
BRANCH 3 33
ATOM     33  CA  PHE B   5      -2.050  36.907  73.456  1.00 32.14 LIG 0.18  C 
BRANCH 33 34
ATOM     34  C   PHE B   5      -2.821  38.170  73.128  1.00 34.99 LIG 0.24  C 
ATOM     35 O    PHE B   5      -2.696  38.678  72.008  1.00 34.76 LIG-0.27  OA
ATOM     36  N   GLU B   6      -3.639  38.636  74.085  1.00 37.97 LIG-0.35  N 
ATOM     37 H    GLU B   6      -3.954  38.135  74.708  1.00 37.97 LIG 0.16  HD
BRANCH 36 38
ATOM     38  CA  GLU B   6      -4.094  40.045  74.186  1.00 41.44 LIG 0.18  C 
BRANCH 38 39
ATOM     39  C   GLU B   6      -2.914  40.839  74.796  1.00 42.63 LIG 0.24  C 
ATOM     40  N   ALA B   7      -1.893  41.119  73.984  1.00 44.72 LIG-0.35  N 
ATOM     41 H    ALA B   7      -1.899  41.018  73.130  1.00 44.72 LIG 0.16  HD
ATOM     42 O    GLU B   6      -2.878  41.132  76.008  1.00 39.57 LIG-0.27  OA
BRANCH 40 43
ATOM     43  CA  ALA B   7      -0.607  41.657  74.564  1.00 46.42 LIG 0.16  C 
ATOM     44  CB  ALA B   7       0.179  40.547  75.297  1.00 46.36 LIG 0.04  C 
BRANCH 43 45
ATOM     45  C   ALA B   7       0.245  42.358  73.522  1.00 46.87 LIG 0.22  C 
ATOM     46 O    ALA B   7      -0.302  43.112  72.715  1.00 48.90 LIG-0.29  OA
ENDBRANCH 43 45
ENDBRANCH 40 43
ENDBRANCH 38 39
BRANCH 38 47
ATOM     47  CB  GLU B   6      -5.353  40.196  75.047  1.00 42.54 LIG 0.04  C 
BRANCH 47 48
ATOM     48  CG  GLU B   6      -6.065  41.576  74.834  1.00 48.04 LIG 0.12  C 
BRANCH 48 49
ATOM     49  CD  GLU B   6      -6.745  41.773  73.469  1.00 53.57 LIG 0.17  C 
ATOM     50 OE2  GLU B   6      -6.304  42.717  72.738  1.00 60.38 LIG-0.65  OA
ATOM     51 OE1  GLU B   6      -7.671  41.007  73.089  1.00 57.14 LIG-0.65  OA
ENDBRANCH 48 49
ENDBRANCH 47 48
ENDBRANCH 38 47
ENDBRANCH 36 38
ENDBRANCH 33 34
BRANCH 33 52
ATOM     52  CB  PHE B   5      -0.808  37.337  74.262  1.00 32.62 LIG 0.07  C 
BRANCH 52 53
ATOM     53  CG  PHE B   5       0.425  36.528  73.984  1.00 30.35 LIG-0.06  A 
ATOM     54  CD1 PHE B   5       1.526  37.089  73.382  1.00 31.18 LIG 0.01  A 
ATOM     55  CE1 PHE B   5       2.653  36.318  73.113  1.00 30.23 LIG 0.00  A 
ATOM     56  CZ  PHE B   5       2.697  34.953  73.456  1.00 31.30 LIG 0.00  A 
ATOM     57  CE2 PHE B   5       1.564  34.369  74.024  1.00 30.12 LIG 0.00  A 
ATOM     58  CD2 PHE B   5       0.449  35.163  74.282  1.00 31.88 LIG 0.01  A 
ENDBRANCH 52 53
ENDBRANCH 33 52
ENDBRANCH 3 33
TORSDOF 20
ENDMDL
MODEL 10
USER: ADFR SOLUTION from run 184
USER: SCORE 19.083394 LL:  -4.384 LR: -16.108 RR:   0.000 FEB: -10.142
USER: RMSD 5.994947
USER: SEED 183
USER: STATUS no improvement in best in 5 clusters for 5 generations
USER: GENES 22
USER: genes 0 Translation |==|  0.47381 0.58035 0.51812
USER: genes 1 Rotation |==|  0.56969 0.62424 0.94601 0.67546
USER: genes 2 Torsion [N]-C--CA-[N] |==|  0.38973
USER: genes 3 Torsion [C]-CA--CB-[CG] |==|  0.40284
USER: genes 4 Torsion [CA]-CB--CG-[CD2] |==|  0.02084
USER: genes 5 Torsion [C]-CA--N-[C] |==|  0.70961
USER: genes 6 Torsion [N]-C--CA-[N] |==|  0.95558
USER: genes 7 Torsion [C]-CA--N-[C] |==|  0.78997
USER: genes 8 Torsion [N]-C--CA-[N] |==|  0.90159
USER: genes 9 Torsion [C]-CA--CB-[CG] |==|  0.27298
USER: genes 10 Torsion [CA]-CB--CG-[CD1] |==|  0.25374
USER: genes 11 Torsion [C]-N--CA-[CB] |==|  0.40240
USER: genes 12 Torsion [N]-CA--C-[N] |==|  0.89541
USER: genes 13 Torsion [C]-N--CA-[C] |==|  0.15401
USER: genes 14 Torsion [N]-CA--C-[N] |==|  0.12603
USER: genes 15 Torsion [C]-N--CA-[C] |==|  0.75627
USER: genes 16 Torsion [N]-CA--C-[O] |==|  0.36736
USER: genes 17 Torsion [N]-CA--CB-[CG] |==|  0.76929
USER: genes 18 Torsion [CA]-CB--CG-[CD] |==|  0.91743
USER: genes 19 Torsion [CB]-CG--CD-[OE2] |==|  0.42459
USER: genes 20 Torsion [N]-CA--CB-[CG] |==|  0.70445
USER: genes 21 Torsion [CA]-CB--CG-[CD2] |==|  0.43782
ROOT
ATOM      1  C   LEU B   4      -3.439  37.175  68.254  1.00 29.18 LIG 0.24  C 
ATOM      2 O    LEU B   4      -4.554  36.648  68.219  1.00 28.54 LIG-0.27  OA
ATOM      3  N   PHE B   5      -2.954  37.908  67.254  1.00 29.99 LIG-0.35  N 
ATOM      4 H    PHE B   5      -2.141  38.185  67.208  1.00 29.99 LIG 0.16  HD
ENDROOT
BRANCH 1 5
ATOM      5  CA  LEU B   4      -2.538  36.968  69.489  1.00 28.82 LIG 0.18  C 
BRANCH 5 6
ATOM      6  CB  LEU B   4      -1.763  35.678  69.357  1.00 28.29 LIG 0.04  C 
BRANCH 6 7
ATOM      7  CG  LEU B   4      -0.342  35.725  69.950  1.00 28.88 LIG-0.02  C 
ATOM      8  CD2 LEU B   4      -0.169  37.042  70.689  1.00 30.37 LIG 0.01  C 
ATOM      9  CD1 LEU B   4       0.785  35.540  68.903  1.00 31.50 LIG 0.01  C 
ENDBRANCH 6 7
ENDBRANCH 5 6
BRANCH 5 10
ATOM     10  N   LEU B   4      -3.265  37.027  70.753  1.00 28.20 LIG-0.35  N 
ATOM     11  C   TRP B   3      -3.185  38.085  71.535  1.00 29.51 LIG 0.24  C 
ATOM     12 O    TRP B   3      -2.545  39.083  71.222  1.00 30.32 LIG-0.27  OA
ATOM     13 H    LEU B   4      -3.733  36.327  70.931  1.00 28.20 LIG 0.16  HD
BRANCH 11 14
ATOM     14  CA  TRP B   3      -3.905  37.995  72.890  1.00 31.78 LIG 0.18  C 
BRANCH 14 15
ATOM     15  N   TRP B   3      -4.863  36.865  72.877  1.00 33.85 LIG-0.35  N 
ATOM     16  C   ALA B   2      -6.015  37.033  72.201  1.00 37.00 LIG 0.26  C 
ATOM     17 O    ALA B   2      -6.289  38.135  71.652  1.00 38.56 LIG-0.27  OA
ATOM     18 H    TRP B   3      -4.627  36.159  73.308  1.00 33.85 LIG 0.16  HD
BRANCH 16 19
ATOM     19  CA  ALA B   2      -7.003  35.904  72.087  1.00 38.11 LIG 0.40  C 
ATOM     20  CB  ALA B   2      -8.069  36.019  73.265  1.00 38.97 LIG 0.06  C 
ATOM     21  N   ALA B   2      -6.484  34.487  71.968  1.00 37.81 LIG 0.61  N 
ENDBRANCH 16 19
ENDBRANCH 14 15
BRANCH 14 22
ATOM     22  CB  TRP B   3      -2.853  37.870  74.013  1.00 31.58 LIG 0.07  C 
BRANCH 22 23
ATOM     23  CG  TRP B   3      -2.571  39.139  74.662  1.00 30.60 LIG-0.03  A 
ATOM     24  CD1 TRP B   3      -3.177  39.649  75.751  1.00 31.03 LIG 0.10  A 
ATOM     25  NE1 TRP B   3      -2.673  40.897  76.030  1.00 29.84 LIG-0.36  N 
ATOM     26 HE1  TRP B   3      -2.919  41.404  76.680  1.00 29.84 LIG 0.17  HD
ATOM     27  CE2 TRP B   3      -1.718  41.198  75.101  1.00 27.79 LIG 0.04  A 
ATOM     28  CD2 TRP B   3      -1.626  40.112  74.232  1.00 28.46 LIG-0.00  A 
ATOM     29  CZ2 TRP B   3      -0.927  42.329  74.971  1.00 27.89 LIG 0.03  A 
ATOM     30  CE3 TRP B   3      -0.731  40.171  73.179  1.00 31.78 LIG 0.01  A 
ATOM     31  CZ3 TRP B   3       0.072  41.277  73.058  1.00 30.70 LIG 0.00  A 
ATOM     32  CH2 TRP B   3      -0.054  42.358  73.939  1.00 27.16 LIG 0.00  A 
ENDBRANCH 22 23
ENDBRANCH 14 22
ENDBRANCH 11 14
ENDBRANCH 5 10
ENDBRANCH 1 5
BRANCH 3 33
ATOM     33  CA  PHE B   5      -3.807  38.312  66.116  1.00 32.14 LIG 0.18  C 
BRANCH 33 34
ATOM     34  C   PHE B   5      -3.742  37.372  64.929  1.00 34.99 LIG 0.24  C 
ATOM     35 O    PHE B   5      -4.763  37.172  64.262  1.00 34.76 LIG-0.27  OA
ATOM     36  N   GLU B   6      -2.540  36.843  64.652  1.00 37.97 LIG-0.35  N 
ATOM     37 H    GLU B   6      -1.804  37.211  64.902  1.00 37.97 LIG 0.16  HD
BRANCH 36 38
ATOM     38  CA  GLU B   6      -2.332  35.584  63.893  1.00 41.44 LIG 0.18  C 
BRANCH 38 39
ATOM     39  C   GLU B   6      -3.066  35.765  62.543  1.00 42.63 LIG 0.24  C 
ATOM     40  N   ALA B   7      -2.885  36.925  61.910  1.00 44.72 LIG-0.35  N 
ATOM     41 H    ALA B   7      -2.293  37.514  62.117  1.00 44.72 LIG 0.16  HD
ATOM     42 O    GLU B   6      -3.856  34.904  62.107  1.00 39.57 LIG-0.27  OA
BRANCH 40 43
ATOM     43  CA  ALA B   7      -3.762  37.274  60.730  1.00 46.42 LIG 0.16  C 
ATOM     44  CB  ALA B   7      -4.028  38.794  60.666  1.00 46.36 LIG 0.04  C 
BRANCH 43 45
ATOM     45  C   ALA B   7      -3.205  36.742  59.422  1.00 46.87 LIG 0.22  C 
ATOM     46 O    ALA B   7      -3.959  36.139  58.655  1.00 48.90 LIG-0.29  OA
ENDBRANCH 43 45
ENDBRANCH 40 43
ENDBRANCH 38 39
BRANCH 38 47
ATOM     47  CB  GLU B   6      -2.859  34.353  64.639  1.00 42.54 LIG 0.04  C 
BRANCH 47 48
ATOM     48  CG  GLU B   6      -1.837  33.806  65.693  1.00 48.04 LIG 0.12  C 
BRANCH 48 49
ATOM     49  CD  GLU B   6      -0.352  34.035  65.366  1.00 53.57 LIG 0.17  C 
ATOM     50 OE2  GLU B   6       0.449  34.110  66.353  1.00 60.38 LIG-0.65  OA
ATOM     51 OE1  GLU B   6       0.045  34.108  64.173  1.00 57.14 LIG-0.65  OA
ENDBRANCH 48 49
ENDBRANCH 47 48
ENDBRANCH 38 47
ENDBRANCH 36 38
ENDBRANCH 33 34
BRANCH 33 52
ATOM     52  CB  PHE B   5      -3.440  39.715  65.597  1.00 32.62 LIG 0.07  C 
BRANCH 52 53
ATOM     53  CG  PHE B   5      -4.426  40.789  65.952  1.00 30.35 LIG-0.06  A 
ATOM     54  CD1 PHE B   5      -5.745  40.493  66.203  1.00 31.18 LIG 0.01  A 
ATOM     55  CE1 PHE B   5      -6.650  41.504  66.509  1.00 30.23 LIG 0.00  A 
ATOM     56  CZ  PHE B   5      -6.239  42.850  66.577  1.00 31.30 LIG 0.00  A 
ATOM     57  CE2 PHE B   5      -4.912  43.160  66.275  1.00 30.12 LIG 0.00  A 
ATOM     58  CD2 PHE B   5      -4.026  42.128  65.972  1.00 31.88 LIG 0.01  A 
ENDBRANCH 52 53
ENDBRANCH 33 52
ENDBRANCH 3 33
TORSDOF 20
ENDMDL
MODEL 11
USER: ADFR SOLUTION from run 94
USER: SCORE 19.022201 LL:  -4.784 LR: -16.024 RR:   0.000 FEB: -10.058
USER: RMSD 5.230855
USER: SEED 93
USER: STATUS no improvement in best in 21 clusters for 5 generations
USER: GENES 22
USER: genes 0 Translation |==|  0.53786 0.49096 0.54592
USER: genes 1 Rotation |==|  0.45177 0.82206 0.86820 0.59152
USER: genes 2 Torsion [N]-C--CA-[N] |==|  0.40556
USER: genes 3 Torsion [C]-CA--CB-[CG] |==|  0.22433
USER: genes 4 Torsion [CA]-CB--CG-[CD2] |==|  0.72364
USER: genes 5 Torsion [C]-CA--N-[C] |==|  0.50294
USER: genes 6 Torsion [N]-C--CA-[N] |==|  0.11493
USER: genes 7 Torsion [C]-CA--N-[C] |==|  0.70356
USER: genes 8 Torsion [N]-C--CA-[N] |==|  0.83483
USER: genes 9 Torsion [C]-CA--CB-[CG] |==|  0.55546
USER: genes 10 Torsion [CA]-CB--CG-[CD1] |==|  0.34273
USER: genes 11 Torsion [C]-N--CA-[CB] |==|  0.24275
USER: genes 12 Torsion [N]-CA--C-[N] |==|  0.99997
USER: genes 13 Torsion [C]-N--CA-[C] |==|  0.17959
USER: genes 14 Torsion [N]-CA--C-[N] |==|  0.08278
USER: genes 15 Torsion [C]-N--CA-[C] |==|  0.82048
USER: genes 16 Torsion [N]-CA--C-[O] |==|  0.82271
USER: genes 17 Torsion [N]-CA--CB-[CG] |==|  0.54838
USER: genes 18 Torsion [CA]-CB--CG-[CD] |==|  0.35821
USER: genes 19 Torsion [CB]-CG--CD-[OE2] |==|  0.98540
USER: genes 20 Torsion [N]-CA--CB-[CG] |==|  0.07550
USER: genes 21 Torsion [CA]-CB--CG-[CD2] |==|  0.30341
ROOT
ATOM      1  C   LEU B   4      -2.190  35.432  68.879  1.00 29.18 LIG 0.24  C 
ATOM      2 O    LEU B   4      -3.013  34.725  69.467  1.00 28.54 LIG-0.27  OA
ATOM      3  N   PHE B   5      -1.805  35.203  67.625  1.00 29.99 LIG-0.35  N 
ATOM      4 H    PHE B   5      -1.153  35.608  67.239  1.00 29.99 LIG 0.16  HD
ENDROOT
BRANCH 1 5
ATOM      5  CA  LEU B   4      -1.544  36.622  69.617  1.00 28.82 LIG 0.18  C 
BRANCH 5 6
ATOM      6  CB  LEU B   4      -0.274  36.181  70.304  1.00 28.29 LIG 0.04  C 
BRANCH 6 7
ATOM      7  CG  LEU B   4       0.955  36.099  69.379  1.00 28.88 LIG-0.02  C 
ATOM      8  CD2 LEU B   4       1.163  34.648  68.978  1.00 30.37 LIG 0.01  C 
ATOM      9  CD1 LEU B   4       2.251  36.680  69.998  1.00 31.50 LIG 0.01  C 
ENDBRANCH 6 7
ENDBRANCH 5 6
BRANCH 5 10
ATOM     10  N   LEU B   4      -2.450  37.288  70.548  1.00 28.20 LIG-0.35  N 
ATOM     11  C   TRP B   3      -2.060  38.338  71.244  1.00 29.51 LIG 0.24  C 
ATOM     12 O    TRP B   3      -0.947  38.835  71.110  1.00 30.32 LIG-0.27  OA
ATOM     13 H    LEU B   4      -3.236  36.940  70.596  1.00 28.20 LIG 0.16  HD
BRANCH 11 14
ATOM     14  CA  TRP B   3      -3.060  38.893  72.271  1.00 31.78 LIG 0.18  C 
BRANCH 14 15
ATOM     15  N   TRP B   3      -3.721  37.775  72.984  1.00 33.85 LIG-0.35  N 
ATOM     16  C   ALA B   2      -5.005  37.512  72.677  1.00 37.00 LIG 0.26  C 
ATOM     17 O    ALA B   2      -5.635  38.233  71.856  1.00 38.56 LIG-0.27  OA
ATOM     18 H    TRP B   3      -3.241  37.353  73.560  1.00 33.85 LIG 0.16  HD
BRANCH 16 19
ATOM     19  CA  ALA B   2      -5.717  36.348  73.311  1.00 38.11 LIG 0.40  C 
ATOM     20  CB  ALA B   2      -5.940  36.649  74.859  1.00 38.97 LIG 0.06  C 
ATOM     21  N   ALA B   2      -5.163  34.954  73.109  1.00 37.81 LIG 0.61  N 
ENDBRANCH 16 19
ENDBRANCH 14 15
BRANCH 14 22
ATOM     22  CB  TRP B   3      -2.321  39.854  73.227  1.00 31.58 LIG 0.07  C 
BRANCH 22 23
ATOM     23  CG  TRP B   3      -3.034  40.063  74.475  1.00 30.60 LIG-0.03  A 
ATOM     24  CD1 TRP B   3      -2.573  39.848  75.722  1.00 31.03 LIG 0.10  A 
ATOM     25  NE1 TRP B   3      -3.562  40.108  76.641  1.00 29.84 LIG-0.36  N 
ATOM     26 HE1  TRP B   3      -3.485  40.035  77.495  1.00 29.84 LIG 0.17  HD
ATOM     27  CE2 TRP B   3      -4.685  40.502  75.972  1.00 27.79 LIG 0.04  A 
ATOM     28  CD2 TRP B   3      -4.384  40.489  74.611  1.00 28.46 LIG-0.00  A 
ATOM     29  CZ2 TRP B   3      -5.927  40.877  76.460  1.00 27.89 LIG 0.03  A 
ATOM     30  CE3 TRP B   3      -5.370  40.837  73.705  1.00 31.78 LIG 0.01  A 
ATOM     31  CZ3 TRP B   3      -6.594  41.233  74.182  1.00 30.70 LIG 0.00  A 
ATOM     32  CH2 TRP B   3      -6.869  41.221  75.555  1.00 27.16 LIG 0.00  A 
ENDBRANCH 22 23
ENDBRANCH 14 22
ENDBRANCH 11 14
ENDBRANCH 5 10
ENDBRANCH 1 5
BRANCH 3 33
ATOM     33  CA  PHE B   5      -2.497  34.205  66.782  1.00 32.14 LIG 0.18  C 
BRANCH 33 34
ATOM     34  C   PHE B   5      -1.615  33.567  65.728  1.00 34.99 LIG 0.24  C 
ATOM     35 O    PHE B   5      -2.108  32.748  64.944  1.00 34.76 LIG-0.27  OA
ATOM     36  N   GLU B   6      -0.338  33.979  65.689  1.00 37.97 LIG-0.35  N 
ATOM     37 H    GLU B   6      -0.088  34.739  66.002  1.00 37.97 LIG 0.16  HD
BRANCH 36 38
ATOM     38  CA  GLU B   6       0.780  33.192  65.111  1.00 41.44 LIG 0.18  C 
BRANCH 38 39
ATOM     39  C   GLU B   6       0.482  33.061  63.599  1.00 42.63 LIG 0.24  C 
ATOM     40  N   ALA B   7      -0.203  34.055  63.032  1.00 44.72 LIG-0.35  N 
ATOM     41 H    ALA B   7      -0.368  34.814  63.400  1.00 44.72 LIG 0.16  HD
ATOM     42 O    GLU B   6       0.794  32.038  62.955  1.00 39.57 LIG-0.27  OA
BRANCH 40 43
ATOM     43  CA  ALA B   7      -0.750  33.880  61.635  1.00 46.42 LIG 0.16  C 
ATOM     44  CB  ALA B   7      -1.724  35.022  61.272  1.00 46.36 LIG 0.04  C 
BRANCH 43 45
ATOM     45  C   ALA B   7       0.351  33.726  60.601  1.00 46.87 LIG 0.22  C 
ATOM     46 O    ALA B   7       1.125  34.666  60.412  1.00 48.90 LIG-0.29  OA
ENDBRANCH 43 45
ENDBRANCH 40 43
ENDBRANCH 38 39
BRANCH 38 47
ATOM     47  CB  GLU B   6       0.923  31.810  65.759  1.00 42.54 LIG 0.04  C 
BRANCH 47 48
ATOM     48  CG  GLU B   6       2.322  31.160  65.484  1.00 48.04 LIG 0.12  C 
BRANCH 48 49
ATOM     49  CD  GLU B   6       3.074  30.641  66.721  1.00 53.57 LIG 0.17  C 
ATOM     50 OE2  GLU B   6       2.546  30.877  67.855  1.00 60.38 LIG-0.65  OA
ATOM     51 OE1  GLU B   6       4.142  29.983  66.603  1.00 57.14 LIG-0.65  OA
ENDBRANCH 48 49
ENDBRANCH 47 48
ENDBRANCH 38 47
ENDBRANCH 36 38
ENDBRANCH 33 34
BRANCH 33 52
ATOM     52  CB  PHE B   5      -3.704  34.818  66.045  1.00 32.62 LIG 0.07  C 
BRANCH 52 53
ATOM     53  CG  PHE B   5      -3.591  36.291  65.782  1.00 30.35 LIG-0.06  A 
ATOM     54  CD1 PHE B   5      -3.738  37.211  66.793  1.00 31.18 LIG 0.01  A 
ATOM     55  CE1 PHE B   5      -3.652  38.573  66.526  1.00 30.23 LIG 0.00  A 
ATOM     56  CZ  PHE B   5      -3.405  39.043  65.221  1.00 31.30 LIG 0.00  A 
ATOM     57  CE2 PHE B   5      -3.303  38.115  64.184  1.00 30.12 LIG 0.00  A 
ATOM     58  CD2 PHE B   5      -3.393  36.756  64.479  1.00 31.88 LIG 0.01  A 
ENDBRANCH 52 53
ENDBRANCH 33 52
ENDBRANCH 3 33
TORSDOF 20
ENDMDL
MODEL 12
USER: ADFR SOLUTION from run 184
USER: SCORE 19.886648 LL:  -4.114 LR: -16.003 RR:   0.000 FEB: -10.037
USER: RMSD 7.551879
USER: SEED 183
USER: STATUS no improvement in best in 5 clusters for 5 generations
USER: GENES 22
USER: genes 0 Translation |==|  0.47689 0.57445 0.52012
USER: genes 1 Rotation |==|  0.56578 0.60807 0.95709 0.65832
USER: genes 2 Torsion [N]-C--CA-[N] |==|  0.36667
USER: genes 3 Torsion [C]-CA--CB-[CG] |==|  0.39673
USER: genes 4 Torsion [CA]-CB--CG-[CD2] |==|  0.01239
USER: genes 5 Torsion [C]-CA--N-[C] |==|  0.71419
USER: genes 6 Torsion [N]-C--CA-[N] |==|  0.95515
USER: genes 7 Torsion [C]-CA--N-[C] |==|  0.79638
USER: genes 8 Torsion [N]-C--CA-[N] |==|  0.88574
USER: genes 9 Torsion [C]-CA--CB-[CG] |==|  0.27770
USER: genes 10 Torsion [CA]-CB--CG-[CD1] |==|  0.25739
USER: genes 11 Torsion [C]-N--CA-[CB] |==|  0.82852
USER: genes 12 Torsion [N]-CA--C-[N] |==|  0.35048
USER: genes 13 Torsion [C]-N--CA-[C] |==|  0.80171
USER: genes 14 Torsion [N]-CA--C-[N] |==|  0.36331
USER: genes 15 Torsion [C]-N--CA-[C] |==|  0.76952
USER: genes 16 Torsion [N]-CA--C-[O] |==|  0.67900
USER: genes 17 Torsion [N]-CA--CB-[CG] |==|  0.81199
USER: genes 18 Torsion [CA]-CB--CG-[CD] |==|  0.24238
USER: genes 19 Torsion [CB]-CG--CD-[OE2] |==|  0.45024
USER: genes 20 Torsion [N]-CA--CB-[CG] |==|  0.65870
USER: genes 21 Torsion [CA]-CB--CG-[CD2] |==|  0.86380
ROOT
ATOM      1  C   LEU B   4      -3.379  37.060  68.299  1.00 29.18 LIG 0.24  C 
ATOM      2 O    LEU B   4      -4.451  36.459  68.194  1.00 28.54 LIG-0.27  OA
ATOM      3  N   PHE B   5      -2.925  37.897  67.368  1.00 29.99 LIG-0.35  N 
ATOM      4 H    PHE B   5      -2.134  38.233  67.365  1.00 29.99 LIG 0.16  HD
ENDROOT
BRANCH 1 5
ATOM      5  CA  LEU B   4      -2.494  36.827  69.541  1.00 28.82 LIG 0.18  C 
BRANCH 5 6
ATOM      6  CB  LEU B   4      -1.777  35.502  69.427  1.00 28.29 LIG 0.04  C 
BRANCH 6 7
ATOM      7  CG  LEU B   4      -0.339  35.507  69.979  1.00 28.88 LIG-0.02  C 
ATOM      8  CD2 LEU B   4      -0.065  36.863  70.606  1.00 30.37 LIG 0.01  C 
ATOM      9  CD1 LEU B   4       0.743  35.170  68.922  1.00 31.50 LIG 0.01  C 
ENDBRANCH 6 7
ENDBRANCH 5 6
BRANCH 5 10
ATOM     10  N   LEU B   4      -3.224  36.932  70.800  1.00 28.20 LIG-0.35  N 
ATOM     11  C   TRP B   3      -3.126  38.008  71.555  1.00 29.51 LIG 0.24  C 
ATOM     12 O    TRP B   3      -2.465  38.985  71.220  1.00 30.32 LIG-0.27  OA
ATOM     13 H    LEU B   4      -3.707  36.247  70.994  1.00 28.20 LIG 0.16  HD
BRANCH 11 14
ATOM     14  CA  TRP B   3      -3.851  37.967  72.910  1.00 31.78 LIG 0.18  C 
BRANCH 14 15
ATOM     15  N   TRP B   3      -4.835  36.859  72.921  1.00 33.85 LIG-0.35  N 
ATOM     16  C   ALA B   2      -5.959  37.016  72.198  1.00 37.00 LIG 0.26  C 
ATOM     17 O    ALA B   2      -6.189  38.095  71.585  1.00 38.56 LIG-0.27  OA
ATOM     18 H    TRP B   3      -4.629  36.170  73.394  1.00 33.85 LIG 0.16  HD
BRANCH 16 19
ATOM     19  CA  ALA B   2      -6.969  35.904  72.107  1.00 38.11 LIG 0.40  C 
ATOM     20  CB  ALA B   2      -7.984  36.016  73.329  1.00 38.97 LIG 0.06  C 
ATOM     21  N   ALA B   2      -6.477  34.482  71.945  1.00 37.81 LIG 0.61  N 
ENDBRANCH 16 19
ENDBRANCH 14 15
BRANCH 14 22
ATOM     22  CB  TRP B   3      -2.806  37.846  74.040  1.00 31.58 LIG 0.07  C 
BRANCH 22 23
ATOM     23  CG  TRP B   3      -2.527  39.117  74.685  1.00 30.60 LIG-0.03  A 
ATOM     24  CD1 TRP B   3      -3.122  39.620  75.782  1.00 31.03 LIG 0.10  A 
ATOM     25  NE1 TRP B   3      -2.627  40.874  76.055  1.00 29.84 LIG-0.36  N 
ATOM     26 HE1  TRP B   3      -2.868  41.378  76.709  1.00 29.84 LIG 0.17  HD
ATOM     27  CE2 TRP B   3      -1.688  41.184  75.112  1.00 27.79 LIG 0.04  A 
ATOM     28  CD2 TRP B   3      -1.598  40.099  74.241  1.00 28.46 LIG-0.00  A 
ATOM     29  CZ2 TRP B   3      -0.910  42.323  74.971  1.00 27.89 LIG 0.03  A 
ATOM     30  CE3 TRP B   3      -0.719  40.168  73.176  1.00 31.78 LIG 0.01  A 
ATOM     31  CZ3 TRP B   3       0.072  41.281  73.044  1.00 30.70 LIG 0.00  A 
ATOM     32  CH2 TRP B   3      -0.052  42.361  73.928  1.00 27.16 LIG 0.00  A 
ENDBRANCH 22 23
ENDBRANCH 14 22
ENDBRANCH 11 14
ENDBRANCH 5 10
ENDBRANCH 1 5
BRANCH 3 33
ATOM     33  CA  PHE B   5      -3.779  38.322  66.238  1.00 32.14 LIG 0.18  C 
BRANCH 33 34
ATOM     34  C   PHE B   5      -5.049  39.035  66.656  1.00 34.99 LIG 0.24  C 
ATOM     35 O    PHE B   5      -5.789  38.507  67.494  1.00 34.76 LIG-0.27  OA
ATOM     36  N   GLU B   6      -5.266  40.240  66.106  1.00 37.97 LIG-0.35  N 
ATOM     37 H    GLU B   6      -4.630  40.724  65.788  1.00 37.97 LIG 0.16  HD
BRANCH 36 38
ATOM     38  CA  GLU B   6      -6.600  40.877  65.979  1.00 41.44 LIG 0.18  C 
BRANCH 38 39
ATOM     39  C   GLU B   6      -7.359  40.081  64.891  1.00 42.63 LIG 0.24  C 
ATOM     40  N   ALA B   7      -8.596  39.681  65.188  1.00 44.72 LIG-0.35  N 
ATOM     41 H    ALA B   7      -9.050  39.944  65.870  1.00 44.72 LIG 0.16  HD
ATOM     42 O    GLU B   6      -6.812  39.756  63.817  1.00 39.57 LIG-0.27  OA
BRANCH 40 43
ATOM     43  CA  ALA B   7      -9.294  38.689  64.288  1.00 46.42 LIG 0.16  C 
ATOM     44  CB  ALA B   7     -10.303  37.831  65.084  1.00 46.36 LIG 0.04  C 
BRANCH 43 45
ATOM     45  C   ALA B   7      -9.943  39.358  63.090  1.00 46.87 LIG 0.22  C 
ATOM     46 O    ALA B   7     -11.171  39.322  62.981  1.00 48.90 LIG-0.29  OA
ENDBRANCH 43 45
ENDBRANCH 40 43
ENDBRANCH 38 39
BRANCH 38 47
ATOM     47  CB  GLU B   6      -6.511  42.361  65.606  1.00 42.54 LIG 0.04  C 
BRANCH 47 48
ATOM     48  CG  GLU B   6      -5.895  43.233  66.753  1.00 48.04 LIG 0.12  C 
BRANCH 48 49
ATOM     49  CD  GLU B   6      -4.362  43.344  66.759  1.00 53.57 LIG 0.17  C 
ATOM     50 OE2  GLU B   6      -3.857  44.298  67.433  1.00 60.38 LIG-0.65  OA
ATOM     51 OE1  GLU B   6      -3.648  42.501  66.151  1.00 57.14 LIG-0.65  OA
ENDBRANCH 48 49
ENDBRANCH 47 48
ENDBRANCH 38 47
ENDBRANCH 36 38
ENDBRANCH 33 34
BRANCH 33 52
ATOM     52  CB  PHE B   5      -4.203  37.127  65.363  1.00 32.62 LIG 0.07  C 
BRANCH 52 53
ATOM     53  CG  PHE B   5      -3.821  37.247  63.917  1.00 30.35 LIG-0.06  A 
ATOM     54  CD1 PHE B   5      -3.135  36.244  63.273  1.00 31.18 LIG 0.01  A 
ATOM     55  CE1 PHE B   5      -2.770  36.382  61.938  1.00 30.23 LIG 0.00  A 
ATOM     56  CZ  PHE B   5      -3.098  37.544  61.212  1.00 31.30 LIG 0.00  A 
ATOM     57  CE2 PHE B   5      -3.752  38.584  61.874  1.00 30.12 LIG 0.00  A 
ATOM     58  CD2 PHE B   5      -4.106  38.420  63.212  1.00 31.88 LIG 0.01  A 
ENDBRANCH 52 53
ENDBRANCH 33 52
ENDBRANCH 3 33
TORSDOF 20
ENDMDL
MODEL 13
USER: ADFR SOLUTION from run 88
USER: SCORE 18.852181 LL:  -4.411 LR: -15.947 RR:   0.000 FEB:  -9.981
USER: RMSD 7.678098
USER: SEED 87
USER: STATUS no improvement in best in 8 clusters for 5 generations
USER: GENES 22
USER: genes 0 Translation |==|  0.47846 0.51150 0.38648
USER: genes 1 Rotation |==|  0.26085 0.73951 0.76023 0.76024
USER: genes 2 Torsion [N]-C--CA-[N] |==|  0.87107
USER: genes 3 Torsion [C]-CA--CB-[CG] |==|  0.39395
USER: genes 4 Torsion [CA]-CB--CG-[CD2] |==|  0.68406
USER: genes 5 Torsion [C]-CA--N-[C] |==|  0.77233
USER: genes 6 Torsion [N]-C--CA-[N] |==|  0.35987
USER: genes 7 Torsion [C]-CA--N-[C] |==|  0.63474
USER: genes 8 Torsion [N]-C--CA-[N] |==|  0.13400
USER: genes 9 Torsion [C]-CA--CB-[CG] |==|  0.24799
USER: genes 10 Torsion [CA]-CB--CG-[CD1] |==|  0.71900
USER: genes 11 Torsion [C]-N--CA-[CB] |==|  0.23642
USER: genes 12 Torsion [N]-CA--C-[N] |==|  0.47433
USER: genes 13 Torsion [C]-N--CA-[C] |==|  0.62958
USER: genes 14 Torsion [N]-CA--C-[N] |==|  0.43709
USER: genes 15 Torsion [C]-N--CA-[C] |==|  0.53643
USER: genes 16 Torsion [N]-CA--C-[O] |==|  0.01122
USER: genes 17 Torsion [N]-CA--CB-[CG] |==|  0.54472
USER: genes 18 Torsion [CA]-CB--CG-[CD] |==|  0.33898
USER: genes 19 Torsion [CB]-CG--CD-[OE2] |==|  0.96547
USER: genes 20 Torsion [N]-CA--CB-[CG] |==|  0.85571
USER: genes 21 Torsion [CA]-CB--CG-[CD2] |==|  0.28283
ROOT
ATOM      1  C   LEU B   4      -3.348  35.832  65.292  1.00 29.18 LIG 0.24  C 
ATOM      2 O    LEU B   4      -4.283  35.188  64.809  1.00 28.54 LIG-0.27  OA
ATOM      3  N   PHE B   5      -2.075  35.461  65.170  1.00 29.99 LIG-0.35  N 
ATOM      4 H    PHE B   5      -1.423  35.827  65.594  1.00 29.99 LIG 0.16  HD
ENDROOT
BRANCH 1 5
ATOM      5  CA  LEU B   4      -3.644  37.114  66.098  1.00 28.82 LIG 0.18  C 
BRANCH 5 6
ATOM      6  CB  LEU B   4      -3.374  38.334  65.251  1.00 28.29 LIG 0.04  C 
BRANCH 6 7
ATOM      7  CG  LEU B   4      -4.377  39.485  65.454  1.00 28.88 LIG-0.02  C 
ATOM      8  CD2 LEU B   4      -5.169  39.670  64.170  1.00 30.37 LIG 0.01  C 
ATOM      9  CD1 LEU B   4      -3.725  40.823  65.884  1.00 31.50 LIG 0.01  C 
ENDBRANCH 6 7
ENDBRANCH 5 6
BRANCH 5 10
ATOM     10  N   LEU B   4      -2.928  37.178  67.368  1.00 28.20 LIG-0.35  N 
ATOM     11  C   TRP B   3      -3.381  36.552  68.436  1.00 29.51 LIG 0.24  C 
ATOM     12 O    TRP B   3      -4.387  35.852  68.407  1.00 30.32 LIG-0.27  OA
ATOM     13 H    LEU B   4      -2.207  37.647  67.351  1.00 28.20 LIG 0.16  HD
BRANCH 11 14
ATOM     14  CA  TRP B   3      -2.607  36.776  69.745  1.00 31.78 LIG 0.18  C 
BRANCH 14 15
ATOM     15  N   TRP B   3      -3.546  37.156  70.827  1.00 33.85 LIG-0.35  N 
ATOM     16  C   ALA B   2      -3.230  38.226  71.579  1.00 37.00 LIG 0.26  C 
ATOM     17 O    ALA B   2      -2.143  38.843  71.404  1.00 38.56 LIG-0.27  OA
ATOM     18 H    TRP B   3      -4.246  36.664  70.913  1.00 33.85 LIG 0.16  HD
BRANCH 16 19
ATOM     19  CA  ALA B   2      -4.171  38.710  72.648  1.00 38.11 LIG 0.40  C 
ATOM     20  CB  ALA B   2      -3.500  39.928  73.425  1.00 38.97 LIG 0.06  C 
ATOM     21  N   ALA B   2      -4.750  37.706  73.622  1.00 37.81 LIG 0.61  N 
ENDBRANCH 16 19
ENDBRANCH 14 15
BRANCH 14 22
ATOM     22  CB  TRP B   3      -1.799  35.503  70.078  1.00 31.58 LIG 0.07  C 
BRANCH 22 23
ATOM     23  CG  TRP B   3      -0.471  35.511  69.488  1.00 30.60 LIG-0.03  A 
ATOM     24  CD1 TRP B   3      -0.070  34.862  68.378  1.00 31.03 LIG 0.10  A 
ATOM     25  NE1 TRP B   3       1.273  35.069  68.171  1.00 29.84 LIG-0.36  N 
ATOM     26 HE1  TRP B   3       1.737  34.747  67.522  1.00 29.84 LIG 0.17  HD
ATOM     27  CE2 TRP B   3       1.748  35.872  69.168  1.00 27.79 LIG 0.04  A 
ATOM     28  CD2 TRP B   3       0.676  36.171  70.008  1.00 28.46 LIG-0.00  A 
ATOM     29  CZ2 TRP B   3       3.027  36.363  69.384  1.00 27.89 LIG 0.03  A 
ATOM     30  CE3 TRP B   3       0.897  36.967  71.118  1.00 31.78 LIG 0.01  A 
ATOM     31  CZ3 TRP B   3       2.154  37.476  71.324  1.00 30.70 LIG 0.00  A 
ATOM     32  CH2 TRP B   3       3.214  37.146  70.470  1.00 27.16 LIG 0.00  A 
ENDBRANCH 22 23
ENDBRANCH 14 22
ENDBRANCH 11 14
ENDBRANCH 5 10
ENDBRANCH 1 5
BRANCH 3 33
ATOM     33  CA  PHE B   5      -1.682  34.357  64.269  1.00 32.14 LIG 0.18  C 
BRANCH 33 34
ATOM     34  C   PHE B   5      -0.407  33.647  64.678  1.00 34.99 LIG 0.24  C 
ATOM     35 O    PHE B   5       0.262  34.101  65.613  1.00 34.76 LIG-0.27  OA
ATOM     36  N   GLU B   6      -0.109  32.523  64.010  1.00 37.97 LIG-0.35  N 
ATOM     37 H    GLU B   6      -0.705  32.056  63.602  1.00 37.97 LIG 0.16  HD
BRANCH 36 38
ATOM     38  CA  GLU B   6       1.257  31.953  63.893  1.00 41.44 LIG 0.18  C 
BRANCH 38 39
ATOM     39  C   GLU B   6       1.450  31.596  62.400  1.00 42.63 LIG 0.24  C 
ATOM     40  N   ALA B   7       2.705  31.511  61.958  1.00 44.72 LIG-0.35  N 
ATOM     41 H    ALA B   7       3.405  31.500  62.458  1.00 44.72 LIG 0.16  HD
ATOM     42 O    GLU B   6       0.480  31.475  61.624  1.00 39.57 LIG-0.27  OA
BRANCH 40 43
ATOM     43  CA  ALA B   7       2.968  31.423  60.473  1.00 46.42 LIG 0.16  C 
ATOM     44  CB  ALA B   7       2.578  32.738  59.761  1.00 46.36 LIG 0.04  C 
BRANCH 43 45
ATOM     45  C   ALA B   7       4.398  31.016  60.165  1.00 46.87 LIG 0.22  C 
ATOM     46 O    ALA B   7       5.150  30.733  61.099  1.00 48.90 LIG-0.29  OA
ENDBRANCH 43 45
ENDBRANCH 40 43
ENDBRANCH 38 39
BRANCH 38 47
ATOM     47  CB  GLU B   6       1.457  30.718  64.778  1.00 42.54 LIG 0.04  C 
BRANCH 47 48
ATOM     48  CG  GLU B   6       2.970  30.357  64.972  1.00 48.04 LIG 0.12  C 
BRANCH 48 49
ATOM     49  CD  GLU B   6       3.467  30.321  66.426  1.00 53.57 LIG 0.17  C 
ATOM     50 OE2  GLU B   6       2.696  30.815  67.310  1.00 60.38 LIG-0.65  OA
ATOM     51 OE1  GLU B   6       4.572  29.791  66.721  1.00 57.14 LIG-0.65  OA
ENDBRANCH 48 49
ENDBRANCH 47 48
ENDBRANCH 38 47
ENDBRANCH 36 38
ENDBRANCH 33 34
BRANCH 33 52
ATOM     52  CB  PHE B   5      -1.476  34.847  62.822  1.00 32.62 LIG 0.07  C 
BRANCH 52 53
ATOM     53  CG  PHE B   5      -2.625  35.633  62.262  1.00 30.35 LIG-0.06  A 
ATOM     54  CD1 PHE B   5      -3.737  35.008  61.750  1.00 31.18 LIG 0.01  A 
ATOM     55  CE1 PHE B   5      -4.783  35.752  61.214  1.00 30.23 LIG 0.00  A 
ATOM     56  CZ  PHE B   5      -4.734  37.160  61.189  1.00 31.30 LIG 0.00  A 
ATOM     57  CE2 PHE B   5      -3.586  37.797  61.663  1.00 30.12 LIG 0.00  A 
ATOM     58  CD2 PHE B   5      -2.553  37.028  62.194  1.00 31.88 LIG 0.01  A 
ENDBRANCH 52 53
ENDBRANCH 33 52
ENDBRANCH 3 33
TORSDOF 20
ENDMDL
MODEL 14
USER: ADFR SOLUTION from run 100
USER: SCORE 17.625061 LL:  -4.289 LR: -15.937 RR:   0.000 FEB:  -9.971
USER: RMSD 7.016422
USER: SEED 99
USER: STATUS no improvement in best in 6 clusters for 5 generations
USER: GENES 22
USER: genes 0 Translation |==|  0.50028 0.58916 0.62493
USER: genes 1 Rotation |==|  0.62777 0.55097 0.37459 0.96406
USER: genes 2 Torsion [N]-C--CA-[N] |==|  0.37555
USER: genes 3 Torsion [C]-CA--CB-[CG] |==|  0.65074
USER: genes 4 Torsion [CA]-CB--CG-[CD2] |==|  0.68308
USER: genes 5 Torsion [C]-CA--N-[C] |==|  0.82273
USER: genes 6 Torsion [N]-C--CA-[N] |==|  0.42336
USER: genes 7 Torsion [C]-CA--N-[C] |==|  0.61881
USER: genes 8 Torsion [N]-C--CA-[N] |==|  0.23120
USER: genes 9 Torsion [C]-CA--CB-[CG] |==|  0.13360
USER: genes 10 Torsion [CA]-CB--CG-[CD1] |==|  0.72247
USER: genes 11 Torsion [C]-N--CA-[CB] |==|  0.41668
USER: genes 12 Torsion [N]-CA--C-[N] |==|  0.36691
USER: genes 13 Torsion [C]-N--CA-[C] |==|  0.20734
USER: genes 14 Torsion [N]-CA--C-[N] |==|  0.39444
USER: genes 15 Torsion [C]-N--CA-[C] |==|  0.22888
USER: genes 16 Torsion [N]-CA--C-[O] |==|  0.53693
USER: genes 17 Torsion [N]-CA--CB-[CG] |==|  0.70984
USER: genes 18 Torsion [CA]-CB--CG-[CD] |==|  0.74111
USER: genes 19 Torsion [CB]-CG--CD-[OE2] |==|  0.94704
USER: genes 20 Torsion [N]-CA--CB-[CG] |==|  0.60136
USER: genes 21 Torsion [CA]-CB--CG-[CD2] |==|  0.23937
ROOT
ATOM      1  C   LEU B   4      -2.922  37.347  70.657  1.00 29.18 LIG 0.24  C 
ATOM      2 O    LEU B   4      -2.115  38.223  70.337  1.00 28.54 LIG-0.27  OA
ATOM      3  N   PHE B   5      -3.529  36.562  69.768  1.00 29.99 LIG-0.35  N 
ATOM      4 H    PHE B   5      -4.176  36.029  69.957  1.00 29.99 LIG 0.16  HD
ENDROOT
BRANCH 1 5
ATOM      5  CA  LEU B   4      -3.281  37.149  72.144  1.00 28.82 LIG 0.18  C 
BRANCH 5 6
ATOM      6  CB  LEU B   4      -4.290  38.185  72.578  1.00 28.29 LIG 0.04  C 
BRANCH 6 7
ATOM      7  CG  LEU B   4      -3.871  39.005  73.813  1.00 28.88 LIG-0.02  C 
ATOM      8  CD2 LEU B   4      -4.816  38.678  74.956  1.00 30.37 LIG 0.01  C 
ATOM      9  CD1 LEU B   4      -3.825  40.535  73.569  1.00 31.50 LIG 0.01  C 
ENDBRANCH 6 7
ENDBRANCH 5 6
BRANCH 5 10
ATOM     10  N   LEU B   4      -2.117  37.137  73.025  1.00 28.20 LIG-0.35  N 
ATOM     11  C   TRP B   3      -1.199  36.196  72.927  1.00 29.51 LIG 0.24  C 
ATOM     12 O    TRP B   3      -1.249  35.320  72.069  1.00 30.32 LIG-0.27  OA
ATOM     13 H    LEU B   4      -2.090  37.782  73.593  1.00 28.20 LIG 0.16  HD
BRANCH 11 14
ATOM     14  CA  TRP B   3      -0.074  36.220  73.973  1.00 31.78 LIG 0.18  C 
BRANCH 14 15
ATOM     15  N   TRP B   3       0.453  34.850  74.178  1.00 33.85 LIG-0.35  N 
ATOM     16  C   ALA B   2       0.700  34.459  75.442  1.00 37.00 LIG 0.26  C 
ATOM     17 O    ALA B   2       0.545  35.255  76.408  1.00 38.56 LIG-0.27  OA
ATOM     18 H    TRP B   3       0.572  34.378  73.469  1.00 33.85 LIG 0.16  HD
BRANCH 16 19
ATOM     19  CA  ALA B   2       1.170  33.059  75.728  1.00 38.11 LIG 0.40  C 
ATOM     20  CB  ALA B   2       0.621  32.603  77.152  1.00 38.97 LIG 0.06  C 
ATOM     21  N   ALA B   2       2.643  32.740  75.592  1.00 37.81 LIG 0.61  N 
ENDBRANCH 16 19
ENDBRANCH 14 15
BRANCH 14 22
ATOM     22  CB  TRP B   3       1.016  37.216  73.520  1.00 31.58 LIG 0.07  C 
BRANCH 22 23
ATOM     23  CG  TRP B   3       0.469  38.496  73.107  1.00 30.60 LIG-0.03  A 
ATOM     24  CD1 TRP B   3       0.247  38.917  71.847  1.00 31.03 LIG 0.10  A 
ATOM     25  NE1 TRP B   3      -0.226  40.209  71.858  1.00 29.84 LIG-0.36  N 
ATOM     26 HE1  TRP B   3      -0.432  40.674  71.165  1.00 29.84 LIG 0.17  HD
ATOM     27  CE2 TRP B   3      -0.314  40.628  73.155  1.00 27.79 LIG 0.04  A 
ATOM     28  CD2 TRP B   3       0.110  39.574  73.963  1.00 28.46 LIG-0.00  A 
ATOM     29  CZ2 TRP B   3      -0.742  41.841  73.672  1.00 27.89 LIG 0.03  A 
ATOM     30  CE3 TRP B   3       0.132  39.749  75.335  1.00 31.78 LIG 0.01  A 
ATOM     31  CZ3 TRP B   3      -0.314  40.938  75.855  1.00 30.70 LIG 0.00  A 
ATOM     32  CH2 TRP B   3      -0.720  41.983  75.016  1.00 27.16 LIG 0.00  A 
ENDBRANCH 22 23
ENDBRANCH 14 22
ENDBRANCH 11 14
ENDBRANCH 5 10
ENDBRANCH 1 5
BRANCH 3 33
ATOM     33  CA  PHE B   5      -3.117  36.553  68.348  1.00 32.14 LIG 0.18  C 
BRANCH 33 34
ATOM     34  C   PHE B   5      -3.828  37.580  67.490  1.00 34.99 LIG 0.24  C 
ATOM     35 O    PHE B   5      -5.053  37.707  67.593  1.00 34.76 LIG-0.27  OA
ATOM     36  N   GLU B   6      -3.053  38.329  66.690  1.00 37.97 LIG-0.35  N 
ATOM     37 H    GLU B   6      -2.217  38.457  66.845  1.00 37.97 LIG 0.16  HD
BRANCH 36 38
ATOM     38  CA  GLU B   6      -3.530  39.016  65.464  1.00 41.44 LIG 0.18  C 
BRANCH 38 39
ATOM     39  C   GLU B   6      -4.352  40.236  65.944  1.00 42.63 LIG 0.24  C 
ATOM     40  N   ALA B   7      -4.235  41.359  65.234  1.00 44.72 LIG-0.35  N 
ATOM     41 H    ALA B   7      -3.855  41.419  64.464  1.00 44.72 LIG 0.16  HD
ATOM     42 O    GLU B   6      -5.029  40.199  66.992  1.00 39.57 LIG-0.27  OA
BRANCH 40 43
ATOM     43  CA  ALA B   7      -4.796  42.649  65.783  1.00 46.42 LIG 0.16  C 
ATOM     44  CB  ALA B   7      -6.198  42.430  66.393  1.00 46.36 LIG 0.04  C 
BRANCH 43 45
ATOM     45  C   ALA B   7      -3.851  43.316  66.765  1.00 46.87 LIG 0.22  C 
ATOM     46 O    ALA B   7      -4.275  44.233  67.471  1.00 48.90 LIG-0.29  OA
ENDBRANCH 43 45
ENDBRANCH 40 43
ENDBRANCH 38 39
BRANCH 38 47
ATOM     47  CB  GLU B   6      -4.379  38.105  64.571  1.00 42.54 LIG 0.04  C 
BRANCH 47 48
ATOM     48  CG  GLU B   6      -3.599  37.608  63.306  1.00 48.04 LIG 0.12  C 
BRANCH 48 49
ATOM     49  CD  GLU B   6      -3.771  38.460  62.037  1.00 53.57 LIG 0.17  C 
ATOM     50 OE2  GLU B   6      -4.778  39.238  61.999  1.00 60.38 LIG-0.65  OA
ATOM     51 OE1  GLU B   6      -2.927  38.409  61.103  1.00 57.14 LIG-0.65  OA
ENDBRANCH 48 49
ENDBRANCH 47 48
ENDBRANCH 38 47
ENDBRANCH 36 38
ENDBRANCH 33 34
BRANCH 33 52
ATOM     52  CB  PHE B   5      -3.357  35.179  67.694  1.00 32.62 LIG 0.07  C 
BRANCH 52 53
ATOM     53  CG  PHE B   5      -2.311  34.771  66.698  1.00 30.35 LIG-0.06  A 
ATOM     54  CD1 PHE B   5      -2.492  34.970  65.349  1.00 31.18 LIG 0.01  A 
ATOM     55  CE1 PHE B   5      -1.521  34.566  64.439  1.00 30.23 LIG 0.00  A 
ATOM     56  CZ  PHE B   5      -0.330  33.953  64.873  1.00 31.30 LIG 0.00  A 
ATOM     57  CE2 PHE B   5      -0.163  33.705  66.236  1.00 30.12 LIG 0.00  A 
ATOM     58  CD2 PHE B   5      -1.151  34.120  67.127  1.00 31.88 LIG 0.01  A 
ENDBRANCH 52 53
ENDBRANCH 33 52
ENDBRANCH 3 33
TORSDOF 20
ENDMDL
MODEL 15
USER: ADFR SOLUTION from run 75
USER: SCORE 19.596893 LL:  -4.989 LR: -15.810 RR:   0.000 FEB:  -9.844
USER: RMSD 10.288142
USER: SEED 74
USER: STATUS no improvement in best in 1 clusters for 5 generations
USER: GENES 22
USER: genes 0 Translation |==|  0.59079 0.57012 0.61491
USER: genes 1 Rotation |==|  0.36023 0.04949 0.63404 0.59769
USER: genes 2 Torsion [N]-C--CA-[N] |==|  0.87301
USER: genes 3 Torsion [C]-CA--CB-[CG] |==|  0.59638
USER: genes 4 Torsion [CA]-CB--CG-[CD2] |==|  0.64760
USER: genes 5 Torsion [C]-CA--N-[C] |==|  0.75881
USER: genes 6 Torsion [N]-C--CA-[N] |==|  0.80633
USER: genes 7 Torsion [C]-CA--N-[C] |==|  0.20797
USER: genes 8 Torsion [N]-C--CA-[N] |==|  0.21559
USER: genes 9 Torsion [C]-CA--CB-[CG] |==|  0.34923
USER: genes 10 Torsion [CA]-CB--CG-[CD1] |==|  0.70705
USER: genes 11 Torsion [C]-N--CA-[CB] |==|  0.81387
USER: genes 12 Torsion [N]-CA--C-[N] |==|  0.42734
USER: genes 13 Torsion [C]-N--CA-[C] |==|  0.75556
USER: genes 14 Torsion [N]-CA--C-[N] |==|  0.21625
USER: genes 15 Torsion [C]-N--CA-[C] |==|  0.58270
USER: genes 16 Torsion [N]-CA--C-[O] |==|  0.96100
USER: genes 17 Torsion [N]-CA--CB-[CG] |==|  0.68129
USER: genes 18 Torsion [CA]-CB--CG-[CD] |==|  0.83516
USER: genes 19 Torsion [CB]-CG--CD-[OE2] |==|  0.93331
USER: genes 20 Torsion [N]-CA--CB-[CG] |==|  0.93727
USER: genes 21 Torsion [CA]-CB--CG-[CD2] |==|  0.81091
ROOT
ATOM      1  C   LEU B   4      -1.158  36.975  70.432  1.00 29.18 LIG 0.24  C 
ATOM      2 O    LEU B   4      -0.771  38.145  70.498  1.00 28.54 LIG-0.27  OA
ATOM      3  N   PHE B   5      -1.544  36.280  71.499  1.00 29.99 LIG-0.35  N 
ATOM      4 H    PHE B   5      -1.704  35.435  71.493  1.00 29.99 LIG 0.16  HD
ENDROOT
BRANCH 1 5
ATOM      5  CA  LEU B   4      -1.180  36.257  69.067  1.00 28.82 LIG 0.18  C 
BRANCH 5 6
ATOM      6  CB  LEU B   4      -2.586  36.231  68.516  1.00 28.29 LIG 0.04  C 
BRANCH 6 7
ATOM      7  CG  LEU B   4      -2.934  34.959  67.719  1.00 28.88 LIG-0.02  C 
ATOM      8  CD2 LEU B   4      -3.469  35.371  66.358  1.00 30.37 LIG 0.01  C 
ATOM      9  CD1 LEU B   4      -3.940  34.022  68.435  1.00 31.50 LIG 0.01  C 
ENDBRANCH 6 7
ENDBRANCH 5 6
BRANCH 5 10
ATOM     10  N   LEU B   4      -0.597  34.920  69.105  1.00 28.20 LIG-0.35  N 
ATOM     11  C   TRP B   3       0.698  34.736  68.940  1.00 29.51 LIG 0.24  C 
ATOM     12 O    TRP B   3       1.478  35.672  68.797  1.00 30.32 LIG-0.27  OA
ATOM     13 H    LEU B   4      -1.163  34.286  69.242  1.00 28.20 LIG 0.16  HD
BRANCH 11 14
ATOM     14  CA  TRP B   3       1.186  33.280  68.893  1.00 31.78 LIG 0.18  C 
BRANCH 14 15
ATOM     15  N   TRP B   3       1.060  32.663  70.234  1.00 33.85 LIG-0.35  N 
ATOM     16  C   ALA B   2      -0.174  32.321  70.649  1.00 37.00 LIG 0.26  C 
ATOM     17 O    ALA B   2      -1.188  32.575  69.944  1.00 38.56 LIG-0.27  OA
ATOM     18 H    TRP B   3       1.791  32.557  70.675  1.00 33.85 LIG 0.16  HD
BRANCH 16 19
ATOM     19  CA  ALA B   2      -0.368  31.627  71.970  1.00 38.11 LIG 0.40  C 
ATOM     20  CB  ALA B   2      -1.708  30.767  71.919  1.00 38.97 LIG 0.06  C 
ATOM     21  N   ALA B   2      -0.303  32.445  73.242  1.00 37.81 LIG 0.61  N 
ENDBRANCH 16 19
ENDBRANCH 14 15
BRANCH 14 22
ATOM     22  CB  TRP B   3       0.395  32.516  67.809  1.00 31.58 LIG 0.07  C 
BRANCH 22 23
ATOM     23  CG  TRP B   3       1.258  31.863  66.839  1.00 30.60 LIG-0.03  A 
ATOM     24  CD1 TRP B   3       1.494  32.249  65.571  1.00 31.03 LIG 0.10  A 
ATOM     25  NE1 TRP B   3       2.322  31.343  64.950  1.00 29.84 LIG-0.36  N 
ATOM     26 HE1  TRP B   3       2.600  31.392  64.138  1.00 29.84 LIG 0.17  HD
ATOM     27  CE2 TRP B   3       2.628  30.353  65.840  1.00 27.79 LIG 0.04  A 
ATOM     28  CD2 TRP B   3       1.979  30.654  67.037  1.00 28.46 LIG-0.00  A 
ATOM     29  CZ2 TRP B   3       3.430  29.233  65.684  1.00 27.89 LIG 0.03  A 
ATOM     30  CE3 TRP B   3       2.116  29.788  68.107  1.00 31.78 LIG 0.01  A 
ATOM     31  CZ3 TRP B   3       2.928  28.691  67.969  1.00 30.70 LIG 0.00  A 
ATOM     32  CH2 TRP B   3       3.555  28.409  66.748  1.00 27.16 LIG 0.00  A 
ENDBRANCH 22 23
ENDBRANCH 14 22
ENDBRANCH 11 14
ENDBRANCH 5 10
ENDBRANCH 1 5
BRANCH 3 33
ATOM     33  CA  PHE B   5      -1.730  36.933  72.812  1.00 32.14 LIG 0.18  C 
BRANCH 33 34
ATOM     34  C   PHE B   5      -2.673  38.119  72.786  1.00 34.99 LIG 0.24  C 
ATOM     35 O    PHE B   5      -2.848  38.726  71.724  1.00 34.76 LIG-0.27  OA
ATOM     36  N   GLU B   6      -3.301  38.409  73.936  1.00 37.97 LIG-0.35  N 
ATOM     37 H    GLU B   6      -3.420  37.826  74.557  1.00 37.97 LIG 0.16  HD
BRANCH 36 38
ATOM     38  CA  GLU B   6      -3.857  39.742  74.277  1.00 41.44 LIG 0.18  C 
BRANCH 38 39
ATOM     39  C   GLU B   6      -2.706  40.534  74.942  1.00 42.63 LIG 0.24  C 
ATOM     40  N   ALA B   7      -1.780  41.047  74.130  1.00 44.72 LIG-0.35  N 
ATOM     41 H    ALA B   7      -1.844  41.093  73.274  1.00 44.72 LIG 0.16  HD
ATOM     42 O    GLU B   6      -2.601  40.620  76.182  1.00 39.57 LIG-0.27  OA
BRANCH 40 43
ATOM     43  CA  ALA B   7      -0.504  41.604  74.715  1.00 46.42 LIG 0.16  C 
ATOM     44  CB  ALA B   7       0.530  40.483  74.961  1.00 46.36 LIG 0.04  C 
BRANCH 43 45
ATOM     45  C   ALA B   7       0.072  42.729  73.873  1.00 46.87 LIG 0.22  C 
ATOM     46 O    ALA B   7      -0.357  42.896  72.729  1.00 48.90 LIG-0.29  OA
ENDBRANCH 43 45
ENDBRANCH 40 43
ENDBRANCH 38 39
BRANCH 38 47
ATOM     47  CB  GLU B   6      -5.068  39.654  75.212  1.00 42.54 LIG 0.04  C 
BRANCH 47 48
ATOM     48  CG  GLU B   6      -6.388  40.155  74.534  1.00 48.04 LIG 0.12  C 
BRANCH 48 49
ATOM     49  CD  GLU B   6      -6.375  41.611  74.040  1.00 53.57 LIG 0.17  C 
ATOM     50 OE2  GLU B   6      -5.552  42.402  74.604  1.00 60.38 LIG-0.65  OA
ATOM     51 OE1  GLU B   6      -7.122  41.983  73.096  1.00 57.14 LIG-0.65  OA
ENDBRANCH 48 49
ENDBRANCH 47 48
ENDBRANCH 38 47
ENDBRANCH 36 38
ENDBRANCH 33 34
BRANCH 33 52
ATOM     52  CB  PHE B   5      -0.395  37.435  73.395  1.00 32.62 LIG 0.07  C 
BRANCH 52 53
ATOM     53  CG  PHE B   5       0.821  36.742  72.854  1.00 30.35 LIG-0.06  A 
ATOM     54  CD1 PHE B   5       1.692  37.384  72.006  1.00 31.18 LIG 0.01  A 
ATOM     55  CE1 PHE B   5       2.803  36.718  71.497  1.00 30.23 LIG 0.00  A 
ATOM     56  CZ  PHE B   5       3.067  35.378  71.842  1.00 31.30 LIG 0.00  A 
ATOM     57  CE2 PHE B   5       2.160  34.708  72.664  1.00 30.12 LIG 0.00  A 
ATOM     58  CD2 PHE B   5       1.055  35.398  73.160  1.00 31.88 LIG 0.01  A 
ENDBRANCH 52 53
ENDBRANCH 33 52
ENDBRANCH 3 33
TORSDOF 20
ENDMDL
MODEL 16
USER: ADFR SOLUTION from run 63
USER: SCORE 18.619888 LL:  -4.440 LR: -15.805 RR:   0.000 FEB:  -9.839
USER: RMSD 5.204871
USER: SEED 62
USER: STATUS no improvement in best in 9 clusters for 5 generations
USER: GENES 22
USER: genes 0 Translation |==|  0.52865 0.52611 0.53743
USER: genes 1 Rotation |==|  0.47039 0.37893 0.01580 0.50337
USER: genes 2 Torsion [N]-C--CA-[N] |==|  0.31042
USER: genes 3 Torsion [C]-CA--CB-[CG] |==|  0.34295
USER: genes 4 Torsion [CA]-CB--CG-[CD2] |==|  0.46175
USER: genes 5 Torsion [C]-CA--N-[C] |==|  0.69900
USER: genes 6 Torsion [N]-C--CA-[N] |==|  0.87031
USER: genes 7 Torsion [C]-CA--N-[C] |==|  0.80000
USER: genes 8 Torsion [N]-C--CA-[N] |==|  0.90415
USER: genes 9 Torsion [C]-CA--CB-[CG] |==|  0.14695
USER: genes 10 Torsion [CA]-CB--CG-[CD1] |==|  0.65750
USER: genes 11 Torsion [C]-N--CA-[CB] |==|  0.53027
USER: genes 12 Torsion [N]-CA--C-[N] |==|  0.89224
USER: genes 13 Torsion [C]-N--CA-[C] |==|  0.58473
USER: genes 14 Torsion [N]-CA--C-[N] |==|  0.43233
USER: genes 15 Torsion [C]-N--CA-[C] |==|  0.58122
USER: genes 16 Torsion [N]-CA--C-[O] |==|  0.39149
USER: genes 17 Torsion [N]-CA--CB-[CG] |==|  0.36479
USER: genes 18 Torsion [CA]-CB--CG-[CD] |==|  0.73434
USER: genes 19 Torsion [CB]-CG--CD-[OE2] |==|  0.26896
USER: genes 20 Torsion [N]-CA--CB-[CG] |==|  0.76300
USER: genes 21 Torsion [CA]-CB--CG-[CD2] |==|  0.36765
ROOT
ATOM      1  C   LEU B   4      -2.369  36.117  68.688  1.00 29.18 LIG 0.24  C 
ATOM      2 O    LEU B   4      -2.831  34.979  68.578  1.00 28.54 LIG-0.27  OA
ATOM      3  N   PHE B   5      -2.553  37.064  67.771  1.00 29.99 LIG-0.35  N 
ATOM      4 H    PHE B   5      -2.146  37.822  67.770  1.00 29.99 LIG 0.16  HD
ENDROOT
BRANCH 1 5
ATOM      5  CA  LEU B   4      -1.516  36.475  69.922  1.00 28.82 LIG 0.18  C 
BRANCH 5 6
ATOM      6  CB  LEU B   4      -0.348  35.526  70.040  1.00 28.29 LIG 0.04  C 
BRANCH 6 7
ATOM      7  CG  LEU B   4       1.031  36.212  70.069  1.00 28.88 LIG-0.02  C 
ATOM      8  CD2 LEU B   4       2.067  35.200  70.527  1.00 30.37 LIG 0.01  C 
ATOM      9  CD1 LEU B   4       1.085  37.482  70.956  1.00 31.50 LIG 0.01  C 
ENDBRANCH 6 7
ENDBRANCH 5 6
BRANCH 5 10
ATOM     10  N   LEU B   4      -2.284  36.532  71.162  1.00 28.20 LIG-0.35  N 
ATOM     11  C   TRP B   3      -2.541  37.683  71.751  1.00 29.51 LIG 0.24  C 
ATOM     12 O    TRP B   3      -2.196  38.756  71.269  1.00 30.32 LIG-0.27  OA
ATOM     13 H    LEU B   4      -2.543  35.767  71.459  1.00 28.20 LIG 0.16  HD
BRANCH 11 14
ATOM     14  CA  TRP B   3      -3.264  37.616  73.106  1.00 31.78 LIG 0.18  C 
BRANCH 14 15
ATOM     15  N   TRP B   3      -4.413  36.684  73.018  1.00 33.85 LIG-0.35  N 
ATOM     16  C   ALA B   2      -5.486  37.082  72.311  1.00 37.00 LIG 0.26  C 
ATOM     17 O    ALA B   2      -5.532  38.233  71.796  1.00 38.56 LIG-0.27  OA
ATOM     18 H    TRP B   3      -4.326  35.933  73.429  1.00 33.85 LIG 0.16  HD
BRANCH 16 19
ATOM     19  CA  ALA B   2      -6.659  36.159  72.122  1.00 38.11 LIG 0.40  C 
ATOM     20  CB  ALA B   2      -7.742  36.448  73.254  1.00 38.97 LIG 0.06  C 
ATOM     21  N   ALA B   2      -6.406  34.673  71.987  1.00 37.81 LIG 0.61  N 
ENDBRANCH 16 19
ENDBRANCH 14 15
BRANCH 14 22
ATOM     22  CB  TRP B   3      -2.252  37.213  74.200  1.00 31.58 LIG 0.07  C 
BRANCH 22 23
ATOM     23  CG  TRP B   3      -1.072  38.061  74.213  1.00 30.60 LIG-0.03  A 
ATOM     24  CD1 TRP B   3       0.211  37.671  74.092  1.00 31.03 LIG 0.10  A 
ATOM     25  NE1 TRP B   3       1.046  38.757  74.210  1.00 29.84 LIG-0.36  N 
ATOM     26 HE1  TRP B   3       1.905  38.737  74.166  1.00 29.84 LIG 0.17  HD
ATOM     27  CE2 TRP B   3       0.283  39.872  74.407  1.00 27.79 LIG 0.04  A 
ATOM     28  CD2 TRP B   3      -1.051  39.469  74.409  1.00 28.46 LIG-0.00  A 
ATOM     29  CZ2 TRP B   3       0.665  41.195  74.571  1.00 27.89 LIG 0.03  A 
ATOM     30  CE3 TRP B   3      -2.037  40.419  74.609  1.00 31.78 LIG 0.01  A 
ATOM     31  CZ3 TRP B   3      -1.668  41.733  74.747  1.00 30.70 LIG 0.00  A 
ATOM     32  CH2 TRP B   3      -0.318  42.104  74.755  1.00 27.16 LIG 0.00  A 
ENDBRANCH 22 23
ENDBRANCH 14 22
ENDBRANCH 11 14
ENDBRANCH 5 10
ENDBRANCH 1 5
BRANCH 3 33
ATOM     33  CA  PHE B   5      -3.501  36.873  66.652  1.00 32.14 LIG 0.18  C 
BRANCH 33 34
ATOM     34  C   PHE B   5      -3.359  35.543  65.940  1.00 34.99 LIG 0.24  C 
ATOM     35 O    PHE B   5      -4.373  34.970  65.527  1.00 34.76 LIG-0.27  OA
ATOM     36  N   GLU B   6      -2.108  35.089  65.765  1.00 37.97 LIG-0.35  N 
ATOM     37 H    GLU B   6      -1.424  35.610  65.765  1.00 37.97 LIG 0.16  HD
BRANCH 36 38
ATOM     38  CA  GLU B   6      -1.754  33.663  65.555  1.00 41.44 LIG 0.18  C 
BRANCH 38 39
ATOM     39  C   GLU B   6      -0.343  33.474  66.161  1.00 42.63 LIG 0.24  C 
ATOM     40  N   ALA B   7      -0.014  32.240  66.546  1.00 44.72 LIG-0.35  N 
ATOM     41 H    ALA B   7      -0.460  31.529  66.360  1.00 44.72 LIG 0.16  HD
ATOM     42 O    GLU B   6       0.420  34.441  66.357  1.00 39.57 LIG-0.27  OA
BRANCH 40 43
ATOM     43  CA  ALA B   7       1.232  32.027  67.374  1.00 46.42 LIG 0.16  C 
ATOM     44  CB  ALA B   7       0.954  32.285  68.871  1.00 46.36 LIG 0.04  C 
BRANCH 43 45
ATOM     45  C   ALA B   7       1.849  30.659  67.142  1.00 46.87 LIG 0.22  C 
ATOM     46 O    ALA B   7       3.077  30.561  67.096  1.00 48.90 LIG-0.29  OA
ENDBRANCH 43 45
ENDBRANCH 40 43
ENDBRANCH 38 39
BRANCH 38 47
ATOM     47  CB  GLU B   6      -1.769  33.265  64.075  1.00 42.54 LIG 0.04  C 
BRANCH 47 48
ATOM     48  CG  GLU B   6      -0.476  32.490  63.649  1.00 48.04 LIG 0.12  C 
BRANCH 48 49
ATOM     49  CD  GLU B   6       0.635  33.343  63.012  1.00 53.57 LIG 0.17  C 
ATOM     50 OE2  GLU B   6       1.572  33.733  63.781  1.00 60.38 LIG-0.65  OA
ATOM     51 OE1  GLU B   6       0.625  33.605  61.780  1.00 57.14 LIG-0.65  OA
ENDBRANCH 48 49
ENDBRANCH 47 48
ENDBRANCH 38 47
ENDBRANCH 36 38
ENDBRANCH 33 34
BRANCH 33 52
ATOM     52  CB  PHE B   5      -3.349  37.972  65.582  1.00 32.62 LIG 0.07  C 
BRANCH 52 53
ATOM     53  CG  PHE B   5      -4.128  39.224  65.859  1.00 30.35 LIG-0.06  A 
ATOM     54  CD1 PHE B   5      -5.466  39.179  66.172  1.00 31.18 LIG 0.01  A 
ATOM     55  CE1 PHE B   5      -6.177  40.352  66.405  1.00 30.23 LIG 0.00  A 
ATOM     56  CZ  PHE B   5      -5.546  41.609  66.334  1.00 31.30 LIG 0.00  A 
ATOM     57  CE2 PHE B   5      -4.200  41.663  65.970  1.00 30.12 LIG 0.00  A 
ATOM     58  CD2 PHE B   5      -3.511  40.473  65.742  1.00 31.88 LIG 0.01  A 
ENDBRANCH 52 53
ENDBRANCH 33 52
ENDBRANCH 3 33
TORSDOF 20
ENDMDL
MODEL 17
USER: ADFR SOLUTION from run 10
USER: SCORE 19.849892 LL:  -5.631 LR: -15.731 RR:   0.000 FEB:  -9.765
USER: RMSD 8.184348
USER: SEED 974788
USER: STATUS no improvement in best in 1 clusters for 5 generations
USER: GENES 22
USER: genes 0 Translation |==|  0.34667 0.58594 0.67909
USER: genes 1 Rotation |==|  0.59783 0.20703 0.74628 0.80650
USER: genes 2 Torsion [N]-C--CA-[N] |==|  0.03390
USER: genes 3 Torsion [C]-CA--CB-[CG] |==|  0.89210
USER: genes 4 Torsion [CA]-CB--CG-[CD2] |==|  0.67653
USER: genes 5 Torsion [C]-CA--N-[C] |==|  0.71111
USER: genes 6 Torsion [N]-C--CA-[N] |==|  0.86834
USER: genes 7 Torsion [C]-CA--N-[C] |==|  0.70174
USER: genes 8 Torsion [N]-C--CA-[N] |==|  0.46636
USER: genes 9 Torsion [C]-CA--CB-[CG] |==|  0.07387
USER: genes 10 Torsion [CA]-CB--CG-[CD1] |==|  0.19665
USER: genes 11 Torsion [C]-N--CA-[CB] |==|  0.24148
USER: genes 12 Torsion [N]-CA--C-[N] |==|  0.38105
USER: genes 13 Torsion [C]-N--CA-[C] |==|  0.15000
USER: genes 14 Torsion [N]-CA--C-[N] |==|  0.09525
USER: genes 15 Torsion [C]-N--CA-[C] |==|  0.80584
USER: genes 16 Torsion [N]-CA--C-[O] |==|  0.70024
USER: genes 17 Torsion [N]-CA--CB-[CG] |==|  0.75671
USER: genes 18 Torsion [CA]-CB--CG-[CD] |==|  0.06893
USER: genes 19 Torsion [CB]-CG--CD-[OE2] |==|  0.69275
USER: genes 20 Torsion [N]-CA--CB-[CG] |==|  0.69821
USER: genes 21 Torsion [CA]-CB--CG-[CD2] |==|  0.49409
ROOT
ATOM      1  C   LEU B   4      -5.918  37.284  71.876  1.00 29.18 LIG 0.24  C 
ATOM      2 O    LEU B   4      -6.411  38.411  71.789  1.00 28.54 LIG-0.27  OA
ATOM      3  N   PHE B   5      -4.673  37.069  72.296  1.00 29.99 LIG-0.35  N 
ATOM      4 H    PHE B   5      -4.274  36.309  72.254  1.00 29.99 LIG 0.16  HD
ENDROOT
BRANCH 1 5
ATOM      5  CA  LEU B   4      -6.752  36.055  71.459  1.00 28.82 LIG 0.18  C 
BRANCH 5 6
ATOM      6  CB  LEU B   4      -8.162  36.182  71.985  1.00 28.29 LIG 0.04  C 
BRANCH 6 7
ATOM      7  CG  LEU B   4      -8.263  36.783  73.400  1.00 28.88 LIG-0.02  C 
ATOM      8  CD2 LEU B   4      -8.849  35.736  74.332  1.00 30.37 LIG 0.01  C 
ATOM      9  CD1 LEU B   4      -9.086  38.094  73.471  1.00 31.50 LIG 0.01  C 
ENDBRANCH 6 7
ENDBRANCH 5 6
BRANCH 5 10
ATOM     10  N   LEU B   4      -6.149  34.785  71.851  1.00 28.20 LIG-0.35  N 
ATOM     11  C   TRP B   3      -5.543  34.019  70.967  1.00 29.51 LIG 0.24  C 
ATOM     12 O    TRP B   3      -5.410  34.351  69.794  1.00 30.32 LIG-0.27  OA
ATOM     13 H    LEU B   4      -6.226  34.593  72.686  1.00 28.20 LIG 0.16  HD
BRANCH 11 14
ATOM     14  CA  TRP B   3      -5.039  32.655  71.468  1.00 31.78 LIG 0.18  C 
BRANCH 14 15
ATOM     15  N   TRP B   3      -4.305  32.828  72.743  1.00 33.85 LIG-0.35  N 
ATOM     16  C   ALA B   2      -2.965  32.696  72.715  1.00 37.00 LIG 0.26  C 
ATOM     17 O    ALA B   2      -2.369  32.376  71.650  1.00 38.56 LIG-0.27  OA
ATOM     18 H    TRP B   3      -4.782  33.004  73.437  1.00 33.85 LIG 0.16  HD
BRANCH 16 19
ATOM     19  CA  ALA B   2      -2.150  32.927  73.958  1.00 38.11 LIG 0.40  C 
ATOM     20  CB  ALA B   2      -2.302  34.446  74.410  1.00 38.97 LIG 0.06  C 
ATOM     21  N   ALA B   2      -0.696  32.505  73.967  1.00 37.81 LIG 0.61  N 
ENDBRANCH 16 19
ENDBRANCH 14 15
BRANCH 14 22
ATOM     22  CB  TRP B   3      -6.237  31.690  71.596  1.00 31.58 LIG 0.07  C 
BRANCH 22 23
ATOM     23  CG  TRP B   3      -7.327  32.027  70.697  1.00 30.60 LIG-0.03  A 
ATOM     24  CD1 TRP B   3      -7.348  31.892  69.357  1.00 31.03 LIG 0.10  A 
ATOM     25  NE1 TRP B   3      -8.535  32.372  68.854  1.00 29.84 LIG-0.36  N 
ATOM     26 HE1  TRP B   3      -8.759  32.386  68.024  1.00 29.84 LIG 0.17  HD
ATOM     27  CE2 TRP B   3      -9.297  32.822  69.894  1.00 27.79 LIG 0.04  A 
ATOM     28  CD2 TRP B   3      -8.569  32.614  71.065  1.00 28.46 LIG-0.00  A 
ATOM     29  CZ2 TRP B   3     -10.567  33.380  69.892  1.00 27.89 LIG 0.03  A 
ATOM     30  CE3 TRP B   3      -9.119  33.004  72.273  1.00 31.78 LIG 0.01  A 
ATOM     31  CZ3 TRP B   3     -10.385  33.534  72.281  1.00 30.70 LIG 0.00  A 
ATOM     32  CH2 TRP B   3     -11.085  33.743  71.086  1.00 27.16 LIG 0.00  A 
ENDBRANCH 22 23
ENDBRANCH 14 22
ENDBRANCH 11 14
ENDBRANCH 5 10
ENDBRANCH 1 5
BRANCH 3 33
ATOM     33  CA  PHE B   5      -3.865  38.158  72.886  1.00 32.14 LIG 0.18  C 
BRANCH 33 34
ATOM     34  C   PHE B   5      -2.371  37.995  72.692  1.00 34.99 LIG 0.24  C 
ATOM     35 O    PHE B   5      -1.866  36.873  72.815  1.00 34.76 LIG-0.27  OA
ATOM     36  N   GLU B   6      -1.690  39.099  72.349  1.00 37.97 LIG-0.35  N 
ATOM     37 H    GLU B   6      -2.064  39.773  71.968  1.00 37.97 LIG 0.16  HD
BRANCH 36 38
ATOM     38  CA  GLU B   6      -0.236  39.292  72.576  1.00 41.44 LIG 0.18  C 
BRANCH 38 39
ATOM     39  C   GLU B   6       0.469  38.078  71.927  1.00 42.63 LIG 0.24  C 
ATOM     40  N   ALA B   7      -0.083  37.582  70.819  1.00 44.72 LIG-0.35  N 
ATOM     41 H    ALA B   7      -0.707  37.961  70.365  1.00 44.72 LIG 0.16  HD
ATOM     42 O    GLU B   6       1.459  37.534  72.458  1.00 39.57 LIG-0.27  OA
BRANCH 40 43
ATOM     43  CA  ALA B   7       0.393  36.253  70.280  1.00 46.42 LIG 0.16  C 
ATOM     44  CB  ALA B   7      -0.611  35.676  69.258  1.00 46.36 LIG 0.04  C 
BRANCH 43 45
ATOM     45  C   ALA B   7       1.797  36.334  69.708  1.00 46.87 LIG 0.22  C 
ATOM     46 O    ALA B   7       1.946  36.278  68.486  1.00 48.90 LIG-0.29  OA
ENDBRANCH 43 45
ENDBRANCH 40 43
ENDBRANCH 38 39
BRANCH 38 47
ATOM     47  CB  GLU B   6       0.119  39.397  74.063  1.00 42.54 LIG 0.04  C 
BRANCH 47 48
ATOM     48  CG  GLU B   6       0.017  40.864  74.604  1.00 48.04 LIG 0.12  C 
BRANCH 48 49
ATOM     49  CD  GLU B   6      -0.932  41.796  73.833  1.00 53.57 LIG 0.17  C 
ATOM     50 OE2  GLU B   6      -0.396  42.733  73.158  1.00 60.38 LIG-0.65  OA
ATOM     51 OE1  GLU B   6      -2.178  41.608  73.846  1.00 57.14 LIG-0.65  OA
ENDBRANCH 48 49
ENDBRANCH 47 48
ENDBRANCH 38 47
ENDBRANCH 36 38
ENDBRANCH 33 34
BRANCH 33 52
ATOM     52  CB  PHE B   5      -4.108  38.293  74.401  1.00 32.62 LIG 0.07  C 
BRANCH 52 53
ATOM     53  CG  PHE B   5      -4.882  39.514  74.802  1.00 30.35 LIG-0.06  A 
ATOM     54  CD1 PHE B   5      -5.234  40.472  73.881  1.00 31.18 LIG 0.01  A 
ATOM     55  CE1 PHE B   5      -5.933  41.608  74.275  1.00 30.23 LIG 0.00  A 
ATOM     56  CZ  PHE B   5      -6.303  41.803  75.620  1.00 31.30 LIG 0.00  A 
ATOM     57  CE2 PHE B   5      -5.906  40.858  76.566  1.00 30.12 LIG 0.00  A 
ATOM     58  CD2 PHE B   5      -5.207  39.728  76.145  1.00 31.88 LIG 0.01  A 
ENDBRANCH 52 53
ENDBRANCH 33 52
ENDBRANCH 3 33
TORSDOF 20
ENDMDL
MODEL 18
USER: ADFR SOLUTION from run 93
USER: SCORE 19.273300 LL:  -5.397 LR: -15.723 RR:   0.000 FEB:  -9.757
USER: RMSD 6.073715
USER: SEED 92
USER: STATUS no improvement in best in 13 clusters for 5 generations
USER: GENES 22
USER: genes 0 Translation |==|  0.49883 0.57704 0.54262
USER: genes 1 Rotation |==|  0.60704 0.65443 0.92797 0.67758
USER: genes 2 Torsion [N]-C--CA-[N] |==|  0.37091
USER: genes 3 Torsion [C]-CA--CB-[CG] |==|  0.42215
USER: genes 4 Torsion [CA]-CB--CG-[CD2] |==|  0.79664
USER: genes 5 Torsion [C]-CA--N-[C] |==|  0.70721
USER: genes 6 Torsion [N]-C--CA-[N] |==|  0.97413
USER: genes 7 Torsion [C]-CA--N-[C] |==|  0.80317
USER: genes 8 Torsion [N]-C--CA-[N] |==|  0.84731
USER: genes 9 Torsion [C]-CA--CB-[CG] |==|  0.82162
USER: genes 10 Torsion [CA]-CB--CG-[CD1] |==|  0.77214
USER: genes 11 Torsion [C]-N--CA-[CB] |==|  0.41990
USER: genes 12 Torsion [N]-CA--C-[N] |==|  0.91886
USER: genes 13 Torsion [C]-N--CA-[C] |==|  0.61839
USER: genes 14 Torsion [N]-CA--C-[N] |==|  0.98558
USER: genes 15 Torsion [C]-N--CA-[C] |==|  0.15996
USER: genes 16 Torsion [N]-CA--C-[O] |==|  0.07397
USER: genes 17 Torsion [N]-CA--CB-[CG] |==|  0.88027
USER: genes 18 Torsion [CA]-CB--CG-[CD] |==|  0.33955
USER: genes 19 Torsion [CB]-CG--CD-[OE2] |==|  0.62810
USER: genes 20 Torsion [N]-CA--CB-[CG] |==|  0.67262
USER: genes 21 Torsion [CA]-CB--CG-[CD2] |==|  0.41535
ROOT
ATOM      1  C   LEU B   4      -2.951  37.110  68.805  1.00 29.18 LIG 0.24  C 
ATOM      2 O    LEU B   4      -4.076  36.650  69.014  1.00 28.54 LIG-0.27  OA
ATOM      3  N   PHE B   5      -2.626  37.742  67.679  1.00 29.99 LIG-0.35  N 
ATOM      4 H    PHE B   5      -1.823  37.966  67.466  1.00 29.99 LIG 0.16  HD
ENDROOT
BRANCH 1 5
ATOM      5  CA  LEU B   4      -1.848  36.936  69.869  1.00 28.82 LIG 0.18  C 
BRANCH 5 6
ATOM      6  CB  LEU B   4      -1.285  35.536  69.809  1.00 28.29 LIG 0.04  C 
BRANCH 6 7
ATOM      7  CG  LEU B   4       0.178  35.418  70.276  1.00 28.88 LIG-0.02  C 
ATOM      8  CD2 LEU B   4       1.078  36.018  69.209  1.00 30.37 LIG 0.01  C 
ATOM      9  CD1 LEU B   4       0.621  33.969  70.605  1.00 31.50 LIG 0.01  C 
ENDBRANCH 6 7
ENDBRANCH 5 6
BRANCH 5 10
ATOM     10  N   LEU B   4      -2.285  37.277  71.219  1.00 28.20 LIG-0.35  N 
ATOM     11  C   TRP B   3      -1.901  38.399  71.795  1.00 29.51 LIG 0.24  C 
ATOM     12 O    TRP B   3      -1.206  39.227  71.217  1.00 30.32 LIG-0.27  OA
ATOM     13 H    LEU B   4      -2.800  36.695  71.588  1.00 28.20 LIG 0.16  HD
BRANCH 11 14
ATOM     14  CA  TRP B   3      -2.334  38.606  73.256  1.00 31.78 LIG 0.18  C 
BRANCH 14 15
ATOM     15  N   TRP B   3      -3.306  37.558  73.646  1.00 33.85 LIG-0.35  N 
ATOM     16  C   ALA B   2      -4.539  37.620  73.108  1.00 37.00 LIG 0.26  C 
ATOM     17 O    ALA B   2      -4.866  38.573  72.348  1.00 38.56 LIG-0.27  OA
ATOM     18 H    TRP B   3      -3.025  36.964  74.200  1.00 33.85 LIG 0.16  HD
BRANCH 16 19
ATOM     19  CA  ALA B   2      -5.555  36.551  73.405  1.00 38.11 LIG 0.40  C 
ATOM     20  CB  ALA B   2      -6.084  36.730  74.896  1.00 38.97 LIG 0.06  C 
ATOM     21  N   ALA B   2      -5.196  35.106  73.131  1.00 37.81 LIG 0.61  N 
ENDBRANCH 16 19
ENDBRANCH 14 15
BRANCH 14 22
ATOM     22  CB  TRP B   3      -1.080  38.619  74.157  1.00 31.58 LIG 0.07  C 
BRANCH 22 23
ATOM     23  CG  TRP B   3      -0.377  37.348  74.159  1.00 30.60 LIG-0.03  A 
ATOM     24  CD1 TRP B   3      -0.672  36.256  74.889  1.00 31.03 LIG 0.10  A 
ATOM     25  NE1 TRP B   3       0.258  35.269  74.658  1.00 29.84 LIG-0.36  N 
ATOM     26 HE1  TRP B   3       0.263  34.489  75.021  1.00 29.84 LIG 0.17  HD
ATOM     27  CE2 TRP B   3       1.171  35.735  73.756  1.00 27.79 LIG 0.04  A 
ATOM     28  CD2 TRP B   3       0.797  37.035  73.419  1.00 28.46 LIG-0.00  A 
ATOM     29  CZ2 TRP B   3       2.281  35.110  73.208  1.00 27.89 LIG 0.03  A 
ATOM     30  CE3 TRP B   3       1.577  37.744  72.523  1.00 31.78 LIG 0.01  A 
ATOM     31  CZ3 TRP B   3       2.662  37.124  71.958  1.00 30.70 LIG 0.00  A 
ATOM     32  CH2 TRP B   3       3.020  35.821  72.329  1.00 27.16 LIG 0.00  A 
ENDBRANCH 22 23
ENDBRANCH 14 22
ENDBRANCH 11 14
ENDBRANCH 5 10
ENDBRANCH 1 5
BRANCH 3 33
ATOM     33  CA  PHE B   5      -3.655  38.116  66.686  1.00 32.14 LIG 0.18  C 
BRANCH 33 34
ATOM     34  C   PHE B   5      -3.960  37.032  65.672  1.00 34.99 LIG 0.24  C 
ATOM     35 O    PHE B   5      -5.078  36.998  65.145  1.00 34.76 LIG-0.27  OA
ATOM     36  N   GLU B   6      -2.958  36.190  65.378  1.00 37.97 LIG-0.35  N 
ATOM     37 H    GLU B   6      -2.131  36.397  65.495  1.00 37.97 LIG 0.16  HD
BRANCH 36 38
ATOM     38  CA  GLU B   6      -3.143  34.825  64.825  1.00 41.44 LIG 0.18  C 
BRANCH 38 39
ATOM     39  C   GLU B   6      -2.152  33.912  65.586  1.00 42.63 LIG 0.24  C 
ATOM     40  N   ALA B   7      -1.316  34.507  66.437  1.00 44.72 LIG-0.35  N 
ATOM     41 H    ALA B   7      -1.375  35.325  66.698  1.00 44.72 LIG 0.16  HD
ATOM     42 O    GLU B   6      -2.080  32.688  65.355  1.00 39.57 LIG-0.27  OA
BRANCH 40 43
ATOM     43  CA  ALA B   7      -0.160  33.725  67.016  1.00 46.42 LIG 0.16  C 
ATOM     44  CB  ALA B   7      -0.660  32.629  67.982  1.00 46.36 LIG 0.04  C 
BRANCH 43 45
ATOM     45  C   ALA B   7       0.747  33.159  65.939  1.00 46.87 LIG 0.22  C 
ATOM     46 O    ALA B   7       0.808  33.732  64.849  1.00 48.90 LIG-0.29  OA
ENDBRANCH 43 45
ENDBRANCH 40 43
ENDBRANCH 38 39
BRANCH 38 47
ATOM     47  CB  GLU B   6      -2.890  34.763  63.315  1.00 42.54 LIG 0.04  C 
BRANCH 47 48
ATOM     48  CG  GLU B   6      -3.531  35.970  62.548  1.00 48.04 LIG 0.12  C 
BRANCH 48 49
ATOM     49  CD  GLU B   6      -2.559  36.829  61.723  1.00 53.57 LIG 0.17  C 
ATOM     50 OE2  GLU B   6      -2.666  38.092  61.841  1.00 60.38 LIG-0.65  OA
ATOM     51 OE1  GLU B   6      -1.679  36.296  60.996  1.00 57.14 LIG-0.65  OA
ENDBRANCH 48 49
ENDBRANCH 47 48
ENDBRANCH 38 47
ENDBRANCH 36 38
ENDBRANCH 33 34
BRANCH 33 52
ATOM     52  CB  PHE B   5      -3.250  39.372  65.890  1.00 32.62 LIG 0.07  C 
BRANCH 52 53
ATOM     53  CG  PHE B   5      -4.173  40.543  66.061  1.00 30.35 LIG-0.06  A 
ATOM     54  CD1 PHE B   5      -5.524  40.367  66.248  1.00 31.18 LIG 0.01  A 
ATOM     55  CE1 PHE B   5      -6.367  41.465  66.383  1.00 30.23 LIG 0.00  A 
ATOM     56  CZ  PHE B   5      -5.861  42.779  66.341  1.00 31.30 LIG 0.00  A 
ATOM     57  CE2 PHE B   5      -4.499  42.963  66.103  1.00 30.12 LIG 0.00  A 
ATOM     58  CD2 PHE B   5      -3.676  41.846  65.971  1.00 31.88 LIG 0.01  A 
ENDBRANCH 52 53
ENDBRANCH 33 52
ENDBRANCH 3 33
TORSDOF 20
ENDMDL
MODEL 19
USER: ADFR SOLUTION from run 84
USER: SCORE 19.080098 LL:  -4.018 LR: -15.698 RR:   0.000 FEB:  -9.732
USER: RMSD 7.783920
USER: SEED 83
USER: STATUS no improvement in best in 13 clusters for 5 generations
USER: GENES 22
USER: genes 0 Translation |==|  0.48460 0.58105 0.49617
USER: genes 1 Rotation |==|  0.59256 0.58132 0.96726 0.62839
USER: genes 2 Torsion [N]-C--CA-[N] |==|  0.31118
USER: genes 3 Torsion [C]-CA--CB-[CG] |==|  0.46325
USER: genes 4 Torsion [CA]-CB--CG-[CD2] |==|  0.72791
USER: genes 5 Torsion [C]-CA--N-[C] |==|  0.64298
USER: genes 6 Torsion [N]-C--CA-[N] |==|  0.16695
USER: genes 7 Torsion [C]-CA--N-[C] |==|  0.75603
USER: genes 8 Torsion [N]-C--CA-[N] |==|  0.60259
USER: genes 9 Torsion [C]-CA--CB-[CG] |==|  0.35775
USER: genes 10 Torsion [CA]-CB--CG-[CD1] |==|  0.55409
USER: genes 11 Torsion [C]-N--CA-[CB] |==|  0.83320
USER: genes 12 Torsion [N]-CA--C-[N] |==|  0.34592
USER: genes 13 Torsion [C]-N--CA-[C] |==|  0.83096
USER: genes 14 Torsion [N]-CA--C-[N] |==|  0.38736
USER: genes 15 Torsion [C]-N--CA-[C] |==|  0.82392
USER: genes 16 Torsion [N]-CA--C-[O] |==|  0.64840
USER: genes 17 Torsion [N]-CA--CB-[CG] |==|  0.82037
USER: genes 18 Torsion [CA]-CB--CG-[CD] |==|  0.22526
USER: genes 19 Torsion [CB]-CG--CD-[OE2] |==|  0.00472
USER: genes 20 Torsion [N]-CA--CB-[CG] |==|  0.65982
USER: genes 21 Torsion [CA]-CB--CG-[CD2] |==|  0.81615
ROOT
ATOM      1  C   LEU B   4      -3.228  37.189  67.760  1.00 29.18 LIG 0.24  C 
ATOM      2 O    LEU B   4      -4.256  36.516  67.645  1.00 28.54 LIG-0.27  OA
ATOM      3  N   PHE B   5      -2.928  38.195  66.942  1.00 29.99 LIG-0.35  N 
ATOM      4 H    PHE B   5      -2.169  38.599  66.931  1.00 29.99 LIG 0.16  HD
ENDROOT
BRANCH 1 5
ATOM      5  CA  LEU B   4      -2.219  36.851  68.877  1.00 28.82 LIG 0.18  C 
BRANCH 5 6
ATOM      6  CB  LEU B   4      -1.773  35.414  68.757  1.00 28.29 LIG 0.04  C 
BRANCH 6 7
ATOM      7  CG  LEU B   4      -0.539  35.057  69.608  1.00 28.88 LIG-0.02  C 
ATOM      8  CD2 LEU B   4       0.694  35.112  68.722  1.00 30.37 LIG 0.01  C 
ATOM      9  CD1 LEU B   4      -0.637  33.681  70.313  1.00 31.50 LIG 0.01  C 
ENDBRANCH 6 7
ENDBRANCH 5 6
BRANCH 5 10
ATOM     10  N   LEU B   4      -2.717  37.145  70.217  1.00 28.20 LIG-0.35  N 
ATOM     11  C   TRP B   3      -2.011  37.869  71.061  1.00 29.51 LIG 0.24  C 
ATOM     12 O    TRP B   3      -0.934  38.370  70.753  1.00 30.32 LIG-0.27  OA
ATOM     13 H    LEU B   4      -3.490  36.811  70.394  1.00 28.20 LIG 0.16  HD
BRANCH 11 14
ATOM     14  CA  TRP B   3      -2.582  38.025  72.480  1.00 31.78 LIG 0.18  C 
BRANCH 14 15
ATOM     15  N   TRP B   3      -2.719  36.694  73.117  1.00 33.85 LIG-0.35  N 
ATOM     16  C   ALA B   2      -3.865  36.020  72.912  1.00 37.00 LIG 0.26  C 
ATOM     17 O    ALA B   2      -4.810  36.533  72.252  1.00 38.56 LIG-0.27  OA
ATOM     18 H    TRP B   3      -2.050  36.426  73.586  1.00 33.85 LIG 0.16  HD
BRANCH 16 19
ATOM     19  CA  ALA B   2      -4.044  34.634  73.471  1.00 38.11 LIG 0.40  C 
ATOM     20  CB  ALA B   2      -2.627  34.062  73.920  1.00 38.97 LIG 0.06  C 
ATOM     21  N   ALA B   2      -4.803  33.609  72.654  1.00 37.81 LIG 0.61  N 
ENDBRANCH 16 19
ENDBRANCH 14 15
BRANCH 14 22
ATOM     22  CB  TRP B   3      -1.678  38.982  73.287  1.00 31.58 LIG 0.07  C 
BRANCH 22 23
ATOM     23  CG  TRP B   3      -2.423  40.052  73.927  1.00 30.60 LIG-0.03  A 
ATOM     24  CD1 TRP B   3      -1.938  41.223  74.381  1.00 31.03 LIG 0.10  A 
ATOM     25  NE1 TRP B   3      -2.942  41.950  74.976  1.00 29.84 LIG-0.36  N 
ATOM     26 HE1  TRP B   3      -2.854  42.727  75.335  1.00 29.84 LIG 0.17  HD
ATOM     27  CE2 TRP B   3      -4.101  41.233  74.900  1.00 27.79 LIG 0.04  A 
ATOM     28  CD2 TRP B   3      -3.810  40.039  74.242  1.00 28.46 LIG-0.00  A 
ATOM     29  CZ2 TRP B   3      -5.375  41.550  75.346  1.00 27.89 LIG 0.03  A 
ATOM     30  CE3 TRP B   3      -4.824  39.117  74.049  1.00 31.78 LIG 0.01  A 
ATOM     31  CZ3 TRP B   3      -6.092  39.434  74.466  1.00 30.70 LIG 0.00  A 
ATOM     32  CH2 TRP B   3      -6.349  40.637  75.136  1.00 27.16 LIG 0.00  A 
ENDBRANCH 22 23
ENDBRANCH 14 22
ENDBRANCH 11 14
ENDBRANCH 5 10
ENDBRANCH 1 5
BRANCH 3 33
ATOM     33  CA  PHE B   5      -3.911  38.707  65.964  1.00 32.14 LIG 0.18  C 
BRANCH 33 34
ATOM     34  C   PHE B   5      -5.173  39.266  66.589  1.00 34.99 LIG 0.24  C 
ATOM     35 O    PHE B   5      -5.813  38.568  67.384  1.00 34.76 LIG-0.27  OA
ATOM     36  N   GLU B   6      -5.493  40.528  66.262  1.00 37.97 LIG-0.35  N 
ATOM     37 H    GLU B   6      -4.911  41.094  65.979  1.00 37.97 LIG 0.16  HD
BRANCH 36 38
ATOM     38  CA  GLU B   6      -6.862  41.095  66.344  1.00 41.44 LIG 0.18  C 
BRANCH 38 39
ATOM     39  C   GLU B   6      -7.739  40.251  65.389  1.00 42.63 LIG 0.24  C 
ATOM     40  N   ALA B   7      -8.965  39.942  65.812  1.00 44.72 LIG-0.35  N 
ATOM     41 H    ALA B   7      -9.352  40.284  66.499  1.00 44.72 LIG 0.16  HD
ATOM     42 O    GLU B   6      -7.294  39.809  64.310  1.00 39.57 LIG-0.27  OA
BRANCH 40 43
ATOM     43  CA  ALA B   7      -9.776  38.915  65.056  1.00 46.42 LIG 0.16  C 
ATOM     44  CB  ALA B   7     -11.055  38.535  65.835  1.00 46.36 LIG 0.04  C 
BRANCH 43 45
ATOM     45  C   ALA B   7     -10.090  39.360  63.639  1.00 46.87 LIG 0.22  C 
ATOM     46 O    ALA B   7     -11.263  39.358  63.260  1.00 48.90 LIG-0.29  OA
ENDBRANCH 43 45
ENDBRANCH 40 43
ENDBRANCH 38 39
BRANCH 38 47
ATOM     47  CB  GLU B   6      -6.909  42.578  65.959  1.00 42.54 LIG 0.04  C 
BRANCH 47 48
ATOM     48  CG  GLU B   6      -6.105  43.483  66.953  1.00 48.04 LIG 0.12  C 
BRANCH 48 49
ATOM     49  CD  GLU B   6      -4.584  43.533  66.730  1.00 53.57 LIG 0.17  C 
ATOM     50 OE2  GLU B   6      -4.125  42.868  65.747  1.00 60.38 LIG-0.65  OA
ATOM     51 OE1  GLU B   6      -3.843  44.233  67.471  1.00 57.14 LIG-0.65  OA
ENDBRANCH 48 49
ENDBRANCH 47 48
ENDBRANCH 38 47
ENDBRANCH 36 38
ENDBRANCH 33 34
BRANCH 33 52
ATOM     52  CB  PHE B   5      -4.350  37.614  64.970  1.00 32.62 LIG 0.07  C 
BRANCH 52 53
ATOM     53  CG  PHE B   5      -4.110  37.950  63.528  1.00 30.35 LIG-0.06  A 
ATOM     54  CD1 PHE B   5      -3.160  37.287  62.788  1.00 31.18 LIG 0.01  A 
ATOM     55  CE1 PHE B   5      -2.936  37.627  61.458  1.00 30.23 LIG 0.00  A 
ATOM     56  CZ  PHE B   5      -3.679  38.649  60.835  1.00 31.30 LIG 0.00  A 
ATOM     57  CE2 PHE B   5      -4.610  39.357  61.595  1.00 30.12 LIG 0.00  A 
ATOM     58  CD2 PHE B   5      -4.815  38.996  62.925  1.00 31.88 LIG 0.01  A 
ENDBRANCH 52 53
ENDBRANCH 33 52
ENDBRANCH 3 33
TORSDOF 20
ENDMDL
MODEL 20
USER: ADFR SOLUTION from run 78
USER: SCORE 19.764735 LL:  -5.452 LR: -15.668 RR:   0.000 FEB:  -9.702
USER: RMSD 9.978893
USER: SEED 77
USER: STATUS no improvement in best in 4 clusters for 5 generations
USER: GENES 22
USER: genes 0 Translation |==|  0.55597 0.57788 0.62120
USER: genes 1 Rotation |==|  0.29201 0.06267 0.58903 0.58693
USER: genes 2 Torsion [N]-C--CA-[N] |==|  0.73666
USER: genes 3 Torsion [C]-CA--CB-[CG] |==|  0.24596
USER: genes 4 Torsion [CA]-CB--CG-[CD2] |==|  0.09209
USER: genes 5 Torsion [C]-CA--N-[C] |==|  0.17753
USER: genes 6 Torsion [N]-C--CA-[N] |==|  0.35065
USER: genes 7 Torsion [C]-CA--N-[C] |==|  0.83707
USER: genes 8 Torsion [N]-C--CA-[N] |==|  0.15085
USER: genes 9 Torsion [C]-CA--CB-[CG] |==|  0.29039
USER: genes 10 Torsion [CA]-CB--CG-[CD1] |==|  0.28094
USER: genes 11 Torsion [C]-N--CA-[CB] |==|  0.82658
USER: genes 12 Torsion [N]-CA--C-[N] |==|  0.44336
USER: genes 13 Torsion [C]-N--CA-[C] |==|  0.77752
USER: genes 14 Torsion [N]-CA--C-[N] |==|  0.20842
USER: genes 15 Torsion [C]-N--CA-[C] |==|  0.55434
USER: genes 16 Torsion [N]-CA--C-[O] |==|  0.12837
USER: genes 17 Torsion [N]-CA--CB-[CG] |==|  0.76447
USER: genes 18 Torsion [CA]-CB--CG-[CD] |==|  0.87024
USER: genes 19 Torsion [CB]-CG--CD-[OE2] |==|  0.43217
USER: genes 20 Torsion [N]-CA--CB-[CG] |==|  0.79349
USER: genes 21 Torsion [CA]-CB--CG-[CD2] |==|  0.57993
ROOT
ATOM      1  C   LEU B   4      -1.837  37.127  70.573  1.00 29.18 LIG 0.24  C 
ATOM      2 O    LEU B   4      -1.160  38.130  70.812  1.00 28.54 LIG-0.27  OA
ATOM      3  N   PHE B   5      -2.566  36.508  71.500  1.00 29.99 LIG-0.35  N 
ATOM      4 H    PHE B   5      -2.948  35.747  71.384  1.00 29.99 LIG 0.16  HD
ENDROOT
BRANCH 1 5
ATOM      5  CA  LEU B   4      -1.834  36.528  69.151  1.00 28.82 LIG 0.18  C 
BRANCH 5 6
ATOM      6  CB  LEU B   4      -3.156  35.855  68.868  1.00 28.29 LIG 0.04  C 
BRANCH 6 7
ATOM      7  CG  LEU B   4      -4.229  36.786  68.273  1.00 28.88 LIG-0.02  C 
ATOM      8  CD2 LEU B   4      -3.543  37.820  67.396  1.00 30.37 LIG 0.01  C 
ATOM      9  CD1 LEU B   4      -5.120  37.481  69.333  1.00 31.50 LIG 0.01  C 
ENDBRANCH 6 7
ENDBRANCH 5 6
BRANCH 5 10
ATOM     10  N   LEU B   4      -0.713  35.627  68.904  1.00 28.20 LIG-0.35  N 
ATOM     11  C   TRP B   3      -0.583  34.502  69.579  1.00 29.51 LIG 0.24  C 
ATOM     12 O    TRP B   3      -1.412  34.134  70.403  1.00 30.32 LIG-0.27  OA
ATOM     13 H    LEU B   4      -0.166  35.893  68.295  1.00 28.20 LIG 0.16  HD
BRANCH 11 14
ATOM     14  CA  TRP B   3       0.691  33.683  69.312  1.00 31.78 LIG 0.18  C 
BRANCH 14 15
ATOM     15  N   TRP B   3       1.386  33.403  70.591  1.00 33.85 LIG-0.35  N 
ATOM     16  C   ALA B   2       1.770  34.457  71.335  1.00 37.00 LIG 0.26  C 
ATOM     17 O    ALA B   2       1.597  35.637  70.925  1.00 38.56 LIG-0.27  OA
ATOM     18 H    TRP B   3       1.505  32.574  70.786  1.00 33.85 LIG 0.16  HD
BRANCH 16 19
ATOM     19  CA  ALA B   2       2.418  34.247  72.677  1.00 38.11 LIG 0.40  C 
ATOM     20  CB  ALA B   2       2.696  35.662  73.353  1.00 38.97 LIG 0.06  C 
ATOM     21  N   ALA B   2       3.640  33.358  72.767  1.00 37.81 LIG 0.61  N 
ENDBRANCH 16 19
ENDBRANCH 14 15
BRANCH 14 22
ATOM     22  CB  TRP B   3       0.314  32.397  68.546  1.00 31.58 LIG 0.07  C 
BRANCH 22 23
ATOM     23  CG  TRP B   3       0.665  32.460  67.137  1.00 30.60 LIG-0.03  A 
ATOM     24  CD1 TRP B   3       1.732  31.897  66.539  1.00 31.03 LIG 0.10  A 
ATOM     25  NE1 TRP B   3       1.752  32.227  65.204  1.00 29.84 LIG-0.36  N 
ATOM     26 HE1  TRP B   3       2.346  31.976  64.634  1.00 29.84 LIG 0.17  HD
ATOM     27  CE2 TRP B   3       0.672  33.018  64.936  1.00 27.79 LIG 0.04  A 
ATOM     28  CD2 TRP B   3      -0.033  33.179  66.128  1.00 28.46 LIG-0.00  A 
ATOM     29  CZ2 TRP B   3       0.261  33.589  63.741  1.00 27.89 LIG 0.03  A 
ATOM     30  CE3 TRP B   3      -1.175  33.960  66.130  1.00 31.78 LIG 0.01  A 
ATOM     31  CZ3 TRP B   3      -1.601  34.508  64.947  1.00 30.70 LIG 0.00  A 
ATOM     32  CH2 TRP B   3      -0.862  34.340  63.769  1.00 27.16 LIG 0.00  A 
ENDBRANCH 22 23
ENDBRANCH 14 22
ENDBRANCH 11 14
ENDBRANCH 5 10
ENDBRANCH 1 5
BRANCH 3 33
ATOM     33  CA  PHE B   5      -2.775  37.108  72.835  1.00 32.14 LIG 0.18  C 
BRANCH 33 34
ATOM     34  C   PHE B   5      -3.441  38.469  72.805  1.00 34.99 LIG 0.24  C 
ATOM     35 O    PHE B   5      -3.445  39.115  71.752  1.00 34.76 LIG-0.27  OA
ATOM     36  N   GLU B   6      -4.033  38.869  73.942  1.00 37.97 LIG-0.35  N 
ATOM     37 H    GLU B   6      -4.296  38.316  74.545  1.00 37.97 LIG 0.16  HD
BRANCH 36 38
ATOM     38  CA  GLU B   6      -4.302  40.286  74.294  1.00 41.44 LIG 0.18  C 
BRANCH 38 39
ATOM     39  C   GLU B   6      -2.968  40.860  74.826  1.00 42.63 LIG 0.24  C 
ATOM     40  N   ALA B   7      -2.025  41.132  73.923  1.00 44.72 LIG-0.35  N 
ATOM     41 H    ALA B   7      -2.146  41.145  73.071  1.00 44.72 LIG 0.16  HD
ATOM     42 O    GLU B   6      -2.750  40.987  76.049  1.00 39.57 LIG-0.27  OA
BRANCH 40 43
ATOM     43  CA  ALA B   7      -0.621  41.447  74.383  1.00 46.42 LIG 0.16  C 
ATOM     44  CB  ALA B   7       0.101  40.173  74.875  1.00 46.36 LIG 0.04  C 
BRANCH 43 45
ATOM     45  C   ALA B   7       0.181  42.177  73.321  1.00 46.87 LIG 0.22  C 
ATOM     46 O    ALA B   7      -0.339  43.125  72.729  1.00 48.90 LIG-0.29  OA
ENDBRANCH 43 45
ENDBRANCH 40 43
ENDBRANCH 38 39
BRANCH 38 47
ATOM     47  CB  GLU B   6      -5.413  40.431  75.340  1.00 42.54 LIG 0.04  C 
BRANCH 47 48
ATOM     48  CG  GLU B   6      -6.843  40.433  74.700  1.00 48.04 LIG 0.12  C 
BRANCH 48 49
ATOM     49  CD  GLU B   6      -7.025  41.339  73.471  1.00 53.57 LIG 0.17  C 
ATOM     50 OE2  GLU B   6      -7.957  41.030  72.661  1.00 60.38 LIG-0.65  OA
ATOM     51 OE1  GLU B   6      -6.303  42.358  73.304  1.00 57.14 LIG-0.65  OA
ENDBRANCH 48 49
ENDBRANCH 47 48
ENDBRANCH 38 47
ENDBRANCH 36 38
ENDBRANCH 33 34
BRANCH 33 52
ATOM     52  CB  PHE B   5      -1.449  37.274  73.601  1.00 32.62 LIG 0.07  C 
BRANCH 52 53
ATOM     53  CG  PHE B   5      -0.876  35.997  74.141  1.00 30.35 LIG-0.06  A 
ATOM     54  CD1 PHE B   5      -1.161  34.784  73.559  1.00 31.18 LIG 0.01  A 
ATOM     55  CE1 PHE B   5      -0.638  33.608  74.087  1.00 30.23 LIG 0.00  A 
ATOM     56  CZ  PHE B   5       0.198  33.629  75.220  1.00 31.30 LIG 0.00  A 
ATOM     57  CE2 PHE B   5       0.450  34.852  75.842  1.00 30.12 LIG 0.00  A 
ATOM     58  CD2 PHE B   5      -0.086  36.015  75.294  1.00 31.88 LIG 0.01  A 
ENDBRANCH 52 53
ENDBRANCH 33 52
ENDBRANCH 3 33
TORSDOF 20
ENDMDL
MODEL 21
USER: ADFR SOLUTION from run 48
USER: SCORE 19.543413 LL:  -4.418 LR: -15.627 RR:   0.000 FEB:  -9.661
USER: RMSD 8.866897
USER: SEED 47
USER: STATUS no improvement in best in 5 clusters for 5 generations
USER: GENES 22
USER: genes 0 Translation |==|  0.54749 0.57347 0.62255
USER: genes 1 Rotation |==|  0.37308 0.09456 0.71037 0.65892
USER: genes 2 Torsion [N]-C--CA-[N] |==|  0.47222
USER: genes 3 Torsion [C]-CA--CB-[CG] |==|  0.70500
USER: genes 4 Torsion [CA]-CB--CG-[CD2] |==|  0.71526
USER: genes 5 Torsion [C]-CA--N-[C] |==|  0.67970
USER: genes 6 Torsion [N]-C--CA-[N] |==|  0.30581
USER: genes 7 Torsion [C]-CA--N-[C] |==|  0.74089
USER: genes 8 Torsion [N]-C--CA-[N] |==|  0.78184
USER: genes 9 Torsion [C]-CA--CB-[CG] |==|  0.29330
USER: genes 10 Torsion [CA]-CB--CG-[CD1] |==|  0.01334
USER: genes 11 Torsion [C]-N--CA-[CB] |==|  0.84808
USER: genes 12 Torsion [N]-CA--C-[N] |==|  0.37711
USER: genes 13 Torsion [C]-N--CA-[C] |==|  0.17478
USER: genes 14 Torsion [N]-CA--C-[N] |==|  0.11340
USER: genes 15 Torsion [C]-N--CA-[C] |==|  0.79813
USER: genes 16 Torsion [N]-CA--C-[O] |==|  0.03690
USER: genes 17 Torsion [N]-CA--CB-[CG] |==|  0.85444
USER: genes 18 Torsion [CA]-CB--CG-[CD] |==|  0.37720
USER: genes 19 Torsion [CB]-CG--CD-[OE2] |==|  0.10279
USER: genes 20 Torsion [N]-CA--CB-[CG] |==|  0.86345
USER: genes 21 Torsion [CA]-CB--CG-[CD2] |==|  0.29304
ROOT
ATOM      1  C   LEU B   4      -2.002  37.041  70.603  1.00 29.18 LIG 0.24  C 
ATOM      2 O    LEU B   4      -1.656  38.170  70.248  1.00 28.54 LIG-0.27  OA
ATOM      3  N   PHE B   5      -1.969  36.640  71.872  1.00 29.99 LIG-0.35  N 
ATOM      4 H    PHE B   5      -2.093  35.828  72.126  1.00 29.99 LIG 0.16  HD
ENDROOT
BRANCH 1 5
ATOM      5  CA  LEU B   4      -2.473  36.021  69.546  1.00 28.82 LIG 0.18  C 
BRANCH 5 6
ATOM      6  CB  LEU B   4      -1.507  34.863  69.474  1.00 28.29 LIG 0.04  C 
BRANCH 6 7
ATOM      7  CG  LEU B   4      -0.610  34.859  68.222  1.00 28.88 LIG-0.02  C 
ATOM      8  CD2 LEU B   4      -1.153  33.835  67.239  1.00 30.37 LIG 0.01  C 
ATOM      9  CD1 LEU B   4       0.886  34.583  68.519  1.00 31.50 LIG 0.01  C 
ENDBRANCH 6 7
ENDBRANCH 5 6
BRANCH 5 10
ATOM     10  N   LEU B   4      -2.697  36.612  68.230  1.00 28.20 LIG-0.35  N 
ATOM     11  C   TRP B   3      -3.901  36.645  67.695  1.00 29.51 LIG 0.24  C 
ATOM     12 O    TRP B   3      -4.892  36.232  68.288  1.00 30.32 LIG-0.27  OA
ATOM     13 H    LEU B   4      -1.990  36.925  67.852  1.00 28.20 LIG 0.16  HD
BRANCH 11 14
ATOM     14  CA  TRP B   3      -4.003  37.192  66.262  1.00 31.78 LIG 0.18  C 
BRANCH 14 15
ATOM     15  N   TRP B   3      -4.332  36.092  65.326  1.00 33.85 LIG-0.35  N 
ATOM     16  C   ALA B   2      -3.309  35.464  64.717  1.00 37.00 LIG 0.26  C 
ATOM     17 O    ALA B   2      -2.118  35.843  64.895  1.00 38.56 LIG-0.27  OA
ATOM     18 H    TRP B   3      -5.167  35.916  65.223  1.00 33.85 LIG 0.16  HD
BRANCH 16 19
ATOM     19  CA  ALA B   2      -3.565  34.293  63.808  1.00 38.11 LIG 0.40  C 
ATOM     20  CB  ALA B   2      -4.699  34.682  62.759  1.00 38.97 LIG 0.06  C 
ATOM     21  N   ALA B   2      -3.843  32.937  64.422  1.00 37.81 LIG 0.61  N 
ENDBRANCH 16 19
ENDBRANCH 14 15
BRANCH 14 22
ATOM     22  CB  TRP B   3      -5.043  38.332  66.230  1.00 31.58 LIG 0.07  C 
BRANCH 22 23
ATOM     23  CG  TRP B   3      -4.431  39.647  66.126  1.00 30.60 LIG-0.03  A 
ATOM     24  CD1 TRP B   3      -3.123  39.925  65.971  1.00 31.03 LIG 0.10  A 
ATOM     25  NE1 TRP B   3      -2.928  41.286  65.971  1.00 29.84 LIG-0.36  N 
ATOM     26 HE1  TRP B   3      -2.170  41.685  65.887  1.00 29.84 LIG 0.17  HD
ATOM     27  CE2 TRP B   3      -4.139  41.898  66.127  1.00 27.79 LIG 0.04  A 
ATOM     28  CD2 TRP B   3      -5.103  40.896  66.222  1.00 28.46 LIG-0.00  A 
ATOM     29  CZ2 TRP B   3      -4.454  43.248  66.179  1.00 27.89 LIG 0.03  A 
ATOM     30  CE3 TRP B   3      -6.427  41.256  66.402  1.00 31.78 LIG 0.01  A 
ATOM     31  CZ3 TRP B   3      -6.750  42.589  66.430  1.00 30.70 LIG 0.00  A 
ATOM     32  CH2 TRP B   3      -5.755  43.572  66.346  1.00 27.16 LIG 0.00  A 
ENDBRANCH 22 23
ENDBRANCH 14 22
ENDBRANCH 11 14
ENDBRANCH 5 10
ENDBRANCH 1 5
BRANCH 3 33
ATOM     33  CA  PHE B   5      -1.708  37.595  72.971  1.00 32.14 LIG 0.18  C 
BRANCH 33 34
ATOM     34  C   PHE B   5      -2.804  38.624  73.170  1.00 34.99 LIG 0.24  C 
ATOM     35 O    PHE B   5      -3.322  39.152  72.180  1.00 34.76 LIG-0.27  OA
ATOM     36  N   GLU B   6      -3.175  38.862  74.437  1.00 37.97 LIG-0.35  N 
ATOM     37 H    GLU B   6      -3.050  38.294  75.071  1.00 37.97 LIG 0.16  HD
BRANCH 36 38
ATOM     38  CA  GLU B   6      -3.835  40.109  74.898  1.00 41.44 LIG 0.18  C 
BRANCH 38 39
ATOM     39  C   GLU B   6      -5.191  40.181  74.156  1.00 42.63 LIG 0.24  C 
ATOM     40  N   ALA B   7      -5.870  39.040  74.030  1.00 44.72 LIG-0.35  N 
ATOM     41 H    ALA B   7      -5.686  38.308  74.441  1.00 44.72 LIG 0.16  HD
ATOM     42 O    GLU B   6      -5.593  41.238  73.627  1.00 39.57 LIG-0.27  OA
BRANCH 40 43
ATOM     43  CA  ALA B   7      -7.062  38.982  73.104  1.00 46.42 LIG 0.16  C 
ATOM     44  CB  ALA B   7      -7.412  37.522  72.740  1.00 46.36 LIG 0.04  C 
BRANCH 43 45
ATOM     45  C   ALA B   7      -8.261  39.728  73.662  1.00 46.87 LIG 0.22  C 
ATOM     46 O    ALA B   7      -8.097  40.483  74.623  1.00 48.90 LIG-0.29  OA
ENDBRANCH 43 45
ENDBRANCH 40 43
ENDBRANCH 38 39
BRANCH 38 47
ATOM     47  CB  GLU B   6      -2.994  41.359  74.617  1.00 42.54 LIG 0.04  C 
BRANCH 47 48
ATOM     48  CG  GLU B   6      -1.531  41.234  75.166  1.00 48.04 LIG 0.12  C 
BRANCH 48 49
ATOM     49  CD  GLU B   6      -0.419  41.710  74.217  1.00 53.57 LIG 0.17  C 
ATOM     50 OE2  GLU B   6      -0.671  42.733  73.502  1.00 60.38 LIG-0.65  OA
ATOM     51 OE1  GLU B   6       0.699  41.129  74.185  1.00 57.14 LIG-0.65  OA
ENDBRANCH 48 49
ENDBRANCH 47 48
ENDBRANCH 38 47
ENDBRANCH 36 38
ENDBRANCH 33 34
BRANCH 33 52
ATOM     52  CB  PHE B   5      -0.398  38.375  72.750  1.00 32.62 LIG 0.07  C 
BRANCH 52 53
ATOM     53  CG  PHE B   5       0.787  37.519  72.408  1.00 30.35 LIG-0.06  A 
ATOM     54  CD1 PHE B   5       1.453  36.802  73.374  1.00 31.18 LIG 0.01  A 
ATOM     55  CE1 PHE B   5       2.562  36.031  73.042  1.00 30.23 LIG 0.00  A 
ATOM     56  CZ  PHE B   5       3.025  35.959  71.714  1.00 31.30 LIG 0.00  A 
ATOM     57  CE2 PHE B   5       2.382  36.723  70.740  1.00 30.12 LIG 0.00  A 
ATOM     58  CD2 PHE B   5       1.273  37.487  71.098  1.00 31.88 LIG 0.01  A 
ENDBRANCH 52 53
ENDBRANCH 33 52
ENDBRANCH 3 33
TORSDOF 20
ENDMDL
MODEL 22
USER: ADFR SOLUTION from run 85
USER: SCORE 20.212222 LL:  -5.048 LR: -15.621 RR:   0.000 FEB:  -9.655
USER: RMSD 6.036888
USER: SEED 84
USER: STATUS searching
USER: GENES 22
USER: genes 0 Translation |==|  0.45508 0.70542 0.72185
USER: genes 1 Rotation |==|  0.60679 0.33434 0.52906 0.95859
USER: genes 2 Torsion [N]-C--CA-[N] |==|  0.02067
USER: genes 3 Torsion [C]-CA--CB-[CG] |==|  0.35613
USER: genes 4 Torsion [CA]-CB--CG-[CD2] |==|  0.89810
USER: genes 5 Torsion [C]-CA--N-[C] |==|  0.73707
USER: genes 6 Torsion [N]-C--CA-[N] |==|  0.91590
USER: genes 7 Torsion [C]-CA--N-[C] |==|  0.82020
USER: genes 8 Torsion [N]-C--CA-[N] |==|  0.18104
USER: genes 9 Torsion [C]-CA--CB-[CG] |==|  0.38805
USER: genes 10 Torsion [CA]-CB--CG-[CD1] |==|  0.36307
USER: genes 11 Torsion [C]-N--CA-[CB] |==|  0.20494
USER: genes 12 Torsion [N]-CA--C-[N] |==|  0.05502
USER: genes 13 Torsion [C]-N--CA-[C] |==|  0.65538
USER: genes 14 Torsion [N]-CA--C-[N] |==|  0.42540
USER: genes 15 Torsion [C]-N--CA-[C] |==|  0.17785
USER: genes 16 Torsion [N]-CA--C-[O] |==|  0.19643
USER: genes 17 Torsion [N]-CA--CB-[CG] |==|  0.64860
USER: genes 18 Torsion [CA]-CB--CG-[CD] |==|  0.80280
USER: genes 19 Torsion [CB]-CG--CD-[OE2] |==|  0.92805
USER: genes 20 Torsion [N]-CA--CB-[CG] |==|  0.76257
USER: genes 21 Torsion [CA]-CB--CG-[CD2] |==|  0.85365
ROOT
ATOM      1  C   LEU B   4      -3.804  39.614  72.838  1.00 29.18 LIG 0.24  C 
ATOM      2 O    LEU B   4      -3.306  40.735  72.968  1.00 28.54 LIG-0.27  OA
ATOM      3  N   PHE B   5      -3.198  38.625  72.183  1.00 29.99 LIG-0.35  N 
ATOM      4 H    PHE B   5      -3.574  37.879  71.981  1.00 29.99 LIG 0.16  HD
ENDROOT
BRANCH 1 5
ATOM      5  CA  LEU B   4      -5.200  39.328  73.429  1.00 28.82 LIG 0.18  C 
BRANCH 5 6
ATOM      6  CB  LEU B   4      -5.271  39.820  74.855  1.00 28.29 LIG 0.04  C 
BRANCH 6 7
ATOM      7  CG  LEU B   4      -6.474  40.734  75.153  1.00 28.88 LIG-0.02  C 
ATOM      8  CD2 LEU B   4      -6.733  41.608  73.938  1.00 30.37 LIG 0.01  C 
ATOM      9  CD1 LEU B   4      -6.303  41.608  76.421  1.00 31.50 LIG 0.01  C 
ENDBRANCH 6 7
ENDBRANCH 5 6
BRANCH 5 10
ATOM     10  N   LEU B   4      -5.596  37.927  73.328  1.00 28.20 LIG-0.35  N 
ATOM     11  C   TRP B   3      -6.327  37.498  72.318  1.00 29.51 LIG 0.24  C 
ATOM     12 O    TRP B   3      -6.666  38.233  71.397  1.00 30.32 LIG-0.27  OA
ATOM     13 H    LEU B   4      -5.315  37.427  73.969  1.00 28.20 LIG 0.16  HD
BRANCH 11 14
ATOM     14  CA  TRP B   3      -6.777  36.029  72.369  1.00 31.78 LIG 0.18  C 
BRANCH 14 15
ATOM     15  N   TRP B   3      -5.769  35.219  73.094  1.00 33.85 LIG-0.35  N 
ATOM     16  C   ALA B   2      -4.547  35.106  72.543  1.00 37.00 LIG 0.26  C 
ATOM     17 O    ALA B   2      -4.292  35.622  71.420  1.00 38.56 LIG-0.27  OA
ATOM     18 H    TRP B   3      -6.027  34.864  73.834  1.00 33.85 LIG 0.16  HD
BRANCH 16 19
ATOM     19  CA  ALA B   2      -3.455  34.358  73.259  1.00 38.11 LIG 0.40  C 
ATOM     20  CB  ALA B   2      -2.057  34.681  72.567  1.00 38.97 LIG 0.06  C 
ATOM     21  N   ALA B   2      -3.613  32.869  73.480  1.00 37.81 LIG 0.61  N 
ENDBRANCH 16 19
ENDBRANCH 14 15
BRANCH 14 22
ATOM     22  CB  TRP B   3      -8.178  35.951  73.011  1.00 31.58 LIG 0.07  C 
BRANCH 22 23
ATOM     23  CG  TRP B   3      -9.046  34.990  72.351  1.00 30.60 LIG-0.03  A 
ATOM     24  CD1 TRP B   3      -9.783  34.025  72.932  1.00 31.03 LIG 0.10  A 
ATOM     25  NE1 TRP B   3     -10.428  33.282  71.972  1.00 29.84 LIG-0.36  N 
ATOM     26 HE1  TRP B   3     -10.949  32.614  72.120  1.00 29.84 LIG 0.17  HD
ATOM     27  CE2 TRP B   3     -10.102  33.782  70.744  1.00 27.79 LIG 0.04  A 
ATOM     28  CD2 TRP B   3      -9.240  34.859  70.948  1.00 28.46 LIG-0.00  A 
ATOM     29  CZ2 TRP B   3     -10.507  33.378  69.481  1.00 27.89 LIG 0.03  A 
ATOM     30  CE3 TRP B   3      -8.745  35.537  69.849  1.00 31.78 LIG 0.01  A 
ATOM     31  CZ3 TRP B   3      -9.162  35.159  68.598  1.00 30.70 LIG 0.00  A 
ATOM     32  CH2 TRP B   3     -10.017  34.063  68.425  1.00 27.16 LIG 0.00  A 
ENDBRANCH 22 23
ENDBRANCH 14 22
ENDBRANCH 11 14
ENDBRANCH 5 10
ENDBRANCH 1 5
BRANCH 3 33
ATOM     33  CA  PHE B   5      -1.792  38.747  71.744  1.00 32.14 LIG 0.18  C 
BRANCH 33 34
ATOM     34  C   PHE B   5      -1.372  37.714  70.717  1.00 34.99 LIG 0.24  C 
ATOM     35 O    PHE B   5      -0.172  37.450  70.583  1.00 34.76 LIG-0.27  OA
ATOM     36  N   GLU B   6      -2.361  37.111  70.038  1.00 37.97 LIG-0.35  N 
ATOM     37 H    GLU B   6      -3.165  37.061  70.339  1.00 37.97 LIG 0.16  HD
BRANCH 36 38
ATOM     38  CA  GLU B   6      -2.196  36.466  68.712  1.00 41.44 LIG 0.18  C 
BRANCH 38 39
ATOM     39  C   GLU B   6      -3.226  37.139  67.773  1.00 42.63 LIG 0.24  C 
ATOM     40  N   ALA B   7      -2.933  37.157  66.472  1.00 44.72 LIG-0.35  N 
ATOM     41 H    ALA B   7      -2.298  36.710  66.102  1.00 44.72 LIG 0.16  HD
ATOM     42 O    GLU B   6      -4.242  37.711  68.217  1.00 39.57 LIG-0.27  OA
BRANCH 40 43
ATOM     43  CA  ALA B   7      -3.753  38.013  65.536  1.00 46.42 LIG 0.16  C 
ATOM     44  CB  ALA B   7      -5.230  37.560  65.520  1.00 46.36 LIG 0.04  C 
BRANCH 43 45
ATOM     45  C   ALA B   7      -3.620  39.493  65.845  1.00 46.87 LIG 0.22  C 
ATOM     46 O    ALA B   7      -2.553  40.059  65.596  1.00 48.90 LIG-0.29  OA
ENDBRANCH 43 45
ENDBRANCH 40 43
ENDBRANCH 38 39
BRANCH 38 47
ATOM     47  CB  GLU B   6      -2.415  34.950  68.763  1.00 42.54 LIG 0.04  C 
BRANCH 47 48
ATOM     48  CG  GLU B   6      -1.214  34.149  68.154  1.00 48.04 LIG 0.12  C 
BRANCH 48 49
ATOM     49  CD  GLU B   6      -1.057  34.237  66.627  1.00 53.57 LIG 0.17  C 
ATOM     50 OE2  GLU B   6      -2.110  34.480  65.954  1.00 60.38 LIG-0.65  OA
ATOM     51 OE1  GLU B   6       0.072  34.108  66.082  1.00 57.14 LIG-0.65  OA
ENDBRANCH 48 49
ENDBRANCH 47 48
ENDBRANCH 38 47
ENDBRANCH 36 38
ENDBRANCH 33 34
BRANCH 33 52
ATOM     52  CB  PHE B   5      -0.812  38.626  72.926  1.00 32.62 LIG 0.07  C 
BRANCH 52 53
ATOM     53  CG  PHE B   5      -0.556  39.911  73.658  1.00 30.35 LIG-0.06  A 
ATOM     54  CD1 PHE B   5      -0.765  40.016  75.013  1.00 31.18 LIG 0.01  A 
ATOM     55  CE1 PHE B   5      -0.543  41.221  75.671  1.00 30.23 LIG 0.00  A 
ATOM     56  CZ  PHE B   5      -0.095  42.358  74.971  1.00 31.30 LIG 0.00  A 
ATOM     57  CE2 PHE B   5       0.072  42.270  73.588  1.00 30.12 LIG 0.00  A 
ATOM     58  CD2 PHE B   5      -0.157  41.051  72.954  1.00 31.88 LIG 0.01  A 
ENDBRANCH 52 53
ENDBRANCH 33 52
ENDBRANCH 3 33
TORSDOF 20
ENDMDL
MODEL 23
USER: ADFR SOLUTION from run 58
USER: SCORE 17.163691 LL:  -4.607 LR: -15.625 RR:   0.000 FEB:  -9.659
USER: RMSD 5.475516
USER: SEED 57
USER: STATUS no improvement in best in 9 clusters for 5 generations
USER: GENES 22
USER: genes 0 Translation |==|  0.64801 0.45833 0.56330
USER: genes 1 Rotation |==|  0.52053 0.31612 0.07206 0.68063
USER: genes 2 Torsion [N]-C--CA-[N] |==|  0.23513
USER: genes 3 Torsion [C]-CA--CB-[CG] |==|  0.27515
USER: genes 4 Torsion [CA]-CB--CG-[CD2] |==|  0.24573
USER: genes 5 Torsion [C]-CA--N-[C] |==|  0.68004
USER: genes 6 Torsion [N]-C--CA-[N] |==|  0.81117
USER: genes 7 Torsion [C]-CA--N-[C] |==|  0.67590
USER: genes 8 Torsion [N]-C--CA-[N] |==|  0.04471
USER: genes 9 Torsion [C]-CA--CB-[CG] |==|  0.14131
USER: genes 10 Torsion [CA]-CB--CG-[CD1] |==|  0.69719
USER: genes 11 Torsion [C]-N--CA-[CB] |==|  0.46565
USER: genes 12 Torsion [N]-CA--C-[N] |==|  0.27871
USER: genes 13 Torsion [C]-N--CA-[C] |==|  0.92222
USER: genes 14 Torsion [N]-CA--C-[N] |==|  0.32877
USER: genes 15 Torsion [C]-N--CA-[C] |==|  0.71911
USER: genes 16 Torsion [N]-CA--C-[O] |==|  0.59556
USER: genes 17 Torsion [N]-CA--CB-[CG] |==|  0.59567
USER: genes 18 Torsion [CA]-CB--CG-[CD] |==|  0.13637
USER: genes 19 Torsion [CB]-CG--CD-[OE2] |==|  0.91771
USER: genes 20 Torsion [N]-CA--CB-[CG] |==|  0.90282
USER: genes 21 Torsion [CA]-CB--CG-[CD2] |==|  0.85713
ROOT
ATOM      1  C   LEU B   4      -0.042  34.795  69.270  1.00 29.18 LIG 0.24  C 
ATOM      2 O    LEU B   4       0.422  33.671  69.474  1.00 28.54 LIG-0.27  OA
ATOM      3  N   PHE B   5      -0.729  35.107  68.173  1.00 29.99 LIG-0.35  N 
ATOM      4 H    PHE B   5      -0.959  35.907  67.958  1.00 29.99 LIG 0.16  HD
ENDROOT
BRANCH 1 5
ATOM      5  CA  LEU B   4       0.193  35.914  70.306  1.00 28.82 LIG 0.18  C 
BRANCH 5 6
ATOM      6  CB  LEU B   4       1.496  35.683  71.034  1.00 28.29 LIG 0.04  C 
BRANCH 6 7
ATOM      7  CG  LEU B   4       2.679  36.515  70.502  1.00 28.88 LIG-0.02  C 
ATOM      8  CD2 LEU B   4       2.700  37.848  71.230  1.00 30.37 LIG 0.01  C 
ATOM      9  CD1 LEU B   4       2.655  36.736  68.968  1.00 31.50 LIG 0.01  C 
ENDBRANCH 6 7
ENDBRANCH 5 6
BRANCH 5 10
ATOM     10  N   LEU B   4      -0.916  36.083  71.239  1.00 28.20 LIG-0.35  N 
ATOM     11  C   TRP B   3      -1.625  37.194  71.260  1.00 29.51 LIG 0.24  C 
ATOM     12 O    TRP B   3      -1.425  38.112  70.472  1.00 30.32 LIG-0.27  OA
ATOM     13 H    LEU B   4      -1.056  35.409  71.756  1.00 28.20 LIG 0.16  HD
BRANCH 11 14
ATOM     14  CA  TRP B   3      -2.699  37.305  72.354  1.00 31.78 LIG 0.18  C 
BRANCH 14 15
ATOM     15  N   TRP B   3      -3.784  36.330  72.095  1.00 33.85 LIG-0.35  N 
ATOM     16  C   ALA B   2      -5.013  36.818  71.844  1.00 37.00 LIG 0.26  C 
ATOM     17 O    ALA B   2      -5.240  38.058  71.890  1.00 38.56 LIG-0.27  OA
ATOM     18 H    TRP B   3      -3.564  35.499  72.121  1.00 33.85 LIG 0.16  HD
BRANCH 16 19
ATOM     19  CA  ALA B   2      -6.147  35.889  71.504  1.00 38.11 LIG 0.40  C 
ATOM     20  CB  ALA B   2      -7.497  36.457  72.130  1.00 38.97 LIG 0.06  C 
ATOM     21  N   ALA B   2      -5.996  34.412  71.802  1.00 37.81 LIG 0.61  N 
ENDBRANCH 16 19
ENDBRANCH 14 15
BRANCH 14 22
ATOM     22  CB  TRP B   3      -2.036  37.106  73.734  1.00 31.58 LIG 0.07  C 
BRANCH 22 23
ATOM     23  CG  TRP B   3      -0.872  37.955  73.925  1.00 30.60 LIG-0.03  A 
ATOM     24  CD1 TRP B   3       0.418  37.569  73.963  1.00 31.03 LIG 0.10  A 
ATOM     25  NE1 TRP B   3       1.226  38.652  74.219  1.00 29.84 LIG-0.36  N 
ATOM     26 HE1  TRP B   3       2.083  38.635  74.287  1.00 29.84 LIG 0.17  HD
ATOM     27  CE2 TRP B   3       0.438  39.761  74.346  1.00 27.79 LIG 0.04  A 
ATOM     28  CD2 TRP B   3      -0.883  39.357  74.162  1.00 28.46 LIG-0.00  A 
ATOM     29  CZ2 TRP B   3       0.790  41.079  74.596  1.00 27.89 LIG 0.03  A 
ATOM     30  CE3 TRP B   3      -1.891  40.300  74.258  1.00 31.78 LIG 0.01  A 
ATOM     31  CZ3 TRP B   3      -1.549  41.610  74.480  1.00 30.70 LIG 0.00  A 
ATOM     32  CH2 TRP B   3      -0.213  41.982  74.675  1.00 27.16 LIG 0.00  A 
ENDBRANCH 22 23
ENDBRANCH 14 22
ENDBRANCH 11 14
ENDBRANCH 5 10
ENDBRANCH 1 5
BRANCH 3 33
ATOM     33  CA  PHE B   5      -1.159  34.064  67.217  1.00 32.14 LIG 0.18  C 
BRANCH 33 34
ATOM     34  C   PHE B   5      -0.027  33.454  66.415  1.00 34.99 LIG 0.24  C 
ATOM     35 O    PHE B   5       0.445  34.086  65.463  1.00 34.76 LIG-0.27  OA
ATOM     36  N   GLU B   6       0.424  32.261  66.831  1.00 37.97 LIG-0.35  N 
ATOM     37 H    GLU B   6       0.322  31.984  67.639  1.00 37.97 LIG 0.16  HD
BRANCH 36 38
ATOM     38  CA  GLU B   6       1.142  31.289  65.970  1.00 41.44 LIG 0.18  C 
BRANCH 38 39
ATOM     39  C   GLU B   6       0.644  31.538  64.526  1.00 42.63 LIG 0.24  C 
ATOM     40  N   ALA B   7       1.556  31.919  63.631  1.00 44.72 LIG-0.35  N 
ATOM     41 H    ALA B   7       2.407  31.902  63.755  1.00 44.72 LIG 0.16  HD
ATOM     42 O    GLU B   6      -0.566  31.467  64.230  1.00 39.57 LIG-0.27  OA
BRANCH 40 43
ATOM     43  CA  ALA B   7       1.108  32.426  62.281  1.00 46.42 LIG 0.16  C 
ATOM     44  CB  ALA B   7       1.841  33.733  61.907  1.00 46.36 LIG 0.04  C 
BRANCH 43 45
ATOM     45  C   ALA B   7       1.244  31.371  61.197  1.00 46.87 LIG 0.22  C 
ATOM     46 O    ALA B   7       1.546  31.727  60.056  1.00 48.90 LIG-0.29  OA
ENDBRANCH 43 45
ENDBRANCH 40 43
ENDBRANCH 38 39
BRANCH 38 47
ATOM     47  CB  GLU B   6       0.893  29.835  66.388  1.00 42.54 LIG 0.04  C 
BRANCH 47 48
ATOM     48  CG  GLU B   6       2.148  28.923  66.168  1.00 48.04 LIG 0.12  C 
BRANCH 48 49
ATOM     49  CD  GLU B   6       3.475  29.467  66.721  1.00 53.57 LIG 0.17  C 
ATOM     50 OE2  GLU B   6       3.605  30.733  66.763  1.00 60.38 LIG-0.65  OA
ATOM     51 OE1  GLU B   6       4.370  28.687  67.143  1.00 57.14 LIG-0.65  OA
ENDBRANCH 48 49
ENDBRANCH 47 48
ENDBRANCH 38 47
ENDBRANCH 36 38
ENDBRANCH 33 34
BRANCH 33 52
ATOM     52  CB  PHE B   5      -2.185  34.608  66.204  1.00 32.62 LIG 0.07  C 
BRANCH 52 53
ATOM     53  CG  PHE B   5      -3.129  35.632  66.760  1.00 30.35 LIG-0.06  A 
ATOM     54  CD1 PHE B   5      -3.273  36.866  66.171  1.00 31.18 LIG 0.01  A 
ATOM     55  CE1 PHE B   5      -4.136  37.812  66.714  1.00 30.23 LIG 0.00  A 
ATOM     56  CZ  PHE B   5      -4.888  37.529  67.871  1.00 31.30 LIG 0.00  A 
ATOM     57  CE2 PHE B   5      -4.709  36.296  68.500  1.00 30.12 LIG 0.00  A 
ATOM     58  CD2 PHE B   5      -3.838  35.367  67.936  1.00 31.88 LIG 0.01  A 
ENDBRANCH 52 53
ENDBRANCH 33 52
ENDBRANCH 3 33
TORSDOF 20
ENDMDL
MODEL 24
USER: ADFR SOLUTION from run 90
USER: SCORE 19.192616 LL:  -5.287 LR: -15.623 RR:   0.000 FEB:  -9.657
USER: RMSD 4.740826
USER: SEED 89
USER: STATUS no improvement in best in 6 clusters for 5 generations
USER: GENES 22
USER: genes 0 Translation |==|  0.51794 0.63158 0.63845
USER: genes 1 Rotation |==|  0.65198 0.44777 0.24687 0.90012
USER: genes 2 Torsion [N]-C--CA-[N] |==|  0.13458
USER: genes 3 Torsion [C]-CA--CB-[CG] |==|  0.20340
USER: genes 4 Torsion [CA]-CB--CG-[CD2] |==|  0.66608
USER: genes 5 Torsion [C]-CA--N-[C] |==|  0.78760
USER: genes 6 Torsion [N]-C--CA-[N] |==|  0.89749
USER: genes 7 Torsion [C]-CA--N-[C] |==|  0.83781
USER: genes 8 Torsion [N]-C--CA-[N] |==|  0.02621
USER: genes 9 Torsion [C]-CA--CB-[CG] |==|  0.07388
USER: genes 10 Torsion [CA]-CB--CG-[CD1] |==|  0.22662
USER: genes 11 Torsion [C]-N--CA-[CB] |==|  0.26594
USER: genes 12 Torsion [N]-CA--C-[N] |==|  0.42222
USER: genes 13 Torsion [C]-N--CA-[C] |==|  0.17180
USER: genes 14 Torsion [N]-CA--C-[N] |==|  0.11667
USER: genes 15 Torsion [C]-N--CA-[C] |==|  0.54950
USER: genes 16 Torsion [N]-CA--C-[O] |==|  0.80289
USER: genes 17 Torsion [N]-CA--CB-[CG] |==|  0.75304
USER: genes 18 Torsion [CA]-CB--CG-[CD] |==|  0.24233
USER: genes 19 Torsion [CB]-CG--CD-[OE2] |==|  0.14136
USER: genes 20 Torsion [N]-CA--CB-[CG] |==|  0.71698
USER: genes 21 Torsion [CA]-CB--CG-[CD2] |==|  0.13348
ROOT
ATOM      1  C   LEU B   4      -2.578  38.174  70.961  1.00 29.18 LIG 0.24  C 
ATOM      2 O    LEU B   4      -1.357  38.342  70.912  1.00 28.54 LIG-0.27  OA
ATOM      3  N   PHE B   5      -3.307  37.855  69.894  1.00 29.99 LIG-0.35  N 
ATOM      4 H    PHE B   5      -4.167  37.848  69.881  1.00 29.99 LIG 0.16  HD
ENDROOT
BRANCH 1 5
ATOM      5  CA  LEU B   4      -3.319  38.360  72.301  1.00 28.82 LIG 0.18  C 
BRANCH 5 6
ATOM      6  CB  LEU B   4      -2.325  38.573  73.419  1.00 28.29 LIG 0.04  C 
BRANCH 6 7
ATOM      7  CG  LEU B   4      -1.649  39.957  73.415  1.00 28.88 LIG-0.02  C 
ATOM      8  CD2 LEU B   4      -0.148  39.763  73.280  1.00 30.37 LIG 0.01  C 
ATOM      9  CD1 LEU B   4      -1.974  40.821  74.659  1.00 31.50 LIG 0.01  C 
ENDBRANCH 6 7
ENDBRANCH 5 6
BRANCH 5 10
ATOM     10  N   LEU B   4      -4.243  37.273  72.609  1.00 28.20 LIG-0.35  N 
ATOM     11  C   TRP B   3      -5.412  37.184  72.008  1.00 29.51 LIG 0.24  C 
ATOM     12 O    TRP B   3      -5.760  37.969  71.133  1.00 30.32 LIG-0.27  OA
ATOM     13 H    LEU B   4      -3.959  36.717  73.201  1.00 28.20 LIG 0.16  HD
BRANCH 11 14
ATOM     14  CA  TRP B   3      -6.348  36.062  72.486  1.00 31.78 LIG 0.18  C 
BRANCH 14 15
ATOM     15  N   TRP B   3      -5.558  34.854  72.819  1.00 33.85 LIG-0.35  N 
ATOM     16  C   ALA B   2      -4.797  34.319  71.846  1.00 37.00 LIG 0.26  C 
ATOM     17 O    ALA B   2      -4.808  34.798  70.678  1.00 38.56 LIG-0.27  OA
ATOM     18 H    TRP B   3      -5.631  34.560  73.624  1.00 33.85 LIG 0.16  HD
BRANCH 16 19
ATOM     19  CA  ALA B   2      -3.915  33.135  72.132  1.00 38.11 LIG 0.40  C 
ATOM     20  CB  ALA B   2      -4.014  32.102  70.923  1.00 38.97 LIG 0.06  C 
ATOM     21  N   ALA B   2      -4.056  32.422  73.460  1.00 37.81 LIG 0.61  N 
ENDBRANCH 16 19
ENDBRANCH 14 15
BRANCH 14 22
ATOM     22  CB  TRP B   3      -7.182  36.575  73.680  1.00 31.58 LIG 0.07  C 
BRANCH 22 23
ATOM     23  CG  TRP B   3      -7.361  38.017  73.661  1.00 30.60 LIG-0.03  A 
ATOM     24  CD1 TRP B   3      -8.265  38.715  72.949  1.00 31.03 LIG 0.10  A 
ATOM     25  NE1 TRP B   3      -8.086  40.063  73.153  1.00 29.84 LIG-0.36  N 
ATOM     26 HE1  TRP B   3      -8.552  40.692  72.794  1.00 29.84 LIG 0.17  HD
ATOM     27  CE2 TRP B   3      -7.044  40.237  74.019  1.00 27.79 LIG 0.04  A 
ATOM     28  CD2 TRP B   3      -6.572  38.971  74.361  1.00 28.46 LIG-0.00  A 
ATOM     29  CZ2 TRP B   3      -6.497  41.404  74.531  1.00 27.89 LIG 0.03  A 
ATOM     30  CE3 TRP B   3      -5.496  38.869  75.224  1.00 31.78 LIG 0.01  A 
ATOM     31  CZ3 TRP B   3      -4.965  40.018  75.755  1.00 30.70 LIG 0.00  A 
ATOM     32  CH2 TRP B   3      -5.453  41.276  75.380  1.00 27.16 LIG 0.00  A 
ENDBRANCH 22 23
ENDBRANCH 14 22
ENDBRANCH 11 14
ENDBRANCH 5 10
ENDBRANCH 1 5
BRANCH 3 33
ATOM     33  CA  PHE B   5      -2.669  37.479  68.615  1.00 32.14 LIG 0.18  C 
BRANCH 33 34
ATOM     34  C   PHE B   5      -3.399  37.984  67.386  1.00 34.99 LIG 0.24  C 
ATOM     35 O    PHE B   5      -4.613  38.205  67.455  1.00 34.76 LIG-0.27  OA
ATOM     36  N   GLU B   6      -2.650  38.202  66.294  1.00 37.97 LIG-0.35  N 
ATOM     37 H    GLU B   6      -1.803  38.349  66.336  1.00 37.97 LIG 0.16  HD
BRANCH 36 38
ATOM     38  CA  GLU B   6      -3.174  38.219  64.906  1.00 41.44 LIG 0.18  C 
BRANCH 38 39
ATOM     39  C   GLU B   6      -4.199  39.377  64.845  1.00 42.63 LIG 0.24  C 
ATOM     40  N   ALA B   7      -3.863  40.512  65.459  1.00 44.72 LIG-0.35  N 
ATOM     41 H    ALA B   7      -3.079  40.697  65.761  1.00 44.72 LIG 0.16  HD
ATOM     42 O    GLU B   6      -5.321  39.231  64.318  1.00 39.57 LIG-0.27  OA
BRANCH 40 43
ATOM     43  CA  ALA B   7      -4.906  41.586  65.662  1.00 46.42 LIG 0.16  C 
ATOM     44  CB  ALA B   7      -5.931  41.167  66.738  1.00 46.36 LIG 0.04  C 
BRANCH 43 45
ATOM     45  C   ALA B   7      -4.287  42.938  65.966  1.00 46.87 LIG 0.22  C 
ATOM     46 O    ALA B   7      -3.748  43.113  67.061  1.00 48.90 LIG-0.29  OA
ENDBRANCH 43 45
ENDBRANCH 40 43
ENDBRANCH 38 39
BRANCH 38 47
ATOM     47  CB  GLU B   6      -3.829  36.892  64.508  1.00 42.54 LIG 0.04  C 
BRANCH 47 48
ATOM     48  CG  GLU B   6      -2.805  35.879  63.889  1.00 48.04 LIG 0.12  C 
BRANCH 48 49
ATOM     49  CD  GLU B   6      -2.059  34.985  64.894  1.00 53.57 LIG 0.17  C 
ATOM     50 OE2  GLU B   6      -2.770  34.359  65.745  1.00 60.38 LIG-0.65  OA
ATOM     51 OE1  GLU B   6      -0.807  34.858  64.843  1.00 57.14 LIG-0.65  OA
ENDBRANCH 48 49
ENDBRANCH 47 48
ENDBRANCH 38 47
ENDBRANCH 36 38
ENDBRANCH 33 34
BRANCH 33 52
ATOM     52  CB  PHE B   5      -2.547  35.950  68.466  1.00 32.62 LIG 0.07  C 
BRANCH 52 53
ATOM     53  CG  PHE B   5      -1.176  35.404  68.741  1.00 30.35 LIG-0.06  A 
ATOM     54  CD1 PHE B   5      -0.598  34.471  67.913  1.00 31.18 LIG 0.01  A 
ATOM     55  CE1 PHE B   5       0.664  33.961  68.196  1.00 30.23 LIG 0.00  A 
ATOM     56  CZ  PHE B   5       1.383  34.390  69.329  1.00 31.30 LIG 0.00  A 
ATOM     57  CE2 PHE B   5       0.781  35.300  70.198  1.00 30.12 LIG 0.00  A 
ATOM     58  CD2 PHE B   5      -0.484  35.796  69.891  1.00 31.88 LIG 0.01  A 
ENDBRANCH 52 53
ENDBRANCH 33 52
ENDBRANCH 3 33
TORSDOF 20
ENDMDL
MODEL 25
USER: ADFR SOLUTION from run 173
USER: SCORE 20.007674 LL:  -4.768 LR: -15.597 RR:   0.000 FEB:  -9.631
USER: RMSD 8.262155
USER: SEED 172
USER: STATUS no improvement in best in 7 clusters for 5 generations
USER: GENES 22
USER: genes 0 Translation |==|  0.48090 0.57335 0.50589
USER: genes 1 Rotation |==|  0.58481 0.58106 0.96400 0.64470
USER: genes 2 Torsion [N]-C--CA-[N] |==|  0.32074
USER: genes 3 Torsion [C]-CA--CB-[CG] |==|  0.37933
USER: genes 4 Torsion [CA]-CB--CG-[CD2] |==|  0.97087
USER: genes 5 Torsion [C]-CA--N-[C] |==|  0.68889
USER: genes 6 Torsion [N]-C--CA-[N] |==|  0.01110
USER: genes 7 Torsion [C]-CA--N-[C] |==|  0.77015
USER: genes 8 Torsion [N]-C--CA-[N] |==|  0.16935
USER: genes 9 Torsion [C]-CA--CB-[CG] |==|  0.85262
USER: genes 10 Torsion [CA]-CB--CG-[CD1] |==|  0.77769
USER: genes 11 Torsion [C]-N--CA-[CB] |==|  0.83503
USER: genes 12 Torsion [N]-CA--C-[N] |==|  0.34522
USER: genes 13 Torsion [C]-N--CA-[C] |==|  0.82375
USER: genes 14 Torsion [N]-CA--C-[N] |==|  0.36046
USER: genes 15 Torsion [C]-N--CA-[C] |==|  0.84899
USER: genes 16 Torsion [N]-CA--C-[O] |==|  0.63024
USER: genes 17 Torsion [N]-CA--CB-[CG] |==|  0.80975
USER: genes 18 Torsion [CA]-CB--CG-[CD] |==|  0.25579
USER: genes 19 Torsion [CB]-CG--CD-[OE2] |==|  0.94883
USER: genes 20 Torsion [N]-CA--CB-[CG] |==|  0.65740
USER: genes 21 Torsion [CA]-CB--CG-[CD2] |==|  0.32259
ROOT
ATOM      1  C   LEU B   4      -3.300  37.038  67.979  1.00 29.18 LIG 0.24  C 
ATOM      2 O    LEU B   4      -4.361  36.425  67.838  1.00 28.54 LIG-0.27  OA
ATOM      3  N   PHE B   5      -2.910  38.007  67.153  1.00 29.99 LIG-0.35  N 
ATOM      4 H    PHE B   5      -2.128  38.365  67.163  1.00 29.99 LIG 0.16  HD
ENDROOT
BRANCH 1 5
ATOM      5  CA  LEU B   4      -2.355  36.667  69.139  1.00 28.82 LIG 0.18  C 
BRANCH 5 6
ATOM      6  CB  LEU B   4      -1.924  35.225  69.017  1.00 28.29 LIG 0.04  C 
BRANCH 6 7
ATOM      7  CG  LEU B   4      -0.426  34.983  69.282  1.00 28.88 LIG-0.02  C 
ATOM      8  CD2 LEU B   4       0.278  36.328  69.346  1.00 30.37 LIG 0.01  C 
ATOM      9  CD1 LEU B   4       0.259  34.064  68.239  1.00 31.50 LIG 0.01  C 
ENDBRANCH 6 7
ENDBRANCH 5 6
BRANCH 5 10
ATOM     10  N   LEU B   4      -2.917  36.946  70.457  1.00 28.20 LIG-0.35  N 
ATOM     11  C   TRP B   3      -2.414  37.892  71.225  1.00 29.51 LIG 0.24  C 
ATOM     12 O    TRP B   3      -1.491  38.612  70.857  1.00 30.32 LIG-0.27  OA
ATOM     13 H    LEU B   4      -3.585  36.450  70.675  1.00 28.20 LIG 0.16  HD
BRANCH 11 14
ATOM     14  CA  TRP B   3      -3.014  38.027  72.634  1.00 31.78 LIG 0.18  C 
BRANCH 14 15
ATOM     15  N   TRP B   3      -4.010  36.954  72.861  1.00 33.85 LIG-0.35  N 
ATOM     16  C   ALA B   2      -5.255  37.149  72.389  1.00 37.00 LIG 0.26  C 
ATOM     17 O    ALA B   2      -5.572  38.233  71.827  1.00 38.56 LIG-0.27  OA
ATOM     18 H    TRP B   3      -3.732  36.261  73.288  1.00 33.85 LIG 0.16  HD
BRANCH 16 19
ATOM     19  CA  ALA B   2      -6.298  36.073  72.523  1.00 38.11 LIG 0.40  C 
ATOM     20  CB  ALA B   2      -7.581  36.477  71.670  1.00 38.97 LIG 0.06  C 
ATOM     21  N   ALA B   2      -6.696  35.610  73.908  1.00 37.81 LIG 0.61  N 
ENDBRANCH 16 19
ENDBRANCH 14 15
BRANCH 14 22
ATOM     22  CB  TRP B   3      -1.872  38.011  73.673  1.00 31.58 LIG 0.07  C 
BRANCH 22 23
ATOM     23  CG  TRP B   3      -0.996  36.860  73.526  1.00 30.60 LIG-0.03  A 
ATOM     24  CD1 TRP B   3      -1.220  35.607  73.964  1.00 31.03 LIG 0.10  A 
ATOM     25  NE1 TRP B   3      -0.134  34.810  73.685  1.00 29.84 LIG-0.36  N 
ATOM     26 HE1  TRP B   3      -0.062  33.975  73.878  1.00 29.84 LIG 0.17  HD
ATOM     27  CE2 TRP B   3       0.809  35.567  73.051  1.00 27.79 LIG 0.04  A 
ATOM     28  CD2 TRP B   3       0.295  36.858  72.931  1.00 28.46 LIG-0.00  A 
ATOM     29  CZ2 TRP B   3       2.059  35.211  72.568  1.00 27.89 LIG 0.03  A 
ATOM     30  CE3 TRP B   3       1.071  37.833  72.331  1.00 31.78 LIG 0.01  A 
ATOM     31  CZ3 TRP B   3       2.299  37.483  71.829  1.00 30.70 LIG 0.00  A 
ATOM     32  CH2 TRP B   3       2.792  36.181  71.978  1.00 27.16 LIG 0.00  A 
ENDBRANCH 22 23
ENDBRANCH 14 22
ENDBRANCH 11 14
ENDBRANCH 5 10
ENDBRANCH 1 5
BRANCH 3 33
ATOM     33  CA  PHE B   5      -3.825  38.554  66.128  1.00 32.14 LIG 0.18  C 
BRANCH 33 34
ATOM     34  C   PHE B   5      -5.066  39.215  66.694  1.00 34.99 LIG 0.24  C 
ATOM     35 O    PHE B   5      -5.779  38.583  67.481  1.00 34.76 LIG-0.27  OA
ATOM     36  N   GLU B   6      -5.286  40.486  66.326  1.00 37.97 LIG-0.35  N 
ATOM     37 H    GLU B   6      -4.656  41.004  66.051  1.00 37.97 LIG 0.16  HD
BRANCH 36 38
ATOM     38  CA  GLU B   6      -6.614  41.148  66.345  1.00 41.44 LIG 0.18  C 
BRANCH 38 39
ATOM     39  C   GLU B   6      -7.495  40.382  65.330  1.00 42.63 LIG 0.24  C 
ATOM     40  N   ALA B   7      -8.693  39.980  65.754  1.00 44.72 LIG-0.35  N 
ATOM     41 H    ALA B   7      -9.067  40.229  66.488  1.00 44.72 LIG 0.16  HD
ATOM     42 O    GLU B   6      -7.074  40.081  64.194  1.00 39.57 LIG-0.27  OA
BRANCH 40 43
ATOM     43  CA  ALA B   7      -9.495  39.013  64.914  1.00 46.42 LIG 0.16  C 
ATOM     44  CB  ALA B   7     -10.840  38.672  65.591  1.00 46.36 LIG 0.04  C 
BRANCH 43 45
ATOM     45  C   ALA B   7      -9.687  39.510  63.492  1.00 46.87 LIG 0.22  C 
ATOM     46 O    ALA B   7     -10.813  39.459  62.991  1.00 48.90 LIG-0.29  OA
ENDBRANCH 43 45
ENDBRANCH 40 43
ENDBRANCH 38 39
BRANCH 38 47
ATOM     47  CB  GLU B   6      -6.536  42.636  65.985  1.00 42.54 LIG 0.04  C 
BRANCH 47 48
ATOM     48  CG  GLU B   6      -5.808  43.483  67.084  1.00 48.04 LIG 0.12  C 
BRANCH 48 49
ATOM     49  CD  GLU B   6      -4.294  43.669  66.891  1.00 53.57 LIG 0.17  C 
ATOM     50 OE2  GLU B   6      -3.711  42.856  66.104  1.00 60.38 LIG-0.65  OA
ATOM     51 OE1  GLU B   6      -3.678  44.608  67.462  1.00 57.14 LIG-0.65  OA
ENDBRANCH 48 49
ENDBRANCH 47 48
ENDBRANCH 38 47
ENDBRANCH 36 38
ENDBRANCH 33 34
BRANCH 33 52
ATOM     52  CB  PHE B   5      -4.304  37.464  65.150  1.00 32.62 LIG 0.07  C 
BRANCH 52 53
ATOM     53  CG  PHE B   5      -4.014  37.750  63.706  1.00 30.35 LIG-0.06  A 
ATOM     54  CD1 PHE B   5      -4.630  38.787  63.045  1.00 31.18 LIG 0.01  A 
ATOM     55  CE1 PHE B   5      -4.365  39.024  61.700  1.00 30.23 LIG 0.00  A 
ATOM     56  CZ  PHE B   5      -3.458  38.217  60.986  1.00 31.30 LIG 0.00  A 
ATOM     57  CE2 PHE B   5      -2.868  37.134  61.639  1.00 30.12 LIG 0.00  A 
ATOM     58  CD2 PHE B   5      -3.151  36.919  62.987  1.00 31.88 LIG 0.01  A 
ENDBRANCH 52 53
ENDBRANCH 33 52
ENDBRANCH 3 33
TORSDOF 20
ENDMDL
MODEL 26
USER: ADFR SOLUTION from run 89
USER: SCORE 19.908565 LL:  -5.257 LR: -15.569 RR:   0.000 FEB:  -9.603
USER: RMSD 9.441791
USER: SEED 88
USER: STATUS no improvement in best in 5 clusters for 5 generations
USER: GENES 22
USER: genes 0 Translation |==|  0.60055 0.56795 0.63802
USER: genes 1 Rotation |==|  0.32565 0.05163 0.63010 0.54053
USER: genes 2 Torsion [N]-C--CA-[N] |==|  0.26022
USER: genes 3 Torsion [C]-CA--CB-[CG] |==|  0.18280
USER: genes 4 Torsion [CA]-CB--CG-[CD2] |==|  0.54200
USER: genes 5 Torsion [C]-CA--N-[C] |==|  0.75679
USER: genes 6 Torsion [N]-C--CA-[N] |==|  0.98409
USER: genes 7 Torsion [C]-CA--N-[C] |==|  0.62266
USER: genes 8 Torsion [N]-C--CA-[N] |==|  0.25696
USER: genes 9 Torsion [C]-CA--CB-[CG] |==|  0.76418
USER: genes 10 Torsion [CA]-CB--CG-[CD1] |==|  0.71525
USER: genes 11 Torsion [C]-N--CA-[CB] |==|  0.81649
USER: genes 12 Torsion [N]-CA--C-[N] |==|  0.42583
USER: genes 13 Torsion [C]-N--CA-[C] |==|  0.77648
USER: genes 14 Torsion [N]-CA--C-[N] |==|  0.18445
USER: genes 15 Torsion [C]-N--CA-[C] |==|  0.55890
USER: genes 16 Torsion [N]-CA--C-[O] |==|  0.13184
USER: genes 17 Torsion [N]-CA--CB-[CG] |==|  0.52766
USER: genes 18 Torsion [CA]-CB--CG-[CD] |==|  0.18897
USER: genes 19 Torsion [CB]-CG--CD-[OE2] |==|  0.68866
USER: genes 20 Torsion [N]-CA--CB-[CG] |==|  0.93937
USER: genes 21 Torsion [CA]-CB--CG-[CD2] |==|  0.83897
ROOT
ATOM      1  C   LEU B   4      -0.967  36.933  70.951  1.00 29.18 LIG 0.24  C 
ATOM      2 O    LEU B   4      -0.518  38.079  71.029  1.00 28.54 LIG-0.27  OA
ATOM      3  N   PHE B   5      -1.652  36.357  71.937  1.00 29.99 LIG-0.35  N 
ATOM      4 H    PHE B   5      -1.872  35.526  71.951  1.00 29.99 LIG 0.16  HD
ENDROOT
BRANCH 1 5
ATOM      5  CA  LEU B   4      -0.716  36.102  69.677  1.00 28.82 LIG 0.18  C 
BRANCH 5 6
ATOM      6  CB  LEU B   4       0.679  36.357  69.157  1.00 28.29 LIG 0.04  C 
BRANCH 6 7
ATOM      7  CG  LEU B   4       1.805  35.867  70.086  1.00 28.88 LIG-0.02  C 
ATOM      8  CD2 LEU B   4       3.111  36.505  69.644  1.00 30.37 LIG 0.01  C 
ATOM      9  CD1 LEU B   4       1.949  34.325  70.144  1.00 31.50 LIG 0.01  C 
ENDBRANCH 6 7
ENDBRANCH 5 6
BRANCH 5 10
ATOM     10  N   LEU B   4      -1.719  36.314  68.638  1.00 28.20 LIG-0.35  N 
ATOM     11  C   TRP B   3      -2.829  35.603  68.609  1.00 29.51 LIG 0.24  C 
ATOM     12 O    TRP B   3      -3.096  34.772  69.471  1.00 30.32 LIG-0.27  OA
ATOM     13 H    LEU B   4      -1.522  36.927  68.068  1.00 28.20 LIG 0.16  HD
BRANCH 11 14
ATOM     14  CA  TRP B   3      -3.764  35.836  67.412  1.00 31.78 LIG 0.18  C 
BRANCH 14 15
ATOM     15  N   TRP B   3      -3.253  36.953  66.584  1.00 33.85 LIG-0.35  N 
ATOM     16  C   ALA B   2      -4.143  37.866  66.151  1.00 37.00 LIG 0.26  C 
ATOM     17 O    ALA B   2      -5.374  37.735  66.393  1.00 38.56 LIG-0.27  OA
ATOM     18 H    TRP B   3      -2.408  36.954  66.425  1.00 33.85 LIG 0.16  HD
BRANCH 16 19
ATOM     19  CA  ALA B   2      -3.684  39.064  65.365  1.00 38.11 LIG 0.40  C 
ATOM     20  CB  ALA B   2      -4.486  40.350  65.853  1.00 38.97 LIG 0.06  C 
ATOM     21  N   ALA B   2      -3.666  38.983  63.853  1.00 37.81 LIG 0.61  N 
ENDBRANCH 16 19
ENDBRANCH 14 15
BRANCH 14 22
ATOM     22  CB  TRP B   3      -3.903  34.520  66.616  1.00 31.58 LIG 0.07  C 
BRANCH 22 23
ATOM     23  CG  TRP B   3      -2.832  34.331  65.652  1.00 30.60 LIG-0.03  A 
ATOM     24  CD1 TRP B   3      -2.893  34.523  64.321  1.00 31.03 LIG 0.10  A 
ATOM     25  NE1 TRP B   3      -1.693  34.185  63.741  1.00 29.84 LIG-0.36  N 
ATOM     26 HE1  TRP B   3      -1.511  34.229  62.901  1.00 29.84 LIG 0.17  HD
ATOM     27  CE2 TRP B   3      -0.838  33.770  64.722  1.00 27.79 LIG 0.04  A 
ATOM     28  CD2 TRP B   3      -1.522  33.855  65.934  1.00 28.46 LIG-0.00  A 
ATOM     29  CZ2 TRP B   3       0.478  33.342  64.634  1.00 27.89 LIG 0.03  A 
ATOM     30  CE3 TRP B   3      -0.875  33.473  67.095  1.00 31.78 LIG 0.01  A 
ATOM     31  CZ3 TRP B   3       0.435  33.071  67.019  1.00 30.70 LIG 0.00  A 
ATOM     32  CH2 TRP B   3       1.090  32.983  65.784  1.00 27.16 LIG 0.00  A 
ENDBRANCH 22 23
ENDBRANCH 14 22
ENDBRANCH 11 14
ENDBRANCH 5 10
ENDBRANCH 1 5
BRANCH 3 33
ATOM     33  CA  PHE B   5      -2.098  37.131  73.115  1.00 32.14 LIG 0.18  C 
BRANCH 33 34
ATOM     34  C   PHE B   5      -2.930  38.351  72.775  1.00 34.99 LIG 0.24  C 
ATOM     35 O    PHE B   5      -2.806  38.875  71.663  1.00 34.76 LIG-0.27  OA
ATOM     36  N   GLU B   6      -3.798  38.762  73.713  1.00 37.97 LIG-0.35  N 
ATOM     37 H    GLU B   6      -4.100  38.239  74.325  1.00 37.97 LIG 0.16  HD
BRANCH 36 38
ATOM     38  CA  GLU B   6      -4.335  40.143  73.813  1.00 41.44 LIG 0.18  C 
BRANCH 38 39
ATOM     39  C   GLU B   6      -3.242  40.983  74.516  1.00 42.63 LIG 0.24  C 
ATOM     40  N   ALA B   7      -2.100  41.164  73.850  1.00 44.72 LIG-0.35  N 
ATOM     41 H    ALA B   7      -1.977  40.975  73.021  1.00 44.72 LIG 0.16  HD
ATOM     42 O    GLU B   6      -3.386  41.401  75.683  1.00 39.57 LIG-0.27  OA
BRANCH 40 43
ATOM     43  CA  ALA B   7      -0.905  41.746  74.567  1.00 46.42 LIG 0.16  C 
ATOM     44  CB  ALA B   7      -0.252  40.700  75.497  1.00 46.36 LIG 0.04  C 
BRANCH 43 45
ATOM     45  C   ALA B   7       0.101  42.355  73.607  1.00 46.87 LIG 0.22  C 
ATOM     46 O    ALA B   7      -0.303  43.110  72.721  1.00 48.90 LIG-0.29  OA
ENDBRANCH 43 45
ENDBRANCH 40 43
ENDBRANCH 38 39
BRANCH 38 47
ATOM     47  CB  GLU B   6      -5.654  40.206  74.591  1.00 42.54 LIG 0.04  C 
BRANCH 47 48
ATOM     48  CG  GLU B   6      -6.346  41.608  74.485  1.00 48.04 LIG 0.12  C 
BRANCH 48 49
ATOM     49  CD  GLU B   6      -6.889  41.983  73.096  1.00 53.57 LIG 0.17  C 
ATOM     50 OE2  GLU B   6      -6.303  42.936  72.488  1.00 60.38 LIG-0.65  OA
ATOM     51 OE1  GLU B   6      -7.845  41.345  72.580  1.00 57.14 LIG-0.65  OA
ENDBRANCH 48 49
ENDBRANCH 47 48
ENDBRANCH 38 47
ENDBRANCH 36 38
ENDBRANCH 33 34
BRANCH 33 52
ATOM     52  CB  PHE B   5      -0.906  37.623  73.959  1.00 32.62 LIG 0.07  C 
BRANCH 52 53
ATOM     53  CG  PHE B   5       0.360  36.842  73.764  1.00 30.35 LIG-0.06  A 
ATOM     54  CD1 PHE B   5       1.504  37.440  73.290  1.00 31.18 LIG 0.01  A 
ATOM     55  CE1 PHE B   5       2.662  36.696  73.095  1.00 30.23 LIG 0.00  A 
ATOM     56  CZ  PHE B   5       2.697  35.318  73.385  1.00 31.30 LIG 0.00  A 
ATOM     57  CE2 PHE B   5       1.525  34.696  73.820  1.00 30.12 LIG 0.00  A 
ATOM     58  CD2 PHE B   5       0.378  35.465  74.007  1.00 31.88 LIG 0.01  A 
ENDBRANCH 52 53
ENDBRANCH 33 52
ENDBRANCH 3 33
TORSDOF 20
ENDMDL
MODEL 27
USER: ADFR SOLUTION from run 170
USER: SCORE 19.296618 LL:  -4.594 LR: -15.549 RR:   0.000 FEB:  -9.583
USER: RMSD 8.753492
USER: SEED 169
USER: STATUS no improvement in best in 17 clusters for 5 generations
USER: GENES 22
USER: genes 0 Translation |==|  0.53369 0.58491 0.63117
USER: genes 1 Rotation |==|  0.39982 0.04343 0.64759 0.59860
USER: genes 2 Torsion [N]-C--CA-[N] |==|  0.39387
USER: genes 3 Torsion [C]-CA--CB-[CG] |==|  0.31366
USER: genes 4 Torsion [CA]-CB--CG-[CD2] |==|  0.85244
USER: genes 5 Torsion [C]-CA--N-[C] |==|  0.80499
USER: genes 6 Torsion [N]-C--CA-[N] |==|  0.16573
USER: genes 7 Torsion [C]-CA--N-[C] |==|  0.73507
USER: genes 8 Torsion [N]-C--CA-[N] |==|  0.91541
USER: genes 9 Torsion [C]-CA--CB-[CG] |==|  0.33020
USER: genes 10 Torsion [CA]-CB--CG-[CD1] |==|  0.54498
USER: genes 11 Torsion [C]-N--CA-[CB] |==|  0.79444
USER: genes 12 Torsion [N]-CA--C-[N] |==|  0.51044
USER: genes 13 Torsion [C]-N--CA-[C] |==|  0.70437
USER: genes 14 Torsion [N]-CA--C-[N] |==|  0.04958
USER: genes 15 Torsion [C]-N--CA-[C] |==|  0.72866
USER: genes 16 Torsion [N]-CA--C-[O] |==|  0.03610
USER: genes 17 Torsion [N]-CA--CB-[CG] |==|  0.69646
USER: genes 18 Torsion [CA]-CB--CG-[CD] |==|  0.91162
USER: genes 19 Torsion [CB]-CG--CD-[OE2] |==|  0.91770
USER: genes 20 Torsion [N]-CA--CB-[CG] |==|  0.95996
USER: genes 21 Torsion [CA]-CB--CG-[CD2] |==|  0.30117
ROOT
ATOM      1  C   LEU B   4      -2.271  37.264  70.797  1.00 29.18 LIG 0.24  C 
ATOM      2 O    LEU B   4      -2.072  38.481  70.834  1.00 28.54 LIG-0.27  OA
ATOM      3  N   PHE B   5      -2.482  36.532  71.889  1.00 29.99 LIG-0.35  N 
ATOM      4 H    PHE B   5      -2.507  35.672  71.897  1.00 29.99 LIG 0.16  HD
ENDROOT
BRANCH 1 5
ATOM      5  CA  LEU B   4      -2.254  36.531  69.440  1.00 28.82 LIG 0.18  C 
BRANCH 5 6
ATOM      6  CB  LEU B   4      -0.842  36.131  69.083  1.00 28.29 LIG 0.04  C 
BRANCH 6 7
ATOM      7  CG  LEU B   4      -0.594  34.611  69.075  1.00 28.88 LIG-0.02  C 
ATOM      8  CD2 LEU B   4      -1.047  34.038  70.408  1.00 30.37 LIG 0.01  C 
ATOM      9  CD1 LEU B   4       0.876  34.213  68.787  1.00 31.50 LIG 0.01  C 
ENDBRANCH 6 7
ENDBRANCH 5 6
BRANCH 5 10
ATOM     10  N   LEU B   4      -2.881  37.291  68.363  1.00 28.20 LIG-0.35  N 
ATOM     11  C   TRP B   3      -4.185  37.481  68.335  1.00 29.51 LIG 0.24  C 
ATOM     12 O    TRP B   3      -4.925  37.079  69.227  1.00 30.32 LIG-0.27  OA
ATOM     13 H    LEU B   4      -2.335  37.591  67.770  1.00 28.20 LIG 0.16  HD
BRANCH 11 14
ATOM     14  CA  TRP B   3      -4.749  38.202  67.100  1.00 31.78 LIG 0.18  C 
BRANCH 14 15
ATOM     15  N   TRP B   3      -4.427  37.431  65.877  1.00 33.85 LIG-0.35  N 
ATOM     16  C   ALA B   2      -3.327  37.786  65.187  1.00 37.00 LIG 0.26  C 
ATOM     17 O    ALA B   2      -2.634  38.779  65.541  1.00 38.56 LIG-0.27  OA
ATOM     18 H    TRP B   3      -4.968  36.794  65.675  1.00 33.85 LIG 0.16  HD
BRANCH 16 19
ATOM     19  CA  ALA B   2      -2.902  37.003  63.975  1.00 38.11 LIG 0.40  C 
ATOM     20  CB  ALA B   2      -3.418  37.745  62.663  1.00 38.97 LIG 0.06  C 
ATOM     21  N   ALA B   2      -3.215  35.523  63.914  1.00 37.81 LIG 0.61  N 
ENDBRANCH 16 19
ENDBRANCH 14 15
BRANCH 14 22
ATOM     22  CB  TRP B   3      -6.267  38.415  67.288  1.00 31.58 LIG 0.07  C 
BRANCH 22 23
ATOM     23  CG  TRP B   3      -6.641  39.819  67.289  1.00 30.60 LIG-0.03  A 
ATOM     24  CD1 TRP B   3      -7.799  40.352  67.722  1.00 31.03 LIG 0.10  A 
ATOM     25  NE1 TRP B   3      -7.803  41.710  67.507  1.00 29.84 LIG-0.36  N 
ATOM     26 HE1  TRP B   3      -8.444  42.248  67.706  1.00 29.84 LIG 0.17  HD
ATOM     27  CE2 TRP B   3      -6.618  42.060  66.925  1.00 27.79 LIG 0.04  A 
ATOM     28  CD2 TRP B   3      -5.865  40.896  66.780  1.00 28.46 LIG-0.00  A 
ATOM     29  CZ2 TRP B   3      -6.154  43.306  66.530  1.00 27.89 LIG 0.03  A 
ATOM     30  CE3 TRP B   3      -4.614  40.977  66.195  1.00 31.78 LIG 0.01  A 
ATOM     31  CZ3 TRP B   3      -4.138  42.209  65.824  1.00 30.70 LIG 0.00  A 
ATOM     32  CH2 TRP B   3      -4.925  43.359  65.970  1.00 27.16 LIG 0.00  A 
ENDBRANCH 22 23
ENDBRANCH 14 22
ENDBRANCH 11 14
ENDBRANCH 5 10
ENDBRANCH 1 5
BRANCH 3 33
ATOM     33  CA  PHE B   5      -2.697  37.167  73.207  1.00 32.14 LIG 0.18  C 
BRANCH 33 34
ATOM     34  C   PHE B   5      -3.699  38.304  73.191  1.00 34.99 LIG 0.24  C 
ATOM     35 O    PHE B   5      -4.326  38.540  72.152  1.00 34.76 LIG-0.27  OA
ATOM     36  N   GLU B   6      -3.872  38.964  74.346  1.00 37.97 LIG-0.35  N 
ATOM     37 H    GLU B   6      -3.686  38.616  75.110  1.00 37.97 LIG 0.16  HD
BRANCH 36 38
ATOM     38  CA  GLU B   6      -4.394  40.349  74.452  1.00 41.44 LIG 0.18  C 
BRANCH 38 39
ATOM     39  C   GLU B   6      -3.183  41.243  74.809  1.00 42.63 LIG 0.24  C 
ATOM     40  N   ALA B   7      -1.971  40.733  74.585  1.00 44.72 LIG-0.35  N 
ATOM     41 H    ALA B   7      -1.812  40.017  74.137  1.00 44.72 LIG 0.16  HD
ATOM     42 O    GLU B   6      -3.328  42.355  75.356  1.00 39.57 LIG-0.27  OA
BRANCH 40 43
ATOM     43  CA  ALA B   7      -0.754  41.434  75.142  1.00 46.42 LIG 0.16  C 
ATOM     44  CB  ALA B   7       0.233  40.422  75.764  1.00 46.36 LIG 0.04  C 
BRANCH 43 45
ATOM     45  C   ALA B   7      -0.079  42.321  74.111  1.00 46.87 LIG 0.22  C 
ATOM     46 O    ALA B   7      -0.678  42.579  73.065  1.00 48.90 LIG-0.29  OA
ENDBRANCH 43 45
ENDBRANCH 40 43
ENDBRANCH 38 39
BRANCH 38 47
ATOM     47  CB  GLU B   6      -5.499  40.483  75.506  1.00 42.54 LIG 0.04  C 
BRANCH 47 48
ATOM     48  CG  GLU B   6      -6.911  40.718  74.870  1.00 48.04 LIG 0.12  C 
BRANCH 48 49
ATOM     49  CD  GLU B   6      -6.927  41.502  73.547  1.00 53.57 LIG 0.17  C 
ATOM     50 OE2  GLU B   6      -5.998  42.354  73.373  1.00 60.38 LIG-0.65  OA
ATOM     51 OE1  GLU B   6      -7.802  41.275  72.669  1.00 57.14 LIG-0.65  OA
ENDBRANCH 48 49
ENDBRANCH 47 48
ENDBRANCH 38 47
ENDBRANCH 36 38
ENDBRANCH 33 34
BRANCH 33 52
ATOM     52  CB  PHE B   5      -1.387  37.733  73.789  1.00 32.62 LIG 0.07  C 
BRANCH 52 53
ATOM     53  CG  PHE B   5      -0.142  37.246  73.107  1.00 30.35 LIG-0.06  A 
ATOM     54  CD1 PHE B   5       0.333  35.972  73.311  1.00 31.18 LIG 0.01  A 
ATOM     55  CE1 PHE B   5       1.502  35.546  72.688  1.00 30.23 LIG 0.00  A 
ATOM     56  CZ  PHE B   5       2.221  36.402  71.831  1.00 31.30 LIG 0.00  A 
ATOM     57  CE2 PHE B   5       1.770  37.711  71.660  1.00 30.12 LIG 0.00  A 
ATOM     58  CD2 PHE B   5       0.596  38.112  72.295  1.00 31.88 LIG 0.01  A 
ENDBRANCH 52 53
ENDBRANCH 33 52
ENDBRANCH 3 33
TORSDOF 20
ENDMDL
MODEL 28
USER: ADFR SOLUTION from run 69
USER: SCORE 19.087679 LL:  -4.532 LR: -15.521 RR:   0.000 FEB:  -9.555
USER: RMSD 9.117858
USER: SEED 68
USER: STATUS 1 or 2 clusters left
USER: GENES 22
USER: genes 0 Translation |==|  0.53278 0.58663 0.67127
USER: genes 1 Rotation |==|  0.68178 0.94634 0.40613 0.59449
USER: genes 2 Torsion [N]-C--CA-[N] |==|  0.17222
USER: genes 3 Torsion [C]-CA--CB-[CG] |==|  0.37675
USER: genes 4 Torsion [CA]-CB--CG-[CD2] |==|  0.67293
USER: genes 5 Torsion [C]-CA--N-[C] |==|  0.13113
USER: genes 6 Torsion [N]-C--CA-[N] |==|  0.10232
USER: genes 7 Torsion [C]-CA--N-[C] |==|  0.16970
USER: genes 8 Torsion [N]-C--CA-[N] |==|  0.21930
USER: genes 9 Torsion [C]-CA--CB-[CG] |==|  0.19807
USER: genes 10 Torsion [CA]-CB--CG-[CD1] |==|  0.06712
USER: genes 11 Torsion [C]-N--CA-[CB] |==|  0.55816
USER: genes 12 Torsion [N]-CA--C-[N] |==|  0.32243
USER: genes 13 Torsion [C]-N--CA-[C] |==|  0.15992
USER: genes 14 Torsion [N]-CA--C-[N] |==|  0.13876
USER: genes 15 Torsion [C]-N--CA-[C] |==|  0.67449
USER: genes 16 Torsion [N]-CA--C-[O] |==|  0.96019
USER: genes 17 Torsion [N]-CA--CB-[CG] |==|  0.81238
USER: genes 18 Torsion [CA]-CB--CG-[CD] |==|  0.95791
USER: genes 19 Torsion [CB]-CG--CD-[OE2] |==|  0.88365
USER: genes 20 Torsion [N]-CA--CB-[CG] |==|  0.62627
USER: genes 21 Torsion [CA]-CB--CG-[CD2] |==|  0.02689
ROOT
ATOM      1  C   LEU B   4      -2.289  37.297  71.700  1.00 29.18 LIG 0.24  C 
ATOM      2 O    LEU B   4      -2.038  38.489  71.898  1.00 28.54 LIG-0.27  OA
ATOM      3  N   PHE B   5      -3.341  36.681  72.234  1.00 29.99 LIG-0.35  N 
ATOM      4 H    PHE B   5      -3.469  35.831  72.205  1.00 29.99 LIG 0.16  HD
ENDROOT
BRANCH 1 5
ATOM      5  CA  LEU B   4      -1.343  36.457  70.817  1.00 28.82 LIG 0.18  C 
BRANCH 5 6
ATOM      6  CB  LEU B   4      -0.118  37.263  70.455  1.00 28.29 LIG 0.04  C 
BRANCH 6 7
ATOM      7  CG  LEU B   4       1.211  36.495  70.582  1.00 28.88 LIG-0.02  C 
ATOM      8  CD2 LEU B   4       2.069  37.183  71.631  1.00 30.37 LIG 0.01  C 
ATOM      9  CD1 LEU B   4       1.991  36.358  69.250  1.00 31.50 LIG 0.01  C 
ENDBRANCH 6 7
ENDBRANCH 5 6
BRANCH 5 10
ATOM     10  N   LEU B   4      -1.991  35.909  69.630  1.00 28.20 LIG-0.35  N 
ATOM     11  C   TRP B   3      -2.747  36.663  68.859  1.00 29.51 LIG 0.24  C 
ATOM     12 O    TRP B   3      -2.904  37.862  69.066  1.00 30.32 LIG-0.27  OA
ATOM     13 H    LEU B   4      -1.835  35.074  69.490  1.00 28.20 LIG 0.16  HD
BRANCH 11 14
ATOM     14  CA  TRP B   3      -3.466  35.957  67.697  1.00 31.78 LIG 0.18  C 
BRANCH 14 15
ATOM     15  N   TRP B   3      -3.902  34.606  68.122  1.00 33.85 LIG-0.35  N 
ATOM     16  C   ALA B   2      -4.770  34.525  69.147  1.00 37.00 LIG 0.26  C 
ATOM     17 O    ALA B   2      -5.149  35.561  69.759  1.00 38.56 LIG-0.27  OA
ATOM     18 H    TRP B   3      -3.570  33.944  67.685  1.00 33.85 LIG 0.16  HD
BRANCH 16 19
ATOM     19  CA  ALA B   2      -5.309  33.190  69.586  1.00 38.11 LIG 0.40  C 
ATOM     20  CB  ALA B   2      -6.743  33.394  70.247  1.00 38.97 LIG 0.06  C 
ATOM     21  N   ALA B   2      -4.440  32.300  70.449  1.00 37.81 LIG 0.61  N 
ENDBRANCH 16 19
ENDBRANCH 14 15
BRANCH 14 22
ATOM     22  CB  TRP B   3      -4.640  36.839  67.219  1.00 31.58 LIG 0.07  C 
BRANCH 22 23
ATOM     23  CG  TRP B   3      -4.197  38.030  66.515  1.00 30.60 LIG-0.03  A 
ATOM     24  CD1 TRP B   3      -3.028  38.207  65.871  1.00 31.03 LIG 0.10  A 
ATOM     25  NE1 TRP B   3      -2.951  39.488  65.378  1.00 29.84 LIG-0.36  N 
ATOM     26 HE1  TRP B   3      -2.291  39.817  64.935  1.00 29.84 LIG 0.17  HD
ATOM     27  CE2 TRP B   3      -4.098  40.151  65.709  1.00 27.79 LIG 0.04  A 
ATOM     28  CD2 TRP B   3      -4.903  39.261  66.419  1.00 28.46 LIG-0.00  A 
ATOM     29  CZ2 TRP B   3      -4.488  41.451  65.428  1.00 27.89 LIG 0.03  A 
ATOM     30  CE3 TRP B   3      -6.129  39.696  66.888  1.00 31.78 LIG 0.01  A 
ATOM     31  CZ3 TRP B   3      -6.533  40.974  66.593  1.00 30.70 LIG 0.00  A 
ATOM     32  CH2 TRP B   3      -5.694  41.849  65.889  1.00 27.16 LIG 0.00  A 
ENDBRANCH 22 23
ENDBRANCH 14 22
ENDBRANCH 11 14
ENDBRANCH 5 10
ENDBRANCH 1 5
BRANCH 3 33
ATOM     33  CA  PHE B   5      -4.396  37.440  72.939  1.00 32.14 LIG 0.18  C 
BRANCH 33 34
ATOM     34  C   PHE B   5      -3.880  38.602  73.762  1.00 34.99 LIG 0.24  C 
ATOM     35 O    PHE B   5      -3.106  38.379  74.700  1.00 34.76 LIG-0.27  OA
ATOM     36  N   GLU B   6      -4.272  39.827  73.379  1.00 37.97 LIG-0.35  N 
ATOM     37 H    GLU B   6      -4.535  39.999  72.578  1.00 37.97 LIG 0.16  HD
BRANCH 36 38
ATOM     38  CA  GLU B   6      -4.304  41.015  74.268  1.00 41.44 LIG 0.18  C 
BRANCH 38 39
ATOM     39  C   GLU B   6      -2.863  41.193  74.804  1.00 42.63 LIG 0.24  C 
ATOM     40  N   ALA B   7      -1.880  41.186  73.902  1.00 44.72 LIG-0.35  N 
ATOM     41 H    ALA B   7      -1.991  41.230  73.051  1.00 44.72 LIG 0.16  HD
ATOM     42 O    GLU B   6      -2.622  41.257  76.026  1.00 39.57 LIG-0.27  OA
BRANCH 40 43
ATOM     43  CA  ALA B   7      -0.446  41.095  74.366  1.00 46.42 LIG 0.16  C 
ATOM     44  CB  ALA B   7       0.220  39.796  73.862  1.00 46.36 LIG 0.04  C 
BRANCH 43 45
ATOM     45  C   ALA B   7       0.360  42.326  73.989  1.00 46.87 LIG 0.22  C 
ATOM     46 O    ALA B   7      -0.104  43.108  73.157  1.00 48.90 LIG-0.29  OA
ENDBRANCH 43 45
ENDBRANCH 40 43
ENDBRANCH 38 39
BRANCH 38 47
ATOM     47  CB  GLU B   6      -5.299  40.859  75.424  1.00 42.54 LIG 0.04  C 
BRANCH 47 48
ATOM     48  CG  GLU B   6      -6.787  40.835  74.936  1.00 48.04 LIG 0.12  C 
BRANCH 48 49
ATOM     49  CD  GLU B   6      -7.027  41.324  73.498  1.00 53.57 LIG 0.17  C 
ATOM     50 OE2  GLU B   6      -6.384  42.358  73.127  1.00 60.38 LIG-0.65  OA
ATOM     51 OE1  GLU B   6      -7.799  40.700  72.721  1.00 57.14 LIG-0.65  OA
ENDBRANCH 48 49
ENDBRANCH 47 48
ENDBRANCH 38 47
ENDBRANCH 36 38
ENDBRANCH 33 34
BRANCH 33 52
ATOM     52  CB  PHE B   5      -5.206  36.540  73.893  1.00 32.62 LIG 0.07  C 
BRANCH 52 53
ATOM     53  CG  PHE B   5      -6.692  36.727  73.815  1.00 30.35 LIG-0.06  A 
ATOM     54  CD1 PHE B   5      -7.539  36.097  74.696  1.00 31.18 LIG 0.01  A 
ATOM     55  CE1 PHE B   5      -8.916  36.264  74.595  1.00 30.23 LIG 0.00  A 
ATOM     56  CZ  PHE B   5      -9.476  37.085  73.597  1.00 31.30 LIG 0.00  A 
ATOM     57  CE2 PHE B   5      -8.624  37.688  72.671  1.00 30.12 LIG 0.00  A 
ATOM     58  CD2 PHE B   5      -7.248  37.504  72.794  1.00 31.88 LIG 0.01  A 
ENDBRANCH 52 53
ENDBRANCH 33 52
ENDBRANCH 3 33
TORSDOF 20
ENDMDL
MODEL 29
USER: ADFR SOLUTION from run 93
USER: SCORE 19.264309 LL:  -5.379 LR: -15.424 RR:   0.000 FEB:  -9.458
USER: RMSD 5.842897
USER: SEED 92
USER: STATUS no improvement in best in 13 clusters for 5 generations
USER: GENES 22
USER: genes 0 Translation |==|  0.54411 0.53548 0.56045
USER: genes 1 Rotation |==|  0.55835 0.64214 0.97563 0.51271
USER: genes 2 Torsion [N]-C--CA-[N] |==|  0.28551
USER: genes 3 Torsion [C]-CA--CB-[CG] |==|  0.34010
USER: genes 4 Torsion [CA]-CB--CG-[CD2] |==|  0.82866
USER: genes 5 Torsion [C]-CA--N-[C] |==|  0.69666
USER: genes 6 Torsion [N]-C--CA-[N] |==|  0.94819
USER: genes 7 Torsion [C]-CA--N-[C] |==|  0.78358
USER: genes 8 Torsion [N]-C--CA-[N] |==|  0.86566
USER: genes 9 Torsion [C]-CA--CB-[CG] |==|  0.90829
USER: genes 10 Torsion [CA]-CB--CG-[CD1] |==|  0.29811
USER: genes 11 Torsion [C]-N--CA-[CB] |==|  0.52430
USER: genes 12 Torsion [N]-CA--C-[N] |==|  0.86401
USER: genes 13 Torsion [C]-N--CA-[C] |==|  0.62186
USER: genes 14 Torsion [N]-CA--C-[N] |==|  0.43732
USER: genes 15 Torsion [C]-N--CA-[C] |==|  0.58985
USER: genes 16 Torsion [N]-CA--C-[O] |==|  0.36693
USER: genes 17 Torsion [N]-CA--CB-[CG] |==|  0.16236
USER: genes 18 Torsion [CA]-CB--CG-[CD] |==|  0.26560
USER: genes 19 Torsion [CB]-CG--CD-[OE2] |==|  0.75127
USER: genes 20 Torsion [N]-CA--CB-[CG] |==|  0.72853
USER: genes 21 Torsion [CA]-CB--CG-[CD2] |==|  0.38318
ROOT
ATOM      1  C   LEU B   4      -2.068  36.300  69.206  1.00 29.18 LIG 0.24  C 
ATOM      2 O    LEU B   4      -2.628  35.202  69.252  1.00 28.54 LIG-0.27  OA
ATOM      3  N   PHE B   5      -2.267  37.173  68.221  1.00 29.99 LIG-0.35  N 
ATOM      4 H    PHE B   5      -1.803  37.888  68.108  1.00 29.99 LIG 0.16  HD
ENDROOT
BRANCH 1 5
ATOM      5  CA  LEU B   4      -1.069  36.690  70.314  1.00 28.82 LIG 0.18  C 
BRANCH 5 6
ATOM      6  CB  LEU B   4      -0.103  35.556  70.567  1.00 28.29 LIG 0.04  C 
BRANCH 6 7
ATOM      7  CG  LEU B   4       1.380  35.930  70.385  1.00 28.88 LIG-0.02  C 
ATOM      8  CD2 LEU B   4       1.600  36.358  68.944  1.00 30.37 LIG 0.01  C 
ATOM      9  CD1 LEU B   4       2.367  34.800  70.771  1.00 31.50 LIG 0.01  C 
ENDBRANCH 6 7
ENDBRANCH 5 6
BRANCH 5 10
ATOM     10  N   LEU B   4      -1.713  37.127  71.549  1.00 28.20 LIG-0.35  N 
ATOM     11  C   TRP B   3      -1.679  38.390  71.924  1.00 29.51 LIG 0.24  C 
ATOM     12 O    TRP B   3      -1.155  39.262  71.239  1.00 30.32 LIG-0.27  OA
ATOM     13 H    LEU B   4      -2.103  36.501  71.991  1.00 28.20 LIG 0.16  HD
BRANCH 11 14
ATOM     14  CA  TRP B   3      -2.297  38.719  73.293  1.00 31.78 LIG 0.18  C 
BRANCH 14 15
ATOM     15  N   TRP B   3      -3.198  37.621  73.715  1.00 33.85 LIG-0.35  N 
ATOM     16  C   ALA B   2      -4.419  37.564  73.151  1.00 37.00 LIG 0.26  C 
ATOM     17 O    ALA B   2      -4.799  38.452  72.340  1.00 38.56 LIG-0.27  OA
ATOM     18 H    TRP B   3      -2.885  37.076  74.303  1.00 33.85 LIG 0.16  HD
BRANCH 16 19
ATOM     19  CA  ALA B   2      -5.359  36.437  73.481  1.00 38.11 LIG 0.40  C 
ATOM     20  CB  ALA B   2      -6.064  36.733  74.878  1.00 38.97 LIG 0.06  C 
ATOM     21  N   ALA B   2      -4.841  35.015  73.431  1.00 37.81 LIG 0.61  N 
ENDBRANCH 16 19
ENDBRANCH 14 15
BRANCH 14 22
ATOM     22  CB  TRP B   3      -1.164  38.983  74.308  1.00 31.58 LIG 0.07  C 
BRANCH 22 23
ATOM     23  CG  TRP B   3       0.021  38.182  74.048  1.00 30.60 LIG-0.03  A 
ATOM     24  CD1 TRP B   3       1.197  38.608  73.550  1.00 31.03 LIG 0.10  A 
ATOM     25  NE1 TRP B   3       2.055  37.545  73.394  1.00 29.84 LIG-0.36  N 
ATOM     26 HE1  TRP B   3       2.858  37.588  73.090  1.00 29.84 LIG 0.17  HD
ATOM     27  CE2 TRP B   3       1.417  36.409  73.804  1.00 27.79 LIG 0.04  A 
ATOM     28  CD2 TRP B   3       0.140  36.776  74.225  1.00 28.46 LIG-0.00  A 
ATOM     29  CZ2 TRP B   3       1.871  35.099  73.846  1.00 27.89 LIG 0.03  A 
ATOM     30  CE3 TRP B   3      -0.723  35.795  74.679  1.00 31.78 LIG 0.01  A 
ATOM     31  CZ3 TRP B   3      -0.273  34.501  74.747  1.00 30.70 LIG 0.00  A 
ATOM     32  CH2 TRP B   3       1.011  34.161  74.303  1.00 27.16 LIG 0.00  A 
ENDBRANCH 22 23
ENDBRANCH 14 22
ENDBRANCH 11 14
ENDBRANCH 5 10
ENDBRANCH 1 5
BRANCH 3 33
ATOM     33  CA  PHE B   5      -3.335  36.967  67.219  1.00 32.14 LIG 0.18  C 
BRANCH 33 34
ATOM     34  C   PHE B   5      -3.341  35.587  66.594  1.00 34.99 LIG 0.24  C 
ATOM     35 O    PHE B   5      -4.409  34.972  66.500  1.00 34.76 LIG-0.27  OA
ATOM     36  N   GLU B   6      -2.164  35.134  66.135  1.00 37.97 LIG-0.35  N 
ATOM     37 H    GLU B   6      -1.519  35.660  65.919  1.00 37.97 LIG 0.16  HD
BRANCH 36 38
ATOM     38  CA  GLU B   6      -1.833  33.700  65.945  1.00 41.44 LIG 0.18  C 
BRANCH 38 39
ATOM     39  C   GLU B   6      -0.402  33.508  66.503  1.00 42.63 LIG 0.24  C 
ATOM     40  N   ALA B   7      -0.059  32.273  66.871  1.00 44.72 LIG-0.35  N 
ATOM     41 H    ALA B   7      -0.510  31.562  66.695  1.00 44.72 LIG 0.16  HD
ATOM     42 O    GLU B   6       0.367  34.475  66.681  1.00 39.57 LIG-0.27  OA
BRANCH 40 43
ATOM     43  CA  ALA B   7       1.213  32.056  67.656  1.00 46.42 LIG 0.16  C 
ATOM     44  CB  ALA B   7       0.966  32.230  69.171  1.00 46.36 LIG 0.04  C 
BRANCH 43 45
ATOM     45  C   ALA B   7       1.864  30.722  67.339  1.00 46.87 LIG 0.22  C 
ATOM     46 O    ALA B   7       3.072  30.692  67.096  1.00 48.90 LIG-0.29  OA
ENDBRANCH 43 45
ENDBRANCH 40 43
ENDBRANCH 38 39
BRANCH 38 47
ATOM     47  CB  GLU B   6      -1.906  33.268  64.476  1.00 42.54 LIG 0.04  C 
BRANCH 47 48
ATOM     48  CG  GLU B   6      -0.944  34.097  63.558  1.00 48.04 LIG 0.12  C 
BRANCH 48 49
ATOM     49  CD  GLU B   6       0.428  33.460  63.279  1.00 53.57 LIG 0.17  C 
ATOM     50 OE2  GLU B   6       1.366  33.733  64.096  1.00 60.38 LIG-0.65  OA
ATOM     51 OE1  GLU B   6       0.593  32.677  62.306  1.00 57.14 LIG-0.65  OA
ENDBRANCH 48 49
ENDBRANCH 47 48
ENDBRANCH 38 47
ENDBRANCH 36 38
ENDBRANCH 33 34
BRANCH 33 52
ATOM     52  CB  PHE B   5      -3.236  37.982  66.064  1.00 32.62 LIG 0.07  C 
BRANCH 52 53
ATOM     53  CG  PHE B   5      -4.145  39.168  66.196  1.00 30.35 LIG-0.06  A 
ATOM     54  CD1 PHE B   5      -5.461  39.023  66.567  1.00 31.18 LIG 0.01  A 
ATOM     55  CE1 PHE B   5      -6.294  40.133  66.663  1.00 30.23 LIG 0.00  A 
ATOM     56  CZ  PHE B   5      -5.812  41.428  66.393  1.00 31.30 LIG 0.00  A 
ATOM     57  CE2 PHE B   5      -4.491  41.576  65.970  1.00 30.12 LIG 0.00  A 
ATOM     58  CD2 PHE B   5      -3.677  40.448  65.882  1.00 31.88 LIG 0.01  A 
ENDBRANCH 52 53
ENDBRANCH 33 52
ENDBRANCH 3 33
TORSDOF 20
ENDMDL
MODEL 30
USER: ADFR SOLUTION from run 179
USER: SCORE 20.148455 LL:  -5.221 LR: -15.393 RR:   0.000 FEB:  -9.427
USER: RMSD 6.386188
USER: SEED 178
USER: STATUS no improvement in best in 5 clusters for 5 generations
USER: GENES 22
USER: genes 0 Translation |==|  0.60060 0.51440 0.55504
USER: genes 1 Rotation |==|  0.34897 0.41540 0.03995 0.59158
USER: genes 2 Torsion [N]-C--CA-[N] |==|  0.26388
USER: genes 3 Torsion [C]-CA--CB-[CG] |==|  0.52609
USER: genes 4 Torsion [CA]-CB--CG-[CD2] |==|  0.24186
USER: genes 5 Torsion [C]-CA--N-[C] |==|  0.76349
USER: genes 6 Torsion [N]-C--CA-[N] |==|  0.98989
USER: genes 7 Torsion [C]-CA--N-[C] |==|  0.79467
USER: genes 8 Torsion [N]-C--CA-[N] |==|  0.63791
USER: genes 9 Torsion [C]-CA--CB-[CG] |==|  0.27353
USER: genes 10 Torsion [CA]-CB--CG-[CD1] |==|  0.58302
USER: genes 11 Torsion [C]-N--CA-[CB] |==|  0.14325
USER: genes 12 Torsion [N]-CA--C-[N] |==|  0.12351
USER: genes 13 Torsion [C]-N--CA-[C] |==|  0.76673
USER: genes 14 Torsion [N]-CA--C-[N] |==|  0.92972
USER: genes 15 Torsion [C]-N--CA-[C] |==|  0.50772
USER: genes 16 Torsion [N]-CA--C-[O] |==|  0.08094
USER: genes 17 Torsion [N]-CA--CB-[CG] |==|  0.60642
USER: genes 18 Torsion [CA]-CB--CG-[CD] |==|  0.38204
USER: genes 19 Torsion [CB]-CG--CD-[OE2] |==|  0.61401
USER: genes 20 Torsion [N]-CA--CB-[CG] |==|  0.15649
USER: genes 21 Torsion [CA]-CB--CG-[CD2] |==|  0.50341
ROOT
ATOM      1  C   LEU B   4      -0.966  35.889  69.084  1.00 29.18 LIG 0.24  C 
ATOM      2 O    LEU B   4      -1.215  34.682  69.017  1.00 28.54 LIG-0.27  OA
ATOM      3  N   PHE B   5      -1.780  36.823  68.596  1.00 29.99 LIG-0.35  N 
ATOM      4 H    PHE B   5      -1.574  37.655  68.528  1.00 29.99 LIG 0.16  HD
ENDROOT
BRANCH 1 5
ATOM      5  CA  LEU B   4       0.350  36.359  69.736  1.00 28.82 LIG 0.18  C 
BRANCH 5 6
ATOM      6  CB  LEU B   4       1.481  35.438  69.346  1.00 28.29 LIG 0.04  C 
BRANCH 6 7
ATOM      7  CG  LEU B   4       2.793  35.677  70.118  1.00 28.88 LIG-0.02  C 
ATOM      8  CD2 LEU B   4       2.754  34.868  71.403  1.00 30.37 LIG 0.01  C 
ATOM      9  CD1 LEU B   4       3.080  37.168  70.426  1.00 31.50 LIG 0.01  C 
ENDBRANCH 6 7
ENDBRANCH 5 6
BRANCH 5 10
ATOM     10  N   LEU B   4       0.259  36.509  71.185  1.00 28.20 LIG-0.35  N 
ATOM     11  C   TRP B   3      -0.193  37.622  71.727  1.00 29.51 LIG 0.24  C 
ATOM     12 O    TRP B   3      -0.603  38.560  71.051  1.00 30.32 LIG-0.27  OA
ATOM     13 H    LEU B   4       0.521  35.823  71.634  1.00 28.20 LIG 0.16  HD
BRANCH 11 14
ATOM     14  CA  TRP B   3      -0.144  37.710  73.261  1.00 31.78 LIG 0.18  C 
BRANCH 14 15
ATOM     15  N   TRP B   3       0.346  36.430  73.823  1.00 33.85 LIG-0.35  N 
ATOM     16  C   ALA B   2      -0.496  35.380  73.811  1.00 37.00 LIG 0.26  C 
ATOM     17 O    ALA B   2      -1.679  35.504  73.391  1.00 38.56 LIG-0.27  OA
ATOM     18 H    TRP B   3       1.150  36.431  74.129  1.00 33.85 LIG 0.16  HD
BRANCH 16 19
ATOM     19  CA  ALA B   2      -0.041  34.032  74.301  1.00 38.11 LIG 0.40  C 
ATOM     20  CB  ALA B   2       1.490  34.119  74.729  1.00 38.97 LIG 0.06  C 
ATOM     21  N   ALA B   2      -0.289  32.817  73.432  1.00 37.81 LIG 0.61  N 
ENDBRANCH 16 19
ENDBRANCH 14 15
BRANCH 14 22
ATOM     22  CB  TRP B   3       0.731  38.914  73.670  1.00 31.58 LIG 0.07  C 
BRANCH 22 23
ATOM     23  CG  TRP B   3      -0.054  40.092  73.999  1.00 30.60 LIG-0.03  A 
ATOM     24  CD1 TRP B   3       0.311  41.380  73.851  1.00 31.03 LIG 0.10  A 
ATOM     25  NE1 TRP B   3      -0.679  42.207  74.326  1.00 29.84 LIG-0.36  N 
ATOM     26 HE1  TRP B   3      -0.655  43.068  74.332  1.00 29.84 LIG 0.17  HD
ATOM     27  CE2 TRP B   3      -1.707  41.435  74.787  1.00 27.79 LIG 0.04  A 
ATOM     28  CD2 TRP B   3      -1.347  40.103  74.591  1.00 28.46 LIG-0.00  A 
ATOM     29  CZ2 TRP B   3      -2.920  41.808  75.346  1.00 27.89 LIG 0.03  A 
ATOM     30  CE3 TRP B   3      -2.220  39.108  74.992  1.00 31.78 LIG 0.01  A 
ATOM     31  CZ3 TRP B   3      -3.433  39.469  75.523  1.00 30.70 LIG 0.00  A 
ATOM     32  CH2 TRP B   3      -3.758  40.817  75.721  1.00 27.16 LIG 0.00  A 
ENDBRANCH 22 23
ENDBRANCH 14 22
ENDBRANCH 11 14
ENDBRANCH 5 10
ENDBRANCH 1 5
BRANCH 3 33
ATOM     33  CA  PHE B   5      -3.138  36.483  68.121  1.00 32.14 LIG 0.18  C 
BRANCH 33 34
ATOM     34  C   PHE B   5      -3.985  37.686  67.755  1.00 34.99 LIG 0.24  C 
ATOM     35 O    PHE B   5      -5.149  37.751  68.166  1.00 34.76 LIG-0.27  OA
ATOM     36  N   GLU B   6      -3.383  38.640  67.028  1.00 37.97 LIG-0.35  N 
ATOM     37 H    GLU B   6      -2.529  38.743  67.016  1.00 37.97 LIG 0.16  HD
BRANCH 36 38
ATOM     38  CA  GLU B   6      -4.098  39.620  66.173  1.00 41.44 LIG 0.18  C 
BRANCH 38 39
ATOM     39  C   GLU B   6      -4.349  38.912  64.820  1.00 42.63 LIG 0.24  C 
ATOM     40  N   ALA B   7      -3.512  37.927  64.492  1.00 44.72 LIG-0.35  N 
ATOM     41 H    ALA B   7      -2.941  37.566  65.023  1.00 44.72 LIG 0.16  HD
ATOM     42 O    GLU B   6      -5.239  39.297  64.035  1.00 39.57 LIG-0.27  OA
BRANCH 40 43
ATOM     43  CA  ALA B   7      -3.534  37.369  63.088  1.00 46.42 LIG 0.16  C 
ATOM     44  CB  ALA B   7      -3.294  38.482  62.044  1.00 46.36 LIG 0.04  C 
BRANCH 43 45
ATOM     45  C   ALA B   7      -2.565  36.213  62.914  1.00 46.87 LIG 0.22  C 
ATOM     46 O    ALA B   7      -2.302  35.505  63.888  1.00 48.90 LIG-0.29  OA
ENDBRANCH 43 45
ENDBRANCH 40 43
ENDBRANCH 38 39
BRANCH 38 47
ATOM     47  CB  GLU B   6      -3.304  40.915  65.971  1.00 42.54 LIG 0.04  C 
BRANCH 47 48
ATOM     48  CG  GLU B   6      -4.218  42.188  65.973  1.00 48.04 LIG 0.12  C 
BRANCH 48 49
ATOM     49  CD  GLU B   6      -3.678  43.398  66.753  1.00 53.57 LIG 0.17  C 
ATOM     50 OE2  GLU B   6      -4.516  44.052  67.453  1.00 60.38 LIG-0.65  OA
ATOM     51 OE1  GLU B   6      -2.454  43.696  66.721  1.00 57.14 LIG-0.65  OA
ENDBRANCH 48 49
ENDBRANCH 47 48
ENDBRANCH 38 47
ENDBRANCH 36 38
ENDBRANCH 33 34
BRANCH 33 52
ATOM     52  CB  PHE B   5      -3.928  35.684  69.176  1.00 32.62 LIG 0.07  C 
BRANCH 52 53
ATOM     53  CG  PHE B   5      -4.050  36.361  70.509  1.00 30.35 LIG-0.06  A 
ATOM     54  CD1 PHE B   5      -3.458  37.580  70.748  1.00 31.18 LIG 0.01  A 
ATOM     55  CE1 PHE B   5      -3.563  38.182  71.997  1.00 30.23 LIG 0.00  A 
ATOM     56  CZ  PHE B   5      -4.281  37.568  73.042  1.00 31.30 LIG 0.00  A 
ATOM     57  CE2 PHE B   5      -4.841  36.310  72.819  1.00 30.12 LIG 0.00  A 
ATOM     58  CD2 PHE B   5      -4.721  35.728  71.558  1.00 31.88 LIG 0.01  A 
ENDBRANCH 52 53
ENDBRANCH 33 52
ENDBRANCH 3 33
TORSDOF 20
ENDMDL
MODEL 31
USER: ADFR SOLUTION from run 109
USER: SCORE 17.579122 LL:  -4.452 LR: -15.369 RR:   0.000 FEB:  -9.403
USER: RMSD 8.430116
USER: SEED 108
USER: STATUS no improvement in best in 2 clusters for 5 generations
USER: GENES 22
USER: genes 0 Translation |==|  0.38058 0.59824 0.62214
USER: genes 1 Rotation |==|  0.76778 0.20656 0.69009 0.73675
USER: genes 2 Torsion [N]-C--CA-[N] |==|  0.86398
USER: genes 3 Torsion [C]-CA--CB-[CG] |==|  0.31837
USER: genes 4 Torsion [CA]-CB--CG-[CD2] |==|  0.15255
USER: genes 5 Torsion [C]-CA--N-[C] |==|  0.79744
USER: genes 6 Torsion [N]-C--CA-[N] |==|  0.15556
USER: genes 7 Torsion [C]-CA--N-[C] |==|  0.76661
USER: genes 8 Torsion [N]-C--CA-[N] |==|  0.37796
USER: genes 9 Torsion [C]-CA--CB-[CG] |==|  0.22703
USER: genes 10 Torsion [CA]-CB--CG-[CD1] |==|  0.13267
USER: genes 11 Torsion [C]-N--CA-[CB] |==|  0.17723
USER: genes 12 Torsion [N]-CA--C-[N] |==|  0.50761
USER: genes 13 Torsion [C]-N--CA-[C] |==|  0.89310
USER: genes 14 Torsion [N]-CA--C-[N] |==|  0.40853
USER: genes 15 Torsion [C]-N--CA-[C] |==|  0.19811
USER: genes 16 Torsion [N]-CA--C-[O] |==|  0.01380
USER: genes 17 Torsion [N]-CA--CB-[CG] |==|  0.77077
USER: genes 18 Torsion [CA]-CB--CG-[CD] |==|  0.15627
USER: genes 19 Torsion [CB]-CG--CD-[OE2] |==|  0.64157
USER: genes 20 Torsion [N]-CA--CB-[CG] |==|  0.63654
USER: genes 21 Torsion [CA]-CB--CG-[CD2] |==|  0.22719
ROOT
ATOM      1  C   LEU B   4      -5.257  37.524  70.594  1.00 29.18 LIG 0.24  C 
ATOM      2 O    LEU B   4      -6.069  38.188  71.242  1.00 28.54 LIG-0.27  OA
ATOM      3  N   PHE B   5      -3.940  37.686  70.702  1.00 29.99 LIG-0.35  N 
ATOM      4 H    PHE B   5      -3.363  37.320  70.179  1.00 29.99 LIG 0.16  HD
ENDROOT
BRANCH 1 5
ATOM      5  CA  LEU B   4      -5.765  36.470  69.589  1.00 28.82 LIG 0.18  C 
BRANCH 5 6
ATOM      6  CB  LEU B   4      -5.590  35.082  70.158  1.00 28.29 LIG 0.04  C 
BRANCH 6 7
ATOM      7  CG  LEU B   4      -6.909  34.335  70.431  1.00 28.88 LIG-0.02  C 
ATOM      8  CD2 LEU B   4      -7.726  34.308  69.150  1.00 30.37 LIG 0.01  C 
ATOM      9  CD1 LEU B   4      -7.744  34.931  71.592  1.00 31.50 LIG 0.01  C 
ENDBRANCH 6 7
ENDBRANCH 5 6
BRANCH 5 10
ATOM     10  N   LEU B   4      -5.155  36.586  68.269  1.00 28.20 LIG-0.35  N 
ATOM     11  C   TRP B   3      -5.479  37.569  67.453  1.00 29.51 LIG 0.24  C 
ATOM     12 O    TRP B   3      -6.262  38.456  67.776  1.00 30.32 LIG-0.27  OA
ATOM     13 H    LEU B   4      -4.583  35.970  68.082  1.00 28.20 LIG 0.16  HD
BRANCH 11 14
ATOM     14  CA  TRP B   3      -4.855  37.533  66.048  1.00 31.78 LIG 0.18  C 
BRANCH 14 15
ATOM     15  N   TRP B   3      -5.179  36.247  65.388  1.00 33.85 LIG-0.35  N 
ATOM     16  C   ALA B   2      -4.392  35.190  65.661  1.00 37.00 LIG 0.26  C 
ATOM     17 O    ALA B   2      -3.380  35.311  66.405  1.00 38.56 LIG-0.27  OA
ATOM     18 H    TRP B   3      -5.859  36.249  64.861  1.00 33.85 LIG 0.16  HD
BRANCH 16 19
ATOM     19  CA  ALA B   2      -4.703  33.837  65.080  1.00 38.11 LIG 0.40  C 
ATOM     20  CB  ALA B   2      -5.539  32.991  66.139  1.00 38.97 LIG 0.06  C 
ATOM     21  N   ALA B   2      -3.572  33.011  64.505  1.00 37.81 LIG 0.61  N 
ENDBRANCH 16 19
ENDBRANCH 14 15
BRANCH 14 22
ATOM     22  CB  TRP B   3      -5.348  38.756  65.245  1.00 31.58 LIG 0.07  C 
BRANCH 22 23
ATOM     23  CG  TRP B   3      -4.598  39.964  65.545  1.00 30.60 LIG-0.03  A 
ATOM     24  CD1 TRP B   3      -3.259  40.097  65.602  1.00 31.03 LIG 0.10  A 
ATOM     25  NE1 TRP B   3      -2.929  41.379  65.971  1.00 29.84 LIG-0.36  N 
ATOM     26 HE1  TRP B   3      -2.130  41.683  66.070  1.00 29.84 LIG 0.17  HD
ATOM     27  CE2 TRP B   3      -4.081  42.089  66.153  1.00 27.79 LIG 0.04  A 
ATOM     28  CD2 TRP B   3      -5.146  41.230  65.889  1.00 28.46 LIG-0.00  A 
ATOM     29  CZ2 TRP B   3      -4.262  43.415  66.517  1.00 27.89 LIG 0.03  A 
ATOM     30  CE3 TRP B   3      -6.438  41.707  66.018  1.00 31.78 LIG 0.01  A 
ATOM     31  CZ3 TRP B   3      -6.625  43.024  66.353  1.00 30.70 LIG 0.00  A 
ATOM     32  CH2 TRP B   3      -5.534  43.858  66.627  1.00 27.16 LIG 0.00  A 
ENDBRANCH 22 23
ENDBRANCH 14 22
ENDBRANCH 11 14
ENDBRANCH 5 10
ENDBRANCH 1 5
BRANCH 3 33
ATOM     33  CA  PHE B   5      -3.357  38.536  71.762  1.00 32.14 LIG 0.18  C 
BRANCH 33 34
ATOM     34  C   PHE B   5      -1.855  38.709  71.662  1.00 34.99 LIG 0.24  C 
ATOM     35 O    PHE B   5      -1.257  38.231  70.691  1.00 34.76 LIG-0.27  OA
ATOM     36  N   GLU B   6      -1.270  39.425  72.634  1.00 37.97 LIG-0.35  N 
ATOM     37 H    GLU B   6      -1.700  39.999  73.108  1.00 37.97 LIG 0.16  HD
BRANCH 36 38
ATOM     38  CA  GLU B   6       0.163  39.321  73.007  1.00 41.44 LIG 0.18  C 
BRANCH 38 39
ATOM     39  C   GLU B   6       0.529  37.822  72.906  1.00 42.63 LIG 0.24  C 
ATOM     40  N   ALA B   7       1.774  37.529  72.527  1.00 44.72 LIG-0.35  N 
ATOM     41 H    ALA B   7       2.419  38.095  72.471  1.00 44.72 LIG 0.16  HD
ATOM     42 O    GLU B   6      -0.321  36.926  73.088  1.00 39.57 LIG-0.27  OA
BRANCH 40 43
ATOM     43  CA  ALA B   7       2.126  36.107  72.159  1.00 46.42 LIG 0.16  C 
ATOM     44  CB  ALA B   7       1.761  35.132  73.300  1.00 46.36 LIG 0.04  C 
BRANCH 43 45
ATOM     45  C   ALA B   7       1.509  35.686  70.837  1.00 46.87 LIG 0.22  C 
ATOM     46 O    ALA B   7       0.894  36.523  70.174  1.00 48.90 LIG-0.29  OA
ENDBRANCH 43 45
ENDBRANCH 40 43
ENDBRANCH 38 39
BRANCH 38 47
ATOM     47  CB  GLU B   6       0.445  39.857  74.415  1.00 42.54 LIG 0.04  C 
BRANCH 47 48
ATOM     48  CG  GLU B   6       0.609  41.415  74.444  1.00 48.04 LIG 0.12  C 
BRANCH 48 49
ATOM     49  CD  GLU B   6      -0.571  42.222  73.879  1.00 53.57 LIG 0.17  C 
ATOM     50 OE2  GLU B   6      -0.297  43.108  73.008  1.00 60.38 LIG-0.65  OA
ATOM     51 OE1  GLU B   6      -1.754  41.982  74.243  1.00 57.14 LIG-0.65  OA
ENDBRANCH 48 49
ENDBRANCH 47 48
ENDBRANCH 38 47
ENDBRANCH 36 38
ENDBRANCH 33 34
BRANCH 33 52
ATOM     52  CB  PHE B   5      -3.650  37.976  73.168  1.00 32.62 LIG 0.07  C 
BRANCH 52 53
ATOM     53  CG  PHE B   5      -4.194  38.982  74.139  1.00 30.35 LIG-0.06  A 
ATOM     54  CD1 PHE B   5      -3.391  39.564  75.091  1.00 31.18 LIG 0.01  A 
ATOM     55  CE1 PHE B   5      -3.917  40.478  75.997  1.00 30.23 LIG 0.00  A 
ATOM     56  CZ  PHE B   5      -5.279  40.837  75.958  1.00 31.30 LIG 0.00  A 
ATOM     57  CE2 PHE B   5      -6.108  40.213  75.025  1.00 30.12 LIG 0.00  A 
ATOM     58  CD2 PHE B   5      -5.555  39.301  74.129  1.00 31.88 LIG 0.01  A 
ENDBRANCH 52 53
ENDBRANCH 33 52
ENDBRANCH 3 33
TORSDOF 20
ENDMDL
MODEL 32
USER: ADFR SOLUTION from run 48
USER: SCORE 19.477944 LL:  -4.593 LR: -15.356 RR:   0.000 FEB:  -9.390
USER: RMSD 8.748836
USER: SEED 47
USER: STATUS no improvement in best in 5 clusters for 5 generations
USER: GENES 22
USER: genes 0 Translation |==|  0.58060 0.56268 0.62280
USER: genes 1 Rotation |==|  0.36238 0.06721 0.68459 0.59839
USER: genes 2 Torsion [N]-C--CA-[N] |==|  0.36112
USER: genes 3 Torsion [C]-CA--CB-[CG] |==|  0.42176
USER: genes 4 Torsion [CA]-CB--CG-[CD2] |==|  0.62049
USER: genes 5 Torsion [C]-CA--N-[C] |==|  0.83109
USER: genes 6 Torsion [N]-C--CA-[N] |==|  0.46594
USER: genes 7 Torsion [C]-CA--N-[C] |==|  0.61159
USER: genes 8 Torsion [N]-C--CA-[N] |==|  0.85718
USER: genes 9 Torsion [C]-CA--CB-[CG] |==|  0.53392
USER: genes 10 Torsion [CA]-CB--CG-[CD1] |==|  0.73772
USER: genes 11 Torsion [C]-N--CA-[CB] |==|  0.81437
USER: genes 12 Torsion [N]-CA--C-[N] |==|  0.37710
USER: genes 13 Torsion [C]-N--CA-[C] |==|  0.78277
USER: genes 14 Torsion [N]-CA--C-[N] |==|  0.17690
USER: genes 15 Torsion [C]-N--CA-[C] |==|  0.53075
USER: genes 16 Torsion [N]-CA--C-[O] |==|  0.17682
USER: genes 17 Torsion [N]-CA--CB-[CG] |==|  0.55331
USER: genes 18 Torsion [CA]-CB--CG-[CD] |==|  0.15958
USER: genes 19 Torsion [CB]-CG--CD-[OE2] |==|  0.19009
USER: genes 20 Torsion [N]-CA--CB-[CG] |==|  0.94446
USER: genes 21 Torsion [CA]-CB--CG-[CD2] |==|  0.30898
ROOT
ATOM      1  C   LEU B   4      -1.356  36.830  70.609  1.00 29.18 LIG 0.24  C 
ATOM      2 O    LEU B   4      -1.005  37.997  70.414  1.00 28.54 LIG-0.27  OA
ATOM      3  N   PHE B   5      -1.640  36.354  71.819  1.00 29.99 LIG-0.35  N 
ATOM      4 H    PHE B   5      -1.772  35.522  71.992  1.00 29.99 LIG 0.16  HD
ENDROOT
BRANCH 1 5
ATOM      5  CA  LEU B   4      -1.452  35.855  69.418  1.00 28.82 LIG 0.18  C 
BRANCH 5 6
ATOM      6  CB  LEU B   4      -0.070  35.441  68.972  1.00 28.29 LIG 0.04  C 
BRANCH 6 7
ATOM      7  CG  LEU B   4      -0.001  34.047  68.321  1.00 28.88 LIG-0.02  C 
ATOM      8  CD2 LEU B   4       1.216  33.317  68.864  1.00 30.37 LIG 0.01  C 
ATOM      9  CD1 LEU B   4       0.032  34.075  66.772  1.00 31.50 LIG 0.01  C 
ENDBRANCH 6 7
ENDBRANCH 5 6
BRANCH 5 10
ATOM     10  N   LEU B   4      -2.238  36.376  68.304  1.00 28.20 LIG-0.35  N 
ATOM     11  C   TRP B   3      -3.510  36.688  68.455  1.00 29.51 LIG 0.24  C 
ATOM     12 O    TRP B   3      -4.079  36.605  69.538  1.00 30.32 LIG-0.27  OA
ATOM     13 H    LEU B   4      -1.804  36.457  67.565  1.00 28.20 LIG 0.16  HD
BRANCH 11 14
ATOM     14  CA  TRP B   3      -4.267  37.125  67.191  1.00 31.78 LIG 0.18  C 
BRANCH 14 15
ATOM     15  N   TRP B   3      -5.723  37.153  67.461  1.00 33.85 LIG-0.35  N 
ATOM     16  C   ALA B   2      -6.545  36.699  66.496  1.00 37.00 LIG 0.26  C 
ATOM     17 O    ALA B   2      -6.090  36.323  65.382  1.00 38.56 LIG-0.27  OA
ATOM     18 H    TRP B   3      -5.963  37.461  68.227  1.00 33.85 LIG 0.16  HD
BRANCH 16 19
ATOM     19  CA  ALA B   2      -8.030  36.633  66.729  1.00 38.11 LIG 0.40  C 
ATOM     20  CB  ALA B   2      -8.647  38.096  66.601  1.00 38.97 LIG 0.06  C 
ATOM     21  N   ALA B   2      -8.545  35.939  67.972  1.00 37.81 LIG 0.61  N 
ENDBRANCH 16 19
ENDBRANCH 14 15
BRANCH 14 22
ATOM     22  CB  TRP B   3      -3.722  38.492  66.723  1.00 31.58 LIG 0.07  C 
BRANCH 22 23
ATOM     23  CG  TRP B   3      -4.559  39.113  65.711  1.00 30.60 LIG-0.03  A 
ATOM     24  CD1 TRP B   3      -4.411  39.038  64.375  1.00 31.03 LIG 0.10  A 
ATOM     25  NE1 TRP B   3      -5.366  39.806  63.751  1.00 29.84 LIG-0.36  N 
ATOM     26 HE1  TRP B   3      -5.456  39.904  62.901  1.00 29.84 LIG 0.17  HD
ATOM     27  CE2 TRP B   3      -6.149  40.387  64.708  1.00 27.79 LIG 0.04  A 
ATOM     28  CD2 TRP B   3      -5.671  39.967  65.949  1.00 28.46 LIG-0.00  A 
ATOM     29  CZ2 TRP B   3      -7.240  41.233  64.574  1.00 27.89 LIG 0.03  A 
ATOM     30  CE3 TRP B   3      -6.289  40.432  67.096  1.00 31.78 LIG 0.01  A 
ATOM     31  CZ3 TRP B   3      -7.383  41.249  66.970  1.00 30.70 LIG 0.00  A 
ATOM     32  CH2 TRP B   3      -7.831  41.665  65.710  1.00 27.16 LIG 0.00  A 
ENDBRANCH 22 23
ENDBRANCH 14 22
ENDBRANCH 11 14
ENDBRANCH 5 10
ENDBRANCH 1 5
BRANCH 3 33
ATOM     33  CA  PHE B   5      -1.754  37.251  72.989  1.00 32.14 LIG 0.18  C 
BRANCH 33 34
ATOM     34  C   PHE B   5      -2.739  38.388  72.805  1.00 34.99 LIG 0.24  C 
ATOM     35 O    PHE B   5      -2.768  38.991  71.726  1.00 34.76 LIG-0.27  OA
ATOM     36  N   GLU B   6      -3.561  38.638  73.835  1.00 37.97 LIG-0.35  N 
ATOM     37 H    GLU B   6      -3.752  38.046  74.429  1.00 37.97 LIG 0.16  HD
BRANCH 36 38
ATOM     38  CA  GLU B   6      -4.234  39.939  74.076  1.00 41.44 LIG 0.18  C 
BRANCH 38 39
ATOM     39  C   GLU B   6      -3.165  40.870  74.696  1.00 42.63 LIG 0.24  C 
ATOM     40  N   ALA B   7      -2.112  41.170  73.934  1.00 44.72 LIG-0.35  N 
ATOM     41 H    ALA B   7      -2.047  41.004  73.093  1.00 44.72 LIG 0.16  HD
ATOM     42 O    GLU B   6      -3.240  41.256  75.880  1.00 39.57 LIG-0.27  OA
BRANCH 40 43
ATOM     43  CA  ALA B   7      -0.915  41.853  74.554  1.00 46.42 LIG 0.16  C 
ATOM     44  CB  ALA B   7      -0.229  40.939  75.592  1.00 46.36 LIG 0.04  C 
BRANCH 43 45
ATOM     45  C   ALA B   7       0.064  42.357  73.509  1.00 46.87 LIG 0.22  C 
ATOM     46 O    ALA B   7      -0.303  43.231  72.721  1.00 48.90 LIG-0.29  OA
ENDBRANCH 43 45
ENDBRANCH 40 43
ENDBRANCH 38 39
BRANCH 38 47
ATOM     47  CB  GLU B   6      -5.448  39.812  75.002  1.00 42.54 LIG 0.04  C 
BRANCH 47 48
ATOM     48  CG  GLU B   6      -6.424  41.032  74.884  1.00 48.04 LIG 0.12  C 
BRANCH 48 49
ATOM     49  CD  GLU B   6      -6.981  41.310  73.478  1.00 53.57 LIG 0.17  C 
ATOM     50 OE2  GLU B   6      -7.792  40.453  73.002  1.00 60.38 LIG-0.65  OA
ATOM     51 OE1  GLU B   6      -6.669  42.358  72.852  1.00 57.14 LIG-0.65  OA
ENDBRANCH 48 49
ENDBRANCH 47 48
ENDBRANCH 38 47
ENDBRANCH 36 38
ENDBRANCH 33 34
BRANCH 33 52
ATOM     52  CB  PHE B   5      -0.398  37.888  73.353  1.00 32.62 LIG 0.07  C 
BRANCH 52 53
ATOM     53  CG  PHE B   5       0.797  37.160  72.813  1.00 30.35 LIG-0.06  A 
ATOM     54  CD1 PHE B   5       1.187  35.945  73.327  1.00 31.18 LIG 0.01  A 
ATOM     55  CE1 PHE B   5       2.311  35.295  72.828  1.00 30.23 LIG 0.00  A 
ATOM     56  CZ  PHE B   5       3.072  35.857  71.784  1.00 31.30 LIG 0.00  A 
ATOM     57  CE2 PHE B   5       2.708  37.112  71.293  1.00 30.12 LIG 0.00  A 
ATOM     58  CD2 PHE B   5       1.578  37.742  71.810  1.00 31.88 LIG 0.01  A 
ENDBRANCH 52 53
ENDBRANCH 33 52
ENDBRANCH 3 33
TORSDOF 20
ENDMDL
MODEL 33
USER: ADFR SOLUTION from run 54
USER: SCORE 19.201769 LL:  -4.600 LR: -15.362 RR:   0.000 FEB:  -9.396
USER: RMSD 5.520936
USER: SEED 53
USER: STATUS no improvement in best in 2 clusters for 5 generations
USER: GENES 22
USER: genes 0 Translation |==|  0.70888 0.52719 0.57562
USER: genes 1 Rotation |==|  0.40037 0.61755 0.28810 0.92586
USER: genes 2 Torsion [N]-C--CA-[N] |==|  0.94348
USER: genes 3 Torsion [C]-CA--CB-[CG] |==|  0.78397
USER: genes 4 Torsion [CA]-CB--CG-[CD2] |==|  0.16088
USER: genes 5 Torsion [C]-CA--N-[C] |==|  0.82422
USER: genes 6 Torsion [N]-C--CA-[N] |==|  0.91129
USER: genes 7 Torsion [C]-CA--N-[C] |==|  0.83530
USER: genes 8 Torsion [N]-C--CA-[N] |==|  0.61747
USER: genes 9 Torsion [C]-CA--CB-[CG] |==|  0.45885
USER: genes 10 Torsion [CA]-CB--CG-[CD1] |==|  0.35821
USER: genes 11 Torsion [C]-N--CA-[CB] |==|  0.76667
USER: genes 12 Torsion [N]-CA--C-[N] |==|  0.27522
USER: genes 13 Torsion [C]-N--CA-[C] |==|  0.89986
USER: genes 14 Torsion [N]-CA--C-[N] |==|  0.34699
USER: genes 15 Torsion [C]-N--CA-[C] |==|  0.19969
USER: genes 16 Torsion [N]-CA--C-[O] |==|  0.88057
USER: genes 17 Torsion [N]-CA--CB-[CG] |==|  0.48101
USER: genes 18 Torsion [CA]-CB--CG-[CD] |==|  0.21034
USER: genes 19 Torsion [CB]-CG--CD-[OE2] |==|  0.83787
USER: genes 20 Torsion [N]-CA--CB-[CG] |==|  0.86470
USER: genes 21 Torsion [CA]-CB--CG-[CD2] |==|  0.39300
ROOT
ATOM      1  C   LEU B   4       1.145  36.138  69.547  1.00 29.18 LIG 0.24  C 
ATOM      2 O    LEU B   4       1.570  36.218  68.392  1.00 28.54 LIG-0.27  OA
ATOM      3  N   PHE B   5       0.177  35.298  69.906  1.00 29.99 LIG-0.35  N 
ATOM      4 H    PHE B   5      -0.212  35.308  70.672  1.00 29.99 LIG 0.16  HD
ENDROOT
BRANCH 1 5
ATOM      5  CA  LEU B   4       1.728  37.061  70.637  1.00 28.82 LIG 0.18  C 
BRANCH 5 6
ATOM      6  CB  LEU B   4       3.094  36.572  71.057  1.00 28.29 LIG 0.04  C 
BRANCH 6 7
ATOM      7  CG  LEU B   4       3.072  35.361  72.009  1.00 28.88 LIG-0.02  C 
ATOM      8  CD2 LEU B   4       2.325  34.225  71.331  1.00 30.37 LIG 0.01  C 
ATOM      9  CD1 LEU B   4       2.455  35.662  73.398  1.00 31.50 LIG 0.01  C 
ENDBRANCH 6 7
ENDBRANCH 5 6
BRANCH 5 10
ATOM     10  N   LEU B   4       0.845  37.229  71.788  1.00 28.20 LIG-0.35  N 
ATOM     11  C   TRP B   3      -0.336  37.799  71.661  1.00 29.51 LIG 0.24  C 
ATOM     12 O    TRP B   3      -0.772  38.167  70.575  1.00 30.32 LIG-0.27  OA
ATOM     13 H    LEU B   4       1.162  36.930  72.530  1.00 28.20 LIG 0.16  HD
BRANCH 11 14
ATOM     14  CA  TRP B   3      -1.136  38.021  72.955  1.00 31.78 LIG 0.18  C 
BRANCH 14 15
ATOM     15  N   TRP B   3      -0.831  36.944  73.926  1.00 33.85 LIG-0.35  N 
ATOM     16  C   ALA B   2      -1.091  35.677  73.554  1.00 37.00 LIG 0.26  C 
ATOM     17 O    ALA B   2      -1.631  35.427  72.442  1.00 38.56 LIG-0.27  OA
ATOM     18 H    TRP B   3      -0.502  37.193  74.680  1.00 33.85 LIG 0.16  HD
BRANCH 16 19
ATOM     19  CA  ALA B   2      -0.742  34.529  74.461  1.00 38.11 LIG 0.40  C 
ATOM     20  CB  ALA B   2       0.134  35.069  75.677  1.00 38.97 LIG 0.06  C 
ATOM     21  N   ALA B   2      -0.120  33.286  73.862  1.00 37.81 LIG 0.61  N 
ENDBRANCH 16 19
ENDBRANCH 14 15
BRANCH 14 22
ATOM     22  CB  TRP B   3      -0.822  39.428  73.508  1.00 31.58 LIG 0.07  C 
BRANCH 22 23
ATOM     23  CG  TRP B   3      -1.772  39.858  74.520  1.00 30.60 LIG-0.03  A 
ATOM     24  CD1 TRP B   3      -1.492  40.342  75.745  1.00 31.03 LIG 0.10  A 
ATOM     25  NE1 TRP B   3      -2.657  40.586  76.432  1.00 29.84 LIG-0.36  N 
ATOM     26 HE1  TRP B   3      -2.712  40.895  77.233  1.00 29.84 LIG 0.17  HD
ATOM     27  CE2 TRP B   3      -3.712  40.254  75.631  1.00 27.79 LIG 0.04  A 
ATOM     28  CD2 TRP B   3      -3.189  39.799  74.421  1.00 28.46 LIG-0.00  A 
ATOM     29  CZ2 TRP B   3      -5.075  40.332  75.875  1.00 27.89 LIG 0.03  A 
ATOM     30  CE3 TRP B   3      -4.060  39.382  73.431  1.00 31.78 LIG 0.01  A 
ATOM     31  CZ3 TRP B   3      -5.410  39.479  73.655  1.00 30.70 LIG 0.00  A 
ATOM     32  CH2 TRP B   3      -5.904  39.927  74.887  1.00 27.16 LIG 0.00  A 
ENDBRANCH 22 23
ENDBRANCH 14 22
ENDBRANCH 11 14
ENDBRANCH 5 10
ENDBRANCH 1 5
BRANCH 3 33
ATOM     33  CA  PHE B   5      -0.313  34.254  68.980  1.00 32.14 LIG 0.18  C 
BRANCH 33 34
ATOM     34  C   PHE B   5       0.770  33.622  68.129  1.00 34.99 LIG 0.24  C 
ATOM     35 O    PHE B   5       1.188  34.230  67.137  1.00 34.76 LIG-0.27  OA
ATOM     36  N   GLU B   6       1.244  32.439  68.547  1.00 37.97 LIG-0.35  N 
ATOM     37 H    GLU B   6       1.187  32.181  69.366  1.00 37.97 LIG 0.16  HD
BRANCH 36 38
ATOM     38  CA  GLU B   6       1.911  31.444  67.670  1.00 41.44 LIG 0.18  C 
BRANCH 38 39
ATOM     39  C   GLU B   6       1.188  31.518  66.304  1.00 42.63 LIG 0.24  C 
ATOM     40  N   ALA B   7       1.948  31.746  65.232  1.00 44.72 LIG-0.35  N 
ATOM     41 H    ALA B   7       2.807  31.716  65.220  1.00 44.72 LIG 0.16  HD
ATOM     42 O    GLU B   6      -0.055  31.451  66.217  1.00 39.57 LIG-0.27  OA
BRANCH 40 43
ATOM     43  CA  ALA B   7       1.293  32.085  63.914  1.00 46.42 LIG 0.16  C 
ATOM     44  CB  ALA B   7       0.250  31.016  63.521  1.00 46.36 LIG 0.04  C 
BRANCH 43 45
ATOM     45  C   ALA B   7       0.698  33.482  63.910  1.00 46.87 LIG 0.22  C 
ATOM     46 O    ALA B   7       0.071  33.865  64.900  1.00 48.90 LIG-0.29  OA
ENDBRANCH 43 45
ENDBRANCH 40 43
ENDBRANCH 38 39
BRANCH 38 47
ATOM     47  CB  GLU B   6       1.853  30.023  68.241  1.00 42.54 LIG 0.04  C 
BRANCH 47 48
ATOM     48  CG  GLU B   6       2.403  28.950  67.240  1.00 48.04 LIG 0.12  C 
BRANCH 48 49
ATOM     49  CD  GLU B   6       3.933  28.893  67.096  1.00 53.57 LIG 0.17  C 
ATOM     50 OE2  GLU B   6       4.516  29.961  66.721  1.00 60.38 LIG-0.65  OA
ATOM     51 OE1  GLU B   6       4.572  27.844  67.375  1.00 57.14 LIG-0.65  OA
ENDBRANCH 48 49
ENDBRANCH 47 48
ENDBRANCH 38 47
ENDBRANCH 36 38
ENDBRANCH 33 34
BRANCH 33 52
ATOM     52  CB  PHE B   5      -1.379  34.804  68.012  1.00 32.62 LIG 0.07  C 
BRANCH 52 53
ATOM     53  CG  PHE B   5      -2.473  35.590  68.672  1.00 30.35 LIG-0.06  A 
ATOM     54  CD1 PHE B   5      -3.035  35.178  69.857  1.00 31.18 LIG 0.01  A 
ATOM     55  CE1 PHE B   5      -4.063  35.909  70.443  1.00 30.23 LIG 0.00  A 
ATOM     56  CZ  PHE B   5      -4.549  37.088  69.844  1.00 31.30 LIG 0.00  A 
ATOM     57  CE2 PHE B   5      -4.016  37.483  68.617  1.00 30.12 LIG 0.00  A 
ATOM     58  CD2 PHE B   5      -2.986  36.733  68.051  1.00 31.88 LIG 0.01  A 
ENDBRANCH 52 53
ENDBRANCH 33 52
ENDBRANCH 3 33
TORSDOF 20
ENDMDL
MODEL 34
USER: ADFR SOLUTION from run 94
USER: SCORE 17.394554 LL:  -4.610 LR: -15.347 RR:   0.000 FEB:  -9.381
USER: RMSD 6.073652
USER: SEED 93
USER: STATUS no improvement in best in 21 clusters for 5 generations
USER: GENES 22
USER: genes 0 Translation |==|  0.60510 0.45852 0.53523
USER: genes 1 Rotation |==|  0.40631 0.78916 0.84486 0.69668
USER: genes 2 Torsion [N]-C--CA-[N] |==|  0.51111
USER: genes 3 Torsion [C]-CA--CB-[CG] |==|  0.38982
USER: genes 4 Torsion [CA]-CB--CG-[CD2] |==|  0.72163
USER: genes 5 Torsion [C]-CA--N-[C] |==|  0.62401
USER: genes 6 Torsion [N]-C--CA-[N] |==|  0.86544
USER: genes 7 Torsion [C]-CA--N-[C] |==|  0.73390
USER: genes 8 Torsion [N]-C--CA-[N] |==|  0.14314
USER: genes 9 Torsion [C]-CA--CB-[CG] |==|  0.17487
USER: genes 10 Torsion [CA]-CB--CG-[CD1] |==|  0.64783
USER: genes 11 Torsion [C]-N--CA-[CB] |==|  0.22566
USER: genes 12 Torsion [N]-CA--C-[N] |==|  0.23888
USER: genes 13 Torsion [C]-N--CA-[C] |==|  0.92405
USER: genes 14 Torsion [N]-CA--C-[N] |==|  0.34345
USER: genes 15 Torsion [C]-N--CA-[C] |==|  0.52961
USER: genes 16 Torsion [N]-CA--C-[O] |==|  0.96083
USER: genes 17 Torsion [N]-CA--CB-[CG] |==|  0.77511
USER: genes 18 Torsion [CA]-CB--CG-[CD] |==|  0.84289
USER: genes 19 Torsion [CB]-CG--CD-[OE2] |==|  0.65406
USER: genes 20 Torsion [N]-CA--CB-[CG] |==|  0.50110
USER: genes 21 Torsion [CA]-CB--CG-[CD2] |==|  0.14509
ROOT
ATOM      1  C   LEU B   4      -0.879  34.799  68.639  1.00 29.18 LIG 0.24  C 
ATOM      2 O    LEU B   4      -1.988  34.273  68.763  1.00 28.54 LIG-0.27  OA
ATOM      3  N   PHE B   5      -0.042  34.497  67.648  1.00 29.99 LIG-0.35  N 
ATOM      4 H    PHE B   5       0.775  34.763  67.609  1.00 29.99 LIG 0.16  HD
ENDROOT
BRANCH 1 5
ATOM      5  CA  LEU B   4      -0.408  35.836  69.679  1.00 28.82 LIG 0.18  C 
BRANCH 5 6
ATOM      6  CB  LEU B   4       0.963  35.470  70.195  1.00 28.29 LIG 0.04  C 
BRANCH 6 7
ATOM      7  CG  LEU B   4       1.908  36.669  70.400  1.00 28.88 LIG-0.02  C 
ATOM      8  CD2 LEU B   4       2.853  36.751  69.213  1.00 30.37 LIG 0.01  C 
ATOM      9  CD1 LEU B   4       2.708  36.623  71.726  1.00 31.50 LIG 0.01  C 
ENDBRANCH 6 7
ENDBRANCH 5 6
BRANCH 5 10
ATOM     10  N   LEU B   4      -1.355  36.031  70.773  1.00 28.20 LIG-0.35  N 
ATOM     11  C   TRP B   3      -1.661  37.239  71.200  1.00 29.51 LIG 0.24  C 
ATOM     12 O    TRP B   3      -1.212  38.253  70.676  1.00 30.32 LIG-0.27  OA
ATOM     13 H    LEU B   4      -1.681  35.304  71.099  1.00 28.20 LIG 0.16  HD
BRANCH 11 14
ATOM     14  CA  TRP B   3      -2.585  37.322  72.427  1.00 31.78 LIG 0.18  C 
BRANCH 14 15
ATOM     15  N   TRP B   3      -3.757  36.437  72.234  1.00 33.85 LIG-0.35  N 
ATOM     16  C   ALA B   2      -4.885  36.992  71.754  1.00 37.00 LIG 0.26  C 
ATOM     17 O    ALA B   2      -4.955  38.233  71.536  1.00 38.56 LIG-0.27  OA
ATOM     18 H    TRP B   3      -3.649  35.610  72.443  1.00 33.85 LIG 0.16  HD
BRANCH 16 19
ATOM     19  CA  ALA B   2      -6.092  36.141  71.468  1.00 38.11 LIG 0.40  C 
ATOM     20  CB  ALA B   2      -7.267  37.064  70.915  1.00 38.97 LIG 0.06  C 
ATOM     21  N   ALA B   2      -6.603  35.211  72.548  1.00 37.81 LIG 0.61  N 
ENDBRANCH 16 19
ENDBRANCH 14 15
BRANCH 14 22
ATOM     22  CB  TRP B   3      -1.775  36.971  73.694  1.00 31.58 LIG 0.07  C 
BRANCH 22 23
ATOM     23  CG  TRP B   3      -0.698  37.912  73.950  1.00 30.60 LIG-0.03  A 
ATOM     24  CD1 TRP B   3       0.603  37.625  74.144  1.00 31.03 LIG 0.10  A 
ATOM     25  NE1 TRP B   3       1.304  38.777  74.413  1.00 29.84 LIG-0.36  N 
ATOM     26 HE1  TRP B   3       2.149  38.826  74.570  1.00 29.84 LIG 0.17  HD
ATOM     27  CE2 TRP B   3       0.435  39.830  74.389  1.00 27.79 LIG 0.04  A 
ATOM     28  CD2 TRP B   3      -0.829  39.320  74.095  1.00 28.46 LIG-0.00  A 
ATOM     29  CZ2 TRP B   3       0.669  41.182  74.589  1.00 27.89 LIG 0.03  A 
ATOM     30  CE3 TRP B   3      -1.901  40.191  74.027  1.00 31.78 LIG 0.01  A 
ATOM     31  CZ3 TRP B   3      -1.674  41.533  74.200  1.00 30.70 LIG 0.00  A 
ATOM     32  CH2 TRP B   3      -0.394  42.012  74.508  1.00 27.16 LIG 0.00  A 
ENDBRANCH 22 23
ENDBRANCH 14 22
ENDBRANCH 11 14
ENDBRANCH 5 10
ENDBRANCH 1 5
BRANCH 3 33
ATOM     33  CA  PHE B   5      -0.473  33.658  66.510  1.00 32.14 LIG 0.18  C 
BRANCH 33 34
ATOM     34  C   PHE B   5       0.665  32.970  65.782  1.00 34.99 LIG 0.24  C 
ATOM     35 O    PHE B   5       1.185  33.531  64.811  1.00 34.76 LIG-0.27  OA
ATOM     36  N   GLU B   6       1.067  31.792  66.281  1.00 37.97 LIG-0.35  N 
ATOM     37 H    GLU B   6       0.931  31.566  67.100  1.00 37.97 LIG 0.16  HD
BRANCH 36 38
ATOM     38  CA  GLU B   6       1.783  30.750  65.502  1.00 41.44 LIG 0.18  C 
BRANCH 38 39
ATOM     39  C   GLU B   6       1.350  30.939  64.028  1.00 42.63 LIG 0.24  C 
ATOM     40  N   ALA B   7       2.321  31.132  63.135  1.00 44.72 LIG-0.35  N 
ATOM     41 H    ALA B   7       3.161  31.023  63.287  1.00 44.72 LIG 0.16  HD
ATOM     42 O    GLU B   6       0.147  30.991  63.700  1.00 39.57 LIG-0.27  OA
BRANCH 40 43
ATOM     43  CA  ALA B   7       1.968  31.577  61.736  1.00 46.42 LIG 0.16  C 
ATOM     44  CB  ALA B   7       1.333  32.985  61.744  1.00 46.36 LIG 0.04  C 
BRANCH 43 45
ATOM     45  C   ALA B   7       3.154  31.498  60.791  1.00 46.87 LIG 0.22  C 
ATOM     46 O    ALA B   7       4.284  31.358  61.264  1.00 48.90 LIG-0.29  OA
ENDBRANCH 43 45
ENDBRANCH 40 43
ENDBRANCH 38 39
BRANCH 38 47
ATOM     47  CB  GLU B   6       1.464  29.331  65.985  1.00 42.54 LIG 0.04  C 
BRANCH 47 48
ATOM     48  CG  GLU B   6       2.296  28.927  67.250  1.00 48.04 LIG 0.12  C 
BRANCH 48 49
ATOM     49  CD  GLU B   6       3.824  29.018  67.103  1.00 53.57 LIG 0.17  C 
ATOM     50 OE2  GLU B   6       4.490  27.964  67.356  1.00 60.38 LIG-0.65  OA
ATOM     51 OE1  GLU B   6       4.375  30.083  66.714  1.00 57.14 LIG-0.65  OA
ENDBRANCH 48 49
ENDBRANCH 47 48
ENDBRANCH 38 47
ENDBRANCH 36 38
ENDBRANCH 33 34
BRANCH 33 52
ATOM     52  CB  PHE B   5      -1.247  34.476  65.459  1.00 32.62 LIG 0.07  C 
BRANCH 52 53
ATOM     53  CG  PHE B   5      -1.724  33.682  64.278  1.00 30.35 LIG-0.06  A 
ATOM     54  CD1 PHE B   5      -1.502  34.112  62.991  1.00 31.18 LIG 0.01  A 
ATOM     55  CE1 PHE B   5      -1.969  33.374  61.909  1.00 30.23 LIG 0.00  A 
ATOM     56  CZ  PHE B   5      -2.672  32.169  62.102  1.00 31.30 LIG 0.00  A 
ATOM     57  CE2 PHE B   5      -2.942  31.753  63.406  1.00 30.12 LIG 0.00  A 
ATOM     58  CD2 PHE B   5      -2.462  32.511  64.473  1.00 31.88 LIG 0.01  A 
ENDBRANCH 52 53
ENDBRANCH 33 52
ENDBRANCH 3 33
TORSDOF 20
ENDMDL
MODEL 35
USER: ADFR SOLUTION from run 43
USER: SCORE 18.475896 LL:  -4.627 LR: -15.344 RR:   0.000 FEB:  -9.378
USER: RMSD 5.176930
USER: SEED 42
USER: STATUS no improvement in best in 15 clusters for 5 generations
USER: GENES 22
USER: genes 0 Translation |==|  0.60215 0.49234 0.55786
USER: genes 1 Rotation |==|  0.37725 0.30585 0.07205 0.61874
USER: genes 2 Torsion [N]-C--CA-[N] |==|  0.31805
USER: genes 3 Torsion [C]-CA--CB-[CG] |==|  0.61258
USER: genes 4 Torsion [CA]-CB--CG-[CD2] |==|  0.60706
USER: genes 5 Torsion [C]-CA--N-[C] |==|  0.76634
USER: genes 6 Torsion [N]-C--CA-[N] |==|  0.94003
USER: genes 7 Torsion [C]-CA--N-[C] |==|  0.82023
USER: genes 8 Torsion [N]-C--CA-[N] |==|  0.66280
USER: genes 9 Torsion [C]-CA--CB-[CG] |==|  0.33536
USER: genes 10 Torsion [CA]-CB--CG-[CD1] |==|  0.44684
USER: genes 11 Torsion [C]-N--CA-[CB] |==|  0.42778
USER: genes 12 Torsion [N]-CA--C-[N] |==|  0.93071
USER: genes 13 Torsion [C]-N--CA-[C] |==|  0.73417
USER: genes 14 Torsion [N]-CA--C-[N] |==|  0.39378
USER: genes 15 Torsion [C]-N--CA-[C] |==|  0.60360
USER: genes 16 Torsion [N]-CA--C-[O] |==|  0.47192
USER: genes 17 Torsion [N]-CA--CB-[CG] |==|  0.39528
USER: genes 18 Torsion [CA]-CB--CG-[CD] |==|  0.40408
USER: genes 19 Torsion [CB]-CG--CD-[OE2] |==|  0.55335
USER: genes 20 Torsion [N]-CA--CB-[CG] |==|  0.13460
USER: genes 21 Torsion [CA]-CB--CG-[CD2] |==|  0.25494
ROOT
ATOM      1  C   LEU B   4      -0.936  35.459  69.148  1.00 29.18 LIG 0.24  C 
ATOM      2 O    LEU B   4      -0.868  34.286  69.524  1.00 28.54 LIG-0.27  OA
ATOM      3  N   PHE B   5      -1.854  35.889  68.285  1.00 29.99 LIG-0.35  N 
ATOM      4 H    PHE B   5      -1.848  36.669  67.922  1.00 29.99 LIG 0.16  HD
ENDROOT
BRANCH 1 5
ATOM      5  CA  LEU B   4       0.092  36.485  69.667  1.00 28.82 LIG 0.18  C 
BRANCH 5 6
ATOM      6  CB  LEU B   4       1.491  36.051  69.299  1.00 28.29 LIG 0.04  C 
BRANCH 6 7
ATOM      7  CG  LEU B   4       2.539  36.276  70.405  1.00 28.88 LIG-0.02  C 
ATOM      8  CD2 LEU B   4       3.835  36.735  69.758  1.00 30.37 LIG 0.01  C 
ATOM      9  CD1 LEU B   4       2.790  35.034  71.298  1.00 31.50 LIG 0.01  C 
ENDBRANCH 6 7
ENDBRANCH 5 6
BRANCH 5 10
ATOM     10  N   LEU B   4      -0.025  36.751  71.097  1.00 28.20 LIG-0.35  N 
ATOM     11  C   TRP B   3      -0.891  37.633  71.556  1.00 29.51 LIG 0.24  C 
ATOM     12 O    TRP B   3      -1.668  38.231  70.820  1.00 30.32 LIG-0.27  OA
ATOM     13 H    LEU B   4       0.508  36.292  71.592  1.00 28.20 LIG 0.16  HD
BRANCH 11 14
ATOM     14  CA  TRP B   3      -0.854  37.911  73.068  1.00 31.78 LIG 0.18  C 
BRANCH 14 15
ATOM     15  N   TRP B   3      -0.215  36.775  73.773  1.00 33.85 LIG-0.35  N 
ATOM     16  C   ALA B   2      -0.844  35.585  73.735  1.00 37.00 LIG 0.26  C 
ATOM     17 O    ALA B   2      -1.965  35.462  73.170  1.00 38.56 LIG-0.27  OA
ATOM     18 H    TRP B   3       0.529  36.942  74.171  1.00 33.85 LIG 0.16  HD
BRANCH 16 19
ATOM     19  CA  ALA B   2      -0.218  34.372  74.369  1.00 38.11 LIG 0.40  C 
ATOM     20  CB  ALA B   2       1.087  34.813  75.168  1.00 38.97 LIG 0.06  C 
ATOM     21  N   ALA B   2       0.062  33.159  73.508  1.00 37.81 LIG 0.61  N 
ENDBRANCH 16 19
ENDBRANCH 14 15
BRANCH 14 22
ATOM     22  CB  TRP B   3      -0.128  39.250  73.317  1.00 31.58 LIG 0.07  C 
BRANCH 22 23
ATOM     23  CG  TRP B   3      -0.963  40.221  74.004  1.00 30.60 LIG-0.03  A 
ATOM     24  CD1 TRP B   3      -0.554  41.315  74.675  1.00 31.03 LIG 0.10  A 
ATOM     25  NE1 TRP B   3      -1.635  41.954  75.236  1.00 29.84 LIG-0.36  N 
ATOM     26 HE1  TRP B   3      -1.604  42.672  75.710  1.00 29.84 LIG 0.17  HD
ATOM     27  CE2 TRP B   3      -2.766  41.258  74.916  1.00 27.79 LIG 0.04  A 
ATOM     28  CD2 TRP B   3      -2.378  40.168  74.139  1.00 28.46 LIG-0.00  A 
ATOM     29  CZ2 TRP B   3      -4.090  41.512  75.241  1.00 27.89 LIG 0.03  A 
ATOM     30  CE3 TRP B   3      -3.345  39.286  73.693  1.00 31.78 LIG 0.01  A 
ATOM     31  CZ3 TRP B   3      -4.660  39.544  73.989  1.00 30.70 LIG 0.00  A 
ATOM     32  CH2 TRP B   3      -5.016  40.640  74.785  1.00 27.16 LIG 0.00  A 
ENDBRANCH 22 23
ENDBRANCH 14 22
ENDBRANCH 11 14
ENDBRANCH 5 10
ENDBRANCH 1 5
BRANCH 3 33
ATOM     33  CA  PHE B   5      -2.985  35.028  67.877  1.00 32.14 LIG 0.18  C 
BRANCH 33 34
ATOM     34  C   PHE B   5      -2.663  34.080  66.739  1.00 34.99 LIG 0.24  C 
ATOM     35 O    PHE B   5      -3.342  33.058  66.596  1.00 34.76 LIG-0.27  OA
ATOM     36  N   GLU B   6      -1.666  34.448  65.920  1.00 37.97 LIG-0.35  N 
ATOM     37 H    GLU B   6      -1.419  35.267  65.830  1.00 37.97 LIG 0.16  HD
BRANCH 36 38
ATOM     38  CA  GLU B   6      -0.879  33.509  65.081  1.00 41.44 LIG 0.18  C 
BRANCH 38 39
ATOM     39  C   GLU B   6       0.399  33.176  65.887  1.00 42.63 LIG 0.24  C 
ATOM     40  N   ALA B   7       0.843  31.920  65.823  1.00 44.72 LIG-0.35  N 
ATOM     41 H    ALA B   7       0.562  31.325  65.269  1.00 44.72 LIG 0.16  HD
ATOM     42 O    GLU B   6       0.944  34.020  66.629  1.00 39.57 LIG-0.27  OA
BRANCH 40 43
ATOM     43  CA  ALA B   7       1.921  31.461  66.776  1.00 46.42 LIG 0.16  C 
ATOM     44  CB  ALA B   7       1.308  30.860  68.060  1.00 46.36 LIG 0.04  C 
BRANCH 43 45
ATOM     45  C   ALA B   7       2.902  30.508  66.118  1.00 46.87 LIG 0.22  C 
ATOM     46 O    ALA B   7       3.933  30.205  66.721  1.00 48.90 LIG-0.29  OA
ENDBRANCH 43 45
ENDBRANCH 40 43
ENDBRANCH 38 39
BRANCH 38 47
ATOM     47  CB  GLU B   6      -0.521  34.100  63.713  1.00 42.54 LIG 0.04  C 
BRANCH 47 48
ATOM     48  CG  GLU B   6       0.915  33.691  63.239  1.00 48.04 LIG 0.12  C 
BRANCH 48 49
ATOM     49  CD  GLU B   6       1.085  33.481  61.725  1.00 53.57 LIG 0.17  C 
ATOM     50 OE2  GLU B   6       2.094  32.802  61.349  1.00 60.38 LIG-0.65  OA
ATOM     51 OE1  GLU B   6       0.239  33.934  60.909  1.00 57.14 LIG-0.65  OA
ENDBRANCH 48 49
ENDBRANCH 47 48
ENDBRANCH 38 47
ENDBRANCH 36 38
ENDBRANCH 33 34
BRANCH 33 52
ATOM     52  CB  PHE B   5      -4.205  35.860  67.435  1.00 32.62 LIG 0.07  C 
BRANCH 52 53
ATOM     53  CG  PHE B   5      -3.891  36.957  66.461  1.00 30.35 LIG-0.06  A 
ATOM     54  CD1 PHE B   5      -3.584  38.227  66.890  1.00 31.18 LIG 0.01  A 
ATOM     55  CE1 PHE B   5      -3.318  39.238  65.972  1.00 30.23 LIG 0.00  A 
ATOM     56  CZ  PHE B   5      -3.347  38.986  64.586  1.00 31.30 LIG 0.00  A 
ATOM     57  CE2 PHE B   5      -3.705  37.712  64.146  1.00 30.12 LIG 0.00  A 
ATOM     58  CD2 PHE B   5      -3.968  36.717  65.086  1.00 31.88 LIG 0.01  A 
ENDBRANCH 52 53
ENDBRANCH 33 52
ENDBRANCH 3 33
TORSDOF 20
ENDMDL
MODEL 36
USER: ADFR SOLUTION from run 94
USER: SCORE 17.544035 LL:  -4.398 LR: -15.308 RR:   0.000 FEB:  -9.342
USER: RMSD 5.541656
USER: SEED 93
USER: STATUS no improvement in best in 21 clusters for 5 generations
USER: GENES 22
USER: genes 0 Translation |==|  0.60083 0.47007 0.54083
USER: genes 1 Rotation |==|  0.39867 0.79865 0.84887 0.66978
USER: genes 2 Torsion [N]-C--CA-[N] |==|  0.47062
USER: genes 3 Torsion [C]-CA--CB-[CG] |==|  0.39023
USER: genes 4 Torsion [CA]-CB--CG-[CD2] |==|  0.64345
USER: genes 5 Torsion [C]-CA--N-[C] |==|  0.57504
USER: genes 6 Torsion [N]-C--CA-[N] |==|  0.99172
USER: genes 7 Torsion [C]-CA--N-[C] |==|  0.69793
USER: genes 8 Torsion [N]-C--CA-[N] |==|  0.01040
USER: genes 9 Torsion [C]-CA--CB-[CG] |==|  0.36508
USER: genes 10 Torsion [CA]-CB--CG-[CD1] |==|  0.63862
USER: genes 11 Torsion [C]-N--CA-[CB] |==|  0.23449
USER: genes 12 Torsion [N]-CA--C-[N] |==|  0.26252
USER: genes 13 Torsion [C]-N--CA-[C] |==|  0.91651
USER: genes 14 Torsion [N]-CA--C-[N] |==|  0.35455
USER: genes 15 Torsion [C]-N--CA-[C] |==|  0.53517
USER: genes 16 Torsion [N]-CA--C-[O] |==|  0.95557
USER: genes 17 Torsion [N]-CA--CB-[CG] |==|  0.76438
USER: genes 18 Torsion [CA]-CB--CG-[CD] |==|  0.85711
USER: genes 19 Torsion [CB]-CG--CD-[OE2] |==|  0.64564
USER: genes 20 Torsion [N]-CA--CB-[CG] |==|  0.49459
USER: genes 21 Torsion [CA]-CB--CG-[CD2] |==|  0.16115
ROOT
ATOM      1  C   LEU B   4      -0.962  35.024  68.765  1.00 29.18 LIG 0.24  C 
ATOM      2 O    LEU B   4      -2.009  34.408  68.981  1.00 28.54 LIG-0.27  OA
ATOM      3  N   PHE B   5      -0.158  34.748  67.740  1.00 29.99 LIG-0.35  N 
ATOM      4 H    PHE B   5       0.627  35.083  67.638  1.00 29.99 LIG 0.16  HD
ENDROOT
BRANCH 1 5
ATOM      5  CA  LEU B   4      -0.531  36.152  69.725  1.00 28.82 LIG 0.18  C 
BRANCH 5 6
ATOM      6  CB  LEU B   4       0.738  35.764  70.446  1.00 28.29 LIG 0.04  C 
BRANCH 6 7
ATOM      7  CG  LEU B   4       1.746  36.915  70.626  1.00 28.88 LIG-0.02  C 
ATOM      8  CD2 LEU B   4       3.102  36.457  70.116  1.00 30.37 LIG 0.01  C 
ATOM      9  CD1 LEU B   4       1.861  37.430  72.083  1.00 31.50 LIG 0.01  C 
ENDBRANCH 6 7
ENDBRANCH 5 6
BRANCH 5 10
ATOM     10  N   LEU B   4      -1.577  36.546  70.663  1.00 28.20 LIG-0.35  N 
ATOM     11  C   TRP B   3      -1.615  37.763  71.168  1.00 29.51 LIG 0.24  C 
ATOM     12 O    TRP B   3      -0.813  38.632  70.842  1.00 30.32 LIG-0.27  OA
ATOM     13 H    LEU B   4      -2.146  35.928  70.847  1.00 28.20 LIG 0.16  HD
BRANCH 11 14
ATOM     14  CA  TRP B   3      -2.696  38.036  72.227  1.00 31.78 LIG 0.18  C 
BRANCH 14 15
ATOM     15  N   TRP B   3      -3.541  36.832  72.405  1.00 33.85 LIG-0.35  N 
ATOM     16  C   ALA B   2      -4.802  36.881  71.936  1.00 37.00 LIG 0.26  C 
ATOM     17 O    ALA B   2      -5.261  37.936  71.420  1.00 38.56 LIG-0.27  OA
ATOM     18 H    TRP B   3      -3.173  36.164  72.803  1.00 33.85 LIG 0.16  HD
BRANCH 16 19
ATOM     19  CA  ALA B   2      -5.693  35.672  72.021  1.00 38.11 LIG 0.40  C 
ATOM     20  CB  ALA B   2      -7.108  36.103  72.610  1.00 38.97 LIG 0.06  C 
ATOM     21  N   ALA B   2      -5.177  34.430  72.717  1.00 37.81 LIG 0.61  N 
ENDBRANCH 16 19
ENDBRANCH 14 15
BRANCH 14 22
ATOM     22  CB  TRP B   3      -2.016  38.486  73.538  1.00 31.58 LIG 0.07  C 
BRANCH 22 23
ATOM     23  CG  TRP B   3      -2.617  39.685  74.099  1.00 30.60 LIG-0.03  A 
ATOM     24  CD1 TRP B   3      -1.981  40.799  74.507  1.00 31.03 LIG 0.10  A 
ATOM     25  NE1 TRP B   3      -2.885  41.692  75.032  1.00 29.84 LIG-0.36  N 
ATOM     26 HE1  TRP B   3      -2.697  42.467  75.353  1.00 29.84 LIG 0.17  HD
ATOM     27  CE2 TRP B   3      -4.133  41.141  74.957  1.00 27.79 LIG 0.04  A 
ATOM     28  CD2 TRP B   3      -3.999  39.884  74.371  1.00 28.46 LIG-0.00  A 
ATOM     29  CZ2 TRP B   3      -5.359  41.658  75.346  1.00 27.89 LIG 0.03  A 
ATOM     30  CE3 TRP B   3      -5.128  39.104  74.193  1.00 31.78 LIG 0.01  A 
ATOM     31  CZ3 TRP B   3      -6.347  39.619  74.554  1.00 30.70 LIG 0.00  A 
ATOM     32  CH2 TRP B   3      -6.447  40.881  75.153  1.00 27.16 LIG 0.00  A 
ENDBRANCH 22 23
ENDBRANCH 14 22
ENDBRANCH 11 14
ENDBRANCH 5 10
ENDBRANCH 1 5
BRANCH 3 33
ATOM     33  CA  PHE B   5      -0.573  33.816  66.670  1.00 32.14 LIG 0.18  C 
BRANCH 33 34
ATOM     34  C   PHE B   5       0.579  33.138  65.957  1.00 34.99 LIG 0.24  C 
ATOM     35 O    PHE B   5       1.150  33.732  65.036  1.00 34.76 LIG-0.27  OA
ATOM     36  N   GLU B   6       0.937  31.929  66.416  1.00 37.97 LIG-0.35  N 
ATOM     37 H    GLU B   6       0.763  31.668  67.216  1.00 37.97 LIG 0.16  HD
BRANCH 36 38
ATOM     38  CA  GLU B   6       1.663  30.910  65.617  1.00 41.44 LIG 0.18  C 
BRANCH 38 39
ATOM     39  C   GLU B   6       1.242  31.132  64.145  1.00 42.63 LIG 0.24  C 
ATOM     40  N   ALA B   7       2.222  31.269  63.252  1.00 44.72 LIG-0.35  N 
ATOM     41 H    ALA B   7       3.054  31.107  63.402  1.00 44.72 LIG 0.16  HD
ATOM     42 O    GLU B   6       0.044  31.260  63.819  1.00 39.57 LIG-0.27  OA
BRANCH 40 43
ATOM     43  CA  ALA B   7       1.896  31.742  61.855  1.00 46.42 LIG 0.16  C 
ATOM     44  CB  ALA B   7       1.397  33.203  61.866  1.00 46.36 LIG 0.04  C 
BRANCH 43 45
ATOM     45  C   ALA B   7       3.058  31.549  60.897  1.00 46.87 LIG 0.22  C 
ATOM     46 O    ALA B   7       4.182  31.339  61.358  1.00 48.90 LIG-0.29  OA
ENDBRANCH 43 45
ENDBRANCH 40 43
ENDBRANCH 38 39
BRANCH 38 47
ATOM     47  CB  GLU B   6       1.347  29.478  66.064  1.00 42.54 LIG 0.04  C 
BRANCH 47 48
ATOM     48  CG  GLU B   6       2.239  29.012  67.265  1.00 48.04 LIG 0.12  C 
BRANCH 48 49
ATOM     49  CD  GLU B   6       3.755  29.201  67.085  1.00 53.57 LIG 0.17  C 
ATOM     50 OE2  GLU B   6       4.489  28.180  67.284  1.00 60.38 LIG-0.65  OA
ATOM     51 OE1  GLU B   6       4.232  30.309  66.721  1.00 57.14 LIG-0.65  OA
ENDBRANCH 48 49
ENDBRANCH 47 48
ENDBRANCH 38 47
ENDBRANCH 36 38
ENDBRANCH 33 34
BRANCH 33 52
ATOM     52  CB  PHE B   5      -1.414  34.524  65.590  1.00 32.62 LIG 0.07  C 
BRANCH 52 53
ATOM     53  CG  PHE B   5      -1.831  33.645  64.449  1.00 30.35 LIG-0.06  A 
ATOM     54  CD1 PHE B   5      -1.543  33.979  63.146  1.00 31.18 LIG 0.01  A 
ATOM     55  CE1 PHE B   5      -1.957  33.163  62.099  1.00 30.23 LIG 0.00  A 
ATOM     56  CZ  PHE B   5      -2.671  31.974  62.344  1.00 31.30 LIG 0.00  A 
ATOM     57  CE2 PHE B   5      -3.008  31.655  63.660  1.00 30.12 LIG 0.00  A 
ATOM     58  CD2 PHE B   5      -2.581  32.490  64.691  1.00 31.88 LIG 0.01  A 
ENDBRANCH 52 53
ENDBRANCH 33 52
ENDBRANCH 3 33
TORSDOF 20
ENDMDL
MODEL 37
USER: ADFR SOLUTION from run 110
USER: SCORE 18.747129 LL:  -4.814 LR: -15.302 RR:   0.000 FEB:  -9.336
USER: RMSD 10.292755
USER: SEED 109
USER: STATUS no improvement in best in 1 clusters for 5 generations
USER: GENES 22
USER: genes 0 Translation |==|  0.56975 0.59298 0.64809
USER: genes 1 Rotation |==|  0.66545 0.93576 0.38421 0.63906
USER: genes 2 Torsion [N]-C--CA-[N] |==|  0.21111
USER: genes 3 Torsion [C]-CA--CB-[CG] |==|  0.47415
USER: genes 4 Torsion [CA]-CB--CG-[CD2] |==|  0.85613
USER: genes 5 Torsion [C]-CA--N-[C] |==|  0.67856
USER: genes 6 Torsion [N]-C--CA-[N] |==|  0.89200
USER: genes 7 Torsion [C]-CA--N-[C] |==|  0.81986
USER: genes 8 Torsion [N]-C--CA-[N] |==|  0.47144
USER: genes 9 Torsion [C]-CA--CB-[CG] |==|  0.19467
USER: genes 10 Torsion [CA]-CB--CG-[CD1] |==|  0.85152
USER: genes 11 Torsion [C]-N--CA-[CB] |==|  0.50175
USER: genes 12 Torsion [N]-CA--C-[N] |==|  0.37093
USER: genes 13 Torsion [C]-N--CA-[C] |==|  0.17195
USER: genes 14 Torsion [N]-CA--C-[N] |==|  0.09469
USER: genes 15 Torsion [C]-N--CA-[C] |==|  0.63360
USER: genes 16 Torsion [N]-CA--C-[O] |==|  0.04555
USER: genes 17 Torsion [N]-CA--CB-[CG] |==|  0.73056
USER: genes 18 Torsion [CA]-CB--CG-[CD] |==|  0.05618
USER: genes 19 Torsion [CB]-CG--CD-[OE2] |==|  0.81399
USER: genes 20 Torsion [N]-CA--CB-[CG] |==|  0.71148
USER: genes 21 Torsion [CA]-CB--CG-[CD2] |==|  0.86532
ROOT
ATOM      1  C   LEU B   4      -1.568  37.421  71.178  1.00 29.18 LIG 0.24  C 
ATOM      2 O    LEU B   4      -1.403  38.644  71.204  1.00 28.54 LIG-0.27  OA
ATOM      3  N   PHE B   5      -2.647  36.826  71.681  1.00 29.99 LIG-0.35  N 
ATOM      4 H    PHE B   5      -2.729  35.975  71.778  1.00 29.99 LIG 0.16  HD
ENDROOT
BRANCH 1 5
ATOM      5  CA  LEU B   4      -0.477  36.520  70.565  1.00 28.82 LIG 0.18  C 
BRANCH 5 6
ATOM      6  CB  LEU B   4       0.845  37.249  70.537  1.00 28.29 LIG 0.04  C 
BRANCH 6 7
ATOM      7  CG  LEU B   4       2.050  36.370  70.154  1.00 28.88 LIG-0.02  C 
ATOM      8  CD2 LEU B   4       2.052  35.137  71.043  1.00 30.37 LIG 0.01  C 
ATOM      9  CD1 LEU B   4       3.415  37.099  70.237  1.00 31.50 LIG 0.01  C 
ENDBRANCH 6 7
ENDBRANCH 5 6
BRANCH 5 10
ATOM     10  N   LEU B   4      -0.827  36.000  69.247  1.00 28.20 LIG-0.35  N 
ATOM     11  C   TRP B   3      -0.990  34.707  69.047  1.00 29.51 LIG 0.24  C 
ATOM     12 O    TRP B   3      -0.906  33.888  69.957  1.00 30.32 LIG-0.27  OA
ATOM     13 H    LEU B   4      -0.914  36.599  68.636  1.00 28.20 LIG 0.16  HD
BRANCH 11 14
ATOM     14  CA  TRP B   3      -1.251  34.262  67.599  1.00 31.78 LIG 0.18  C 
BRANCH 14 15
ATOM     15  N   TRP B   3      -2.140  35.237  66.926  1.00 33.85 LIG-0.35  N 
ATOM     16  C   ALA B   2      -3.396  35.364  67.395  1.00 37.00 LIG 0.26  C 
ATOM     17 O    ALA B   2      -3.813  34.633  68.334  1.00 38.56 LIG-0.27  OA
ATOM     18 H    TRP B   3      -1.800  35.671  66.266  1.00 33.85 LIG 0.16  HD
BRANCH 16 19
ATOM     19  CA  ALA B   2      -4.330  36.385  66.804  1.00 38.11 LIG 0.40  C 
ATOM     20  CB  ALA B   2      -3.727  37.841  67.030  1.00 38.97 LIG 0.06  C 
ATOM     21  N   ALA B   2      -5.794  36.343  67.188  1.00 37.81 LIG 0.61  N 
ENDBRANCH 16 19
ENDBRANCH 14 15
BRANCH 14 22
ATOM     22  CB  TRP B   3       0.100  34.087  66.873  1.00 31.58 LIG 0.07  C 
BRANCH 22 23
ATOM     23  CG  TRP B   3       0.851  32.939  67.353  1.00 30.60 LIG-0.03  A 
ATOM     24  CD1 TRP B   3       1.185  32.662  68.627  1.00 31.03 LIG 0.10  A 
ATOM     25  NE1 TRP B   3       1.946  31.517  68.676  1.00 29.84 LIG-0.36  N 
ATOM     26 HE1  TRP B   3       2.269  31.158  69.388  1.00 29.84 LIG 0.17  HD
ATOM     27  CE2 TRP B   3       2.101  31.045  67.404  1.00 27.79 LIG 0.04  A 
ATOM     28  CD2 TRP B   3       1.421  31.913  66.551  1.00 28.46 LIG-0.00  A 
ATOM     29  CZ2 TRP B   3       2.774  29.922  66.947  1.00 27.89 LIG 0.03  A 
ATOM     30  CE3 TRP B   3       1.437  31.663  65.190  1.00 31.78 LIG 0.01  A 
ATOM     31  CZ3 TRP B   3       2.080  30.541  64.733  1.00 30.70 LIG 0.00  A 
ATOM     32  CH2 TRP B   3       2.767  29.696  65.615  1.00 27.16 LIG 0.00  A 
ENDBRANCH 22 23
ENDBRANCH 14 22
ENDBRANCH 11 14
ENDBRANCH 5 10
ENDBRANCH 1 5
BRANCH 3 33
ATOM     33  CA  PHE B   5      -3.821  37.611  72.120  1.00 32.14 LIG 0.18  C 
BRANCH 33 34
ATOM     34  C   PHE B   5      -3.512  38.640  73.189  1.00 34.99 LIG 0.24  C 
ATOM     35 O    PHE B   5      -2.790  38.323  74.141  1.00 34.76 LIG-0.27  OA
ATOM     36  N   GLU B   6      -4.020  39.868  73.001  1.00 37.97 LIG-0.35  N 
ATOM     37 H    GLU B   6      -4.240  40.163  72.224  1.00 37.97 LIG 0.16  HD
BRANCH 36 38
ATOM     38  CA  GLU B   6      -4.262  40.852  74.086  1.00 41.44 LIG 0.18  C 
BRANCH 38 39
ATOM     39  C   GLU B   6      -2.880  41.157  74.710  1.00 42.63 LIG 0.24  C 
ATOM     40  N   ALA B   7      -1.832  41.151  73.885  1.00 44.72 LIG-0.35  N 
ATOM     41 H    ALA B   7      -1.879  41.131  73.027  1.00 44.72 LIG 0.16  HD
ATOM     42 O    GLU B   6      -2.737  41.318  75.939  1.00 39.57 LIG-0.27  OA
BRANCH 40 43
ATOM     43  CA  ALA B   7      -0.434  41.183  74.457  1.00 46.42 LIG 0.16  C 
ATOM     44  CB  ALA B   7       0.213  39.781  74.422  1.00 46.36 LIG 0.04  C 
BRANCH 43 45
ATOM     45  C   ALA B   7       0.440  42.225  73.782  1.00 46.87 LIG 0.22  C 
ATOM     46 O    ALA B   7      -0.098  43.108  73.110  1.00 48.90 LIG-0.29  OA
ENDBRANCH 43 45
ENDBRANCH 40 43
ENDBRANCH 38 39
BRANCH 38 47
ATOM     47  CB  GLU B   6      -5.235  40.328  75.148  1.00 42.54 LIG 0.04  C 
BRANCH 47 48
ATOM     48  CG  GLU B   6      -6.704  40.821  74.912  1.00 48.04 LIG 0.12  C 
BRANCH 48 49
ATOM     49  CD  GLU B   6      -7.029  41.295  73.486  1.00 53.57 LIG 0.17  C 
ATOM     50 OE2  GLU B   6      -6.449  42.355  73.086  1.00 60.38 LIG-0.65  OA
ATOM     51 OE1  GLU B   6      -7.807  40.635  72.745  1.00 57.14 LIG-0.65  OA
ENDBRANCH 48 49
ENDBRANCH 47 48
ENDBRANCH 38 47
ENDBRANCH 36 38
ENDBRANCH 33 34
BRANCH 33 52
ATOM     52  CB  PHE B   5      -4.936  36.707  72.678  1.00 32.62 LIG 0.07  C 
BRANCH 52 53
ATOM     53  CG  PHE B   5      -6.096  36.502  71.748  1.00 30.35 LIG-0.06  A 
ATOM     54  CD1 PHE B   5      -6.555  35.242  71.445  1.00 31.18 LIG 0.01  A 
ATOM     55  CE1 PHE B   5      -7.618  35.070  70.564  1.00 30.23 LIG 0.00  A 
ATOM     56  CZ  PHE B   5      -8.253  36.177  69.968  1.00 31.30 LIG 0.00  A 
ATOM     57  CE2 PHE B   5      -7.759  37.455  70.235  1.00 30.12 LIG 0.00  A 
ATOM     58  CD2 PHE B   5      -6.694  37.599  71.121  1.00 31.88 LIG 0.01  A 
ENDBRANCH 52 53
ENDBRANCH 33 52
ENDBRANCH 3 33
TORSDOF 20
ENDMDL
MODEL 38
USER: ADFR SOLUTION from run 63
USER: SCORE 19.071101 LL:  -5.361 LR: -15.290 RR:   0.000 FEB:  -9.324
USER: RMSD 6.742352
USER: SEED 62
USER: STATUS no improvement in best in 9 clusters for 5 generations
USER: GENES 22
USER: genes 0 Translation |==|  0.49740 0.57453 0.52750
USER: genes 1 Rotation |==|  0.59379 0.62178 0.94863 0.65843
USER: genes 2 Torsion [N]-C--CA-[N] |==|  0.34128
USER: genes 3 Torsion [C]-CA--CB-[CG] |==|  0.41076
USER: genes 4 Torsion [CA]-CB--CG-[CD2] |==|  0.82367
USER: genes 5 Torsion [C]-CA--N-[C] |==|  0.69527
USER: genes 6 Torsion [N]-C--CA-[N] |==|  0.00498
USER: genes 7 Torsion [C]-CA--N-[C] |==|  0.78296
USER: genes 8 Torsion [N]-C--CA-[N] |==|  0.88396
USER: genes 9 Torsion [C]-CA--CB-[CG] |==|  0.82923
USER: genes 10 Torsion [CA]-CB--CG-[CD1] |==|  0.75383
USER: genes 11 Torsion [C]-N--CA-[CB] |==|  0.41719
USER: genes 12 Torsion [N]-CA--C-[N] |==|  0.88076
USER: genes 13 Torsion [C]-N--CA-[C] |==|  0.16667
USER: genes 14 Torsion [N]-CA--C-[N] |==|  0.12456
USER: genes 15 Torsion [C]-N--CA-[C] |==|  0.73450
USER: genes 16 Torsion [N]-CA--C-[O] |==|  0.00978
USER: genes 17 Torsion [N]-CA--CB-[CG] |==|  0.80558
USER: genes 18 Torsion [CA]-CB--CG-[CD] |==|  0.87938
USER: genes 19 Torsion [CB]-CG--CD-[OE2] |==|  0.45763
USER: genes 20 Torsion [N]-CA--CB-[CG] |==|  0.65770
USER: genes 21 Torsion [CA]-CB--CG-[CD2] |==|  0.43315
ROOT
ATOM      1  C   LEU B   4      -2.979  37.061  68.465  1.00 29.18 LIG 0.24  C 
ATOM      2 O    LEU B   4      -4.072  36.491  68.508  1.00 28.54 LIG-0.27  OA
ATOM      3  N   PHE B   5      -2.622  37.866  67.466  1.00 29.99 LIG-0.35  N 
ATOM      4 H    PHE B   5      -1.828  38.178  67.357  1.00 29.99 LIG 0.16  HD
ENDROOT
BRANCH 1 5
ATOM      5  CA  LEU B   4      -1.953  36.828  69.593  1.00 28.82 LIG 0.18  C 
BRANCH 5 6
ATOM      6  CB  LEU B   4      -1.456  35.402  69.556  1.00 28.29 LIG 0.04  C 
BRANCH 6 7
ATOM      7  CG  LEU B   4       0.002  35.224  70.018  1.00 28.88 LIG-0.02  C 
ATOM      8  CD2 LEU B   4       0.910  35.973  69.057  1.00 30.37 LIG 0.01  C 
ATOM      9  CD1 LEU B   4       0.449  33.745  70.143  1.00 31.50 LIG 0.01  C 
ENDBRANCH 6 7
ENDBRANCH 5 6
BRANCH 5 10
ATOM     10  N   LEU B   4      -2.456  37.183  70.916  1.00 28.20 LIG-0.35  N 
ATOM     11  C   TRP B   3      -1.991  38.236  71.560  1.00 29.51 LIG 0.24  C 
ATOM     12 O    TRP B   3      -1.160  38.991  71.066  1.00 30.32 LIG-0.27  OA
ATOM     13 H    LEU B   4      -3.063  36.657  71.223  1.00 28.20 LIG 0.16  HD
BRANCH 11 14
ATOM     14  CA  TRP B   3      -2.514  38.455  72.989  1.00 31.78 LIG 0.18  C 
BRANCH 14 15
ATOM     15  N   TRP B   3      -3.437  37.357  73.361  1.00 33.85 LIG-0.35  N 
ATOM     16  C   ALA B   2      -4.691  37.406  72.875  1.00 37.00 LIG 0.26  C 
ATOM     17 O    ALA B   2      -5.078  38.385  72.179  1.00 38.56 LIG-0.27  OA
ATOM     18 H    TRP B   3      -3.115  36.745  73.872  1.00 33.85 LIG 0.16  HD
BRANCH 16 19
ATOM     19  CA  ALA B   2      -5.661  36.290  73.154  1.00 38.11 LIG 0.40  C 
ATOM     20  CB  ALA B   2      -6.392  36.566  74.542  1.00 38.97 LIG 0.06  C 
ATOM     21  N   ALA B   2      -5.171  34.860  73.080  1.00 37.81 LIG 0.61  N 
ENDBRANCH 16 19
ENDBRANCH 14 15
BRANCH 14 22
ATOM     22  CB  TRP B   3      -1.313  38.575  73.953  1.00 31.58 LIG 0.07  C 
BRANCH 22 23
ATOM     23  CG  TRP B   3      -0.495  37.374  73.982  1.00 30.60 LIG-0.03  A 
ATOM     24  CD1 TRP B   3      -0.654  36.301  74.779  1.00 31.03 LIG 0.10  A 
ATOM     25  NE1 TRP B   3       0.352  35.392  74.551  1.00 29.84 LIG-0.36  N 
ATOM     26 HE1  TRP B   3       0.447  34.636  74.952  1.00 29.84 LIG 0.17  HD
ATOM     27  CE2 TRP B   3       1.176  35.890  73.583  1.00 27.79 LIG 0.04  A 
ATOM     28  CD2 TRP B   3       0.668  37.131  73.201  1.00 28.46 LIG-0.00  A 
ATOM     29  CZ2 TRP B   3       2.314  35.339  73.012  1.00 27.89 LIG 0.03  A 
ATOM     30  CE3 TRP B   3       1.337  37.858  72.233  1.00 31.78 LIG 0.01  A 
ATOM     31  CZ3 TRP B   3       2.449  37.309  71.646  1.00 30.70 LIG 0.00  A 
ATOM     32  CH2 TRP B   3       2.943  36.066  72.062  1.00 27.16 LIG 0.00  A 
ENDBRANCH 22 23
ENDBRANCH 14 22
ENDBRANCH 11 14
ENDBRANCH 5 10
ENDBRANCH 1 5
BRANCH 3 33
ATOM     33  CA  PHE B   5      -3.598  38.293  66.440  1.00 32.14 LIG 0.18  C 
BRANCH 33 34
ATOM     34  C   PHE B   5      -3.707  37.350  65.259  1.00 34.99 LIG 0.24  C 
ATOM     35 O    PHE B   5      -4.822  37.103  64.786  1.00 34.76 LIG-0.27  OA
ATOM     36  N   GLU B   6      -2.553  36.872  64.768  1.00 37.97 LIG-0.35  N 
ATOM     37 H    GLU B   6      -1.801  37.272  64.883  1.00 37.97 LIG 0.16  HD
BRANCH 36 38
ATOM     38  CA  GLU B   6      -2.431  35.619  63.981  1.00 41.44 LIG 0.18  C 
BRANCH 38 39
ATOM     39  C   GLU B   6      -3.315  35.808  62.725  1.00 42.63 LIG 0.24  C 
ATOM     40  N   ALA B   7      -3.216  36.977  62.090  1.00 44.72 LIG-0.35  N 
ATOM     41 H    ALA B   7      -2.611  37.569  62.237  1.00 44.72 LIG 0.16  HD
ATOM     42 O    GLU B   6      -4.142  34.944  62.370  1.00 39.57 LIG-0.27  OA
BRANCH 40 43
ATOM     43  CA  ALA B   7      -4.224  37.331  61.022  1.00 46.42 LIG 0.16  C 
ATOM     44  CB  ALA B   7      -4.655  38.810  61.133  1.00 46.36 LIG 0.04  C 
BRANCH 43 45
ATOM     45  C   ALA B   7      -3.728  36.990  59.628  1.00 46.87 LIG 0.22  C 
ATOM     46 O    ALA B   7      -2.639  36.424  59.505  1.00 48.90 LIG-0.29  OA
ENDBRANCH 43 45
ENDBRANCH 40 43
ENDBRANCH 38 39
BRANCH 38 47
ATOM     47  CB  GLU B   6      -2.869  34.382  64.773  1.00 42.54 LIG 0.04  C 
BRANCH 47 48
ATOM     48  CG  GLU B   6      -1.871  34.023  65.927  1.00 48.04 LIG 0.12  C 
BRANCH 48 49
ATOM     49  CD  GLU B   6      -0.378  34.098  65.567  1.00 53.57 LIG 0.17  C 
ATOM     50 OE2  GLU B   6       0.447  34.108  66.536  1.00 60.38 LIG-0.65  OA
ATOM     51 OE1  GLU B   6      -0.001  34.110  64.365  1.00 57.14 LIG-0.65  OA
ENDBRANCH 48 49
ENDBRANCH 47 48
ENDBRANCH 38 47
ENDBRANCH 36 38
ENDBRANCH 33 34
BRANCH 33 52
ATOM     52  CB  PHE B   5      -3.258  39.684  65.873  1.00 32.62 LIG 0.07  C 
BRANCH 52 53
ATOM     53  CG  PHE B   5      -4.357  40.697  66.006  1.00 30.35 LIG-0.06  A 
ATOM     54  CD1 PHE B   5      -5.677  40.317  66.059  1.00 31.18 LIG 0.01  A 
ATOM     55  CE1 PHE B   5      -6.684  41.271  66.160  1.00 30.23 LIG 0.00  A 
ATOM     56  CZ  PHE B   5      -6.378  42.645  66.218  1.00 31.30 LIG 0.00  A 
ATOM     57  CE2 PHE B   5      -5.043  43.039  66.116  1.00 30.12 LIG 0.00  A 
ATOM     58  CD2 PHE B   5      -4.054  42.062  66.015  1.00 31.88 LIG 0.01  A 
ENDBRANCH 52 53
ENDBRANCH 33 52
ENDBRANCH 3 33
TORSDOF 20
ENDMDL
MODEL 39
USER: ADFR SOLUTION from run 162
USER: SCORE 19.922908 LL:  -5.182 LR: -15.288 RR:   0.000 FEB:  -9.322
USER: RMSD 7.577077
USER: SEED 161
USER: STATUS no improvement in best in 10 clusters for 5 generations
USER: GENES 22
USER: genes 0 Translation |==|  0.58653 0.65591 0.74881
USER: genes 1 Rotation |==|  0.54133 0.77820 0.41807 0.90520
USER: genes 2 Torsion [N]-C--CA-[N] |==|  0.14552
USER: genes 3 Torsion [C]-CA--CB-[CG] |==|  0.24247
USER: genes 4 Torsion [CA]-CB--CG-[CD2] |==|  0.00074
USER: genes 5 Torsion [C]-CA--N-[C] |==|  0.15305
USER: genes 6 Torsion [N]-C--CA-[N] |==|  0.20892
USER: genes 7 Torsion [C]-CA--N-[C] |==|  0.74470
USER: genes 8 Torsion [N]-C--CA-[N] |==|  0.35916
USER: genes 9 Torsion [C]-CA--CB-[CG] |==|  0.82125
USER: genes 10 Torsion [CA]-CB--CG-[CD1] |==|  0.29387
USER: genes 11 Torsion [C]-N--CA-[CB] |==|  0.84374
USER: genes 12 Torsion [N]-CA--C-[N] |==|  0.34248
USER: genes 13 Torsion [C]-N--CA-[C] |==|  0.81667
USER: genes 14 Torsion [N]-CA--C-[N] |==|  0.41521
USER: genes 15 Torsion [C]-N--CA-[C] |==|  0.75131
USER: genes 16 Torsion [N]-CA--C-[O] |==|  0.88440
USER: genes 17 Torsion [N]-CA--CB-[CG] |==|  0.48577
USER: genes 18 Torsion [CA]-CB--CG-[CD] |==|  0.32935
USER: genes 19 Torsion [CB]-CG--CD-[OE2] |==|  0.70572
USER: genes 20 Torsion [N]-CA--CB-[CG] |==|  0.90699
USER: genes 21 Torsion [CA]-CB--CG-[CD2] |==|  0.85585
ROOT
ATOM      1  C   LEU B   4      -1.241  38.648  73.444  1.00 29.18 LIG 0.24  C 
ATOM      2 O    LEU B   4      -1.364  39.661  72.751  1.00 28.54 LIG-0.27  OA
ATOM      3  N   PHE B   5      -1.998  37.565  73.284  1.00 29.99 LIG-0.35  N 
ATOM      4 H    PHE B   5      -2.009  36.899  73.827  1.00 29.99 LIG 0.16  HD
ENDROOT
BRANCH 1 5
ATOM      5  CA  LEU B   4      -0.187  38.621  74.570  1.00 28.82 LIG 0.18  C 
BRANCH 5 6
ATOM      6  CB  LEU B   4       0.606  39.907  74.571  1.00 28.29 LIG 0.04  C 
BRANCH 6 7
ATOM      7  CG  LEU B   4      -0.023  41.041  75.402  1.00 28.88 LIG-0.02  C 
ATOM      8  CD2 LEU B   4      -1.314  40.532  76.020  1.00 30.37 LIG 0.01  C 
ATOM      9  CD1 LEU B   4      -0.283  42.341  74.600  1.00 31.50 LIG 0.01  C 
ENDBRANCH 6 7
ENDBRANCH 5 6
BRANCH 5 10
ATOM     10  N   LEU B   4       0.689  37.455  74.516  1.00 28.20 LIG-0.35  N 
ATOM     11  C   TRP B   3       1.373  37.168  73.427  1.00 29.51 LIG 0.24  C 
ATOM     12 O    TRP B   3       1.349  37.883  72.431  1.00 30.32 LIG-0.27  OA
ATOM     13 H    LEU B   4       0.714  36.990  75.240  1.00 28.20 LIG 0.16  HD
BRANCH 11 14
ATOM     14  CA  TRP B   3       2.180  35.859  73.445  1.00 31.78 LIG 0.18  C 
BRANCH 14 15
ATOM     15  N   TRP B   3       1.266  34.703  73.288  1.00 33.85 LIG-0.35  N 
ATOM     16  C   ALA B   2       0.787  34.131  74.408  1.00 37.00 LIG 0.26  C 
ATOM     17 O    ALA B   2       1.154  34.530  75.547  1.00 38.56 LIG-0.27  OA
ATOM     18 H    TRP B   3       1.093  34.461  72.481  1.00 33.85 LIG 0.16  HD
BRANCH 16 19
ATOM     19  CA  ALA B   2      -0.199  32.998  74.323  1.00 38.11 LIG 0.40  C 
ATOM     20  CB  ALA B   2      -1.661  33.551  74.630  1.00 38.97 LIG 0.06  C 
ATOM     21  N   ALA B   2       0.072  31.732  75.107  1.00 37.81 LIG 0.61  N 
ENDBRANCH 16 19
ENDBRANCH 14 15
BRANCH 14 22
ATOM     22  CB  TRP B   3       3.262  35.917  72.345  1.00 31.58 LIG 0.07  C 
BRANCH 22 23
ATOM     23  CG  TRP B   3       2.698  35.979  71.007  1.00 30.60 LIG-0.03  A 
ATOM     24  CD1 TRP B   3       2.648  37.052  70.195  1.00 31.03 LIG 0.10  A 
ATOM     25  NE1 TRP B   3       1.988  36.732  69.032  1.00 29.84 LIG-0.36  N 
ATOM     26 HE1  TRP B   3       1.840  37.267  68.375  1.00 29.84 LIG 0.17  HD
ATOM     27  CE2 TRP B   3       1.607  35.422  69.095  1.00 27.79 LIG 0.04  A 
ATOM     28  CD2 TRP B   3       2.043  34.920  70.320  1.00 28.46 LIG-0.00  A 
ATOM     29  CZ2 TRP B   3       0.928  34.646  68.167  1.00 27.89 LIG 0.03  A 
ATOM     30  CE3 TRP B   3       1.766  33.603  70.640  1.00 31.78 LIG 0.01  A 
ATOM     31  CZ3 TRP B   3       1.117  32.823  69.718  1.00 30.70 LIG 0.00  A 
ATOM     32  CH2 TRP B   3       0.679  33.361  68.501  1.00 27.16 LIG 0.00  A 
ENDBRANCH 22 23
ENDBRANCH 14 22
ENDBRANCH 11 14
ENDBRANCH 5 10
ENDBRANCH 1 5
BRANCH 3 33
ATOM     33  CA  PHE B   5      -2.904  37.429  72.123  1.00 32.14 LIG 0.18  C 
BRANCH 33 34
ATOM     34  C   PHE B   5      -2.191  37.344  70.788  1.00 34.99 LIG 0.24  C 
ATOM     35 O    PHE B   5      -1.391  38.233  70.474  1.00 34.76 LIG-0.27  OA
ATOM     36  N   GLU B   6      -2.451  36.260  70.041  1.00 37.97 LIG-0.35  N 
ATOM     37 H    GLU B   6      -2.741  35.524  70.378  1.00 37.97 LIG 0.16  HD
BRANCH 36 38
ATOM     38  CA  GLU B   6      -2.273  36.193  68.569  1.00 41.44 LIG 0.18  C 
BRANCH 38 39
ATOM     39  C   GLU B   6      -3.307  37.172  67.963  1.00 42.63 LIG 0.24  C 
ATOM     40  N   ALA B   7      -2.977  37.764  66.814  1.00 44.72 LIG-0.35  N 
ATOM     41 H    ALA B   7      -2.308  37.543  66.320  1.00 44.72 LIG 0.16  HD
ATOM     42 O    GLU B   6      -4.364  37.461  68.561  1.00 39.57 LIG-0.27  OA
BRANCH 40 43
ATOM     43  CA  ALA B   7      -3.811  38.914  66.302  1.00 46.42 LIG 0.16  C 
ATOM     44  CB  ALA B   7      -2.930  39.968  65.596  1.00 46.36 LIG 0.04  C 
BRANCH 43 45
ATOM     45  C   ALA B   7      -4.952  38.446  65.416  1.00 46.87 LIG 0.22  C 
ATOM     46 O    ALA B   7      -4.740  37.549  64.596  1.00 48.90 LIG-0.29  OA
ENDBRANCH 43 45
ENDBRANCH 40 43
ENDBRANCH 38 39
BRANCH 38 47
ATOM     47  CB  GLU B   6      -2.474  34.779  68.015  1.00 42.54 LIG 0.04  C 
BRANCH 47 48
ATOM     48  CG  GLU B   6      -2.414  34.732  66.449  1.00 48.04 LIG 0.12  C 
BRANCH 48 49
ATOM     49  CD  GLU B   6      -1.293  33.867  65.849  1.00 53.57 LIG 0.17  C 
ATOM     50 OE2  GLU B   6      -0.303  34.483  65.338  1.00 60.38 LIG-0.65  OA
ATOM     51 OE1  GLU B   6      -1.346  32.609  65.901  1.00 57.14 LIG-0.65  OA
ENDBRANCH 48 49
ENDBRANCH 47 48
ENDBRANCH 38 47
ENDBRANCH 36 38
ENDBRANCH 33 34
BRANCH 33 52
ATOM     52  CB  PHE B   5      -3.892  38.607  72.028  1.00 32.62 LIG 0.07  C 
BRANCH 52 53
ATOM     53  CG  PHE B   5      -4.324  39.166  73.352  1.00 30.35 LIG-0.06  A 
ATOM     54  CD1 PHE B   5      -4.181  40.502  73.645  1.00 31.18 LIG 0.01  A 
ATOM     55  CE1 PHE B   5      -4.567  40.998  74.885  1.00 30.23 LIG 0.00  A 
ATOM     56  CZ  PHE B   5      -5.120  40.152  75.866  1.00 31.30 LIG 0.00  A 
ATOM     57  CE2 PHE B   5      -5.222  38.788  75.592  1.00 30.12 LIG 0.00  A 
ATOM     58  CD2 PHE B   5      -4.828  38.316  74.341  1.00 31.88 LIG 0.01  A 
ENDBRANCH 52 53
ENDBRANCH 33 52
ENDBRANCH 3 33
TORSDOF 20
ENDMDL
MODEL 40
USER: ADFR SOLUTION from run 148
USER: SCORE 18.796361 LL:  -4.693 LR: -15.289 RR:   0.000 FEB:  -9.323
USER: RMSD 5.726210
USER: SEED 147
USER: STATUS no improvement in best in 1 clusters for 5 generations
USER: GENES 22
USER: genes 0 Translation |==|  0.52739 0.64725 0.73475
USER: genes 1 Rotation |==|  0.80154 0.32551 0.20097 0.69801
USER: genes 2 Torsion [N]-C--CA-[N] |==|  0.29650
USER: genes 3 Torsion [C]-CA--CB-[CG] |==|  0.34494
USER: genes 4 Torsion [CA]-CB--CG-[CD2] |==|  0.06449
USER: genes 5 Torsion [C]-CA--N-[C] |==|  0.76994
USER: genes 6 Torsion [N]-C--CA-[N] |==|  0.83889
USER: genes 7 Torsion [C]-CA--N-[C] |==|  0.83583
USER: genes 8 Torsion [N]-C--CA-[N] |==|  0.23773
USER: genes 9 Torsion [C]-CA--CB-[CG] |==|  0.42672
USER: genes 10 Torsion [CA]-CB--CG-[CD1] |==|  0.53747
USER: genes 11 Torsion [C]-N--CA-[CB] |==|  0.82877
USER: genes 12 Torsion [N]-CA--C-[N] |==|  0.43130
USER: genes 13 Torsion [C]-N--CA-[C] |==|  0.80444
USER: genes 14 Torsion [N]-CA--C-[N] |==|  0.19686
USER: genes 15 Torsion [C]-N--CA-[C] |==|  0.18082
USER: genes 16 Torsion [N]-CA--C-[O] |==|  0.22364
USER: genes 17 Torsion [N]-CA--CB-[CG] |==|  0.67440
USER: genes 18 Torsion [CA]-CB--CG-[CD] |==|  0.55323
USER: genes 19 Torsion [CB]-CG--CD-[OE2] |==|  0.72709
USER: genes 20 Torsion [N]-CA--CB-[CG] |==|  0.93892
USER: genes 21 Torsion [CA]-CB--CG-[CD2] |==|  0.32978
ROOT
ATOM      1  C   LEU B   4      -2.394  38.479  73.128  1.00 29.18 LIG 0.24  C 
ATOM      2 O    LEU B   4      -1.646  37.724  73.754  1.00 28.54 LIG-0.27  OA
ATOM      3  N   PHE B   5      -2.079  38.986  71.938  1.00 29.99 LIG-0.35  N 
ATOM      4 H    PHE B   5      -2.530  39.602  71.540  1.00 29.99 LIG 0.16  HD
ENDROOT
BRANCH 1 5
ATOM      5  CA  LEU B   4      -3.748  38.890  73.742  1.00 28.82 LIG 0.18  C 
BRANCH 5 6
ATOM      6  CB  LEU B   4      -3.545  39.411  75.145  1.00 28.29 LIG 0.04  C 
BRANCH 6 7
ATOM      7  CG  LEU B   4      -4.100  40.828  75.384  1.00 28.88 LIG-0.02  C 
ATOM      8  CD2 LEU B   4      -5.185  41.104  74.357  1.00 30.37 LIG 0.01  C 
ATOM      9  CD1 LEU B   4      -3.023  41.941  75.346  1.00 31.50 LIG 0.01  C 
ENDBRANCH 6 7
ENDBRANCH 5 6
BRANCH 5 10
ATOM     10  N   LEU B   4      -4.747  37.826  73.708  1.00 28.20 LIG-0.35  N 
ATOM     11  C   TRP B   3      -5.466  37.603  72.626  1.00 29.51 LIG 0.24  C 
ATOM     12 O    TRP B   3      -5.301  38.236  71.588  1.00 30.32 LIG-0.27  OA
ATOM     13 H    LEU B   4      -4.817  37.375  74.437  1.00 28.20 LIG 0.16  HD
BRANCH 11 14
ATOM     14  CA  TRP B   3      -6.561  36.530  72.736  1.00 31.78 LIG 0.18  C 
BRANCH 14 15
ATOM     15  N   TRP B   3      -5.959  35.235  73.133  1.00 33.85 LIG-0.35  N 
ATOM     16  C   ALA B   2      -5.017  34.713  72.326  1.00 37.00 LIG 0.26  C 
ATOM     17 O    ALA B   2      -4.706  35.278  71.243  1.00 38.56 LIG-0.27  OA
ATOM     18 H    TRP B   3      -6.250  34.888  73.864  1.00 33.85 LIG 0.16  HD
BRANCH 16 19
ATOM     19  CA  ALA B   2      -4.314  33.437  72.703  1.00 38.11 LIG 0.40  C 
ATOM     20  CB  ALA B   2      -2.808  33.496  72.187  1.00 38.97 LIG 0.06  C 
ATOM     21  N   ALA B   2      -4.955  32.114  72.340  1.00 37.81 LIG 0.61  N 
ENDBRANCH 16 19
ENDBRANCH 14 15
BRANCH 14 22
ATOM     22  CB  TRP B   3      -7.643  37.012  73.727  1.00 31.58 LIG 0.07  C 
BRANCH 22 23
ATOM     23  CG  TRP B   3      -8.946  36.427  73.463  1.00 30.60 LIG-0.03  A 
ATOM     24  CD1 TRP B   3     -10.131  36.819  73.968  1.00 31.03 LIG 0.10  A 
ATOM     25  NE1 TRP B   3     -11.130  35.983  73.528  1.00 29.84 LIG-0.36  N 
ATOM     26 HE1  TRP B   3     -11.964  36.048  73.729  1.00 29.84 LIG 0.17  HD
ATOM     27  CE2 TRP B   3     -10.577  35.032  72.719  1.00 27.79 LIG 0.04  A 
ATOM     28  CD2 TRP B   3      -9.208  35.287  72.654  1.00 28.46 LIG-0.00  A 
ATOM     29  CZ2 TRP B   3     -11.176  33.984  72.037  1.00 27.89 LIG 0.03  A 
ATOM     30  CE3 TRP B   3      -8.406  34.447  71.902  1.00 31.78 LIG 0.01  A 
ATOM     31  CZ3 TRP B   3      -8.996  33.423  71.204  1.00 30.70 LIG 0.00  A 
ATOM     32  CH2 TRP B   3     -10.372  33.185  71.302  1.00 27.16 LIG 0.00  A 
ENDBRANCH 22 23
ENDBRANCH 14 22
ENDBRANCH 11 14
ENDBRANCH 5 10
ENDBRANCH 1 5
BRANCH 3 33
ATOM     33  CA  PHE B   5      -0.895  38.511  71.192  1.00 32.14 LIG 0.18  C 
BRANCH 33 34
ATOM     34  C   PHE B   5      -0.923  37.032  70.861  1.00 34.99 LIG 0.24  C 
ATOM     35 O    PHE B   5      -1.626  36.276  71.541  1.00 34.76 LIG-0.27  OA
ATOM     36  N   GLU B   6      -0.199  36.644  69.800  1.00 37.97 LIG-0.35  N 
ATOM     37 H    GLU B   6       0.020  37.183  69.167  1.00 37.97 LIG 0.16  HD
BRANCH 36 38
ATOM     38  CA  GLU B   6       0.303  35.263  69.587  1.00 41.44 LIG 0.18  C 
BRANCH 38 39
ATOM     39  C   GLU B   6       1.417  35.042  70.637  1.00 42.63 LIG 0.24  C 
ATOM     40  N   ALA B   7       1.032  34.926  71.909  1.00 44.72 LIG-0.35  N 
ATOM     41 H    ALA B   7       0.219  34.826  72.172  1.00 44.72 LIG 0.16  HD
ATOM     42 O    GLU B   6       2.625  35.053  70.324  1.00 39.57 LIG-0.27  OA
BRANCH 40 43
ATOM     43  CA  ALA B   7       2.068  34.967  73.008  1.00 46.42 LIG 0.16  C 
ATOM     44  CB  ALA B   7       3.082  33.811  72.859  1.00 46.36 LIG 0.04  C 
BRANCH 43 45
ATOM     45  C   ALA B   7       2.758  36.316  73.097  1.00 46.87 LIG 0.22  C 
ATOM     46 O    ALA B   7       2.189  37.239  73.683  1.00 48.90 LIG-0.29  OA
ENDBRANCH 43 45
ENDBRANCH 40 43
ENDBRANCH 38 39
BRANCH 38 47
ATOM     47  CB  GLU B   6       0.842  35.046  68.168  1.00 42.54 LIG 0.04  C 
BRANCH 47 48
ATOM     48  CG  GLU B   6       0.028  33.966  67.376  1.00 48.04 LIG 0.12  C 
BRANCH 48 49
ATOM     49  CD  GLU B   6       0.739  33.354  66.157  1.00 53.57 LIG 0.17  C 
ATOM     50 OE2  GLU B   6       0.444  33.838  65.017  1.00 60.38 LIG-0.65  OA
ATOM     51 OE1  GLU B   6       1.598  32.443  66.298  1.00 57.14 LIG-0.65  OA
ENDBRANCH 48 49
ENDBRANCH 47 48
ENDBRANCH 38 47
ENDBRANCH 36 38
ENDBRANCH 33 34
BRANCH 33 52
ATOM     52  CB  PHE B   5       0.411  38.771  71.967  1.00 32.62 LIG 0.07  C 
BRANCH 52 53
ATOM     53  CG  PHE B   5       0.317  39.858  72.998  1.00 30.35 LIG-0.06  A 
ATOM     54  CD1 PHE B   5       0.072  41.163  72.642  1.00 31.18 LIG 0.01  A 
ATOM     55  CE1 PHE B   5       0.010  42.160  73.609  1.00 30.23 LIG 0.00  A 
ATOM     56  CZ  PHE B   5       0.189  41.859  74.974  1.00 31.30 LIG 0.00  A 
ATOM     57  CE2 PHE B   5       0.486  40.545  75.336  1.00 30.12 LIG 0.00  A 
ATOM     58  CD2 PHE B   5       0.542  39.565  74.347  1.00 31.88 LIG 0.01  A 
ENDBRANCH 52 53
ENDBRANCH 33 52
ENDBRANCH 3 33
TORSDOF 20
ENDMDL
MODEL 41
USER: ADFR SOLUTION from run 193
USER: SCORE 17.950172 LL:  -4.366 LR: -15.279 RR:   0.000 FEB:  -9.313
USER: RMSD 9.953334
USER: SEED 192
USER: STATUS no improvement in best in 7 clusters for 5 generations
USER: GENES 22
USER: genes 0 Translation |==|  0.67710 0.52634 0.68626
USER: genes 1 Rotation |==|  0.69588 0.81938 0.40691 0.81774
USER: genes 2 Torsion [N]-C--CA-[N] |==|  0.88803
USER: genes 3 Torsion [C]-CA--CB-[CG] |==|  0.13608
USER: genes 4 Torsion [CA]-CB--CG-[CD2] |==|  0.11422
USER: genes 5 Torsion [C]-CA--N-[C] |==|  0.84064
USER: genes 6 Torsion [N]-C--CA-[N] |==|  0.97825
USER: genes 7 Torsion [C]-CA--N-[C] |==|  0.73765
USER: genes 8 Torsion [N]-C--CA-[N] |==|  0.78386
USER: genes 9 Torsion [C]-CA--CB-[CG] |==|  0.75448
USER: genes 10 Torsion [CA]-CB--CG-[CD1] |==|  0.26563
USER: genes 11 Torsion [C]-N--CA-[CB] |==|  0.51954
USER: genes 12 Torsion [N]-CA--C-[N] |==|  0.92822
USER: genes 13 Torsion [C]-N--CA-[C] |==|  0.19980
USER: genes 14 Torsion [N]-CA--C-[N] |==|  0.10556
USER: genes 15 Torsion [C]-N--CA-[C] |==|  0.82035
USER: genes 16 Torsion [N]-CA--C-[O] |==|  0.46241
USER: genes 17 Torsion [N]-CA--CB-[CG] |==|  0.56927
USER: genes 18 Torsion [CA]-CB--CG-[CD] |==|  0.73667
USER: genes 19 Torsion [CB]-CG--CD-[OE2] |==|  0.84474
USER: genes 20 Torsion [N]-CA--CB-[CG] |==|  0.50934
USER: genes 21 Torsion [CA]-CB--CG-[CD2] |==|  0.17098
ROOT
ATOM      1  C   LEU B   4       0.525  36.122  72.037  1.00 29.18 LIG 0.24  C 
ATOM      2 O    LEU B   4       0.808  37.320  71.954  1.00 28.54 LIG-0.27  OA
ATOM      3  N   PHE B   5      -0.655  35.630  71.667  1.00 29.99 LIG-0.35  N 
ATOM      4 H    PHE B   5      -0.914  34.825  71.824  1.00 29.99 LIG 0.16  HD
ENDROOT
BRANCH 1 5
ATOM      5  CA  LEU B   4       1.560  35.134  72.615  1.00 28.82 LIG 0.18  C 
BRANCH 5 6
ATOM      6  CB  LEU B   4       2.337  34.482  71.497  1.00 28.29 LIG 0.04  C 
BRANCH 6 7
ATOM      7  CG  LEU B   4       2.898  35.466  70.453  1.00 28.88 LIG-0.02  C 
ATOM      8  CD2 LEU B   4       3.437  36.687  71.178  1.00 30.37 LIG 0.01  C 
ATOM      9  CD1 LEU B   4       1.874  35.888  69.370  1.00 31.50 LIG 0.01  C 
ENDBRANCH 6 7
ENDBRANCH 5 6
BRANCH 5 10
ATOM     10  N   LEU B   4       0.975  34.140  73.509  1.00 28.20 LIG-0.35  N 
ATOM     11  C   TRP B   3       0.294  34.503  74.578  1.00 29.51 LIG 0.24  C 
ATOM     12 O    TRP B   3       0.075  35.679  74.846  1.00 30.32 LIG-0.27  OA
ATOM     13 H    LEU B   4       1.114  33.323  73.278  1.00 28.20 LIG 0.16  HD
BRANCH 11 14
ATOM     14  CA  TRP B   3      -0.185  33.374  75.506  1.00 31.78 LIG 0.18  C 
BRANCH 14 15
ATOM     15  N   TRP B   3       0.080  32.059  74.876  1.00 33.85 LIG-0.35  N 
ATOM     16  C   ALA B   2      -0.916  31.494  74.169  1.00 37.00 LIG 0.26  C 
ATOM     17 O    ALA B   2      -2.052  32.040  74.101  1.00 38.56 LIG-0.27  OA
ATOM     18 H    TRP B   3       0.865  31.728  75.000  1.00 33.85 LIG 0.16  HD
BRANCH 16 19
ATOM     19  CA  ALA B   2      -0.695  30.194  73.446  1.00 38.11 LIG 0.40  C 
ATOM     20  CB  ALA B   2      -0.056  29.136  74.450  1.00 38.97 LIG 0.06  C 
ATOM     21  N   ALA B   2       0.055  30.207  72.131  1.00 37.81 LIG 0.61  N 
ENDBRANCH 16 19
ENDBRANCH 14 15
BRANCH 14 22
ATOM     22  CB  TRP B   3       0.502  33.525  76.880  1.00 31.58 LIG 0.07  C 
BRANCH 22 23
ATOM     23  CG  TRP B   3       1.780  32.837  76.948  1.00 30.60 LIG-0.03  A 
ATOM     24  CD1 TRP B   3       3.000  33.367  76.742  1.00 31.03 LIG 0.10  A 
ATOM     25  NE1 TRP B   3       3.961  32.388  76.839  1.00 29.84 LIG-0.36  N 
ATOM     26 HE1  TRP B   3       4.808  32.504  76.741  1.00 29.84 LIG 0.17  HD
ATOM     27  CE2 TRP B   3       3.346  31.201  77.117  1.00 27.79 LIG 0.04  A 
ATOM     28  CD2 TRP B   3       1.976  31.451  77.196  1.00 28.46 LIG-0.00  A 
ATOM     29  CZ2 TRP B   3       3.889  29.941  77.313  1.00 27.89 LIG 0.03  A 
ATOM     30  CE3 TRP B   3       1.118  30.397  77.455  1.00 31.78 LIG 0.01  A 
ATOM     31  CZ3 TRP B   3       1.650  29.152  77.675  1.00 30.70 LIG 0.00  A 
ATOM     32  CH2 TRP B   3       3.030  28.931  77.574  1.00 27.16 LIG 0.00  A 
ENDBRANCH 22 23
ENDBRANCH 14 22
ENDBRANCH 11 14
ENDBRANCH 5 10
ENDBRANCH 1 5
BRANCH 3 33
ATOM     33  CA  PHE B   5      -1.636  36.461  70.937  1.00 32.14 LIG 0.18  C 
BRANCH 33 34
ATOM     34  C   PHE B   5      -1.930  37.794  71.594  1.00 34.99 LIG 0.24  C 
ATOM     35 O    PHE B   5      -2.358  38.726  70.903  1.00 34.76 LIG-0.27  OA
ATOM     36  N   GLU B   6      -1.742  37.860  72.922  1.00 37.97 LIG-0.35  N 
ATOM     37 H    GLU B   6      -1.754  37.163  73.425  1.00 37.97 LIG 0.16  HD
BRANCH 36 38
ATOM     38  CA  GLU B   6      -1.496  39.116  73.673  1.00 41.44 LIG 0.18  C 
BRANCH 38 39
ATOM     39  C   GLU B   6      -2.841  39.881  73.689  1.00 42.63 LIG 0.24  C 
ATOM     40  N   ALA B   7      -3.949  39.151  73.827  1.00 44.72 LIG-0.35  N 
ATOM     41 H    ALA B   7      -3.968  38.319  74.044  1.00 44.72 LIG 0.16  HD
ATOM     42 O    GLU B   6      -2.896  41.114  73.499  1.00 39.57 LIG-0.27  OA
BRANCH 40 43
ATOM     43  CA  ALA B   7      -5.296  39.792  73.593  1.00 46.42 LIG 0.16  C 
ATOM     44  CB  ALA B   7      -6.415  38.728  73.540  1.00 46.36 LIG 0.04  C 
BRANCH 43 45
ATOM     45  C   ALA B   7      -5.599  40.880  74.608  1.00 46.87 LIG 0.22  C 
ATOM     46 O    ALA B   7      -6.537  41.651  74.392  1.00 48.90 LIG-0.29  OA
ENDBRANCH 43 45
ENDBRANCH 40 43
ENDBRANCH 38 39
BRANCH 38 47
ATOM     47  CB  GLU B   6      -0.391  39.971  73.045  1.00 42.54 LIG 0.04  C 
BRANCH 47 48
ATOM     48  CG  GLU B   6       0.300  40.918  74.085  1.00 48.04 LIG 0.12  C 
BRANCH 48 49
ATOM     49  CD  GLU B   6      -0.259  42.349  74.162  1.00 53.57 LIG 0.17  C 
ATOM     50 OE2  GLU B   6      -0.279  43.017  73.079  1.00 60.38 LIG-0.65  OA
ATOM     51 OE1  GLU B   6      -0.708  42.812  75.244  1.00 57.14 LIG-0.65  OA
ENDBRANCH 48 49
ENDBRANCH 47 48
ENDBRANCH 38 47
ENDBRANCH 36 38
ENDBRANCH 33 34
BRANCH 33 52
ATOM     52  CB  PHE B   5      -2.986  35.737  70.771  1.00 32.62 LIG 0.07  C 
BRANCH 52 53
ATOM     53  CG  PHE B   5      -4.005  36.492  69.969  1.00 30.35 LIG-0.06  A 
ATOM     54  CD1 PHE B   5      -5.227  36.830  70.502  1.00 31.18 LIG 0.01  A 
ATOM     55  CE1 PHE B   5      -6.167  37.512  69.736  1.00 30.23 LIG 0.00  A 
ATOM     56  CZ  PHE B   5      -5.891  37.878  68.404  1.00 31.30 LIG 0.00  A 
ATOM     57  CE2 PHE B   5      -4.671  37.495  67.844  1.00 30.12 LIG 0.00  A 
ATOM     58  CD2 PHE B   5      -3.747  36.813  68.633  1.00 31.88 LIG 0.01  A 
ENDBRANCH 52 53
ENDBRANCH 33 52
ENDBRANCH 3 33
TORSDOF 20
ENDMDL
MODEL 42
USER: ADFR SOLUTION from run 104
USER: SCORE 17.460991 LL:  -3.325 LR: -15.280 RR:   0.000 FEB:  -9.314
USER: RMSD 9.518579
USER: SEED 103
USER: STATUS no improvement in best in 10 clusters for 5 generations
USER: GENES 22
USER: genes 0 Translation |==|  0.72933 0.46555 0.73116
USER: genes 1 Rotation |==|  0.65368 0.96087 0.45960 0.61111
USER: genes 2 Torsion [N]-C--CA-[N] |==|  0.08357
USER: genes 3 Torsion [C]-CA--CB-[CG] |==|  0.86390
USER: genes 4 Torsion [CA]-CB--CG-[CD2] |==|  0.63514
USER: genes 5 Torsion [C]-CA--N-[C] |==|  0.15030
USER: genes 6 Torsion [N]-C--CA-[N] |==|  0.17441
USER: genes 7 Torsion [C]-CA--N-[C] |==|  0.16041
USER: genes 8 Torsion [N]-C--CA-[N] |==|  0.22765
USER: genes 9 Torsion [C]-CA--CB-[CG] |==|  0.30580
USER: genes 10 Torsion [CA]-CB--CG-[CD1] |==|  0.02688
USER: genes 11 Torsion [C]-N--CA-[CB] |==|  0.63831
USER: genes 12 Torsion [N]-CA--C-[N] |==|  0.22947
USER: genes 13 Torsion [C]-N--CA-[C] |==|  0.73326
USER: genes 14 Torsion [N]-CA--C-[N] |==|  0.05556
USER: genes 15 Torsion [C]-N--CA-[C] |==|  0.15999
USER: genes 16 Torsion [N]-CA--C-[O] |==|  0.66488
USER: genes 17 Torsion [N]-CA--CB-[CG] |==|  0.65851
USER: genes 18 Torsion [CA]-CB--CG-[CD] |==|  0.69876
USER: genes 19 Torsion [CB]-CG--CD-[OE2] |==|  0.21155
USER: genes 20 Torsion [N]-CA--CB-[CG] |==|  0.13552
USER: genes 21 Torsion [CA]-CB--CG-[CD2] |==|  0.33115
ROOT
ATOM      1  C   LEU B   4       1.544  34.936  73.047  1.00 29.18 LIG 0.24  C 
ATOM      2 O    LEU B   4       1.556  36.104  73.446  1.00 28.54 LIG-0.27  OA
ATOM      3  N   PHE B   5       0.577  34.076  73.359  1.00 29.99 LIG-0.35  N 
ATOM      4 H    PHE B   5       0.608  33.233  73.191  1.00 29.99 LIG 0.16  HD
ENDROOT
BRANCH 1 5
ATOM      5  CA  LEU B   4       2.702  34.420  72.169  1.00 28.82 LIG 0.18  C 
BRANCH 5 6
ATOM      6  CB  LEU B   4       3.352  35.570  71.437  1.00 28.29 LIG 0.04  C 
BRANCH 6 7
ATOM      7  CG  LEU B   4       2.363  36.505  70.716  1.00 28.88 LIG-0.02  C 
ATOM      8  CD2 LEU B   4       2.853  36.724  69.294  1.00 30.37 LIG 0.01  C 
ATOM      9  CD1 LEU B   4       2.145  37.864  71.428  1.00 31.50 LIG 0.01  C 
ENDBRANCH 6 7
ENDBRANCH 5 6
BRANCH 5 10
ATOM     10  N   LEU B   4       2.305  33.359  71.250  1.00 28.20 LIG-0.35  N 
ATOM     11  C   TRP B   3       1.298  33.524  70.416  1.00 29.51 LIG 0.24  C 
ATOM     12 O    TRP B   3       0.682  34.581  70.334  1.00 30.32 LIG-0.27  OA
ATOM     13 H    LEU B   4       2.777  32.641  71.304  1.00 28.20 LIG 0.16  HD
BRANCH 11 14
ATOM     14  CA  TRP B   3       0.899  32.304  69.569  1.00 31.78 LIG 0.18  C 
BRANCH 14 15
ATOM     15  N   TRP B   3       0.439  31.207  70.452  1.00 33.85 LIG-0.35  N 
ATOM     16  C   ALA B   2      -0.595  31.461  71.276  1.00 37.00 LIG 0.26  C 
ATOM     17 O    ALA B   2      -1.110  32.612  71.333  1.00 38.56 LIG-0.27  OA
ATOM     18 H    TRP B   3       0.864  30.462  70.388  1.00 33.85 LIG 0.16  HD
BRANCH 16 19
ATOM     19  CA  ALA B   2      -1.159  30.374  72.149  1.00 38.11 LIG 0.40  C 
ATOM     20  CB  ALA B   2      -2.712  30.639  72.380  1.00 38.97 LIG 0.06  C 
ATOM     21  N   ALA B   2      -0.468  30.056  73.459  1.00 37.81 LIG 0.61  N 
ENDBRANCH 16 19
ENDBRANCH 14 15
BRANCH 14 22
ATOM     22  CB  TRP B   3      -0.172  32.731  68.542  1.00 31.58 LIG 0.07  C 
BRANCH 22 23
ATOM     23  CG  TRP B   3       0.328  32.734  67.178  1.00 30.60 LIG-0.03  A 
ATOM     24  CD1 TRP B   3       1.506  32.248  66.742  1.00 31.03 LIG 0.10  A 
ATOM     25  NE1 TRP B   3       1.644  32.487  65.395  1.00 29.84 LIG-0.36  N 
ATOM     26 HE1  TRP B   3       2.320  32.263  64.912  1.00 29.84 LIG 0.17  HD
ATOM     27  CE2 TRP B   3       0.528  33.139  64.952  1.00 27.79 LIG 0.04  A 
ATOM     28  CD2 TRP B   3      -0.319  33.304  66.047  1.00 28.46 LIG-0.00  A 
ATOM     29  CZ2 TRP B   3       0.201  33.580  63.679  1.00 27.89 LIG 0.03  A 
ATOM     30  CE3 TRP B   3      -1.525  33.958  65.867  1.00 31.78 LIG 0.01  A 
ATOM     31  CZ3 TRP B   3      -1.867  34.375  64.605  1.00 30.70 LIG 0.00  A 
ATOM     32  CH2 TRP B   3      -0.986  34.207  63.528  1.00 27.16 LIG 0.00  A 
ENDBRANCH 22 23
ENDBRANCH 14 22
ENDBRANCH 11 14
ENDBRANCH 5 10
ENDBRANCH 1 5
BRANCH 3 33
ATOM     33  CA  PHE B   5      -0.658  34.524  74.037  1.00 32.14 LIG 0.18  C 
BRANCH 33 34
ATOM     34  C   PHE B   5      -0.616  35.961  74.515  1.00 34.99 LIG 0.24  C 
ATOM     35 O    PHE B   5      -0.290  36.199  75.683  1.00 34.76 LIG-0.27  OA
ATOM     36  N   GLU B   6      -0.899  36.903  73.601  1.00 37.97 LIG-0.35  N 
ATOM     37 H    GLU B   6      -0.815  36.767  72.756  1.00 37.97 LIG 0.16  HD
BRANCH 36 38
ATOM     38  CA  GLU B   6      -1.383  38.268  73.925  1.00 41.44 LIG 0.18  C 
BRANCH 38 39
ATOM     39  C   GLU B   6      -2.925  38.221  73.806  1.00 42.63 LIG 0.24  C 
ATOM     40  N   ALA B   7      -3.498  37.018  73.873  1.00 44.72 LIG-0.35  N 
ATOM     41 H    ALA B   7      -3.100  36.294  74.113  1.00 44.72 LIG 0.16  HD
ATOM     42 O    GLU B   6      -3.596  39.247  73.575  1.00 39.57 LIG-0.27  OA
BRANCH 40 43
ATOM     43  CA  ALA B   7      -4.956  36.867  73.509  1.00 46.42 LIG 0.16  C 
ATOM     44  CB  ALA B   7      -5.863  37.563  74.548  1.00 46.36 LIG 0.04  C 
BRANCH 43 45
ATOM     45  C   ALA B   7      -5.248  37.339  72.096  1.00 46.87 LIG 0.22  C 
ATOM     46 O    ALA B   7      -6.063  38.250  71.930  1.00 48.90 LIG-0.29  OA
ENDBRANCH 43 45
ENDBRANCH 40 43
ENDBRANCH 38 39
BRANCH 38 47
ATOM     47  CB  GLU B   6      -0.798  39.336  72.994  1.00 42.54 LIG 0.04  C 
BRANCH 47 48
ATOM     48  CG  GLU B   6      -0.037  40.461  73.775  1.00 48.04 LIG 0.12  C 
BRANCH 48 49
ATOM     49  CD  GLU B   6      -0.733  41.832  73.821  1.00 53.57 LIG 0.17  C 
ATOM     50 OE2  GLU B   6      -1.717  41.950  74.621  1.00 60.38 LIG-0.65  OA
ATOM     51 OE1  GLU B   6      -0.317  42.794  73.123  1.00 57.14 LIG-0.65  OA
ENDBRANCH 48 49
ENDBRANCH 47 48
ENDBRANCH 38 47
ENDBRANCH 36 38
ENDBRANCH 33 34
BRANCH 33 52
ATOM     52  CB  PHE B   5      -0.982  33.653  75.266  1.00 32.62 LIG 0.07  C 
BRANCH 52 53
ATOM     53  CG  PHE B   5       0.173  33.434  76.198  1.00 30.35 LIG-0.06  A 
ATOM     54  CD1 PHE B   5       1.298  32.755  75.793  1.00 31.18 LIG 0.01  A 
ATOM     55  CE1 PHE B   5       2.351  32.543  76.677  1.00 30.23 LIG 0.00  A 
ATOM     56  CZ  PHE B   5       2.296  33.022  78.001  1.00 31.30 LIG 0.00  A 
ATOM     57  CE2 PHE B   5       1.137  33.670  78.429  1.00 30.12 LIG 0.00  A 
ATOM     58  CD2 PHE B   5       0.096  33.869  77.524  1.00 31.88 LIG 0.01  A 
ENDBRANCH 52 53
ENDBRANCH 33 52
ENDBRANCH 3 33
TORSDOF 20
ENDMDL
MODEL 43
USER: ADFR SOLUTION from run 93
USER: SCORE 19.456377 LL:  -5.670 LR: -15.275 RR:   0.000 FEB:  -9.309
USER: RMSD 5.944348
USER: SEED 92
USER: STATUS no improvement in best in 13 clusters for 5 generations
USER: GENES 22
USER: genes 0 Translation |==|  0.48768 0.59317 0.52536
USER: genes 1 Rotation |==|  0.61145 0.64424 0.91916 0.70269
USER: genes 2 Torsion [N]-C--CA-[N] |==|  0.43889
USER: genes 3 Torsion [C]-CA--CB-[CG] |==|  0.44757
USER: genes 4 Torsion [CA]-CB--CG-[CD2] |==|  0.96277
USER: genes 5 Torsion [C]-CA--N-[C] |==|  0.72275
USER: genes 6 Torsion [N]-C--CA-[N] |==|  0.90411
USER: genes 7 Torsion [C]-CA--N-[C] |==|  0.82290
USER: genes 8 Torsion [N]-C--CA-[N] |==|  0.90711
USER: genes 9 Torsion [C]-CA--CB-[CG] |==|  0.15867
USER: genes 10 Torsion [CA]-CB--CG-[CD1] |==|  0.61819
USER: genes 11 Torsion [C]-N--CA-[CB] |==|  0.39104
USER: genes 12 Torsion [N]-CA--C-[N] |==|  0.94577
USER: genes 13 Torsion [C]-N--CA-[C] |==|  0.75573
USER: genes 14 Torsion [N]-CA--C-[N] |==|  0.94447
USER: genes 15 Torsion [C]-N--CA-[C] |==|  0.64056
USER: genes 16 Torsion [N]-CA--C-[O] |==|  0.72851
USER: genes 17 Torsion [N]-CA--CB-[CG] |==|  0.30618
USER: genes 18 Torsion [CA]-CB--CG-[CD] |==|  0.68093
USER: genes 19 Torsion [CB]-CG--CD-[OE2] |==|  0.24749
USER: genes 20 Torsion [N]-CA--CB-[CG] |==|  0.67540
USER: genes 21 Torsion [CA]-CB--CG-[CD2] |==|  0.42105
ROOT
ATOM      1  C   LEU B   4      -3.168  37.425  68.417  1.00 29.18 LIG 0.24  C 
ATOM      2 O    LEU B   4      -4.343  37.092  68.596  1.00 28.54 LIG-0.27  OA
ATOM      3  N   PHE B   5      -2.748  38.025  67.305  1.00 29.99 LIG-0.35  N 
ATOM      4 H    PHE B   5      -1.921  38.159  67.112  1.00 29.99 LIG 0.16  HD
ENDROOT
BRANCH 1 5
ATOM      5  CA  LEU B   4      -2.117  37.120  69.503  1.00 28.82 LIG 0.18  C 
BRANCH 5 6
ATOM      6  CB  LEU B   4      -1.289  35.922  69.103  1.00 28.29 LIG 0.04  C 
BRANCH 6 7
ATOM      7  CG  LEU B   4       0.052  35.797  69.851  1.00 28.88 LIG-0.02  C 
ATOM      8  CD2 LEU B   4       0.333  37.108  70.566  1.00 30.37 LIG 0.01  C 
ATOM      9  CD1 LEU B   4       1.247  35.409  68.943  1.00 31.50 LIG 0.01  C 
ENDBRANCH 6 7
ENDBRANCH 5 6
BRANCH 5 10
ATOM     10  N   LEU B   4      -2.691  36.950  70.834  1.00 28.20 LIG-0.35  N 
ATOM     11  C   TRP B   3      -2.664  37.928  71.717  1.00 29.51 LIG 0.24  C 
ATOM     12 O    TRP B   3      -2.206  39.035  71.453  1.00 30.32 LIG-0.27  OA
ATOM     13 H    LEU B   4      -3.037  36.176  70.980  1.00 28.20 LIG 0.16  HD
BRANCH 11 14
ATOM     14  CA  TRP B   3      -3.201  37.605  73.121  1.00 31.78 LIG 0.18  C 
BRANCH 14 15
ATOM     15  N   TRP B   3      -4.327  36.647  73.020  1.00 33.85 LIG-0.35  N 
ATOM     16  C   ALA B   2      -5.437  37.056  72.379  1.00 37.00 LIG 0.26  C 
ATOM     17 O    ALA B   2      -5.532  38.233  71.935  1.00 38.56 LIG-0.27  OA
ATOM     18 H    TRP B   3      -4.206  35.876  73.382  1.00 33.85 LIG 0.16  HD
BRANCH 16 19
ATOM     19  CA  ALA B   2      -6.593  36.113  72.179  1.00 38.11 LIG 0.40  C 
ATOM     20  CB  ALA B   2      -7.651  36.324  73.350  1.00 38.97 LIG 0.06  C 
ATOM     21  N   ALA B   2      -6.307  34.641  71.971  1.00 37.81 LIG 0.61  N 
ENDBRANCH 16 19
ENDBRANCH 14 15
BRANCH 14 22
ATOM     22  CB  TRP B   3      -2.043  37.073  73.994  1.00 31.58 LIG 0.07  C 
BRANCH 22 23
ATOM     23  CG  TRP B   3      -0.932  38.006  74.081  1.00 30.60 LIG-0.03  A 
ATOM     24  CD1 TRP B   3       0.380  37.716  74.010  1.00 31.03 LIG 0.10  A 
ATOM     25  NE1 TRP B   3       1.125  38.857  74.192  1.00 29.84 LIG-0.36  N 
ATOM     26 HE1  TRP B   3       1.985  38.903  74.187  1.00 29.84 LIG 0.17  HD
ATOM     27  CE2 TRP B   3       0.272  39.907  74.382  1.00 27.79 LIG 0.04  A 
ATOM     28  CD2 TRP B   3      -1.027  39.406  74.313  1.00 28.46 LIG-0.00  A 
ATOM     29  CZ2 TRP B   3       0.546  41.249  74.596  1.00 27.89 LIG 0.03  A 
ATOM     30  CE3 TRP B   3      -2.089  40.274  74.491  1.00 31.78 LIG 0.01  A 
ATOM     31  CZ3 TRP B   3      -1.827  41.607  74.678  1.00 30.70 LIG 0.00  A 
ATOM     32  CH2 TRP B   3      -0.510  42.078  74.757  1.00 27.16 LIG 0.00  A 
ENDBRANCH 22 23
ENDBRANCH 14 22
ENDBRANCH 11 14
ENDBRANCH 5 10
ENDBRANCH 1 5
BRANCH 3 33
ATOM     33  CA  PHE B   5      -3.705  38.520  66.293  1.00 32.14 LIG 0.18  C 
BRANCH 33 34
ATOM     34  C   PHE B   5      -3.917  37.575  65.126  1.00 34.99 LIG 0.24  C 
ATOM     35 O    PHE B   5      -4.909  37.723  64.404  1.00 34.76 LIG-0.27  OA
ATOM     36  N   GLU B   6      -2.966  36.649  64.928  1.00 37.97 LIG-0.35  N 
ATOM     37 H    GLU B   6      -2.162  36.743  65.216  1.00 37.97 LIG 0.16  HD
BRANCH 36 38
ATOM     38  CA  GLU B   6      -3.178  35.371  64.203  1.00 41.44 LIG 0.18  C 
BRANCH 38 39
ATOM     39  C   GLU B   6      -3.669  34.351  65.258  1.00 42.63 LIG 0.24  C 
ATOM     40  N   ALA B   7      -3.413  34.634  66.535  1.00 44.72 LIG-0.35  N 
ATOM     41 H    ALA B   7      -3.126  35.392  66.825  1.00 44.72 LIG 0.16  HD
ATOM     42 O    GLU B   6      -4.206  33.274  64.927  1.00 39.57 LIG-0.27  OA
BRANCH 40 43
ATOM     43  CA  ALA B   7      -3.628  33.575  67.591  1.00 46.42 LIG 0.16  C 
ATOM     44  CB  ALA B   7      -2.283  32.984  68.067  1.00 46.36 LIG 0.04  C 
BRANCH 43 45
ATOM     45  C   ALA B   7      -4.464  34.083  68.752  1.00 46.87 LIG 0.22  C 
ATOM     46 O    ALA B   7      -3.893  34.470  69.773  1.00 48.90 LIG-0.29  OA
ENDBRANCH 43 45
ENDBRANCH 40 43
ENDBRANCH 38 39
BRANCH 38 47
ATOM     47  CB  GLU B   6      -1.906  34.869  63.512  1.00 42.54 LIG 0.04  C 
BRANCH 47 48
ATOM     48  CG  GLU B   6      -1.321  33.583  64.190  1.00 48.04 LIG 0.12  C 
BRANCH 48 49
ATOM     49  CD  GLU B   6       0.058  33.744  64.851  1.00 53.57 LIG 0.17  C 
ATOM     50 OE2  GLU B   6       0.072  34.108  66.070  1.00 60.38 LIG-0.65  OA
ATOM     51 OE1  GLU B   6       1.115  33.488  64.215  1.00 57.14 LIG-0.65  OA
ENDBRANCH 48 49
ENDBRANCH 47 48
ENDBRANCH 38 47
ENDBRANCH 36 38
ENDBRANCH 33 34
BRANCH 33 52
ATOM     52  CB  PHE B   5      -3.261  39.871  65.700  1.00 32.62 LIG 0.07  C 
BRANCH 52 53
ATOM     53  CG  PHE B   5      -4.201  41.009  65.971  1.00 30.35 LIG-0.06  A 
ATOM     54  CD1 PHE B   5      -5.555  40.805  66.090  1.00 31.18 LIG 0.01  A 
ATOM     55  CE1 PHE B   5      -6.413  41.876  66.319  1.00 30.23 LIG 0.00  A 
ATOM     56  CZ  PHE B   5      -5.919  43.189  66.443  1.00 31.30 LIG 0.00  A 
ATOM     57  CE2 PHE B   5      -4.551  43.407  66.275  1.00 30.12 LIG 0.00  A 
ATOM     58  CD2 PHE B   5      -3.713  42.317  66.046  1.00 31.88 LIG 0.01  A 
ENDBRANCH 52 53
ENDBRANCH 33 52
ENDBRANCH 3 33
TORSDOF 20
ENDMDL
MODEL 44
USER: ADFR SOLUTION from run 122
USER: SCORE 20.252914 LL:  -6.142 LR: -15.240 RR:   0.000 FEB:  -9.274
USER: RMSD 5.491328
USER: SEED 121
USER: STATUS 1 or 2 clusters left
USER: GENES 22
USER: genes 0 Translation |==|  0.49994 0.58208 0.66886
USER: genes 1 Rotation |==|  0.51605 0.60236 0.71555 0.93909
USER: genes 2 Torsion [N]-C--CA-[N] |==|  0.15227
USER: genes 3 Torsion [C]-CA--CB-[CG] |==|  0.75252
USER: genes 4 Torsion [CA]-CB--CG-[CD2] |==|  0.61456
USER: genes 5 Torsion [C]-CA--N-[C] |==|  0.78889
USER: genes 6 Torsion [N]-C--CA-[N] |==|  0.43393
USER: genes 7 Torsion [C]-CA--N-[C] |==|  0.76539
USER: genes 8 Torsion [N]-C--CA-[N] |==|  0.78665
USER: genes 9 Torsion [C]-CA--CB-[CG] |==|  0.12602
USER: genes 10 Torsion [CA]-CB--CG-[CD1] |==|  0.70816
USER: genes 11 Torsion [C]-N--CA-[CB] |==|  0.50688
USER: genes 12 Torsion [N]-CA--C-[N] |==|  0.44178
USER: genes 13 Torsion [C]-N--CA-[C] |==|  0.81541
USER: genes 14 Torsion [N]-CA--C-[N] |==|  0.87871
USER: genes 15 Torsion [C]-N--CA-[C] |==|  0.58079
USER: genes 16 Torsion [N]-CA--C-[O] |==|  0.89421
USER: genes 17 Torsion [N]-CA--CB-[CG] |==|  0.92464
USER: genes 18 Torsion [CA]-CB--CG-[CD] |==|  0.70765
USER: genes 19 Torsion [CB]-CG--CD-[OE2] |==|  0.50868
USER: genes 20 Torsion [N]-CA--CB-[CG] |==|  0.84194
USER: genes 21 Torsion [CA]-CB--CG-[CD2] |==|  0.76168
ROOT
ATOM      1  C   LEU B   4      -2.929  37.209  71.645  1.00 29.18 LIG 0.24  C 
ATOM      2 O    LEU B   4      -3.656  38.041  71.096  1.00 28.54 LIG-0.27  OA
ATOM      3  N   PHE B   5      -2.080  36.434  70.973  1.00 29.99 LIG-0.35  N 
ATOM      4 H    PHE B   5      -1.653  35.772  71.318  1.00 29.99 LIG 0.16  HD
ENDROOT
BRANCH 1 5
ATOM      5  CA  LEU B   4      -3.009  37.020  73.174  1.00 28.82 LIG 0.18  C 
BRANCH 5 6
ATOM      6  CB  LEU B   4      -4.025  37.969  73.763  1.00 28.29 LIG 0.04  C 
BRANCH 6 7
ATOM      7  CG  LEU B   4      -3.457  39.344  74.162  1.00 28.88 LIG-0.02  C 
ATOM      8  CD2 LEU B   4      -4.067  39.753  75.492  1.00 30.37 LIG 0.01  C 
ATOM      9  CD1 LEU B   4      -3.679  40.451  73.101  1.00 31.50 LIG 0.01  C 
ENDBRANCH 6 7
ENDBRANCH 5 6
BRANCH 5 10
ATOM     10  N   LEU B   4      -1.716  37.142  73.842  1.00 28.20 LIG-0.35  N 
ATOM     11  C   TRP B   3      -0.829  36.169  73.787  1.00 29.51 LIG 0.24  C 
ATOM     12 O    TRP B   3      -1.019  35.145  73.140  1.00 30.32 LIG-0.27  OA
ATOM     13 H    LEU B   4      -1.596  37.885  74.258  1.00 28.20 LIG 0.16  HD
BRANCH 11 14
ATOM     14  CA  TRP B   3       0.453  36.360  74.615  1.00 31.78 LIG 0.18  C 
BRANCH 14 15
ATOM     15  N   TRP B   3       1.054  35.041  74.923  1.00 33.85 LIG-0.35  N 
ATOM     16  C   ALA B   2       0.585  34.377  75.995  1.00 37.00 LIG 0.26  C 
ATOM     17 O    ALA B   2      -0.292  34.891  76.742  1.00 38.56 LIG-0.27  OA
ATOM     18 H    TRP B   3       1.676  34.773  74.392  1.00 33.85 LIG 0.16  HD
BRANCH 16 19
ATOM     19  CA  ALA B   2       1.100  33.003  76.326  1.00 38.11 LIG 0.40  C 
ATOM     20  CB  ALA B   2       2.692  33.035  76.366  1.00 38.97 LIG 0.06  C 
ATOM     21  N   ALA B   2       0.607  31.822  75.517  1.00 37.81 LIG 0.61  N 
ENDBRANCH 16 19
ENDBRANCH 14 15
BRANCH 14 22
ATOM     22  CB  TRP B   3       1.417  37.289  73.846  1.00 31.58 LIG 0.07  C 
BRANCH 22 23
ATOM     23  CG  TRP B   3       0.751  38.457  73.295  1.00 30.60 LIG-0.03  A 
ATOM     24  CD1 TRP B   3       0.426  38.677  72.007  1.00 31.03 LIG 0.10  A 
ATOM     25  NE1 TRP B   3      -0.143  39.922  71.871  1.00 29.84 LIG-0.36  N 
ATOM     26 HE1  TRP B   3      -0.423  40.268  71.135  1.00 29.84 LIG 0.17  HD
ATOM     27  CE2 TRP B   3      -0.188  40.516  73.100  1.00 27.79 LIG 0.04  A 
ATOM     28  CD2 TRP B   3       0.361  39.619  74.016  1.00 28.46 LIG-0.00  A 
ATOM     29  CZ2 TRP B   3      -0.678  41.759  73.471  1.00 27.89 LIG 0.03  A 
ATOM     30  CE3 TRP B   3       0.447  39.991  75.346  1.00 31.78 LIG 0.01  A 
ATOM     31  CZ3 TRP B   3      -0.058  41.209  75.725  1.00 30.70 LIG 0.00  A 
ATOM     32  CH2 TRP B   3      -0.590  42.093  74.777  1.00 27.16 LIG 0.00  A 
ENDBRANCH 22 23
ENDBRANCH 14 22
ENDBRANCH 11 14
ENDBRANCH 5 10
ENDBRANCH 1 5
BRANCH 3 33
ATOM     33  CA  PHE B   5      -1.803  36.667  69.539  1.00 32.14 LIG 0.18  C 
BRANCH 33 34
ATOM     34  C   PHE B   5      -3.037  36.660  68.660  1.00 34.99 LIG 0.24  C 
ATOM     35 O    PHE B   5      -4.074  36.137  69.082  1.00 34.76 LIG-0.27  OA
ATOM     36  N   GLU B   6      -2.928  37.276  67.473  1.00 37.97 LIG-0.35  N 
ATOM     37 H    GLU B   6      -2.341  37.886  67.321  1.00 37.97 LIG 0.16  HD
BRANCH 36 38
ATOM     38  CA  GLU B   6      -3.788  36.991  66.297  1.00 41.44 LIG 0.18  C 
BRANCH 38 39
ATOM     39  C   GLU B   6      -3.451  35.546  65.855  1.00 42.63 LIG 0.24  C 
ATOM     40  N   ALA B   7      -2.161  35.211  65.823  1.00 44.72 LIG-0.35  N 
ATOM     41 H    ALA B   7      -1.521  35.679  66.156  1.00 44.72 LIG 0.16  HD
ATOM     42 O    GLU B   6      -4.337  34.757  65.467  1.00 39.57 LIG-0.27  OA
BRANCH 40 43
ATOM     43  CA  ALA B   7      -1.744  33.919  65.162  1.00 46.42 LIG 0.16  C 
ATOM     44  CB  ALA B   7      -1.610  34.094  63.633  1.00 46.36 LIG 0.04  C 
BRANCH 43 45
ATOM     45  C   ALA B   7      -0.482  33.340  65.777  1.00 46.87 LIG 0.22  C 
ATOM     46 O    ALA B   7       0.418  34.108  66.124  1.00 48.90 LIG-0.29  OA
ENDBRANCH 43 45
ENDBRANCH 40 43
ENDBRANCH 38 39
BRANCH 38 47
ATOM     47  CB  GLU B   6      -3.560  37.978  65.148  1.00 42.54 LIG 0.04  C 
BRANCH 47 48
ATOM     48  CG  GLU B   6      -3.051  39.374  65.647  1.00 48.04 LIG 0.12  C 
BRANCH 48 49
ATOM     49  CD  GLU B   6      -4.087  40.510  65.628  1.00 53.57 LIG 0.17  C 
ATOM     50 OE2  GLU B   6      -3.679  41.666  65.971  1.00 60.38 LIG-0.65  OA
ATOM     51 OE1  GLU B   6      -5.271  40.300  65.252  1.00 57.14 LIG-0.65  OA
ENDBRANCH 48 49
ENDBRANCH 47 48
ENDBRANCH 38 47
ENDBRANCH 36 38
ENDBRANCH 33 34
BRANCH 33 52
ATOM     52  CB  PHE B   5      -0.839  35.610  68.966  1.00 32.62 LIG 0.07  C 
BRANCH 52 53
ATOM     53  CG  PHE B   5       0.477  35.513  69.681  1.00 30.35 LIG-0.06  A 
ATOM     54  CD1 PHE B   5       0.658  34.643  70.731  1.00 31.18 LIG 0.01  A 
ATOM     55  CE1 PHE B   5       1.878  34.583  71.396  1.00 30.23 LIG 0.00  A 
ATOM     56  CZ  PHE B   5       2.957  35.402  71.009  1.00 31.30 LIG 0.00  A 
ATOM     57  CE2 PHE B   5       2.763  36.320  69.977  1.00 30.12 LIG 0.00  A 
ATOM     58  CD2 PHE B   5       1.531  36.361  69.327  1.00 31.88 LIG 0.01  A 
ENDBRANCH 52 53
ENDBRANCH 33 52
ENDBRANCH 3 33
TORSDOF 20
ENDMDL
MODEL 45
USER: ADFR SOLUTION from run 170
USER: SCORE 19.965365 LL:  -6.045 LR: -15.240 RR:   0.000 FEB:  -9.274
USER: RMSD 8.809250
USER: SEED 169
USER: STATUS no improvement in best in 17 clusters for 5 generations
USER: GENES 22
USER: genes 0 Translation |==|  0.53049 0.61741 0.68495
USER: genes 1 Rotation |==|  0.49922 0.91496 0.23543 0.58839
USER: genes 2 Torsion [N]-C--CA-[N] |==|  0.37165
USER: genes 3 Torsion [C]-CA--CB-[CG] |==|  0.28144
USER: genes 4 Torsion [CA]-CB--CG-[CD2] |==|  0.03292
USER: genes 5 Torsion [C]-CA--N-[C] |==|  0.70493
USER: genes 6 Torsion [N]-C--CA-[N] |==|  0.88889
USER: genes 7 Torsion [C]-CA--N-[C] |==|  0.81394
USER: genes 8 Torsion [N]-C--CA-[N] |==|  0.59027
USER: genes 9 Torsion [C]-CA--CB-[CG] |==|  0.04853
USER: genes 10 Torsion [CA]-CB--CG-[CD1] |==|  0.21338
USER: genes 11 Torsion [C]-N--CA-[CB] |==|  0.83812
USER: genes 12 Torsion [N]-CA--C-[N] |==|  0.34535
USER: genes 13 Torsion [C]-N--CA-[C] |==|  0.20392
USER: genes 14 Torsion [N]-CA--C-[N] |==|  0.24682
USER: genes 15 Torsion [C]-N--CA-[C] |==|  0.55030
USER: genes 16 Torsion [N]-CA--C-[O] |==|  0.09036
USER: genes 17 Torsion [N]-CA--CB-[CG] |==|  0.81009
USER: genes 18 Torsion [CA]-CB--CG-[CD] |==|  0.30948
USER: genes 19 Torsion [CB]-CG--CD-[OE2] |==|  0.66175
USER: genes 20 Torsion [N]-CA--CB-[CG] |==|  0.86952
USER: genes 21 Torsion [CA]-CB--CG-[CD2] |==|  0.31253
ROOT
ATOM      1  C   LEU B   4      -2.333  37.897  72.007  1.00 29.18 LIG 0.24  C 
ATOM      2 O    LEU B   4      -2.764  38.827  71.319  1.00 28.54 LIG-0.27  OA
ATOM      3  N   PHE B   5      -2.763  37.653  73.243  1.00 29.99 LIG-0.35  N 
ATOM      4 H    PHE B   5      -2.398  37.089  73.779  1.00 29.99 LIG 0.16  HD
ENDROOT
BRANCH 1 5
ATOM      5  CA  LEU B   4      -1.229  36.981  71.442  1.00 28.82 LIG 0.18  C 
BRANCH 5 6
ATOM      6  CB  LEU B   4       0.114  37.664  71.538  1.00 28.29 LIG 0.04  C 
BRANCH 6 7
ATOM      7  CG  LEU B   4       0.988  37.189  72.713  1.00 28.88 LIG-0.02  C 
ATOM      8  CD2 LEU B   4       0.369  35.932  73.301  1.00 30.37 LIG 0.01  C 
ATOM      9  CD1 LEU B   4       1.196  38.257  73.817  1.00 31.50 LIG 0.01  C 
ENDBRANCH 6 7
ENDBRANCH 5 6
BRANCH 5 10
ATOM     10  N   LEU B   4      -1.498  36.520  70.083  1.00 28.20 LIG-0.35  N 
ATOM     11  C   TRP B   3      -1.868  35.277  69.848  1.00 29.51 LIG 0.24  C 
ATOM     12 O    TRP B   3      -2.054  34.467  70.749  1.00 30.32 LIG-0.27  OA
ATOM     13 H    LEU B   4      -1.394  37.118  69.474  1.00 28.20 LIG 0.16  HD
BRANCH 11 14
ATOM     14  CA  TRP B   3      -2.020  34.872  68.372  1.00 31.78 LIG 0.18  C 
BRANCH 14 15
ATOM     15  N   TRP B   3      -2.645  35.977  67.609  1.00 33.85 LIG-0.35  N 
ATOM     16  C   ALA B   2      -3.924  36.285  67.892  1.00 37.00 LIG 0.26  C 
ATOM     17 O    ALA B   2      -4.581  35.613  68.734  1.00 38.56 LIG-0.27  OA
ATOM     18 H    TRP B   3      -2.149  36.363  67.021  1.00 33.85 LIG 0.16  HD
BRANCH 16 19
ATOM     19  CA  ALA B   2      -4.600  37.440  67.205  1.00 38.11 LIG 0.40  C 
ATOM     20  CB  ALA B   2      -3.493  38.408  66.595  1.00 38.97 LIG 0.06  C 
ATOM     21  N   ALA B   2      -5.647  38.230  67.962  1.00 37.81 LIG 0.61  N 
ENDBRANCH 16 19
ENDBRANCH 14 15
BRANCH 14 22
ATOM     22  CB  TRP B   3      -0.637  34.470  67.814  1.00 31.58 LIG 0.07  C 
BRANCH 22 23
ATOM     23  CG  TRP B   3       0.329  34.184  68.861  1.00 30.60 LIG-0.03  A 
ATOM     24  CD1 TRP B   3       0.408  33.071  69.614  1.00 31.03 LIG 0.10  A 
ATOM     25  NE1 TRP B   3       1.420  33.196  70.536  1.00 29.84 LIG-0.36  N 
ATOM     26 HE1  TRP B   3       1.644  32.604  71.119  1.00 29.84 LIG 0.17  HD
ATOM     27  CE2 TRP B   3       2.008  34.417  70.372  1.00 27.79 LIG 0.04  A 
ATOM     28  CD2 TRP B   3       1.350  35.060  69.325  1.00 28.46 LIG-0.00  A 
ATOM     29  CZ2 TRP B   3       3.069  34.993  71.054  1.00 27.89 LIG 0.03  A 
ATOM     30  CE3 TRP B   3       1.749  36.334  68.965  1.00 31.78 LIG 0.01  A 
ATOM     31  CZ3 TRP B   3       2.814  36.901  69.619  1.00 30.70 LIG 0.00  A 
ATOM     32  CH2 TRP B   3       3.446  36.235  70.677  1.00 27.16 LIG 0.00  A 
ENDBRANCH 22 23
ENDBRANCH 14 22
ENDBRANCH 11 14
ENDBRANCH 5 10
ENDBRANCH 1 5
BRANCH 3 33
ATOM     33  CA  PHE B   5      -3.939  38.358  73.799  1.00 32.14 LIG 0.18  C 
BRANCH 33 34
ATOM     34  C   PHE B   5      -5.234  38.078  73.063  1.00 34.99 LIG 0.24  C 
ATOM     35 O    PHE B   5      -5.281  38.250  71.840  1.00 34.76 LIG-0.27  OA
ATOM     36  N   GLU B   6      -6.251  37.609  73.802  1.00 37.97 LIG-0.35  N 
ATOM     37 H    GLU B   6      -6.130  37.205  74.552  1.00 37.97 LIG 0.16  HD
BRANCH 36 38
ATOM     38  CA  GLU B   6      -7.683  37.724  73.428  1.00 41.44 LIG 0.18  C 
BRANCH 38 39
ATOM     39  C   GLU B   6      -7.913  36.713  72.279  1.00 42.63 LIG 0.24  C 
ATOM     40  N   ALA B   7      -8.255  35.472  72.628  1.00 44.72 LIG-0.35  N 
ATOM     41 H    ALA B   7      -8.490  35.228  73.418  1.00 44.72 LIG 0.16  HD
ATOM     42 O    GLU B   6      -7.708  37.020  71.087  1.00 39.57 LIG-0.27  OA
BRANCH 40 43
ATOM     43  CA  ALA B   7      -8.243  34.377  71.588  1.00 46.42 LIG 0.16  C 
ATOM     44  CB  ALA B   7      -6.797  33.992  71.203  1.00 46.36 LIG 0.04  C 
BRANCH 43 45
ATOM     45  C   ALA B   7      -9.054  33.168  72.017  1.00 46.87 LIG 0.22  C 
ATOM     46 O    ALA B   7     -10.052  33.339  72.721  1.00 48.90 LIG-0.29  OA
ENDBRANCH 43 45
ENDBRANCH 40 43
ENDBRANCH 38 39
BRANCH 38 47
ATOM     47  CB  GLU B   6      -8.065  39.142  72.990  1.00 42.54 LIG 0.04  C 
BRANCH 47 48
ATOM     48  CG  GLU B   6      -8.019  40.169  74.173  1.00 48.04 LIG 0.12  C 
BRANCH 48 49
ATOM     49  CD  GLU B   6      -6.906  41.227  74.098  1.00 53.57 LIG 0.17  C 
ATOM     50 OE2  GLU B   6      -6.088  41.271  75.072  1.00 60.38 LIG-0.65  OA
ATOM     51 OE1  GLU B   6      -6.797  41.983  73.096  1.00 57.14 LIG-0.65  OA
ENDBRANCH 48 49
ENDBRANCH 47 48
ENDBRANCH 38 47
ENDBRANCH 36 38
ENDBRANCH 33 34
BRANCH 33 52
ATOM     52  CB  PHE B   5      -3.743  39.886  73.794  1.00 32.62 LIG 0.07  C 
BRANCH 52 53
ATOM     53  CG  PHE B   5      -2.417  40.346  74.327  1.00 30.35 LIG-0.06  A 
ATOM     54  CD1 PHE B   5      -2.112  40.250  75.664  1.00 31.18 LIG 0.01  A 
ATOM     55  CE1 PHE B   5      -0.887  40.702  76.143  1.00 30.23 LIG 0.00  A 
ATOM     56  CZ  PHE B   5       0.072  41.259  75.275  1.00 31.30 LIG 0.00  A 
ATOM     57  CE2 PHE B   5      -0.252  41.403  73.925  1.00 30.12 LIG 0.00  A 
ATOM     58  CD2 PHE B   5      -1.487  40.942  73.471  1.00 31.88 LIG 0.01  A 
ENDBRANCH 52 53
ENDBRANCH 33 52
ENDBRANCH 3 33
TORSDOF 20
ENDMDL
MODEL 46
USER: ADFR SOLUTION from run 49
USER: SCORE 20.439191 LL:  -6.081 LR: -15.222 RR:   0.000 FEB:  -9.256
USER: RMSD 5.339035
USER: SEED 48
USER: STATUS no improvement in best in 5 clusters for 5 generations
USER: GENES 22
USER: genes 0 Translation |==|  0.44935 0.67024 0.72331
USER: genes 1 Rotation |==|  0.62472 0.33347 0.57969 0.94762
USER: genes 2 Torsion [N]-C--CA-[N] |==|  0.95556
USER: genes 3 Torsion [C]-CA--CB-[CG] |==|  0.21798
USER: genes 4 Torsion [CA]-CB--CG-[CD2] |==|  0.06678
USER: genes 5 Torsion [C]-CA--N-[C] |==|  0.83284
USER: genes 6 Torsion [N]-C--CA-[N] |==|  0.92877
USER: genes 7 Torsion [C]-CA--N-[C] |==|  0.80802
USER: genes 8 Torsion [N]-C--CA-[N] |==|  0.23100
USER: genes 9 Torsion [C]-CA--CB-[CG] |==|  0.81826
USER: genes 10 Torsion [CA]-CB--CG-[CD1] |==|  0.72832
USER: genes 11 Torsion [C]-N--CA-[CB] |==|  0.21423
USER: genes 12 Torsion [N]-CA--C-[N] |==|  0.00980
USER: genes 13 Torsion [C]-N--CA-[C] |==|  0.65837
USER: genes 14 Torsion [N]-CA--C-[N] |==|  0.26785
USER: genes 15 Torsion [C]-N--CA-[C] |==|  0.51122
USER: genes 16 Torsion [N]-CA--C-[O] |==|  0.97499
USER: genes 17 Torsion [N]-CA--CB-[CG] |==|  0.47207
USER: genes 18 Torsion [CA]-CB--CG-[CD] |==|  0.24896
USER: genes 19 Torsion [CB]-CG--CD-[OE2] |==|  0.61491
USER: genes 20 Torsion [N]-CA--CB-[CG] |==|  0.73227
USER: genes 21 Torsion [CA]-CB--CG-[CD2] |==|  0.86065
ROOT
ATOM      1  C   LEU B   4      -3.916  38.928  72.871  1.00 29.18 LIG 0.24  C 
ATOM      2 O    LEU B   4      -3.673  40.127  73.031  1.00 28.54 LIG-0.27  OA
ATOM      3  N   PHE B   5      -3.080  38.098  72.250  1.00 29.99 LIG-0.35  N 
ATOM      4 H    PHE B   5      -3.278  37.292  72.025  1.00 29.99 LIG 0.16  HD
ENDROOT
BRANCH 1 5
ATOM      5  CA  LEU B   4      -5.251  38.347  73.380  1.00 28.82 LIG 0.18  C 
BRANCH 5 6
ATOM      6  CB  LEU B   4      -5.248  38.284  74.889  1.00 28.29 LIG 0.04  C 
BRANCH 6 7
ATOM      7  CG  LEU B   4      -5.519  39.632  75.583  1.00 28.88 LIG-0.02  C 
ATOM      8  CD2 LEU B   4      -6.287  40.525  74.624  1.00 30.37 LIG 0.01  C 
ATOM      9  CD1 LEU B   4      -4.241  40.350  76.086  1.00 31.50 LIG 0.01  C 
ENDBRANCH 6 7
ENDBRANCH 5 6
BRANCH 5 10
ATOM     10  N   LEU B   4      -5.581  37.052  72.793  1.00 28.20 LIG-0.35  N 
ATOM     11  C   TRP B   3      -5.736  36.915  71.491  1.00 29.51 LIG 0.24  C 
ATOM     12 O    TRP B   3      -5.562  37.845  70.710  1.00 30.32 LIG-0.27  OA
ATOM     13 H    LEU B   4      -5.663  36.411  73.360  1.00 28.20 LIG 0.16  HD
BRANCH 11 14
ATOM     14  CA  TRP B   3      -6.188  35.533  70.993  1.00 31.78 LIG 0.18  C 
BRANCH 14 15
ATOM     15  N   TRP B   3      -5.780  34.490  71.964  1.00 33.85 LIG-0.35  N 
ATOM     16  C   ALA B   2      -4.466  34.227  72.081  1.00 37.00 LIG 0.26  C 
ATOM     17 O    ALA B   2      -3.621  34.807  71.345  1.00 38.56 LIG-0.27  OA
ATOM     18 H    TRP B   3      -6.415  34.108  72.401  1.00 33.85 LIG 0.16  HD
BRANCH 16 19
ATOM     19  CA  ALA B   2      -3.976  33.231  73.096  1.00 38.11 LIG 0.40  C 
ATOM     20  CB  ALA B   2      -2.531  33.668  73.605  1.00 38.97 LIG 0.06  C 
ATOM     21  N   ALA B   2      -3.999  31.758  72.746  1.00 37.81 LIG 0.61  N 
ENDBRANCH 16 19
ENDBRANCH 14 15
BRANCH 14 22
ATOM     22  CB  TRP B   3      -7.712  35.557  70.750  1.00 31.58 LIG 0.07  C 
BRANCH 22 23
ATOM     23  CG  TRP B   3      -8.473  35.747  71.974  1.00 30.60 LIG-0.03  A 
ATOM     24  CD1 TRP B   3      -9.061  34.794  72.721  1.00 31.03 LIG 0.10  A 
ATOM     25  NE1 TRP B   3      -9.735  35.370  73.773  1.00 29.84 LIG-0.36  N 
ATOM     26 HE1  TRP B   3     -10.183  34.948  74.374  1.00 29.84 LIG 0.17  HD
ATOM     27  CE2 TRP B   3      -9.574  36.724  73.702  1.00 27.79 LIG 0.04  A 
ATOM     28  CD2 TRP B   3      -8.782  36.992  72.587  1.00 28.46 LIG-0.00  A 
ATOM     29  CZ2 TRP B   3     -10.053  37.723  74.537  1.00 27.89 LIG 0.03  A 
ATOM     30  CE3 TRP B   3      -8.481  38.307  72.281  1.00 31.78 LIG 0.01  A 
ATOM     31  CZ3 TRP B   3      -8.930  39.298  73.116  1.00 30.70 LIG 0.00  A 
ATOM     32  CH2 TRP B   3      -9.736  38.998  74.221  1.00 27.16 LIG 0.00  A 
ENDBRANCH 22 23
ENDBRANCH 14 22
ENDBRANCH 11 14
ENDBRANCH 5 10
ENDBRANCH 1 5
BRANCH 3 33
ATOM     33  CA  PHE B   5      -1.708  38.518  71.892  1.00 32.14 LIG 0.18  C 
BRANCH 33 34
ATOM     34  C   PHE B   5      -1.054  37.657  70.830  1.00 34.99 LIG 0.24  C 
ATOM     35 O    PHE B   5       0.129  37.858  70.536  1.00 34.76 LIG-0.27  OA
ATOM     36  N   GLU B   6      -1.811  36.684  70.300  1.00 37.97 LIG-0.35  N 
ATOM     37 H    GLU B   6      -2.492  36.353  70.709  1.00 37.97 LIG 0.16  HD
BRANCH 36 38
ATOM     38  CA  GLU B   6      -1.576  36.066  68.971  1.00 41.44 LIG 0.18  C 
BRANCH 38 39
ATOM     39  C   GLU B   6      -2.882  36.264  68.165  1.00 42.63 LIG 0.24  C 
ATOM     40  N   ALA B   7      -2.928  37.310  67.339  1.00 44.72 LIG-0.35  N 
ATOM     41 H    ALA B   7      -2.253  37.795  67.118  1.00 44.72 LIG 0.16  HD
ATOM     42 O    GLU B   6      -3.876  35.529  68.338  1.00 39.57 LIG-0.27  OA
BRANCH 40 43
ATOM     43  CA  ALA B   7      -4.246  37.713  66.721  1.00 46.42 LIG 0.16  C 
ATOM     44  CB  ALA B   7      -5.298  38.025  67.808  1.00 46.36 LIG 0.04  C 
BRANCH 43 45
ATOM     45  C   ALA B   7      -4.093  38.859  65.736  1.00 46.87 LIG 0.22  C 
ATOM     46 O    ALA B   7      -3.009  39.441  65.665  1.00 48.90 LIG-0.29  OA
ENDBRANCH 43 45
ENDBRANCH 40 43
ENDBRANCH 38 39
BRANCH 38 47
ATOM     47  CB  GLU B   6      -1.216  34.580  69.068  1.00 42.54 LIG 0.04  C 
BRANCH 47 48
ATOM     48  CG  GLU B   6      -1.214  33.870  67.671  1.00 48.04 LIG 0.12  C 
BRANCH 48 49
ATOM     49  CD  GLU B   6       0.124  33.889  66.913  1.00 53.57 LIG 0.17  C 
ATOM     50 OE2  GLU B   6       0.072  34.108  65.660  1.00 60.38 LIG-0.65  OA
ATOM     51 OE1  GLU B   6       1.216  33.730  67.521  1.00 57.14 LIG-0.65  OA
ENDBRANCH 48 49
ENDBRANCH 47 48
ENDBRANCH 38 47
ENDBRANCH 36 38
ENDBRANCH 33 34
BRANCH 33 52
ATOM     52  CB  PHE B   5      -0.771  38.509  73.115  1.00 32.62 LIG 0.07  C 
BRANCH 52 53
ATOM     53  CG  PHE B   5      -0.605  39.842  73.782  1.00 30.35 LIG-0.06  A 
ATOM     54  CD1 PHE B   5      -0.822  39.999  75.131  1.00 31.18 LIG 0.01  A 
ATOM     55  CE1 PHE B   5      -0.684  41.247  75.729  1.00 30.23 LIG 0.00  A 
ATOM     56  CZ  PHE B   5      -0.312  42.377  74.973  1.00 31.30 LIG 0.00  A 
ATOM     57  CE2 PHE B   5      -0.138  42.232  73.596  1.00 30.12 LIG 0.00  A 
ATOM     58  CD2 PHE B   5      -0.282  40.971  73.023  1.00 31.88 LIG 0.01  A 
ENDBRANCH 52 53
ENDBRANCH 33 52
ENDBRANCH 3 33
TORSDOF 20
ENDMDL
MODEL 47
USER: ADFR SOLUTION from run 90
USER: SCORE 19.289146 LL:  -5.330 LR: -15.180 RR:   0.000 FEB:  -9.214
USER: RMSD 3.422070
USER: SEED 89
USER: STATUS no improvement in best in 6 clusters for 5 generations
USER: GENES 22
USER: genes 0 Translation |==|  0.53711 0.61575 0.64972
USER: genes 1 Rotation |==|  0.55183 0.39789 0.40872 0.97807
USER: genes 2 Torsion [N]-C--CA-[N] |==|  0.01600
USER: genes 3 Torsion [C]-CA--CB-[CG] |==|  0.18206
USER: genes 4 Torsion [CA]-CB--CG-[CD2] |==|  0.68835
USER: genes 5 Torsion [C]-CA--N-[C] |==|  0.72818
USER: genes 6 Torsion [N]-C--CA-[N] |==|  0.90283
USER: genes 7 Torsion [C]-CA--N-[C] |==|  0.83829
USER: genes 8 Torsion [N]-C--CA-[N] |==|  0.02721
USER: genes 9 Torsion [C]-CA--CB-[CG] |==|  0.08073
USER: genes 10 Torsion [CA]-CB--CG-[CD1] |==|  0.22399
USER: genes 11 Torsion [C]-N--CA-[CB] |==|  0.23232
USER: genes 12 Torsion [N]-CA--C-[N] |==|  0.48246
USER: genes 13 Torsion [C]-N--CA-[C] |==|  0.18848
USER: genes 14 Torsion [N]-CA--C-[N] |==|  0.08027
USER: genes 15 Torsion [C]-N--CA-[C] |==|  0.51809
USER: genes 16 Torsion [N]-CA--C-[O] |==|  0.18926
USER: genes 17 Torsion [N]-CA--CB-[CG] |==|  0.67682
USER: genes 18 Torsion [CA]-CB--CG-[CD] |==|  0.14755
USER: genes 19 Torsion [CB]-CG--CD-[OE2] |==|  0.00471
USER: genes 20 Torsion [N]-CA--CB-[CG] |==|  0.67710
USER: genes 21 Torsion [CA]-CB--CG-[CD2] |==|  0.34316
ROOT
ATOM      1  C   LEU B   4      -2.204  37.865  71.215  1.00 29.18 LIG 0.24  C 
ATOM      2 O    LEU B   4      -1.261  38.634  71.009  1.00 28.54 LIG-0.27  OA
ATOM      3  N   PHE B   5      -2.357  36.716  70.560  1.00 29.99 LIG-0.35  N 
ATOM      4 H    PHE B   5      -3.062  36.226  70.602  1.00 29.99 LIG 0.16  HD
ENDROOT
BRANCH 1 5
ATOM      5  CA  LEU B   4      -3.281  38.242  72.253  1.00 28.82 LIG 0.18  C 
BRANCH 5 6
ATOM      6  CB  LEU B   4      -2.628  38.658  73.550  1.00 28.29 LIG 0.04  C 
BRANCH 6 7
ATOM      7  CG  LEU B   4      -1.796  39.951  73.459  1.00 28.88 LIG-0.02  C 
ATOM      8  CD2 LEU B   4      -0.330  39.598  73.644  1.00 30.37 LIG 0.01  C 
ATOM      9  CD1 LEU B   4      -2.220  41.047  74.468  1.00 31.50 LIG 0.01  C 
ENDBRANCH 6 7
ENDBRANCH 5 6
BRANCH 5 10
ATOM     10  N   LEU B   4      -4.272  37.193  72.468  1.00 28.20 LIG-0.35  N 
ATOM     11  C   TRP B   3      -5.440  37.226  71.857  1.00 29.51 LIG 0.24  C 
ATOM     12 O    TRP B   3      -5.732  38.102  71.049  1.00 30.32 LIG-0.27  OA
ATOM     13 H    LEU B   4      -4.028  36.574  73.012  1.00 28.20 LIG 0.16  HD
BRANCH 11 14
ATOM     14  CA  TRP B   3      -6.448  36.130  72.239  1.00 31.78 LIG 0.18  C 
BRANCH 14 15
ATOM     15  N   TRP B   3      -5.731  34.863  72.517  1.00 33.85 LIG-0.35  N 
ATOM     16  C   ALA B   2      -4.966  34.351  71.536  1.00 37.00 LIG 0.26  C 
ATOM     17 O    ALA B   2      -4.914  34.901  70.402  1.00 38.56 LIG-0.27  OA
ATOM     18 H    TRP B   3      -5.847  34.524  73.299  1.00 33.85 LIG 0.16  HD
BRANCH 16 19
ATOM     19  CA  ALA B   2      -4.156  33.105  71.772  1.00 38.11 LIG 0.40  C 
ATOM     20  CB  ALA B   2      -4.260  32.161  70.494  1.00 38.97 LIG 0.06  C 
ATOM     21  N   ALA B   2      -4.384  32.315  73.044  1.00 37.81 LIG 0.61  N 
ENDBRANCH 16 19
ENDBRANCH 14 15
BRANCH 14 22
ATOM     22  CB  TRP B   3      -7.291  36.613  73.438  1.00 31.58 LIG 0.07  C 
BRANCH 22 23
ATOM     23  CG  TRP B   3      -7.442  38.058  73.472  1.00 30.60 LIG-0.03  A 
ATOM     24  CD1 TRP B   3      -8.309  38.802  72.760  1.00 31.03 LIG 0.10  A 
ATOM     25  NE1 TRP B   3      -8.111  40.137  73.024  1.00 29.84 LIG-0.36  N 
ATOM     26 HE1  TRP B   3      -8.553  40.789  72.677  1.00 29.84 LIG 0.17  HD
ATOM     27  CE2 TRP B   3      -7.095  40.255  73.929  1.00 27.79 LIG 0.04  A 
ATOM     28  CD2 TRP B   3      -6.658  38.968  74.234  1.00 28.46 LIG-0.00  A 
ATOM     29  CZ2 TRP B   3      -6.543  41.390  74.505  1.00 27.89 LIG 0.03  A 
ATOM     30  CE3 TRP B   3      -5.613  38.810  75.127  1.00 31.78 LIG 0.01  A 
ATOM     31  CZ3 TRP B   3      -5.078  39.926  75.720  1.00 30.70 LIG 0.00  A 
ATOM     32  CH2 TRP B   3      -5.530  41.207  75.381  1.00 27.16 LIG 0.00  A 
ENDBRANCH 22 23
ENDBRANCH 14 22
ENDBRANCH 11 14
ENDBRANCH 5 10
ENDBRANCH 1 5
BRANCH 3 33
ATOM     33  CA  PHE B   5      -1.290  36.186  69.684  1.00 32.14 LIG 0.18  C 
BRANCH 33 34
ATOM     34  C   PHE B   5      -1.787  35.262  68.591  1.00 34.99 LIG 0.24  C 
ATOM     35 O    PHE B   5      -2.986  34.962  68.555  1.00 34.76 LIG-0.27  OA
ATOM     36  N   GLU B   6      -0.878  34.858  67.691  1.00 37.97 LIG-0.35  N 
ATOM     37 H    GLU B   6      -0.155  35.297  67.535  1.00 37.97 LIG 0.16  HD
BRANCH 36 38
ATOM     38  CA  GLU B   6      -1.000  33.629  66.867  1.00 41.44 LIG 0.18  C 
BRANCH 38 39
ATOM     39  C   GLU B   6      -2.176  33.878  65.892  1.00 42.63 LIG 0.24  C 
ATOM     40  N   ALA B   7      -2.409  35.142  65.539  1.00 44.72 LIG-0.35  N 
ATOM     41 H    ALA B   7      -1.882  35.804  65.695  1.00 44.72 LIG 0.16  HD
ATOM     42 O    GLU B   6      -2.923  32.951  65.518  1.00 39.57 LIG-0.27  OA
BRANCH 40 43
ATOM     43  CA  ALA B   7      -3.683  35.488  64.805  1.00 46.42 LIG 0.16  C 
ATOM     44  CB  ALA B   7      -4.925  35.132  65.651  1.00 46.36 LIG 0.04  C 
BRANCH 43 45
ATOM     45  C   ALA B   7      -3.708  36.934  64.345  1.00 46.87 LIG 0.22  C 
ATOM     46 O    ALA B   7      -2.928  37.291  63.460  1.00 48.90 LIG-0.29  OA
ENDBRANCH 43 45
ENDBRANCH 40 43
ENDBRANCH 38 39
BRANCH 38 47
ATOM     47  CB  GLU B   6      -1.250  32.376  67.713  1.00 42.54 LIG 0.04  C 
BRANCH 47 48
ATOM     48  CG  GLU B   6      -0.083  31.336  67.606  1.00 48.04 LIG 0.12  C 
BRANCH 48 49
ATOM     49  CD  GLU B   6       1.325  31.879  67.900  1.00 53.57 LIG 0.17  C 
ATOM     50 OE2  GLU B   6       1.411  33.105  68.234  1.00 60.38 LIG-0.65  OA
ATOM     51 OE1  GLU B   6       2.335  31.127  67.846  1.00 57.14 LIG-0.65  OA
ENDBRANCH 48 49
ENDBRANCH 47 48
ENDBRANCH 38 47
ENDBRANCH 36 38
ENDBRANCH 33 34
BRANCH 33 52
ATOM     52  CB  PHE B   5      -0.231  35.403  70.485  1.00 32.62 LIG 0.07  C 
BRANCH 52 53
ATOM     53  CG  PHE B   5       1.143  36.006  70.458  1.00 30.35 LIG-0.06  A 
ATOM     54  CD1 PHE B   5       1.818  36.193  69.274  1.00 31.18 LIG 0.01  A 
ATOM     55  CE1 PHE B   5       3.100  36.733  69.270  1.00 30.23 LIG 0.00  A 
ATOM     56  CZ  PHE B   5       3.733  37.108  70.471  1.00 31.30 LIG 0.00  A 
ATOM     57  CE2 PHE B   5       3.072  36.875  71.677  1.00 30.12 LIG 0.00  A 
ATOM     58  CD2 PHE B   5       1.788  36.333  71.654  1.00 31.88 LIG 0.01  A 
ENDBRANCH 52 53
ENDBRANCH 33 52
ENDBRANCH 3 33
TORSDOF 20
ENDMDL
MODEL 48
USER: ADFR SOLUTION from run 8
USER: SCORE 18.251259 LL:  -4.629 LR: -15.185 RR:   0.000 FEB:  -9.219
USER: RMSD 7.130531
USER: SEED 635959
USER: STATUS no improvement in best in 12 clusters for 5 generations
USER: GENES 22
USER: genes 0 Translation |==|  0.49604 0.54841 0.53431
USER: genes 1 Rotation |==|  0.58882 0.63398 0.96562 0.58577
USER: genes 2 Torsion [N]-C--CA-[N] |==|  0.36247
USER: genes 3 Torsion [C]-CA--CB-[CG] |==|  0.43188
USER: genes 4 Torsion [CA]-CB--CG-[CD2] |==|  0.00605
USER: genes 5 Torsion [C]-CA--N-[C] |==|  0.72587
USER: genes 6 Torsion [N]-C--CA-[N] |==|  0.85973
USER: genes 7 Torsion [C]-CA--N-[C] |==|  0.82539
USER: genes 8 Torsion [N]-C--CA-[N] |==|  0.87752
USER: genes 9 Torsion [C]-CA--CB-[CG] |==|  0.18481
USER: genes 10 Torsion [CA]-CB--CG-[CD1] |==|  0.61128
USER: genes 11 Torsion [C]-N--CA-[CB] |==|  0.19600
USER: genes 12 Torsion [N]-CA--C-[N] |==|  0.49487
USER: genes 13 Torsion [C]-N--CA-[C] |==|  0.78181
USER: genes 14 Torsion [N]-CA--C-[N] |==|  0.25237
USER: genes 15 Torsion [C]-N--CA-[C] |==|  0.48535
USER: genes 16 Torsion [N]-CA--C-[O] |==|  0.53314
USER: genes 17 Torsion [N]-CA--CB-[CG] |==|  0.66279
USER: genes 18 Torsion [CA]-CB--CG-[CD] |==|  0.17923
USER: genes 19 Torsion [CB]-CG--CD-[OE2] |==|  0.43848
USER: genes 20 Torsion [N]-CA--CB-[CG] |==|  0.74165
USER: genes 21 Torsion [CA]-CB--CG-[CD2] |==|  0.39505
ROOT
ATOM      1  C   LEU B   4      -3.005  36.552  68.618  1.00 29.18 LIG 0.24  C 
ATOM      2 O    LEU B   4      -3.879  35.685  68.701  1.00 28.54 LIG-0.27  OA
ATOM      3  N   PHE B   5      -2.958  37.438  67.626  1.00 29.99 LIG-0.35  N 
ATOM      4 H    PHE B   5      -2.298  37.971  67.485  1.00 29.99 LIG 0.16  HD
ENDROOT
BRANCH 1 5
ATOM      5  CA  LEU B   4      -1.893  36.615  69.684  1.00 28.82 LIG 0.18  C 
BRANCH 5 6
ATOM      6  CB  LEU B   4      -0.897  35.501  69.463  1.00 28.29 LIG 0.04  C 
BRANCH 6 7
ATOM      7  CG  LEU B   4       0.507  35.780  70.031  1.00 28.88 LIG-0.02  C 
ATOM      8  CD2 LEU B   4       0.489  37.130  70.730  1.00 30.37 LIG 0.01  C 
ATOM      9  CD1 LEU B   4       1.637  35.735  68.972  1.00 31.50 LIG 0.01  C 
ENDBRANCH 6 7
ENDBRANCH 5 6
BRANCH 5 10
ATOM     10  N   LEU B   4      -2.400  36.614  71.053  1.00 28.20 LIG-0.35  N 
ATOM     11  C   TRP B   3      -2.524  37.735  71.733  1.00 29.51 LIG 0.24  C 
ATOM     12 O    TRP B   3      -2.271  38.830  71.242  1.00 30.32 LIG-0.27  OA
ATOM     13 H    LEU B   4      -2.602  35.836  71.360  1.00 28.20 LIG 0.16  HD
BRANCH 11 14
ATOM     14  CA  TRP B   3      -2.966  37.605  73.200  1.00 31.78 LIG 0.18  C 
BRANCH 14 15
ATOM     15  N   TRP B   3      -4.173  36.752  73.288  1.00 33.85 LIG-0.35  N 
ATOM     16  C   ALA B   2      -5.290  37.186  72.676  1.00 37.00 LIG 0.26  C 
ATOM     17 O    ALA B   2      -5.319  38.309  72.102  1.00 38.56 LIG-0.27  OA
ATOM     18 H    TRP B   3      -4.091  36.019  73.731  1.00 33.85 LIG 0.16  HD
BRANCH 16 19
ATOM     19  CA  ALA B   2      -6.533  36.338  72.665  1.00 38.11 LIG 0.40  C 
ATOM     20  CB  ALA B   2      -7.345  36.579  74.014  1.00 38.97 LIG 0.06  C 
ATOM     21  N   ALA B   2      -6.405  34.858  72.372  1.00 37.81 LIG 0.61  N 
ENDBRANCH 16 19
ENDBRANCH 14 15
BRANCH 14 22
ATOM     22  CB  TRP B   3      -1.788  37.059  74.036  1.00 31.58 LIG 0.07  C 
BRANCH 22 23
ATOM     23  CG  TRP B   3      -0.677  37.992  74.117  1.00 30.60 LIG-0.03  A 
ATOM     24  CD1 TRP B   3       0.636  37.701  74.056  1.00 31.03 LIG 0.10  A 
ATOM     25  NE1 TRP B   3       1.380  38.845  74.227  1.00 29.84 LIG-0.36  N 
ATOM     26 HE1  TRP B   3       2.240  38.889  74.225  1.00 29.84 LIG 0.17  HD
ATOM     27  CE2 TRP B   3       0.527  39.897  74.399  1.00 27.79 LIG 0.04  A 
ATOM     28  CD2 TRP B   3      -0.772  39.395  74.330  1.00 28.46 LIG-0.00  A 
ATOM     29  CZ2 TRP B   3       0.800  41.242  74.596  1.00 27.89 LIG 0.03  A 
ATOM     30  CE3 TRP B   3      -1.834  40.266  74.491  1.00 31.78 LIG 0.01  A 
ATOM     31  CZ3 TRP B   3      -1.573  41.602  74.662  1.00 30.70 LIG 0.00  A 
ATOM     32  CH2 TRP B   3      -0.256  42.073  74.741  1.00 27.16 LIG 0.00  A 
ENDBRANCH 22 23
ENDBRANCH 14 22
ENDBRANCH 11 14
ENDBRANCH 5 10
ENDBRANCH 1 5
BRANCH 3 33
ATOM     33  CA  PHE B   5      -4.074  37.573  66.665  1.00 32.14 LIG 0.18  C 
BRANCH 33 34
ATOM     34  C   PHE B   5      -3.744  38.411  65.446  1.00 34.99 LIG 0.24  C 
ATOM     35 O    PHE B   5      -2.614  38.899  65.338  1.00 34.76 LIG-0.27  OA
ATOM     36  N   GLU B   6      -4.713  38.531  64.525  1.00 37.97 LIG-0.35  N 
ATOM     37 H    GLU B   6      -5.351  37.960  64.448  1.00 37.97 LIG 0.16  HD
BRANCH 36 38
ATOM     38  CA  GLU B   6      -4.803  39.640  63.542  1.00 41.44 LIG 0.18  C 
BRANCH 38 39
ATOM     39  C   GLU B   6      -5.384  40.852  64.309  1.00 42.63 LIG 0.24  C 
ATOM     40  N   ALA B   7      -4.509  41.679  64.882  1.00 44.72 LIG-0.35  N 
ATOM     41 H    ALA B   7      -3.660  41.672  64.744  1.00 44.72 LIG 0.16  HD
ATOM     42 O    GLU B   6      -6.614  41.004  64.457  1.00 39.57 LIG-0.27  OA
BRANCH 40 43
ATOM     43  CA  ALA B   7      -4.999  42.725  65.854  1.00 46.42 LIG 0.16  C 
ATOM     44  CB  ALA B   7      -5.946  42.107  66.906  1.00 46.36 LIG 0.04  C 
BRANCH 43 45
ATOM     45  C   ALA B   7      -3.858  43.489  66.502  1.00 46.87 LIG 0.22  C 
ATOM     46 O    ALA B   7      -4.099  44.211  67.471  1.00 48.90 LIG-0.29  OA
ENDBRANCH 43 45
ENDBRANCH 40 43
ENDBRANCH 38 39
BRANCH 38 47
ATOM     47  CB  GLU B   6      -5.681  39.288  62.336  1.00 42.54 LIG 0.04  C 
BRANCH 47 48
ATOM     48  CG  GLU B   6      -4.904  39.389  60.979  1.00 48.04 LIG 0.12  C 
BRANCH 48 49
ATOM     49  CD  GLU B   6      -3.743  38.397  60.797  1.00 53.57 LIG 0.17  C 
ATOM     50 OE2  GLU B   6      -3.383  38.146  59.602  1.00 60.38 LIG-0.65  OA
ATOM     51 OE1  GLU B   6      -3.160  37.892  61.793  1.00 57.14 LIG-0.65  OA
ENDBRANCH 48 49
ENDBRANCH 47 48
ENDBRANCH 38 47
ENDBRANCH 36 38
ENDBRANCH 33 34
BRANCH 33 52
ATOM     52  CB  PHE B   5      -5.318  38.204  67.319  1.00 32.62 LIG 0.07  C 
BRANCH 52 53
ATOM     53  CG  PHE B   5      -6.304  37.215  67.868  1.00 30.35 LIG-0.06  A 
ATOM     54  CD1 PHE B   5      -6.613  36.061  67.187  1.00 31.18 LIG 0.01  A 
ATOM     55  CE1 PHE B   5      -7.546  35.166  67.700  1.00 30.23 LIG 0.00  A 
ATOM     56  CZ  PHE B   5      -8.188  35.413  68.929  1.00 31.30 LIG 0.00  A 
ATOM     57  CE2 PHE B   5      -7.914  36.605  69.600  1.00 30.12 LIG 0.00  A 
ATOM     58  CD2 PHE B   5      -6.975  37.484  69.064  1.00 31.88 LIG 0.01  A 
ENDBRANCH 52 53
ENDBRANCH 33 52
ENDBRANCH 3 33
TORSDOF 20
ENDMDL
MODEL 49
USER: ADFR SOLUTION from run 113
USER: SCORE 18.998253 LL:  -5.555 LR: -15.149 RR:   0.000 FEB:  -9.183
USER: RMSD 10.055968
USER: SEED 112
USER: STATUS no improvement in best in 7 clusters for 5 generations
USER: GENES 22
USER: genes 0 Translation |==|  0.66111 0.47225 0.69833
USER: genes 1 Rotation |==|  0.48478 0.58046 0.03380 0.66110
USER: genes 2 Torsion [N]-C--CA-[N] |==|  0.29489
USER: genes 3 Torsion [C]-CA--CB-[CG] |==|  0.16867
USER: genes 4 Torsion [CA]-CB--CG-[CD2] |==|  0.08029
USER: genes 5 Torsion [C]-CA--N-[C] |==|  0.67556
USER: genes 6 Torsion [N]-C--CA-[N] |==|  0.01741
USER: genes 7 Torsion [C]-CA--N-[C] |==|  0.60215
USER: genes 8 Torsion [N]-C--CA-[N] |==|  0.82617
USER: genes 9 Torsion [C]-CA--CB-[CG] |==|  0.75821
USER: genes 10 Torsion [CA]-CB--CG-[CD1] |==|  0.22343
USER: genes 11 Torsion [C]-N--CA-[CB] |==|  0.17430
USER: genes 12 Torsion [N]-CA--C-[N] |==|  0.82686
USER: genes 13 Torsion [C]-N--CA-[C] |==|  0.77083
USER: genes 14 Torsion [N]-CA--C-[N] |==|  0.26905
USER: genes 15 Torsion [C]-N--CA-[C] |==|  0.51543
USER: genes 16 Torsion [N]-CA--C-[O] |==|  0.17797
USER: genes 17 Torsion [N]-CA--CB-[CG] |==|  0.61840
USER: genes 18 Torsion [CA]-CB--CG-[CD] |==|  0.84553
USER: genes 19 Torsion [CB]-CG--CD-[OE2] |==|  0.89708
USER: genes 20 Torsion [N]-CA--CB-[CG] |==|  0.04941
USER: genes 21 Torsion [CA]-CB--CG-[CD2] |==|  0.65568
ROOT
ATOM      1  C   LEU B   4       0.214  35.067  72.308  1.00 29.18 LIG 0.24  C 
ATOM      2 O    LEU B   4       0.318  34.305  71.343  1.00 28.54 LIG-0.27  OA
ATOM      3  N   PHE B   5      -0.670  36.062  72.352  1.00 29.99 LIG-0.35  N 
ATOM      4 H    PHE B   5      -0.681  36.671  72.959  1.00 29.99 LIG 0.16  HD
ENDROOT
BRANCH 1 5
ATOM      5  CA  LEU B   4       1.155  34.895  73.518  1.00 28.82 LIG 0.18  C 
BRANCH 5 6
ATOM      6  CB  LEU B   4       2.591  34.829  73.054  1.00 28.29 LIG 0.04  C 
BRANCH 6 7
ATOM      7  CG  LEU B   4       3.079  36.087  72.311  1.00 28.88 LIG-0.02  C 
ATOM      8  CD2 LEU B   4       2.305  37.287  72.831  1.00 30.37 LIG 0.01  C 
ATOM      9  CD1 LEU B   4       2.961  35.994  70.769  1.00 31.50 LIG 0.01  C 
ENDBRANCH 6 7
ENDBRANCH 5 6
BRANCH 5 10
ATOM     10  N   LEU B   4       0.814  33.753  74.361  1.00 28.20 LIG-0.35  N 
ATOM     11  C   TRP B   3       0.442  33.920  75.614  1.00 29.51 LIG 0.24  C 
ATOM     12 O    TRP B   3       0.316  35.032  76.117  1.00 30.32 LIG-0.27  OA
ATOM     13 H    LEU B   4       0.877  32.988  73.972  1.00 28.20 LIG 0.16  HD
BRANCH 11 14
ATOM     14  CA  TRP B   3       0.210  32.644  76.440  1.00 31.78 LIG 0.18  C 
BRANCH 14 15
ATOM     15  N   TRP B   3       0.613  31.456  75.652  1.00 33.85 LIG-0.35  N 
ATOM     16  C   ALA B   2      -0.126  30.339  75.786  1.00 37.00 LIG 0.26  C 
ATOM     17 O    ALA B   2      -1.089  30.293  76.600  1.00 38.56 LIG-0.27  OA
ATOM     18 H    TRP B   3       1.304  31.548  75.148  1.00 33.85 LIG 0.16  HD
BRANCH 16 19
ATOM     19  CA  ALA B   2       0.183  29.117  74.965  1.00 38.11 LIG 0.40  C 
ATOM     20  CB  ALA B   2       1.607  28.544  75.391  1.00 38.97 LIG 0.06  C 
ATOM     21  N   ALA B   2       0.067  29.201  73.457  1.00 37.81 LIG 0.61  N 
ENDBRANCH 16 19
ENDBRANCH 14 15
BRANCH 14 22
ATOM     22  CB  TRP B   3       0.976  32.761  77.775  1.00 31.58 LIG 0.07  C 
BRANCH 22 23
ATOM     23  CG  TRP B   3       2.352  32.304  77.676  1.00 30.60 LIG-0.03  A 
ATOM     24  CD1 TRP B   3       3.403  32.989  77.187  1.00 31.03 LIG 0.10  A 
ATOM     25  NE1 TRP B   3       4.529  32.200  77.207  1.00 29.84 LIG-0.36  N 
ATOM     26 HE1  TRP B   3       5.312  32.436  76.939  1.00 29.84 LIG 0.17  HD
ATOM     27  CE2 TRP B   3       4.197  30.981  77.724  1.00 27.79 LIG 0.04  A 
ATOM     28  CD2 TRP B   3       2.838  31.016  78.033  1.00 28.46 LIG-0.00  A 
ATOM     29  CZ2 TRP B   3       4.987  29.864  77.951  1.00 27.89 LIG 0.03  A 
ATOM     30  CE3 TRP B   3       2.243  29.885  78.562  1.00 31.78 LIG 0.01  A 
ATOM     31  CZ3 TRP B   3       3.023  28.785  78.813  1.00 30.70 LIG 0.00  A 
ATOM     32  CH2 TRP B   3       4.383  28.776  78.478  1.00 27.16 LIG 0.00  A 
ENDBRANCH 22 23
ENDBRANCH 14 22
ENDBRANCH 11 14
ENDBRANCH 5 10
ENDBRANCH 1 5
BRANCH 3 33
ATOM     33  CA  PHE B   5      -1.729  36.191  71.329  1.00 32.14 LIG 0.18  C 
BRANCH 33 34
ATOM     34  C   PHE B   5      -2.584  37.434  71.476  1.00 34.99 LIG 0.24  C 
ATOM     35 O    PHE B   5      -2.618  38.255  70.552  1.00 34.76 LIG-0.27  OA
ATOM     36  N   GLU B   6      -3.295  37.539  72.609  1.00 37.97 LIG-0.35  N 
ATOM     37 H    GLU B   6      -3.511  36.856  73.084  1.00 37.97 LIG 0.16  HD
BRANCH 36 38
ATOM     38  CA  GLU B   6      -3.790  38.820  73.174  1.00 41.44 LIG 0.18  C 
BRANCH 38 39
ATOM     39  C   GLU B   6      -2.606  39.431  73.961  1.00 42.63 LIG 0.24  C 
ATOM     40  N   ALA B   7      -1.871  40.347  73.329  1.00 44.72 LIG-0.35  N 
ATOM     41 H    ALA B   7      -2.082  40.721  72.584  1.00 44.72 LIG 0.16  HD
ATOM     42 O    GLU B   6      -2.301  39.028  75.102  1.00 39.57 LIG-0.27  OA
BRANCH 40 43
ATOM     43  CA  ALA B   7      -0.560  40.795  73.932  1.00 46.42 LIG 0.16  C 
ATOM     44  CB  ALA B   7       0.409  39.604  74.098  1.00 46.36 LIG 0.04  C 
BRANCH 43 45
ATOM     45  C   ALA B   7       0.072  41.933  73.151  1.00 46.87 LIG 0.22  C 
ATOM     46 O    ALA B   7      -0.516  43.015  73.096  1.00 48.90 LIG-0.29  OA
ENDBRANCH 43 45
ENDBRANCH 40 43
ENDBRANCH 38 39
BRANCH 38 47
ATOM     47  CB  GLU B   6      -5.008  38.630  74.084  1.00 42.54 LIG 0.04  C 
BRANCH 47 48
ATOM     48  CG  GLU B   6      -6.112  39.717  73.845  1.00 48.04 LIG 0.12  C 
BRANCH 48 49
ATOM     49  CD  GLU B   6      -5.652  41.177  73.981  1.00 53.57 LIG 0.17  C 
ATOM     50 OE2  GLU B   6      -4.797  41.429  74.890  1.00 60.38 LIG-0.65  OA
ATOM     51 OE1  GLU B   6      -6.080  42.068  73.199  1.00 57.14 LIG-0.65  OA
ENDBRANCH 48 49
ENDBRANCH 47 48
ENDBRANCH 38 47
ENDBRANCH 36 38
ENDBRANCH 33 34
BRANCH 33 52
ATOM     52  CB  PHE B   5      -2.688  34.985  71.343  1.00 32.62 LIG 0.07  C 
BRANCH 52 53
ATOM     53  CG  PHE B   5      -2.638  34.164  72.598  1.00 30.35 LIG-0.06  A 
ATOM     54  CD1 PHE B   5      -2.792  34.743  73.837  1.00 31.18 LIG 0.01  A 
ATOM     55  CE1 PHE B   5      -2.722  33.969  74.991  1.00 30.23 LIG 0.00  A 
ATOM     56  CZ  PHE B   5      -2.500  32.580  74.922  1.00 31.30 LIG 0.00  A 
ATOM     57  CE2 PHE B   5      -2.295  31.997  73.671  1.00 30.12 LIG 0.00  A 
ATOM     58  CD2 PHE B   5      -2.371  32.794  72.530  1.00 31.88 LIG 0.01  A 
ENDBRANCH 52 53
ENDBRANCH 33 52
ENDBRANCH 3 33
TORSDOF 20
ENDMDL
MODEL 50
USER: ADFR SOLUTION from run 55
USER: SCORE 19.534181 LL:  -5.215 LR: -15.118 RR:   0.000 FEB:  -9.152
USER: RMSD 5.353387
USER: SEED 54
USER: STATUS no improvement in best in 7 clusters for 5 generations
USER: GENES 22
USER: genes 0 Translation |==|  0.58307 0.43618 0.53207
USER: genes 1 Rotation |==|  0.09040 0.66899 0.72352 0.56087
USER: genes 2 Torsion [N]-C--CA-[N] |==|  0.88333
USER: genes 3 Torsion [C]-CA--CB-[CG] |==|  0.05131
USER: genes 4 Torsion [CA]-CB--CG-[CD2] |==|  0.55037
USER: genes 5 Torsion [C]-CA--N-[C] |==|  0.84859
USER: genes 6 Torsion [N]-C--CA-[N] |==|  0.38526
USER: genes 7 Torsion [C]-CA--N-[C] |==|  0.71676
USER: genes 8 Torsion [N]-C--CA-[N] |==|  0.83532
USER: genes 9 Torsion [C]-CA--CB-[CG] |==|  0.68131
USER: genes 10 Torsion [CA]-CB--CG-[CD1] |==|  0.15208
USER: genes 11 Torsion [C]-N--CA-[CB] |==|  0.76367
USER: genes 12 Torsion [N]-CA--C-[N] |==|  0.18008
USER: genes 13 Torsion [C]-N--CA-[C] |==|  0.51885
USER: genes 14 Torsion [N]-CA--C-[N] |==|  0.45802
USER: genes 15 Torsion [C]-N--CA-[C] |==|  0.81232
USER: genes 16 Torsion [N]-CA--C-[O] |==|  0.01489
USER: genes 17 Torsion [N]-CA--CB-[CG] |==|  0.74354
USER: genes 18 Torsion [CA]-CB--CG-[CD] |==|  0.88282
USER: genes 19 Torsion [CB]-CG--CD-[OE2] |==|  0.32073
USER: genes 20 Torsion [N]-CA--CB-[CG] |==|  0.82058
USER: genes 21 Torsion [CA]-CB--CG-[CD2] |==|  0.44258
ROOT
ATOM      1  C   LEU B   4      -1.308  34.364  68.568  1.00 29.18 LIG 0.24  C 
ATOM      2 O    LEU B   4      -1.324  33.138  68.705  1.00 28.54 LIG-0.27  OA
ATOM      3  N   PHE B   5      -0.185  35.078  68.580  1.00 29.99 LIG-0.35  N 
ATOM      4 H    PHE B   5      -0.160  35.938  68.604  1.00 29.99 LIG 0.16  HD
ENDROOT
BRANCH 1 5
ATOM      5  CA  LEU B   4      -2.637  35.127  68.398  1.00 28.82 LIG 0.18  C 
BRANCH 5 6
ATOM      6  CB  LEU B   4      -2.905  35.386  66.935  1.00 28.29 LIG 0.04  C 
BRANCH 6 7
ATOM      7  CG  LEU B   4      -2.101  34.491  65.972  1.00 28.88 LIG-0.02  C 
ATOM      8  CD2 LEU B   4      -2.109  35.132  64.594  1.00 30.37 LIG 0.01  C 
ATOM      9  CD1 LEU B   4      -2.613  33.031  65.893  1.00 31.50 LIG 0.01  C 
ENDBRANCH 6 7
ENDBRANCH 5 6
BRANCH 5 10
ATOM     10  N   LEU B   4      -2.702  36.359  69.178  1.00 28.20 LIG-0.35  N 
ATOM     11  C   TRP B   3      -2.487  36.353  70.479  1.00 29.51 LIG 0.24  C 
ATOM     12 O    TRP B   3      -2.176  35.334  71.086  1.00 30.32 LIG-0.27  OA
ATOM     13 H    LEU B   4      -2.888  37.064  68.721  1.00 28.20 LIG 0.16  HD
BRANCH 11 14
ATOM     14  CA  TRP B   3      -2.687  37.687  71.216  1.00 31.78 LIG 0.18  C 
BRANCH 14 15
ATOM     15  N   TRP B   3      -3.376  37.451  72.506  1.00 33.85 LIG-0.35  N 
ATOM     16  C   ALA B   2      -4.691  37.731  72.570  1.00 37.00 LIG 0.26  C 
ATOM     17 O    ALA B   2      -5.296  38.233  71.583  1.00 38.56 LIG-0.27  OA
ATOM     18 H    TRP B   3      -2.891  37.145  73.147  1.00 33.85 LIG 0.16  HD
BRANCH 16 19
ATOM     19  CA  ALA B   2      -5.470  37.450  73.827  1.00 38.11 LIG 0.40  C 
ATOM     20  CB  ALA B   2      -5.000  38.454  74.970  1.00 38.97 LIG 0.06  C 
ATOM     21  N   ALA B   2      -5.528  36.030  74.349  1.00 37.81 LIG 0.61  N 
ENDBRANCH 16 19
ENDBRANCH 14 15
BRANCH 14 22
ATOM     22  CB  TRP B   3      -1.317  38.377  71.390  1.00 31.58 LIG 0.07  C 
BRANCH 22 23
ATOM     23  CG  TRP B   3      -0.918  38.489  72.783  1.00 30.60 LIG-0.03  A 
ATOM     24  CD1 TRP B   3      -0.821  37.493  73.684  1.00 31.03 LIG 0.10  A 
ATOM     25  NE1 TRP B   3      -0.469  38.002  74.912  1.00 29.84 LIG-0.36  N 
ATOM     26 HE1  TRP B   3      -0.353  37.544  75.631  1.00 29.84 LIG 0.17  HD
ATOM     27  CE2 TRP B   3      -0.333  39.356  74.799  1.00 27.79 LIG 0.04  A 
ATOM     28  CD2 TRP B   3      -0.604  39.692  73.473  1.00 28.46 LIG-0.00  A 
ATOM     29  CZ2 TRP B   3       0.016  40.299  75.754  1.00 27.89 LIG 0.03  A 
ATOM     30  CE3 TRP B   3      -0.549  41.022  73.096  1.00 31.78 LIG 0.01  A 
ATOM     31  CZ3 TRP B   3      -0.180  41.958  74.029  1.00 30.70 LIG 0.00  A 
ATOM     32  CH2 TRP B   3       0.072  41.589  75.357  1.00 27.16 LIG 0.00  A 
ENDBRANCH 22 23
ENDBRANCH 14 22
ENDBRANCH 11 14
ENDBRANCH 5 10
ENDBRANCH 1 5
BRANCH 3 33
ATOM     33  CA  PHE B   5       1.140  34.423  68.554  1.00 32.14 LIG 0.18  C 
BRANCH 33 34
ATOM     34  C   PHE B   5       1.197  33.174  67.698  1.00 34.99 LIG 0.24  C 
ATOM     35 O    PHE B   5       1.370  32.078  68.243  1.00 34.76 LIG-0.27  OA
ATOM     36  N   GLU B   6       1.005  33.343  66.381  1.00 37.97 LIG-0.35  N 
ATOM     37 H    GLU B   6       0.587  34.021  66.058  1.00 37.97 LIG 0.16  HD
BRANCH 36 38
ATOM     38  CA  GLU B   6       1.480  32.401  65.336  1.00 41.44 LIG 0.18  C 
BRANCH 38 39
ATOM     39  C   GLU B   6       1.192  33.082  63.977  1.00 42.63 LIG 0.24  C 
ATOM     40  N   ALA B   7       1.804  32.574  62.907  1.00 44.72 LIG-0.35  N 
ATOM     41 H    ALA B   7       2.229  31.826  62.889  1.00 44.72 LIG 0.16  HD
ATOM     42 O    GLU B   6       0.486  34.108  63.895  1.00 39.57 LIG-0.27  OA
BRANCH 40 43
ATOM     43  CA  ALA B   7       1.777  33.335  61.602  1.00 46.42 LIG 0.16  C 
ATOM     44  CB  ALA B   7       2.807  32.762  60.603  1.00 46.36 LIG 0.04  C 
BRANCH 43 45
ATOM     45  C   ALA B   7       0.384  33.398  61.003  1.00 46.87 LIG 0.22  C 
ATOM     46 O    ALA B   7      -0.563  32.942  61.647  1.00 48.90 LIG-0.29  OA
ENDBRANCH 43 45
ENDBRANCH 40 43
ENDBRANCH 38 39
BRANCH 38 47
ATOM     47  CB  GLU B   6       0.790  31.035  65.418  1.00 42.54 LIG 0.04  C 
BRANCH 47 48
ATOM     48  CG  GLU B   6       1.587  30.012  66.297  1.00 48.04 LIG 0.12  C 
BRANCH 48 49
ATOM     49  CD  GLU B   6       3.112  30.005  66.100  1.00 53.57 LIG 0.17  C 
ATOM     50 OE2  GLU B   6       3.822  30.358  67.096  1.00 60.38 LIG-0.65  OA
ATOM     51 OE1  GLU B   6       3.623  29.632  65.011  1.00 57.14 LIG-0.65  OA
ENDBRANCH 48 49
ENDBRANCH 47 48
ENDBRANCH 38 47
ENDBRANCH 36 38
ENDBRANCH 33 34
BRANCH 33 52
ATOM     52  CB  PHE B   5       1.606  34.020  69.966  1.00 32.62 LIG 0.07  C 
BRANCH 52 53
ATOM     53  CG  PHE B   5       1.846  35.173  70.896  1.00 30.35 LIG-0.06  A 
ATOM     54  CD1 PHE B   5       2.129  36.431  70.417  1.00 31.18 LIG 0.01  A 
ATOM     55  CE1 PHE B   5       2.370  37.483  71.295  1.00 30.23 LIG 0.00  A 
ATOM     56  CZ  PHE B   5       2.322  37.291  72.689  1.00 31.30 LIG 0.00  A 
ATOM     57  CE2 PHE B   5       2.083  36.007  73.180  1.00 30.12 LIG 0.00  A 
ATOM     58  CD2 PHE B   5       1.845  34.970  72.279  1.00 31.88 LIG 0.01  A 
ENDBRANCH 52 53
ENDBRANCH 33 52
ENDBRANCH 3 33
TORSDOF 20
ENDMDL
MODEL 51
USER: ADFR SOLUTION from run 104
USER: SCORE 19.118423 LL:  -4.879 LR: -15.121 RR:   0.000 FEB:  -9.155
USER: RMSD 9.723542
USER: SEED 103
USER: STATUS no improvement in best in 10 clusters for 5 generations
USER: GENES 22
USER: genes 0 Translation |==|  0.73872 0.48165 0.70418
USER: genes 1 Rotation |==|  0.74653 0.91770 0.51039 0.62102
USER: genes 2 Torsion [N]-C--CA-[N] |==|  0.99180
USER: genes 3 Torsion [C]-CA--CB-[CG] |==|  0.93341
USER: genes 4 Torsion [CA]-CB--CG-[CD2] |==|  0.65370
USER: genes 5 Torsion [C]-CA--N-[C] |==|  0.18530
USER: genes 6 Torsion [N]-C--CA-[N] |==|  0.14831
USER: genes 7 Torsion [C]-CA--N-[C] |==|  0.16667
USER: genes 8 Torsion [N]-C--CA-[N] |==|  0.15066
USER: genes 9 Torsion [C]-CA--CB-[CG] |==|  0.26487
USER: genes 10 Torsion [CA]-CB--CG-[CD1] |==|  0.04987
USER: genes 11 Torsion [C]-N--CA-[CB] |==|  0.83247
USER: genes 12 Torsion [N]-CA--C-[N] |==|  0.43376
USER: genes 13 Torsion [C]-N--CA-[C] |==|  0.82821
USER: genes 14 Torsion [N]-CA--C-[N] |==|  0.40235
USER: genes 15 Torsion [C]-N--CA-[C] |==|  0.49196
USER: genes 16 Torsion [N]-CA--C-[O] |==|  0.99211
USER: genes 17 Torsion [N]-CA--CB-[CG] |==|  0.28482
USER: genes 18 Torsion [CA]-CB--CG-[CD] |==|  0.27883
USER: genes 19 Torsion [CB]-CG--CD-[OE2] |==|  0.69281
USER: genes 20 Torsion [N]-CA--CB-[CG] |==|  0.88729
USER: genes 21 Torsion [CA]-CB--CG-[CD2] |==|  0.29033
ROOT
ATOM      1  C   LEU B   4       1.727  35.250  72.440  1.00 29.18 LIG 0.24  C 
ATOM      2 O    LEU B   4       2.027  36.225  73.133  1.00 28.54 LIG-0.27  OA
ATOM      3  N   PHE B   5       0.495  34.749  72.392  1.00 29.99 LIG-0.35  N 
ATOM      4 H    PHE B   5       0.290  34.006  72.011  1.00 29.99 LIG 0.16  HD
ENDROOT
BRANCH 1 5
ATOM      5  CA  LEU B   4       2.816  34.548  71.603  1.00 28.82 LIG 0.18  C 
BRANCH 5 6
ATOM      6  CB  LEU B   4       3.447  35.529  70.644  1.00 28.29 LIG 0.04  C 
BRANCH 6 7
ATOM      7  CG  LEU B   4       2.557  36.734  70.288  1.00 28.88 LIG-0.02  C 
ATOM      8  CD2 LEU B   4       2.416  36.804  68.776  1.00 30.37 LIG 0.01  C 
ATOM      9  CD1 LEU B   4       3.071  38.085  70.846  1.00 31.50 LIG 0.01  C 
ENDBRANCH 6 7
ENDBRANCH 5 6
BRANCH 5 10
ATOM     10  N   LEU B   4       2.336  33.357  70.909  1.00 28.20 LIG-0.35  N 
ATOM     11  C   TRP B   3       1.450  33.447  69.937  1.00 29.51 LIG 0.24  C 
ATOM     12 O    TRP B   3       1.025  34.525  69.537  1.00 30.32 LIG-0.27  OA
ATOM     13 H    LEU B   4       2.677  32.618  71.187  1.00 28.20 LIG 0.16  HD
BRANCH 11 14
ATOM     14  CA  TRP B   3       0.936  32.123  69.350  1.00 31.78 LIG 0.18  C 
BRANCH 14 15
ATOM     15  N   TRP B   3       0.426  31.254  70.437  1.00 33.85 LIG-0.35  N 
ATOM     16  C   ALA B   2      -0.590  31.722  71.185  1.00 37.00 LIG 0.26  C 
ATOM     17 O    ALA B   2      -1.047  32.884  71.001  1.00 38.56 LIG-0.27  OA
ATOM     18 H    TRP B   3       0.814  30.492  70.529  1.00 33.85 LIG 0.16  HD
BRANCH 16 19
ATOM     19  CA  ALA B   2      -1.203  30.867  72.260  1.00 38.11 LIG 0.40  C 
ATOM     20  CB  ALA B   2      -2.419  31.651  72.925  1.00 38.97 LIG 0.06  C 
ATOM     21  N   ALA B   2      -0.303  30.270  73.321  1.00 37.81 LIG 0.61  N 
ENDBRANCH 16 19
ENDBRANCH 14 15
BRANCH 14 22
ATOM     22  CB  TRP B   3      -0.134  32.426  68.279  1.00 31.58 LIG 0.07  C 
BRANCH 22 23
ATOM     23  CG  TRP B   3       0.412  32.461  66.933  1.00 30.60 LIG-0.03  A 
ATOM     24  CD1 TRP B   3       1.586  31.949  66.519  1.00 31.03 LIG 0.10  A 
ATOM     25  NE1 TRP B   3       1.779  32.231  65.187  1.00 29.84 LIG-0.36  N 
ATOM     26 HE1  TRP B   3       2.463  32.000  64.719  1.00 29.84 LIG 0.17  HD
ATOM     27  CE2 TRP B   3       0.703  32.938  64.732  1.00 27.79 LIG 0.04  A 
ATOM     28  CD2 TRP B   3      -0.176  33.094  65.804  1.00 28.46 LIG-0.00  A 
ATOM     29  CZ2 TRP B   3       0.435  33.436  63.466  1.00 27.89 LIG 0.03  A 
ATOM     30  CE3 TRP B   3      -1.351  33.797  65.608  1.00 31.78 LIG 0.01  A 
ATOM     31  CZ3 TRP B   3      -1.634  34.271  64.352  1.00 30.70 LIG 0.00  A 
ATOM     32  CH2 TRP B   3      -0.724  34.110  63.300  1.00 27.16 LIG 0.00  A 
ENDBRANCH 22 23
ENDBRANCH 14 22
ENDBRANCH 11 14
ENDBRANCH 5 10
ENDBRANCH 1 5
BRANCH 3 33
ATOM     33  CA  PHE B   5      -0.645  35.458  73.011  1.00 32.14 LIG 0.18  C 
BRANCH 33 34
ATOM     34  C   PHE B   5      -0.911  36.831  72.428  1.00 34.99 LIG 0.24  C 
ATOM     35 O    PHE B   5      -0.002  37.419  71.832  1.00 34.76 LIG-0.27  OA
ATOM     36  N   GLU B   6      -2.159  37.307  72.564  1.00 37.97 LIG-0.35  N 
ATOM     37 H    GLU B   6      -2.838  36.794  72.687  1.00 37.97 LIG 0.16  HD
BRANCH 36 38
ATOM     38  CA  GLU B   6      -2.517  38.746  72.522  1.00 41.44 LIG 0.18  C 
BRANCH 38 39
ATOM     39  C   GLU B   6      -1.776  39.412  73.706  1.00 42.63 LIG 0.24  C 
ATOM     40  N   ALA B   7      -1.329  40.654  73.515  1.00 44.72 LIG-0.35  N 
ATOM     41 H    ALA B   7      -1.539  41.158  72.850  1.00 44.72 LIG 0.16  HD
ATOM     42 O    GLU B   6      -1.532  38.790  74.759  1.00 39.57 LIG-0.27  OA
BRANCH 40 43
ATOM     43  CA  ALA B   7      -0.382  41.267  74.519  1.00 46.42 LIG 0.16  C 
ATOM     44  CB  ALA B   7       0.813  40.329  74.800  1.00 46.36 LIG 0.04  C 
BRANCH 43 45
ATOM     45  C   ALA B   7       0.075  42.655  74.105  1.00 46.87 LIG 0.22  C 
ATOM     46 O    ALA B   7      -0.303  43.108  73.023  1.00 48.90 LIG-0.29  OA
ENDBRANCH 43 45
ENDBRANCH 40 43
ENDBRANCH 38 39
BRANCH 38 47
ATOM     47  CB  GLU B   6      -4.029  38.980  72.627  1.00 42.54 LIG 0.04  C 
BRANCH 47 48
ATOM     48  CG  GLU B   6      -4.466  39.449  74.056  1.00 48.04 LIG 0.12  C 
BRANCH 48 49
ATOM     49  CD  GLU B   6      -4.716  40.958  74.217  1.00 53.57 LIG 0.17  C 
ATOM     50 OE2  GLU B   6      -3.882  41.606  74.928  1.00 60.38 LIG-0.65  OA
ATOM     51 OE1  GLU B   6      -5.683  41.521  73.637  1.00 57.14 LIG-0.65  OA
ENDBRANCH 48 49
ENDBRANCH 47 48
ENDBRANCH 38 47
ENDBRANCH 36 38
ENDBRANCH 33 34
BRANCH 33 52
ATOM     52  CB  PHE B   5      -0.446  35.646  74.527  1.00 32.62 LIG 0.07  C 
BRANCH 52 53
ATOM     53  CG  PHE B   5       0.148  34.460  75.230  1.00 30.35 LIG-0.06  A 
ATOM     54  CD1 PHE B   5      -0.617  33.364  75.552  1.00 31.18 LIG 0.01  A 
ATOM     55  CE1 PHE B   5      -0.055  32.283  76.223  1.00 30.23 LIG 0.00  A 
ATOM     56  CZ  PHE B   5       1.307  32.280  76.581  1.00 31.30 LIG 0.00  A 
ATOM     57  CE2 PHE B   5       2.075  33.410  76.300  1.00 30.12 LIG 0.00  A 
ATOM     58  CD2 PHE B   5       1.488  34.479  75.627  1.00 31.88 LIG 0.01  A 
ENDBRANCH 52 53
ENDBRANCH 33 52
ENDBRANCH 3 33
TORSDOF 20
ENDMDL
MODEL 52
USER: ADFR SOLUTION from run 99
USER: SCORE 18.098970 LL:  -4.794 LR: -15.098 RR:   0.000 FEB:  -9.132
USER: RMSD 5.488790
USER: SEED 98
USER: STATUS no improvement in best in 9 clusters for 5 generations
USER: GENES 22
USER: genes 0 Translation |==|  0.67150 0.44803 0.52728
USER: genes 1 Rotation |==|  0.49151 0.38568 0.11367 0.79599
USER: genes 2 Torsion [N]-C--CA-[N] |==|  0.13933
USER: genes 3 Torsion [C]-CA--CB-[CG] |==|  0.56634
USER: genes 4 Torsion [CA]-CB--CG-[CD2] |==|  0.76235
USER: genes 5 Torsion [C]-CA--N-[C] |==|  0.73736
USER: genes 6 Torsion [N]-C--CA-[N] |==|  0.04757
USER: genes 7 Torsion [C]-CA--N-[C] |==|  0.72611
USER: genes 8 Torsion [N]-C--CA-[N] |==|  0.43022
USER: genes 9 Torsion [C]-CA--CB-[CG] |==|  0.79561
USER: genes 10 Torsion [CA]-CB--CG-[CD1] |==|  0.12790
USER: genes 11 Torsion [C]-N--CA-[CB] |==|  0.51667
USER: genes 12 Torsion [N]-CA--C-[N] |==|  0.31330
USER: genes 13 Torsion [C]-N--CA-[C] |==|  0.89785
USER: genes 14 Torsion [N]-CA--C-[N] |==|  0.33491
USER: genes 15 Torsion [C]-N--CA-[C] |==|  0.53061
USER: genes 16 Torsion [N]-CA--C-[O] |==|  0.95005
USER: genes 17 Torsion [N]-CA--CB-[CG] |==|  0.66960
USER: genes 18 Torsion [CA]-CB--CG-[CD] |==|  0.20815
USER: genes 19 Torsion [CB]-CG--CD-[OE2] |==|  0.90706
USER: genes 20 Torsion [N]-CA--CB-[CG] |==|  0.04034
USER: genes 21 Torsion [CA]-CB--CG-[CD2] |==|  0.30312
ROOT
ATOM      1  C   LEU B   4       0.416  34.595  68.460  1.00 29.18 LIG 0.24  C 
ATOM      2 O    LEU B   4       1.317  33.770  68.287  1.00 28.54 LIG-0.27  OA
ATOM      3  N   PHE B   5      -0.692  34.620  67.723  1.00 29.99 LIG-0.35  N 
ATOM      4 H    PHE B   5      -1.275  35.252  67.748  1.00 29.99 LIG 0.16  HD
ENDROOT
BRANCH 1 5
ATOM      5  CA  LEU B   4       0.569  35.670  69.555  1.00 28.82 LIG 0.18  C 
BRANCH 5 6
ATOM      6  CB  LEU B   4       1.829  35.425  70.351  1.00 28.29 LIG 0.04  C 
BRANCH 6 7
ATOM      7  CG  LEU B   4       1.812  36.024  71.770  1.00 28.88 LIG-0.02  C 
ATOM      8  CD2 LEU B   4       2.263  37.473  71.691  1.00 30.37 LIG 0.01  C 
ATOM      9  CD1 LEU B   4       2.674  35.244  72.795  1.00 31.50 LIG 0.01  C 
ENDBRANCH 6 7
ENDBRANCH 5 6
BRANCH 5 10
ATOM     10  N   LEU B   4      -0.597  35.783  70.424  1.00 28.20 LIG-0.35  N 
ATOM     11  C   TRP B   3      -1.542  36.670  70.182  1.00 29.51 LIG 0.24  C 
ATOM     12 O    TRP B   3      -1.516  37.403  69.199  1.00 30.32 LIG-0.27  OA
ATOM     13 H    LEU B   4      -0.607  35.234  71.086  1.00 28.20 LIG 0.16  HD
BRANCH 11 14
ATOM     14  CA  TRP B   3      -2.671  36.775  71.221  1.00 31.78 LIG 0.18  C 
BRANCH 14 15
ATOM     15  N   TRP B   3      -2.247  36.137  72.489  1.00 33.85 LIG-0.35  N 
ATOM     16  C   ALA B   2      -2.665  34.879  72.724  1.00 37.00 LIG 0.26  C 
ATOM     17 O    ALA B   2      -3.438  34.292  71.919  1.00 38.56 LIG-0.27  OA
ATOM     18 H    TRP B   3      -1.753  36.612  73.009  1.00 33.85 LIG 0.16  HD
BRANCH 16 19
ATOM     19  CA  ALA B   2      -2.216  34.145  73.959  1.00 38.11 LIG 0.40  C 
ATOM     20  CB  ALA B   2      -0.717  33.645  73.756  1.00 38.97 LIG 0.06  C 
ATOM     21  N   ALA B   2      -3.085  33.031  74.504  1.00 37.81 LIG 0.61  N 
ENDBRANCH 16 19
ENDBRANCH 14 15
BRANCH 14 22
ATOM     22  CB  TRP B   3      -3.056  38.259  71.401  1.00 31.58 LIG 0.07  C 
BRANCH 22 23
ATOM     23  CG  TRP B   3      -2.061  39.011  72.147  1.00 30.60 LIG-0.03  A 
ATOM     24  CD1 TRP B   3      -0.726  38.990  71.972  1.00 31.03 LIG 0.10  A 
ATOM     25  NE1 TRP B   3      -0.116  39.792  72.908  1.00 29.84 LIG-0.36  N 
ATOM     26 HE1  TRP B   3       0.731  39.924  72.981  1.00 29.84 LIG 0.17  HD
ATOM     27  CE2 TRP B   3      -1.081  40.344  73.702  1.00 27.79 LIG 0.04  A 
ATOM     28  CD2 TRP B   3      -2.313  39.877  73.246  1.00 28.46 LIG-0.00  A 
ATOM     29  CZ2 TRP B   3      -0.961  41.221  74.769  1.00 27.89 LIG 0.03  A 
ATOM     30  CE3 TRP B   3      -3.464  40.280  73.899  1.00 31.78 LIG 0.01  A 
ATOM     31  CZ3 TRP B   3      -3.356  41.167  74.940  1.00 30.70 LIG 0.00  A 
ATOM     32  CH2 TRP B   3      -2.102  41.606  75.383  1.00 27.16 LIG 0.00  A 
ENDBRANCH 22 23
ENDBRANCH 14 22
ENDBRANCH 11 14
ENDBRANCH 5 10
ENDBRANCH 1 5
BRANCH 3 33
ATOM     33  CA  PHE B   5      -1.010  33.527  66.779  1.00 32.14 LIG 0.18  C 
BRANCH 33 34
ATOM     34  C   PHE B   5       0.107  33.204  65.807  1.00 34.99 LIG 0.24  C 
ATOM     35 O    PHE B   5       0.446  34.052  64.975  1.00 34.76 LIG-0.27  OA
ATOM     36  N   GLU B   6       0.694  32.005  65.949  1.00 37.97 LIG-0.35  N 
ATOM     37 H    GLU B   6       0.679  31.568  66.690  1.00 37.97 LIG 0.16  HD
BRANCH 36 38
ATOM     38  CA  GLU B   6       1.428  31.297  64.871  1.00 41.44 LIG 0.18  C 
BRANCH 38 39
ATOM     39  C   GLU B   6       0.661  31.590  63.560  1.00 42.63 LIG 0.24  C 
ATOM     40  N   ALA B   7       1.340  32.202  62.589  1.00 44.72 LIG-0.35  N 
ATOM     41 H    ALA B   7       2.192  32.319  62.579  1.00 44.72 LIG 0.16  HD
ATOM     42 O    GLU B   6      -0.557  31.343  63.444  1.00 39.57 LIG-0.27  OA
BRANCH 40 43
ATOM     43  CA  ALA B   7       0.597  32.748  61.392  1.00 46.42 LIG 0.16  C 
ATOM     44  CB  ALA B   7      -0.352  33.894  61.803  1.00 46.36 LIG 0.04  C 
BRANCH 43 45
ATOM     45  C   ALA B   7       1.537  33.165  60.274  1.00 46.87 LIG 0.22  C 
ATOM     46 O    ALA B   7       2.727  33.350  60.535  1.00 48.90 LIG-0.29  OA
ENDBRANCH 43 45
ENDBRANCH 40 43
ENDBRANCH 38 39
BRANCH 38 47
ATOM     47  CB  GLU B   6       1.525  29.787  65.119  1.00 42.54 LIG 0.04  C 
BRANCH 47 48
ATOM     48  CG  GLU B   6       3.007  29.294  65.245  1.00 48.04 LIG 0.12  C 
BRANCH 48 49
ATOM     49  CD  GLU B   6       3.715  29.633  66.567  1.00 53.57 LIG 0.17  C 
ATOM     50 OE2  GLU B   6       3.396  30.733  67.124  1.00 60.38 LIG-0.65  OA
ATOM     51 OE1  GLU B   6       4.543  28.835  67.083  1.00 57.14 LIG-0.65  OA
ENDBRANCH 48 49
ENDBRANCH 47 48
ENDBRANCH 38 47
ENDBRANCH 36 38
ENDBRANCH 33 34
BRANCH 33 52
ATOM     52  CB  PHE B   5      -2.259  33.847  65.936  1.00 32.62 LIG 0.07  C 
BRANCH 52 53
ATOM     53  CG  PHE B   5      -2.688  35.284  65.976  1.00 30.35 LIG-0.06  A 
ATOM     54  CD1 PHE B   5      -3.302  35.815  67.086  1.00 31.18 LIG 0.01  A 
ATOM     55  CE1 PHE B   5      -3.712  37.144  67.098  1.00 30.23 LIG 0.00  A 
ATOM     56  CZ  PHE B   5      -3.504  37.978  65.982  1.00 31.30 LIG 0.00  A 
ATOM     57  CE2 PHE B   5      -2.926  37.431  64.837  1.00 30.12 LIG 0.00  A 
ATOM     58  CD2 PHE B   5      -2.524  36.096  64.851  1.00 31.88 LIG 0.01  A 
ENDBRANCH 52 53
ENDBRANCH 33 52
ENDBRANCH 3 33
TORSDOF 20
ENDMDL
MODEL 53
USER: ADFR SOLUTION from run 24
USER: SCORE 20.530471 LL:  -6.142 LR: -15.042 RR:   0.000 FEB:  -9.076
USER: RMSD 4.388881
USER: SEED 23
USER: STATUS no improvement in best in 15 clusters for 5 generations
USER: GENES 22
USER: genes 0 Translation |==|  0.57211 0.67533 0.70729
USER: genes 1 Rotation |==|  0.57956 0.39225 0.47513 0.98108
USER: genes 2 Torsion [N]-C--CA-[N] |==|  0.99385
USER: genes 3 Torsion [C]-CA--CB-[CG] |==|  0.15476
USER: genes 4 Torsion [CA]-CB--CG-[CD2] |==|  0.59810
USER: genes 5 Torsion [C]-CA--N-[C] |==|  0.74476
USER: genes 6 Torsion [N]-C--CA-[N] |==|  0.94387
USER: genes 7 Torsion [C]-CA--N-[C] |==|  0.81502
USER: genes 8 Torsion [N]-C--CA-[N] |==|  0.15173
USER: genes 9 Torsion [C]-CA--CB-[CG] |==|  0.04041
USER: genes 10 Torsion [CA]-CB--CG-[CD1] |==|  0.26514
USER: genes 11 Torsion [C]-N--CA-[CB] |==|  0.17778
USER: genes 12 Torsion [N]-CA--C-[N] |==|  0.09105
USER: genes 13 Torsion [C]-N--CA-[C] |==|  0.59109
USER: genes 14 Torsion [N]-CA--C-[N] |==|  0.14686
USER: genes 15 Torsion [C]-N--CA-[C] |==|  0.56614
USER: genes 16 Torsion [N]-CA--C-[O] |==|  0.96685
USER: genes 17 Torsion [N]-CA--CB-[CG] |==|  0.59587
USER: genes 18 Torsion [CA]-CB--CG-[CD] |==|  0.08468
USER: genes 19 Torsion [CB]-CG--CD-[OE2] |==|  0.25825
USER: genes 20 Torsion [N]-CA--CB-[CG] |==|  0.15871
USER: genes 21 Torsion [CA]-CB--CG-[CD2] |==|  0.80496
ROOT
ATOM      1  C   LEU B   4      -1.522  39.027  72.510  1.00 29.18 LIG 0.24  C 
ATOM      2 O    LEU B   4      -0.816  40.033  72.402  1.00 28.54 LIG-0.27  OA
ATOM      3  N   PHE B   5      -1.313  37.918  71.804  1.00 29.99 LIG-0.35  N 
ATOM      4 H    PHE B   5      -1.857  37.252  71.777  1.00 29.99 LIG 0.16  HD
ENDROOT
BRANCH 1 5
ATOM      5  CA  LEU B   4      -2.720  39.039  73.481  1.00 28.82 LIG 0.18  C 
BRANCH 5 6
ATOM      6  CB  LEU B   4      -2.252  39.355  74.881  1.00 28.29 LIG 0.04  C 
BRANCH 6 7
ATOM      7  CG  LEU B   4      -1.464  40.673  75.007  1.00 28.88 LIG-0.02  C 
ATOM      8  CD2 LEU B   4      -0.379  40.492  76.055  1.00 30.37 LIG 0.01  C 
ATOM      9  CD1 LEU B   4      -2.343  41.904  75.346  1.00 31.50 LIG 0.01  C 
ENDBRANCH 6 7
ENDBRANCH 5 6
BRANCH 5 10
ATOM     10  N   LEU B   4      -3.507  37.810  73.447  1.00 28.20 LIG-0.35  N 
ATOM     11  C   TRP B   3      -4.548  37.691  72.647  1.00 29.51 LIG 0.24  C 
ATOM     12 O    TRP B   3      -4.876  38.575  71.863  1.00 30.32 LIG-0.27  OA
ATOM     13 H    LEU B   4      -3.233  37.194  73.981  1.00 28.20 LIG 0.16  HD
BRANCH 11 14
ATOM     14  CA  TRP B   3      -5.366  36.395  72.771  1.00 31.78 LIG 0.18  C 
BRANCH 14 15
ATOM     15  N   TRP B   3      -4.548  35.344  73.420  1.00 33.85 LIG-0.35  N 
ATOM     16  C   ALA B   2      -3.479  34.881  72.746  1.00 37.00 LIG 0.26  C 
ATOM     17 O    ALA B   2      -3.223  35.288  71.580  1.00 38.56 LIG-0.27  OA
ATOM     18 H    TRP B   3      -4.807  35.086  74.199  1.00 33.85 LIG 0.16  HD
BRANCH 16 19
ATOM     19  CA  ALA B   2      -2.564  33.864  73.373  1.00 38.11 LIG 0.40  C 
ATOM     20  CB  ALA B   2      -1.353  33.567  72.383  1.00 38.97 LIG 0.06  C 
ATOM     21  N   ALA B   2      -3.157  32.574  73.900  1.00 37.81 LIG 0.61  N 
ENDBRANCH 16 19
ENDBRANCH 14 15
BRANCH 14 22
ATOM     22  CB  TRP B   3      -6.671  36.694  73.540  1.00 31.58 LIG 0.07  C 
BRANCH 22 23
ATOM     23  CG  TRP B   3      -6.949  38.116  73.642  1.00 30.60 LIG-0.03  A 
ATOM     24  CD1 TRP B   3      -7.739  38.850  72.836  1.00 31.03 LIG 0.10  A 
ATOM     25  NE1 TRP B   3      -7.706  40.170  73.219  1.00 29.84 LIG-0.36  N 
ATOM     26 HE1  TRP B   3      -8.135  40.814  72.842  1.00 29.84 LIG 0.17  HD
ATOM     27  CE2 TRP B   3      -6.879  40.289  74.299  1.00 27.79 LIG 0.04  A 
ATOM     28  CD2 TRP B   3      -6.392  39.016  74.592  1.00 28.46 LIG-0.00  A 
ATOM     29  CZ2 TRP B   3      -6.536  41.410  75.040  1.00 27.89 LIG 0.03  A 
ATOM     30  CE3 TRP B   3      -5.510  38.863  75.647  1.00 31.78 LIG 0.01  A 
ATOM     31  CZ3 TRP B   3      -5.185  39.963  76.399  1.00 30.70 LIG 0.00  A 
ATOM     32  CH2 TRP B   3      -5.680  41.232  76.070  1.00 27.16 LIG 0.00  A 
ENDBRANCH 22 23
ENDBRANCH 14 22
ENDBRANCH 11 14
ENDBRANCH 5 10
ENDBRANCH 1 5
BRANCH 3 33
ATOM     33  CA  PHE B   5      -0.091  37.747  70.990  1.00 32.14 LIG 0.18  C 
BRANCH 33 34
ATOM     34  C   PHE B   5      -0.076  36.485  70.151  1.00 34.99 LIG 0.24  C 
ATOM     35 O    PHE B   5       0.994  35.895  69.969  1.00 34.76 LIG-0.27  OA
ATOM     36  N   GLU B   6      -1.263  36.061  69.690  1.00 37.97 LIG-0.35  N 
ATOM     37 H    GLU B   6      -2.007  36.276  70.063  1.00 37.97 LIG 0.16  HD
BRANCH 36 38
ATOM     38  CA  GLU B   6      -1.439  35.185  68.505  1.00 41.44 LIG 0.18  C 
BRANCH 38 39
ATOM     39  C   GLU B   6      -2.776  35.605  67.850  1.00 42.63 LIG 0.24  C 
ATOM     40  N   ALA B   7      -2.928  36.900  67.568  1.00 44.72 LIG-0.35  N 
ATOM     41 H    ALA B   7      -2.300  37.487  67.591  1.00 44.72 LIG 0.16  HD
ATOM     42 O    GLU B   6      -3.702  34.788  67.670  1.00 39.57 LIG-0.27  OA
BRANCH 40 43
ATOM     43  CA  ALA B   7      -4.289  37.420  67.172  1.00 46.42 LIG 0.16  C 
ATOM     44  CB  ALA B   7      -5.200  37.591  68.408  1.00 46.36 LIG 0.04  C 
BRANCH 43 45
ATOM     45  C   ALA B   7      -4.201  38.697  66.355  1.00 46.87 LIG 0.22  C 
ATOM     46 O    ALA B   7      -3.122  39.288  66.289  1.00 48.90 LIG-0.29  OA
ENDBRANCH 43 45
ENDBRANCH 40 43
ENDBRANCH 38 39
BRANCH 38 47
ATOM     47  CB  GLU B   6      -1.456  33.696  68.870  1.00 42.54 LIG 0.04  C 
BRANCH 47 48
ATOM     48  CG  GLU B   6      -0.796  32.799  67.768  1.00 48.04 LIG 0.12  C 
BRANCH 48 49
ATOM     49  CD  GLU B   6       0.332  33.458  66.957  1.00 53.57 LIG 0.17  C 
ATOM     50 OE2  GLU B   6       1.520  33.284  67.379  1.00 60.38 LIG-0.65  OA
ATOM     51 OE1  GLU B   6       0.082  34.106  65.905  1.00 57.14 LIG-0.65  OA
ENDBRANCH 48 49
ENDBRANCH 47 48
ENDBRANCH 38 47
ENDBRANCH 36 38
ENDBRANCH 33 34
BRANCH 33 52
ATOM     52  CB  PHE B   5       1.178  37.719  71.864  1.00 32.62 LIG 0.07  C 
BRANCH 52 53
ATOM     53  CG  PHE B   5       1.182  36.656  72.922  1.00 30.35 LIG-0.06  A 
ATOM     54  CD1 PHE B   5       1.972  35.536  72.808  1.00 31.18 LIG 0.01  A 
ATOM     55  CE1 PHE B   5       1.946  34.550  73.789  1.00 30.23 LIG 0.00  A 
ATOM     56  CZ  PHE B   5       1.121  34.676  74.923  1.00 31.30 LIG 0.00  A 
ATOM     57  CE2 PHE B   5       0.282  35.787  75.020  1.00 30.12 LIG 0.00  A 
ATOM     58  CD2 PHE B   5       0.327  36.760  74.023  1.00 31.88 LIG 0.01  A 
ENDBRANCH 52 53
ENDBRANCH 33 52
ENDBRANCH 3 33
TORSDOF 20
ENDMDL
MODEL 54
USER: ADFR SOLUTION from run 43
USER: SCORE 18.925725 LL:  -4.950 LR: -15.039 RR:   0.000 FEB:  -9.073
USER: RMSD 6.764209
USER: SEED 42
USER: STATUS no improvement in best in 15 clusters for 5 generations
USER: GENES 22
USER: genes 0 Translation |==|  0.57175 0.53922 0.57191
USER: genes 1 Rotation |==|  0.30820 0.34368 0.06554 0.50449
USER: genes 2 Torsion [N]-C--CA-[N] |==|  0.34343
USER: genes 3 Torsion [C]-CA--CB-[CG] |==|  0.68608
USER: genes 4 Torsion [CA]-CB--CG-[CD2] |==|  0.72087
USER: genes 5 Torsion [C]-CA--N-[C] |==|  0.79271
USER: genes 6 Torsion [N]-C--CA-[N] |==|  0.00223
USER: genes 7 Torsion [C]-CA--N-[C] |==|  0.75545
USER: genes 8 Torsion [N]-C--CA-[N] |==|  0.52826
USER: genes 9 Torsion [C]-CA--CB-[CG] |==|  0.25693
USER: genes 10 Torsion [CA]-CB--CG-[CD1] |==|  0.51677
USER: genes 11 Torsion [C]-N--CA-[CB] |==|  0.20160
USER: genes 12 Torsion [N]-CA--C-[N] |==|  0.03333
USER: genes 13 Torsion [C]-N--CA-[C] |==|  0.19303
USER: genes 14 Torsion [N]-CA--C-[N] |==|  0.17493
USER: genes 15 Torsion [C]-N--CA-[C] |==|  0.50129
USER: genes 16 Torsion [N]-CA--C-[O] |==|  0.01058
USER: genes 17 Torsion [N]-CA--CB-[CG] |==|  0.61851
USER: genes 18 Torsion [CA]-CB--CG-[CD] |==|  0.78622
USER: genes 19 Torsion [CB]-CG--CD-[OE2] |==|  0.91618
USER: genes 20 Torsion [N]-CA--CB-[CG] |==|  0.81468
USER: genes 21 Torsion [CA]-CB--CG-[CD2] |==|  0.31437
ROOT
ATOM      1  C   LEU B   4      -1.529  36.373  69.464  1.00 29.18 LIG 0.24  C 
ATOM      2 O    LEU B   4      -2.044  35.342  69.904  1.00 28.54 LIG-0.27  OA
ATOM      3  N   PHE B   5      -2.167  37.208  68.648  1.00 29.99 LIG-0.35  N 
ATOM      4 H    PHE B   5      -1.792  37.865  68.239  1.00 29.99 LIG 0.16  HD
ENDROOT
BRANCH 1 5
ATOM      5  CA  LEU B   4      -0.074  36.717  69.841  1.00 28.82 LIG 0.18  C 
BRANCH 5 6
ATOM      6  CB  LEU B   4       0.876  35.730  69.206  1.00 28.29 LIG 0.04  C 
BRANCH 6 7
ATOM      7  CG  LEU B   4       1.610  34.818  70.206  1.00 28.88 LIG-0.02  C 
ATOM      8  CD2 LEU B   4       3.014  35.360  70.417  1.00 30.37 LIG 0.01  C 
ATOM      9  CD1 LEU B   4       1.664  33.328  69.781  1.00 31.50 LIG 0.01  C 
ENDBRANCH 6 7
ENDBRANCH 5 6
BRANCH 5 10
ATOM     10  N   LEU B   4       0.145  36.816  71.281  1.00 28.20 LIG-0.35  N 
ATOM     11  C   TRP B   3      -0.284  37.858  71.964  1.00 29.51 LIG 0.24  C 
ATOM     12 O    TRP B   3      -0.924  38.765  71.442  1.00 30.32 LIG-0.27  OA
ATOM     13 H    LEU B   4       0.565  36.150  71.627  1.00 28.20 LIG 0.16  HD
BRANCH 11 14
ATOM     14  CA  TRP B   3       0.095  37.908  73.453  1.00 31.78 LIG 0.18  C 
BRANCH 14 15
ATOM     15  N   TRP B   3       0.913  36.724  73.805  1.00 33.85 LIG-0.35  N 
ATOM     16  C   ALA B   2       0.265  35.608  74.186  1.00 37.00 LIG 0.26  C 
ATOM     17 O    ALA B   2      -0.992  35.596  74.297  1.00 38.56 LIG-0.27  OA
ATOM     18 H    TRP B   3       1.766  36.819  73.744  1.00 33.85 LIG 0.16  HD
BRANCH 16 19
ATOM     19  CA  ALA B   2       1.029  34.349  74.489  1.00 38.11 LIG 0.40  C 
ATOM     20  CB  ALA B   2       2.182  34.161  73.407  1.00 38.97 LIG 0.06  C 
ATOM     21  N   ALA B   2       0.262  33.058  74.687  1.00 37.81 LIG 0.61  N 
ENDBRANCH 16 19
ENDBRANCH 14 15
BRANCH 14 22
ATOM     22  CB  TRP B   3       0.818  39.240  73.746  1.00 31.58 LIG 0.07  C 
BRANCH 22 23
ATOM     23  CG  TRP B   3      -0.089  40.286  74.188  1.00 30.60 LIG-0.03  A 
ATOM     24  CD1 TRP B   3       0.208  41.580  74.412  1.00 31.03 LIG 0.10  A 
ATOM     25  NE1 TRP B   3      -0.902  42.245  74.875  1.00 29.84 LIG-0.36  N 
ATOM     26 HE1  TRP B   3      -0.938  43.079  75.084  1.00 29.84 LIG 0.17  HD
ATOM     27  CE2 TRP B   3      -1.940  41.360  74.949  1.00 27.79 LIG 0.04  A 
ATOM     28  CD2 TRP B   3      -1.463  40.123  74.519  1.00 28.46 LIG-0.00  A 
ATOM     29  CZ2 TRP B   3      -3.253  41.559  75.346  1.00 27.89 LIG 0.03  A 
ATOM     30  CE3 TRP B   3      -2.323  39.040  74.512  1.00 31.78 LIG 0.01  A 
ATOM     31  CZ3 TRP B   3      -3.631  39.234  74.880  1.00 30.70 LIG 0.00  A 
ATOM     32  CH2 TRP B   3      -4.076  40.487  75.321  1.00 27.16 LIG 0.00  A 
ENDBRANCH 22 23
ENDBRANCH 14 22
ENDBRANCH 11 14
ENDBRANCH 5 10
ENDBRANCH 1 5
BRANCH 3 33
ATOM     33  CA  PHE B   5      -3.614  37.060  68.378  1.00 32.14 LIG 0.18  C 
BRANCH 33 34
ATOM     34  C   PHE B   5      -4.108  37.863  67.192  1.00 34.99 LIG 0.24  C 
ATOM     35 O    PHE B   5      -5.324  38.024  67.038  1.00 34.76 LIG-0.27  OA
ATOM     36  N   GLU B   6      -3.167  38.395  66.397  1.00 37.97 LIG-0.35  N 
ATOM     37 H    GLU B   6      -2.365  38.547  66.667  1.00 37.97 LIG 0.16  HD
BRANCH 36 38
ATOM     38  CA  GLU B   6      -3.385  38.779  64.980  1.00 41.44 LIG 0.18  C 
BRANCH 38 39
ATOM     39  C   GLU B   6      -4.322  40.010  65.004  1.00 42.63 LIG 0.24  C 
ATOM     40  N   ALA B   7      -3.857  41.110  65.598  1.00 44.72 LIG-0.35  N 
ATOM     41 H    ALA B   7      -3.041  41.233  65.840  1.00 44.72 LIG 0.16  HD
ATOM     42 O    GLU B   6      -5.489  39.954  64.564  1.00 39.57 LIG-0.27  OA
BRANCH 40 43
ATOM     43  CA  ALA B   7      -4.799  42.255  65.887  1.00 46.42 LIG 0.16  C 
ATOM     44  CB  ALA B   7      -6.020  41.777  66.704  1.00 46.36 LIG 0.04  C 
BRANCH 43 45
ATOM     45  C   ALA B   7      -4.096  43.424  66.553  1.00 46.87 LIG 0.22  C 
ATOM     46 O    ALA B   7      -2.876  43.367  66.721  1.00 48.90 LIG-0.29  OA
ENDBRANCH 43 45
ENDBRANCH 40 43
ENDBRANCH 38 39
BRANCH 38 47
ATOM     47  CB  GLU B   6      -3.997  37.645  64.150  1.00 42.54 LIG 0.04  C 
BRANCH 47 48
ATOM     48  CG  GLU B   6      -3.330  37.506  62.738  1.00 48.04 LIG 0.12  C 
BRANCH 48 49
ATOM     49  CD  GLU B   6      -3.758  38.547  61.691  1.00 53.57 LIG 0.17  C 
ATOM     50 OE2  GLU B   6      -4.939  39.012  61.791  1.00 60.38 LIG-0.65  OA
ATOM     51 OE1  GLU B   6      -2.955  38.941  60.803  1.00 57.14 LIG-0.65  OA
ENDBRANCH 48 49
ENDBRANCH 47 48
ENDBRANCH 38 47
ENDBRANCH 36 38
ENDBRANCH 33 34
BRANCH 33 52
ATOM     52  CB  PHE B   5      -4.466  37.481  69.591  1.00 32.62 LIG 0.07  C 
BRANCH 52 53
ATOM     53  CG  PHE B   5      -4.323  36.593  70.792  1.00 30.35 LIG-0.06  A 
ATOM     54  CD1 PHE B   5      -4.820  35.310  70.796  1.00 31.18 LIG 0.01  A 
ATOM     55  CE1 PHE B   5      -4.697  34.509  71.926  1.00 30.23 LIG 0.00  A 
ATOM     56  CZ  PHE B   5      -4.057  34.985  73.087  1.00 31.30 LIG 0.00  A 
ATOM     57  CE2 PHE B   5      -3.594  36.301  73.104  1.00 30.12 LIG 0.00  A 
ATOM     58  CD2 PHE B   5      -3.730  37.083  71.959  1.00 31.88 LIG 0.01  A 
ENDBRANCH 52 53
ENDBRANCH 33 52
ENDBRANCH 3 33
TORSDOF 20
ENDMDL
MODEL 55
USER: ADFR SOLUTION from run 86
USER: SCORE 18.476181 LL:  -5.419 LR: -15.038 RR:   0.000 FEB:  -9.072
USER: RMSD 9.098587
USER: SEED 85
USER: STATUS searching
USER: GENES 22
USER: genes 0 Translation |==|  0.71920 0.52092 0.72378
USER: genes 1 Rotation |==|  0.85905 0.80236 0.51739 0.67134
USER: genes 2 Torsion [N]-C--CA-[N] |==|  0.90526
USER: genes 3 Torsion [C]-CA--CB-[CG] |==|  0.94096
USER: genes 4 Torsion [CA]-CB--CG-[CD2] |==|  0.65050
USER: genes 5 Torsion [C]-CA--N-[C] |==|  0.18463
USER: genes 6 Torsion [N]-C--CA-[N] |==|  0.15000
USER: genes 7 Torsion [C]-CA--N-[C] |==|  0.17089
USER: genes 8 Torsion [N]-C--CA-[N] |==|  0.84814
USER: genes 9 Torsion [C]-CA--CB-[CG] |==|  0.14931
USER: genes 10 Torsion [CA]-CB--CG-[CD1] |==|  0.62768
USER: genes 11 Torsion [C]-N--CA-[CB] |==|  0.16017
USER: genes 12 Torsion [N]-CA--C-[N] |==|  0.22770
USER: genes 13 Torsion [C]-N--CA-[C] |==|  0.75597
USER: genes 14 Torsion [N]-CA--C-[N] |==|  0.36171
USER: genes 15 Torsion [C]-N--CA-[C] |==|  0.15482
USER: genes 16 Torsion [N]-CA--C-[O] |==|  0.12726
USER: genes 17 Torsion [N]-CA--CB-[CG] |==|  0.57698
USER: genes 18 Torsion [CA]-CB--CG-[CD] |==|  0.01019
USER: genes 19 Torsion [CB]-CG--CD-[OE2] |==|  0.66714
USER: genes 20 Torsion [N]-CA--CB-[CG] |==|  0.57659
USER: genes 21 Torsion [CA]-CB--CG-[CD2] |==|  0.10915
ROOT
ATOM      1  C   LEU B   4       1.346  36.016  72.881  1.00 29.18 LIG 0.24  C 
ATOM      2 O    LEU B   4       1.932  36.674  73.745  1.00 28.54 LIG-0.27  OA
ATOM      3  N   PHE B   5       0.119  36.309  72.458  1.00 29.99 LIG-0.35  N 
ATOM      4 H    PHE B   5      -0.350  35.801  71.946  1.00 29.99 LIG 0.16  HD
ENDROOT
BRANCH 1 5
ATOM      5  CA  LEU B   4       2.036  34.780  72.268  1.00 28.82 LIG 0.18  C 
BRANCH 5 6
ATOM      6  CB  LEU B   4       2.846  35.183  71.059  1.00 28.29 LIG 0.04  C 
BRANCH 6 7
ATOM      7  CG  LEU B   4       2.418  36.518  70.422  1.00 28.88 LIG-0.02  C 
ATOM      8  CD2 LEU B   4       2.138  36.283  68.947  1.00 30.37 LIG 0.01  C 
ATOM      9  CD1 LEU B   4       3.447  37.662  70.601  1.00 31.50 LIG 0.01  C 
ENDBRANCH 6 7
ENDBRANCH 5 6
BRANCH 5 10
ATOM     10  N   LEU B   4       1.111  33.696  71.953  1.00 28.20 LIG-0.35  N 
ATOM     11  C   TRP B   3       0.199  33.833  71.011  1.00 29.51 LIG 0.24  C 
ATOM     12 O    TRP B   3       0.113  34.846  70.325  1.00 30.32 LIG-0.27  OA
ATOM     13 H    LEU B   4       1.216  32.985  72.425  1.00 28.20 LIG 0.16  HD
BRANCH 11 14
ATOM     14  CA  TRP B   3      -0.791  32.669  70.837  1.00 31.78 LIG 0.18  C 
BRANCH 14 15
ATOM     15  N   TRP B   3      -1.441  32.364  72.132  1.00 33.85 LIG-0.35  N 
ATOM     16  C   ALA B   2      -2.180  33.333  72.703  1.00 37.00 LIG 0.26  C 
ATOM     17 O    ALA B   2      -2.261  34.478  72.180  1.00 38.56 LIG-0.27  OA
ATOM     18 H    TRP B   3      -1.308  31.575  72.449  1.00 33.85 LIG 0.16  HD
BRANCH 16 19
ATOM     19  CA  ALA B   2      -2.925  33.070  73.983  1.00 38.11 LIG 0.40  C 
ATOM     20  CB  ALA B   2      -1.889  33.013  75.192  1.00 38.97 LIG 0.06  C 
ATOM     21  N   ALA B   2      -3.885  31.900  74.043  1.00 37.81 LIG 0.61  N 
ENDBRANCH 16 19
ENDBRANCH 14 15
BRANCH 14 22
ATOM     22  CB  TRP B   3      -1.806  33.031  69.731  1.00 31.58 LIG 0.07  C 
BRANCH 22 23
ATOM     23  CG  TRP B   3      -1.165  33.419  68.486  1.00 30.60 LIG-0.03  A 
ATOM     24  CD1 TRP B   3      -1.468  34.478  67.711  1.00 31.03 LIG 0.10  A 
ATOM     25  NE1 TRP B   3      -0.677  34.479  66.586  1.00 29.84 LIG-0.36  N 
ATOM     26 HE1  TRP B   3      -0.703  35.063  65.955  1.00 29.84 LIG 0.17  HD
ATOM     27  CE2 TRP B   3       0.156  33.399  66.639  1.00 27.79 LIG 0.04  A 
ATOM     28  CD2 TRP B   3      -0.122  32.716  67.823  1.00 28.46 LIG-0.00  A 
ATOM     29  CZ2 TRP B   3       1.133  32.983  65.747  1.00 27.89 LIG 0.03  A 
ATOM     30  CE3 TRP B   3       0.584  31.562  68.111  1.00 31.78 LIG 0.01  A 
ATOM     31  CZ3 TRP B   3       1.569  31.158  67.246  1.00 30.70 LIG 0.00  A 
ATOM     32  CH2 TRP B   3       1.815  31.858  66.057  1.00 27.16 LIG 0.00  A 
ENDBRANCH 22 23
ENDBRANCH 14 22
ENDBRANCH 11 14
ENDBRANCH 5 10
ENDBRANCH 1 5
BRANCH 3 33
ATOM     33  CA  PHE B   5      -0.546  37.570  72.849  1.00 32.14 LIG 0.18  C 
BRANCH 33 34
ATOM     34  C   PHE B   5      -1.930  37.750  72.259  1.00 34.99 LIG 0.24  C 
ATOM     35 O    PHE B   5      -2.063  38.409  71.222  1.00 34.76 LIG-0.27  OA
ATOM     36  N   GLU B   6      -2.936  37.129  72.896  1.00 37.97 LIG-0.35  N 
ATOM     37 H    GLU B   6      -2.810  36.445  73.402  1.00 37.97 LIG 0.16  HD
BRANCH 36 38
ATOM     38  CA  GLU B   6      -4.361  37.534  72.809  1.00 41.44 LIG 0.18  C 
BRANCH 38 39
ATOM     39  C   GLU B   6      -4.578  38.592  73.917  1.00 42.63 LIG 0.24  C 
ATOM     40  N   ALA B   7      -5.177  39.728  73.556  1.00 44.72 LIG-0.35  N 
ATOM     41 H    ALA B   7      -5.571  39.861  72.804  1.00 44.72 LIG 0.16  HD
ATOM     42 O    GLU B   6      -4.141  38.428  75.074  1.00 39.57 LIG-0.27  OA
BRANCH 40 43
ATOM     43  CA  ALA B   7      -5.191  40.898  74.511  1.00 46.42 LIG 0.16  C 
ATOM     44  CB  ALA B   7      -6.114  40.620  75.718  1.00 46.36 LIG 0.04  C 
BRANCH 43 45
ATOM     45  C   ALA B   7      -3.794  41.299  74.950  1.00 46.87 LIG 0.22  C 
ATOM     46 O    ALA B   7      -2.908  41.396  74.098  1.00 48.90 LIG-0.29  OA
ENDBRANCH 43 45
ENDBRANCH 40 43
ENDBRANCH 38 39
BRANCH 38 47
ATOM     47  CB  GLU B   6      -5.320  36.353  72.989  1.00 42.54 LIG 0.04  C 
BRANCH 47 48
ATOM     48  CG  GLU B   6      -6.686  36.570  72.252  1.00 48.04 LIG 0.12  C 
BRANCH 48 49
ATOM     49  CD  GLU B   6      -6.799  37.858  71.419  1.00 53.57 LIG 0.17  C 
ATOM     50 OE2  GLU B   6      -7.716  38.677  71.748  1.00 60.38 LIG-0.65  OA
ATOM     51 OE1  GLU B   6      -5.991  38.097  70.482  1.00 57.14 LIG-0.65  OA
ENDBRANCH 48 49
ENDBRANCH 47 48
ENDBRANCH 38 47
ENDBRANCH 36 38
ENDBRANCH 33 34
BRANCH 33 52
ATOM     52  CB  PHE B   5       0.280  38.803  72.435  1.00 32.62 LIG 0.07  C 
BRANCH 52 53
ATOM     53  CG  PHE B   5       0.070  40.013  73.298  1.00 30.35 LIG-0.06  A 
ATOM     54  CD1 PHE B   5       0.072  41.280  72.765  1.00 31.18 LIG 0.01  A 
ATOM     55  CE1 PHE B   5      -0.103  42.391  73.583  1.00 30.23 LIG 0.00  A 
ATOM     56  CZ  PHE B   5      -0.293  42.248  74.972  1.00 31.30 LIG 0.00  A 
ATOM     57  CE2 PHE B   5      -0.246  40.967  75.524  1.00 30.12 LIG 0.00  A 
ATOM     58  CD2 PHE B   5      -0.070  39.871  74.682  1.00 31.88 LIG 0.01  A 
ENDBRANCH 52 53
ENDBRANCH 33 52
ENDBRANCH 3 33
TORSDOF 20
ENDMDL
